WYN.pdb
     RDKit          3D

 35 37  0  0  1  0  0  0  0  0999 V2000
   26.8305  -22.1743  -10.1176 N   0  0  0  0  0  0  0  0  0  0  0  0
   26.3280  -20.8663   -9.6912 C   0  0  1  0  0  0  0  0  0  0  0  0
   27.4678  -19.8778   -9.5528 C   0  0  0  0  0  0  0  0  0  0  0  0
   28.4654  -20.2960   -8.5669 C   0  0  0  0  0  0  0  0  0  0  0  0
   29.6491  -20.9975   -8.7773 C   0  0  0  0  0  0  0  0  0  0  0  0
   30.2608  -21.1711   -7.6154 N   0  0  0  0  0  0  0  0  0  0  0  0
   29.5610  -20.6263   -6.6157 C   0  0  0  0  0  0  0  0  0  0  0  0
   29.7863  -20.5510   -5.2531 C   0  0  0  0  0  0  0  0  0  0  0  0
   28.8346  -19.8999   -4.5024 C   0  0  0  0  0  0  0  0  0  0  0  0
   27.6988  -19.3385   -5.0526 C   0  0  0  0  0  0  0  0  0  0  0  0
   27.5056  -19.4294   -6.3970 C   0  0  0  0  0  0  0  0  0  0  0  0
   28.4221  -20.0695   -7.2078 C   0  0  0  0  0  0  0  0  0  0  0  0
   25.2913  -20.3711  -10.6327 C   0  0  0  0  0  0  0  0  0  0  0  0
   24.8134  -19.2324  -10.4010 O   0  0  0  0  0  0  0  0  0  0  0  0
   29.6061  -18.1865  -15.8347 O   0  0  0  0  0  0  0  0  0  0  0  0
   28.4343  -18.8510  -15.4311 C   0  0  0  0  0  0  0  0  0  0  0  0
   28.4267  -20.2190  -15.2667 C   0  0  0  0  0  0  0  0  0  0  0  0
   27.2699  -20.8857  -14.8672 C   0  0  0  0  0  0  0  0  0  0  0  0
   26.0988  -20.1977  -14.6246 C   0  0  0  0  0  0  0  0  0  0  0  0
   24.9182  -20.9716  -14.2066 C   0  0  0  0  0  0  0  0  0  0  0  0
   24.2805  -20.4975  -12.9416 C   0  0  2  0  0  0  0  0  0  0  0  0
   24.8169  -21.0757  -11.7436 N   0  0  0  0  0  0  0  0  0  0  0  0
   22.8360  -20.8470  -13.0216 C   0  0  0  0  0  0  0  0  0  0  0  0
   22.1579  -20.6138  -14.0775 O   0  0  0  0  0  0  0  0  0  0  0  0
   26.1067  -18.8419  -14.7877 C   0  0  0  0  0  0  0  0  0  0  0  0
   27.2630  -18.1691  -15.1877 C   0  0  0  0  0  0  0  0  0  0  0  0
   18.0618  -19.2235  -12.2545 N   0  0  0  0  0  0  0  0  0  0  0  0
   18.8533  -19.9242  -11.3065 C   0  0  0  0  0  0  0  0  0  0  0  0
   18.3374  -20.4833  -10.3261 O   0  0  0  0  0  0  0  0  0  0  0  0
   20.3106  -19.9838  -11.4970 C   0  0  0  0  0  0  0  0  0  0  0  0
   20.7064  -21.4179  -11.7653 C   0  0  2  0  0  0  0  0  0  0  0  0
   22.1579  -21.4490  -11.9382 N   0  0  0  0  0  0  0  0  0  0  0  0
   20.0880  -22.0131  -12.9435 C   0  0  0  0  0  0  0  0  0  0  0  0
   20.7848  -22.4478  -14.0757 O   0  0  0  0  0  0  0  0  0  0  0  0
   18.8410  -22.1632  -12.9838 O   0  0  0  0  0  0  0  0  0  0  0  0
  2  1  1  6
  3  4  1  0
  3  2  1  0
  4  5  2  0
  5  6  1  0
  7  6  1  0
  8  7  2  0
  9  8  1  0
 10 11  1  0
 10  9  2  0
 11 12  2  0
 12  4  1  0
 12  7  1  0
 13  2  1  0
 13 22  1  0
 14 13  2  0
 15 16  1  0
 16 17  2  0
 17 18  1  0
 19 20  1  0
 19 18  2  0
 21 20  1  6
 21 22  1  0
 21 23  1  0
 23 32  1  0
 24 23  2  0
 25 19  1  0
 26 25  2  0
 26 16  1  0
 28 27  1  0
 29 28  2  0
 30 28  1  0
 31 33  1  0
 31 30  1  6
 32 31  1  0
 33 34  1  0
 35 33  2  0
M  END
$$$$
