WYN.pdb
     RDKit          3D

 35 37  0  0  1  0  0  0  0  0999 V2000
   21.2583  -21.3827  -15.8099 N   0  0  0  0  0  0  0  0  0  0  0  0
   21.4493  -22.4994  -14.8816 C   0  0  1  0  0  0  0  0  0  0  0  0
   22.6850  -22.2801  -14.0328 C   0  0  0  0  0  0  0  0  0  0  0  0
   23.9233  -22.3189  -14.8122 C   0  0  0  0  0  0  0  0  0  0  0  0
   24.7095  -21.2535  -15.2414 C   0  0  0  0  0  0  0  0  0  0  0  0
   25.7446  -21.7260  -15.9194 N   0  0  0  0  0  0  0  0  0  0  0  0
   25.7129  -23.0607  -15.9799 C   0  0  0  0  0  0  0  0  0  0  0  0
   26.5566  -23.9874  -16.5650 C   0  0  0  0  0  0  0  0  0  0  0  0
   26.2123  -25.3125  -16.4282 C   0  0  0  0  0  0  0  0  0  0  0  0
   25.0858  -25.7293  -15.7462 C   0  0  0  0  0  0  0  0  0  0  0  0
   24.2751  -24.7929  -15.1816 C   0  0  0  0  0  0  0  0  0  0  0  0
   24.5632  -23.4460  -15.2817 C   0  0  0  0  0  0  0  0  0  0  0  0
   20.2405  -22.6941  -14.0405 C   0  0  0  0  0  0  0  0  0  0  0  0
   19.7418  -21.6656  -13.5191 O   0  0  0  0  0  0  0  0  0  0  0  0
   15.6194  -19.8324  -16.9856 O   0  0  0  0  0  0  0  0  0  0  0  0
   15.9977  -20.9340  -16.1976 C   0  0  0  0  0  0  0  0  0  0  0  0
   16.7051  -21.9796  -16.7497 C   0  0  0  0  0  0  0  0  0  0  0  0
   17.0840  -23.0752  -15.9762 C   0  0  0  0  0  0  0  0  0  0  0  0
   16.7628  -23.1466  -14.6363 C   0  0  0  0  0  0  0  0  0  0  0  0
   17.1971  -24.3362  -13.8854 C   0  0  0  0  0  0  0  0  0  0  0  0
   18.4184  -24.1319  -13.0499 C   0  0  2  0  0  0  0  0  0  0  0  0
   19.6283  -23.9267  -13.7924 N   0  0  0  0  0  0  0  0  0  0  0  0
   18.5859  -25.3515  -12.2134 C   0  0  0  0  0  0  0  0  0  0  0  0
   19.2493  -26.3563  -12.6368 O   0  0  0  0  0  0  0  0  0  0  0  0
   16.0617  -22.1103  -14.0894 C   0  0  0  0  0  0  0  0  0  0  0  0
   15.6797  -21.0102  -14.8599 C   0  0  0  0  0  0  0  0  0  0  0  0
   18.4185  -23.8770   -7.8938 N   0  0  0  0  0  0  0  0  0  0  0  0
   18.7811  -25.2339   -8.1031 C   0  0  0  0  0  0  0  0  0  0  0  0
   19.9220  -25.6427   -7.8367 O   0  0  0  0  0  0  0  0  0  0  0  0
   17.7804  -26.1653   -8.6458 C   0  0  0  0  0  0  0  0  0  0  0  0
   18.2140  -26.5903  -10.0302 C   0  0  2  0  0  0  0  0  0  0  0  0
   18.0211  -25.4479  -10.9221 N   0  0  0  0  0  0  0  0  0  0  0  0
   17.4875  -27.7302  -10.5759 C   0  0  0  0  0  0  0  0  0  0  0  0
   17.8286  -29.0695  -10.3614 O   0  0  0  0  0  0  0  0  0  0  0  0
   16.4764  -27.5373  -11.2967 O   0  0  0  0  0  0  0  0  0  0  0  0
  2  1  1  6
  3  4  1  0
  3  2  1  0
  4  5  2  0
  5  6  1  0
  7  6  1  0
  8  7  2  0
  9  8  1  0
 10 11  1  0
 10  9  2  0
 11 12  2  0
 12  4  1  0
 12  7  1  0
 13  2  1  0
 13 22  1  0
 14 13  2  0
 15 16  1  0
 16 17  2  0
 17 18  1  0
 19 20  1  0
 19 18  2  0
 21 20  1  6
 21 22  1  0
 21 23  1  0
 23 32  1  0
 24 23  2  0
 25 19  1  0
 26 25  2  0
 26 16  1  0
 28 27  1  0
 29 28  2  0
 30 28  1  0
 31 33  1  0
 31 30  1  1
 32 31  1  0
 33 34  1  0
 35 33  2  0
M  END
$$$$
