WYN.pdb
     RDKit          3D

 35 37  0  0  1  0  0  0  0  0999 V2000
   28.0527  -20.3001  -11.3739 N   0  0  0  0  0  0  0  0  0  0  0  0
   26.9080  -21.2109  -11.4472 C   0  0  1  0  0  0  0  0  0  0  0  0
   26.6691  -21.8741  -10.1061 C   0  0  0  0  0  0  0  0  0  0  0  0
   27.5890  -21.4050   -9.0688 C   0  0  0  0  0  0  0  0  0  0  0  0
   27.3198  -20.5751   -7.9843 C   0  0  0  0  0  0  0  0  0  0  0  0
   28.4333  -20.3976   -7.2893 N   0  0  0  0  0  0  0  0  0  0  0  0
   29.4553  -21.0615   -7.8378 C   0  0  0  0  0  0  0  0  0  0  0  0
   30.7867  -21.1814   -7.4829 C   0  0  0  0  0  0  0  0  0  0  0  0
   31.5763  -21.9643   -8.2933 C   0  0  0  0  0  0  0  0  0  0  0  0
   31.0931  -22.6119   -9.4136 C   0  0  0  0  0  0  0  0  0  0  0  0
   29.7780  -22.4740   -9.7366 C   0  0  0  0  0  0  0  0  0  0  0  0
   28.9310  -21.7027   -8.9655 C   0  0  0  0  0  0  0  0  0  0  0  0
   25.6970  -20.4933  -11.9213 C   0  0  0  0  0  0  0  0  0  0  0  0
   25.3151  -19.5124  -11.2354 O   0  0  0  0  0  0  0  0  0  0  0  0
   29.2445  -17.6574  -15.8899 O   0  0  0  0  0  0  0  0  0  0  0  0
   27.9294  -18.0746  -15.6178 C   0  0  0  0  0  0  0  0  0  0  0  0
   27.5184  -19.3494  -15.9413 C   0  0  0  0  0  0  0  0  0  0  0  0
   26.2171  -19.7712  -15.6753 C   0  0  0  0  0  0  0  0  0  0  0  0
   25.3018  -18.9268  -15.0813 C   0  0  0  0  0  0  0  0  0  0  0  0
   23.9460  -19.4443  -14.8329 C   0  0  0  0  0  0  0  0  0  0  0  0
   23.7835  -20.1626  -13.5331 C   0  0  2  0  0  0  0  0  0  0  0  0
   24.9626  -20.8301  -13.0628 N   0  0  0  0  0  0  0  0  0  0  0  0
   22.7164  -21.1819  -13.7265 C   0  0  0  0  0  0  0  0  0  0  0  0
   23.0010  -22.3801  -14.0614 O   0  0  0  0  0  0  0  0  0  0  0  0
   25.7094  -17.6636  -14.7608 C   0  0  0  0  0  0  0  0  0  0  0  0
   27.0121  -17.2360  -15.0250 C   0  0  0  0  0  0  0  0  0  0  0  0
   18.1494  -23.6908  -12.3862 N   0  0  0  0  0  0  0  0  0  0  0  0
   18.0399  -22.3702  -12.8964 C   0  0  0  0  0  0  0  0  0  0  0  0
   17.0117  -21.9885  -13.4768 O   0  0  0  0  0  0  0  0  0  0  0  0
   19.1703  -21.4439  -12.7301 C   0  0  0  0  0  0  0  0  0  0  0  0
   20.2648  -21.8359  -13.6964 C   0  0  2  0  0  0  0  0  0  0  0  0
   21.3505  -20.8681  -13.5479 N   0  0  0  0  0  0  0  0  0  0  0  0
   19.8621  -21.8671  -15.0971 C   0  0  0  0  0  0  0  0  0  0  0  0
   19.5699  -23.0303  -15.8166 O   0  0  0  0  0  0  0  0  0  0  0  0
   19.7590  -20.7921  -15.7396 O   0  0  0  0  0  0  0  0  0  0  0  0
  2  1  1  1
  3  4  1  0
  3  2  1  0
  4  5  2  0
  5  6  1  0
  7  6  1  0
  8  7  2  0
  9  8  1  0
 10 11  1  0
 10  9  2  0
 11 12  2  0
 12  4  1  0
 12  7  1  0
 13  2  1  0
 13 22  1  0
 14 13  2  0
 15 16  1  0
 16 17  2  0
 17 18  1  0
 19 20  1  0
 19 18  2  0
 21 20  1  6
 21 22  1  0
 21 23  1  0
 23 32  1  0
 24 23  2  0
 25 19  1  0
 26 25  2  0
 26 16  1  0
 28 27  1  0
 29 28  2  0
 30 28  1  0
 31 33  1  0
 31 30  1  1
 32 31  1  0
 33 34  1  0
 35 33  2  0
M  END
$$$$
