WYN.pdb
     RDKit          3D

 35 37  0  0  1  0  0  0  0  0999 V2000
   27.7099  -18.2786   -9.3792 N   0  0  0  0  0  0  0  0  0  0  0  0
   27.2410  -19.6644   -9.3076 C   0  0  1  0  0  0  0  0  0  0  0  0
   26.4589  -19.8960   -8.0308 C   0  0  0  0  0  0  0  0  0  0  0  0
   27.2092  -19.5252   -6.8301 C   0  0  0  0  0  0  0  0  0  0  0  0
   27.0557  -18.3989   -6.0269 C   0  0  0  0  0  0  0  0  0  0  0  0
   27.9374  -18.4487   -5.0398 N   0  0  0  0  0  0  0  0  0  0  0  0
   28.6902  -19.5500   -5.1205 C   0  0  0  0  0  0  0  0  0  0  0  0
   29.7218  -20.0334   -4.3361 C   0  0  0  0  0  0  0  0  0  0  0  0
   30.2848  -21.2287   -4.7200 C   0  0  0  0  0  0  0  0  0  0  0  0
   29.8632  -21.9356   -5.8293 C   0  0  0  0  0  0  0  0  0  0  0  0
   28.8457  -21.4334   -6.5812 C   0  0  0  0  0  0  0  0  0  0  0  0
   28.2371  -20.2386   -6.2511 C   0  0  0  0  0  0  0  0  0  0  0  0
   26.4356  -20.0076  -10.5075 C   0  0  0  0  0  0  0  0  0  0  0  0
   25.4860  -19.2357  -10.7919 O   0  0  0  0  0  0  0  0  0  0  0  0
   23.7618  -23.6044  -18.1925 O   0  0  0  0  0  0  0  0  0  0  0  0
   24.4174  -23.3798  -16.9688 C   0  0  0  0  0  0  0  0  0  0  0  0
   25.2920  -22.3247  -16.8267 C   0  0  0  0  0  0  0  0  0  0  0  0
   25.9461  -22.0948  -15.6177 C   0  0  0  0  0  0  0  0  0  0  0  0
   25.7385  -22.9154  -14.5281 C   0  0  0  0  0  0  0  0  0  0  0  0
   26.4663  -22.6090  -13.2854 C   0  0  0  0  0  0  0  0  0  0  0  0
   25.9419  -21.4299  -12.5328 C   0  0  2  0  0  0  0  0  0  0  0  0
   26.6585  -21.1159  -11.3307 N   0  0  0  0  0  0  0  0  0  0  0  0
   24.5314  -21.7350  -12.1685 C   0  0  0  0  0  0  0  0  0  0  0  0
   24.2536  -22.4704  -11.1631 O   0  0  0  0  0  0  0  0  0  0  0  0
   24.8717  -23.9610  -14.6693 C   0  0  0  0  0  0  0  0  0  0  0  0
   24.2137  -24.1956  -15.8783 C   0  0  0  0  0  0  0  0  0  0  0  0
   19.4873  -20.3765  -10.8334 N   0  0  0  0  0  0  0  0  0  0  0  0
   19.9528  -20.2890  -12.1720 C   0  0  0  0  0  0  0  0  0  0  0  0
   19.1704  -20.3732  -13.1315 O   0  0  0  0  0  0  0  0  0  0  0  0
   21.3901  -20.0951  -12.4175 C   0  0  0  0  0  0  0  0  0  0  0  0
   22.0426  -21.4498  -12.5731 C   0  0  2  0  0  0  0  0  0  0  0  0
   23.4461  -21.2256  -12.9160 N   0  0  0  0  0  0  0  0  0  0  0  0
   21.4477  -22.3016  -13.5957 C   0  0  0  0  0  0  0  0  0  0  0  0
   20.5072  -23.3066  -13.3475 O   0  0  0  0  0  0  0  0  0  0  0  0
   21.7782  -22.1539  -14.7990 O   0  0  0  0  0  0  0  0  0  0  0  0
  2  1  1  6
  3  4  1  0
  3  2  1  0
  4  5  2  0
  5  6  1  0
  7  6  1  0
  8  7  2  0
  9  8  1  0
 10 11  1  0
 10  9  2  0
 11 12  2  0
 12  4  1  0
 12  7  1  0
 13  2  1  0
 13 22  1  0
 14 13  2  0
 15 16  1  0
 16 17  2  0
 17 18  1  0
 19 20  1  0
 19 18  2  0
 21 20  1  1
 21 22  1  0
 21 23  1  0
 23 32  1  0
 24 23  2  0
 25 19  1  0
 26 25  2  0
 26 16  1  0
 28 27  1  0
 29 28  2  0
 30 28  1  0
 31 33  1  0
 31 30  1  6
 32 31  1  0
 33 34  1  0
 35 33  2  0
M  END
$$$$
