WYN.pdb
     RDKit          3D

 35 37  0  0  1  0  0  0  0  0999 V2000
   28.9491  -20.2573  -18.6986 N   0  0  0  0  0  0  0  0  0  0  0  0
   28.5841  -19.3406  -17.6162 C   0  0  1  0  0  0  0  0  0  0  0  0
   27.7537  -18.1912  -18.1498 C   0  0  0  0  0  0  0  0  0  0  0  0
   28.5196  -17.2897  -19.0117 C   0  0  0  0  0  0  0  0  0  0  0  0
   28.1265  -16.6925  -20.2060 C   0  0  0  0  0  0  0  0  0  0  0  0
   29.1218  -15.9490  -20.6654 N   0  0  0  0  0  0  0  0  0  0  0  0
   30.1798  -16.0026  -19.8506 C   0  0  0  0  0  0  0  0  0  0  0  0
   31.4278  -15.4088  -19.9034 C   0  0  0  0  0  0  0  0  0  0  0  0
   32.2923  -15.6898  -18.8705 C   0  0  0  0  0  0  0  0  0  0  0  0
   31.9601  -16.5201  -17.8178 C   0  0  0  0  0  0  0  0  0  0  0  0
   30.7240  -17.0896  -17.7946 C   0  0  0  0  0  0  0  0  0  0  0  0
   29.8086  -16.8492  -18.8002 C   0  0  0  0  0  0  0  0  0  0  0  0
   27.8735  -20.0663  -16.5323 C   0  0  0  0  0  0  0  0  0  0  0  0
   27.1748  -21.0528  -16.8748 O   0  0  0  0  0  0  0  0  0  0  0  0
   23.8929  -21.5757   -8.6877 O   0  0  0  0  0  0  0  0  0  0  0  0
   24.7997  -21.1851   -9.6891 C   0  0  0  0  0  0  0  0  0  0  0  0
   24.6856  -19.9527  -10.2946 C   0  0  0  0  0  0  0  0  0  0  0  0
   25.5798  -19.5576  -11.2879 C   0  0  0  0  0  0  0  0  0  0  0  0
   26.6046  -20.3868  -11.6949 C   0  0  0  0  0  0  0  0  0  0  0  0
   27.5083  -19.8995  -12.7502 C   0  0  0  0  0  0  0  0  0  0  0  0
   27.1131  -20.2913  -14.1365 C   0  0  2  0  0  0  0  0  0  0  0  0
   27.9278  -19.7313  -15.1756 N   0  0  0  0  0  0  0  0  0  0  0  0
   25.7136  -19.8277  -14.3404 C   0  0  0  0  0  0  0  0  0  0  0  0
   25.4529  -18.6022  -14.5836 O   0  0  0  0  0  0  0  0  0  0  0  0
   26.7173  -21.6081  -11.0947 C   0  0  0  0  0  0  0  0  0  0  0  0
   25.8242  -22.0089  -10.0989 C   0  0  0  0  0  0  0  0  0  0  0  0
   20.9027  -19.6022  -16.6250 N   0  0  0  0  0  0  0  0  0  0  0  0
   21.2458  -20.6876  -15.7761 C   0  0  0  0  0  0  0  0  0  0  0  0
   20.3743  -21.3286  -15.1684 O   0  0  0  0  0  0  0  0  0  0  0  0
   22.6621  -21.0522  -15.6195 C   0  0  0  0  0  0  0  0  0  0  0  0
   23.2242  -20.3128  -14.4268 C   0  0  2  0  0  0  0  0  0  0  0  0
   24.6202  -20.7200  -14.2743 N   0  0  0  0  0  0  0  0  0  0  0  0
   22.5302  -20.5624  -13.1694 C   0  0  0  0  0  0  0  0  0  0  0  0
   22.6903  -21.7090  -12.3847 O   0  0  0  0  0  0  0  0  0  0  0  0
   21.7209  -19.7100  -12.7248 O   0  0  0  0  0  0  0  0  0  0  0  0
  2  1  1  6
  3  4  1  0
  3  2  1  0
  4  5  2  0
  5  6  1  0
  7  6  1  0
  8  7  2  0
  9  8  1  0
 10 11  1  0
 10  9  2  0
 11 12  2  0
 12  4  1  0
 12  7  1  0
 13  2  1  0
 13 22  1  0
 14 13  2  0
 15 16  1  0
 16 17  2  0
 17 18  1  0
 19 20  1  0
 19 18  2  0
 21 20  1  1
 21 22  1  0
 21 23  1  0
 23 32  1  0
 24 23  2  0
 25 19  1  0
 26 25  2  0
 26 16  1  0
 28 27  1  0
 29 28  2  0
 30 28  1  0
 31 33  1  0
 31 30  1  6
 32 31  1  0
 33 34  1  0
 35 33  2  0
M  END
$$$$
