WYN.pdb
     RDKit          3D

 35 37  0  0  1  0  0  0  0  0999 V2000
   23.5315  -20.6012  -16.2540 N   0  0  0  0  0  0  0  0  0  0  0  0
   24.0639  -20.7913  -14.9028 C   0  0  1  0  0  0  0  0  0  0  0  0
   25.2443  -19.8726  -14.6620 C   0  0  0  0  0  0  0  0  0  0  0  0
   26.2467  -19.9452  -15.7261 C   0  0  0  0  0  0  0  0  0  0  0  0
   26.8988  -18.8998  -16.3736 C   0  0  0  0  0  0  0  0  0  0  0  0
   27.7303  -19.4012  -17.2744 N   0  0  0  0  0  0  0  0  0  0  0  0
   27.6853  -20.7369  -17.2818 C   0  0  0  0  0  0  0  0  0  0  0  0
   28.3553  -21.6879  -18.0299 C   0  0  0  0  0  0  0  0  0  0  0  0
   28.0573  -23.0055  -17.7680 C   0  0  0  0  0  0  0  0  0  0  0  0
   27.1389  -23.3920  -16.8114 C   0  0  0  0  0  0  0  0  0  0  0  0
   26.4959  -22.4322  -16.0917 C   0  0  0  0  0  0  0  0  0  0  0  0
   26.7485  -21.0914  -16.3047 C   0  0  0  0  0  0  0  0  0  0  0  0
   23.0000  -20.5860  -13.8868 C   0  0  0  0  0  0  0  0  0  0  0  0
   23.0766  -19.5438  -13.1893 O   0  0  0  0  0  0  0  0  0  0  0  0
   20.5972  -18.7450  -18.7058 O   0  0  0  0  0  0  0  0  0  0  0  0
   20.3896  -19.1293  -17.3691 C   0  0  0  0  0  0  0  0  0  0  0  0
   20.0034  -20.4160  -17.0626 C   0  0  0  0  0  0  0  0  0  0  0  0
   19.7954  -20.8054  -15.7407 C   0  0  0  0  0  0  0  0  0  0  0  0
   19.9692  -19.9161  -14.7002 C   0  0  0  0  0  0  0  0  0  0  0  0
   19.7298  -20.4013  -13.3310 C   0  0  0  0  0  0  0  0  0  0  0  0
   20.8342  -21.2326  -12.7643 C   0  0  2  0  0  0  0  0  0  0  0  0
   21.9339  -21.4612  -13.6563 N   0  0  0  0  0  0  0  0  0  0  0  0
   20.2474  -22.5509  -12.4001 C   0  0  0  0  0  0  0  0  0  0  0  0
   20.3467  -23.5560  -13.1805 O   0  0  0  0  0  0  0  0  0  0  0  0
   20.3519  -18.6410  -15.0043 C   0  0  0  0  0  0  0  0  0  0  0  0
   20.5618  -18.2458  -16.3270 C   0  0  0  0  0  0  0  0  0  0  0  0
   18.1082  -26.3049   -9.7269 N   0  0  0  0  0  0  0  0  0  0  0  0
   18.4635  -25.3183   -8.7695 C   0  0  0  0  0  0  0  0  0  0  0  0
   18.3625  -25.5380   -7.5524 O   0  0  0  0  0  0  0  0  0  0  0  0
   18.9592  -24.0148   -9.2369 C   0  0  0  0  0  0  0  0  0  0  0  0
   19.0146  -24.0303  -10.7475 C   0  0  2  0  0  0  0  0  0  0  0  0
   19.5598  -22.7449  -11.1813 N   0  0  0  0  0  0  0  0  0  0  0  0
   17.7293  -24.2325  -11.4049 C   0  0  0  0  0  0  0  0  0  0  0  0
   16.8618  -23.2059  -11.7917 O   0  0  0  0  0  0  0  0  0  0  0  0
   17.3365  -25.3987  -11.6593 O   0  0  0  0  0  0  0  0  0  0  0  0
  2  1  1  6
  3  4  1  0
  3  2  1  0
  4  5  2  0
  5  6  1  0
  7  6  1  0
  8  7  2  0
  9  8  1  0
 10 11  1  0
 10  9  2  0
 11 12  2  0
 12  4  1  0
 12  7  1  0
 13  2  1  0
 13 22  1  0
 14 13  2  0
 15 16  1  0
 16 17  2  0
 17 18  1  0
 19 20  1  0
 19 18  2  0
 21 20  1  6
 21 22  1  0
 21 23  1  0
 23 32  1  0
 24 23  2  0
 25 19  1  0
 26 25  2  0
 26 16  1  0
 28 27  1  0
 29 28  2  0
 30 28  1  0
 31 33  1  0
 31 30  1  1
 32 31  1  0
 33 34  1  0
 35 33  2  0
M  END
$$$$
