WYN.pdb
     RDKit          3D

 35 37  0  0  1  0  0  0  0  0999 V2000
   26.1824  -22.0981  -14.1751 N   0  0  0  0  0  0  0  0  0  0  0  0
   25.4307  -21.1943  -13.3015 C   0  0  1  0  0  0  0  0  0  0  0  0
   23.9406  -21.4173  -13.4611 C   0  0  0  0  0  0  0  0  0  0  0  0
   23.4636  -21.1201  -14.8125 C   0  0  0  0  0  0  0  0  0  0  0  0
   23.1550  -22.0107  -15.8368 C   0  0  0  0  0  0  0  0  0  0  0  0
   22.7587  -21.3265  -16.8994 N   0  0  0  0  0  0  0  0  0  0  0  0
   22.7780  -20.0116  -16.6612 C   0  0  0  0  0  0  0  0  0  0  0  0
   22.4577  -18.9176  -17.4447 C   0  0  0  0  0  0  0  0  0  0  0  0
   22.5971  -17.6777  -16.8648 C   0  0  0  0  0  0  0  0  0  0  0  0
   23.0333  -17.5005  -15.5662 C   0  0  0  0  0  0  0  0  0  0  0  0
   23.3410  -18.5971  -14.8208 C   0  0  0  0  0  0  0  0  0  0  0  0
   23.2231  -19.8703  -15.3422 C   0  0  0  0  0  0  0  0  0  0  0  0
   25.8557  -21.3583  -11.8877 C   0  0  0  0  0  0  0  0  0  0  0  0
   25.7673  -22.5128  -11.4000 O   0  0  0  0  0  0  0  0  0  0  0  0
   28.9116  -19.9274   -3.6582 O   0  0  0  0  0  0  0  0  0  0  0  0
   28.6120  -19.8083   -5.0270 C   0  0  0  0  0  0  0  0  0  0  0  0
   29.0906  -20.7312   -5.9312 C   0  0  0  0  0  0  0  0  0  0  0  0
   28.7987  -20.6208   -7.2894 C   0  0  0  0  0  0  0  0  0  0  0  0
   28.0230  -19.5857   -7.7696 C   0  0  0  0  0  0  0  0  0  0  0  0
   27.7588  -19.5360   -9.2171 C   0  0  0  0  0  0  0  0  0  0  0  0
   26.6631  -20.4398   -9.6802 C   0  0  2  0  0  0  0  0  0  0  0  0
   26.3406  -20.3299  -11.0734 N   0  0  0  0  0  0  0  0  0  0  0  0
   25.4487  -20.0952   -8.8919 C   0  0  0  0  0  0  0  0  0  0  0  0
   25.0729  -18.8833   -8.7541 O   0  0  0  0  0  0  0  0  0  0  0  0
   27.5488  -18.6712   -6.8733 C   0  0  0  0  0  0  0  0  0  0  0  0
   27.8382  -18.7773   -5.5114 C   0  0  0  0  0  0  0  0  0  0  0  0
   20.2320  -21.6391   -9.2637 N   0  0  0  0  0  0  0  0  0  0  0  0
   21.0914  -20.5348   -9.0225 C   0  0  0  0  0  0  0  0  0  0  0  0
   20.6486  -19.4566   -8.5967 O   0  0  0  0  0  0  0  0  0  0  0  0
   22.5315  -20.6794   -9.2848 C   0  0  0  0  0  0  0  0  0  0  0  0
   23.2391  -20.9417   -7.9750 C   0  0  2  0  0  0  0  0  0  0  0  0
   24.6642  -21.0899   -8.2664 N   0  0  0  0  0  0  0  0  0  0  0  0
   22.7872  -22.1307   -7.2628 C   0  0  0  0  0  0  0  0  0  0  0  0
   21.4801  -22.3409   -6.8117 O   0  0  0  0  0  0  0  0  0  0  0  0
   23.6009  -23.0562   -7.0167 O   0  0  0  0  0  0  0  0  0  0  0  0
  2  1  1  6
  3  4  1  0
  3  2  1  0
  4  5  2  0
  5  6  1  0
  7  6  1  0
  8  7  2  0
  9  8  1  0
 10 11  1  0
 10  9  2  0
 11 12  2  0
 12  4  1  0
 12  7  1  0
 13  2  1  0
 13 22  1  0
 14 13  2  0
 15 16  1  0
 16 17  2  0
 17 18  1  0
 19 20  1  0
 19 18  2  0
 21 20  1  1
 21 22  1  0
 21 23  1  0
 23 32  1  0
 24 23  2  0
 25 19  1  0
 26 25  2  0
 26 16  1  0
 28 27  1  0
 29 28  2  0
 30 28  1  0
 31 33  1  0
 31 30  1  6
 32 31  1  0
 33 34  1  0
 35 33  2  0
M  END
$$$$
