WYN.pdb
     RDKit          3D

 35 37  0  0  1  0  0  0  0  0999 V2000
   23.7066  -19.9136   -8.9915 N   0  0  0  0  0  0  0  0  0  0  0  0
   24.9287  -20.1015   -9.7767 C   0  0  1  0  0  0  0  0  0  0  0  0
   25.8494  -21.0951   -9.0982 C   0  0  0  0  0  0  0  0  0  0  0  0
   26.2897  -20.6495   -7.7754 C   0  0  0  0  0  0  0  0  0  0  0  0
   25.5109  -20.2531   -6.6920 C   0  0  0  0  0  0  0  0  0  0  0  0
   26.3063  -19.9264   -5.6846 N   0  0  0  0  0  0  0  0  0  0  0  0
   27.5920  -20.0766   -6.0168 C   0  0  0  0  0  0  0  0  0  0  0  0
   28.7663  -19.8668   -5.3167 C   0  0  0  0  0  0  0  0  0  0  0  0
   29.9409  -20.1302   -5.9831 C   0  0  0  0  0  0  0  0  0  0  0  0
   29.9792  -20.5828   -7.2875 C   0  0  0  0  0  0  0  0  0  0  0  0
   28.8064  -20.7794   -7.9498 C   0  0  0  0  0  0  0  0  0  0  0  0
   27.5923  -20.5342   -7.3391 C   0  0  0  0  0  0  0  0  0  0  0  0
   24.6013  -20.5236  -11.1627 C   0  0  0  0  0  0  0  0  0  0  0  0
   24.9845  -21.6681  -11.5116 O   0  0  0  0  0  0  0  0  0  0  0  0
   19.1516  -24.1150  -10.8862 O   0  0  0  0  0  0  0  0  0  0  0  0
   19.8932  -23.1597  -11.6039 C   0  0  0  0  0  0  0  0  0  0  0  0
   19.7984  -21.8211  -11.2915 C   0  0  0  0  0  0  0  0  0  0  0  0
   20.5296  -20.8676  -11.9976 C   0  0  0  0  0  0  0  0  0  0  0  0
   21.3691  -21.2341  -13.0294 C   0  0  0  0  0  0  0  0  0  0  0  0
   22.1078  -20.1697  -13.7287 C   0  0  0  0  0  0  0  0  0  0  0  0
   23.5717  -20.1321  -13.4333 C   0  0  2  0  0  0  0  0  0  0  0  0
   23.9056  -19.7451  -12.0931 N   0  0  0  0  0  0  0  0  0  0  0  0
   24.1821  -19.1483  -14.3684 C   0  0  0  0  0  0  0  0  0  0  0  0
   23.9121  -17.9036  -14.2858 O   0  0  0  0  0  0  0  0  0  0  0  0
   21.4628  -22.5608  -13.3387 C   0  0  0  0  0  0  0  0  0  0  0  0
   20.7325  -23.5201  -12.6344 C   0  0  0  0  0  0  0  0  0  0  0  0
   29.2715  -18.1796  -17.4850 N   0  0  0  0  0  0  0  0  0  0  0  0
   27.8608  -18.1063  -17.3406 C   0  0  0  0  0  0  0  0  0  0  0  0
   27.1844  -17.3230  -18.0252 O   0  0  0  0  0  0  0  0  0  0  0  0
   27.1967  -18.9779  -16.3594 C   0  0  0  0  0  0  0  0  0  0  0  0
   25.7281  -18.6228  -16.3109 C   0  0  2  0  0  0  0  0  0  0  0  0
   25.0819  -19.5482  -15.3816 N   0  0  0  0  0  0  0  0  0  0  0  0
   25.0378  -18.6982  -17.5926 C   0  0  0  0  0  0  0  0  0  0  0  0
   24.9007  -17.6324  -18.4879 O   0  0  0  0  0  0  0  0  0  0  0  0
   24.5140  -19.7814  -17.9553 O   0  0  0  0  0  0  0  0  0  0  0  0
  2  1  1  1
  3  4  1  0
  3  2  1  0
  4  5  2  0
  5  6  1  0
  7  6  1  0
  8  7  2  0
  9  8  1  0
 10 11  1  0
 10  9  2  0
 11 12  2  0
 12  4  1  0
 12  7  1  0
 13  2  1  0
 13 22  1  0
 14 13  2  0
 15 16  1  0
 16 17  2  0
 17 18  1  0
 19 20  1  0
 19 18  2  0
 21 20  1  1
 21 22  1  0
 21 23  1  0
 23 32  1  0
 24 23  2  0
 25 19  1  0
 26 25  2  0
 26 16  1  0
 28 27  1  0
 29 28  2  0
 30 28  1  0
 31 33  1  0
 31 30  1  6
 32 31  1  0
 33 34  1  0
 35 33  2  0
M  END
$$$$
