WYN.pdb
     RDKit          3D

 35 37  0  0  1  0  0  0  0  0999 V2000
   26.5617  -22.2733  -17.5367 N   0  0  0  0  0  0  0  0  0  0  0  0
   26.1953  -21.1148  -16.7187 C   0  0  1  0  0  0  0  0  0  0  0  0
   24.8673  -20.5428  -17.1712 C   0  0  0  0  0  0  0  0  0  0  0  0
   24.9148  -20.0047  -18.5315 C   0  0  0  0  0  0  0  0  0  0  0  0
   25.7806  -19.0483  -19.0542 C   0  0  0  0  0  0  0  0  0  0  0  0
   25.4828  -18.8466  -20.3289 N   0  0  0  0  0  0  0  0  0  0  0  0
   24.4575  -19.6136  -20.7120 C   0  0  0  0  0  0  0  0  0  0  0  0
   23.7997  -19.7548  -21.9205 C   0  0  0  0  0  0  0  0  0  0  0  0
   22.7627  -20.6582  -21.9600 C   0  0  0  0  0  0  0  0  0  0  0  0
   22.3731  -21.4028  -20.8638 C   0  0  0  0  0  0  0  0  0  0  0  0
   23.0403  -21.2410  -19.6884 C   0  0  0  0  0  0  0  0  0  0  0  0
   24.0905  -20.3508  -19.5808 C   0  0  0  0  0  0  0  0  0  0  0  0
   26.1676  -21.4780  -15.2787 C   0  0  0  0  0  0  0  0  0  0  0  0
   25.3988  -22.4141  -14.9454 O   0  0  0  0  0  0  0  0  0  0  0  0
   26.4258  -20.1670   -6.4668 O   0  0  0  0  0  0  0  0  0  0  0  0
   26.6976  -20.1211   -7.8458 C   0  0  0  0  0  0  0  0  0  0  0  0
   27.4690  -21.0959   -8.4401 C   0  0  0  0  0  0  0  0  0  0  0  0
   27.7434  -21.0582   -9.8059 C   0  0  0  0  0  0  0  0  0  0  0  0
   27.2521  -20.0453  -10.6036 C   0  0  0  0  0  0  0  0  0  0  0  0
   27.5856  -20.0733  -12.0374 C   0  0  0  0  0  0  0  0  0  0  0  0
   26.6693  -20.9069  -12.8723 C   0  0  2  0  0  0  0  0  0  0  0  0
   26.9278  -20.8576  -14.2822 N   0  0  0  0  0  0  0  0  0  0  0  0
   25.2866  -20.4104  -12.6341 C   0  0  0  0  0  0  0  0  0  0  0  0
   24.8043  -19.4467  -13.3180 O   0  0  0  0  0  0  0  0  0  0  0  0
   26.4877  -19.0793  -10.0144 C   0  0  0  0  0  0  0  0  0  0  0  0
   26.2097  -19.1125   -8.6464 C   0  0  0  0  0  0  0  0  0  0  0  0
   19.8314  -21.4539  -12.5827 N   0  0  0  0  0  0  0  0  0  0  0  0
   20.8797  -20.5056  -12.4484 C   0  0  0  0  0  0  0  0  0  0  0  0
   20.6418  -19.3190  -12.1744 O   0  0  0  0  0  0  0  0  0  0  0  0
   22.2702  -20.9457  -12.6393 C   0  0  0  0  0  0  0  0  0  0  0  0
   23.0693  -20.5747  -11.4109 C   0  0  2  0  0  0  0  0  0  0  0  0
   24.4536  -20.9821  -11.6466 N   0  0  0  0  0  0  0  0  0  0  0  0
   22.6104  -21.1923  -10.1728 C   0  0  0  0  0  0  0  0  0  0  0  0
   23.4410  -21.8249   -9.2422 O   0  0  0  0  0  0  0  0  0  0  0  0
   21.3873  -21.1766   -9.8850 O   0  0  0  0  0  0  0  0  0  0  0  0
  2  1  1  6
  3  4  1  0
  3  2  1  0
  4  5  2  0
  5  6  1  0
  7  6  1  0
  8  7  2  0
  9  8  1  0
 10 11  1  0
 10  9  2  0
 11 12  2  0
 12  4  1  0
 12  7  1  0
 13  2  1  0
 13 22  1  0
 14 13  2  0
 15 16  1  0
 16 17  2  0
 17 18  1  0
 19 20  1  0
 19 18  2  0
 21 20  1  1
 21 22  1  0
 21 23  1  0
 23 32  1  0
 24 23  2  0
 25 19  1  0
 26 25  2  0
 26 16  1  0
 28 27  1  0
 29 28  2  0
 30 28  1  0
 31 33  1  0
 31 30  1  6
 32 31  1  0
 33 34  1  0
 35 33  2  0
M  END
$$$$
