WYN.pdb
     RDKit          3D

 35 37  0  0  1  0  0  0  0  0999 V2000
   20.7785  -13.4542  -18.5860 N   0  0  0  0  0  0  0  0  0  0  0  0
   19.9640  -12.3053  -18.1838 C   0  0  1  0  0  0  0  0  0  0  0  0
   19.6440  -12.3719  -16.7044 C   0  0  0  0  0  0  0  0  0  0  0  0
   18.7454  -13.4768  -16.3670 C   0  0  0  0  0  0  0  0  0  0  0  0
   19.0744  -14.7728  -15.9804 C   0  0  0  0  0  0  0  0  0  0  0  0
   17.9600  -15.4564  -15.7681 N   0  0  0  0  0  0  0  0  0  0  0  0
   16.8806  -14.6997  -15.9882 C   0  0  0  0  0  0  0  0  0  0  0  0
   15.5252  -14.9615  -15.9007 C   0  0  0  0  0  0  0  0  0  0  0  0
   14.6728  -13.9253  -16.2056 C   0  0  0  0  0  0  0  0  0  0  0  0
   15.1174  -12.6735  -16.5838 C   0  0  0  0  0  0  0  0  0  0  0  0
   16.4575  -12.4473  -16.6607 C   0  0  0  0  0  0  0  0  0  0  0  0
   17.3672  -13.4441  -16.3681 C   0  0  0  0  0  0  0  0  0  0  0  0
   20.6439  -11.0323  -18.5354 C   0  0  0  0  0  0  0  0  0  0  0  0
   21.8902  -10.9946  -18.3811 O   0  0  0  0  0  0  0  0  0  0  0  0
   23.2448  -11.8276  -24.3578 O   0  0  0  0  0  0  0  0  0  0  0  0
   22.5864  -10.9360  -23.4922 C   0  0  0  0  0  0  0  0  0  0  0  0
   21.4375  -11.3185  -22.8348 C   0  0  0  0  0  0  0  0  0  0  0  0
   20.7786  -10.4414  -21.9753 C   0  0  0  0  0  0  0  0  0  0  0  0
   21.2555   -9.1653  -21.7568 C   0  0  0  0  0  0  0  0  0  0  0  0
   20.5041   -8.2966  -20.8357 C   0  0  0  0  0  0  0  0  0  0  0  0
   20.6373   -8.6587  -19.3925 C   0  0  2  0  0  0  0  0  0  0  0  0
   20.0008   -9.8886  -19.0193 N   0  0  0  0  0  0  0  0  0  0  0  0
   20.0197   -7.5566  -18.6056 C   0  0  0  0  0  0  0  0  0  0  0  0
   18.7520   -7.4278  -18.5324 O   0  0  0  0  0  0  0  0  0  0  0  0
   22.3941   -8.7864  -22.4085 C   0  0  0  0  0  0  0  0  0  0  0  0
   23.0582   -9.6614  -23.2706 C   0  0  0  0  0  0  0  0  0  0  0  0
   17.4963   -4.6801  -15.2212 N   0  0  0  0  0  0  0  0  0  0  0  0
   18.8442   -5.1227  -15.1615 C   0  0  0  0  0  0  0  0  0  0  0  0
   19.6399   -4.6501  -14.3349 O   0  0  0  0  0  0  0  0  0  0  0  0
   19.2978   -6.1604  -16.1001 C   0  0  0  0  0  0  0  0  0  0  0  0
   20.2531   -5.5344  -17.0905 C   0  0  2  0  0  0  0  0  0  0  0  0
   20.8063   -6.6117  -17.9097 N   0  0  0  0  0  0  0  0  0  0  0  0
   21.3578   -4.7954  -16.4918 C   0  0  0  0  0  0  0  0  0  0  0  0
   21.2642   -3.4963  -15.9822 O   0  0  0  0  0  0  0  0  0  0  0  0
   22.4924   -5.3293  -16.4098 O   0  0  0  0  0  0  0  0  0  0  0  0
  2  1  1  1
  3  4  1  0
  3  2  1  0
  4  5  2  0
  5  6  1  0
  7  6  1  0
  8  7  2  0
  9  8  1  0
 10 11  1  0
 10  9  2  0
 11 12  2  0
 12  4  1  0
 12  7  1  0
 13  2  1  0
 13 22  1  0
 14 13  2  0
 15 16  1  0
 16 17  2  0
 17 18  1  0
 19 20  1  0
 19 18  2  0
 21 20  1  6
 21 22  1  0
 21 23  1  0
 23 32  1  0
 24 23  2  0
 25 19  1  0
 26 25  2  0
 26 16  1  0
 28 27  1  0
 29 28  2  0
 30 28  1  0
 31 33  1  0
 31 30  1  1
 32 31  1  0
 33 34  1  0
 35 33  2  0
M  END
$$$$
