CMV.pdb
     RDKit          3D

 22 21  0  0  1  0  0  0  0  0999 V2000
    6.8819  -16.4501   20.3364 N   0  0  0  0  0  0  0  0  0  0  0  0
    8.2382  -15.9540   20.2235 C   0  0  1  0  0  0  0  0  0  0  0  0
    8.2542  -14.8627   19.2028 C   0  0  0  0  0  0  0  0  0  0  0  0
    7.4434  -13.4007   19.9326 S   0  0  0  0  0  0  0  0  0  0  0  0
    8.7717  -15.5056   21.5334 C   0  0  0  0  0  0  0  0  0  0  0  0
    9.9904  -15.3499   21.6613 O   0  0  0  0  0  0  0  0  0  0  0  0
    7.1045  -11.0401   26.7707 C   0  0  0  0  0  0  0  0  0  0  0  0
    6.2730  -12.6428   26.7074 S   0  0  0  0  0  0  0  0  0  0  0  0
    7.4500  -13.9291   26.1156 C   0  0  0  0  0  0  0  0  0  0  0  0
    7.2250  -14.1751   24.6661 C   0  0  0  0  0  0  0  0  0  0  0  0
    8.2170  -15.0001   23.9551 C   0  0  2  0  0  0  0  0  0  0  0  0
    7.8883  -15.2660   22.6025 N   0  0  0  0  0  0  0  0  0  0  0  0
    8.6860  -16.1413   24.7613 C   0  0  0  0  0  0  0  0  0  0  0  0
    7.8237  -17.0044   25.0825 O   0  0  0  0  0  0  0  0  0  0  0  0
   12.7389  -16.9984   25.4440 C   0  0  0  0  0  0  0  0  0  0  0  0
   11.7188  -18.1037   25.3082 C   0  0  2  0  0  0  0  0  0  0  0  0
   11.5191  -18.3682   23.8303 C   0  0  0  0  0  0  0  0  0  0  0  0
   10.4027  -17.6130   25.8690 C   0  0  2  0  0  0  0  0  0  0  0  0
   10.0054  -16.3559   25.2114 N   0  0  0  0  0  0  0  0  0  0  0  0
   10.5022  -17.3299   27.3155 C   0  0  0  0  0  0  0  0  0  0  0  0
   10.3784  -16.1551   27.7367 O   0  0  0  0  0  0  0  0  0  0  0  0
   10.7347  -18.3867   28.2060 O   0  0  0  0  0  0  0  0  0  0  0  0
  2  1  1  1
  2  3  1  0
  4  3  1  0
  5 12  1  0
  5  2  1  0
  6  5  2  0
  8  7  1  0
  9  8  1  0
  9 10  1  0
 11 10  1  1
 11 13  1  0
 11 12  1  0
 13 19  1  0
 14 13  2  0
 16 15  1  6
 16 17  1  0
 18 20  1  0
 18 16  1  0
 18 19  1  6
 20 22  1  0
 21 20  2  0
M  END
$$$$
