CMV.pdb
     RDKit          3D

 22 21  0  0  1  0  0  0  0  0999 V2000
    8.2788  -15.8982   19.3965 N   0  0  0  0  0  0  0  0  0  0  0  0
    7.4880  -16.0851   20.5958 C   0  0  1  0  0  0  0  0  0  0  0  0
    6.9142  -17.4646   20.5680 C   0  0  0  0  0  0  0  0  0  0  0  0
    5.7028  -17.5953   21.9254 S   0  0  0  0  0  0  0  0  0  0  0  0
    8.2812  -15.8315   21.8238 C   0  0  0  0  0  0  0  0  0  0  0  0
    9.4465  -16.2377   21.8777 O   0  0  0  0  0  0  0  0  0  0  0  0
    5.5729  -12.0627   26.4894 C   0  0  0  0  0  0  0  0  0  0  0  0
    7.3212  -11.9931   26.9396 S   0  0  0  0  0  0  0  0  0  0  0  0
    8.1957  -13.4635   26.2589 C   0  0  0  0  0  0  0  0  0  0  0  0
    7.6331  -13.7984   24.9235 C   0  0  0  0  0  0  0  0  0  0  0  0
    8.2484  -14.9168   24.1881 C   0  0  2  0  0  0  0  0  0  0  0  0
    7.6989  -15.1372   22.9006 N   0  0  0  0  0  0  0  0  0  0  0  0
    8.4542  -16.1056   25.0348 C   0  0  0  0  0  0  0  0  0  0  0  0
    7.4200  -16.7205   25.4143 O   0  0  0  0  0  0  0  0  0  0  0  0
   12.0778  -18.1256   25.3883 C   0  0  0  0  0  0  0  0  0  0  0  0
   10.7516  -18.8245   25.5714 C   0  0  2  0  0  0  0  0  0  0  0  0
   10.2024  -19.1398   24.1955 C   0  0  0  0  0  0  0  0  0  0  0  0
    9.7923  -17.8653   26.2401 C   0  0  2  0  0  0  0  0  0  0  0  0
    9.6968  -16.6164   25.4643 N   0  0  0  0  0  0  0  0  0  0  0  0
   10.2514  -17.4968   27.5950 C   0  0  0  0  0  0  0  0  0  0  0  0
   10.3343  -18.3708   28.4907 O   0  0  0  0  0  0  0  0  0  0  0  0
   10.5921  -16.1644   27.8642 O   0  0  0  0  0  0  0  0  0  0  0  0
  2  1  1  6
  2  3  1  0
  4  3  1  0
  5 12  1  0
  5  2  1  0
  6  5  2  0
  8  7  1  0
  9  8  1  0
  9 10  1  0
 11 10  1  1
 11 13  1  0
 11 12  1  0
 13 19  1  0
 14 13  2  0
 16 15  1  6
 16 17  1  0
 18 20  1  0
 18 16  1  0
 18 19  1  6
 20 22  1  0
 21 20  2  0
M  END
$$$$
