CMV.pdb
     RDKit          3D

 22 21  0  0  1  0  0  0  0  0999 V2000
    6.9331  -17.6598   20.8859 N   0  0  0  0  0  0  0  0  0  0  0  0
    6.4904  -17.5547   22.2612 C   0  0  1  0  0  0  0  0  0  0  0  0
    6.1996  -18.9308   22.7659 C   0  0  0  0  0  0  0  0  0  0  0  0
    4.7449  -19.5627   21.8648 S   0  0  0  0  0  0  0  0  0  0  0  0
    7.4817  -16.8445   23.1063 C   0  0  0  0  0  0  0  0  0  0  0  0
    8.6783  -16.9077   22.8060 O   0  0  0  0  0  0  0  0  0  0  0  0
    5.3763  -11.9401   27.2313 C   0  0  0  0  0  0  0  0  0  0  0  0
    7.0650  -11.7174   26.6288 S   0  0  0  0  0  0  0  0  0  0  0  0
    7.4289  -12.9681   25.3275 C   0  0  0  0  0  0  0  0  0  0  0  0
    7.1793  -14.3309   25.8686 C   0  0  0  0  0  0  0  0  0  0  0  0
    7.8470  -15.4605   25.1989 C   0  0  2  0  0  0  0  0  0  0  0  0
    7.0476  -16.1148   24.2288 N   0  0  0  0  0  0  0  0  0  0  0  0
    8.5851  -16.3206   26.1411 C   0  0  0  0  0  0  0  0  0  0  0  0
    7.9064  -17.1504   26.8063 O   0  0  0  0  0  0  0  0  0  0  0  0
   12.8231  -16.5305   26.4526 C   0  0  0  0  0  0  0  0  0  0  0  0
   11.9390  -17.7410   26.6370 C   0  0  2  0  0  0  0  0  0  0  0  0
   11.6381  -18.3058   25.2642 C   0  0  0  0  0  0  0  0  0  0  0  0
   10.6297  -17.2902   27.2454 C   0  0  2  0  0  0  0  0  0  0  0  0
    9.9764  -16.2994   26.3724 N   0  0  0  0  0  0  0  0  0  0  0  0
   10.8368  -16.6399   28.5556 C   0  0  0  0  0  0  0  0  0  0  0  0
   10.5509  -15.4285   28.7090 O   0  0  0  0  0  0  0  0  0  0  0  0
   11.3535  -17.3917   29.6194 O   0  0  0  0  0  0  0  0  0  0  0  0
  2  1  1  6
  2  3  1  0
  4  3  1  0
  5 12  1  0
  5  2  1  0
  6  5  2  0
  8  7  1  0
  9  8  1  0
  9 10  1  0
 11 10  1  1
 11 13  1  0
 11 12  1  0
 13 19  1  0
 14 13  2  0
 16 15  1  6
 16 17  1  0
 18 20  1  0
 18 16  1  0
 18 19  1  6
 20 22  1  0
 21 20  2  0
M  END
$$$$
