CMV.pdb
     RDKit          3D

 22 21  0  0  1  0  0  0  0  0999 V2000
    9.6765  -15.9936   19.8866 N   0  0  0  0  0  0  0  0  0  0  0  0
    8.6260  -16.2593   20.8480 C   0  0  1  0  0  0  0  0  0  0  0  0
    8.3771  -17.7325   20.8742 C   0  0  0  0  0  0  0  0  0  0  0  0
    9.8389  -18.5350   21.6134 S   0  0  0  0  0  0  0  0  0  0  0  0
    8.9589  -15.7220   22.1904 C   0  0  0  0  0  0  0  0  0  0  0  0
   10.1436  -15.5241   22.4785 O   0  0  0  0  0  0  0  0  0  0  0  0
    5.6564  -11.3709   26.0187 C   0  0  0  0  0  0  0  0  0  0  0  0
    7.1884  -12.2497   26.3990 S   0  0  0  0  0  0  0  0  0  0  0  0
    6.8643  -14.0610   26.4647 C   0  0  0  0  0  0  0  0  0  0  0  0
    6.7956  -14.6010   25.0805 C   0  0  0  0  0  0  0  0  0  0  0  0
    8.0567  -15.0423   24.4602 C   0  0  2  0  0  0  0  0  0  0  0  0
    7.9279  -15.4476   23.1084 N   0  0  0  0  0  0  0  0  0  0  0  0
    8.8456  -15.9191   25.3441 C   0  0  0  0  0  0  0  0  0  0  0  0
    8.5578  -17.1474   25.3324 O   0  0  0  0  0  0  0  0  0  0  0  0
   11.7687  -14.6423   28.1690 C   0  0  0  0  0  0  0  0  0  0  0  0
   12.0052  -15.9028   27.3716 C   0  0  2  0  0  0  0  0  0  0  0  0
   12.7167  -15.5129   26.0926 C   0  0  0  0  0  0  0  0  0  0  0  0
   10.6636  -16.4881   26.9907 C   0  0  2  0  0  0  0  0  0  0  0  0
    9.8870  -15.5135   26.2047 N   0  0  0  0  0  0  0  0  0  0  0  0
    9.8583  -16.8184   28.1843 C   0  0  0  0  0  0  0  0  0  0  0  0
    8.7917  -16.2001   28.4147 O   0  0  0  0  0  0  0  0  0  0  0  0
   10.2998  -17.8275   29.0508 O   0  0  0  0  0  0  0  0  0  0  0  0
  2  1  1  6
  2  3  1  0
  4  3  1  0
  5 12  1  0
  5  2  1  0
  6  5  2  0
  8  7  1  0
  9  8  1  0
  9 10  1  0
 11 10  1  1
 11 13  1  0
 11 12  1  0
 13 19  1  0
 14 13  2  0
 16 15  1  1
 16 17  1  0
 18 20  1  0
 18 16  1  0
 18 19  1  6
 20 22  1  0
 21 20  2  0
M  END
$$$$
