CMV.pdb
     RDKit          3D

 22 21  0  0  1  0  0  0  0  0999 V2000
    5.9546  -17.6602   20.4751 N   0  0  0  0  0  0  0  0  0  0  0  0
    5.8123  -17.6966   21.9162 C   0  0  1  0  0  0  0  0  0  0  0  0
    5.6635  -19.1230   22.3361 C   0  0  0  0  0  0  0  0  0  0  0  0
    5.3850  -19.1507   24.1385 S   0  0  0  0  0  0  0  0  0  0  0  0
    6.9461  -17.0257   22.5988 C   0  0  0  0  0  0  0  0  0  0  0  0
    8.0925  -17.2121   22.1781 O   0  0  0  0  0  0  0  0  0  0  0  0
    5.9794  -11.6530   26.1719 C   0  0  0  0  0  0  0  0  0  0  0  0
    7.1148  -12.5246   27.2743 S   0  0  0  0  0  0  0  0  0  0  0  0
    8.0333  -13.8097   26.3284 C   0  0  0  0  0  0  0  0  0  0  0  0
    7.0960  -14.5132   25.4126 C   0  0  0  0  0  0  0  0  0  0  0  0
    7.6538  -15.5684   24.5490 C   0  0  2  0  0  0  0  0  0  0  0  0
    6.7006  -16.1932   23.7068 N   0  0  0  0  0  0  0  0  0  0  0  0
    8.5862  -16.4544   25.2686 C   0  0  0  0  0  0  0  0  0  0  0  0
    8.0768  -17.3005   26.0537 O   0  0  0  0  0  0  0  0  0  0  0  0
   12.8565  -18.8766   24.9786 C   0  0  0  0  0  0  0  0  0  0  0  0
   11.9970  -17.7099   24.5533 C   0  0  2  0  0  0  0  0  0  0  0  0
   12.8078  -16.4452   24.7458 C   0  0  0  0  0  0  0  0  0  0  0  0
   10.8011  -17.6338   25.4762 C   0  0  2  0  0  0  0  0  0  0  0  0
    9.9929  -16.4416   25.1660 N   0  0  0  0  0  0  0  0  0  0  0  0
   11.2145  -17.5183   26.8898 C   0  0  0  0  0  0  0  0  0  0  0  0
   11.7674  -18.4860   27.4648 O   0  0  0  0  0  0  0  0  0  0  0  0
   10.9822  -16.3184   27.5755 O   0  0  0  0  0  0  0  0  0  0  0  0
  2  1  1  6
  2  3  1  0
  4  3  1  0
  5 12  1  0
  5  2  1  0
  6  5  2  0
  8  7  1  0
  9  8  1  0
  9 10  1  0
 11 10  1  1
 11 13  1  0
 11 12  1  0
 13 19  1  0
 14 13  2  0
 16 15  1  1
 16 17  1  0
 18 20  1  0
 18 16  1  0
 18 19  1  6
 20 22  1  0
 21 20  2  0
M  END
$$$$
