CMV.pdb
     RDKit          3D

 22 21  0  0  1  0  0  0  0  0999 V2000
    9.8038  -15.7615   19.9353 N   0  0  0  0  0  0  0  0  0  0  0  0
    8.8941  -16.2969   20.9273 C   0  0  1  0  0  0  0  0  0  0  0  0
    8.9831  -17.7880   20.8880 C   0  0  0  0  0  0  0  0  0  0  0  0
    7.7154  -18.3948   19.7253 S   0  0  0  0  0  0  0  0  0  0  0  0
    9.1718  -15.7533   22.2797 C   0  0  0  0  0  0  0  0  0  0  0  0
   10.3455  -15.6083   22.6366 O   0  0  0  0  0  0  0  0  0  0  0  0
    6.0343  -11.0789   25.9952 C   0  0  0  0  0  0  0  0  0  0  0  0
    7.4440  -12.1375   26.3905 S   0  0  0  0  0  0  0  0  0  0  0  0
    6.9146  -13.9009   26.3895 C   0  0  0  0  0  0  0  0  0  0  0  0
    6.9128  -14.4154   24.9940 C   0  0  0  0  0  0  0  0  0  0  0  0
    8.1700  -14.9840   24.4780 C   0  0  2  0  0  0  0  0  0  0  0  0
    8.1024  -15.4133   23.1291 N   0  0  0  0  0  0  0  0  0  0  0  0
    8.8107  -15.9027   25.4360 C   0  0  0  0  0  0  0  0  0  0  0  0
    8.3421  -17.0721   25.5044 O   0  0  0  0  0  0  0  0  0  0  0  0
   12.2167  -14.9541   27.7701 C   0  0  0  0  0  0  0  0  0  0  0  0
   12.0453  -16.3384   27.1912 C   0  0  2  0  0  0  0  0  0  0  0  0
   12.6120  -16.3245   25.7867 C   0  0  0  0  0  0  0  0  0  0  0  0
   10.5658  -16.6345   27.0866 C   0  0  2  0  0  0  0  0  0  0  0  0
    9.8935  -15.5960   26.2864 N   0  0  0  0  0  0  0  0  0  0  0  0
    9.9194  -16.6406   28.4149 C   0  0  0  0  0  0  0  0  0  0  0  0
    9.0449  -15.7858   28.6932 O   0  0  0  0  0  0  0  0  0  0  0  0
   10.2943  -17.6103   29.3547 O   0  0  0  0  0  0  0  0  0  0  0  0
  2  1  1  6
  2  3  1  0
  4  3  1  0
  5 12  1  0
  5  2  1  0
  6  5  2  0
  8  7  1  0
  9  8  1  0
  9 10  1  0
 11 10  1  1
 11 13  1  0
 11 12  1  0
 13 19  1  0
 14 13  2  0
 16 15  1  6
 16 17  1  0
 18 20  1  0
 18 16  1  0
 18 19  1  6
 20 22  1  0
 21 20  2  0
M  END
$$$$
