CMV.pdb
     RDKit          3D

 22 21  0  0  1  0  0  0  0  0999 V2000
    6.5310  -19.4564   22.5329 N   0  0  0  0  0  0  0  0  0  0  0  0
    6.7160  -18.8078   23.8149 C   0  0  1  0  0  0  0  0  0  0  0  0
    7.4117  -19.7647   24.7277 C   0  0  0  0  0  0  0  0  0  0  0  0
    6.1656  -20.4655   25.8605 S   0  0  0  0  0  0  0  0  0  0  0  0
    7.4489  -17.5245   23.6823 C   0  0  0  0  0  0  0  0  0  0  0  0
    8.4133  -17.4632   22.9128 O   0  0  0  0  0  0  0  0  0  0  0  0
    4.8986  -11.8981   26.0432 C   0  0  0  0  0  0  0  0  0  0  0  0
    6.6155  -11.7641   26.5896 S   0  0  0  0  0  0  0  0  0  0  0  0
    7.6813  -12.8550   25.5581 C   0  0  0  0  0  0  0  0  0  0  0  0
    7.0142  -14.1725   25.3806 C   0  0  0  0  0  0  0  0  0  0  0  0
    7.7940  -15.2485   24.7447 C   0  0  2  0  0  0  0  0  0  0  0  0
    7.0377  -16.4047   24.4291 N   0  0  0  0  0  0  0  0  0  0  0  0
    9.0970  -15.4652   25.3984 C   0  0  0  0  0  0  0  0  0  0  0  0
   10.1218  -15.3840   24.6670 O   0  0  0  0  0  0  0  0  0  0  0  0
    9.7877  -15.1207   29.4369 C   0  0  0  0  0  0  0  0  0  0  0  0
   10.9212  -15.0135   28.4448 C   0  0  2  0  0  0  0  0  0  0  0  0
   10.9031  -13.6109   27.8734 C   0  0  0  0  0  0  0  0  0  0  0  0
   10.6564  -15.9758   27.3084 C   0  0  2  0  0  0  0  0  0  0  0  0
    9.3052  -15.7599   26.7620 N   0  0  0  0  0  0  0  0  0  0  0  0
   10.7182  -17.3802   27.7624 C   0  0  0  0  0  0  0  0  0  0  0  0
   11.7957  -17.8552   28.1940 O   0  0  0  0  0  0  0  0  0  0  0  0
    9.5620  -18.1701   27.7054 O   0  0  0  0  0  0  0  0  0  0  0  0
  2  1  1  6
  2  3  1  0
  4  3  1  0
  5 12  1  0
  5  2  1  0
  6  5  2  0
  8  7  1  0
  9  8  1  0
  9 10  1  0
 11 10  1  1
 11 13  1  0
 11 12  1  0
 13 19  1  0
 14 13  2  0
 16 15  1  1
 16 17  1  0
 18 20  1  0
 18 16  1  0
 18 19  1  1
 20 22  1  0
 21 20  2  0
M  END
$$$$
