CMV.pdb
     RDKit          3D

 22 21  0  0  1  0  0  0  0  0999 V2000
    7.9024  -13.8489   18.8158 N   0  0  0  0  0  0  0  0  0  0  0  0
    7.2993  -14.5316   19.9421 C   0  0  1  0  0  0  0  0  0  0  0  0
    6.9189  -15.9092   19.5056 C   0  0  0  0  0  0  0  0  0  0  0  0
    6.1186  -16.7434   20.9165 S   0  0  0  0  0  0  0  0  0  0  0  0
    8.1969  -14.5447   21.1234 C   0  0  0  0  0  0  0  0  0  0  0  0
    9.3964  -14.7909   20.9605 O   0  0  0  0  0  0  0  0  0  0  0  0
    7.5608  -11.9837   27.6599 C   0  0  0  0  0  0  0  0  0  0  0  0
    6.1676  -12.5901   26.6826 S   0  0  0  0  0  0  0  0  0  0  0  0
    6.7391  -13.9237   25.5490 C   0  0  0  0  0  0  0  0  0  0  0  0
    7.8035  -13.3912   24.6570 C   0  0  0  0  0  0  0  0  0  0  0  0
    8.3585  -14.3034   23.6421 C   0  0  2  0  0  0  0  0  0  0  0  0
    7.6727  -14.2784   22.4021 N   0  0  0  0  0  0  0  0  0  0  0  0
    8.6866  -15.6304   24.1929 C   0  0  0  0  0  0  0  0  0  0  0  0
    7.7414  -16.4619   24.2770 O   0  0  0  0  0  0  0  0  0  0  0  0
   12.5556  -17.0133   24.5092 C   0  0  0  0  0  0  0  0  0  0  0  0
   11.4210  -17.9951   24.3380 C   0  0  2  0  0  0  0  0  0  0  0  0
   11.0954  -18.0708   22.8607 C   0  0  0  0  0  0  0  0  0  0  0  0
   10.2030  -17.4491   25.0493 C   0  0  2  0  0  0  0  0  0  0  0  0
    9.9552  -16.0558   24.6394 N   0  0  0  0  0  0  0  0  0  0  0  0
   10.3902  -17.4403   26.5147 C   0  0  0  0  0  0  0  0  0  0  0  0
   10.5520  -18.5182   27.1348 O   0  0  0  0  0  0  0  0  0  0  0  0
   10.3855  -16.2171   27.1985 O   0  0  0  0  0  0  0  0  0  0  0  0
  2  1  1  6
  2  3  1  0
  4  3  1  0
  5 12  1  0
  5  2  1  0
  6  5  2  0
  8  7  1  0
  9  8  1  0
  9 10  1  0
 11 10  1  1
 11 13  1  0
 11 12  1  0
 13 19  1  0
 14 13  2  0
 16 15  1  6
 16 17  1  0
 18 20  1  0
 18 16  1  0
 18 19  1  6
 20 22  1  0
 21 20  2  0
M  END
$$$$
