CMV.pdb
     RDKit          3D

 22 21  0  0  1  0  0  0  0  0999 V2000
    8.3055  -15.2830   18.9743 N   0  0  0  0  0  0  0  0  0  0  0  0
    7.4032  -15.2148   20.1055 C   0  0  1  0  0  0  0  0  0  0  0  0
    6.5180  -16.4182   20.0716 C   0  0  0  0  0  0  0  0  0  0  0  0
    7.5451  -17.8802   20.4388 S   0  0  0  0  0  0  0  0  0  0  0  0
    8.1373  -15.0937   21.3892 C   0  0  0  0  0  0  0  0  0  0  0  0
    9.3272  -15.4227   21.4311 O   0  0  0  0  0  0  0  0  0  0  0  0
    6.9312  -10.7398   26.7132 C   0  0  0  0  0  0  0  0  0  0  0  0
    6.4716  -12.4483   27.0792 S   0  0  0  0  0  0  0  0  0  0  0  0
    7.5914  -13.5983   26.1772 C   0  0  0  0  0  0  0  0  0  0  0  0
    7.1483  -13.7106   24.7619 C   0  0  0  0  0  0  0  0  0  0  0  0
    7.9703  -14.5312   23.8557 C   0  0  2  0  0  0  0  0  0  0  0  0
    7.4724  -14.6094   22.5312 N   0  0  0  0  0  0  0  0  0  0  0  0
    8.4076  -15.7944   24.4765 C   0  0  0  0  0  0  0  0  0  0  0  0
    7.5155  -16.6583   24.6993 O   0  0  0  0  0  0  0  0  0  0  0  0
   12.3933  -16.9812   24.7289 C   0  0  0  0  0  0  0  0  0  0  0  0
   11.2854  -18.0033   24.6362 C   0  0  2  0  0  0  0  0  0  0  0  0
   10.9180  -18.1542   23.1745 C   0  0  0  0  0  0  0  0  0  0  0  0
   10.0728  -17.4631   25.3611 C   0  0  2  0  0  0  0  0  0  0  0  0
    9.7270  -16.1255   24.8493 N   0  0  0  0  0  0  0  0  0  0  0  0
   10.3276  -17.3179   26.8090 C   0  0  0  0  0  0  0  0  0  0  0  0
   10.4703  -18.3355   27.5279 O   0  0  0  0  0  0  0  0  0  0  0  0
   10.4080  -16.0340   27.3650 O   0  0  0  0  0  0  0  0  0  0  0  0
  2  1  1  6
  2  3  1  0
  4  3  1  0
  5 12  1  0
  5  2  1  0
  6  5  2  0
  8  7  1  0
  9  8  1  0
  9 10  1  0
 11 10  1  1
 11 13  1  0
 11 12  1  0
 13 19  1  0
 14 13  2  0
 16 15  1  6
 16 17  1  0
 18 20  1  0
 18 16  1  0
 18 19  1  6
 20 22  1  0
 21 20  2  0
M  END
$$$$
