CMV.pdb
     RDKit          3D

 22 21  0  0  1  0  0  0  0  0999 V2000
    8.8901  -15.6332   18.7789 N   0  0  0  0  0  0  0  0  0  0  0  0
    8.0501  -16.0412   19.8862 C   0  0  1  0  0  0  0  0  0  0  0  0
    7.7824  -17.5056   19.7562 C   0  0  0  0  0  0  0  0  0  0  0  0
    6.5938  -17.9760   21.0574 S   0  0  0  0  0  0  0  0  0  0  0  0
    8.6576  -15.6955   21.1950 C   0  0  0  0  0  0  0  0  0  0  0  0
    9.8616  -15.9086   21.3706 O   0  0  0  0  0  0  0  0  0  0  0  0
    6.9361  -11.6488   27.8482 C   0  0  0  0  0  0  0  0  0  0  0  0
    6.4575  -12.2347   26.2076 S   0  0  0  0  0  0  0  0  0  0  0  0
    7.7087  -13.4353   25.5887 C   0  0  0  0  0  0  0  0  0  0  0  0
    7.3559  -13.8463   24.2034 C   0  0  0  0  0  0  0  0  0  0  0  0
    8.2415  -14.8165   23.5364 C   0  0  2  0  0  0  0  0  0  0  0  0
    7.8594  -15.1340   22.2092 N   0  0  0  0  0  0  0  0  0  0  0  0
    8.6045  -15.9457   24.4112 C   0  0  0  0  0  0  0  0  0  0  0  0
    7.6920  -16.7745   24.6797 O   0  0  0  0  0  0  0  0  0  0  0  0
   12.5535  -17.0147   25.2626 C   0  0  0  0  0  0  0  0  0  0  0  0
   11.4538  -18.0454   25.1672 C   0  0  2  0  0  0  0  0  0  0  0  0
   11.2399  -18.3576   23.7006 C   0  0  0  0  0  0  0  0  0  0  0  0
   10.1762  -17.4339   25.6977 C   0  0  2  0  0  0  0  0  0  0  0  0
    9.8732  -16.1835   24.9799 N   0  0  0  0  0  0  0  0  0  0  0  0
   10.2938  -17.0910   27.1298 C   0  0  0  0  0  0  0  0  0  0  0  0
   10.2480  -15.8922   27.4956 O   0  0  0  0  0  0  0  0  0  0  0  0
   10.4556  -18.1183   28.0692 O   0  0  0  0  0  0  0  0  0  0  0  0
  2  1  1  6
  2  3  1  0
  4  3  1  0
  5 12  1  0
  5  2  1  0
  6  5  2  0
  8  7  1  0
  9  8  1  0
  9 10  1  0
 11 10  1  1
 11 13  1  0
 11 12  1  0
 13 19  1  0
 14 13  2  0
 16 15  1  6
 16 17  1  0
 18 20  1  0
 18 16  1  0
 18 19  1  6
 20 22  1  0
 21 20  2  0
M  END
$$$$
