CMV.pdb
     RDKit          3D

 22 21  0  0  1  0  0  0  0  0999 V2000
    8.1345  -15.4932   18.8144 N   0  0  0  0  0  0  0  0  0  0  0  0
    7.3558  -15.8176   19.9921 C   0  0  1  0  0  0  0  0  0  0  0  0
    6.9742  -17.2604   19.9183 C   0  0  0  0  0  0  0  0  0  0  0  0
    5.9136  -17.6340   21.3545 S   0  0  0  0  0  0  0  0  0  0  0  0
    8.0864  -15.4932   21.2421 C   0  0  0  0  0  0  0  0  0  0  0  0
    9.2935  -15.7459   21.3122 O   0  0  0  0  0  0  0  0  0  0  0  0
    6.9298  -11.5589   28.0901 C   0  0  0  0  0  0  0  0  0  0  0  0
    6.2592  -12.2412   26.5575 S   0  0  0  0  0  0  0  0  0  0  0  0
    7.5212  -13.3122   25.7512 C   0  0  0  0  0  0  0  0  0  0  0  0
    7.0246  -13.7418   24.4167 C   0  0  0  0  0  0  0  0  0  0  0  0
    7.9052  -14.6039   23.6095 C   0  0  2  0  0  0  0  0  0  0  0  0
    7.3987  -14.9067   22.3210 N   0  0  0  0  0  0  0  0  0  0  0  0
    8.4631  -15.7266   24.3844 C   0  0  0  0  0  0  0  0  0  0  0  0
    7.6935  -16.7003   24.6113 O   0  0  0  0  0  0  0  0  0  0  0  0
   11.7242  -17.5337   23.4570 C   0  0  0  0  0  0  0  0  0  0  0  0
   11.7440  -17.2662   24.9432 C   0  0  2  0  0  0  0  0  0  0  0  0
   12.2975  -18.4994   25.6266 C   0  0  0  0  0  0  0  0  0  0  0  0
   10.3194  -17.0796   25.4158 C   0  0  2  0  0  0  0  0  0  0  0  0
    9.7732  -15.8121   24.9002 N   0  0  0  0  0  0  0  0  0  0  0  0
   10.2419  -17.0143   26.8896 C   0  0  0  0  0  0  0  0  0  0  0  0
   10.4664  -18.0386   27.5775 O   0  0  0  0  0  0  0  0  0  0  0  0
    9.9166  -15.7982   27.5052 O   0  0  0  0  0  0  0  0  0  0  0  0
  2  1  1  6
  2  3  1  0
  4  3  1  0
  5 12  1  0
  5  2  1  0
  6  5  2  0
  8  7  1  0
  9  8  1  0
  9 10  1  0
 11 10  1  1
 11 13  1  0
 11 12  1  0
 13 19  1  0
 14 13  2  0
 16 15  1  6
 16 17  1  0
 18 20  1  0
 18 16  1  0
 18 19  1  6
 20 22  1  0
 21 20  2  0
M  END
$$$$
