CMV.pdb
     RDKit          3D

 22 21  0  0  1  0  0  0  0  0999 V2000
    4.5466  -20.1107   23.1580 N   0  0  0  0  0  0  0  0  0  0  0  0
    5.1308  -19.4268   24.2935 C   0  0  1  0  0  0  0  0  0  0  0  0
    5.9317  -20.4170   25.0752 C   0  0  0  0  0  0  0  0  0  0  0  0
    7.4639  -20.7575   24.1459 S   0  0  0  0  0  0  0  0  0  0  0  0
    5.9399  -18.2557   23.8746 C   0  0  0  0  0  0  0  0  0  0  0  0
    6.3440  -18.1940   22.7089 O   0  0  0  0  0  0  0  0  0  0  0  0
    6.9140  -13.2225   28.1697 C   0  0  0  0  0  0  0  0  0  0  0  0
    7.0756  -12.4842   26.5287 S   0  0  0  0  0  0  0  0  0  0  0  0
    7.6259  -13.7638   25.3246 C   0  0  0  0  0  0  0  0  0  0  0  0
    6.8565  -15.0167   25.5492 C   0  0  0  0  0  0  0  0  0  0  0  0
    7.1206  -16.1477   24.6429 C   0  0  2  0  0  0  0  0  0  0  0  0
    6.2325  -17.2403   24.8042 N   0  0  0  0  0  0  0  0  0  0  0  0
    8.5556  -16.4677   24.5406 C   0  0  0  0  0  0  0  0  0  0  0  0
    9.0398  -17.2076   25.4406 O   0  0  0  0  0  0  0  0  0  0  0  0
   11.2451  -14.8660   21.7060 C   0  0  0  0  0  0  0  0  0  0  0  0
   11.2870  -16.3536   21.9631 C   0  0  2  0  0  0  0  0  0  0  0  0
   10.3296  -17.0163   20.9944 C   0  0  0  0  0  0  0  0  0  0  0  0
   10.7765  -16.6127   23.3631 C   0  0  2  0  0  0  0  0  0  0  0  0
    9.4384  -16.0207   23.5355 N   0  0  0  0  0  0  0  0  0  0  0  0
   11.6535  -15.9994   24.3815 C   0  0  0  0  0  0  0  0  0  0  0  0
   12.8315  -16.4054   24.5244 O   0  0  0  0  0  0  0  0  0  0  0  0
   11.1539  -14.9626   25.1810 O   0  0  0  0  0  0  0  0  0  0  0  0
  2  1  1  6
  2  3  1  0
  4  3  1  0
  5 12  1  0
  5  2  1  0
  6  5  2  0
  8  7  1  0
  9  8  1  0
  9 10  1  0
 11 10  1  1
 11 13  1  0
 11 12  1  0
 13 19  1  0
 14 13  2  0
 16 15  1  6
 16 17  1  0
 18 20  1  0
 18 16  1  0
 18 19  1  6
 20 22  1  0
 21 20  2  0
M  END
$$$$
