DPP.pdb
     RDKit          3D

 23 24  0  0  1  0  0  0  0  0999 V2000
   12.0989  -24.3215    0.0634 N   0  0  0  0  0  0  0  0  0  0  0  0
   12.4275  -22.9057    0.2929 C   0  0  1  0  0  0  0  0  0  0  0  0
   11.1581  -22.1595    0.6888 C   0  0  0  0  0  0  0  0  0  0  0  0
   10.2327  -22.0840   -0.4703 C   0  0  0  0  0  0  0  0  0  0  0  0
   10.5109  -21.3292   -1.4433 O   0  0  0  0  0  0  0  0  0  0  0  0
   13.4710  -22.7857    1.3315 C   0  0  0  0  0  0  0  0  0  0  0  0
   13.3250  -23.4827    2.3880 O   0  0  0  0  0  0  0  0  0  0  0  0
    9.0592  -22.8109   -0.5421 O   0  0  0  0  0  0  0  0  0  0  0  0
   14.6042  -21.9506    1.2138 N   0  0  0  0  0  0  0  0  0  0  0  0
   14.9591  -21.2298    0.0157 C   0  0  0  0  0  0  0  0  0  0  0  0
   16.4927  -21.3015    0.1054 C   0  0  0  0  0  0  0  0  0  0  0  0
   16.6228  -20.7641    1.5195 C   0  0  0  0  0  0  0  0  0  0  0  0
   15.6070  -21.6557    2.2099 C   0  0  1  0  0  0  0  0  0  0  0  0
   15.0304  -20.9987    3.4196 C   0  0  0  0  0  0  0  0  0  0  0  0
   13.9578  -20.3676    3.2337 O   0  0  0  0  0  0  0  0  0  0  0  0
   15.6551  -21.0835    4.6936 N   0  0  0  0  0  0  0  0  0  0  0  0
   16.8231  -21.8280    5.0899 C   0  0  0  0  0  0  0  0  0  0  0  0
   16.8043  -21.8900    6.5918 C   0  0  0  0  0  0  0  0  0  0  0  0
   15.5012  -21.3038    7.0231 C   0  0  0  0  0  0  0  0  0  0  0  0
   15.1697  -20.3798    5.8666 C   0  0  1  0  0  0  0  0  0  0  0  0
   15.7938  -19.0552    5.9942 C   0  0  0  0  0  0  0  0  0  0  0  0
   15.3140  -18.2199    6.7908 O   0  0  0  0  0  0  0  0  0  0  0  0
   16.8961  -18.7262    5.2490 O   0  0  0  0  0  0  0  0  0  0  0  0
  2  1  1  1
  2  3  1  0
  3  4  1  0
  4  8  1  0
  5  4  2  0
  6  9  1  0
  6  2  1  0
  7  6  2  0
  9 13  1  0
 10 11  1  0
 10  9  1  0
 11 12  1  0
 12 13  1  0
 13 14  1  1
 14 16  1  0
 15 14  2  0
 16 20  1  0
 17 16  1  0
 17 18  1  0
 18 19  1  0
 20 21  1  1
 20 19  1  0
 21 23  1  0
 22 21  2  0
M  END
$$$$
