DPP.pdb
     RDKit          3D

 23 24  0  0  1  0  0  0  0  0999 V2000
   18.5424  -12.6769  -18.2801 N   0  0  0  0  0  0  0  0  0  0  0  0
   18.7920  -11.3247  -18.8042 C   0  0  1  0  0  0  0  0  0  0  0  0
   17.4665  -10.5775  -18.9012 C   0  0  0  0  0  0  0  0  0  0  0  0
   16.5721  -11.2571  -19.8729 C   0  0  0  0  0  0  0  0  0  0  0  0
   17.0411  -11.6714  -20.9692 O   0  0  0  0  0  0  0  0  0  0  0  0
   19.7525  -10.6109  -17.9381 C   0  0  0  0  0  0  0  0  0  0  0  0
   19.6095  -10.7400  -16.6786 O   0  0  0  0  0  0  0  0  0  0  0  0
   15.2262  -11.4643  -19.6359 O   0  0  0  0  0  0  0  0  0  0  0  0
   20.8045   -9.8057  -18.4284 N   0  0  0  0  0  0  0  0  0  0  0  0
   21.1847   -9.7263  -19.8177 C   0  0  0  0  0  0  0  0  0  0  0  0
   22.7053   -9.5513  -19.6688 C   0  0  0  0  0  0  0  0  0  0  0  0
   22.6653   -8.3786  -18.7052 C   0  0  0  0  0  0  0  0  0  0  0  0
   21.6882   -8.9372  -17.6871 C   0  0  1  0  0  0  0  0  0  0  0  0
   20.9524   -7.8503  -16.9765 C   0  0  0  0  0  0  0  0  0  0  0  0
   19.8390   -7.5366  -17.4718 O   0  0  0  0  0  0  0  0  0  0  0  0
   21.4788   -7.2157  -15.8187 N   0  0  0  0  0  0  0  0  0  0  0  0
   22.6786   -7.5148  -15.0794 C   0  0  0  0  0  0  0  0  0  0  0  0
   22.5462   -6.8280  -13.7488 C   0  0  0  0  0  0  0  0  0  0  0  0
   21.1618   -6.2727  -13.6953 C   0  0  0  0  0  0  0  0  0  0  0  0
   20.8349   -6.0908  -15.1653 C   0  0  1  0  0  0  0  0  0  0  0  0
   21.3143   -4.8105  -15.7050 C   0  0  0  0  0  0  0  0  0  0  0  0
   22.3358   -4.7868  -16.4252 O   0  0  0  0  0  0  0  0  0  0  0  0
   20.6534   -3.6424  -15.4270 O   0  0  0  0  0  0  0  0  0  0  0  0
  2  1  1  1
  2  3  1  0
  3  4  1  0
  4  8  1  0
  5  4  2  0
  6  9  1  0
  6  2  1  0
  7  6  2  0
  9 13  1  0
 10 11  1  0
 10  9  1  0
 11 12  1  0
 12 13  1  0
 13 14  1  6
 14 16  1  0
 15 14  2  0
 16 20  1  0
 17 16  1  0
 17 18  1  0
 18 19  1  0
 20 21  1  6
 20 19  1  0
 21 23  1  0
 22 21  2  0
M  END
$$$$
