DPP.pdb
     RDKit          3D

 23 24  0  0  1  0  0  0  0  0999 V2000
   24.5140  -21.9116  -11.5312 N   0  0  0  0  0  0  0  0  0  0  0  0
   25.6105  -20.9446  -11.3643 C   0  0  1  0  0  0  0  0  0  0  0  0
   25.0605  -19.5343  -11.5467 C   0  0  0  0  0  0  0  0  0  0  0  0
   24.6258  -19.3383  -12.9532 C   0  0  0  0  0  0  0  0  0  0  0  0
   23.3940  -19.3176  -13.2289 O   0  0  0  0  0  0  0  0  0  0  0  0
   26.2408  -21.1116  -10.0388 C   0  0  0  0  0  0  0  0  0  0  0  0
   25.4651  -21.2376   -9.0359 O   0  0  0  0  0  0  0  0  0  0  0  0
   25.5160  -19.1740  -13.9977 O   0  0  0  0  0  0  0  0  0  0  0  0
   27.6379  -21.1381   -9.8310 N   0  0  0  0  0  0  0  0  0  0  0  0
   28.6164  -21.0320  -10.8855 C   0  0  0  0  0  0  0  0  0  0  0  0
   29.7097  -21.9598  -10.3296 C   0  0  0  0  0  0  0  0  0  0  0  0
   29.8261  -21.3128   -8.9609 C   0  0  0  0  0  0  0  0  0  0  0  0
   28.3558  -21.2772   -8.5860 C   0  0  1  0  0  0  0  0  0  0  0  0
   28.0580  -20.1692   -7.6314 C   0  0  0  0  0  0  0  0  0  0  0  0
   27.6355  -19.1045   -8.1524 O   0  0  0  0  0  0  0  0  0  0  0  0
   28.2411  -20.3126   -6.2292 N   0  0  0  0  0  0  0  0  0  0  0  0
   28.6370  -21.4740   -5.4742 C   0  0  0  0  0  0  0  0  0  0  0  0
   28.2842  -21.1951   -4.0398 C   0  0  0  0  0  0  0  0  0  0  0  0
   27.5231  -19.9112   -4.0332 C   0  0  0  0  0  0  0  0  0  0  0  0
   28.0403  -19.2284   -5.2852 C   0  0  1  0  0  0  0  0  0  0  0  0
   29.2835  -18.4783   -5.0571 C   0  0  0  0  0  0  0  0  0  0  0  0
   29.2455  -17.3910   -4.4416 O   0  0  0  0  0  0  0  0  0  0  0  0
   30.4840  -18.9584   -5.5120 O   0  0  0  0  0  0  0  0  0  0  0  0
  2  1  1  1
  2  3  1  0
  3  4  1  0
  4  8  1  0
  5  4  2  0
  6  9  1  0
  6  2  1  0
  7  6  2  0
  9 13  1  0
 10 11  1  0
 10  9  1  0
 11 12  1  0
 12 13  1  0
 13 14  1  1
 14 16  1  0
 15 14  2  0
 16 20  1  0
 17 16  1  0
 17 18  1  0
 18 19  1  0
 20 21  1  1
 20 19  1  0
 21 23  1  0
 22 21  2  0
M  END
$$$$
