DPP.pdb
     RDKit          3D

 23 24  0  0  1  0  0  0  0  0999 V2000
   20.7840  -20.7973  -11.9909 N   0  0  0  0  0  0  0  0  0  0  0  0
   21.6397  -21.2528  -13.0979 C   0  0  1  0  0  0  0  0  0  0  0  0
   20.8639  -21.1362  -14.4053 C   0  0  0  0  0  0  0  0  0  0  0  0
   19.6846  -22.0384  -14.3765 C   0  0  0  0  0  0  0  0  0  0  0  0
   19.8538  -23.2888  -14.4165 O   0  0  0  0  0  0  0  0  0  0  0  0
   22.8871  -20.4624  -13.1375 C   0  0  0  0  0  0  0  0  0  0  0  0
   22.7763  -19.1947  -13.0743 O   0  0  0  0  0  0  0  0  0  0  0  0
   18.3851  -21.5726  -14.3068 O   0  0  0  0  0  0  0  0  0  0  0  0
   24.1755  -21.0325  -13.2401 N   0  0  0  0  0  0  0  0  0  0  0  0
   24.4574  -22.4360  -13.0622 C   0  0  0  0  0  0  0  0  0  0  0  0
   25.8431  -22.3483  -12.4010 C   0  0  0  0  0  0  0  0  0  0  0  0
   26.4906  -21.4518  -13.4414 C   0  0  0  0  0  0  0  0  0  0  0  0
   25.4276  -20.3715  -13.5229 C   0  0  1  0  0  0  0  0  0  0  0  0
   25.4271  -19.6994  -14.8555 C   0  0  0  0  0  0  0  0  0  0  0  0
   24.6043  -20.1550  -15.6914 O   0  0  0  0  0  0  0  0  0  0  0  0
   26.2995  -18.6178  -15.1546 N   0  0  0  0  0  0  0  0  0  0  0  0
   27.2899  -17.9861  -14.3206 C   0  0  0  0  0  0  0  0  0  0  0  0
   27.6238  -16.6719  -14.9696 C   0  0  0  0  0  0  0  0  0  0  0  0
   26.6683  -16.5056  -16.1041 C   0  0  0  0  0  0  0  0  0  0  0  0
   26.3195  -17.9433  -16.4397 C   0  0  1  0  0  0  0  0  0  0  0  0
   27.2824  -18.5672  -17.3583 C   0  0  0  0  0  0  0  0  0  0  0  0
   28.0629  -19.4459  -16.9326 O   0  0  0  0  0  0  0  0  0  0  0  0
   27.3336  -18.1959  -18.6767 O   0  0  0  0  0  0  0  0  0  0  0  0
  2  1  1  1
  2  3  1  0
  3  4  1  0
  4  8  1  0
  5  4  2  0
  6  9  1  0
  6  2  1  0
  7  6  2  0
  9 13  1  0
 10 11  1  0
 10  9  1  0
 11 12  1  0
 12 13  1  0
 13 14  1  6
 14 16  1  0
 15 14  2  0
 16 20  1  0
 17 16  1  0
 17 18  1  0
 18 19  1  0
 20 21  1  6
 20 19  1  0
 21 23  1  0
 22 21  2  0
M  END
$$$$
