DPP.pdb
     RDKit          3D

 23 24  0  0  1  0  0  0  0  0999 V2000
   19.3452  -11.4838  -19.0897 N   0  0  0  0  0  0  0  0  0  0  0  0
   20.2059  -11.2466  -17.9199 C   0  0  1  0  0  0  0  0  0  0  0  0
   21.6629  -11.2395  -18.3690 C   0  0  0  0  0  0  0  0  0  0  0  0
   22.0159  -12.5538  -18.9638 C   0  0  0  0  0  0  0  0  0  0  0  0
   21.6130  -13.6164  -18.4140 O   0  0  0  0  0  0  0  0  0  0  0  0
   19.8365   -9.9757  -17.2638 C   0  0  0  0  0  0  0  0  0  0  0  0
   19.6014   -8.9766  -18.0186 O   0  0  0  0  0  0  0  0  0  0  0  0
   22.7774  -12.6782  -20.1106 O   0  0  0  0  0  0  0  0  0  0  0  0
   19.7324   -9.8156  -15.8641 N   0  0  0  0  0  0  0  0  0  0  0  0
   19.8216  -10.8985  -14.9153 C   0  0  0  0  0  0  0  0  0  0  0  0
   18.8225  -10.4072  -13.8545 C   0  0  0  0  0  0  0  0  0  0  0  0
   19.4195   -9.0245  -13.6613 C   0  0  0  0  0  0  0  0  0  0  0  0
   19.5180   -8.5999  -15.1151 C   0  0  1  0  0  0  0  0  0  0  0  0
   20.6092   -7.6034  -15.3246 C   0  0  0  0  0  0  0  0  0  0  0  0
   21.7229   -8.0827  -15.6614 O   0  0  0  0  0  0  0  0  0  0  0  0
   20.3989   -6.2081  -15.1538 N   0  0  0  0  0  0  0  0  0  0  0  0
   19.1846   -5.4996  -14.8390 C   0  0  0  0  0  0  0  0  0  0  0  0
   19.4304   -4.0549  -15.1742 C   0  0  0  0  0  0  0  0  0  0  0  0
   20.7618   -3.9973  -15.8462 C   0  0  0  0  0  0  0  0  0  0  0  0
   21.4564   -5.2221  -15.2819 C   0  0  1  0  0  0  0  0  0  0  0  0
   22.1107   -4.9662  -13.9908 C   0  0  0  0  0  0  0  0  0  0  0  0
   21.5290   -5.2803  -12.9299 O   0  0  0  0  0  0  0  0  0  0  0  0
   23.3517   -4.3868  -13.9379 O   0  0  0  0  0  0  0  0  0  0  0  0
  2  1  1  6
  2  3  1  0
  3  4  1  0
  4  8  1  0
  5  4  2  0
  6  9  1  0
  6  2  1  0
  7  6  2  0
  9 13  1  0
 10 11  1  0
 10  9  1  0
 11 12  1  0
 12 13  1  0
 13 14  1  1
 14 16  1  0
 15 14  2  0
 16 20  1  0
 17 16  1  0
 17 18  1  0
 18 19  1  0
 20 21  1  1
 20 19  1  0
 21 23  1  0
 22 21  2  0
M  END
$$$$
