DPP.pdb
     RDKit          3D

 23 24  0  0  1  0  0  0  0  0999 V2000
   24.2715  -21.9236  -17.2505 N   0  0  0  0  0  0  0  0  0  0  0  0
   24.1436  -20.8154  -16.2908 C   0  0  1  0  0  0  0  0  0  0  0  0
   22.7855  -20.9077  -15.6040 C   0  0  0  0  0  0  0  0  0  0  0  0
   21.7000  -20.7564  -16.6063 C   0  0  0  0  0  0  0  0  0  0  0  0
   21.6236  -19.6973  -17.2890 O   0  0  0  0  0  0  0  0  0  0  0  0
   25.2485  -20.8584  -15.3113 C   0  0  0  0  0  0  0  0  0  0  0  0
   25.6103  -22.0052  -14.8904 O   0  0  0  0  0  0  0  0  0  0  0  0
   20.7495  -21.7333  -16.8360 O   0  0  0  0  0  0  0  0  0  0  0  0
   25.9133  -19.7103  -14.8260 N   0  0  0  0  0  0  0  0  0  0  0  0
   25.7147  -18.3788  -15.3442 C   0  0  0  0  0  0  0  0  0  0  0  0
   27.1374  -17.8163  -15.1875 C   0  0  0  0  0  0  0  0  0  0  0  0
   27.3163  -18.1656  -13.7208 C   0  0  0  0  0  0  0  0  0  0  0  0
   26.8905  -19.6217  -13.7667 C   0  0  1  0  0  0  0  0  0  0  0  0
   26.3478  -20.0780  -12.4533 C   0  0  0  0  0  0  0  0  0  0  0  0
   25.0933  -20.0742  -12.3549 O   0  0  0  0  0  0  0  0  0  0  0  0
   27.1957  -20.4882  -11.3888 N   0  0  0  0  0  0  0  0  0  0  0  0
   28.6347  -20.5010  -11.3209 C   0  0  0  0  0  0  0  0  0  0  0  0
   29.0028  -21.3885  -10.1648 C   0  0  0  0  0  0  0  0  0  0  0  0
   27.7326  -22.0107   -9.6881 C   0  0  0  0  0  0  0  0  0  0  0  0
   26.6965  -20.9913  -10.1222 C   0  0  1  0  0  0  0  0  0  0  0  0
   26.5164  -19.9063   -9.1472 C   0  0  0  0  0  0  0  0  0  0  0  0
   25.8114  -20.0973   -8.1328 O   0  0  0  0  0  0  0  0  0  0  0  0
   27.1132  -18.6873   -9.3385 O   0  0  0  0  0  0  0  0  0  0  0  0
  2  1  1  6
  2  3  1  0
  3  4  1  0
  4  8  1  0
  5  4  2  0
  6  9  1  0
  6  2  1  0
  7  6  2  0
  9 13  1  0
 10 11  1  0
 10  9  1  0
 11 12  1  0
 12 13  1  0
 13 14  1  1
 14 16  1  0
 15 14  2  0
 16 20  1  0
 17 16  1  0
 17 18  1  0
 18 19  1  0
 20 21  1  1
 20 19  1  0
 21 23  1  0
 22 21  2  0
M  END
$$$$
