DPP.pdb
     RDKit          3D

 23 24  0  0  1  0  0  0  0  0999 V2000
   20.7899  -19.2345  -13.4799 N   0  0  0  0  0  0  0  0  0  0  0  0
   21.6899  -20.3755  -13.2490 C   0  0  1  0  0  0  0  0  0  0  0  0
   21.3446  -21.4872  -14.2337 C   0  0  0  0  0  0  0  0  0  0  0  0
   20.0182  -22.0658  -13.8994 C   0  0  0  0  0  0  0  0  0  0  0  0
   19.9541  -23.1678  -13.2869 O   0  0  0  0  0  0  0  0  0  0  0  0
   23.0981  -19.9508  -13.3857 C   0  0  0  0  0  0  0  0  0  0  0  0
   23.3430  -18.9939  -14.1906 O   0  0  0  0  0  0  0  0  0  0  0  0
   18.8260  -21.4494  -14.2299 O   0  0  0  0  0  0  0  0  0  0  0  0
   24.1692  -20.5426  -12.6801 N   0  0  0  0  0  0  0  0  0  0  0  0
   24.0062  -21.4850  -11.6002 C   0  0  0  0  0  0  0  0  0  0  0  0
   25.2003  -21.0876  -10.7164 C   0  0  0  0  0  0  0  0  0  0  0  0
   26.2665  -21.1695  -11.7943 C   0  0  0  0  0  0  0  0  0  0  0  0
   25.5864  -20.3405  -12.8685 C   0  0  1  0  0  0  0  0  0  0  0  0
   26.0395  -20.7326  -14.2355 C   0  0  0  0  0  0  0  0  0  0  0  0
   25.3535  -21.6249  -14.7982 O   0  0  0  0  0  0  0  0  0  0  0  0
   27.1705  -20.1349  -14.8551 N   0  0  0  0  0  0  0  0  0  0  0  0
   28.0950  -19.1648  -14.3263 C   0  0  0  0  0  0  0  0  0  0  0  0
   28.8306  -18.5859  -15.5025 C   0  0  0  0  0  0  0  0  0  0  0  0
   28.1741  -19.1366  -16.7246 C   0  0  0  0  0  0  0  0  0  0  0  0
   27.5879  -20.4383  -16.2118 C   0  0  1  0  0  0  0  0  0  0  0  0
   28.5485  -21.5505  -16.2416 C   0  0  0  0  0  0  0  0  0  0  0  0
   29.0308  -21.9797  -15.1711 O   0  0  0  0  0  0  0  0  0  0  0  0
   28.9209  -22.1219  -17.4304 O   0  0  0  0  0  0  0  0  0  0  0  0
  2  1  1  6
  2  3  1  0
  3  4  1  0
  4  8  1  0
  5  4  2  0
  6  9  1  0
  6  2  1  0
  7  6  2  0
  9 13  1  0
 10 11  1  0
 10  9  1  0
 11 12  1  0
 12 13  1  0
 13 14  1  6
 14 16  1  0
 15 14  2  0
 16 20  1  0
 17 16  1  0
 17 18  1  0
 18 19  1  0
 20 21  1  1
 20 19  1  0
 21 23  1  0
 22 21  2  0
M  END
$$$$
