DPP.pdb
     RDKit          3D

 23 24  0  0  1  0  0  0  0  0999 V2000
   15.0929  -22.2830    1.5486 N   0  0  0  0  0  0  0  0  0  0  0  0
   14.9240  -21.0449    2.3257 C   0  0  1  0  0  0  0  0  0  0  0  0
   13.9144  -21.2928    3.4411 C   0  0  0  0  0  0  0  0  0  0  0  0
   12.5569  -21.4699    2.8652 C   0  0  0  0  0  0  0  0  0  0  0  0
   11.9267  -22.5442    3.0708 O   0  0  0  0  0  0  0  0  0  0  0  0
   16.2252  -20.5986    2.8641 C   0  0  0  0  0  0  0  0  0  0  0  0
   17.0041  -21.4955    3.3249 O   0  0  0  0  0  0  0  0  0  0  0  0
   11.9341  -20.5014    2.1005 O   0  0  0  0  0  0  0  0  0  0  0  0
   16.6424  -19.2493    2.8929 N   0  0  0  0  0  0  0  0  0  0  0  0
   15.9211  -18.1644    2.2735 C   0  0  0  0  0  0  0  0  0  0  0  0
   17.0985  -17.2830    1.8242 C   0  0  0  0  0  0  0  0  0  0  0  0
   17.8015  -17.2105    3.1681 C   0  0  0  0  0  0  0  0  0  0  0  0
   17.8222  -18.6894    3.5086 C   0  0  1  0  0  0  0  0  0  0  0  0
   17.8543  -18.9140    4.9838 C   0  0  0  0  0  0  0  0  0  0  0  0
   16.7456  -19.1820    5.5150 O   0  0  0  0  0  0  0  0  0  0  0  0
   19.0592  -18.8297    5.7332 N   0  0  0  0  0  0  0  0  0  0  0  0
   20.4107  -18.6418    5.2708 C   0  0  0  0  0  0  0  0  0  0  0  0
   21.3125  -19.0301    6.4091 C   0  0  0  0  0  0  0  0  0  0  0  0
   20.4323  -19.6036    7.4694 C   0  0  0  0  0  0  0  0  0  0  0  0
   19.1050  -18.9284    7.1806 C   0  0  1  0  0  0  0  0  0  0  0  0
   18.9846  -17.6069    7.8127 C   0  0  0  0  0  0  0  0  0  0  0  0
   19.1134  -16.5754    7.1184 O   0  0  0  0  0  0  0  0  0  0  0  0
   18.7325  -17.4936    9.1551 O   0  0  0  0  0  0  0  0  0  0  0  0
  2  1  1  1
  2  3  1  0
  3  4  1  0
  4  8  1  0
  5  4  2  0
  6  9  1  0
  6  2  1  0
  7  6  2  0
  9 13  1  0
 10 11  1  0
 10  9  1  0
 11 12  1  0
 12 13  1  0
 13 14  1  1
 14 16  1  0
 15 14  2  0
 16 20  1  0
 17 16  1  0
 17 18  1  0
 18 19  1  0
 20 21  1  1
 20 19  1  0
 21 23  1  0
 22 21  2  0
M  END
$$$$
