DPP.pdb
     RDKit          3D

 23 24  0  0  1  0  0  0  0  0999 V2000
   29.4724  -22.8801  -18.2835 N   0  0  0  0  0  0  0  0  0  0  0  0
   28.1249  -22.3143  -18.1120 C   0  0  1  0  0  0  0  0  0  0  0  0
   27.0912  -23.3967  -18.4032 C   0  0  0  0  0  0  0  0  0  0  0  0
   27.0482  -23.6766  -19.8611 C   0  0  0  0  0  0  0  0  0  0  0  0
   27.4925  -24.7738  -20.2996 O   0  0  0  0  0  0  0  0  0  0  0  0
   27.9691  -21.7716  -16.7469 C   0  0  0  0  0  0  0  0  0  0  0  0
   28.4534  -22.4569  -15.7882 O   0  0  0  0  0  0  0  0  0  0  0  0
   26.5371  -22.7815  -20.7821 O   0  0  0  0  0  0  0  0  0  0  0  0
   27.3207  -20.5507  -16.4561 N   0  0  0  0  0  0  0  0  0  0  0  0
   26.8725  -19.6126  -17.4561 C   0  0  0  0  0  0  0  0  0  0  0  0
   27.1246  -18.2898  -16.7133 C   0  0  0  0  0  0  0  0  0  0  0  0
   26.3695  -18.6412  -15.4437 C   0  0  0  0  0  0  0  0  0  0  0  0
   26.9880  -19.9987  -15.1641 C   0  0  1  0  0  0  0  0  0  0  0  0
   26.0608  -20.8775  -14.3923 C   0  0  0  0  0  0  0  0  0  0  0  0
   25.3613  -21.6644  -15.0814 O   0  0  0  0  0  0  0  0  0  0  0  0
   25.9776  -20.8247  -12.9743 N   0  0  0  0  0  0  0  0  0  0  0  0
   26.7426  -20.0347  -12.0436 C   0  0  0  0  0  0  0  0  0  0  0  0
   26.5401  -20.6517  -10.6878 C   0  0  0  0  0  0  0  0  0  0  0  0
   25.7741  -21.9137  -10.9075 C   0  0  0  0  0  0  0  0  0  0  0  0
   25.0400  -21.6191  -12.2019 C   0  0  1  0  0  0  0  0  0  0  0  0
   23.7743  -20.9019  -11.9924 C   0  0  0  0  0  0  0  0  0  0  0  0
   23.7145  -19.6740  -12.2193 O   0  0  0  0  0  0  0  0  0  0  0  0
   22.6589  -21.5649  -11.5510 O   0  0  0  0  0  0  0  0  0  0  0  0
  2  1  1  1
  2  3  1  0
  3  4  1  0
  4  8  1  0
  5  4  2  0
  6  9  1  0
  6  2  1  0
  7  6  2  0
  9 13  1  0
 10 11  1  0
 10  9  1  0
 11 12  1  0
 12 13  1  0
 13 14  1  6
 14 16  1  0
 15 14  2  0
 16 20  1  0
 17 16  1  0
 17 18  1  0
 18 19  1  0
 20 21  1  1
 20 19  1  0
 21 23  1  0
 22 21  2  0
M  END
$$$$
