DPP.pdb
     RDKit          3D

 23 24  0  0  1  0  0  0  0  0999 V2000
   28.8418  -23.3578  -17.4450 N   0  0  0  0  0  0  0  0  0  0  0  0
   27.9144  -22.2189  -17.3550 C   0  0  1  0  0  0  0  0  0  0  0  0
   26.5963  -22.5983  -18.0210 C   0  0  0  0  0  0  0  0  0  0  0  0
   26.7546  -22.5913  -19.4976 C   0  0  0  0  0  0  0  0  0  0  0  0
   27.3112  -21.6083  -20.0612 O   0  0  0  0  0  0  0  0  0  0  0  0
   27.7150  -21.8335  -15.9430 C   0  0  0  0  0  0  0  0  0  0  0  0
   27.7383  -22.7660  -15.0751 O   0  0  0  0  0  0  0  0  0  0  0  0
   26.3162  -23.6246  -20.3042 O   0  0  0  0  0  0  0  0  0  0  0  0
   27.5034  -20.5043  -15.5138 N   0  0  0  0  0  0  0  0  0  0  0  0
   27.6202  -19.3482  -16.3686 C   0  0  0  0  0  0  0  0  0  0  0  0
   28.1819  -18.3287  -15.3636 C   0  0  0  0  0  0  0  0  0  0  0  0
   27.1235  -18.5198  -14.2917 C   0  0  0  0  0  0  0  0  0  0  0  0
   27.1500  -20.0343  -14.1951 C   0  0  1  0  0  0  0  0  0  0  0  0
   25.8407  -20.5790  -13.7296 C   0  0  0  0  0  0  0  0  0  0  0  0
   25.0899  -21.0302  -14.6330 O   0  0  0  0  0  0  0  0  0  0  0  0
   25.4720  -20.5852  -12.3569 N   0  0  0  0  0  0  0  0  0  0  0  0
   26.2278  -20.1595  -11.2066 C   0  0  0  0  0  0  0  0  0  0  0  0
   25.5478  -20.7497  -10.0028 C   0  0  0  0  0  0  0  0  0  0  0  0
   24.4848  -21.6600  -10.5214 C   0  0  0  0  0  0  0  0  0  0  0  0
   24.1846  -21.0569  -11.8806 C   0  0  1  0  0  0  0  0  0  0  0  0
   23.2024  -19.9652  -11.8190 C   0  0  0  0  0  0  0  0  0  0  0  0
   23.5874  -18.7805  -11.9229 O   0  0  0  0  0  0  0  0  0  0  0  0
   21.8689  -20.2324  -11.6487 O   0  0  0  0  0  0  0  0  0  0  0  0
  2  1  1  1
  2  3  1  0
  3  4  1  0
  4  8  1  0
  5  4  2  0
  6  9  1  0
  6  2  1  0
  7  6  2  0
  9 13  1  0
 10 11  1  0
 10  9  1  0
 11 12  1  0
 12 13  1  0
 13 14  1  6
 14 16  1  0
 15 14  2  0
 16 20  1  0
 17 16  1  0
 17 18  1  0
 18 19  1  0
 20 21  1  1
 20 19  1  0
 21 23  1  0
 22 21  2  0
M  END
$$$$
