DPP.pdb
     RDKit          3D

 23 24  0  0  1  0  0  0  0  0999 V2000
   22.8180  -21.2559  -15.8512 N   0  0  0  0  0  0  0  0  0  0  0  0
   23.5843  -20.1833  -15.1974 C   0  0  1  0  0  0  0  0  0  0  0  0
   22.6493  -19.0165  -14.8987 C   0  0  0  0  0  0  0  0  0  0  0  0
   22.2604  -18.3427  -16.1638 C   0  0  0  0  0  0  0  0  0  0  0  0
   21.0699  -18.4261  -16.5754 O   0  0  0  0  0  0  0  0  0  0  0  0
   24.2251  -20.6908  -13.9669 C   0  0  0  0  0  0  0  0  0  0  0  0
   23.4656  -21.2106  -13.0858 O   0  0  0  0  0  0  0  0  0  0  0  0
   23.1506  -17.6142  -16.9302 O   0  0  0  0  0  0  0  0  0  0  0  0
   25.6150  -20.6298  -13.7225 N   0  0  0  0  0  0  0  0  0  0  0  0
   26.5893  -20.1843  -14.6886 C   0  0  0  0  0  0  0  0  0  0  0  0
   27.7656  -21.1061  -14.3261 C   0  0  0  0  0  0  0  0  0  0  0  0
   27.7999  -20.7908  -12.8412 C   0  0  0  0  0  0  0  0  0  0  0  0
   26.3296  -20.9873  -12.5198 C   0  0  1  0  0  0  0  0  0  0  0  0
   25.9091  -20.1690  -11.3445 C   0  0  0  0  0  0  0  0  0  0  0  0
   25.5238  -19.0005  -11.6082 O   0  0  0  0  0  0  0  0  0  0  0  0
   25.9437  -20.6805  -10.0188 N   0  0  0  0  0  0  0  0  0  0  0  0
   26.2662  -22.0076   -9.5603 C   0  0  0  0  0  0  0  0  0  0  0  0
   25.7611  -22.1092   -8.1480 C   0  0  0  0  0  0  0  0  0  0  0  0
   24.9938  -20.8570   -7.8821 C   0  0  0  0  0  0  0  0  0  0  0  0
   25.6355  -19.8794   -8.8483 C   0  0  1  0  0  0  0  0  0  0  0  0
   26.8418  -19.2416   -8.3018 C   0  0  0  0  0  0  0  0  0  0  0  0
   27.9682  -19.5944   -8.7135 O   0  0  0  0  0  0  0  0  0  0  0  0
   26.7448  -18.2645   -7.3456 O   0  0  0  0  0  0  0  0  0  0  0  0
  2  1  1  1
  2  3  1  0
  3  4  1  0
  4  8  1  0
  5  4  2  0
  6  9  1  0
  6  2  1  0
  7  6  2  0
  9 13  1  0
 10 11  1  0
 10  9  1  0
 11 12  1  0
 12 13  1  0
 13 14  1  1
 14 16  1  0
 15 14  2  0
 16 20  1  0
 17 16  1  0
 17 18  1  0
 18 19  1  0
 20 21  1  1
 20 19  1  0
 21 23  1  0
 22 21  2  0
M  END
$$$$
