DPP.pdb
     RDKit          3D

 23 24  0  0  1  0  0  0  0  0999 V2000
   20.9942  -12.9449  -18.9157 N   0  0  0  0  0  0  0  0  0  0  0  0
   21.9972  -11.8736  -19.0241 C   0  0  1  0  0  0  0  0  0  0  0  0
   21.6525  -10.9899  -20.2179 C   0  0  0  0  0  0  0  0  0  0  0  0
   21.7604  -11.7727  -21.4753 C   0  0  0  0  0  0  0  0  0  0  0  0
   20.9175  -11.5921  -22.3976 O   0  0  0  0  0  0  0  0  0  0  0  0
   22.0480  -11.0932  -17.7709 C   0  0  0  0  0  0  0  0  0  0  0  0
   20.9378  -10.8213  -17.2080 O   0  0  0  0  0  0  0  0  0  0  0  0
   22.7547  -12.7076  -21.6941 O   0  0  0  0  0  0  0  0  0  0  0  0
   23.2463  -10.6409  -17.1751 N   0  0  0  0  0  0  0  0  0  0  0  0
   24.5657  -11.0110  -17.6259 C   0  0  0  0  0  0  0  0  0  0  0  0
   25.3049  -11.0580  -16.2782 C   0  0  0  0  0  0  0  0  0  0  0  0
   24.9019   -9.6760  -15.7953 C   0  0  0  0  0  0  0  0  0  0  0  0
   23.4066   -9.7622  -16.0407 C   0  0  1  0  0  0  0  0  0  0  0  0
   22.8091   -8.4150  -16.2766 C   0  0  0  0  0  0  0  0  0  0  0  0
   22.7492   -8.0523  -17.4800 O   0  0  0  0  0  0  0  0  0  0  0  0
   22.3410   -7.6007  -15.2097 N   0  0  0  0  0  0  0  0  0  0  0  0
   22.2862   -7.8870  -13.7988 C   0  0  0  0  0  0  0  0  0  0  0  0
   21.3513   -6.8785  -13.1914 C   0  0  0  0  0  0  0  0  0  0  0  0
   20.7492   -6.1215  -14.3281 C   0  0  0  0  0  0  0  0  0  0  0  0
   21.8105   -6.2635  -15.4026 C   0  0  1  0  0  0  0  0  0  0  0  0
   22.8676   -5.2472  -15.3019 C   0  0  0  0  0  0  0  0  0  0  0  0
   23.9535   -5.5367  -14.7544 O   0  0  0  0  0  0  0  0  0  0  0  0
   22.6754   -3.9855  -15.8019 O   0  0  0  0  0  0  0  0  0  0  0  0
  2  1  1  1
  2  3  1  0
  3  4  1  0
  4  8  1  0
  5  4  2  0
  6  9  1  0
  6  2  1  0
  7  6  2  0
  9 13  1  0
 10 11  1  0
 10  9  1  0
 11 12  1  0
 12 13  1  0
 13 14  1  6
 14 16  1  0
 15 14  2  0
 16 20  1  0
 17 16  1  0
 17 18  1  0
 18 19  1  0
 20 21  1  1
 20 19  1  0
 21 23  1  0
 22 21  2  0
M  END
$$$$
