DPP.pdb
     RDKit          3D

 23 24  0  0  1  0  0  0  0  0999 V2000
   13.3681  -19.8073    1.6684 N   0  0  0  0  0  0  0  0  0  0  0  0
   14.1133  -18.8033    2.4443 C   0  0  1  0  0  0  0  0  0  0  0  0
   13.2892  -18.4072    3.6645 C   0  0  0  0  0  0  0  0  0  0  0  0
   12.0480  -17.7146    3.2341 C   0  0  0  0  0  0  0  0  0  0  0  0
   12.0836  -16.9219    2.2523 O   0  0  0  0  0  0  0  0  0  0  0  0
   15.4342  -19.3371    2.8345 C   0  0  0  0  0  0  0  0  0  0  0  0
   15.5157  -20.5898    3.0523 O   0  0  0  0  0  0  0  0  0  0  0  0
   10.8310  -17.8953    3.8641 O   0  0  0  0  0  0  0  0  0  0  0  0
   16.5927  -18.5412    2.9758 N   0  0  0  0  0  0  0  0  0  0  0  0
   16.6527  -17.1343    2.6630 C   0  0  0  0  0  0  0  0  0  0  0  0
   18.0924  -17.0402    2.1306 C   0  0  0  0  0  0  0  0  0  0  0  0
   18.7736  -17.7020    3.3153 C   0  0  0  0  0  0  0  0  0  0  0  0
   17.9032  -18.9398    3.4325 C   0  0  1  0  0  0  0  0  0  0  0  0
   17.8822  -19.4676    4.8284 C   0  0  0  0  0  0  0  0  0  0  0  0
   16.8181  -19.2643    5.4683 O   0  0  0  0  0  0  0  0  0  0  0  0
   18.9926  -20.1532    5.3918 N   0  0  0  0  0  0  0  0  0  0  0  0
   20.2482  -20.5124    4.7835 C   0  0  0  0  0  0  0  0  0  0  0  0
   20.8729  -21.5538    5.6696 C   0  0  0  0  0  0  0  0  0  0  0  0
   19.8539  -21.8940    6.7058 C   0  0  0  0  0  0  0  0  0  0  0  0
   19.0235  -20.6259    6.7638 C   0  0  1  0  0  0  0  0  0  0  0  0
   19.5866  -19.6129    7.6678 C   0  0  0  0  0  0  0  0  0  0  0  0
   20.3960  -18.7699    7.2242 O   0  0  0  0  0  0  0  0  0  0  0  0
   19.2336  -19.5828    8.9918 O   0  0  0  0  0  0  0  0  0  0  0  0
  2  1  1  1
  2  3  1  0
  3  4  1  0
  4  8  1  0
  5  4  2  0
  6  9  1  0
  6  2  1  0
  7  6  2  0
  9 13  1  0
 10 11  1  0
 10  9  1  0
 11 12  1  0
 12 13  1  0
 13 14  1  1
 14 16  1  0
 15 14  2  0
 16 20  1  0
 17 16  1  0
 17 18  1  0
 18 19  1  0
 20 21  1  1
 20 19  1  0
 21 23  1  0
 22 21  2  0
M  END
$$$$
