ALN.pdb
     RDKit          3D

 22 21  0  0  1  0  0  0  0  0999 V2000
   18.0779  -14.7621  -17.4421 C   0  0  0  0  0  0  0  0  0  0  0  0
   18.6036  -13.5312  -18.1447 C   0  0  2  0  0  0  0  0  0  0  0  0
   19.4694  -13.9193  -19.2206 N   0  0  0  0  0  0  0  0  0  0  0  0
   19.3424  -12.7241  -17.1248 C   0  0  0  0  0  0  0  0  0  0  0  0
   18.7253  -12.3557  -16.0962 O   0  0  0  0  0  0  0  0  0  0  0  0
   24.7212  -13.2692  -15.7794 C   0  0  0  0  0  0  0  0  0  0  0  0
   23.1991  -13.1424  -15.6401 C   0  0  1  0  0  0  0  0  0  0  0  0
   22.8792  -13.3328  -14.1947 C   0  0  0  0  0  0  0  0  0  0  0  0
   22.8296  -11.8098  -16.1880 C   0  0  0  0  0  0  0  0  0  0  0  0
   21.3387  -11.5712  -16.2734 C   0  0  2  0  0  0  0  0  0  0  0  0
   20.6954  -12.3610  -17.2682 N   0  0  0  0  0  0  0  0  0  0  0  0
   21.1869  -10.1106  -16.5882 C   0  0  0  0  0  0  0  0  0  0  0  0
   21.4712   -9.7245  -17.7481 O   0  0  0  0  0  0  0  0  0  0  0  0
   18.8750   -5.4444  -17.4720 N   0  0  0  0  0  0  0  0  0  0  0  0
   18.8426   -6.0214  -16.1848 C   0  0  0  0  0  0  0  0  0  0  0  0
   18.5226   -5.3327  -15.2063 O   0  0  0  0  0  0  0  0  0  0  0  0
   19.1926   -7.4348  -16.0422 C   0  0  0  0  0  0  0  0  0  0  0  0
   20.6689   -7.7273  -15.9173 C   0  0  2  0  0  0  0  0  0  0  0  0
   20.7384   -9.1734  -15.6244 N   0  0  0  0  0  0  0  0  0  0  0  0
   21.1890   -6.9698  -14.7446 C   0  0  0  0  0  0  0  0  0  0  0  0
   21.5861   -7.4865  -13.5517 O   0  0  0  0  0  0  0  0  0  0  0  0
   21.2672   -5.7014  -14.8797 O   0  0  0  0  0  0  0  0  0  0  0  0
  2  1  1  1
  3  2  1  0
  4  5  2  0
  4  2  1  0
  7  6  1  1
  7  8  1  0
  7  9  1  0
 10  9  1  6
 10 11  1  0
 10 12  1  0
 11  4  1  0
 12 19  1  0
 12 13  2  0
 15 14  1  0
 16 15  2  0
 17 15  1  0
 18 17  1  1
 19 18  1  0
 20 21  1  0
 20 18  1  0
 22 20  2  0
M  END
$$$$
