ALN.pdb
     RDKit          3D

 22 21  0  0  1  0  0  0  0  0999 V2000
   27.6988  -20.7890  -18.2812 C   0  0  0  0  0  0  0  0  0  0  0  0
   28.5857  -21.4533  -17.2530 C   0  0  2  0  0  0  0  0  0  0  0  0
   28.9435  -22.7691  -17.6985 N   0  0  0  0  0  0  0  0  0  0  0  0
   27.8109  -21.5109  -15.9748 C   0  0  0  0  0  0  0  0  0  0  0  0
   27.0412  -22.4842  -15.7885 O   0  0  0  0  0  0  0  0  0  0  0  0
   30.1458  -20.3321  -11.3130 C   0  0  0  0  0  0  0  0  0  0  0  0
   29.3267  -21.0404  -12.3992 C   0  0  1  0  0  0  0  0  0  0  0  0
   29.1642  -22.4587  -11.9632 C   0  0  0  0  0  0  0  0  0  0  0  0
   28.0540  -20.2828  -12.5366 C   0  0  0  0  0  0  0  0  0  0  0  0
   27.2249  -20.6846  -13.7358 C   0  0  2  0  0  0  0  0  0  0  0  0
   27.9075  -20.5239  -14.9750 N   0  0  0  0  0  0  0  0  0  0  0  0
   26.0091  -19.8042  -13.6918 C   0  0  0  0  0  0  0  0  0  0  0  0
   26.0410  -18.7221  -14.3270 O   0  0  0  0  0  0  0  0  0  0  0  0
   21.1313  -19.1875  -14.7686 N   0  0  0  0  0  0  0  0  0  0  0  0
   22.1299  -19.8724  -15.4928 C   0  0  0  0  0  0  0  0  0  0  0  0
   21.9031  -20.2542  -16.6492 O   0  0  0  0  0  0  0  0  0  0  0  0
   23.4207  -20.1145  -14.8481 C   0  0  0  0  0  0  0  0  0  0  0  0
   23.4987  -19.7298  -13.3897 C   0  0  2  0  0  0  0  0  0  0  0  0
   24.8463  -20.1587  -12.9633 N   0  0  0  0  0  0  0  0  0  0  0  0
   22.4799  -20.5263  -12.6501 C   0  0  0  0  0  0  0  0  0  0  0  0
   21.3854  -20.0481  -12.0012 O   0  0  0  0  0  0  0  0  0  0  0  0
   22.6594  -21.7915  -12.6257 O   0  0  0  0  0  0  0  0  0  0  0  0
  2  1  1  6
  3  2  1  0
  4  5  2  0
  4  2  1  0
  7  6  1  1
  7  8  1  0
  7  9  1  0
 10  9  1  1
 10 11  1  0
 10 12  1  0
 11  4  1  0
 12 19  1  0
 12 13  2  0
 15 14  1  0
 16 15  2  0
 17 15  1  0
 18 17  1  6
 19 18  1  0
 20 21  1  0
 20 18  1  0
 22 20  2  0
M  END
$$$$
