ALN.pdb
     RDKit          3D

 22 21  0  0  1  0  0  0  0  0999 V2000
   19.9873  -16.0712  -17.0193 C   0  0  0  0  0  0  0  0  0  0  0  0
   20.2087  -14.7405  -17.7012 C   0  0  2  0  0  0  0  0  0  0  0  0
   20.9096  -14.9393  -18.9369 N   0  0  0  0  0  0  0  0  0  0  0  0
   21.0054  -13.8917  -16.7619 C   0  0  0  0  0  0  0  0  0  0  0  0
   20.5464  -13.6834  -15.6129 O   0  0  0  0  0  0  0  0  0  0  0  0
   26.4932  -13.8074  -16.4021 C   0  0  0  0  0  0  0  0  0  0  0  0
   24.9965  -13.8909  -16.0779 C   0  0  1  0  0  0  0  0  0  0  0  0
   24.8847  -14.3728  -14.6696 C   0  0  0  0  0  0  0  0  0  0  0  0
   24.4313  -12.5361  -16.3177 C   0  0  0  0  0  0  0  0  0  0  0  0
   22.9256  -12.4666  -16.1951 C   0  0  2  0  0  0  0  0  0  0  0  0
   22.2437  -13.3184  -17.1099 N   0  0  0  0  0  0  0  0  0  0  0  0
   22.5710  -11.0308  -16.4557 C   0  0  0  0  0  0  0  0  0  0  0  0
   22.4988  -10.6482  -17.6489 O   0  0  0  0  0  0  0  0  0  0  0  0
   18.3373   -7.7923  -16.8162 N   0  0  0  0  0  0  0  0  0  0  0  0
   19.7213   -7.7068  -16.5554 C   0  0  0  0  0  0  0  0  0  0  0  0
   20.2889   -6.6062  -16.5827 O   0  0  0  0  0  0  0  0  0  0  0  0
   20.4547   -8.9371  -16.2566 C   0  0  0  0  0  0  0  0  0  0  0  0
   21.8319   -8.7435  -15.6679 C   0  0  2  0  0  0  0  0  0  0  0  0
   22.3203  -10.1127  -15.4057 N   0  0  0  0  0  0  0  0  0  0  0  0
   21.6797   -8.0266  -14.3708 C   0  0  0  0  0  0  0  0  0  0  0  0
   21.7886   -6.6879  -14.1619 O   0  0  0  0  0  0  0  0  0  0  0  0
   21.4203   -8.7514  -13.3507 O   0  0  0  0  0  0  0  0  0  0  0  0
  2  1  1  1
  3  2  1  0
  4  5  2  0
  4  2  1  0
  7  6  1  1
  7  8  1  0
  7  9  1  0
 10  9  1  6
 10 11  1  0
 10 12  1  0
 11  4  1  0
 12 19  1  0
 12 13  2  0
 15 14  1  0
 16 15  2  0
 17 15  1  0
 18 17  1  1
 19 18  1  0
 20 21  1  0
 20 18  1  0
 22 20  2  0
M  END
$$$$
