ALN.pdb
     RDKit          3D

 22 21  0  0  1  0  0  0  0  0999 V2000
   22.3806  -11.5569  -21.8639 C   0  0  0  0  0  0  0  0  0  0  0  0
   22.9063  -12.6408  -20.9508 C   0  0  2  0  0  0  0  0  0  0  0  0
   22.2805  -13.8911  -21.2716 N   0  0  0  0  0  0  0  0  0  0  0  0
   22.5912  -12.2263  -19.5486 C   0  0  0  0  0  0  0  0  0  0  0  0
   21.3860  -12.1322  -19.2122 O   0  0  0  0  0  0  0  0  0  0  0  0
   25.5973  -13.8410  -15.2330 C   0  0  0  0  0  0  0  0  0  0  0  0
   24.4302  -13.5712  -16.1908 C   0  0  1  0  0  0  0  0  0  0  0  0
   23.2567  -14.3312  -15.6682 C   0  0  0  0  0  0  0  0  0  0  0  0
   24.2457  -12.0958  -16.2343 C   0  0  0  0  0  0  0  0  0  0  0  0
   23.2250  -11.6327  -17.2496 C   0  0  2  0  0  0  0  0  0  0  0  0
   23.5847  -11.9382  -18.5930 N   0  0  0  0  0  0  0  0  0  0  0  0
   23.1232  -10.1463  -17.0618 C   0  0  0  0  0  0  0  0  0  0  0  0
   23.7371   -9.4063  -17.8687 O   0  0  0  0  0  0  0  0  0  0  0  0
   21.6298   -5.5092  -18.1875 N   0  0  0  0  0  0  0  0  0  0  0  0
   20.9724   -6.3499  -17.2647 C   0  0  0  0  0  0  0  0  0  0  0  0
   20.0598   -5.8991  -16.5587 O   0  0  0  0  0  0  0  0  0  0  0  0
   21.3935   -7.7476  -17.1676 C   0  0  0  0  0  0  0  0  0  0  0  0
   22.1569   -8.1088  -15.9156 C   0  0  2  0  0  0  0  0  0  0  0  0
   22.3641   -9.5680  -16.0141 N   0  0  0  0  0  0  0  0  0  0  0  0
   21.2809   -7.8216  -14.7453 C   0  0  0  0  0  0  0  0  0  0  0  0
   21.3006   -6.7076  -13.9665 O   0  0  0  0  0  0  0  0  0  0  0  0
   20.4234   -8.7208  -14.4462 O   0  0  0  0  0  0  0  0  0  0  0  0
  2  1  1  6
  3  2  1  0
  4  5  2  0
  4  2  1  0
  7  6  1  1
  7  8  1  0
  7  9  1  0
 10  9  1  1
 10 11  1  0
 10 12  1  0
 11  4  1  0
 12 19  1  0
 12 13  2  0
 15 14  1  0
 16 15  2  0
 17 15  1  0
 18 17  1  6
 19 18  1  0
 20 21  1  0
 20 18  1  0
 22 20  2  0
M  END
$$$$
