ALN.pdb
     RDKit          3D

 22 21  0  0  1  0  0  0  0  0999 V2000
   18.5944  -23.9300  -12.1960 C   0  0  0  0  0  0  0  0  0  0  0  0
   19.2211  -23.2340  -13.3825 C   0  0  2  0  0  0  0  0  0  0  0  0
   20.2897  -24.0351  -13.9061 N   0  0  0  0  0  0  0  0  0  0  0  0
   19.7272  -21.9116  -12.9003 C   0  0  0  0  0  0  0  0  0  0  0  0
   18.8896  -21.0248  -12.6064 O   0  0  0  0  0  0  0  0  0  0  0  0
   23.9026  -21.0056   -9.4718 C   0  0  0  0  0  0  0  0  0  0  0  0
   22.5292  -20.9245  -10.1496 C   0  0  1  0  0  0  0  0  0  0  0  0
   21.6472  -20.1278   -9.2467 C   0  0  0  0  0  0  0  0  0  0  0  0
   22.7501  -20.3228  -11.4919 C   0  0  0  0  0  0  0  0  0  0  0  0
   21.5215  -20.3171  -12.3737 C   0  0  2  0  0  0  0  0  0  0  0  0
   21.0980  -21.6198  -12.7622 N   0  0  0  0  0  0  0  0  0  0  0  0
   21.9027  -19.5105  -13.5818 C   0  0  0  0  0  0  0  0  0  0  0  0
   22.2999  -18.3333  -13.4039 O   0  0  0  0  0  0  0  0  0  0  0  0
   23.0131  -18.1851  -18.5203 N   0  0  0  0  0  0  0  0  0  0  0  0
   23.2605  -19.5563  -18.2985 C   0  0  0  0  0  0  0  0  0  0  0  0
   23.8188  -20.2333  -19.1728 O   0  0  0  0  0  0  0  0  0  0  0  0
   22.8447  -20.1458  -17.0256 C   0  0  0  0  0  0  0  0  0  0  0  0
   22.1231  -19.2113  -16.0840 C   0  0  2  0  0  0  0  0  0  0  0  0
   21.8263  -20.0368  -14.8954 N   0  0  0  0  0  0  0  0  0  0  0  0
   20.8409  -18.8109  -16.7282 C   0  0  0  0  0  0  0  0  0  0  0  0
   19.5856  -19.0764  -16.2795 O   0  0  0  0  0  0  0  0  0  0  0  0
   20.9374  -18.1491  -17.8173 O   0  0  0  0  0  0  0  0  0  0  0  0
  2  1  1  1
  3  2  1  0
  4  5  2  0
  4  2  1  0
  7  6  1  1
  7  8  1  0
  7  9  1  0
 10  9  1  1
 10 11  1  0
 10 12  1  0
 11  4  1  0
 12 19  1  0
 12 13  2  0
 15 14  1  0
 16 15  2  0
 17 15  1  0
 18 17  1  6
 19 18  1  0
 20 21  1  0
 20 18  1  0
 22 20  2  0
M  END
$$$$
