ALN.pdb
     RDKit          3D

 22 21  0  0  1  0  0  0  0  0999 V2000
   17.2514  -10.0626  -18.7643 C   0  0  0  0  0  0  0  0  0  0  0  0
   18.2524  -11.1605  -18.4858 C   0  0  2  0  0  0  0  0  0  0  0  0
   17.5639  -12.3578  -18.0983 N   0  0  0  0  0  0  0  0  0  0  0  0
   19.1447  -10.6745  -17.3880 C   0  0  0  0  0  0  0  0  0  0  0  0
   18.6135  -10.1959  -16.3570 O   0  0  0  0  0  0  0  0  0  0  0  0
   22.9977  -10.8646  -13.9868 C   0  0  0  0  0  0  0  0  0  0  0  0
   23.6055  -10.2959  -15.2750 C   0  0  1  0  0  0  0  0  0  0  0  0
   25.0270  -10.7489  -15.3199 C   0  0  0  0  0  0  0  0  0  0  0  0
   22.7616  -10.7854  -16.3978 C   0  0  0  0  0  0  0  0  0  0  0  0
   21.3471  -10.2507  -16.3834 C   0  0  2  0  0  0  0  0  0  0  0  0
   20.5499  -10.7306  -17.4612 N   0  0  0  0  0  0  0  0  0  0  0  0
   21.4855   -8.7574  -16.4615 C   0  0  0  0  0  0  0  0  0  0  0  0
   21.7942   -8.2505  -17.5674 O   0  0  0  0  0  0  0  0  0  0  0  0
   19.7299   -3.7889  -16.6832 N   0  0  0  0  0  0  0  0  0  0  0  0
   19.7966   -4.5115  -15.4732 C   0  0  0  0  0  0  0  0  0  0  0  0
   19.7089   -3.9150  -14.3911 O   0  0  0  0  0  0  0  0  0  0  0  0
   19.9695   -5.9631  -15.5332 C   0  0  0  0  0  0  0  0  0  0  0  0
   21.3949   -6.4506  -15.4274 C   0  0  2  0  0  0  0  0  0  0  0  0
   21.2796   -7.9204  -15.3365 N   0  0  0  0  0  0  0  0  0  0  0  0
   21.9645   -5.9295  -14.1532 C   0  0  0  0  0  0  0  0  0  0  0  0
   22.6501   -4.7683  -13.9817 O   0  0  0  0  0  0  0  0  0  0  0  0
   21.7878   -6.6548  -13.1159 O   0  0  0  0  0  0  0  0  0  0  0  0
  2  1  1  1
  3  2  1  0
  4  5  2  0
  4  2  1  0
  7  6  1  1
  7  8  1  0
  7  9  1  0
 10  9  1  6
 10 11  1  0
 10 12  1  0
 11  4  1  0
 12 19  1  0
 12 13  2  0
 15 14  1  0
 16 15  2  0
 17 15  1  0
 18 17  1  1
 19 18  1  0
 20 21  1  0
 20 18  1  0
 22 20  2  0
M  END
$$$$
