ALN.pdb
     RDKit          3D

 22 21  0  0  1  0  0  0  0  0999 V2000
   26.4513  -18.3893  -14.7979 C   0  0  0  0  0  0  0  0  0  0  0  0
   27.6467  -18.9446  -14.0579 C   0  0  2  0  0  0  0  0  0  0  0  0
   28.6302  -19.4003  -14.9975 N   0  0  0  0  0  0  0  0  0  0  0  0
   27.1531  -20.0718  -13.2075 C   0  0  0  0  0  0  0  0  0  0  0  0
   27.0502  -21.2091  -13.7275 O   0  0  0  0  0  0  0  0  0  0  0  0
   27.4514  -19.8117   -7.6272 C   0  0  0  0  0  0  0  0  0  0  0  0
   27.6953  -20.2414   -9.0792 C   0  0  1  0  0  0  0  0  0  0  0  0
   28.8126  -21.2308   -9.0561 C   0  0  0  0  0  0  0  0  0  0  0  0
   26.4037  -20.7744   -9.5895 C   0  0  0  0  0  0  0  0  0  0  0  0
   26.3910  -21.0353  -11.0790 C   0  0  2  0  0  0  0  0  0  0  0  0
   26.8002  -19.9127  -11.8535 N   0  0  0  0  0  0  0  0  0  0  0  0
   24.9728  -21.4056  -11.4060 C   0  0  0  0  0  0  0  0  0  0  0  0
   24.4600  -22.3742  -10.7943 O   0  0  0  0  0  0  0  0  0  0  0  0
   20.7320  -21.2155  -10.9452 N   0  0  0  0  0  0  0  0  0  0  0  0
   20.8931  -20.0053  -11.6524 C   0  0  0  0  0  0  0  0  0  0  0  0
   20.1027  -19.0700  -11.4656 O   0  0  0  0  0  0  0  0  0  0  0  0
   22.0036  -19.8894  -12.5979 C   0  0  0  0  0  0  0  0  0  0  0  0
   22.8517  -21.1289  -12.7562 C   0  0  2  0  0  0  0  0  0  0  0  0
   24.2121  -20.7006  -12.3716 N   0  0  0  0  0  0  0  0  0  0  0  0
   22.8512  -21.5041  -14.1979 C   0  0  0  0  0  0  0  0  0  0  0  0
   21.9290  -22.2682  -14.8409 O   0  0  0  0  0  0  0  0  0  0  0  0
   23.8226  -21.0587  -14.8989 O   0  0  0  0  0  0  0  0  0  0  0  0
  2  1  1  6
  3  2  1  0
  4  5  2  0
  4  2  1  0
  7  6  1  1
  7  8  1  0
  7  9  1  0
 10  9  1  1
 10 11  1  0
 10 12  1  0
 11  4  1  0
 12 19  1  0
 12 13  2  0
 15 14  1  0
 16 15  2  0
 17 15  1  0
 18 17  1  6
 19 18  1  0
 20 21  1  0
 20 18  1  0
 22 20  2  0
M  END
$$$$
