ALN.pdb
     RDKit          3D

 22 21  0  0  1  0  0  0  0  0999 V2000
   21.2863  -13.2543  -16.8901 C   0  0  0  0  0  0  0  0  0  0  0  0
   21.4374  -11.9614  -17.6585 C   0  0  2  0  0  0  0  0  0  0  0  0
   22.1712  -12.1988  -18.8680 N   0  0  0  0  0  0  0  0  0  0  0  0
   22.1635  -11.0029  -16.7687 C   0  0  0  0  0  0  0  0  0  0  0  0
   21.6648  -10.7358  -15.6488 O   0  0  0  0  0  0  0  0  0  0  0  0
   27.6636  -10.4047  -16.6827 C   0  0  0  0  0  0  0  0  0  0  0  0
   26.1973  -10.6562  -16.3096 C   0  0  1  0  0  0  0  0  0  0  0  0
   26.1934  -11.2296  -14.9316 C   0  0  0  0  0  0  0  0  0  0  0  0
   25.4932   -9.3527  -16.4423 C   0  0  0  0  0  0  0  0  0  0  0  0
   23.9939   -9.4421  -16.2659 C   0  0  2  0  0  0  0  0  0  0  0  0
   23.3780  -10.3896  -17.1321 N   0  0  0  0  0  0  0  0  0  0  0  0
   23.4767   -8.0613  -16.5509 C   0  0  0  0  0  0  0  0  0  0  0  0
   23.2785   -7.7411  -17.7482 O   0  0  0  0  0  0  0  0  0  0  0  0
   20.7932   -3.7433  -16.3406 N   0  0  0  0  0  0  0  0  0  0  0  0
   20.2649   -5.0474  -16.4455 C   0  0  0  0  0  0  0  0  0  0  0  0
   19.0763   -5.2102  -16.7537 O   0  0  0  0  0  0  0  0  0  0  0  0
   21.1484   -6.1838  -16.1835 C   0  0  0  0  0  0  0  0  0  0  0  0
   22.5629   -5.8280  -15.7921 C   0  0  2  0  0  0  0  0  0  0  0  0
   23.2114   -7.1268  -15.5191 N   0  0  0  0  0  0  0  0  0  0  0  0
   22.5050   -5.0403  -14.5289 C   0  0  0  0  0  0  0  0  0  0  0  0
   22.3509   -3.6946  -14.4139 O   0  0  0  0  0  0  0  0  0  0  0  0
   22.6129   -5.7045  -13.4424 O   0  0  0  0  0  0  0  0  0  0  0  0
  2  1  1  1
  3  2  1  0
  4  5  2  0
  4  2  1  0
  7  6  1  1
  7  8  1  0
  7  9  1  0
 10  9  1  6
 10 11  1  0
 10 12  1  0
 11  4  1  0
 12 19  1  0
 12 13  2  0
 15 14  1  0
 16 15  2  0
 17 15  1  0
 18 17  1  1
 19 18  1  0
 20 21  1  0
 20 18  1  0
 22 20  2  0
M  END
$$$$
