ALN.pdb
     RDKit          3D

 22 21  0  0  1  0  0  0  0  0999 V2000
   26.3754  -17.1742  -15.5592 C   0  0  0  0  0  0  0  0  0  0  0  0
   27.2362  -18.2624  -14.9597 C   0  0  2  0  0  0  0  0  0  0  0  0
   28.1206  -18.7877  -15.9596 N   0  0  0  0  0  0  0  0  0  0  0  0
   26.3130  -19.3225  -14.4484 C   0  0  0  0  0  0  0  0  0  0  0  0
   26.0520  -20.2957  -15.1960 O   0  0  0  0  0  0  0  0  0  0  0  0
   25.6664  -20.6155   -9.0168 C   0  0  0  0  0  0  0  0  0  0  0  0
   25.9754  -20.7079  -10.5163 C   0  0  1  0  0  0  0  0  0  0  0  0
   26.5074  -22.0801  -10.7651 C   0  0  0  0  0  0  0  0  0  0  0  0
   24.7109  -20.3923  -11.2332 C   0  0  0  0  0  0  0  0  0  0  0  0
   24.8576  -20.3177  -12.7365 C   0  0  2  0  0  0  0  0  0  0  0  0
   25.7262  -19.2757  -13.1691 N   0  0  0  0  0  0  0  0  0  0  0  0
   23.4688  -20.0907  -13.2610 C   0  0  0  0  0  0  0  0  0  0  0  0
   23.0058  -18.9249  -13.2193 O   0  0  0  0  0  0  0  0  0  0  0  0
   19.6489  -22.7000  -17.2129 N   0  0  0  0  0  0  0  0  0  0  0  0
   19.8641  -21.8230  -16.1288 C   0  0  0  0  0  0  0  0  0  0  0  0
   18.9429  -21.0989  -15.7269 O   0  0  0  0  0  0  0  0  0  0  0  0
   21.1864  -21.7943  -15.5033 C   0  0  0  0  0  0  0  0  0  0  0  0
   21.3059  -20.9155  -14.2810 C   0  0  2  0  0  0  0  0  0  0  0  0
   22.6815  -21.1422  -13.7927 N   0  0  0  0  0  0  0  0  0  0  0  0
   20.3414  -21.4145  -13.2611 C   0  0  0  0  0  0  0  0  0  0  0  0
   19.0696  -20.9787  -13.0602 O   0  0  0  0  0  0  0  0  0  0  0  0
   20.7591  -22.3500  -12.4972 O   0  0  0  0  0  0  0  0  0  0  0  0
  2  1  1  6
  3  2  1  0
  4  5  2  0
  4  2  1  0
  7  6  1  1
  7  8  1  0
  7  9  1  0
 10  9  1  1
 10 11  1  0
 10 12  1  0
 11  4  1  0
 12 19  1  0
 12 13  2  0
 15 14  1  0
 16 15  2  0
 17 15  1  0
 18 17  1  6
 19 18  1  0
 20 21  1  0
 20 18  1  0
 22 20  2  0
M  END
$$$$
