ALN.pdb
     RDKit          3D

 22 21  0  0  1  0  0  0  0  0999 V2000
   19.3026  -12.0905  -18.4688 C   0  0  0  0  0  0  0  0  0  0  0  0
   19.5098  -10.6694  -17.9972 C   0  0  2  0  0  0  0  0  0  0  0  0
   19.9018   -9.8436  -19.1028 N   0  0  0  0  0  0  0  0  0  0  0  0
   20.5756  -10.7046  -16.9483 C   0  0  0  0  0  0  0  0  0  0  0  0
   20.3423  -11.3254  -15.8832 O   0  0  0  0  0  0  0  0  0  0  0  0
   25.0750  -11.4622  -14.6572 C   0  0  0  0  0  0  0  0  0  0  0  0
   25.1558  -10.0781  -15.3128 C   0  0  1  0  0  0  0  0  0  0  0  0
   26.5793   -9.8698  -15.7107 C   0  0  0  0  0  0  0  0  0  0  0  0
   24.1891  -10.0838  -16.4434 C   0  0  0  0  0  0  0  0  0  0  0  0
   22.7406  -10.0107  -16.0152 C   0  0  2  0  0  0  0  0  0  0  0  0
   21.8250  -10.0737  -17.1038 N   0  0  0  0  0  0  0  0  0  0  0  0
   22.6045   -8.7003  -15.2943 C   0  0  0  0  0  0  0  0  0  0  0  0
   23.1010   -8.6045  -14.1456 O   0  0  0  0  0  0  0  0  0  0  0  0
   21.5939   -3.6392  -14.3693 N   0  0  0  0  0  0  0  0  0  0  0  0
   22.2940   -3.8936  -15.5675 C   0  0  0  0  0  0  0  0  0  0  0  0
   22.8146   -2.9578  -16.1902 O   0  0  0  0  0  0  0  0  0  0  0  0
   22.3857   -5.2734  -16.0454 C   0  0  0  0  0  0  0  0  0  0  0  0
   21.7764   -6.3152  -15.1377 C   0  0  2  0  0  0  0  0  0  0  0  0
   21.9406   -7.5880  -15.8692 N   0  0  0  0  0  0  0  0  0  0  0  0
   20.3229   -6.0158  -15.0064 C   0  0  0  0  0  0  0  0  0  0  0  0
   19.7229   -5.3099  -14.0117 O   0  0  0  0  0  0  0  0  0  0  0  0
   19.5653   -6.4737  -15.9282 O   0  0  0  0  0  0  0  0  0  0  0  0
  2  1  1  6
  3  2  1  0
  4  5  2  0
  4  2  1  0
  7  6  1  6
  7  8  1  0
  7  9  1  0
 10  9  1  6
 10 11  1  0
 10 12  1  0
 11  4  1  0
 12 19  1  0
 12 13  2  0
 15 14  1  0
 16 15  2  0
 17 15  1  0
 18 17  1  6
 19 18  1  0
 20 21  1  0
 20 18  1  0
 22 20  2  0
M  END
$$$$
