ALN.pdb
     RDKit          3D

 22 21  0  0  1  0  0  0  0  0999 V2000
   30.4927  -20.5877  -11.0064 C   0  0  0  0  0  0  0  0  0  0  0  0
   30.7392  -21.3585   -9.7297 C   0  0  2  0  0  0  0  0  0  0  0  0
   31.1672  -22.6915  -10.0427 N   0  0  0  0  0  0  0  0  0  0  0  0
   29.4518  -21.3722   -8.9682 C   0  0  0  0  0  0  0  0  0  0  0  0
   28.6300  -22.2903   -9.2049 O   0  0  0  0  0  0  0  0  0  0  0  0
   28.7000  -18.6110   -4.1260 C   0  0  0  0  0  0  0  0  0  0  0  0
   28.8013  -19.7527   -5.1451 C   0  0  1  0  0  0  0  0  0  0  0  0
   28.6367  -21.0270   -4.3855 C   0  0  0  0  0  0  0  0  0  0  0  0
   27.7553  -19.5022   -6.1725 C   0  0  0  0  0  0  0  0  0  0  0  0
   27.8438  -20.4136   -7.3761 C   0  0  2  0  0  0  0  0  0  0  0  0
   29.1233  -20.4031   -8.0008 N   0  0  0  0  0  0  0  0  0  0  0  0
   26.7941  -19.9178   -8.3287 C   0  0  0  0  0  0  0  0  0  0  0  0
   26.8678  -18.7277   -8.7205 O   0  0  0  0  0  0  0  0  0  0  0  0
   24.9297  -22.1373  -13.2810 N   0  0  0  0  0  0  0  0  0  0  0  0
   24.9554  -21.0214  -12.4181 C   0  0  0  0  0  0  0  0  0  0  0  0
   24.4413  -19.9522  -12.7743 O   0  0  0  0  0  0  0  0  0  0  0  0
   25.5970  -21.1620  -11.1107 C   0  0  0  0  0  0  0  0  0  0  0  0
   24.9420  -20.4012   -9.9825 C   0  0  2  0  0  0  0  0  0  0  0  0
   25.7402  -20.7462   -8.7884 N   0  0  0  0  0  0  0  0  0  0  0  0
   23.5607  -20.9324   -9.8121 C   0  0  0  0  0  0  0  0  0  0  0  0
   23.1026  -21.6979   -8.7865 O   0  0  0  0  0  0  0  0  0  0  0  0
   22.7227  -20.6347  -10.7300 O   0  0  0  0  0  0  0  0  0  0  0  0
  2  1  1  6
  3  2  1  0
  4  5  2  0
  4  2  1  0
  7  6  1  1
  7  8  1  0
  7  9  1  0
 10  9  1  1
 10 11  1  0
 10 12  1  0
 11  4  1  0
 12 19  1  0
 12 13  2  0
 15 14  1  0
 16 15  2  0
 17 15  1  0
 18 17  1  6
 19 18  1  0
 20 21  1  0
 20 18  1  0
 22 20  2  0
M  END
$$$$
