ALN.pdb
     RDKit          3D

 22 21  0  0  1  0  0  0  0  0999 V2000
   26.3751  -18.5964  -17.4775 C   0  0  0  0  0  0  0  0  0  0  0  0
   24.9704  -18.7870  -16.9528 C   0  0  2  0  0  0  0  0  0  0  0  0
   24.4764  -17.5470  -16.4273 N   0  0  0  0  0  0  0  0  0  0  0  0
   25.0370  -19.8340  -15.8866 C   0  0  0  0  0  0  0  0  0  0  0  0
   25.3138  -21.0104  -16.2239 O   0  0  0  0  0  0  0  0  0  0  0  0
   26.5015  -21.8404  -11.2504 C   0  0  0  0  0  0  0  0  0  0  0  0
   25.1234  -21.1794  -11.1236 C   0  0  1  0  0  0  0  0  0  0  0  0
   24.9977  -20.7074   -9.7132 C   0  0  0  0  0  0  0  0  0  0  0  0
   25.0712  -20.1009  -12.1467 C   0  0  0  0  0  0  0  0  0  0  0  0
   24.8617  -20.6012  -13.5584 C   0  0  2  0  0  0  0  0  0  0  0  0
   24.8036  -19.5577  -14.5255 N   0  0  0  0  0  0  0  0  0  0  0  0
   23.5629  -21.3544  -13.5250 C   0  0  0  0  0  0  0  0  0  0  0  0
   23.5371  -22.4597  -12.9309 O   0  0  0  0  0  0  0  0  0  0  0  0
   17.8356  -20.6491  -13.6305 N   0  0  0  0  0  0  0  0  0  0  0  0
   18.8820  -21.3263  -12.9693 C   0  0  0  0  0  0  0  0  0  0  0  0
   18.6327  -22.3197  -12.2726 O   0  0  0  0  0  0  0  0  0  0  0  0
   20.2485  -20.8285  -13.1283 C   0  0  0  0  0  0  0  0  0  0  0  0
   21.1113  -21.6022  -14.0967 C   0  0  2  0  0  0  0  0  0  0  0  0
   22.3858  -20.8566  -14.1373 N   0  0  0  0  0  0  0  0  0  0  0  0
   20.4678  -21.5355  -15.4386 C   0  0  0  0  0  0  0  0  0  0  0  0
   19.5896  -22.4287  -15.9667 O   0  0  0  0  0  0  0  0  0  0  0  0
   20.7784  -20.5315  -16.1658 O   0  0  0  0  0  0  0  0  0  0  0  0
  2  1  1  1
  3  2  1  0
  4  5  2  0
  4  2  1  0
  7  6  1  1
  7  8  1  0
  7  9  1  0
 10  9  1  1
 10 11  1  0
 10 12  1  0
 11  4  1  0
 12 19  1  0
 12 13  2  0
 15 14  1  0
 16 15  2  0
 17 15  1  0
 18 17  1  1
 19 18  1  0
 20 21  1  0
 20 18  1  0
 22 20  2  0
M  END
$$$$
