QFG.pdb
     RDKit          3D

 25 25  0  0  1  0  0  0  0  0999 V2000
    7.3079  -12.3184   17.5756 N   0  0  0  0  0  0  0  0  0  0  0  0
    8.1576  -13.4456   17.6660 C   0  0  0  0  0  0  0  0  0  0  0  0
    8.3827  -14.0920   16.6282 O   0  0  0  0  0  0  0  0  0  0  0  0
    8.7452  -13.8253   18.9517 C   0  0  0  0  0  0  0  0  0  0  0  0
    7.7630  -14.3499   19.9606 C   0  0  0  0  0  0  0  0  0  0  0  0
    8.2379  -15.5152   20.7527 C   0  0  2  0  0  0  0  0  0  0  0  0
    7.1033  -16.4238   20.9224 N   0  0  0  0  0  0  0  0  0  0  0  0
    8.6784  -15.1418   22.1314 C   0  0  0  0  0  0  0  0  0  0  0  0
    9.6600  -14.3692   22.2425 O   0  0  0  0  0  0  0  0  0  0  0  0
    8.0395  -15.6197   23.2986 N   0  0  0  0  0  0  0  0  0  0  0  0
    8.4936  -15.3395   24.6170 C   0  0  1  0  0  0  0  0  0  0  0  0
    7.3968  -15.2174   25.6402 C   0  0  0  0  0  0  0  0  0  0  0  0
    7.0962  -13.8121   25.9929 C   0  0  0  0  0  0  0  0  0  0  0  0
    8.0173  -12.8463   25.6512 C   0  0  0  0  0  0  0  0  0  0  0  0
    7.7991  -11.4993   25.9530 C   0  0  0  0  0  0  0  0  0  0  0  0
    6.6602  -11.1244   26.5954 C   0  0  0  0  0  0  0  0  0  0  0  0
    5.7294  -12.0607   26.9463 C   0  0  0  0  0  0  0  0  0  0  0  0
    5.9567  -13.3906   26.6422 C   0  0  0  0  0  0  0  0  0  0  0  0
    9.4748  -16.3423   25.1325 C   0  0  0  0  0  0  0  0  0  0  0  0
    9.8972  -16.1844   26.2860 O   0  0  0  0  0  0  0  0  0  0  0  0
    9.9263  -17.4430   24.3596 N   0  0  0  0  0  0  0  0  0  0  0  0
   10.8293  -18.4126   24.9339 C   0  0  0  0  0  0  0  0  0  0  0  0
   12.2169  -17.9804   24.6779 C   0  0  0  0  0  0  0  0  0  0  0  0
   12.4195  -16.9301   24.0407 O   0  0  0  0  0  0  0  0  0  0  0  0
   13.2698  -18.7384   25.1438 O   0  0  0  0  0  0  0  0  0  0  0  0
  1  2  1  0
  2  3  2  0
  4  2  1  0
  5  6  1  0
  5  4  1  0
  6  8  1  0
  6  7  1  1
  8  9  2  0
  8 10  1  0
 10 11  1  0
 11 12  1  1
 12 13  1  0
 13 18  2  0
 14 15  2  0
 14 13  1  0
 15 16  1  0
 16 17  2  0
 18 17  1  0
 19 11  1  0
 19 20  2  0
 21 19  1  0
 22 21  1  0
 22 23  1  0
 23 24  2  0
 23 25  1  0
M  END
$$$$
