QFG.pdb
     RDKit          3D

 25 25  0  0  1  0  0  0  0  0999 V2000
    9.3014  -13.3476   17.9374 N   0  0  0  0  0  0  0  0  0  0  0  0
    7.8904  -13.3569   17.8399 C   0  0  0  0  0  0  0  0  0  0  0  0
    7.3838  -13.4537   16.7087 O   0  0  0  0  0  0  0  0  0  0  0  0
    7.0669  -13.2540   19.0456 C   0  0  0  0  0  0  0  0  0  0  0  0
    7.8390  -13.2444   20.3346 C   0  0  0  0  0  0  0  0  0  0  0  0
    8.2265  -14.5861   20.8449 C   0  0  2  0  0  0  0  0  0  0  0  0
    7.0004  -15.3713   20.9936 N   0  0  0  0  0  0  0  0  0  0  0  0
    8.8520  -14.5351   22.2015 C   0  0  0  0  0  0  0  0  0  0  0  0
    9.8532  -13.7960   22.3563 O   0  0  0  0  0  0  0  0  0  0  0  0
    8.3646  -15.2779   23.3014 N   0  0  0  0  0  0  0  0  0  0  0  0
    9.0109  -15.3284   24.5673 C   0  0  1  0  0  0  0  0  0  0  0  0
    8.0738  -15.3320   25.7448 C   0  0  0  0  0  0  0  0  0  0  0  0
    7.4868  -14.0007   26.0140 C   0  0  0  0  0  0  0  0  0  0  0  0
    8.0545  -13.2297   27.0046 C   0  0  0  0  0  0  0  0  0  0  0  0
    7.5521  -11.9625   27.3125 C   0  0  0  0  0  0  0  0  0  0  0  0
    6.4839  -11.4720   26.6280 C   0  0  0  0  0  0  0  0  0  0  0  0
    5.9010  -12.2147   25.6406 C   0  0  0  0  0  0  0  0  0  0  0  0
    6.4072  -13.4673   25.3450 C   0  0  0  0  0  0  0  0  0  0  0  0
    9.9246  -16.5014   24.7207 C   0  0  0  0  0  0  0  0  0  0  0  0
    9.4861  -17.4891   25.3257 O   0  0  0  0  0  0  0  0  0  0  0  0
   11.2469  -16.5176   24.2069 N   0  0  0  0  0  0  0  0  0  0  0  0
   12.1314  -17.6178   24.5112 C   0  0  0  0  0  0  0  0  0  0  0  0
   13.4678  -17.3200   23.9607 C   0  0  0  0  0  0  0  0  0  0  0  0
   13.6430  -16.2633   23.3260 O   0  0  0  0  0  0  0  0  0  0  0  0
   14.5038  -18.2088   24.1530 O   0  0  0  0  0  0  0  0  0  0  0  0
  1  2  1  0
  2  3  2  0
  4  2  1  0
  5  6  1  0
  5  4  1  0
  6  8  1  0
  6  7  1  1
  8  9  2  0
  8 10  1  0
 10 11  1  0
 11 12  1  1
 12 13  1  0
 13 18  2  0
 14 15  2  0
 14 13  1  0
 15 16  1  0
 16 17  2  0
 18 17  1  0
 19 11  1  0
 19 20  2  0
 21 19  1  0
 22 21  1  0
 22 23  1  0
 23 24  2  0
 23 25  1  0
M  END
$$$$
