QFG.pdb
     RDKit          3D

 25 25  0  0  1  0  0  0  0  0999 V2000
    8.5588  -21.6693   22.1680 N   0  0  0  0  0  0  0  0  0  0  0  0
    9.6143  -20.9036   22.7159 C   0  0  0  0  0  0  0  0  0  0  0  0
   10.3815  -21.4588   23.5214 O   0  0  0  0  0  0  0  0  0  0  0  0
    9.7828  -19.5005   22.3350 C   0  0  0  0  0  0  0  0  0  0  0  0
    8.7273  -18.9708   21.4060 C   0  0  0  0  0  0  0  0  0  0  0  0
    8.9004  -17.5500   21.0031 C   0  0  2  0  0  0  0  0  0  0  0  0
   10.1623  -17.4516   20.2685 N   0  0  0  0  0  0  0  0  0  0  0  0
    9.0282  -16.6250   22.1703 C   0  0  0  0  0  0  0  0  0  0  0  0
   10.1813  -16.2669   22.5091 O   0  0  0  0  0  0  0  0  0  0  0  0
    7.9142  -16.1451   22.8967 N   0  0  0  0  0  0  0  0  0  0  0  0
    8.0014  -15.1461   23.9052 C   0  0  1  0  0  0  0  0  0  0  0  0
    6.6831  -14.5261   24.2828 C   0  0  0  0  0  0  0  0  0  0  0  0
    6.8329  -13.3780   25.2042 C   0  0  0  0  0  0  0  0  0  0  0  0
    6.0353  -13.3388   26.3268 C   0  0  0  0  0  0  0  0  0  0  0  0
    6.1231  -12.2848   27.2403 C   0  0  0  0  0  0  0  0  0  0  0  0
    7.0085  -11.2745   27.0267 C   0  0  0  0  0  0  0  0  0  0  0  0
    7.8119  -11.2874   25.9219 C   0  0  0  0  0  0  0  0  0  0  0  0
    7.7158  -12.3358   25.0252 C   0  0  0  0  0  0  0  0  0  0  0  0
    8.6443  -15.6292   25.1652 C   0  0  0  0  0  0  0  0  0  0  0  0
    9.0263  -14.7725   25.9739 O   0  0  0  0  0  0  0  0  0  0  0  0
    8.8260  -17.0058   25.4560 N   0  0  0  0  0  0  0  0  0  0  0  0
    9.3324  -17.4157   26.7448 C   0  0  0  0  0  0  0  0  0  0  0  0
   10.7825  -17.6639   26.6291 C   0  0  0  0  0  0  0  0  0  0  0  0
   11.2444  -18.7581   27.0026 O   0  0  0  0  0  0  0  0  0  0  0  0
   11.6074  -16.6883   26.1115 O   0  0  0  0  0  0  0  0  0  0  0  0
  1  2  1  0
  2  3  2  0
  4  2  1  0
  5  6  1  0
  5  4  1  0
  6  8  1  0
  6  7  1  6
  8  9  2  0
  8 10  1  0
 10 11  1  0
 11 12  1  1
 12 13  1  0
 13 18  2  0
 14 15  2  0
 14 13  1  0
 15 16  1  0
 16 17  2  0
 18 17  1  0
 19 11  1  0
 19 20  2  0
 21 19  1  0
 22 21  1  0
 22 23  1  0
 23 24  2  0
 23 25  1  0
M  END
$$$$
