QFG.pdb
     RDKit          3D

 25 25  0  0  1  0  0  0  0  0999 V2000
   11.8070  -19.8318   15.8282 N   0  0  0  0  0  0  0  0  0  0  0  0
   10.8489  -19.5338   14.8313 C   0  0  0  0  0  0  0  0  0  0  0  0
   10.6200  -20.3957   13.9651 O   0  0  0  0  0  0  0  0  0  0  0  0
   10.1575  -18.2437   14.8346 C   0  0  0  0  0  0  0  0  0  0  0  0
   10.5663  -17.3150   15.9428 C   0  0  0  0  0  0  0  0  0  0  0  0
    9.5691  -17.1633   17.0353 C   0  0  2  0  0  0  0  0  0  0  0  0
    8.4871  -16.3177   16.5292 N   0  0  0  0  0  0  0  0  0  0  0  0
   10.1195  -16.4580   18.2327 C   0  0  0  0  0  0  0  0  0  0  0  0
   10.8730  -15.4748   18.0371 O   0  0  0  0  0  0  0  0  0  0  0  0
    9.8271  -16.8516   19.5589 N   0  0  0  0  0  0  0  0  0  0  0  0
   10.3433  -16.1930   20.7089 C   0  0  1  0  0  0  0  0  0  0  0  0
    9.2927  -15.6409   21.6341 C   0  0  0  0  0  0  0  0  0  0  0  0
    8.4034  -14.6613   20.9716 C   0  0  0  0  0  0  0  0  0  0  0  0
    8.7990  -13.3419   20.9428 C   0  0  0  0  0  0  0  0  0  0  0  0
    8.0090  -12.3628   20.3341 C   0  0  0  0  0  0  0  0  0  0  0  0
    6.8266  -12.7080   19.7570 C   0  0  0  0  0  0  0  0  0  0  0  0
    6.4093  -14.0087   19.7707 C   0  0  0  0  0  0  0  0  0  0  0  0
    7.1998  -14.9685   20.3761 C   0  0  0  0  0  0  0  0  0  0  0  0
   11.2515  -17.0528   21.5275 C   0  0  0  0  0  0  0  0  0  0  0  0
   10.9249  -18.2370   21.6851 O   0  0  0  0  0  0  0  0  0  0  0  0
   12.4472  -16.5657   22.1154 N   0  0  0  0  0  0  0  0  0  0  0  0
   13.2829  -17.4454   22.8985 C   0  0  0  0  0  0  0  0  0  0  0  0
   14.4242  -16.6727   23.4259 C   0  0  0  0  0  0  0  0  0  0  0  0
   14.5838  -15.4943   23.0569 O   0  0  0  0  0  0  0  0  0  0  0  0
   15.2977  -17.2586   24.3168 O   0  0  0  0  0  0  0  0  0  0  0  0
  1  2  1  0
  2  3  2  0
  4  2  1  0
  5  6  1  0
  5  4  1  0
  6  8  1  0
  6  7  1  6
  8  9  2  0
  8 10  1  0
 10 11  1  0
 11 12  1  1
 12 13  1  0
 13 18  2  0
 14 15  2  0
 14 13  1  0
 15 16  1  0
 16 17  2  0
 18 17  1  0
 19 11  1  0
 19 20  2  0
 21 19  1  0
 22 21  1  0
 22 23  1  0
 23 24  2  0
 23 25  1  0
M  END
$$$$
