QFG.pdb
     RDKit          3D

 25 25  0  0  1  0  0  0  0  0999 V2000
    8.8265  -12.7271   17.2222 N   0  0  0  0  0  0  0  0  0  0  0  0
    7.8392  -13.5569   17.8031 C   0  0  0  0  0  0  0  0  0  0  0  0
    7.6306  -14.6673   17.2843 O   0  0  0  0  0  0  0  0  0  0  0  0
    7.0946  -13.1051   18.9794 C   0  0  0  0  0  0  0  0  0  0  0  0
    7.8809  -13.1084   20.2599 C   0  0  0  0  0  0  0  0  0  0  0  0
    8.3498  -14.4472   20.7057 C   0  0  2  0  0  0  0  0  0  0  0  0
    7.2093  -15.3610   20.6287 N   0  0  0  0  0  0  0  0  0  0  0  0
    8.7967  -14.4628   22.1319 C   0  0  0  0  0  0  0  0  0  0  0  0
    9.6347  -13.6019   22.4916 O   0  0  0  0  0  0  0  0  0  0  0  0
    8.3173  -15.3981   23.0777 N   0  0  0  0  0  0  0  0  0  0  0  0
    8.7181  -15.4156   24.4423 C   0  0  1  0  0  0  0  0  0  0  0  0
    7.5812  -15.3464   25.4258 C   0  0  0  0  0  0  0  0  0  0  0  0
    7.3291  -13.9726   25.9145 C   0  0  0  0  0  0  0  0  0  0  0  0
    6.2355  -13.2979   25.4177 C   0  0  0  0  0  0  0  0  0  0  0  0
    5.9368  -11.9979   25.8345 C   0  0  0  0  0  0  0  0  0  0  0  0
    6.7335  -11.3785   26.7465 C   0  0  0  0  0  0  0  0  0  0  0  0
    7.8246  -12.0236   27.2560 C   0  0  0  0  0  0  0  0  0  0  0  0
    8.1099  -13.3099   26.8358 C   0  0  0  0  0  0  0  0  0  0  0  0
    9.5473  -16.6061   24.8020 C   0  0  0  0  0  0  0  0  0  0  0  0
    9.0325  -17.4558   25.5415 O   0  0  0  0  0  0  0  0  0  0  0  0
   10.8740  -16.7881   24.3337 N   0  0  0  0  0  0  0  0  0  0  0  0
   11.6361  -17.9452   24.7408 C   0  0  0  0  0  0  0  0  0  0  0  0
   13.0028  -17.8305   24.1958 C   0  0  0  0  0  0  0  0  0  0  0  0
   13.2889  -16.8606   23.4695 O   0  0  0  0  0  0  0  0  0  0  0  0
   13.9444  -18.7919   24.4942 O   0  0  0  0  0  0  0  0  0  0  0  0
  1  2  1  0
  2  3  2  0
  4  2  1  0
  5  6  1  0
  5  4  1  0
  6  8  1  0
  6  7  1  1
  8  9  2  0
  8 10  1  0
 10 11  1  0
 11 12  1  1
 12 13  1  0
 13 18  2  0
 14 15  2  0
 14 13  1  0
 15 16  1  0
 16 17  2  0
 18 17  1  0
 19 11  1  0
 19 20  2  0
 21 19  1  0
 22 21  1  0
 22 23  1  0
 23 24  2  0
 23 25  1  0
M  END
$$$$
