QFG.pdb
     RDKit          3D

 25 25  0  0  1  0  0  0  0  0999 V2000
    9.6472  -20.6494   19.7030 N   0  0  0  0  0  0  0  0  0  0  0  0
    9.7978  -19.9329   18.4928 C   0  0  0  0  0  0  0  0  0  0  0  0
    9.7623  -20.5724   17.4273 O   0  0  0  0  0  0  0  0  0  0  0  0
    9.9893  -18.4820   18.5134 C   0  0  0  0  0  0  0  0  0  0  0  0
    9.8839  -17.8538   19.8743 C   0  0  0  0  0  0  0  0  0  0  0  0
    8.8609  -16.7814   19.9938 C   0  0  2  0  0  0  0  0  0  0  0  0
    9.0074  -15.9023   18.8328 N   0  0  0  0  0  0  0  0  0  0  0  0
    9.0618  -15.9159   21.1957 C   0  0  0  0  0  0  0  0  0  0  0  0
   10.2387  -15.6246   21.5164 O   0  0  0  0  0  0  0  0  0  0  0  0
    7.9906  -15.4201   21.9740 N   0  0  0  0  0  0  0  0  0  0  0  0
    8.1639  -14.7303   23.2057 C   0  0  1  0  0  0  0  0  0  0  0  0
    6.9730  -13.9177   23.6369 C   0  0  0  0  0  0  0  0  0  0  0  0
    7.2144  -13.1672   24.8891 C   0  0  0  0  0  0  0  0  0  0  0  0
    6.1808  -13.0665   25.7945 C   0  0  0  0  0  0  0  0  0  0  0  0
    6.3379  -12.3729   26.9976 C   0  0  0  0  0  0  0  0  0  0  0  0
    7.5284  -11.7832   27.2897 C   0  0  0  0  0  0  0  0  0  0  0  0
    8.5706  -11.8670   26.4104 C   0  0  0  0  0  0  0  0  0  0  0  0
    8.4029  -12.5561   25.2231 C   0  0  0  0  0  0  0  0  0  0  0  0
    8.5261  -15.6294   24.3435 C   0  0  0  0  0  0  0  0  0  0  0  0
    7.7303  -16.5344   24.6293 O   0  0  0  0  0  0  0  0  0  0  0  0
    9.7244  -15.4814   25.0883 N   0  0  0  0  0  0  0  0  0  0  0  0
   10.4063  -16.6441   25.6065 C   0  0  0  0  0  0  0  0  0  0  0  0
   10.0257  -16.8280   27.0204 C   0  0  0  0  0  0  0  0  0  0  0  0
    9.6629  -17.9529   27.4117 O   0  0  0  0  0  0  0  0  0  0  0  0
   10.0751  -15.7594   27.8898 O   0  0  0  0  0  0  0  0  0  0  0  0
  1  2  1  0
  2  3  2  0
  4  2  1  0
  5  6  1  0
  5  4  1  0
  6  8  1  0
  6  7  1  6
  8  9  2  0
  8 10  1  0
 10 11  1  0
 11 12  1  1
 12 13  1  0
 13 18  2  0
 14 15  2  0
 14 13  1  0
 15 16  1  0
 16 17  2  0
 18 17  1  0
 19 11  1  0
 19 20  2  0
 21 19  1  0
 22 21  1  0
 22 23  1  0
 23 24  2  0
 23 25  1  0
M  END
$$$$
