QFG.pdb
     RDKit          3D

 25 25  0  0  1  0  0  0  0  0999 V2000
    6.4693  -13.7633   19.4219 N   0  0  0  0  0  0  0  0  0  0  0  0
    7.6708  -13.3956   18.7724 C   0  0  0  0  0  0  0  0  0  0  0  0
    7.6376  -13.2123   17.5432 O   0  0  0  0  0  0  0  0  0  0  0  0
    8.9071  -13.2407   19.5404 C   0  0  0  0  0  0  0  0  0  0  0  0
    8.7675  -13.4989   21.0140 C   0  0  0  0  0  0  0  0  0  0  0  0
    9.0767  -14.8895   21.4403 C   0  0  2  0  0  0  0  0  0  0  0  0
    7.9838  -15.7451   20.9763 N   0  0  0  0  0  0  0  0  0  0  0  0
    9.1229  -15.0468   22.9259 C   0  0  0  0  0  0  0  0  0  0  0  0
    9.9846  -14.3895   23.5570 O   0  0  0  0  0  0  0  0  0  0  0  0
    8.2444  -15.8964   23.6370 N   0  0  0  0  0  0  0  0  0  0  0  0
    8.2260  -16.0028   25.0551 C   0  0  1  0  0  0  0  0  0  0  0  0
    6.9412  -15.5527   25.6964 C   0  0  0  0  0  0  0  0  0  0  0  0
    6.8700  -14.0846   25.8679 C   0  0  0  0  0  0  0  0  0  0  0  0
    7.2996  -13.5495   27.0625 C   0  0  0  0  0  0  0  0  0  0  0  0
    7.2610  -12.1718   27.2936 C   0  0  0  0  0  0  0  0  0  0  0  0
    6.7929  -11.3353   26.3285 C   0  0  0  0  0  0  0  0  0  0  0  0
    6.3604  -11.8382   25.1342 C   0  0  0  0  0  0  0  0  0  0  0  0
    6.4035  -13.2034   24.9174 C   0  0  0  0  0  0  0  0  0  0  0  0
    8.5119  -17.3838   25.5504 C   0  0  0  0  0  0  0  0  0  0  0  0
    7.6106  -17.9637   26.1712 O   0  0  0  0  0  0  0  0  0  0  0  0
    9.7540  -18.0349   25.3365 N   0  0  0  0  0  0  0  0  0  0  0  0
   10.8219  -17.8975   26.2989 C   0  0  0  0  0  0  0  0  0  0  0  0
   10.5449  -18.7831   27.4464 C   0  0  0  0  0  0  0  0  0  0  0  0
    9.4812  -19.4296   27.4735 O   0  0  0  0  0  0  0  0  0  0  0  0
   11.4606  -18.8861   28.4716 O   0  0  0  0  0  0  0  0  0  0  0  0
  1  2  1  0
  2  3  2  0
  4  2  1  0
  5  6  1  0
  5  4  1  0
  6  8  1  0
  6  7  1  1
  8  9  2  0
  8 10  1  0
 10 11  1  0
 11 12  1  6
 12 13  1  0
 13 18  2  0
 14 15  2  0
 14 13  1  0
 15 16  1  0
 16 17  2  0
 18 17  1  0
 19 11  1  0
 19 20  2  0
 21 19  1  0
 22 21  1  0
 22 23  1  0
 23 24  2  0
 23 25  1  0
M  END
$$$$
