QFG.pdb
     RDKit          3D

 25 25  0  0  1  0  0  0  0  0999 V2000
    8.9443  -12.5422   17.5169 N   0  0  0  0  0  0  0  0  0  0  0  0
    7.9199  -13.4924   17.2967 C   0  0  0  0  0  0  0  0  0  0  0  0
    7.5706  -13.7135   16.1243 O   0  0  0  0  0  0  0  0  0  0  0  0
    7.3005  -14.1849   18.4277 C   0  0  0  0  0  0  0  0  0  0  0  0
    7.8846  -13.8435   19.7694 C   0  0  0  0  0  0  0  0  0  0  0  0
    8.4795  -14.9901   20.5058 C   0  0  2  0  0  0  0  0  0  0  0  0
    7.4883  -16.0668   20.5185 N   0  0  0  0  0  0  0  0  0  0  0  0
    8.7673  -14.6761   21.9385 C   0  0  0  0  0  0  0  0  0  0  0  0
    9.6351  -13.8045   22.1832 O   0  0  0  0  0  0  0  0  0  0  0  0
    8.1077  -15.3154   23.0134 N   0  0  0  0  0  0  0  0  0  0  0  0
    8.5047  -15.1836   24.3727 C   0  0  1  0  0  0  0  0  0  0  0  0
    7.3654  -15.1746   25.3558 C   0  0  0  0  0  0  0  0  0  0  0  0
    7.0701  -13.8220   25.8782 C   0  0  0  0  0  0  0  0  0  0  0  0
    6.0201  -13.6818   26.7592 C   0  0  0  0  0  0  0  0  0  0  0  0
    5.6846  -12.4343   27.2923 C   0  0  0  0  0  0  0  0  0  0  0  0
    6.4009  -11.3324   26.9418 C   0  0  0  0  0  0  0  0  0  0  0  0
    7.4472  -11.4418   26.0702 C   0  0  0  0  0  0  0  0  0  0  0  0
    7.7696  -12.6818   25.5494 C   0  0  0  0  0  0  0  0  0  0  0  0
    9.4671  -16.2384   24.8148 C   0  0  0  0  0  0  0  0  0  0  0  0
    9.7596  -16.2737   26.0178 O   0  0  0  0  0  0  0  0  0  0  0  0
   10.0418  -17.1777   23.9204 N   0  0  0  0  0  0  0  0  0  0  0  0
   10.9296  -18.2035   24.4153 C   0  0  0  0  0  0  0  0  0  0  0  0
   12.2812  -17.9649   23.8731 C   0  0  0  0  0  0  0  0  0  0  0  0
   12.7043  -18.6889   22.9528 O   0  0  0  0  0  0  0  0  0  0  0  0
   13.0582  -16.9489   24.3870 O   0  0  0  0  0  0  0  0  0  0  0  0
  1  2  1  0
  2  3  2  0
  4  2  1  0
  5  6  1  0
  5  4  1  0
  6  8  1  0
  6  7  1  1
  8  9  2  0
  8 10  1  0
 10 11  1  0
 11 12  1  1
 12 13  1  0
 13 18  2  0
 14 15  2  0
 14 13  1  0
 15 16  1  0
 16 17  2  0
 18 17  1  0
 19 11  1  0
 19 20  2  0
 21 19  1  0
 22 21  1  0
 22 23  1  0
 23 24  2  0
 23 25  1  0
M  END
$$$$
