QFG.pdb
     RDKit          3D

 25 25  0  0  1  0  0  0  0  0999 V2000
    9.4746  -19.2594   17.1211 N   0  0  0  0  0  0  0  0  0  0  0  0
    9.9873  -17.9682   17.3868 C   0  0  0  0  0  0  0  0  0  0  0  0
   11.2212  -17.8167   17.3784 O   0  0  0  0  0  0  0  0  0  0  0  0
    9.0772  -16.8554   17.6621 C   0  0  0  0  0  0  0  0  0  0  0  0
    9.4397  -16.0302   18.8644 C   0  0  0  0  0  0  0  0  0  0  0  0
    9.2229  -16.6995   20.1743 C   0  0  2  0  0  0  0  0  0  0  0  0
    7.9027  -17.3297   20.1332 N   0  0  0  0  0  0  0  0  0  0  0  0
    9.1877  -15.7402   21.3199 C   0  0  0  0  0  0  0  0  0  0  0  0
   10.1623  -14.9639   21.4627 O   0  0  0  0  0  0  0  0  0  0  0  0
    8.1126  -15.6754   22.2360 N   0  0  0  0  0  0  0  0  0  0  0  0
    8.1351  -14.8943   23.4243 C   0  0  1  0  0  0  0  0  0  0  0  0
    6.8075  -14.2931   23.7991 C   0  0  0  0  0  0  0  0  0  0  0  0
    6.8970  -13.3901   24.9680 C   0  0  0  0  0  0  0  0  0  0  0  0
    7.6345  -12.2335   24.8392 C   0  0  0  0  0  0  0  0  0  0  0  0
    7.7622  -11.3347   25.9017 C   0  0  0  0  0  0  0  0  0  0  0  0
    7.1514  -11.5968   27.0885 C   0  0  0  0  0  0  0  0  0  0  0  0
    6.4137  -12.7360   27.2446 C   0  0  0  0  0  0  0  0  0  0  0  0
    6.2948  -13.6178   26.1858 C   0  0  0  0  0  0  0  0  0  0  0  0
    8.6388  -15.6420   24.6165 C   0  0  0  0  0  0  0  0  0  0  0  0
    8.5564  -15.0802   25.7172 O   0  0  0  0  0  0  0  0  0  0  0  0
    9.1950  -16.9441   24.5282 N   0  0  0  0  0  0  0  0  0  0  0  0
    9.6416  -17.6261   25.7202 C   0  0  0  0  0  0  0  0  0  0  0  0
   11.0664  -17.3125   25.9420 C   0  0  0  0  0  0  0  0  0  0  0  0
   11.3757  -16.4486   26.7836 O   0  0  0  0  0  0  0  0  0  0  0  0
   12.0362  -17.9748   25.2202 O   0  0  0  0  0  0  0  0  0  0  0  0
  1  2  1  0
  2  3  2  0
  4  2  1  0
  5  6  1  0
  5  4  1  0
  6  8  1  0
  6  7  1  6
  8  9  2  0
  8 10  1  0
 10 11  1  0
 11 12  1  1
 12 13  1  0
 13 18  2  0
 14 15  2  0
 14 13  1  0
 15 16  1  0
 16 17  2  0
 18 17  1  0
 19 11  1  0
 19 20  2  0
 21 19  1  0
 22 21  1  0
 22 23  1  0
 23 24  2  0
 23 25  1  0
M  END
$$$$
