QFG.pdb
     RDKit          3D

 25 25  0  0  1  0  0  0  0  0999 V2000
   11.4825  -19.6170   17.6476 N   0  0  0  0  0  0  0  0  0  0  0  0
   12.0198  -19.1474   18.8689 C   0  0  0  0  0  0  0  0  0  0  0  0
   13.1777  -18.6948   18.8618 O   0  0  0  0  0  0  0  0  0  0  0  0
   11.2221  -19.2010   20.0949 C   0  0  0  0  0  0  0  0  0  0  0  0
   10.8884  -17.8605   20.6862 C   0  0  0  0  0  0  0  0  0  0  0  0
    9.5909  -17.7985   21.4098 C   0  0  2  0  0  0  0  0  0  0  0  0
    8.5361  -17.6360   20.4085 N   0  0  0  0  0  0  0  0  0  0  0  0
    9.4858  -16.6152   22.3169 C   0  0  0  0  0  0  0  0  0  0  0  0
   10.4087  -15.7668   22.2807 O   0  0  0  0  0  0  0  0  0  0  0  0
    8.4008  -16.4186   23.2019 N   0  0  0  0  0  0  0  0  0  0  0  0
    8.2879  -15.3018   24.0752 C   0  0  1  0  0  0  0  0  0  0  0  0
    6.9114  -14.6967   24.1371 C   0  0  0  0  0  0  0  0  0  0  0  0
    6.8290  -13.5550   25.0748 C   0  0  0  0  0  0  0  0  0  0  0  0
    7.3786  -12.3537   24.6839 C   0  0  0  0  0  0  0  0  0  0  0  0
    7.3372  -11.2335   25.5184 C   0  0  0  0  0  0  0  0  0  0  0  0
    6.7461  -11.3200   26.7405 C   0  0  0  0  0  0  0  0  0  0  0  0
    6.1929  -12.4986   27.1541 C   0  0  0  0  0  0  0  0  0  0  0  0
    6.2402  -13.6002   26.3193 C   0  0  0  0  0  0  0  0  0  0  0  0
    8.7071  -15.6010   25.4784 C   0  0  0  0  0  0  0  0  0  0  0  0
    8.8132  -14.6437   26.2571 O   0  0  0  0  0  0  0  0  0  0  0  0
    8.9807  -16.9161   25.9347 N   0  0  0  0  0  0  0  0  0  0  0  0
    9.2563  -17.1582   27.3314 C   0  0  0  0  0  0  0  0  0  0  0  0
   10.6793  -17.5201   27.4797 C   0  0  0  0  0  0  0  0  0  0  0  0
   11.0627  -18.0631   28.5324 O   0  0  0  0  0  0  0  0  0  0  0  0
   11.5656  -17.2555   26.4577 O   0  0  0  0  0  0  0  0  0  0  0  0
  1  2  1  0
  2  3  2  0
  4  2  1  0
  5  6  1  0
  5  4  1  0
  6  8  1  0
  6  7  1  6
  8  9  2  0
  8 10  1  0
 10 11  1  0
 11 12  1  1
 12 13  1  0
 13 18  2  0
 14 15  2  0
 14 13  1  0
 15 16  1  0
 16 17  2  0
 18 17  1  0
 19 11  1  0
 19 20  2  0
 21 19  1  0
 22 21  1  0
 22 23  1  0
 23 24  2  0
 23 25  1  0
M  END
$$$$
