QFG.pdb
     RDKit          3D

 25 25  0  0  1  0  0  0  0  0999 V2000
   10.2222  -18.1159   18.9950 N   0  0  0  0  0  0  0  0  0  0  0  0
    9.4588  -17.1911   18.2449 C   0  0  0  0  0  0  0  0  0  0  0  0
    9.5486  -17.2290   17.0056 O   0  0  0  0  0  0  0  0  0  0  0  0
    8.5947  -16.2248   18.9246 C   0  0  0  0  0  0  0  0  0  0  0  0
    8.7110  -14.8143   18.4198 C   0  0  0  0  0  0  0  0  0  0  0  0
    7.8229  -13.8306   19.0938 C   0  0  2  0  0  0  0  0  0  0  0  0
    8.0466  -12.5300   18.4611 N   0  0  0  0  0  0  0  0  0  0  0  0
    8.1484  -13.6479   20.5411 C   0  0  0  0  0  0  0  0  0  0  0  0
    9.1175  -12.9076   20.8335 O   0  0  0  0  0  0  0  0  0  0  0  0
    7.4157  -14.2691   21.5785 N   0  0  0  0  0  0  0  0  0  0  0  0
    7.6577  -14.0402   22.9612 C   0  0  1  0  0  0  0  0  0  0  0  0
    6.4204  -14.0399   23.8179 C   0  0  0  0  0  0  0  0  0  0  0  0
    6.6652  -13.5102   25.1777 C   0  0  0  0  0  0  0  0  0  0  0  0
    6.9378  -14.4098   26.1850 C   0  0  0  0  0  0  0  0  0  0  0  0
    7.1790  -13.9803   27.4928 C   0  0  0  0  0  0  0  0  0  0  0  0
    7.1464  -12.6528   27.7874 C   0  0  0  0  0  0  0  0  0  0  0  0
    6.8787  -11.7383   26.8084 C   0  0  0  0  0  0  0  0  0  0  0  0
    6.6417  -12.1755   25.5180 C   0  0  0  0  0  0  0  0  0  0  0  0
    8.6179  -15.0139   23.5648 C   0  0  0  0  0  0  0  0  0  0  0  0
    8.9683  -14.8159   24.7361 O   0  0  0  0  0  0  0  0  0  0  0  0
    9.1279  -16.1308   22.8542 N   0  0  0  0  0  0  0  0  0  0  0  0
    9.9760  -17.0908   23.5210 C   0  0  0  0  0  0  0  0  0  0  0  0
   11.3820  -16.6678   23.3719 C   0  0  0  0  0  0  0  0  0  0  0  0
   12.0646  -17.1403   22.4440 O   0  0  0  0  0  0  0  0  0  0  0  0
   11.9234  -15.7589   24.2555 O   0  0  0  0  0  0  0  0  0  0  0  0
  1  2  1  0
  2  3  2  0
  4  2  1  0
  5  6  1  0
  5  4  1  0
  6  8  1  0
  6  7  1  6
  8  9  2  0
  8 10  1  0
 10 11  1  0
 11 12  1  1
 12 13  1  0
 13 18  2  0
 14 15  2  0
 14 13  1  0
 15 16  1  0
 16 17  2  0
 18 17  1  0
 19 11  1  0
 19 20  2  0
 21 19  1  0
 22 21  1  0
 22 23  1  0
 23 24  2  0
 23 25  1  0
M  END
$$$$
