LVE.pdb
     RDKit          3D

 25 24  0  0  1  0  0  0  0  0999 V2000
    7.6286  -22.4358   27.0591 C   0  0  0  0  0  0  0  0  0  0  0  0
    6.6313  -22.2261   25.9461 C   0  0  2  0  0  0  0  0  0  0  0  0
    6.5586  -23.4800   25.0601 C   0  0  0  0  0  0  0  0  0  0  0  0
    6.9568  -21.0583   25.0943 C   0  0  0  0  0  0  0  0  0  0  0  0
    7.2687  -19.7787   25.7772 C   0  0  2  0  0  0  0  0  0  0  0  0
    6.1878  -19.2080   26.5039 N   0  0  0  0  0  0  0  0  0  0  0  0
    7.9302  -18.7860   24.8776 C   0  0  0  0  0  0  0  0  0  0  0  0
    8.6982  -19.1779   23.9610 O   0  0  0  0  0  0  0  0  0  0  0  0
    7.4274  -14.6248   25.6294 C   0  0  0  0  0  0  0  0  0  0  0  0
    7.6142  -15.1205   24.1934 C   0  0  1  0  0  0  0  0  0  0  0  0
    8.2425  -14.0239   23.4105 C   0  0  0  0  0  0  0  0  0  0  0  0
    8.3886  -16.3871   24.2589 C   0  0  2  0  0  0  0  0  0  0  0  0
    7.7176  -17.4165   25.0286 N   0  0  0  0  0  0  0  0  0  0  0  0
    9.7978  -16.2274   24.6568 C   0  0  0  0  0  0  0  0  0  0  0  0
   10.0430  -15.6732   25.7499 O   0  0  0  0  0  0  0  0  0  0  0  0
   10.8595  -16.6705   23.8605 N   0  0  0  0  0  0  0  0  0  0  0  0
   12.2830  -16.4964   24.3060 C   0  0  1  0  0  0  0  0  0  0  0  0
   12.7061  -17.8669   24.6790 C   0  0  0  0  0  0  0  0  0  0  0  0
   12.2938  -18.4572   25.9559 C   0  0  0  0  0  0  0  0  0  0  0  0
   12.8069  -19.8019   26.2456 C   0  0  0  0  0  0  0  0  0  0  0  0
   12.6355  -20.7828   25.4637 O   0  0  0  0  0  0  0  0  0  0  0  0
   12.9497  -15.9266   23.1114 C   0  0  0  0  0  0  0  0  0  0  0  0
   14.1856  -15.2312   23.2051 O   0  0  0  0  0  0  0  0  0  0  0  0
   13.5139  -20.0374   27.4157 O   0  0  0  0  0  0  0  0  0  0  0  0
   12.5151  -15.9925   21.9383 O   0  0  0  0  0  0  0  0  0  0  0  0
  2  1  1  1
  3  2  1  0
  4  5  1  0
  4  2  1  0
  5  6  1  6
  7  5  1  0
  8  7  2  0
 10  9  1  1
 10 12  1  0
 11 10  1  0
 12 14  1  0
 12 13  1  1
 13  7  1  0
 14 16  1  0
 15 14  2  0
 16 17  1  0
 17 18  1  6
 17 22  1  0
 18 19  1  0
 19 20  1  0
 20 24  1  0
 21 20  2  0
 22 25  2  0
 22 23  1  0
M  END
$$$$
