LVE.pdb
     RDKit          3D

 25 24  0  0  1  0  0  0  0  0999 V2000
    7.5397  -12.5542   18.6154 C   0  0  0  0  0  0  0  0  0  0  0  0
    7.3439  -13.2801   19.9237 C   0  0  2  0  0  0  0  0  0  0  0  0
    7.1773  -12.2679   21.0684 C   0  0  0  0  0  0  0  0  0  0  0  0
    8.4669  -14.1896   20.2509 C   0  0  0  0  0  0  0  0  0  0  0  0
    8.8038  -15.2439   19.2630 C   0  0  2  0  0  0  0  0  0  0  0  0
    7.7128  -16.0661   18.8680 N   0  0  0  0  0  0  0  0  0  0  0  0
   10.0018  -16.0461   19.6548 C   0  0  0  0  0  0  0  0  0  0  0  0
    9.8621  -17.2196   20.0874 O   0  0  0  0  0  0  0  0  0  0  0  0
   13.8732  -14.3493   19.2232 C   0  0  0  0  0  0  0  0  0  0  0  0
   13.6598  -15.8553   19.0521 C   0  0  1  0  0  0  0  0  0  0  0  0
   14.9421  -16.5366   19.3707 C   0  0  0  0  0  0  0  0  0  0  0  0
   12.5018  -16.2381   19.9011 C   0  0  2  0  0  0  0  0  0  0  0  0
   11.2897  -15.5221   19.5539 N   0  0  0  0  0  0  0  0  0  0  0  0
   12.7652  -16.2119   21.3501 C   0  0  0  0  0  0  0  0  0  0  0  0
   12.7031  -15.1124   21.9412 O   0  0  0  0  0  0  0  0  0  0  0  0
   13.0795  -17.3643   22.0789 N   0  0  0  0  0  0  0  0  0  0  0  0
   13.3168  -17.2994   23.5603 C   0  0  1  0  0  0  0  0  0  0  0  0
   12.6955  -18.5437   24.0721 C   0  0  0  0  0  0  0  0  0  0  0  0
   12.8190  -18.9174   25.4841 C   0  0  0  0  0  0  0  0  0  0  0  0
   12.1782  -20.1771   25.8813 C   0  0  0  0  0  0  0  0  0  0  0  0
   12.3974  -21.2733   25.2870 O   0  0  0  0  0  0  0  0  0  0  0  0
   14.7933  -17.2330   23.6690 C   0  0  0  0  0  0  0  0  0  0  0  0
   15.4349  -16.6687   24.8047 O   0  0  0  0  0  0  0  0  0  0  0  0
   11.2928  -20.1986   26.9490 O   0  0  0  0  0  0  0  0  0  0  0  0
   15.6030  -17.6491   22.8083 O   0  0  0  0  0  0  0  0  0  0  0  0
  2  1  1  6
  3  2  1  0
  4  5  1  0
  4  2  1  0
  5  6  1  1
  7  5  1  0
  8  7  2  0
 10  9  1  1
 10 12  1  0
 11 10  1  0
 12 14  1  0
 12 13  1  1
 13  7  1  0
 14 16  1  0
 15 14  2  0
 16 17  1  0
 17 18  1  1
 17 22  1  0
 18 19  1  0
 19 20  1  0
 20 24  1  0
 21 20  2  0
 22 25  2  0
 22 23  1  0
M  END
$$$$
