LVE.pdb
     RDKit          3D

 25 24  0  0  1  0  0  0  0  0999 V2000
    7.9062  -11.8467   27.4056 C   0  0  0  0  0  0  0  0  0  0  0  0
    7.1393  -12.0746   26.1262 C   0  0  2  0  0  0  0  0  0  0  0  0
    5.8170  -11.2915   26.1575 C   0  0  0  0  0  0  0  0  0  0  0  0
    6.8408  -13.5050   25.8812 C   0  0  0  0  0  0  0  0  0  0  0  0
    7.9157  -14.3362   25.2858 C   0  0  2  0  0  0  0  0  0  0  0  0
    9.1858  -13.7026   25.2004 N   0  0  0  0  0  0  0  0  0  0  0  0
    7.5128  -14.9689   23.9935 C   0  0  0  0  0  0  0  0  0  0  0  0
    6.4438  -15.6287   23.9196 O   0  0  0  0  0  0  0  0  0  0  0  0
    7.1454  -13.2959   20.8547 C   0  0  0  0  0  0  0  0  0  0  0  0
    8.0230  -14.4823   20.4483 C   0  0  1  0  0  0  0  0  0  0  0  0
    9.3648  -13.9542   20.0867 C   0  0  0  0  0  0  0  0  0  0  0  0
    7.9981  -15.4567   21.5699 C   0  0  2  0  0  0  0  0  0  0  0  0
    8.3012  -14.8473   22.8502 N   0  0  0  0  0  0  0  0  0  0  0  0
    8.7834  -16.6814   21.3393 C   0  0  0  0  0  0  0  0  0  0  0  0
    8.5557  -17.3417   20.3028 O   0  0  0  0  0  0  0  0  0  0  0  0
    9.7648  -17.1254   22.2322 N   0  0  0  0  0  0  0  0  0  0  0  0
   10.5841  -18.3478   21.9327 C   0  0  1  0  0  0  0  0  0  0  0  0
   11.9436  -17.8104   21.6889 C   0  0  0  0  0  0  0  0  0  0  0  0
   13.0872  -18.7121   21.5217 C   0  0  0  0  0  0  0  0  0  0  0  0
   14.3912  -18.0740   21.3036 C   0  0  0  0  0  0  0  0  0  0  0  0
   14.6038  -17.2569   20.3601 O   0  0  0  0  0  0  0  0  0  0  0  0
   10.4340  -19.1702   23.1564 C   0  0  0  0  0  0  0  0  0  0  0  0
   10.8082  -20.5410   23.1866 O   0  0  0  0  0  0  0  0  0  0  0  0
   15.4525  -18.3569   22.1510 O   0  0  0  0  0  0  0  0  0  0  0  0
    9.9799  -18.7646   24.2512 O   0  0  0  0  0  0  0  0  0  0  0  0
  2  1  1  1
  3  2  1  0
  4  5  1  0
  4  2  1  0
  5  6  1  6
  7  5  1  0
  8  7  2  0
 10  9  1  1
 10 12  1  0
 11 10  1  0
 12 14  1  0
 12 13  1  1
 13  7  1  0
 14 16  1  0
 15 14  2  0
 16 17  1  0
 17 18  1  1
 17 22  1  0
 18 19  1  0
 19 20  1  0
 20 24  1  0
 21 20  2  0
 22 25  2  0
 22 23  1  0
M  END
$$$$
