LVE.pdb
     RDKit          3D

 25 24  0  0  1  0  0  0  0  0999 V2000
    5.4081  -19.9731   18.2695 C   0  0  0  0  0  0  0  0  0  0  0  0
    6.8976  -20.1370   18.0911 C   0  0  2  0  0  0  0  0  0  0  0  0
    7.3246  -21.5558   18.5002 C   0  0  0  0  0  0  0  0  0  0  0  0
    7.6826  -19.1571   18.8778 C   0  0  0  0  0  0  0  0  0  0  0  0
    7.7929  -17.7789   18.3399 C   0  0  2  0  0  0  0  0  0  0  0  0
    8.1123  -17.6990   16.9565 N   0  0  0  0  0  0  0  0  0  0  0  0
    8.6670  -16.8984   19.1725 C   0  0  0  0  0  0  0  0  0  0  0  0
    9.8787  -16.7437   18.8702 O   0  0  0  0  0  0  0  0  0  0  0  0
    7.4339  -13.4961   20.7331 C   0  0  0  0  0  0  0  0  0  0  0  0
    8.1147  -14.3274   21.8230 C   0  0  1  0  0  0  0  0  0  0  0  0
    7.0554  -14.8542   22.7233 C   0  0  0  0  0  0  0  0  0  0  0  0
    8.9471  -15.3535   21.1429 C   0  0  2  0  0  0  0  0  0  0  0  0
    8.1697  -16.2340   20.2926 N   0  0  0  0  0  0  0  0  0  0  0  0
    9.8534  -16.0999   22.0324 C   0  0  0  0  0  0  0  0  0  0  0  0
    9.4480  -17.1780   22.5176 O   0  0  0  0  0  0  0  0  0  0  0  0
   11.1388  -15.6470   22.3490 N   0  0  0  0  0  0  0  0  0  0  0  0
   12.1031  -16.5230   23.0960 C   0  0  1  0  0  0  0  0  0  0  0  0
   13.4329  -16.0043   22.6970 C   0  0  0  0  0  0  0  0  0  0  0  0
   14.6587  -16.5546   23.2829 C   0  0  0  0  0  0  0  0  0  0  0  0
   15.9239  -16.0486   22.7365 C   0  0  0  0  0  0  0  0  0  0  0  0
   16.5266  -16.6091   21.7745 O   0  0  0  0  0  0  0  0  0  0  0  0
   11.7346  -16.3074   24.5151 C   0  0  0  0  0  0  0  0  0  0  0  0
   12.0342  -17.2671   25.5196 O   0  0  0  0  0  0  0  0  0  0  0  0
   16.5060  -14.9102   23.2747 O   0  0  0  0  0  0  0  0  0  0  0  0
   11.1438  -15.2986   24.9654 O   0  0  0  0  0  0  0  0  0  0  0  0
  2  1  1  1
  3  2  1  0
  4  5  1  0
  4  2  1  0
  5  6  1  6
  7  5  1  0
  8  7  2  0
 10  9  1  6
 10 12  1  0
 11 10  1  0
 12 14  1  0
 12 13  1  1
 13  7  1  0
 14 16  1  0
 15 14  2  0
 16 17  1  0
 17 18  1  1
 17 22  1  0
 18 19  1  0
 19 20  1  0
 20 24  1  0
 21 20  2  0
 22 25  2  0
 22 23  1  0
M  END
$$$$
