LVE.pdb
     RDKit          3D

 25 24  0  0  1  0  0  0  0  0999 V2000
    7.8410  -14.5772   18.5395 C   0  0  0  0  0  0  0  0  0  0  0  0
    7.2850  -13.5179   19.4593 C   0  0  2  0  0  0  0  0  0  0  0  0
    7.3407  -12.1429   18.7745 C   0  0  0  0  0  0  0  0  0  0  0  0
    8.0095  -13.4380   20.7493 C   0  0  0  0  0  0  0  0  0  0  0  0
    7.9371  -14.6154   21.6490 C   0  0  2  0  0  0  0  0  0  0  0  0
    6.6529  -15.2186   21.7448 N   0  0  0  0  0  0  0  0  0  0  0  0
    8.5417  -14.3593   22.9911 C   0  0  0  0  0  0  0  0  0  0  0  0
    9.7755  -14.1349   23.0955 O   0  0  0  0  0  0  0  0  0  0  0  0
    6.0685  -14.0683   26.5130 C   0  0  0  0  0  0  0  0  0  0  0  0
    7.3486  -13.2593   26.2906 C   0  0  1  0  0  0  0  0  0  0  0  0
    7.8620  -12.8429   27.6222 C   0  0  0  0  0  0  0  0  0  0  0  0
    8.2695  -14.1001   25.4824 C   0  0  2  0  0  0  0  0  0  0  0  0
    7.7650  -14.3634   24.1487 N   0  0  0  0  0  0  0  0  0  0  0  0
    8.7309  -15.3279   26.1528 C   0  0  0  0  0  0  0  0  0  0  0  0
    7.9165  -16.2657   26.2917 O   0  0  0  0  0  0  0  0  0  0  0  0
   10.0360  -15.4774   26.6343 N   0  0  0  0  0  0  0  0  0  0  0  0
   10.5116  -16.7940   27.1779 C   0  0  1  0  0  0  0  0  0  0  0  0
   11.8812  -16.9289   26.6279 C   0  0  0  0  0  0  0  0  0  0  0  0
   12.1060  -16.9784   25.1802 C   0  0  0  0  0  0  0  0  0  0  0  0
   13.5023  -17.1000   24.7434 C   0  0  0  0  0  0  0  0  0  0  0  0
   14.4742  -17.1142   25.5546 O   0  0  0  0  0  0  0  0  0  0  0  0
   10.4298  -16.6092   28.6461 C   0  0  0  0  0  0  0  0  0  0  0  0
   10.2415  -15.3267   29.2289 O   0  0  0  0  0  0  0  0  0  0  0  0
   13.7998  -17.2074   23.3927 O   0  0  0  0  0  0  0  0  0  0  0  0
   10.5144  -17.5241   29.4976 O   0  0  0  0  0  0  0  0  0  0  0  0
  2  1  1  6
  3  2  1  0
  4  5  1  0
  4  2  1  0
  5  6  1  1
  7  5  1  0
  8  7  2  0
 10  9  1  1
 10 12  1  0
 11 10  1  0
 12 14  1  0
 12 13  1  6
 13  7  1  0
 14 16  1  0
 15 14  2  0
 16 17  1  0
 17 18  1  1
 17 22  1  0
 18 19  1  0
 19 20  1  0
 20 24  1  0
 21 20  2  0
 22 25  2  0
 22 23  1  0
M  END
$$$$
