LVE.pdb
     RDKit          3D

 25 24  0  0  1  0  0  0  0  0999 V2000
    4.3149  -16.8890   21.3192 C   0  0  0  0  0  0  0  0  0  0  0  0
    5.6395  -17.6028   21.4345 C   0  0  2  0  0  0  0  0  0  0  0  0
    5.4203  -19.0469   21.9131 C   0  0  0  0  0  0  0  0  0  0  0  0
    6.5770  -16.9295   22.3635 C   0  0  0  0  0  0  0  0  0  0  0  0
    6.7500  -15.4633   22.2178 C   0  0  2  0  0  0  0  0  0  0  0  0
    7.0660  -15.0247   20.9025 N   0  0  0  0  0  0  0  0  0  0  0  0
    7.6691  -14.8818   23.2423 C   0  0  0  0  0  0  0  0  0  0  0  0
    8.9087  -14.8427   23.0292 O   0  0  0  0  0  0  0  0  0  0  0  0
    7.0490  -11.6517   25.4152 C   0  0  0  0  0  0  0  0  0  0  0  0
    7.3373  -12.8358   26.3412 C   0  0  1  0  0  0  0  0  0  0  0  0
    6.0545  -13.2444   26.9718 C   0  0  0  0  0  0  0  0  0  0  0  0
    8.0135  -13.8799   25.5282 C   0  0  2  0  0  0  0  0  0  0  0  0
    7.1838  -14.3745   24.4467 N   0  0  0  0  0  0  0  0  0  0  0  0
    8.6167  -14.9736   26.3088 C   0  0  0  0  0  0  0  0  0  0  0  0
    7.8794  -15.9149   26.6728 O   0  0  0  0  0  0  0  0  0  0  0  0
    9.9727  -14.9936   26.6530 N   0  0  0  0  0  0  0  0  0  0  0  0
   10.5680  -16.1677   27.3757 C   0  0  1  0  0  0  0  0  0  0  0  0
   11.9359  -16.2709   26.8146 C   0  0  0  0  0  0  0  0  0  0  0  0
   12.1467  -16.3738   25.3676 C   0  0  0  0  0  0  0  0  0  0  0  0
   13.5424  -16.4445   24.9179 C   0  0  0  0  0  0  0  0  0  0  0  0
   14.3511  -15.4783   25.0420 O   0  0  0  0  0  0  0  0  0  0  0  0
   10.4923  -15.7682   28.8008 C   0  0  0  0  0  0  0  0  0  0  0  0
   10.7605  -16.6881   29.8505 O   0  0  0  0  0  0  0  0  0  0  0  0
   14.0242  -17.6054   24.3308 O   0  0  0  0  0  0  0  0  0  0  0  0
   10.1959  -14.6249   29.2184 O   0  0  0  0  0  0  0  0  0  0  0  0
  2  1  1  1
  3  2  1  0
  4  5  1  0
  4  2  1  0
  5  6  1  6
  7  5  1  0
  8  7  2  0
 10  9  1  6
 10 12  1  0
 11 10  1  0
 12 14  1  0
 12 13  1  6
 13  7  1  0
 14 16  1  0
 15 14  2  0
 16 17  1  0
 17 18  1  6
 17 22  1  0
 18 19  1  0
 19 20  1  0
 20 24  1  0
 21 20  2  0
 22 25  2  0
 22 23  1  0
M  END
$$$$
