LVE.pdb
     RDKit          3D

 25 24  0  0  1  0  0  0  0  0999 V2000
    5.3581  -12.3298   26.2303 C   0  0  0  0  0  0  0  0  0  0  0  0
    6.4210  -12.9720   27.0875 C   0  0  2  0  0  0  0  0  0  0  0  0
    7.3838  -11.9008   27.6243 C   0  0  0  0  0  0  0  0  0  0  0  0
    7.2054  -13.9970   26.3600 C   0  0  0  0  0  0  0  0  0  0  0  0
    6.4512  -15.0324   25.6118 C   0  0  2  0  0  0  0  0  0  0  0  0
    5.7037  -15.9317   26.4209 N   0  0  0  0  0  0  0  0  0  0  0  0
    7.2896  -15.7461   24.6018 C   0  0  0  0  0  0  0  0  0  0  0  0
    7.7448  -16.8917   24.8549 O   0  0  0  0  0  0  0  0  0  0  0  0
    6.9002  -15.0516   20.6733 C   0  0  0  0  0  0  0  0  0  0  0  0
    8.3816  -15.0785   21.0573 C   0  0  1  0  0  0  0  0  0  0  0  0
    8.8940  -13.6843   20.9956 C   0  0  0  0  0  0  0  0  0  0  0  0
    8.4839  -15.7414   22.3833 C   0  0  2  0  0  0  0  0  0  0  0  0
    7.5870  -15.1686   23.3683 N   0  0  0  0  0  0  0  0  0  0  0  0
    9.8569  -15.8800   22.8983 C   0  0  0  0  0  0  0  0  0  0  0  0
   10.3540  -14.9161   23.5196 O   0  0  0  0  0  0  0  0  0  0  0  0
   10.6150  -17.0419   22.7169 N   0  0  0  0  0  0  0  0  0  0  0  0
   12.0070  -17.1490   23.2701 C   0  0  1  0  0  0  0  0  0  0  0  0
   11.9815  -18.4101   24.0481 C   0  0  0  0  0  0  0  0  0  0  0  0
   12.3599  -18.4250   25.4642 C   0  0  0  0  0  0  0  0  0  0  0  0
   11.3325  -18.8855   26.4064 C   0  0  0  0  0  0  0  0  0  0  0  0
   10.2206  -19.3590   26.0287 O   0  0  0  0  0  0  0  0  0  0  0  0
   12.8584  -17.1656   22.0572 C   0  0  0  0  0  0  0  0  0  0  0  0
   14.2656  -16.9803   22.1287 O   0  0  0  0  0  0  0  0  0  0  0  0
   11.5615  -18.8129   27.7727 O   0  0  0  0  0  0  0  0  0  0  0  0
   12.4482  -17.3373   20.8860 O   0  0  0  0  0  0  0  0  0  0  0  0
  2  1  1  6
  3  2  1  0
  4  5  1  0
  4  2  1  0
  5  6  1  1
  7  5  1  0
  8  7  2  0
 10  9  1  1
 10 12  1  0
 11 10  1  0
 12 14  1  0
 12 13  1  1
 13  7  1  0
 14 16  1  0
 15 14  2  0
 16 17  1  0
 17 18  1  6
 17 22  1  0
 18 19  1  0
 19 20  1  0
 20 24  1  0
 21 20  2  0
 22 25  2  0
 22 23  1  0
M  END
$$$$
