LVE.pdb
     RDKit          3D

 25 24  0  0  1  0  0  0  0  0999 V2000
    5.3981  -12.0050   26.0218 C   0  0  0  0  0  0  0  0  0  0  0  0
    6.3314  -12.6685   27.0046 C   0  0  2  0  0  0  0  0  0  0  0  0
    7.3178  -11.6364   27.5741 C   0  0  0  0  0  0  0  0  0  0  0  0
    7.1010  -13.7834   26.4046 C   0  0  0  0  0  0  0  0  0  0  0  0
    6.3520  -14.7717   25.5903 C   0  0  2  0  0  0  0  0  0  0  0  0
    5.5055  -15.6411   26.3318 N   0  0  0  0  0  0  0  0  0  0  0  0
    7.2241  -15.5156   24.6319 C   0  0  0  0  0  0  0  0  0  0  0  0
    7.7896  -16.5814   24.9893 O   0  0  0  0  0  0  0  0  0  0  0  0
    6.7331  -15.2580   20.6130 C   0  0  0  0  0  0  0  0  0  0  0  0
    8.2017  -15.0954   21.0123 C   0  0  1  0  0  0  0  0  0  0  0  0
    8.5604  -13.6611   20.8563 C   0  0  0  0  0  0  0  0  0  0  0  0
    8.3523  -15.6488   22.3831 C   0  0  2  0  0  0  0  0  0  0  0  0
    7.4327  -15.0537   23.3333 N   0  0  0  0  0  0  0  0  0  0  0  0
    9.7352  -15.6712   22.8898 C   0  0  0  0  0  0  0  0  0  0  0  0
   10.1629  -14.6571   23.4822 O   0  0  0  0  0  0  0  0  0  0  0  0
   10.5769  -16.7776   22.7315 N   0  0  0  0  0  0  0  0  0  0  0  0
   11.9053  -16.8423   23.4287 C   0  0  1  0  0  0  0  0  0  0  0  0
   11.7229  -17.9129   24.4371 C   0  0  0  0  0  0  0  0  0  0  0  0
   12.8548  -18.3899   25.2371 C   0  0  0  0  0  0  0  0  0  0  0  0
   12.5327  -19.3108   26.3341 C   0  0  0  0  0  0  0  0  0  0  0  0
   13.4133  -19.7842   27.1110 O   0  0  0  0  0  0  0  0  0  0  0  0
   12.8535  -17.1537   22.3331 C   0  0  0  0  0  0  0  0  0  0  0  0
   12.4570  -17.9006   21.1908 O   0  0  0  0  0  0  0  0  0  0  0  0
   11.2180  -19.6947   26.5543 O   0  0  0  0  0  0  0  0  0  0  0  0
   14.0569  -16.8076   22.2957 O   0  0  0  0  0  0  0  0  0  0  0  0
  2  1  1  6
  3  2  1  0
  4  5  1  0
  4  2  1  0
  5  6  1  1
  7  5  1  0
  8  7  2  0
 10  9  1  1
 10 12  1  0
 11 10  1  0
 12 14  1  0
 12 13  1  1
 13  7  1  0
 14 16  1  0
 15 14  2  0
 16 17  1  0
 17 18  1  1
 17 22  1  0
 18 19  1  0
 19 20  1  0
 20 24  1  0
 21 20  2  0
 22 25  2  0
 22 23  1  0
M  END
$$$$
