LVE.pdb
     RDKit          3D

 25 24  0  0  1  0  0  0  0  0999 V2000
    7.8292  -14.8754   18.5099 C   0  0  0  0  0  0  0  0  0  0  0  0
    7.2984  -13.7016   19.2958 C   0  0  2  0  0  0  0  0  0  0  0  0
    7.4468  -12.4088   18.4776 C   0  0  0  0  0  0  0  0  0  0  0  0
    7.9834  -13.5236   20.5975 C   0  0  0  0  0  0  0  0  0  0  0  0
    7.8502  -14.6130   21.5956 C   0  0  2  0  0  0  0  0  0  0  0  0
    6.5618  -15.2111   21.6619 N   0  0  0  0  0  0  0  0  0  0  0  0
    8.3649  -14.2309   22.9452 C   0  0  0  0  0  0  0  0  0  0  0  0
    9.5593  -13.8595   23.0837 O   0  0  0  0  0  0  0  0  0  0  0  0
    7.5724  -12.9604   27.5875 C   0  0  0  0  0  0  0  0  0  0  0  0
    6.9445  -13.3054   26.2349 C   0  0  1  0  0  0  0  0  0  0  0  0
    6.3981  -12.0513   25.6528 C   0  0  0  0  0  0  0  0  0  0  0  0
    7.9859  -13.9883   25.4242 C   0  0  2  0  0  0  0  0  0  0  0  0
    7.5463  -14.2762   24.0727 N   0  0  0  0  0  0  0  0  0  0  0  0
    8.5975  -15.1624   26.0699 C   0  0  0  0  0  0  0  0  0  0  0  0
    7.8771  -16.1617   26.2810 O   0  0  0  0  0  0  0  0  0  0  0  0
    9.9434  -15.1958   26.4511 N   0  0  0  0  0  0  0  0  0  0  0  0
   10.6119  -16.4920   26.8090 C   0  0  1  0  0  0  0  0  0  0  0  0
   11.9217  -16.4157   26.1198 C   0  0  0  0  0  0  0  0  0  0  0  0
   12.9459  -17.4407   26.3411 C   0  0  0  0  0  0  0  0  0  0  0  0
   14.2529  -17.1983   25.7179 C   0  0  0  0  0  0  0  0  0  0  0  0
   14.5110  -16.1512   25.0546 O   0  0  0  0  0  0  0  0  0  0  0  0
   10.6674  -16.4525   28.2894 C   0  0  0  0  0  0  0  0  0  0  0  0
   10.8858  -17.6258   29.0611 O   0  0  0  0  0  0  0  0  0  0  0  0
   15.2670  -18.1362   25.8454 O   0  0  0  0  0  0  0  0  0  0  0  0
   10.5336  -15.4244   28.9926 O   0  0  0  0  0  0  0  0  0  0  0  0
  2  1  1  6
  3  2  1  0
  4  5  1  0
  4  2  1  0
  5  6  1  1
  7  5  1  0
  8  7  2  0
 10  9  1  1
 10 12  1  0
 11 10  1  0
 12 14  1  0
 12 13  1  6
 13  7  1  0
 14 16  1  0
 15 14  2  0
 16 17  1  0
 17 18  1  6
 17 22  1  0
 18 19  1  0
 19 20  1  0
 20 24  1  0
 21 20  2  0
 22 25  2  0
 22 23  1  0
M  END
$$$$
