LVE.pdb
     RDKit          3D

 25 24  0  0  1  0  0  0  0  0999 V2000
    8.1109  -14.6132   18.4264 C   0  0  0  0  0  0  0  0  0  0  0  0
    7.2945  -13.6493   19.2519 C   0  0  2  0  0  0  0  0  0  0  0  0
    7.1949  -12.2937   18.5342 C   0  0  0  0  0  0  0  0  0  0  0  0
    7.8560  -13.4322   20.6057 C   0  0  0  0  0  0  0  0  0  0  0  0
    7.8875  -14.5938   21.5279 C   0  0  2  0  0  0  0  0  0  0  0  0
    6.6862  -15.3532   21.5769 N   0  0  0  0  0  0  0  0  0  0  0  0
    8.3877  -14.2406   22.8908 C   0  0  0  0  0  0  0  0  0  0  0  0
    9.5379  -13.7506   23.0340 O   0  0  0  0  0  0  0  0  0  0  0  0
    7.5944  -13.2659   27.5908 C   0  0  0  0  0  0  0  0  0  0  0  0
    6.9924  -13.5222   26.2071 C   0  0  1  0  0  0  0  0  0  0  0  0
    6.4899  -12.2257   25.6812 C   0  0  0  0  0  0  0  0  0  0  0  0
    8.0373  -14.1861   25.3852 C   0  0  2  0  0  0  0  0  0  0  0  0
    7.6036  -14.4428   24.0256 N   0  0  0  0  0  0  0  0  0  0  0  0
    8.6465  -15.3748   26.0062 C   0  0  0  0  0  0  0  0  0  0  0  0
    7.9285  -16.3829   26.1802 O   0  0  0  0  0  0  0  0  0  0  0  0
    9.9875  -15.4124   26.4038 N   0  0  0  0  0  0  0  0  0  0  0  0
   10.6252  -16.6980   26.8462 C   0  0  1  0  0  0  0  0  0  0  0  0
   11.9288  -16.7062   26.1412 C   0  0  0  0  0  0  0  0  0  0  0  0
   12.6292  -17.9662   25.8754 C   0  0  0  0  0  0  0  0  0  0  0  0
   13.9266  -17.8576   25.1970 C   0  0  0  0  0  0  0  0  0  0  0  0
   14.4412  -16.7455   24.8785 O   0  0  0  0  0  0  0  0  0  0  0  0
   10.6984  -16.5558   28.3196 C   0  0  0  0  0  0  0  0  0  0  0  0
   10.8665  -17.6806   29.1719 O   0  0  0  0  0  0  0  0  0  0  0  0
   14.6422  -19.0032   24.8809 O   0  0  0  0  0  0  0  0  0  0  0  0
   10.6231  -15.4748   28.9481 O   0  0  0  0  0  0  0  0  0  0  0  0
  2  1  1  6
  3  2  1  0
  4  5  1  0
  4  2  1  0
  5  6  1  1
  7  5  1  0
  8  7  2  0
 10  9  1  1
 10 12  1  0
 11 10  1  0
 12 14  1  0
 12 13  1  6
 13  7  1  0
 14 16  1  0
 15 14  2  0
 16 17  1  0
 17 18  1  6
 17 22  1  0
 18 19  1  0
 19 20  1  0
 20 24  1  0
 21 20  2  0
 22 25  2  0
 22 23  1  0
M  END
$$$$
