LVE.pdb
     RDKit          3D

 25 24  0  0  1  0  0  0  0  0999 V2000
    5.4680  -14.7714   19.6301 C   0  0  0  0  0  0  0  0  0  0  0  0
    6.8479  -15.3780   19.6991 C   0  0  2  0  0  0  0  0  0  0  0  0
    6.7735  -16.8894   19.4297 C   0  0  0  0  0  0  0  0  0  0  0  0
    7.5082  -15.1586   21.0073 C   0  0  0  0  0  0  0  0  0  0  0  0
    7.5372  -13.7725   21.5353 C   0  0  2  0  0  0  0  0  0  0  0  0
    8.0103  -12.7921   20.6204 N   0  0  0  0  0  0  0  0  0  0  0  0
    8.2075  -13.6717   22.8669 C   0  0  0  0  0  0  0  0  0  0  0  0
    9.4507  -13.4897   22.9358 O   0  0  0  0  0  0  0  0  0  0  0  0
    7.1054  -11.6784   26.0572 C   0  0  0  0  0  0  0  0  0  0  0  0
    7.2034  -13.1658   26.4045 C   0  0  1  0  0  0  0  0  0  0  0  0
    5.8208  -13.7033   26.5024 C   0  0  0  0  0  0  0  0  0  0  0  0
    8.0688  -13.8044   25.3790 C   0  0  2  0  0  0  0  0  0  0  0  0
    7.4826  -13.7763   24.0530 N   0  0  0  0  0  0  0  0  0  0  0  0
    8.5631  -15.1446   25.7382 C   0  0  0  0  0  0  0  0  0  0  0  0
    7.8416  -16.1301   25.4729 O   0  0  0  0  0  0  0  0  0  0  0  0
    9.7997  -15.3490   26.3600 N   0  0  0  0  0  0  0  0  0  0  0  0
   10.2952  -16.7356   26.6548 C   0  0  1  0  0  0  0  0  0  0  0  0
   11.6653  -16.7484   26.0899 C   0  0  0  0  0  0  0  0  0  0  0  0
   11.8779  -16.7775   24.6398 C   0  0  0  0  0  0  0  0  0  0  0  0
   13.2586  -16.5798   24.1816 C   0  0  0  0  0  0  0  0  0  0  0  0
   14.2208  -16.3728   24.9781 O   0  0  0  0  0  0  0  0  0  0  0  0
   10.2140  -16.8226   28.1320 C   0  0  0  0  0  0  0  0  0  0  0  0
   10.3792  -18.0559   28.8187 O   0  0  0  0  0  0  0  0  0  0  0  0
   13.5520  -16.6179   22.8263 O   0  0  0  0  0  0  0  0  0  0  0  0
   10.0000  -15.8595   28.9041 O   0  0  0  0  0  0  0  0  0  0  0  0
  2  1  1  1
  3  2  1  0
  4  5  1  0
  4  2  1  0
  5  6  1  6
  7  5  1  0
  8  7  2  0
 10  9  1  6
 10 12  1  0
 11 10  1  0
 12 14  1  0
 12 13  1  6
 13  7  1  0
 14 16  1  0
 15 14  2  0
 16 17  1  0
 17 18  1  1
 17 22  1  0
 18 19  1  0
 19 20  1  0
 20 24  1  0
 21 20  2  0
 22 25  2  0
 22 23  1  0
M  END
$$$$
