LLD.pdb
     RDKit          3D

 25 24  0  0  1  0  0  0  0  0999 V2000
   18.0815  -26.1398  -11.0286 C   0  0  0  0  0  0  0  0  0  0  0  0
   17.2838  -24.8921  -10.6616 C   0  0  2  0  0  0  0  0  0  0  0  0
   16.0246  -24.8899  -11.4986 C   0  0  0  0  0  0  0  0  0  0  0  0
   18.1106  -23.6565  -10.9296 C   0  0  0  0  0  0  0  0  0  0  0  0
   19.4471  -23.6487  -10.2717 C   0  0  2  0  0  0  0  0  0  0  0  0
   19.1898  -23.5026   -8.8276 N   0  0  0  0  0  0  0  0  0  0  0  0
   20.3505  -22.5559  -10.7342 C   0  0  0  0  0  0  0  0  0  0  0  0
   20.1936  -21.3823  -10.2756 O   0  0  0  0  0  0  0  0  0  0  0  0
   26.1229  -22.0782  -12.1582 C   0  0  0  0  0  0  0  0  0  0  0  0
   24.8129  -21.4123  -12.2636 C   0  0  2  0  0  0  0  0  0  0  0  0
   24.8826  -20.1120  -11.4216 C   0  0  0  0  0  0  0  0  0  0  0  0
   23.5990  -22.1022  -11.8424 C   0  0  0  0  0  0  0  0  0  0  0  0
   22.2428  -21.6077  -12.1127 C   0  0  2  0  0  0  0  0  0  0  0  0
   21.3795  -22.7480  -11.6592 N   0  0  0  0  0  0  0  0  0  0  0  0
   21.8221  -21.2121  -13.4390 C   0  0  0  0  0  0  0  0  0  0  0  0
   21.4988  -22.1518  -14.2881 O   0  0  0  0  0  0  0  0  0  0  0  0
   21.7003  -19.9027  -13.9458 N   0  0  0  0  0  0  0  0  0  0  0  0
   21.2083  -19.6743  -15.3241 C   0  0  1  0  0  0  0  0  0  0  0  0
   20.0756  -18.6645  -15.2630 C   0  0  0  0  0  0  0  0  0  0  0  0
   18.8062  -19.3566  -14.9946 C   0  0  0  0  0  0  0  0  0  0  0  0
   18.6255  -20.5999  -14.9845 O   0  0  0  0  0  0  0  0  0  0  0  0
   22.3014  -19.0815  -16.1087 C   0  0  0  0  0  0  0  0  0  0  0  0
   22.4508  -19.1635  -17.4844 O   0  0  0  0  0  0  0  0  0  0  0  0
   17.6685  -18.5741  -14.7195 O   0  0  0  0  0  0  0  0  0  0  0  0
   23.2038  -18.4345  -15.5192 O   0  0  0  0  0  0  0  0  0  0  0  0
  2  1  1  6
  2  3  1  0
  4  5  1  0
  4  2  1  0
  5  6  1  1
  5  7  1  0
  7  8  2  0
 10  9  1  1
 11 10  1  0
 12 10  1  0
 13 12  1  6
 14  7  1  0
 14 13  1  0
 15 13  1  0
 15 16  2  0
 17 15  1  0
 18 17  1  0
 18 22  1  0
 18 19  1  1
 20 24  1  0
 20 19  1  0
 21 20  2  0
 22 23  1  0
 25 22  2  0
M  END
$$$$
