LLD.pdb
     RDKit          3D

 25 24  0  0  1  0  0  0  0  0999 V2000
   25.8107  -18.1492  -18.7780 C   0  0  0  0  0  0  0  0  0  0  0  0
   26.6259  -19.1525  -17.9676 C   0  0  2  0  0  0  0  0  0  0  0  0
   27.4084  -20.0024  -18.9430 C   0  0  0  0  0  0  0  0  0  0  0  0
   25.7036  -20.0061  -17.1291 C   0  0  0  0  0  0  0  0  0  0  0  0
   24.7786  -19.2401  -16.2478 C   0  0  2  0  0  0  0  0  0  0  0  0
   25.6150  -18.2582  -15.5343 N   0  0  0  0  0  0  0  0  0  0  0  0
   24.0373  -20.0790  -15.2624 C   0  0  0  0  0  0  0  0  0  0  0  0
   23.4454  -21.1297  -15.6598 O   0  0  0  0  0  0  0  0  0  0  0  0
   25.6677  -22.5372  -11.8693 C   0  0  0  0  0  0  0  0  0  0  0  0
   25.3964  -21.1068  -11.6431 C   0  0  2  0  0  0  0  0  0  0  0  0
   25.8943  -20.7585  -10.2164 C   0  0  0  0  0  0  0  0  0  0  0  0
   24.0352  -20.5911  -11.7334 C   0  0  0  0  0  0  0  0  0  0  0  0
   23.2128  -20.6648  -12.9478 C   0  0  2  0  0  0  0  0  0  0  0  0
   23.9526  -19.7738  -13.9019 N   0  0  0  0  0  0  0  0  0  0  0  0
   21.8171  -20.2839  -12.9519 C   0  0  0  0  0  0  0  0  0  0  0  0
   21.5201  -19.0368  -13.2071 O   0  0  0  0  0  0  0  0  0  0  0  0
   20.7008  -21.1125  -12.7210 N   0  0  0  0  0  0  0  0  0  0  0  0
   19.3404  -20.6594  -13.0922 C   0  0  1  0  0  0  0  0  0  0  0  0
   19.3067  -20.4378  -14.5942 C   0  0  0  0  0  0  0  0  0  0  0  0
   17.9432  -20.0817  -15.0140 C   0  0  0  0  0  0  0  0  0  0  0  0
   17.1783  -19.2664  -14.4405 O   0  0  0  0  0  0  0  0  0  0  0  0
   18.3945  -21.7388  -12.7726 C   0  0  0  0  0  0  0  0  0  0  0  0
   17.0317  -21.5901  -12.5672 O   0  0  0  0  0  0  0  0  0  0  0  0
   17.4205  -20.6992  -16.1663 O   0  0  0  0  0  0  0  0  0  0  0  0
   18.8171  -22.9179  -12.6653 O   0  0  0  0  0  0  0  0  0  0  0  0
  2  1  1  6
  2  3  1  0
  4  5  1  0
  4  2  1  0
  5  6  1  1
  5  7  1  0
  7  8  2  0
 10  9  1  1
 11 10  1  0
 12 10  1  0
 13 12  1  1
 14  7  1  0
 14 13  1  0
 15 13  1  0
 15 16  2  0
 17 15  1  0
 18 17  1  0
 18 22  1  0
 18 19  1  6
 20 24  1  0
 20 19  1  0
 21 20  2  0
 22 23  1  0
 25 22  2  0
M  END
$$$$
