LLD.pdb
     RDKit          3D

 25 24  0  0  1  0  0  0  0  0999 V2000
   15.2063  -11.9486  -16.0742 C   0  0  0  0  0  0  0  0  0  0  0  0
   14.5525  -12.2417  -14.7271 C   0  0  2  0  0  0  0  0  0  0  0  0
   13.1953  -12.8502  -14.9985 C   0  0  0  0  0  0  0  0  0  0  0  0
   14.4206  -10.9644  -13.9313 C   0  0  0  0  0  0  0  0  0  0  0  0
   15.7066  -10.2589  -13.6715 C   0  0  2  0  0  0  0  0  0  0  0  0
   16.4906  -11.1493  -12.7967 N   0  0  0  0  0  0  0  0  0  0  0  0
   15.5525   -8.9250  -13.0223 C   0  0  0  0  0  0  0  0  0  0  0  0
   14.8458   -8.0349  -13.5885 O   0  0  0  0  0  0  0  0  0  0  0  0
   15.8011   -6.7811   -7.3455 C   0  0  0  0  0  0  0  0  0  0  0  0
   15.5882   -6.4783   -8.7716 C   0  0  2  0  0  0  0  0  0  0  0  0
   14.1170   -6.0163   -8.9348 C   0  0  0  0  0  0  0  0  0  0  0  0
   15.8040   -7.5059   -9.7838 C   0  0  0  0  0  0  0  0  0  0  0  0
   15.9911   -7.2191  -11.2119 C   0  0  2  0  0  0  0  0  0  0  0  0
   16.1496   -8.5881  -11.8053 N   0  0  0  0  0  0  0  0  0  0  0  0
   17.0708   -6.3833  -11.6902 C   0  0  0  0  0  0  0  0  0  0  0  0
   17.0217   -5.1039  -11.4273 O   0  0  0  0  0  0  0  0  0  0  0  0
   18.2104   -6.7852  -12.4153 N   0  0  0  0  0  0  0  0  0  0  0  0
   19.2120   -5.7857  -12.8534 C   0  0  1  0  0  0  0  0  0  0  0  0
   20.5824   -6.2548  -12.3971 C   0  0  0  0  0  0  0  0  0  0  0  0
   21.6159   -5.3414  -12.9067 C   0  0  0  0  0  0  0  0  0  0  0  0
   21.4696   -4.1186  -13.1556 O   0  0  0  0  0  0  0  0  0  0  0  0
   19.2118   -5.7506  -14.3233 C   0  0  0  0  0  0  0  0  0  0  0  0
   19.8790   -4.8277  -15.1137 O   0  0  0  0  0  0  0  0  0  0  0  0
   22.9020   -5.8616  -13.1472 O   0  0  0  0  0  0  0  0  0  0  0  0
   18.5603   -6.6159  -14.9613 O   0  0  0  0  0  0  0  0  0  0  0  0
  2  1  1  6
  2  3  1  0
  4  5  1  0
  4  2  1  0
  5  6  1  1
  5  7  1  0
  7  8  2  0
 10  9  1  1
 11 10  1  0
 12 10  1  0
 13 12  1  1
 14  7  1  0
 14 13  1  0
 15 13  1  0
 15 16  2  0
 17 15  1  0
 18 17  1  0
 18 22  1  0
 18 19  1  6
 20 24  1  0
 20 19  1  0
 21 20  2  0
 22 23  1  0
 25 22  2  0
M  END
$$$$
