LLD.pdb
     RDKit          3D

 25 24  0  0  1  0  0  0  0  0999 V2000
   29.3231  -17.9108  -16.7445 C   0  0  0  0  0  0  0  0  0  0  0  0
   28.3772  -18.5981  -17.7248 C   0  0  2  0  0  0  0  0  0  0  0  0
   27.8099  -17.5343  -18.6373 C   0  0  0  0  0  0  0  0  0  0  0  0
   27.2753  -19.3017  -16.9679 C   0  0  0  0  0  0  0  0  0  0  0  0
   27.7485  -20.2594  -15.9297 C   0  0  2  0  0  0  0  0  0  0  0  0
   28.3291  -21.3998  -16.6613 N   0  0  0  0  0  0  0  0  0  0  0  0
   26.6782  -20.7442  -15.0110 C   0  0  0  0  0  0  0  0  0  0  0  0
   25.8817  -21.6506  -15.4064 O   0  0  0  0  0  0  0  0  0  0  0  0
   25.6143  -20.1365   -8.9918 C   0  0  0  0  0  0  0  0  0  0  0  0
   25.0632  -20.5576  -10.2917 C   0  0  2  0  0  0  0  0  0  0  0  0
   24.6005  -22.0304  -10.1461 C   0  0  0  0  0  0  0  0  0  0  0  0
   25.8890  -20.5101  -11.4929 C   0  0  0  0  0  0  0  0  0  0  0  0
   25.3735  -20.7432  -12.8482 C   0  0  2  0  0  0  0  0  0  0  0  0
   26.4947  -20.2527  -13.7164 N   0  0  0  0  0  0  0  0  0  0  0  0
   24.1394  -20.1471  -13.3112 C   0  0  0  0  0  0  0  0  0  0  0  0
   24.1179  -18.8562  -13.5152 O   0  0  0  0  0  0  0  0  0  0  0  0
   22.9227  -20.8009  -13.5911 N   0  0  0  0  0  0  0  0  0  0  0  0
   21.7160  -20.0198  -13.9482 C   0  0  1  0  0  0  0  0  0  0  0  0
   21.4305  -20.2347  -15.4242 C   0  0  0  0  0  0  0  0  0  0  0  0
   21.3451  -21.6747  -15.7098 C   0  0  0  0  0  0  0  0  0  0  0  0
   21.4146  -22.6046  -14.8678 O   0  0  0  0  0  0  0  0  0  0  0  0
   20.5799  -20.5566  -13.1845 C   0  0  0  0  0  0  0  0  0  0  0  0
   19.2728  -20.0987  -13.2435 O   0  0  0  0  0  0  0  0  0  0  0  0
   21.1686  -22.0770  -17.0475 O   0  0  0  0  0  0  0  0  0  0  0  0
   20.7658  -21.5164  -12.3943 O   0  0  0  0  0  0  0  0  0  0  0  0
  2  1  1  1
  2  3  1  0
  4  5  1  0
  4  2  1  0
  5  6  1  6
  5  7  1  0
  7  8  2  0
 10  9  1  1
 11 10  1  0
 12 10  1  0
 13 12  1  1
 14  7  1  0
 14 13  1  0
 15 13  1  0
 15 16  2  0
 17 15  1  0
 18 17  1  0
 18 22  1  0
 18 19  1  6
 20 24  1  0
 20 19  1  0
 21 20  2  0
 22 23  1  0
 25 22  2  0
M  END
$$$$
