LLD.pdb
     RDKit          3D

 25 24  0  0  1  0  0  0  0  0999 V2000
   16.7491  -10.5599  -20.0495 C   0  0  0  0  0  0  0  0  0  0  0  0
   15.8308  -10.6329  -18.8333 C   0  0  2  0  0  0  0  0  0  0  0  0
   14.6639   -9.7044  -19.0830 C   0  0  0  0  0  0  0  0  0  0  0  0
   16.5884  -10.2237  -17.5920 C   0  0  0  0  0  0  0  0  0  0  0  0
   17.8164  -11.0226  -17.3223 C   0  0  2  0  0  0  0  0  0  0  0  0
   17.3507  -12.3545  -16.8956 N   0  0  0  0  0  0  0  0  0  0  0  0
   18.7063  -10.4424  -16.2755 C   0  0  0  0  0  0  0  0  0  0  0  0
   18.3380  -10.4689  -15.0606 O   0  0  0  0  0  0  0  0  0  0  0  0
   24.4560  -10.7399  -15.0990 C   0  0  0  0  0  0  0  0  0  0  0  0
   23.2371   -9.9700  -14.7951 C   0  0  2  0  0  0  0  0  0  0  0  0
   22.8613  -10.2571  -13.3183 C   0  0  0  0  0  0  0  0  0  0  0  0
   22.0197  -10.1801  -15.5703 C   0  0  0  0  0  0  0  0  0  0  0  0
   20.8242   -9.3345  -15.4586 C   0  0  2  0  0  0  0  0  0  0  0  0
   19.9449   -9.8601  -16.5550 N   0  0  0  0  0  0  0  0  0  0  0  0
   20.8914   -7.8941  -15.5745 C   0  0  0  0  0  0  0  0  0  0  0  0
   21.1401   -7.3821  -16.7511 O   0  0  0  0  0  0  0  0  0  0  0  0
   20.7056   -6.9415  -14.5527 N   0  0  0  0  0  0  0  0  0  0  0  0
   20.8802   -5.4974  -14.8322 C   0  0  1  0  0  0  0  0  0  0  0  0
   19.7076   -4.7500  -14.2219 C   0  0  0  0  0  0  0  0  0  0  0  0
   18.5334   -4.8647  -15.0997 C   0  0  0  0  0  0  0  0  0  0  0  0
   18.5487   -4.9582  -16.3526 O   0  0  0  0  0  0  0  0  0  0  0  0
   22.1059   -5.0449  -14.1578 C   0  0  0  0  0  0  0  0  0  0  0  0
   22.7957   -3.8730  -14.4272 O   0  0  0  0  0  0  0  0  0  0  0  0
   17.2575   -4.8732  -14.5044 O   0  0  0  0  0  0  0  0  0  0  0  0
   22.6085   -5.7543  -13.2498 O   0  0  0  0  0  0  0  0  0  0  0  0
  2  1  1  6
  2  3  1  0
  4  5  1  0
  4  2  1  0
  5  6  1  1
  5  7  1  0
  7  8  2  0
 10  9  1  6
 11 10  1  0
 12 10  1  0
 13 12  1  6
 14  7  1  0
 14 13  1  0
 15 13  1  0
 15 16  2  0
 17 15  1  0
 18 17  1  0
 18 22  1  0
 18 19  1  1
 20 24  1  0
 20 19  1  0
 21 20  2  0
 22 23  1  0
 25 22  2  0
M  END
$$$$
