LLD.pdb
     RDKit          3D

 25 24  0  0  1  0  0  0  0  0999 V2000
   27.2929  -20.4979  -18.5754 C   0  0  0  0  0  0  0  0  0  0  0  0
   28.0652  -20.4994  -17.2595 C   0  0  2  0  0  0  0  0  0  0  0  0
   29.3729  -21.2205  -17.4958 C   0  0  0  0  0  0  0  0  0  0  0  0
   27.2545  -21.1912  -16.1889 C   0  0  0  0  0  0  0  0  0  0  0  0
   25.9086  -20.5996  -15.9493 C   0  0  2  0  0  0  0  0  0  0  0  0
   26.1358  -19.1712  -15.6650 N   0  0  0  0  0  0  0  0  0  0  0  0
   25.1579  -21.2231  -14.8214 C   0  0  0  0  0  0  0  0  0  0  0  0
   24.9104  -22.4682  -14.8511 O   0  0  0  0  0  0  0  0  0  0  0  0
   25.8822  -20.5953   -9.2790 C   0  0  0  0  0  0  0  0  0  0  0  0
   25.4376  -21.2400  -10.5270 C   0  0  2  0  0  0  0  0  0  0  0  0
   26.6994  -21.5079  -11.3877 C   0  0  0  0  0  0  0  0  0  0  0  0
   24.4846  -20.5697  -11.4043 C   0  0  0  0  0  0  0  0  0  0  0  0
   23.9241  -21.1779  -12.6178 C   0  0  2  0  0  0  0  0  0  0  0  0
   24.7015  -20.5073  -13.7121 N   0  0  0  0  0  0  0  0  0  0  0  0
   22.5155  -21.0930  -12.9366 C   0  0  0  0  0  0  0  0  0  0  0  0
   21.6581  -21.5531  -12.0640 O   0  0  0  0  0  0  0  0  0  0  0  0
   21.9297  -20.5501  -14.0977 N   0  0  0  0  0  0  0  0  0  0  0  0
   20.4581  -20.5504  -14.2662 C   0  0  1  0  0  0  0  0  0  0  0  0
   20.0562  -19.2476  -14.9351 C   0  0  0  0  0  0  0  0  0  0  0  0
   18.5954  -19.2019  -15.0976 C   0  0  0  0  0  0  0  0  0  0  0  0
   17.7458  -19.7168  -14.3284 O   0  0  0  0  0  0  0  0  0  0  0  0
   20.1005  -21.6529  -15.1708 C   0  0  0  0  0  0  0  0  0  0  0  0
   18.8814  -22.3118  -15.2058 O   0  0  0  0  0  0  0  0  0  0  0  0
   18.0723  -18.5220  -16.2141 O   0  0  0  0  0  0  0  0  0  0  0  0
   20.9468  -22.0679  -16.0027 O   0  0  0  0  0  0  0  0  0  0  0  0
  2  1  1  6
  2  3  1  0
  4  5  1  0
  4  2  1  0
  5  6  1  1
  5  7  1  0
  7  8  2  0
 10  9  1  1
 11 10  1  0
 12 10  1  0
 13 12  1  1
 14  7  1  0
 14 13  1  0
 15 13  1  0
 15 16  2  0
 17 15  1  0
 18 17  1  0
 18 22  1  0
 18 19  1  6
 20 24  1  0
 20 19  1  0
 21 20  2  0
 22 23  1  0
 25 22  2  0
M  END
$$$$
