LLD.pdb
     RDKit          3D

 25 24  0  0  1  0  0  0  0  0999 V2000
   18.3008  -25.6590  -10.6574 C   0  0  0  0  0  0  0  0  0  0  0  0
   17.5035  -24.4623  -10.1473 C   0  0  2  0  0  0  0  0  0  0  0  0
   16.1492  -24.4933  -10.8188 C   0  0  0  0  0  0  0  0  0  0  0  0
   18.2359  -23.1813  -10.4711 C   0  0  0  0  0  0  0  0  0  0  0  0
   19.6319  -23.1166   -9.9553 C   0  0  2  0  0  0  0  0  0  0  0  0
   19.5233  -23.1043   -8.4853 N   0  0  0  0  0  0  0  0  0  0  0  0
   20.3985  -21.9218  -10.4126 C   0  0  0  0  0  0  0  0  0  0  0  0
   20.0454  -20.7674  -10.0188 O   0  0  0  0  0  0  0  0  0  0  0  0
   24.2148  -19.8944   -9.2744 C   0  0  0  0  0  0  0  0  0  0  0  0
   24.2330  -21.1118  -10.1041 C   0  0  2  0  0  0  0  0  0  0  0  0
   25.7162  -21.5205  -10.2985 C   0  0  0  0  0  0  0  0  0  0  0  0
   23.6374  -21.1058  -11.4354 C   0  0  0  0  0  0  0  0  0  0  0  0
   22.2349  -20.7611  -11.7012 C   0  0  2  0  0  0  0  0  0  0  0  0
   21.5032  -21.9961  -11.2643 N   0  0  0  0  0  0  0  0  0  0  0  0
   21.7730  -20.3970  -13.0229 C   0  0  0  0  0  0  0  0  0  0  0  0
   21.5130  -21.3574  -13.8704 O   0  0  0  0  0  0  0  0  0  0  0  0
   21.5486  -19.0999  -13.5264 N   0  0  0  0  0  0  0  0  0  0  0  0
   21.0112  -18.9082  -14.8933 C   0  0  1  0  0  0  0  0  0  0  0  0
   20.1847  -17.6342  -14.9045 C   0  0  0  0  0  0  0  0  0  0  0  0
   19.6511  -17.3993  -16.2545 C   0  0  0  0  0  0  0  0  0  0  0  0
   19.7949  -18.1506  -17.2513 O   0  0  0  0  0  0  0  0  0  0  0  0
   22.1456  -18.7199  -15.8096 C   0  0  0  0  0  0  0  0  0  0  0  0
   22.1322  -18.9498  -17.1765 O   0  0  0  0  0  0  0  0  0  0  0  0
   18.9036  -16.2274  -16.4785 O   0  0  0  0  0  0  0  0  0  0  0  0
   23.2460  -18.3166  -15.3548 O   0  0  0  0  0  0  0  0  0  0  0  0
  2  1  1  6
  2  3  1  0
  4  5  1  0
  4  2  1  0
  5  6  1  1
  5  7  1  0
  7  8  2  0
 10  9  1  6
 11 10  1  0
 12 10  1  0
 13 12  1  6
 14  7  1  0
 14 13  1  0
 15 13  1  0
 15 16  2  0
 17 15  1  0
 18 17  1  0
 18 22  1  0
 18 19  1  1
 20 24  1  0
 20 19  1  0
 21 20  2  0
 22 23  1  0
 25 22  2  0
M  END
$$$$
