LLD.pdb
     RDKit          3D

 25 24  0  0  1  0  0  0  0  0999 V2000
   15.7115   -8.8653  -19.9566 C   0  0  0  0  0  0  0  0  0  0  0  0
   16.8225   -9.8530  -19.6128 C   0  0  2  0  0  0  0  0  0  0  0  0
   16.5163  -11.1529  -20.3218 C   0  0  0  0  0  0  0  0  0  0  0  0
   16.8840  -10.0569  -18.1172 C   0  0  0  0  0  0  0  0  0  0  0  0
   17.9785  -10.9569  -17.6576 C   0  0  2  0  0  0  0  0  0  0  0  0
   17.3231  -12.1968  -17.2037 N   0  0  0  0  0  0  0  0  0  0  0  0
   18.8100  -10.3952  -16.5543 C   0  0  0  0  0  0  0  0  0  0  0  0
   18.3708  -10.4309  -15.3634 O   0  0  0  0  0  0  0  0  0  0  0  0
   24.3939  -11.0152  -14.9732 C   0  0  0  0  0  0  0  0  0  0  0  0
   23.2146  -10.1563  -14.7673 C   0  0  2  0  0  0  0  0  0  0  0  0
   22.6723  -10.4438  -13.3433 C   0  0  0  0  0  0  0  0  0  0  0  0
   22.0679  -10.2511  -15.6635 C   0  0  0  0  0  0  0  0  0  0  0  0
   20.9051   -9.3564  -15.5994 C   0  0  2  0  0  0  0  0  0  0  0  0
   20.0675   -9.8208  -16.7545 N   0  0  0  0  0  0  0  0  0  0  0  0
   21.0400   -7.9183  -15.6787 C   0  0  0  0  0  0  0  0  0  0  0  0
   21.1602   -7.3756  -16.8617 O   0  0  0  0  0  0  0  0  0  0  0  0
   21.0466   -6.9969  -14.6124 N   0  0  0  0  0  0  0  0  0  0  0  0
   21.2824   -5.5568  -14.8664 C   0  0  1  0  0  0  0  0  0  0  0  0
   19.9381   -4.8506  -14.8816 C   0  0  0  0  0  0  0  0  0  0  0  0
   20.1407   -3.3975  -14.9800 C   0  0  0  0  0  0  0  0  0  0  0  0
   21.1957   -2.8170  -15.3386 O   0  0  0  0  0  0  0  0  0  0  0  0
   22.0654   -5.0158  -13.7456 C   0  0  0  0  0  0  0  0  0  0  0  0
   22.4048   -5.6984  -12.5878 O   0  0  0  0  0  0  0  0  0  0  0  0
   19.0648   -2.5528  -14.6462 O   0  0  0  0  0  0  0  0  0  0  0  0
   22.4836   -3.8316  -13.7998 O   0  0  0  0  0  0  0  0  0  0  0  0
  2  1  1  1
  2  3  1  0
  4  5  1  0
  4  2  1  0
  5  6  1  1
  5  7  1  0
  7  8  2  0
 10  9  1  6
 11 10  1  0
 12 10  1  0
 13 12  1  6
 14  7  1  0
 14 13  1  0
 15 13  1  0
 15 16  2  0
 17 15  1  0
 18 17  1  0
 18 22  1  0
 18 19  1  1
 20 24  1  0
 20 19  1  0
 21 20  2  0
 22 23  1  0
 25 22  2  0
M  END
$$$$
