LLD.pdb
     RDKit          3D

 25 24  0  0  1  0  0  0  0  0999 V2000
   18.4268  -24.0222  -10.1315 C   0  0  0  0  0  0  0  0  0  0  0  0
   17.8491  -22.6113  -10.0706 C   0  0  2  0  0  0  0  0  0  0  0  0
   16.5504  -22.6135  -10.8449 C   0  0  0  0  0  0  0  0  0  0  0  0
   18.8295  -21.6285  -10.6664 C   0  0  0  0  0  0  0  0  0  0  0  0
   20.2252  -21.7608  -10.1628 C   0  0  2  0  0  0  0  0  0  0  0  0
   20.1964  -21.3115   -8.7592 N   0  0  0  0  0  0  0  0  0  0  0  0
   21.2290  -20.9635  -10.9251 C   0  0  0  0  0  0  0  0  0  0  0  0
   21.2327  -19.6985  -10.8154 O   0  0  0  0  0  0  0  0  0  0  0  0
   25.5899  -19.9215  -10.4217 C   0  0  0  0  0  0  0  0  0  0  0  0
   25.1769  -21.2494  -10.9086 C   0  0  2  0  0  0  0  0  0  0  0  0
   26.4569  -22.1140  -11.0450 C   0  0  0  0  0  0  0  0  0  0  0  0
   24.4628  -21.3818  -12.1733 C   0  0  0  0  0  0  0  0  0  0  0  0
   23.2034  -20.6901  -12.4766 C   0  0  2  0  0  0  0  0  0  0  0  0
   22.1847  -21.5344  -11.7690 N   0  0  0  0  0  0  0  0  0  0  0  0
   22.7566  -20.4734  -13.8353 C   0  0  0  0  0  0  0  0  0  0  0  0
   23.5697  -19.8699  -14.6618 O   0  0  0  0  0  0  0  0  0  0  0  0
   21.5238  -20.8516  -14.4039 N   0  0  0  0  0  0  0  0  0  0  0  0
   21.1970  -20.4827  -15.8007 C   0  0  1  0  0  0  0  0  0  0  0  0
   20.4996  -21.6634  -16.4533 C   0  0  0  0  0  0  0  0  0  0  0  0
   20.1056  -21.3119  -17.8257 C   0  0  0  0  0  0  0  0  0  0  0  0
   20.2957  -20.2073  -18.3934 O   0  0  0  0  0  0  0  0  0  0  0  0
   20.2496  -19.3587  -15.7683 C   0  0  0  0  0  0  0  0  0  0  0  0
   19.7685  -18.7347  -14.6279 O   0  0  0  0  0  0  0  0  0  0  0  0
   19.4511  -22.2892  -18.5996 O   0  0  0  0  0  0  0  0  0  0  0  0
   19.8099  -18.8909  -16.8491 O   0  0  0  0  0  0  0  0  0  0  0  0
  2  1  1  6
  2  3  1  0
  4  5  1  0
  4  2  1  0
  5  6  1  1
  5  7  1  0
  7  8  2  0
 10  9  1  6
 11 10  1  0
 12 10  1  0
 13 12  1  6
 14  7  1  0
 14 13  1  0
 15 13  1  0
 15 16  2  0
 17 15  1  0
 18 17  1  0
 18 22  1  0
 18 19  1  1
 20 24  1  0
 20 19  1  0
 21 20  2  0
 22 23  1  0
 25 22  2  0
M  END
$$$$
