LLD.pdb
     RDKit          3D

 25 24  0  0  1  0  0  0  0  0999 V2000
   21.1641  -20.0309  -15.4831 C   0  0  0  0  0  0  0  0  0  0  0  0
   22.5130  -19.8621  -14.7902 C   0  0  2  0  0  0  0  0  0  0  0  0
   23.5888  -19.9751  -15.8466 C   0  0  0  0  0  0  0  0  0  0  0  0
   22.6836  -20.9264  -13.7318 C   0  0  0  0  0  0  0  0  0  0  0  0
   21.7738  -20.7889  -12.5603 C   0  0  2  0  0  0  0  0  0  0  0  0
   21.8307  -19.3702  -12.1643 N   0  0  0  0  0  0  0  0  0  0  0  0
   22.1380  -21.6500  -11.3983 C   0  0  0  0  0  0  0  0  0  0  0  0
   22.1561  -22.9117  -11.5397 O   0  0  0  0  0  0  0  0  0  0  0  0
   25.1838  -19.7824  -10.2347 C   0  0  0  0  0  0  0  0  0  0  0  0
   24.5439  -20.0449   -8.9337 C   0  0  2  0  0  0  0  0  0  0  0  0
   25.5210  -19.5653   -7.8292 C   0  0  0  0  0  0  0  0  0  0  0  0
   24.1510  -21.4002   -8.5653 C   0  0  0  0  0  0  0  0  0  0  0  0
   22.9167  -22.0472   -9.0285 C   0  0  2  0  0  0  0  0  0  0  0  0
   22.4671  -21.1435  -10.1387 N   0  0  0  0  0  0  0  0  0  0  0  0
   21.7960  -22.2807   -8.1440 C   0  0  0  0  0  0  0  0  0  0  0  0
   21.9292  -23.1813   -7.2061 O   0  0  0  0  0  0  0  0  0  0  0  0
   20.5441  -21.6336   -8.1559 N   0  0  0  0  0  0  0  0  0  0  0  0
   19.2979  -22.4135   -8.3368 C   0  0  1  0  0  0  0  0  0  0  0  0
   19.3535  -23.0895   -9.6956 C   0  0  0  0  0  0  0  0  0  0  0  0
   18.1132  -23.8450   -9.9264 C   0  0  0  0  0  0  0  0  0  0  0  0
   17.8874  -25.0288   -9.5711 O   0  0  0  0  0  0  0  0  0  0  0  0
   19.2618  -23.4648   -7.3094 C   0  0  0  0  0  0  0  0  0  0  0  0
   18.1764  -24.2749   -7.0143 O   0  0  0  0  0  0  0  0  0  0  0  0
   17.0620  -23.2034  -10.6088 O   0  0  0  0  0  0  0  0  0  0  0  0
   20.2850  -23.6814   -6.6119 O   0  0  0  0  0  0  0  0  0  0  0  0
  2  1  1  6
  2  3  1  0
  4  5  1  0
  4  2  1  0
  5  6  1  1
  5  7  1  0
  7  8  2  0
 10  9  1  6
 11 10  1  0
 12 10  1  0
 13 12  1  1
 14  7  1  0
 14 13  1  0
 15 13  1  0
 15 16  2  0
 17 15  1  0
 18 17  1  0
 18 22  1  0
 18 19  1  6
 20 24  1  0
 20 19  1  0
 21 20  2  0
 22 23  1  0
 25 22  2  0
M  END
$$$$
