LLD.pdb
     RDKit          3D

 25 24  0  0  1  0  0  0  0  0999 V2000
   28.4067  -32.5038  -17.7524 C   0  0  0  0  0  0  0  0  0  0  0  0
   28.9837  -32.5106  -16.3400 C   0  0  2  0  0  0  0  0  0  0  0  0
   28.0163  -31.7687  -15.4456 C   0  0  0  0  0  0  0  0  0  0  0  0
   30.3397  -31.8447  -16.3358 C   0  0  0  0  0  0  0  0  0  0  0  0
   31.3744  -32.5375  -17.1534 C   0  0  2  0  0  0  0  0  0  0  0  0
   31.4784  -33.9029  -16.6077 N   0  0  0  0  0  0  0  0  0  0  0  0
   32.7142  -31.8828  -17.1278 C   0  0  0  0  0  0  0  0  0  0  0  0
   32.8453  -30.7140  -17.6064 O   0  0  0  0  0  0  0  0  0  0  0  0
   37.0720  -31.4599  -13.1563 C   0  0  0  0  0  0  0  0  0  0  0  0
   36.6271  -31.0951  -14.5127 C   0  0  2  0  0  0  0  0  0  0  0  0
   36.3534  -29.5688  -14.5181 C   0  0  0  0  0  0  0  0  0  0  0  0
   35.4444  -31.7200  -15.0939 C   0  0  0  0  0  0  0  0  0  0  0  0
   35.1665  -31.7596  -16.5354 C   0  0  2  0  0  0  0  0  0  0  0  0
   33.8564  -32.4884  -16.5988 N   0  0  0  0  0  0  0  0  0  0  0  0
   36.0795  -32.3734  -17.4748 C   0  0  0  0  0  0  0  0  0  0  0  0
   37.2912  -31.8909  -17.5604 O   0  0  0  0  0  0  0  0  0  0  0  0
   35.8268  -33.4666  -18.3276 N   0  0  0  0  0  0  0  0  0  0  0  0
   36.9016  -34.0097  -19.1899 C   0  0  1  0  0  0  0  0  0  0  0  0
   36.8286  -35.5258  -19.1422 C   0  0  0  0  0  0  0  0  0  0  0  0
   37.9341  -36.1019  -19.9221 C   0  0  0  0  0  0  0  0  0  0  0  0
   38.8359  -35.4612  -20.5179 O   0  0  0  0  0  0  0  0  0  0  0  0
   36.6372  -33.5871  -20.5732 C   0  0  0  0  0  0  0  0  0  0  0  0
   37.5959  -33.2682  -21.5223 O   0  0  0  0  0  0  0  0  0  0  0  0
   38.0129  -37.5037  -20.0271 O   0  0  0  0  0  0  0  0  0  0  0  0
   35.4491  -33.4918  -20.9729 O   0  0  0  0  0  0  0  0  0  0  0  0
  2  1  1  6
  2  3  1  0
  4  5  1  0
  4  2  1  0
  5  6  1  1
  5  7  1  0
  7  8  2  0
 10  9  1  1
 11 10  1  0
 12 10  1  0
 13 12  1  1
 14  7  1  0
 14 13  1  0
 15 13  1  0
 15 16  2  0
 17 15  1  0
 18 17  1  0
 18 22  1  0
 18 19  1  6
 20 24  1  0
 20 19  1  0
 21 20  2  0
 22 23  1  0
 25 22  2  0
M  END
$$$$
