LLD.pdb
     RDKit          3D

 25 24  0  0  1  0  0  0  0  0999 V2000
   25.2109  -33.7511   -8.7667 C   0  0  0  0  0  0  0  0  0  0  0  0
   26.0515  -32.6479   -8.1308 C   0  0  2  0  0  0  0  0  0  0  0  0
   26.2508  -31.5669   -9.1690 C   0  0  0  0  0  0  0  0  0  0  0  0
   27.3783  -33.2099   -7.6770 C   0  0  0  0  0  0  0  0  0  0  0  0
   27.2884  -34.1857   -6.5550 C   0  0  2  0  0  0  0  0  0  0  0  0
   26.6279  -33.4728   -5.4467 N   0  0  0  0  0  0  0  0  0  0  0  0
   28.6054  -34.7154   -6.0977 C   0  0  0  0  0  0  0  0  0  0  0  0
   29.2708  -35.4770   -6.8656 O   0  0  0  0  0  0  0  0  0  0  0  0
   33.2067  -34.9703   -6.3178 C   0  0  0  0  0  0  0  0  0  0  0  0
   32.2027  -33.9113   -6.1144 C   0  0  2  0  0  0  0  0  0  0  0  0
   32.9386  -32.5492   -6.2016 C   0  0  0  0  0  0  0  0  0  0  0  0
   31.4152  -33.8676   -4.8876 C   0  0  0  0  0  0  0  0  0  0  0  0
   30.5127  -34.9434   -4.4575 C   0  0  2  0  0  0  0  0  0  0  0  0
   29.1632  -34.4192   -4.8518 N   0  0  0  0  0  0  0  0  0  0  0  0
   30.4496  -35.3858   -3.0816 C   0  0  0  0  0  0  0  0  0  0  0  0
   29.6513  -34.7486   -2.2661 O   0  0  0  0  0  0  0  0  0  0  0  0
   31.1507  -36.4565   -2.4915 N   0  0  0  0  0  0  0  0  0  0  0  0
   30.9757  -36.7664   -1.0537 C   0  0  1  0  0  0  0  0  0  0  0  0
   31.3510  -38.2211   -0.8321 C   0  0  0  0  0  0  0  0  0  0  0  0
   31.2394  -38.5515    0.5964 C   0  0  0  0  0  0  0  0  0  0  0  0
   30.8844  -37.7703    1.5142 O   0  0  0  0  0  0  0  0  0  0  0  0
   31.9156  -35.9346   -0.2878 C   0  0  0  0  0  0  0  0  0  0  0  0
   32.8585  -35.0711   -0.8235 O   0  0  0  0  0  0  0  0  0  0  0  0
   31.5546  -39.8626    1.0015 O   0  0  0  0  0  0  0  0  0  0  0  0
   31.8980  -35.9805    0.9683 O   0  0  0  0  0  0  0  0  0  0  0  0
  2  1  1  6
  2  3  1  0
  4  5  1  0
  4  2  1  0
  5  6  1  1
  5  7  1  0
  7  8  2  0
 10  9  1  1
 11 10  1  0
 12 10  1  0
 13 12  1  1
 14  7  1  0
 14 13  1  0
 15 13  1  0
 15 16  2  0
 17 15  1  0
 18 17  1  0
 18 22  1  0
 18 19  1  6
 20 24  1  0
 20 19  1  0
 21 20  2  0
 22 23  1  0
 25 22  2  0
M  END
$$$$
