DHV.pdb
     RDKit          3D

 26 26  0  0  1  0  0  0  0  0999 V2000
   11.4410  -18.2517   20.9300 N   0  0  0  0  0  0  0  0  0  0  0  0
   12.4246  -17.2954   21.4058 C   0  0  1  0  0  0  0  0  0  0  0  0
   12.9636  -16.4864   20.2520 C   0  0  0  0  0  0  0  0  0  0  0  0
   13.8502  -17.2833   19.3774 C   0  0  0  0  0  0  0  0  0  0  0  0
   13.5056  -17.5507   18.2132 O   0  0  0  0  0  0  0  0  0  0  0  0
   11.7707  -16.4366   22.4277 C   0  0  0  0  0  0  0  0  0  0  0  0
   12.3655  -15.4397   22.9279 O   0  0  0  0  0  0  0  0  0  0  0  0
   15.0592  -17.7303   19.8520 O   0  0  0  0  0  0  0  0  0  0  0  0
   10.4460  -16.6838   22.9002 N   0  0  0  0  0  0  0  0  0  0  0  0
    9.7740  -15.8837   23.8919 C   0  0  1  0  0  0  0  0  0  0  0  0
    8.2910  -16.0245   23.7096 C   0  0  0  0  0  0  0  0  0  0  0  0
    7.7883  -15.3794   22.4757 C   0  0  0  0  0  0  0  0  0  0  0  0
    8.3998  -14.4866   21.6397 C   0  0  0  0  0  0  0  0  0  0  0  0
    7.5433  -14.1839   20.6469 N   0  0  0  0  0  0  0  0  0  0  0  0
    6.4103  -14.8569   20.8291 C   0  0  0  0  0  0  0  0  0  0  0  0
    6.5710  -15.5810   21.9450 N   0  0  0  0  0  0  0  0  0  0  0  0
   10.1980  -16.2472   25.2768 C   0  0  0  0  0  0  0  0  0  0  0  0
   10.7403  -17.3619   25.4836 O   0  0  0  0  0  0  0  0  0  0  0  0
   11.2716  -13.3936   28.2039 C   0  0  0  0  0  0  0  0  0  0  0  0
   10.4156  -14.5488   28.6556 C   0  0  1  0  0  0  0  0  0  0  0  0
    9.0153  -14.0328   28.8550 C   0  0  0  0  0  0  0  0  0  0  0  0
   10.5169  -15.6892   27.7200 C   0  0  2  0  0  0  0  0  0  0  0  0
   10.0167  -15.3851   26.3864 N   0  0  0  0  0  0  0  0  0  0  0  0
    9.7788  -16.8500   28.3008 C   0  0  0  0  0  0  0  0  0  0  0  0
    8.7492  -17.2692   27.7361 O   0  0  0  0  0  0  0  0  0  0  0  0
   10.2255  -17.4749   29.4703 O   0  0  0  0  0  0  0  0  0  0  0  0
  2  1  1  6
  2  3  1  0
  2  6  1  0
  4  8  1  0
  4  3  1  0
  5  4  2  0
  6  7  2  0
  9  6  1  0
  9 10  1  0
 10 11  1  1
 11 12  1  0
 12 13  2  0
 14 13  1  0
 15 14  1  0
 16 15  2  0
 16 12  1  0
 17 10  1  0
 17 18  2  0
 20 19  1  6
 20 22  1  0
 21 20  1  0
 22 23  1  6
 22 24  1  0
 23 17  1  0
 24 26  1  0
 25 24  2  0
M  END
$$$$
