DHV.pdb
     RDKit          3D

 26 26  0  0  1  0  0  0  0  0999 V2000
   12.0198  -17.6029   20.1594 N   0  0  0  0  0  0  0  0  0  0  0  0
   12.8168  -17.1388   21.2809 C   0  0  1  0  0  0  0  0  0  0  0  0
   13.9878  -16.3267   20.7856 C   0  0  0  0  0  0  0  0  0  0  0  0
   15.0219  -17.1695   20.1481 C   0  0  0  0  0  0  0  0  0  0  0  0
   15.1162  -18.3740   20.4411 O   0  0  0  0  0  0  0  0  0  0  0  0
   11.9314  -16.3473   22.1747 C   0  0  0  0  0  0  0  0  0  0  0  0
   11.9152  -15.0839   22.1346 O   0  0  0  0  0  0  0  0  0  0  0  0
   15.8821  -16.6205   19.2285 O   0  0  0  0  0  0  0  0  0  0  0  0
   11.0557  -16.9601   23.1218 N   0  0  0  0  0  0  0  0  0  0  0  0
   10.1965  -16.2349   24.0224 C   0  0  1  0  0  0  0  0  0  0  0  0
    8.7806  -16.6885   23.8174 C   0  0  0  0  0  0  0  0  0  0  0  0
    8.1335  -16.0741   22.6363 C   0  0  0  0  0  0  0  0  0  0  0  0
    8.6509  -15.2353   21.6883 C   0  0  0  0  0  0  0  0  0  0  0  0
    7.6764  -14.9416   20.8081 N   0  0  0  0  0  0  0  0  0  0  0  0
    6.5599  -15.5680   21.1697 C   0  0  0  0  0  0  0  0  0  0  0  0
    6.8500  -16.2541   22.2835 N   0  0  0  0  0  0  0  0  0  0  0  0
   10.6267  -16.3902   25.4438 C   0  0  0  0  0  0  0  0  0  0  0  0
   11.3841  -17.3424   25.7588 O   0  0  0  0  0  0  0  0  0  0  0  0
   11.0278  -13.2364   28.1468 C   0  0  0  0  0  0  0  0  0  0  0  0
   10.3356  -14.4617   28.6861 C   0  0  1  0  0  0  0  0  0  0  0  0
    8.8695  -14.1429   28.8130 C   0  0  0  0  0  0  0  0  0  0  0  0
   10.6307  -15.6517   27.8597 C   0  0  2  0  0  0  0  0  0  0  0  0
   10.2176  -15.5043   26.4710 N   0  0  0  0  0  0  0  0  0  0  0  0
    9.9670  -16.8381   28.4774 C   0  0  0  0  0  0  0  0  0  0  0  0
    8.9998  -17.3721   27.8993 O   0  0  0  0  0  0  0  0  0  0  0  0
   10.4143  -17.3600   29.6961 O   0  0  0  0  0  0  0  0  0  0  0  0
  2  1  1  6
  2  3  1  0
  2  6  1  0
  4  8  1  0
  4  3  1  0
  5  4  2  0
  6  7  2  0
  9  6  1  0
  9 10  1  0
 10 11  1  1
 11 12  1  0
 12 13  2  0
 14 13  1  0
 15 14  1  0
 16 15  2  0
 16 12  1  0
 17 10  1  0
 17 18  2  0
 20 19  1  6
 20 22  1  0
 21 20  1  0
 22 23  1  6
 22 24  1  0
 23 17  1  0
 24 26  1  0
 25 24  2  0
M  END
$$$$
