DHV.pdb
     RDKit          3D

 26 26  0  0  1  0  0  0  0  0999 V2000
   10.5067  -18.6950   14.5572 N   0  0  0  0  0  0  0  0  0  0  0  0
   11.1914  -19.1711   15.7458 C   0  0  1  0  0  0  0  0  0  0  0  0
   12.5564  -18.5368   15.8487 C   0  0  0  0  0  0  0  0  0  0  0  0
   13.4460  -18.9434   14.7399 C   0  0  0  0  0  0  0  0  0  0  0  0
   13.3001  -20.0507   14.1939 O   0  0  0  0  0  0  0  0  0  0  0  0
   10.3412  -18.8516   16.9224 C   0  0  0  0  0  0  0  0  0  0  0  0
    9.8220  -17.7083   17.0683 O   0  0  0  0  0  0  0  0  0  0  0  0
   14.4377  -18.0953   14.3109 O   0  0  0  0  0  0  0  0  0  0  0  0
   10.0632  -19.8066   17.9471 N   0  0  0  0  0  0  0  0  0  0  0  0
    9.2934  -19.5267   19.1321 C   0  0  1  0  0  0  0  0  0  0  0  0
    8.6540  -20.7975   19.6102 C   0  0  0  0  0  0  0  0  0  0  0  0
    7.8521  -20.6227   20.8421 C   0  0  0  0  0  0  0  0  0  0  0  0
    8.0550  -21.1190   22.1001 C   0  0  0  0  0  0  0  0  0  0  0  0
    7.0554  -20.6864   22.8903 N   0  0  0  0  0  0  0  0  0  0  0  0
    6.2275  -19.9327   22.1717 C   0  0  0  0  0  0  0  0  0  0  0  0
    6.7224  -19.9010   20.9270 N   0  0  0  0  0  0  0  0  0  0  0  0
   10.1265  -18.8922   20.1965 C   0  0  0  0  0  0  0  0  0  0  0  0
   11.3520  -19.1627   20.2644 O   0  0  0  0  0  0  0  0  0  0  0  0
    8.4913  -16.1087   23.1072 C   0  0  0  0  0  0  0  0  0  0  0  0
    9.8958  -16.0117   22.5693 C   0  0  1  0  0  0  0  0  0  0  0  0
   10.7356  -15.3073   23.6014 C   0  0  0  0  0  0  0  0  0  0  0  0
   10.4094  -17.3391   22.1689 C   0  0  2  0  0  0  0  0  0  0  0  0
    9.5966  -17.9864   21.1485 N   0  0  0  0  0  0  0  0  0  0  0  0
   10.5028  -18.2011   23.3845 C   0  0  0  0  0  0  0  0  0  0  0  0
    9.5628  -18.9700   23.6671 O   0  0  0  0  0  0  0  0  0  0  0  0
   11.6303  -18.1591   24.2120 O   0  0  0  0  0  0  0  0  0  0  0  0
  2  1  1  6
  2  3  1  0
  2  6  1  0
  4  8  1  0
  4  3  1  0
  5  4  2  0
  6  7  2  0
  9  6  1  0
  9 10  1  0
 10 11  1  1
 11 12  1  0
 12 13  2  0
 14 13  1  0
 15 14  1  0
 16 15  2  0
 16 12  1  0
 17 10  1  0
 17 18  2  0
 20 19  1  1
 20 22  1  0
 21 20  1  0
 22 23  1  6
 22 24  1  0
 23 17  1  0
 24 26  1  0
 25 24  2  0
M  END
$$$$
