DHV.pdb
     RDKit          3D

 26 26  0  0  1  0  0  0  0  0999 V2000
    9.3083  -16.2949   19.3239 N   0  0  0  0  0  0  0  0  0  0  0  0
    8.5937  -15.0372   19.4500 C   0  0  1  0  0  0  0  0  0  0  0  0
    7.6668  -14.8459   18.2751 C   0  0  0  0  0  0  0  0  0  0  0  0
    8.3787  -14.9344   16.9822 C   0  0  0  0  0  0  0  0  0  0  0  0
    9.5856  -15.2314   16.9510 O   0  0  0  0  0  0  0  0  0  0  0  0
    7.8563  -15.0576   20.7405 C   0  0  0  0  0  0  0  0  0  0  0  0
    6.9029  -14.2589   20.9665 O   0  0  0  0  0  0  0  0  0  0  0  0
    7.7051  -14.6877   15.8109 O   0  0  0  0  0  0  0  0  0  0  0  0
    8.1775  -15.9705   21.7906 N   0  0  0  0  0  0  0  0  0  0  0  0
    7.4431  -16.0807   23.0250 C   0  0  1  0  0  0  0  0  0  0  0  0
    7.3384  -17.5294   23.4029 C   0  0  0  0  0  0  0  0  0  0  0  0
    6.3330  -18.2710   22.6090 C   0  0  0  0  0  0  0  0  0  0  0  0
    5.5087  -17.8357   21.6085 C   0  0  0  0  0  0  0  0  0  0  0  0
    4.7677  -18.8777   21.1894 N   0  0  0  0  0  0  0  0  0  0  0  0
    5.0975  -19.9575   21.8930 C   0  0  0  0  0  0  0  0  0  0  0  0
    6.0510  -19.5763   22.7538 N   0  0  0  0  0  0  0  0  0  0  0  0
    8.0644  -15.2687   24.1132 C   0  0  0  0  0  0  0  0  0  0  0  0
    9.3069  -15.3254   24.2931 O   0  0  0  0  0  0  0  0  0  0  0  0
    5.7414  -12.9416   26.9553 C   0  0  0  0  0  0  0  0  0  0  0  0
    7.0593  -12.4577   26.4073 C   0  0  1  0  0  0  0  0  0  0  0  0
    7.6806  -11.5521   27.4373 C   0  0  0  0  0  0  0  0  0  0  0  0
    7.9167  -13.5895   25.9950 C   0  0  2  0  0  0  0  0  0  0  0  0
    7.3116  -14.4244   24.9665 N   0  0  0  0  0  0  0  0  0  0  0  0
    8.2435  -14.4051   27.2023 C   0  0  0  0  0  0  0  0  0  0  0  0
    7.7142  -15.5244   27.3501 O   0  0  0  0  0  0  0  0  0  0  0  0
    9.1353  -13.9319   28.1709 O   0  0  0  0  0  0  0  0  0  0  0  0
  2  1  1  6
  2  3  1  0
  2  6  1  0
  4  8  1  0
  4  3  1  0
  5  4  2  0
  6  7  2  0
  9  6  1  0
  9 10  1  0
 10 11  1  1
 11 12  1  0
 12 13  2  0
 14 13  1  0
 15 14  1  0
 16 15  2  0
 16 12  1  0
 17 10  1  0
 17 18  2  0
 20 19  1  1
 20 22  1  0
 21 20  1  0
 22 23  1  6
 22 24  1  0
 23 17  1  0
 24 26  1  0
 25 24  2  0
M  END
$$$$
