DHV.pdb
     RDKit          3D

 26 26  0  0  1  0  0  0  0  0999 V2000
    9.2047  -17.6086   20.3470 N   0  0  0  0  0  0  0  0  0  0  0  0
    8.3162  -16.4657   20.2347 C   0  0  1  0  0  0  0  0  0  0  0  0
    7.2514  -16.7346   19.2003 C   0  0  0  0  0  0  0  0  0  0  0  0
    7.8228  -16.9479   17.8534 C   0  0  0  0  0  0  0  0  0  0  0  0
    8.4893  -17.9689   17.6104 O   0  0  0  0  0  0  0  0  0  0  0  0
    7.7326  -16.2065   21.5769 C   0  0  0  0  0  0  0  0  0  0  0  0
    6.7428  -15.4347   21.7265 O   0  0  0  0  0  0  0  0  0  0  0  0
    7.6169  -16.0152   16.8663 O   0  0  0  0  0  0  0  0  0  0  0  0
    8.2497  -16.8074   22.7648 N   0  0  0  0  0  0  0  0  0  0  0  0
    7.6598  -16.6644   24.0712 C   0  0  1  0  0  0  0  0  0  0  0  0
    7.7619  -17.9733   24.7986 C   0  0  0  0  0  0  0  0  0  0  0  0
    6.8432  -19.0086   24.2738 C   0  0  0  0  0  0  0  0  0  0  0  0
    5.9098  -18.9312   23.2776 C   0  0  0  0  0  0  0  0  0  0  0  0
    5.3184  -20.1341   23.1596 N   0  0  0  0  0  0  0  0  0  0  0  0
    5.8484  -20.9690   24.0494 C   0  0  0  0  0  0  0  0  0  0  0  0
    6.7751  -20.2731   24.7218 N   0  0  0  0  0  0  0  0  0  0  0  0
    8.2882  -15.5519   24.8438 C   0  0  0  0  0  0  0  0  0  0  0  0
    9.5380  -15.4207   24.8313 O   0  0  0  0  0  0  0  0  0  0  0  0
    7.0379  -11.7546   25.1547 C   0  0  0  0  0  0  0  0  0  0  0  0
    7.3034  -12.3573   26.5103 C   0  0  1  0  0  0  0  0  0  0  0  0
    5.9746  -12.5814   27.1819 C   0  0  0  0  0  0  0  0  0  0  0  0
    8.1435  -13.5693   26.4030 C   0  0  2  0  0  0  0  0  0  0  0  0
    7.5343  -14.6222   25.6021 N   0  0  0  0  0  0  0  0  0  0  0  0
    8.4404  -14.0674   27.7789 C   0  0  0  0  0  0  0  0  0  0  0  0
    8.0069  -15.1802   28.1372 O   0  0  0  0  0  0  0  0  0  0  0  0
    9.1986  -13.3036   28.6731 O   0  0  0  0  0  0  0  0  0  0  0  0
  2  1  1  1
  2  3  1  0
  2  6  1  0
  4  8  1  0
  4  3  1  0
  5  4  2  0
  6  7  2  0
  9  6  1  0
  9 10  1  0
 10 11  1  1
 11 12  1  0
 12 13  2  0
 14 13  1  0
 15 14  1  0
 16 15  2  0
 16 12  1  0
 17 10  1  0
 17 18  2  0
 20 19  1  6
 20 22  1  0
 21 20  1  0
 22 23  1  6
 22 24  1  0
 23 17  1  0
 24 26  1  0
 25 24  2  0
M  END
$$$$
