DHV.pdb
     RDKit          3D

 26 26  0  0  1  0  0  0  0  0999 V2000
   10.7363  -18.0047   21.2176 N   0  0  0  0  0  0  0  0  0  0  0  0
   11.5967  -16.9912   21.8014 C   0  0  1  0  0  0  0  0  0  0  0  0
   12.7185  -16.6517   20.8514 C   0  0  0  0  0  0  0  0  0  0  0  0
   13.7925  -17.6677   20.8699 C   0  0  0  0  0  0  0  0  0  0  0  0
   13.6725  -18.6932   21.5625 O   0  0  0  0  0  0  0  0  0  0  0  0
   10.7580  -15.8050   22.1157 C   0  0  0  0  0  0  0  0  0  0  0  0
   11.2676  -14.7390   22.5651 O   0  0  0  0  0  0  0  0  0  0  0  0
   14.9274  -17.4788   20.1196 O   0  0  0  0  0  0  0  0  0  0  0  0
    9.3420  -15.7988   21.9309 N   0  0  0  0  0  0  0  0  0  0  0  0
    8.4797  -14.7029   22.2925 C   0  0  1  0  0  0  0  0  0  0  0  0
    7.2401  -14.7582   21.4483 C   0  0  0  0  0  0  0  0  0  0  0  0
    7.4979  -14.5111   20.0117 C   0  0  0  0  0  0  0  0  0  0  0  0
    8.0755  -13.4358   19.3953 C   0  0  0  0  0  0  0  0  0  0  0  0
    8.0916  -13.6681   18.0699 N   0  0  0  0  0  0  0  0  0  0  0  0
    7.5426  -14.8557   17.8295 C   0  0  0  0  0  0  0  0  0  0  0  0
    7.1851  -15.3595   19.0184 N   0  0  0  0  0  0  0  0  0  0  0  0
    8.1568  -14.7102   23.7504 C   0  0  0  0  0  0  0  0  0  0  0  0
    8.3949  -15.7401   24.4301 O   0  0  0  0  0  0  0  0  0  0  0  0
    6.7650  -12.1969   27.8261 C   0  0  0  0  0  0  0  0  0  0  0  0
    6.7746  -12.2867   26.3216 C   0  0  1  0  0  0  0  0  0  0  0  0
    7.3944  -11.0218   25.7897 C   0  0  0  0  0  0  0  0  0  0  0  0
    7.4342  -13.5278   25.8628 C   0  0  2  0  0  0  0  0  0  0  0  0
    7.5867  -13.5969   24.4161 N   0  0  0  0  0  0  0  0  0  0  0  0
    6.6498  -14.6970   26.3602 C   0  0  0  0  0  0  0  0  0  0  0  0
    5.6493  -15.0821   25.7236 O   0  0  0  0  0  0  0  0  0  0  0  0
    7.0210  -15.3674   27.5308 O   0  0  0  0  0  0  0  0  0  0  0  0
  2  1  1  6
  2  3  1  0
  2  6  1  0
  4  8  1  0
  4  3  1  0
  5  4  2  0
  6  7  2  0
  9  6  1  0
  9 10  1  0
 10 11  1  6
 11 12  1  0
 12 13  2  0
 14 13  1  0
 15 14  1  0
 16 15  2  0
 16 12  1  0
 17 10  1  0
 17 18  2  0
 20 19  1  1
 20 22  1  0
 21 20  1  0
 22 23  1  6
 22 24  1  0
 23 17  1  0
 24 26  1  0
 25 24  2  0
M  END
$$$$
