DHV.pdb
     RDKit          3D

 26 26  0  0  1  0  0  0  0  0999 V2000
   10.5249  -18.0590   21.0250 N   0  0  0  0  0  0  0  0  0  0  0  0
   11.4841  -17.0116   21.3268 C   0  0  1  0  0  0  0  0  0  0  0  0
   12.2884  -16.6729   20.0961 C   0  0  0  0  0  0  0  0  0  0  0  0
   13.0484  -17.8353   19.5886 C   0  0  0  0  0  0  0  0  0  0  0  0
   13.9485  -18.3446   20.2785 O   0  0  0  0  0  0  0  0  0  0  0  0
   10.7319  -15.8361   21.8385 C   0  0  0  0  0  0  0  0  0  0  0  0
   11.3272  -14.7851   22.2112 O   0  0  0  0  0  0  0  0  0  0  0  0
   12.7595  -18.3550   18.3504 O   0  0  0  0  0  0  0  0  0  0  0  0
    9.3074  -15.8241   21.9386 N   0  0  0  0  0  0  0  0  0  0  0  0
    8.5428  -14.7545   22.5274 C   0  0  1  0  0  0  0  0  0  0  0  0
    7.2539  -14.6035   21.7735 C   0  0  0  0  0  0  0  0  0  0  0  0
    7.4462  -14.2506   20.3488 C   0  0  0  0  0  0  0  0  0  0  0  0
    7.8679  -13.0792   19.7833 C   0  0  0  0  0  0  0  0  0  0  0  0
    7.8842  -13.2380   18.4471 N   0  0  0  0  0  0  0  0  0  0  0  0
    7.4864  -14.4722   18.1505 C   0  0  0  0  0  0  0  0  0  0  0  0
    7.2225  -15.0792   19.3155 N   0  0  0  0  0  0  0  0  0  0  0  0
    8.3080  -14.9790   23.9848 C   0  0  0  0  0  0  0  0  0  0  0  0
    8.6216  -16.0826   24.4977 O   0  0  0  0  0  0  0  0  0  0  0  0
    7.8553  -11.8413   26.8311 C   0  0  0  0  0  0  0  0  0  0  0  0
    6.9318  -13.0279   26.9336 C   0  0  1  0  0  0  0  0  0  0  0  0
    5.5814  -12.6049   26.4192 C   0  0  0  0  0  0  0  0  0  0  0  0
    7.5002  -14.2103   26.2518 C   0  0  2  0  0  0  0  0  0  0  0  0
    7.7406  -13.9948   24.8316 N   0  0  0  0  0  0  0  0  0  0  0  0
    6.5780  -15.3671   26.4542 C   0  0  0  0  0  0  0  0  0  0  0  0
    6.4104  -15.8267   27.6011 O   0  0  0  0  0  0  0  0  0  0  0  0
    5.8986  -15.9435   25.3755 O   0  0  0  0  0  0  0  0  0  0  0  0
  2  1  1  6
  2  3  1  0
  2  6  1  0
  4  8  1  0
  4  3  1  0
  5  4  2  0
  6  7  2  0
  9  6  1  0
  9 10  1  0
 10 11  1  6
 11 12  1  0
 12 13  2  0
 14 13  1  0
 15 14  1  0
 16 15  2  0
 16 12  1  0
 17 10  1  0
 17 18  2  0
 20 19  1  6
 20 22  1  0
 21 20  1  0
 22 23  1  6
 22 24  1  0
 23 17  1  0
 24 26  1  0
 25 24  2  0
M  END
$$$$
