DHV.pdb
     RDKit          3D

 26 26  0  0  1  0  0  0  0  0999 V2000
    8.9967  -13.3331   18.5831 N   0  0  0  0  0  0  0  0  0  0  0  0
    9.6876  -14.2834   19.4362 C   0  0  1  0  0  0  0  0  0  0  0  0
   11.0585  -13.7627   19.7908 C   0  0  0  0  0  0  0  0  0  0  0  0
   12.0877  -14.1945   18.8210 C   0  0  0  0  0  0  0  0  0  0  0  0
   12.0507  -15.3388   18.3364 O   0  0  0  0  0  0  0  0  0  0  0  0
    8.8501  -14.5074   20.6436 C   0  0  0  0  0  0  0  0  0  0  0  0
    8.0556  -13.6203   21.0674 O   0  0  0  0  0  0  0  0  0  0  0  0
   13.0888  -13.3288   18.4535 O   0  0  0  0  0  0  0  0  0  0  0  0
    8.8925  -15.7249   21.3887 N   0  0  0  0  0  0  0  0  0  0  0  0
    8.0540  -16.0127   22.5242 C   0  0  1  0  0  0  0  0  0  0  0  0
    7.9191  -17.5007   22.6665 C   0  0  0  0  0  0  0  0  0  0  0  0
    7.2597  -17.9115   23.9265 C   0  0  0  0  0  0  0  0  0  0  0  0
    6.7197  -17.1485   24.9246 C   0  0  0  0  0  0  0  0  0  0  0  0
    6.2334  -17.9735   25.8698 N   0  0  0  0  0  0  0  0  0  0  0  0
    6.4488  -19.2333   25.5008 C   0  0  0  0  0  0  0  0  0  0  0  0
    7.0739  -19.1833   24.3167 N   0  0  0  0  0  0  0  0  0  0  0  0
    8.5773  -15.3828   23.7728 C   0  0  0  0  0  0  0  0  0  0  0  0
    9.8145  -15.3853   23.9936 O   0  0  0  0  0  0  0  0  0  0  0  0
    7.3665  -11.9490   25.4971 C   0  0  0  0  0  0  0  0  0  0  0  0
    7.4067  -13.0871   26.4843 C   0  0  1  0  0  0  0  0  0  0  0  0
    5.9857  -13.4644   26.8089 C   0  0  0  0  0  0  0  0  0  0  0  0
    8.2338  -14.2046   25.9809 C   0  0  2  0  0  0  0  0  0  0  0  0
    7.7359  -14.7730   24.7359 N   0  0  0  0  0  0  0  0  0  0  0  0
    8.3111  -15.2553   27.0390 C   0  0  0  0  0  0  0  0  0  0  0  0
    7.8136  -16.3789   26.8276 O   0  0  0  0  0  0  0  0  0  0  0  0
    8.9339  -14.9978   28.2652 O   0  0  0  0  0  0  0  0  0  0  0  0
  2  1  1  6
  2  3  1  0
  2  6  1  0
  4  8  1  0
  4  3  1  0
  5  4  2  0
  6  7  2  0
  9  6  1  0
  9 10  1  0
 10 11  1  1
 11 12  1  0
 12 13  2  0
 14 13  1  0
 15 14  1  0
 16 15  2  0
 16 12  1  0
 17 10  1  0
 17 18  2  0
 20 19  1  6
 20 22  1  0
 21 20  1  0
 22 23  1  6
 22 24  1  0
 23 17  1  0
 24 26  1  0
 25 24  2  0
M  END
$$$$
