DHV.pdb
     RDKit          3D

 26 26  0  0  1  0  0  0  0  0999 V2000
   10.4351  -16.2703   19.2090 N   0  0  0  0  0  0  0  0  0  0  0  0
   11.1524  -15.9970   20.4415 C   0  0  1  0  0  0  0  0  0  0  0  0
   11.9541  -14.7262   20.3057 C   0  0  0  0  0  0  0  0  0  0  0  0
   13.3921  -14.9939   20.0892 C   0  0  0  0  0  0  0  0  0  0  0  0
   13.7698  -15.6018   19.0727 O   0  0  0  0  0  0  0  0  0  0  0  0
   10.1558  -15.9090   21.5408 C   0  0  0  0  0  0  0  0  0  0  0  0
    9.2233  -15.0559   21.5172 O   0  0  0  0  0  0  0  0  0  0  0  0
   14.3148  -14.5696   21.0141 O   0  0  0  0  0  0  0  0  0  0  0  0
   10.1918  -16.7736   22.6768 N   0  0  0  0  0  0  0  0  0  0  0  0
    9.1898  -16.7986   23.7115 C   0  0  1  0  0  0  0  0  0  0  0  0
    8.9903  -18.2158   24.1636 C   0  0  0  0  0  0  0  0  0  0  0  0
    8.0142  -18.3464   25.2688 C   0  0  0  0  0  0  0  0  0  0  0  0
    8.1827  -18.8293   26.5370 C   0  0  0  0  0  0  0  0  0  0  0  0
    7.0033  -18.7472   27.1795 N   0  0  0  0  0  0  0  0  0  0  0  0
    6.0951  -18.2279   26.3578 C   0  0  0  0  0  0  0  0  0  0  0  0
    6.7217  -17.9880   25.1980 N   0  0  0  0  0  0  0  0  0  0  0  0
    9.5466  -15.9001   24.8495 C   0  0  0  0  0  0  0  0  0  0  0  0
   10.7354  -15.8601   25.2551 O   0  0  0  0  0  0  0  0  0  0  0  0
    8.0169  -12.2457   25.3625 C   0  0  0  0  0  0  0  0  0  0  0  0
    8.0580  -12.9907   26.6720 C   0  0  1  0  0  0  0  0  0  0  0  0
    6.6396  -13.3076   27.0651 C   0  0  0  0  0  0  0  0  0  0  0  0
    8.9454  -14.1705   26.5901 C   0  0  2  0  0  0  0  0  0  0  0  0
    8.5972  -15.0776   25.5052 N   0  0  0  0  0  0  0  0  0  0  0  0
    8.9090  -14.8868   27.8997 C   0  0  0  0  0  0  0  0  0  0  0  0
    9.2790  -14.2968   28.9340 O   0  0  0  0  0  0  0  0  0  0  0  0
    8.4655  -16.2111   27.9839 O   0  0  0  0  0  0  0  0  0  0  0  0
  2  1  1  6
  2  3  1  0
  2  6  1  0
  4  8  1  0
  4  3  1  0
  5  4  2  0
  6  7  2  0
  9  6  1  0
  9 10  1  0
 10 11  1  1
 11 12  1  0
 12 13  2  0
 14 13  1  0
 15 14  1  0
 16 15  2  0
 16 12  1  0
 17 10  1  0
 17 18  2  0
 20 19  1  6
 20 22  1  0
 21 20  1  0
 22 23  1  6
 22 24  1  0
 23 17  1  0
 24 26  1  0
 25 24  2  0
M  END
$$$$
