DHV.pdb
     RDKit          3D

 26 26  0  0  1  0  0  0  0  0999 V2000
   14.1449  -18.0675   23.8989 N   0  0  0  0  0  0  0  0  0  0  0  0
   12.7729  -18.3441   24.2852 C   0  0  1  0  0  0  0  0  0  0  0  0
   12.7109  -18.7309   25.7421 C   0  0  0  0  0  0  0  0  0  0  0  0
   13.7102  -19.7641   26.0885 C   0  0  0  0  0  0  0  0  0  0  0  0
   13.4322  -20.6531   26.9119 O   0  0  0  0  0  0  0  0  0  0  0  0
   11.9635  -17.1308   23.9985 C   0  0  0  0  0  0  0  0  0  0  0  0
   12.4398  -15.9702   24.1531 O   0  0  0  0  0  0  0  0  0  0  0  0
   14.9506  -19.7424   25.4988 O   0  0  0  0  0  0  0  0  0  0  0  0
   10.6142  -17.2031   23.5364 N   0  0  0  0  0  0  0  0  0  0  0  0
    9.7664  -16.0586   23.3207 C   0  0  1  0  0  0  0  0  0  0  0  0
    9.0288  -16.2348   22.0255 C   0  0  0  0  0  0  0  0  0  0  0  0
    8.1550  -15.0886   21.6881 C   0  0  0  0  0  0  0  0  0  0  0  0
    6.8010  -15.0412   21.5025 C   0  0  0  0  0  0  0  0  0  0  0  0
    6.4597  -13.7727   21.2106 N   0  0  0  0  0  0  0  0  0  0  0  0
    7.5547  -13.0173   21.2060 C   0  0  0  0  0  0  0  0  0  0  0  0
    8.5802  -13.8288   21.4978 N   0  0  0  0  0  0  0  0  0  0  0  0
    8.8315  -15.8388   24.4641 C   0  0  0  0  0  0  0  0  0  0  0  0
    8.2843  -16.8282   25.0130 O   0  0  0  0  0  0  0  0  0  0  0  0
    8.7112  -12.3661   26.9383 C   0  0  0  0  0  0  0  0  0  0  0  0
    7.4102  -12.8969   26.3932 C   0  0  1  0  0  0  0  0  0  0  0  0
    6.9742  -11.9862   25.2763 C   0  0  0  0  0  0  0  0  0  0  0  0
    7.5310  -14.3191   26.0074 C   0  0  2  0  0  0  0  0  0  0  0  0
    8.5255  -14.5508   24.9690 N   0  0  0  0  0  0  0  0  0  0  0  0
    6.1917  -14.8088   25.5643 C   0  0  0  0  0  0  0  0  0  0  0  0
    6.0019  -15.0768   24.3615 O   0  0  0  0  0  0  0  0  0  0  0  0
    5.1458  -14.9715   26.4794 O   0  0  0  0  0  0  0  0  0  0  0  0
  2  1  1  1
  2  3  1  0
  2  6  1  0
  4  8  1  0
  4  3  1  0
  5  4  2  0
  6  7  2  0
  9  6  1  0
  9 10  1  0
 10 11  1  6
 11 12  1  0
 12 13  2  0
 14 13  1  0
 15 14  1  0
 16 15  2  0
 16 12  1  0
 17 10  1  0
 17 18  2  0
 20 19  1  6
 20 22  1  0
 21 20  1  0
 22 23  1  6
 22 24  1  0
 23 17  1  0
 24 26  1  0
 25 24  2  0
M  END
$$$$
