DHV.pdb
     RDKit          3D

 26 26  0  0  1  0  0  0  0  0999 V2000
   11.1138  -18.4272   20.9657 N   0  0  0  0  0  0  0  0  0  0  0  0
   12.1107  -17.4621   21.3933 C   0  0  1  0  0  0  0  0  0  0  0  0
   12.6617  -16.7207   20.2005 C   0  0  0  0  0  0  0  0  0  0  0  0
   13.6894  -17.5042   19.4821 C   0  0  0  0  0  0  0  0  0  0  0  0
   14.4254  -18.2902   20.1034 O   0  0  0  0  0  0  0  0  0  0  0  0
   11.4687  -16.5432   22.3694 C   0  0  0  0  0  0  0  0  0  0  0  0
   12.0475  -15.4898   22.7608 O   0  0  0  0  0  0  0  0  0  0  0  0
   13.8321  -17.3639   18.1231 O   0  0  0  0  0  0  0  0  0  0  0  0
   10.1737  -16.7927   22.9172 N   0  0  0  0  0  0  0  0  0  0  0  0
    9.5371  -15.9641   23.9089 C   0  0  1  0  0  0  0  0  0  0  0  0
    8.0521  -16.1697   23.8362 C   0  0  0  0  0  0  0  0  0  0  0  0
    7.2874  -15.2211   24.6768 C   0  0  0  0  0  0  0  0  0  0  0  0
    6.3664  -15.4628   25.6584 C   0  0  0  0  0  0  0  0  0  0  0  0
    5.9424  -14.2796   26.1391 N   0  0  0  0  0  0  0  0  0  0  0  0
    6.5660  -13.2983   25.4927 C   0  0  0  0  0  0  0  0  0  0  0  0
    7.3820  -13.8832   24.6053 N   0  0  0  0  0  0  0  0  0  0  0  0
   10.0664  -16.2341   25.2787 C   0  0  0  0  0  0  0  0  0  0  0  0
   10.4496  -17.3938   25.5748 O   0  0  0  0  0  0  0  0  0  0  0  0
   11.4150  -13.1459   27.8841 C   0  0  0  0  0  0  0  0  0  0  0  0
   10.6520  -14.2968   28.4880 C   0  0  1  0  0  0  0  0  0  0  0  0
    9.2647  -13.8091   28.8113 C   0  0  0  0  0  0  0  0  0  0  0  0
   10.6904  -15.4854   27.6095 C   0  0  2  0  0  0  0  0  0  0  0  0
   10.1599  -15.2329   26.2769 N   0  0  0  0  0  0  0  0  0  0  0  0
    9.9351  -16.5914   28.2698 C   0  0  0  0  0  0  0  0  0  0  0  0
   10.3950  -17.1202   29.3011 O   0  0  0  0  0  0  0  0  0  0  0  0
    8.7180  -17.0436   27.7483 O   0  0  0  0  0  0  0  0  0  0  0  0
  2  1  1  6
  2  3  1  0
  2  6  1  0
  4  8  1  0
  4  3  1  0
  5  4  2  0
  6  7  2  0
  9  6  1  0
  9 10  1  0
 10 11  1  1
 11 12  1  0
 12 13  2  0
 14 13  1  0
 15 14  1  0
 16 15  2  0
 16 12  1  0
 17 10  1  0
 17 18  2  0
 20 19  1  6
 20 22  1  0
 21 20  1  0
 22 23  1  6
 22 24  1  0
 23 17  1  0
 24 26  1  0
 25 24  2  0
M  END
$$$$
