DHV.pdb
     RDKit          3D

 26 26  0  0  1  0  0  0  0  0999 V2000
    9.7343  -14.4642   19.3192 N   0  0  0  0  0  0  0  0  0  0  0  0
    8.6196  -13.5571   19.5259 C   0  0  1  0  0  0  0  0  0  0  0  0
    7.6798  -13.6111   18.3469 C   0  0  0  0  0  0  0  0  0  0  0  0
    8.2774  -14.3085   17.1882 C   0  0  0  0  0  0  0  0  0  0  0  0
    8.9471  -15.3424   17.3568 O   0  0  0  0  0  0  0  0  0  0  0  0
    7.9437  -13.9439   20.7920 C   0  0  0  0  0  0  0  0  0  0  0  0
    6.8868  -13.3671   21.1768 O   0  0  0  0  0  0  0  0  0  0  0  0
    8.0925  -13.8132   15.9204 O   0  0  0  0  0  0  0  0  0  0  0  0
    8.4426  -14.9790   21.6399 N   0  0  0  0  0  0  0  0  0  0  0  0
    7.7968  -15.4211   22.8494 C   0  0  1  0  0  0  0  0  0  0  0  0
    7.8262  -16.9208   22.8982 C   0  0  0  0  0  0  0  0  0  0  0  0
    6.9345  -17.5572   21.9026 C   0  0  0  0  0  0  0  0  0  0  0  0
    5.5758  -17.7119   21.9125 C   0  0  0  0  0  0  0  0  0  0  0  0
    5.2166  -18.3552   20.7864 N   0  0  0  0  0  0  0  0  0  0  0  0
    6.3049  -18.6117   20.0656 C   0  0  0  0  0  0  0  0  0  0  0  0
    7.3442  -18.1215   20.7546 N   0  0  0  0  0  0  0  0  0  0  0  0
    8.4210  -14.8159   24.0634 C   0  0  0  0  0  0  0  0  0  0  0  0
    9.6651  -14.6408   24.0956 O   0  0  0  0  0  0  0  0  0  0  0  0
    7.2857  -11.5286   25.7791 C   0  0  0  0  0  0  0  0  0  0  0  0
    7.4197  -12.6061   26.8244 C   0  0  1  0  0  0  0  0  0  0  0  0
    6.0328  -13.0056   27.2530 C   0  0  0  0  0  0  0  0  0  0  0  0
    8.2526  -13.7260   26.3363 C   0  0  2  0  0  0  0  0  0  0  0  0
    7.6693  -14.4231   25.1984 N   0  0  0  0  0  0  0  0  0  0  0  0
    8.4849  -14.6752   27.4653 C   0  0  0  0  0  0  0  0  0  0  0  0
    7.9668  -15.8089   27.4323 O   0  0  0  0  0  0  0  0  0  0  0  0
    9.2759  -14.3114   28.5606 O   0  0  0  0  0  0  0  0  0  0  0  0
  2  1  1  6
  2  3  1  0
  2  6  1  0
  4  8  1  0
  4  3  1  0
  5  4  2  0
  6  7  2  0
  9  6  1  0
  9 10  1  0
 10 11  1  1
 11 12  1  0
 12 13  2  0
 14 13  1  0
 15 14  1  0
 16 15  2  0
 16 12  1  0
 17 10  1  0
 17 18  2  0
 20 19  1  6
 20 22  1  0
 21 20  1  0
 22 23  1  6
 22 24  1  0
 23 17  1  0
 24 26  1  0
 25 24  2  0
M  END
$$$$
