DHV.pdb
     RDKit          3D

 26 26  0  0  1  0  0  0  0  0999 V2000
   12.8954  -16.4980   20.6286 N   0  0  0  0  0  0  0  0  0  0  0  0
   12.3696  -15.1454   20.6780 C   0  0  1  0  0  0  0  0  0  0  0  0
   12.2296  -14.5907   19.2820 C   0  0  0  0  0  0  0  0  0  0  0  0
   13.5392  -14.2725   18.6738 C   0  0  0  0  0  0  0  0  0  0  0  0
   14.5883  -14.4522   19.3162 O   0  0  0  0  0  0  0  0  0  0  0  0
   11.0664  -15.1870   21.3916 C   0  0  0  0  0  0  0  0  0  0  0  0
   10.3102  -14.1752   21.4405 O   0  0  0  0  0  0  0  0  0  0  0  0
   13.5979  -13.7763   17.3943 O   0  0  0  0  0  0  0  0  0  0  0  0
   10.5959  -16.3596   22.0571 N   0  0  0  0  0  0  0  0  0  0  0  0
    9.3672  -16.4318   22.8056 C   0  0  1  0  0  0  0  0  0  0  0  0
    9.0533  -17.8715   23.0907 C   0  0  0  0  0  0  0  0  0  0  0  0
    7.8408  -18.0539   23.9200 C   0  0  0  0  0  0  0  0  0  0  0  0
    7.7187  -18.2302   25.2705 C   0  0  0  0  0  0  0  0  0  0  0  0
    6.4109  -18.3519   25.5632 N   0  0  0  0  0  0  0  0  0  0  0  0
    5.7030  -18.2581   24.4408 C   0  0  0  0  0  0  0  0  0  0  0  0
    6.5836  -18.0769   23.4474 N   0  0  0  0  0  0  0  0  0  0  0  0
    9.4333  -15.6216   24.0581 C   0  0  0  0  0  0  0  0  0  0  0  0
   10.5425  -15.4476   24.6228 O   0  0  0  0  0  0  0  0  0  0  0  0
    5.9104  -13.8733   25.9303 C   0  0  0  0  0  0  0  0  0  0  0  0
    7.2770  -13.2398   25.9836 C   0  0  1  0  0  0  0  0  0  0  0  0
    7.3421  -12.3915   27.2258 C   0  0  0  0  0  0  0  0  0  0  0  0
    8.3443  -14.2583   25.8851 C   0  0  2  0  0  0  0  0  0  0  0  0
    8.2906  -15.0300   24.6511 N   0  0  0  0  0  0  0  0  0  0  0  0
    8.2514  -15.1629   27.0694 C   0  0  0  0  0  0  0  0  0  0  0  0
    7.8051  -16.3185   26.9273 O   0  0  0  0  0  0  0  0  0  0  0  0
    8.6580  -14.7330   28.3373 O   0  0  0  0  0  0  0  0  0  0  0  0
  2  1  1  6
  2  3  1  0
  2  6  1  0
  4  8  1  0
  4  3  1  0
  5  4  2  0
  6  7  2  0
  9  6  1  0
  9 10  1  0
 10 11  1  1
 11 12  1  0
 12 13  2  0
 14 13  1  0
 15 14  1  0
 16 15  2  0
 16 12  1  0
 17 10  1  0
 17 18  2  0
 20 19  1  1
 20 22  1  0
 21 20  1  0
 22 23  1  6
 22 24  1  0
 23 17  1  0
 24 26  1  0
 25 24  2  0
M  END
$$$$
