DHV.pdb
     RDKit          3D

 26 26  0  0  1  0  0  0  0  0999 V2000
    8.3319  -18.8900   19.2449 N   0  0  0  0  0  0  0  0  0  0  0  0
    7.5444  -18.7308   20.4543 C   0  0  1  0  0  0  0  0  0  0  0  0
    7.5175  -20.0240   21.2310 C   0  0  0  0  0  0  0  0  0  0  0  0
    6.9691  -21.1423   20.4344 C   0  0  0  0  0  0  0  0  0  0  0  0
    7.7340  -21.9524   19.8827 O   0  0  0  0  0  0  0  0  0  0  0  0
    8.1392  -17.6215   21.2448 C   0  0  0  0  0  0  0  0  0  0  0  0
    9.3695  -17.6056   21.5345 O   0  0  0  0  0  0  0  0  0  0  0  0
    5.6095  -21.2878   20.3028 O   0  0  0  0  0  0  0  0  0  0  0  0
    7.3647  -16.5193   21.7188 N   0  0  0  0  0  0  0  0  0  0  0  0
    7.8988  -15.4166   22.4766 C   0  0  1  0  0  0  0  0  0  0  0  0
    7.2063  -14.1537   22.0547 C   0  0  0  0  0  0  0  0  0  0  0  0
    7.5295  -13.7427   20.6698 C   0  0  0  0  0  0  0  0  0  0  0  0
    8.3077  -12.7130   20.2181 C   0  0  0  0  0  0  0  0  0  0  0  0
    8.3021  -12.7391   18.8728 N   0  0  0  0  0  0  0  0  0  0  0  0
    7.5453  -13.7523   18.4601 C   0  0  0  0  0  0  0  0  0  0  0  0
    7.0804  -14.3559   19.5623 N   0  0  0  0  0  0  0  0  0  0  0  0
    7.7814  -15.6470   23.9472 C   0  0  0  0  0  0  0  0  0  0  0  0
    6.7405  -15.2798   24.5483 O   0  0  0  0  0  0  0  0  0  0  0  0
    7.8387  -18.7623   27.3786 C   0  0  0  0  0  0  0  0  0  0  0  0
    7.9208  -18.1581   26.0003 C   0  0  1  0  0  0  0  0  0  0  0  0
    6.5326  -18.1536   25.4172 C   0  0  0  0  0  0  0  0  0  0  0  0
    8.5713  -16.8308   26.0346 C   0  0  2  0  0  0  0  0  0  0  0  0
    8.8003  -16.2684   24.7108 N   0  0  0  0  0  0  0  0  0  0  0  0
    9.8596  -16.9499   26.7799 C   0  0  0  0  0  0  0  0  0  0  0  0
    9.8499  -17.3250   27.9689 O   0  0  0  0  0  0  0  0  0  0  0  0
   11.0786  -16.6467   26.1635 O   0  0  0  0  0  0  0  0  0  0  0  0
  2  1  1  6
  2  3  1  0
  2  6  1  0
  4  8  1  0
  4  3  1  0
  5  4  2  0
  6  7  2  0
  9  6  1  0
  9 10  1  0
 10 11  1  6
 11 12  1  0
 12 13  2  0
 14 13  1  0
 15 14  1  0
 16 15  2  0
 16 12  1  0
 17 10  1  0
 17 18  2  0
 20 19  1  1
 20 22  1  0
 21 20  1  0
 22 23  1  6
 22 24  1  0
 23 17  1  0
 24 26  1  0
 25 24  2  0
M  END
$$$$
