DHV.pdb
     RDKit          3D

 26 26  0  0  1  0  0  0  0  0999 V2000
   12.7727  -14.7412   19.3891 N   0  0  0  0  0  0  0  0  0  0  0  0
   12.2781  -15.4077   20.5804 C   0  0  1  0  0  0  0  0  0  0  0  0
   13.3991  -15.6006   21.5715 C   0  0  0  0  0  0  0  0  0  0  0  0
   14.4587  -16.4901   21.0498 C   0  0  0  0  0  0  0  0  0  0  0  0
   14.1908  -17.3436   20.1864 O   0  0  0  0  0  0  0  0  0  0  0  0
   11.1769  -14.5825   21.1423 C   0  0  0  0  0  0  0  0  0  0  0  0
   11.2936  -13.3307   21.2741 O   0  0  0  0  0  0  0  0  0  0  0  0
   15.7440  -16.3739   21.5202 O   0  0  0  0  0  0  0  0  0  0  0  0
    9.9348  -15.1484   21.5624 N   0  0  0  0  0  0  0  0  0  0  0  0
    8.7985  -14.3797   22.0017 C   0  0  1  0  0  0  0  0  0  0  0  0
    7.6087  -14.7444   21.1627 C   0  0  0  0  0  0  0  0  0  0  0  0
    7.7877  -14.4352   19.7262 C   0  0  0  0  0  0  0  0  0  0  0  0
    8.0021  -13.2355   19.1060 C   0  0  0  0  0  0  0  0  0  0  0  0
    8.1019  -13.4570   17.7825 N   0  0  0  0  0  0  0  0  0  0  0  0
    7.9574  -14.7583   17.5467 C   0  0  0  0  0  0  0  0  0  0  0  0
    7.7668  -15.3435   18.7369 N   0  0  0  0  0  0  0  0  0  0  0  0
    8.5287  -14.5728   23.4576 C   0  0  0  0  0  0  0  0  0  0  0  0
    9.0294  -15.5602   24.0524 O   0  0  0  0  0  0  0  0  0  0  0  0
    6.3278  -13.0558   27.6684 C   0  0  0  0  0  0  0  0  0  0  0  0
    6.5243  -12.8629   26.1866 C   0  0  1  0  0  0  0  0  0  0  0  0
    6.9345  -11.4321   25.9599 C   0  0  0  0  0  0  0  0  0  0  0  0
    7.4660  -13.8610   25.6362 C   0  0  2  0  0  0  0  0  0  0  0  0
    7.7241  -13.6849   24.2137 N   0  0  0  0  0  0  0  0  0  0  0  0
    6.9233  -15.2265   25.9019 C   0  0  0  0  0  0  0  0  0  0  0  0
    6.3143  -15.8328   24.9986 O   0  0  0  0  0  0  0  0  0  0  0  0
    7.0880  -15.8362   27.1504 O   0  0  0  0  0  0  0  0  0  0  0  0
  2  1  1  6
  2  3  1  0
  2  6  1  0
  4  8  1  0
  4  3  1  0
  5  4  2  0
  6  7  2  0
  9  6  1  0
  9 10  1  0
 10 11  1  6
 11 12  1  0
 12 13  2  0
 14 13  1  0
 15 14  1  0
 16 15  2  0
 16 12  1  0
 17 10  1  0
 17 18  2  0
 20 19  1  1
 20 22  1  0
 21 20  1  0
 22 23  1  6
 22 24  1  0
 23 17  1  0
 24 26  1  0
 25 24  2  0
M  END
$$$$
