IAI.pdb
     RDKit          3D

 22 21  0  0  1  0  0  0  0  0999 V2000
    7.7922  -12.1294   18.6520 C   0  0  0  0  0  0  0  0  0  0  0  0
    7.9623  -13.6512   18.5912 C   0  0  0  0  0  0  0  0  0  0  0  0
    7.7902  -14.1825   19.9777 C   0  0  2  0  0  0  0  0  0  0  0  0
    8.7784  -13.4778   20.8828 C   0  0  0  0  0  0  0  0  0  0  0  0
    7.8603  -15.6680   20.1102 C   0  0  2  0  0  0  0  0  0  0  0  0
    6.8529  -16.2243   19.2265 N   0  0  0  0  0  0  0  0  0  0  0  0
    7.6685  -16.1304   21.5088 C   0  0  0  0  0  0  0  0  0  0  0  0
    6.5596  -15.9830   22.0746 O   0  0  0  0  0  0  0  0  0  0  0  0
    9.1208  -18.5103   23.8202 C   0  0  0  0  0  0  0  0  0  0  0  0
    8.4997  -17.1270   23.6494 C   0  0  2  0  0  0  0  0  0  0  0  0
    8.6900  -16.7476   22.2711 N   0  0  0  0  0  0  0  0  0  0  0  0
    9.0896  -16.1498   24.5915 C   0  0  0  0  0  0  0  0  0  0  0  0
   10.1898  -15.6269   24.3145 O   0  0  0  0  0  0  0  0  0  0  0  0
    6.2544  -12.1552   26.4324 C   0  0  0  0  0  0  0  0  0  0  0  0
    7.3884  -13.0253   26.0379 C   0  0  0  0  0  0  0  0  0  0  0  0
    8.1022  -13.7262   27.1376 C   0  0  2  0  0  0  0  0  0  0  0  0
    8.8007  -12.7059   28.0585 C   0  0  0  0  0  0  0  0  0  0  0  0
    9.0428  -14.8150   26.7521 C   0  0  2  0  0  0  0  0  0  0  0  0
    8.4723  -15.7640   25.8099 N   0  0  0  0  0  0  0  0  0  0  0  0
    9.7858  -15.4578   27.8370 C   0  0  0  0  0  0  0  0  0  0  0  0
    9.5771  -16.6353   28.2316 O   0  0  0  0  0  0  0  0  0  0  0  0
   10.8165  -14.8020   28.5472 O   0  0  0  0  0  0  0  0  0  0  0  0
  2  1  1  0
  3  5  1  0
  3  2  1  0
  3  4  1  1
  5  6  1  6
  7 11  1  0
  7  5  1  0
  8  7  2  0
 10  9  1  6
 10 12  1  0
 10 11  1  0
 12 19  1  0
 13 12  2  0
 14 15  1  0
 16 15  1  0
 16 17  1  6
 18 20  1  0
 18 16  1  0
 18 19  1  1
 20 22  1  0
 21 20  2  0
M  END
$$$$
