IAI.pdb
     RDKit          3D

 22 21  0  0  1  0  0  0  0  0999 V2000
    8.9860  -11.7482   19.0771 C   0  0  0  0  0  0  0  0  0  0  0  0
    9.3510  -13.2066   19.3740 C   0  0  0  0  0  0  0  0  0  0  0  0
    8.1887  -14.0560   18.9715 C   0  0  2  0  0  0  0  0  0  0  0  0
    6.9449  -13.5054   19.6363 C   0  0  0  0  0  0  0  0  0  0  0  0
    8.3530  -15.5218   19.2030 C   0  0  2  0  0  0  0  0  0  0  0  0
    7.2691  -16.1891   18.5064 N   0  0  0  0  0  0  0  0  0  0  0  0
    8.3702  -15.8780   20.6450 C   0  0  0  0  0  0  0  0  0  0  0  0
    7.3331  -15.7510   21.3378 O   0  0  0  0  0  0  0  0  0  0  0  0
   10.6909  -17.7722   22.8443 C   0  0  0  0  0  0  0  0  0  0  0  0
    9.4693  -16.8763   22.6603 C   0  0  2  0  0  0  0  0  0  0  0  0
    9.5195  -16.3682   21.3115 N   0  0  0  0  0  0  0  0  0  0  0  0
    9.4348  -15.7955   23.6709 C   0  0  0  0  0  0  0  0  0  0  0  0
   10.2065  -14.8213   23.5449 O   0  0  0  0  0  0  0  0  0  0  0  0
    6.2586  -11.8630   26.7916 C   0  0  0  0  0  0  0  0  0  0  0  0
    7.3715  -12.8378   26.8915 C   0  0  0  0  0  0  0  0  0  0  0  0
    7.3966  -13.9241   25.8768 C   0  0  2  0  0  0  0  0  0  0  0  0
    6.1063  -14.7640   25.9594 C   0  0  0  0  0  0  0  0  0  0  0  0
    8.5965  -14.8065   25.8551 C   0  0  2  0  0  0  0  0  0  0  0  0
    8.5648  -15.7980   24.7922 N   0  0  0  0  0  0  0  0  0  0  0  0
    9.0338  -15.3545   27.1398 C   0  0  0  0  0  0  0  0  0  0  0  0
    9.3671  -14.6497   28.1287 O   0  0  0  0  0  0  0  0  0  0  0  0
    9.1223  -16.7434   27.3849 O   0  0  0  0  0  0  0  0  0  0  0  0
  2  1  1  0
  3  5  1  0
  3  2  1  0
  3  4  1  1
  5  6  1  6
  7 11  1  0
  7  5  1  0
  8  7  2  0
 10  9  1  1
 10 12  1  0
 10 11  1  0
 12 19  1  0
 13 12  2  0
 14 15  1  0
 16 15  1  0
 16 17  1  1
 18 20  1  0
 18 16  1  0
 18 19  1  6
 20 22  1  0
 21 20  2  0
M  END
$$$$
