IAI.pdb
     RDKit          3D

 22 21  0  0  1  0  0  0  0  0999 V2000
    7.8815  -12.0706   18.3236 C   0  0  0  0  0  0  0  0  0  0  0  0
    8.1190  -13.5844   18.3028 C   0  0  0  0  0  0  0  0  0  0  0  0
    7.7662  -14.1175   19.6540 C   0  0  2  0  0  0  0  0  0  0  0  0
    8.5870  -13.3751   20.6870 C   0  0  0  0  0  0  0  0  0  0  0  0
    7.8684  -15.5991   19.8072 C   0  0  2  0  0  0  0  0  0  0  0  0
    6.9918  -16.1934   18.8154 N   0  0  0  0  0  0  0  0  0  0  0  0
    7.5271  -16.0605   21.1774 C   0  0  0  0  0  0  0  0  0  0  0  0
    6.4021  -15.8027   21.6670 O   0  0  0  0  0  0  0  0  0  0  0  0
    8.6822  -18.4874   23.6579 C   0  0  0  0  0  0  0  0  0  0  0  0
    8.1302  -17.0929   23.3766 C   0  0  2  0  0  0  0  0  0  0  0  0
    8.4184  -16.7972   21.9948 N   0  0  0  0  0  0  0  0  0  0  0  0
    8.7023  -16.0886   24.3011 C   0  0  0  0  0  0  0  0  0  0  0  0
    9.8741  -15.6951   24.1208 O   0  0  0  0  0  0  0  0  0  0  0  0
    6.0461  -11.8826   27.3490 C   0  0  0  0  0  0  0  0  0  0  0  0
    6.4664  -13.1540   26.7122 C   0  0  0  0  0  0  0  0  0  0  0  0
    7.8789  -13.2333   26.2552 C   0  0  2  0  0  0  0  0  0  0  0  0
    8.0193  -12.6319   24.8425 C   0  0  0  0  0  0  0  0  0  0  0  0
    8.5429  -14.5647   26.3270 C   0  0  2  0  0  0  0  0  0  0  0  0
    7.9900  -15.5364   25.3974 N   0  0  0  0  0  0  0  0  0  0  0  0
    8.7731  -15.1143   27.6638 C   0  0  0  0  0  0  0  0  0  0  0  0
    8.3112  -16.2165   28.0607 O   0  0  0  0  0  0  0  0  0  0  0  0
    9.5444  -14.4445   28.6402 O   0  0  0  0  0  0  0  0  0  0  0  0
  2  1  1  0
  3  5  1  0
  3  2  1  0
  3  4  1  1
  5  6  1  6
  7 11  1  0
  7  5  1  0
  8  7  2  0
 10  9  1  1
 10 12  1  0
 10 11  1  0
 12 19  1  0
 13 12  2  0
 14 15  1  0
 16 15  1  0
 16 17  1  6
 18 20  1  0
 18 16  1  0
 18 19  1  6
 20 22  1  0
 21 20  2  0
M  END
$$$$
