IAI.pdb
     RDKit          3D

 22 21  0  0  1  0  0  0  0  0999 V2000
    7.8403  -12.0243   18.4210 C   0  0  0  0  0  0  0  0  0  0  0  0
    8.0619  -13.5395   18.3644 C   0  0  0  0  0  0  0  0  0  0  0  0
    7.8108  -14.0860   19.7329 C   0  0  2  0  0  0  0  0  0  0  0  0
    8.6953  -13.3425   20.7112 C   0  0  0  0  0  0  0  0  0  0  0  0
    7.9383  -15.5675   19.8669 C   0  0  2  0  0  0  0  0  0  0  0  0
    6.9685  -16.1634   18.9670 N   0  0  0  0  0  0  0  0  0  0  0  0
    7.7425  -16.0378   21.2623 C   0  0  0  0  0  0  0  0  0  0  0  0
    6.6025  -16.0077   21.7831 O   0  0  0  0  0  0  0  0  0  0  0  0
    9.3201  -18.2529   23.6399 C   0  0  0  0  0  0  0  0  0  0  0  0
    8.5901  -16.9274   23.4432 C   0  0  2  0  0  0  0  0  0  0  0  0
    8.7938  -16.5346   22.0705 N   0  0  0  0  0  0  0  0  0  0  0  0
    9.0631  -15.9027   24.4007 C   0  0  0  0  0  0  0  0  0  0  0  0
   10.1746  -15.3640   24.2140 O   0  0  0  0  0  0  0  0  0  0  0  0
    5.5697  -12.4405   27.3861 C   0  0  0  0  0  0  0  0  0  0  0  0
    6.4273  -13.6073   27.0669 C   0  0  0  0  0  0  0  0  0  0  0  0
    7.7886  -13.3096   26.5489 C   0  0  2  0  0  0  0  0  0  0  0  0
    7.6982  -12.5676   25.2005 C   0  0  0  0  0  0  0  0  0  0  0  0
    8.7454  -14.4477   26.4583 C   0  0  2  0  0  0  0  0  0  0  0  0
    8.3195  -15.4879   25.5361 N   0  0  0  0  0  0  0  0  0  0  0  0
    9.2618  -14.9756   27.7219 C   0  0  0  0  0  0  0  0  0  0  0  0
    9.8051  -14.2679   28.6106 O   0  0  0  0  0  0  0  0  0  0  0  0
    9.1954  -16.3464   28.0585 O   0  0  0  0  0  0  0  0  0  0  0  0
  2  1  1  0
  3  5  1  0
  3  2  1  0
  3  4  1  1
  5  6  1  6
  7 11  1  0
  7  5  1  0
  8  7  2  0
 10  9  1  1
 10 12  1  0
 10 11  1  0
 12 19  1  0
 13 12  2  0
 14 15  1  0
 16 15  1  0
 16 17  1  6
 18 20  1  0
 18 16  1  0
 18 19  1  1
 20 22  1  0
 21 20  2  0
M  END
$$$$
