IAI.pdb
     RDKit          3D

 22 21  0  0  1  0  0  0  0  0999 V2000
   13.1215  -20.3008   20.8711 C   0  0  0  0  0  0  0  0  0  0  0  0
   12.1174  -19.6822   19.8926 C   0  0  0  0  0  0  0  0  0  0  0  0
   11.4158  -18.5709   20.6047 C   0  0  2  0  0  0  0  0  0  0  0  0
   10.9568  -19.0851   21.9527 C   0  0  0  0  0  0  0  0  0  0  0  0
   10.3121  -17.9148   19.8429 C   0  0  2  0  0  0  0  0  0  0  0  0
   10.9180  -17.2306   18.7159 N   0  0  0  0  0  0  0  0  0  0  0  0
    9.5132  -16.9809   20.6773 C   0  0  0  0  0  0  0  0  0  0  0  0
   10.0031  -15.8864   21.0430 O   0  0  0  0  0  0  0  0  0  0  0  0
    5.9481  -16.7095   21.7089 C   0  0  0  0  0  0  0  0  0  0  0  0
    7.4116  -16.3039   21.8569 C   0  0  2  0  0  0  0  0  0  0  0  0
    8.1901  -17.2544   21.1015 N   0  0  0  0  0  0  0  0  0  0  0  0
    7.8152  -16.2460   23.2796 C   0  0  0  0  0  0  0  0  0  0  0  0
    8.4636  -17.1965   23.7662 O   0  0  0  0  0  0  0  0  0  0  0  0
    6.3331  -11.9258   27.1181 C   0  0  0  0  0  0  0  0  0  0  0  0
    6.4532  -13.0741   26.1877 C   0  0  0  0  0  0  0  0  0  0  0  0
    7.7724  -13.7582   26.1433 C   0  0  2  0  0  0  0  0  0  0  0  0
    8.8223  -12.8535   25.4678 C   0  0  0  0  0  0  0  0  0  0  0  0
    7.8081  -15.1287   25.5608 C   0  0  2  0  0  0  0  0  0  0  0  0
    7.5058  -15.1597   24.1390 N   0  0  0  0  0  0  0  0  0  0  0  0
    7.1296  -16.1828   26.3161 C   0  0  0  0  0  0  0  0  0  0  0  0
    6.0393  -16.7078   25.9675 O   0  0  0  0  0  0  0  0  0  0  0  0
    7.6467  -16.7098   27.5209 O   0  0  0  0  0  0  0  0  0  0  0  0
  2  1  1  0
  3  5  1  0
  3  2  1  0
  3  4  1  1
  5  6  1  6
  7 11  1  0
  7  5  1  0
  8  7  2  0
 10  9  1  1
 10 12  1  0
 10 11  1  0
 12 19  1  0
 13 12  2  0
 14 15  1  0
 16 15  1  0
 16 17  1  6
 18 20  1  0
 18 16  1  0
 18 19  1  6
 20 22  1  0
 21 20  2  0
M  END
$$$$
