IAI.pdb
     RDKit          3D

 22 21  0  0  1  0  0  0  0  0999 V2000
    6.6728  -21.9626   25.1198 C   0  0  0  0  0  0  0  0  0  0  0  0
    7.4442  -21.4047   23.9190 C   0  0  0  0  0  0  0  0  0  0  0  0
    7.5396  -19.9227   24.0900 C   0  0  2  0  0  0  0  0  0  0  0  0
    6.1408  -19.3749   24.2779 C   0  0  0  0  0  0  0  0  0  0  0  0
    8.2926  -19.1996   23.0227 C   0  0  2  0  0  0  0  0  0  0  0  0
    9.5866  -19.8445   22.9001 N   0  0  0  0  0  0  0  0  0  0  0  0
    8.4356  -17.7477   23.3028 C   0  0  0  0  0  0  0  0  0  0  0  0
    9.1360  -17.3581   24.2668 O   0  0  0  0  0  0  0  0  0  0  0  0
    7.3811  -14.5785   21.6147 C   0  0  0  0  0  0  0  0  0  0  0  0
    8.0297  -15.3358   22.7698 C   0  0  2  0  0  0  0  0  0  0  0  0
    7.8122  -16.7406   22.5266 N   0  0  0  0  0  0  0  0  0  0  0  0
    7.4879  -14.8973   24.0754 C   0  0  0  0  0  0  0  0  0  0  0  0
    6.3807  -15.3365   24.4519 O   0  0  0  0  0  0  0  0  0  0  0  0
   10.6141  -13.9599   28.5671 C   0  0  0  0  0  0  0  0  0  0  0  0
    9.5002  -14.3018   27.6500 C   0  0  0  0  0  0  0  0  0  0  0  0
    8.6309  -13.1779   27.2123 C   0  0  2  0  0  0  0  0  0  0  0  0
    7.9900  -12.4894   28.4339 C   0  0  0  0  0  0  0  0  0  0  0  0
    7.6010  -13.4778   26.1788 C   0  0  2  0  0  0  0  0  0  0  0  0
    8.1597  -13.9941   24.9398 N   0  0  0  0  0  0  0  0  0  0  0  0
    6.5681  -12.4632   25.9650 C   0  0  0  0  0  0  0  0  0  0  0  0
    6.5791  -11.6373   25.0144 O   0  0  0  0  0  0  0  0  0  0  0  0
    5.4528  -12.3196   26.8207 O   0  0  0  0  0  0  0  0  0  0  0  0
  2  1  1  0
  3  5  1  0
  3  2  1  0
  3  4  1  6
  5  6  1  1
  7 11  1  0
  7  5  1  0
  8  7  2  0
 10  9  1  6
 10 12  1  0
 10 11  1  0
 12 19  1  0
 13 12  2  0
 14 15  1  0
 16 15  1  0
 16 17  1  1
 18 20  1  0
 18 16  1  0
 18 19  1  6
 20 22  1  0
 21 20  2  0
M  END
$$$$
