IAI.pdb
     RDKit          3D

 22 21  0  0  1  0  0  0  0  0999 V2000
    7.9389  -12.2006   18.1639 C   0  0  0  0  0  0  0  0  0  0  0  0
    8.0232  -13.7301   18.2089 C   0  0  0  0  0  0  0  0  0  0  0  0
    7.8338  -14.1531   19.6301 C   0  0  2  0  0  0  0  0  0  0  0  0
    8.8658  -13.4417   20.4792 C   0  0  0  0  0  0  0  0  0  0  0  0
    7.8247  -15.6273   19.8662 C   0  0  2  0  0  0  0  0  0  0  0  0
    6.7422  -16.1807   19.0742 N   0  0  0  0  0  0  0  0  0  0  0  0
    7.6795  -15.9789   21.3021 C   0  0  0  0  0  0  0  0  0  0  0  0
    6.6179  -15.7102   21.9123 O   0  0  0  0  0  0  0  0  0  0  0  0
    9.3383  -18.2197   23.7013 C   0  0  0  0  0  0  0  0  0  0  0  0
    8.5298  -16.9509   23.4466 C   0  0  2  0  0  0  0  0  0  0  0  0
    8.6953  -16.6192   22.0528 N   0  0  0  0  0  0  0  0  0  0  0  0
    8.9520  -15.8518   24.3434 C   0  0  0  0  0  0  0  0  0  0  0  0
   10.0532  -15.2960   24.1460 O   0  0  0  0  0  0  0  0  0  0  0  0
    5.5883  -12.2159   27.5665 C   0  0  0  0  0  0  0  0  0  0  0  0
    6.2614  -13.4035   26.9875 C   0  0  0  0  0  0  0  0  0  0  0  0
    7.5492  -13.1611   26.2855 C   0  0  2  0  0  0  0  0  0  0  0  0
    7.2908  -12.6670   24.8481 C   0  0  0  0  0  0  0  0  0  0  0  0
    8.5441  -14.2697   26.2883 C   0  0  2  0  0  0  0  0  0  0  0  0
    8.1703  -15.3831   25.4312 N   0  0  0  0  0  0  0  0  0  0  0  0
    9.0529  -14.6942   27.5932 C   0  0  0  0  0  0  0  0  0  0  0  0
    9.5664  -13.9126   28.4366 O   0  0  0  0  0  0  0  0  0  0  0  0
    9.0125  -16.0389   28.0258 O   0  0  0  0  0  0  0  0  0  0  0  0
  2  1  1  0
  3  5  1  0
  3  2  1  0
  3  4  1  1
  5  6  1  6
  7 11  1  0
  7  5  1  0
  8  7  2  0
 10  9  1  1
 10 12  1  0
 10 11  1  0
 12 19  1  0
 13 12  2  0
 14 15  1  0
 16 15  1  0
 16 17  1  6
 18 20  1  0
 18 16  1  0
 18 19  1  1
 20 22  1  0
 21 20  2  0
M  END
$$$$
