IAI.pdb
     RDKit          3D

 22 21  0  0  1  0  0  0  0  0999 V2000
   15.8727  -18.8746   20.5587 C   0  0  0  0  0  0  0  0  0  0  0  0
   14.4945  -18.5866   19.9538 C   0  0  0  0  0  0  0  0  0  0  0  0
   13.6453  -17.9844   21.0265 C   0  0  2  0  0  0  0  0  0  0  0  0
   13.7248  -18.8723   22.2502 C   0  0  0  0  0  0  0  0  0  0  0  0
   12.2362  -17.6817   20.6368 C   0  0  2  0  0  0  0  0  0  0  0  0
   12.2904  -16.8208   19.4701 N   0  0  0  0  0  0  0  0  0  0  0  0
   11.4573  -17.0556   21.7359 C   0  0  0  0  0  0  0  0  0  0  0  0
   11.7840  -15.9284   22.1768 O   0  0  0  0  0  0  0  0  0  0  0  0
    8.1847  -17.6523   23.3787 C   0  0  0  0  0  0  0  0  0  0  0  0
    9.5776  -17.0292   23.3888 C   0  0  2  0  0  0  0  0  0  0  0  0
   10.3321  -17.6684   22.3390 N   0  0  0  0  0  0  0  0  0  0  0  0
   10.2222  -17.1684   24.7138 C   0  0  0  0  0  0  0  0  0  0  0  0
   11.0273  -18.1049   24.9022 O   0  0  0  0  0  0  0  0  0  0  0  0
    9.6969  -13.2113   29.0994 C   0  0  0  0  0  0  0  0  0  0  0  0
    9.5224  -14.4248   28.2654 C   0  0  0  0  0  0  0  0  0  0  0  0
   10.7647  -15.0994   27.8054 C   0  0  2  0  0  0  0  0  0  0  0  0
   11.6205  -14.1307   26.9650 C   0  0  0  0  0  0  0  0  0  0  0  0
   10.6100  -16.4050   27.1052 C   0  0  2  0  0  0  0  0  0  0  0  0
    9.9781  -16.2893   25.8009 N   0  0  0  0  0  0  0  0  0  0  0  0
   10.0909  -17.5200   27.8987 C   0  0  0  0  0  0  0  0  0  0  0  0
   10.6699  -17.9917   28.9126 O   0  0  0  0  0  0  0  0  0  0  0  0
    8.8771  -18.1744   27.5900 O   0  0  0  0  0  0  0  0  0  0  0  0
  2  1  1  0
  3  5  1  0
  3  2  1  0
  3  4  1  1
  5  6  1  6
  7 11  1  0
  7  5  1  0
  8  7  2  0
 10  9  1  1
 10 12  1  0
 10 11  1  0
 12 19  1  0
 13 12  2  0
 14 15  1  0
 16 15  1  0
 16 17  1  6
 18 20  1  0
 18 16  1  0
 18 19  1  6
 20 22  1  0
 21 20  2  0
M  END
$$$$
