IAI.pdb
     RDKit          3D

 22 21  0  0  1  0  0  0  0  0999 V2000
   10.9120  -13.8564   29.6915 C   0  0  0  0  0  0  0  0  0  0  0  0
   10.8969  -15.3853   29.7952 C   0  0  0  0  0  0  0  0  0  0  0  0
   10.3796  -15.9226   28.4997 C   0  0  2  0  0  0  0  0  0  0  0  0
    9.2211  -15.0555   28.0543 C   0  0  0  0  0  0  0  0  0  0  0  0
   10.0334  -17.3749   28.4985 C   0  0  2  0  0  0  0  0  0  0  0  0
   11.2156  -18.0968   28.9304 N   0  0  0  0  0  0  0  0  0  0  0  0
    9.5613  -17.8525   27.1736 C   0  0  0  0  0  0  0  0  0  0  0  0
   10.3669  -17.9605   26.2191 O   0  0  0  0  0  0  0  0  0  0  0  0
    6.4433  -19.3783   25.8237 C   0  0  0  0  0  0  0  0  0  0  0  0
    7.7851  -18.6816   25.6166 C   0  0  2  0  0  0  0  0  0  0  0  0
    8.2159  -18.2060   26.9082 N   0  0  0  0  0  0  0  0  0  0  0  0
    7.6805  -17.5932   24.6192 C   0  0  0  0  0  0  0  0  0  0  0  0
    7.4310  -17.8814   23.4296 O   0  0  0  0  0  0  0  0  0  0  0  0
    7.2178  -11.7911   25.8696 C   0  0  0  0  0  0  0  0  0  0  0  0
    7.8663  -13.0401   25.4024 C   0  0  0  0  0  0  0  0  0  0  0  0
    7.0495  -13.9285   24.5342 C   0  0  2  0  0  0  0  0  0  0  0  0
    5.7382  -14.3153   25.2467 C   0  0  0  0  0  0  0  0  0  0  0  0
    7.7193  -15.1362   23.9760 C   0  0  2  0  0  0  0  0  0  0  0  0
    7.8491  -16.2201   24.9363 N   0  0  0  0  0  0  0  0  0  0  0  0
    8.9361  -14.9119   23.1941 C   0  0  0  0  0  0  0  0  0  0  0  0
   10.0581  -15.4063   23.4811 O   0  0  0  0  0  0  0  0  0  0  0  0
    8.9574  -14.1076   22.0324 O   0  0  0  0  0  0  0  0  0  0  0  0
  2  1  1  0
  3  5  1  0
  3  2  1  0
  3  4  1  1
  5  6  1  6
  7 11  1  0
  7  5  1  0
  8  7  2  0
 10  9  1  1
 10 12  1  0
 10 11  1  0
 12 19  1  0
 13 12  2  0
 14 15  1  0
 16 15  1  0
 16 17  1  1
 18 20  1  0
 18 16  1  0
 18 19  1  1
 20 22  1  0
 21 20  2  0
M  END
$$$$
