IAI.pdb
     RDKit          3D

 22 21  0  0  1  0  0  0  0  0999 V2000
    7.7219  -11.8880   19.2063 C   0  0  0  0  0  0  0  0  0  0  0  0
    7.8986  -13.4016   19.0448 C   0  0  0  0  0  0  0  0  0  0  0  0
    7.8549  -14.0114   20.4089 C   0  0  2  0  0  0  0  0  0  0  0  0
    8.9533  -13.3878   21.2437 C   0  0  0  0  0  0  0  0  0  0  0  0
    7.8918  -15.5034   20.4476 C   0  0  2  0  0  0  0  0  0  0  0  0
    6.7459  -15.9793   19.6954 N   0  0  0  0  0  0  0  0  0  0  0  0
    7.8929  -16.0431   21.8315 C   0  0  0  0  0  0  0  0  0  0  0  0
    6.8815  -15.9103   22.5604 O   0  0  0  0  0  0  0  0  0  0  0  0
    9.8012  -18.4660   23.8159 C   0  0  0  0  0  0  0  0  0  0  0  0
    9.0049  -17.1651   23.7734 C   0  0  2  0  0  0  0  0  0  0  0  0
    8.9982  -16.7205   22.4015 N   0  0  0  0  0  0  0  0  0  0  0  0
    9.5726  -16.1537   24.6928 C   0  0  0  0  0  0  0  0  0  0  0  0
   10.5916  -15.5204   24.3447 O   0  0  0  0  0  0  0  0  0  0  0  0
    6.3655  -12.6533   26.6885 C   0  0  0  0  0  0  0  0  0  0  0  0
    7.6531  -13.2410   26.2465 C   0  0  0  0  0  0  0  0  0  0  0  0
    8.5003  -13.8555   27.3023 C   0  0  2  0  0  0  0  0  0  0  0  0
    9.1270  -12.7618   28.1901 C   0  0  0  0  0  0  0  0  0  0  0  0
    9.5365  -14.8303   26.8606 C   0  0  2  0  0  0  0  0  0  0  0  0
    9.0217  -15.8543   25.9661 N   0  0  0  0  0  0  0  0  0  0  0  0
   10.4223  -15.3639   27.8963 C   0  0  0  0  0  0  0  0  0  0  0  0
   11.3916  -14.7287   28.3890 O   0  0  0  0  0  0  0  0  0  0  0  0
   10.2646  -16.6585   28.4405 O   0  0  0  0  0  0  0  0  0  0  0  0
  2  1  1  0
  3  5  1  0
  3  2  1  0
  3  4  1  1
  5  6  1  6
  7 11  1  0
  7  5  1  0
  8  7  2  0
 10  9  1  6
 10 12  1  0
 10 11  1  0
 12 19  1  0
 13 12  2  0
 14 15  1  0
 16 15  1  0
 16 17  1  6
 18 20  1  0
 18 16  1  0
 18 19  1  1
 20 22  1  0
 21 20  2  0
M  END
$$$$
