IAI.pdb
     RDKit          3D

 22 21  0  0  1  0  0  0  0  0999 V2000
    7.9799  -12.1291   18.3390 C   0  0  0  0  0  0  0  0  0  0  0  0
    8.0200  -13.6610   18.3430 C   0  0  0  0  0  0  0  0  0  0  0  0
    7.7768  -14.1173   19.7456 C   0  0  2  0  0  0  0  0  0  0  0  0
    8.8054  -13.4630   20.6433 C   0  0  0  0  0  0  0  0  0  0  0  0
    7.7152  -15.5965   19.9388 C   0  0  2  0  0  0  0  0  0  0  0  0
    6.6377  -16.0926   19.1032 N   0  0  0  0  0  0  0  0  0  0  0  0
    7.5204  -15.9833   21.3597 C   0  0  0  0  0  0  0  0  0  0  0  0
    6.4897  -15.6222   21.9753 O   0  0  0  0  0  0  0  0  0  0  0  0
    8.9229  -18.4336   23.7231 C   0  0  0  0  0  0  0  0  0  0  0  0
    8.2671  -17.0767   23.4841 C   0  0  2  0  0  0  0  0  0  0  0  0
    8.4534  -16.7592   22.0897 N   0  0  0  0  0  0  0  0  0  0  0  0
    8.8276  -16.0403   24.3798 C   0  0  0  0  0  0  0  0  0  0  0  0
    9.8959  -15.4760   24.0620 O   0  0  0  0  0  0  0  0  0  0  0  0
    5.7218  -12.5762   27.7926 C   0  0  0  0  0  0  0  0  0  0  0  0
    6.4807  -13.7428   27.2810 C   0  0  0  0  0  0  0  0  0  0  0  0
    7.7897  -13.4540   26.6381 C   0  0  2  0  0  0  0  0  0  0  0  0
    7.5783  -12.7200   25.2989 C   0  0  0  0  0  0  0  0  0  0  0  0
    8.7300  -14.5966   26.4674 C   0  0  2  0  0  0  0  0  0  0  0  0
    8.2164  -15.6419   25.5971 N   0  0  0  0  0  0  0  0  0  0  0  0
    9.3605  -15.1172   27.6813 C   0  0  0  0  0  0  0  0  0  0  0  0
    9.9819  -14.4043   28.5128 O   0  0  0  0  0  0  0  0  0  0  0  0
    9.3269  -16.4863   28.0298 O   0  0  0  0  0  0  0  0  0  0  0  0
  2  1  1  0
  3  5  1  0
  3  2  1  0
  3  4  1  1
  5  6  1  6
  7 11  1  0
  7  5  1  0
  8  7  2  0
 10  9  1  1
 10 12  1  0
 10 11  1  0
 12 19  1  0
 13 12  2  0
 14 15  1  0
 16 15  1  0
 16 17  1  6
 18 20  1  0
 18 16  1  0
 18 19  1  1
 20 22  1  0
 21 20  2  0
M  END
$$$$
