IAI.pdb
     RDKit          3D

 22 21  0  0  1  0  0  0  0  0999 V2000
    8.1956  -12.0804   19.4584 C   0  0  0  0  0  0  0  0  0  0  0  0
    8.4939  -13.4133   20.1531 C   0  0  0  0  0  0  0  0  0  0  0  0
    7.6367  -14.4588   19.5155 C   0  0  2  0  0  0  0  0  0  0  0  0
    6.1952  -14.0024   19.5908 C   0  0  0  0  0  0  0  0  0  0  0  0
    7.8197  -15.8459   20.0368 C   0  0  2  0  0  0  0  0  0  0  0  0
    7.0780  -16.7335   19.1609 N   0  0  0  0  0  0  0  0  0  0  0  0
    7.3844  -15.9914   21.4496 C   0  0  0  0  0  0  0  0  0  0  0  0
    6.4050  -15.3362   21.8778 O   0  0  0  0  0  0  0  0  0  0  0  0
    7.6524  -18.4646   24.0932 C   0  0  0  0  0  0  0  0  0  0  0  0
    7.5755  -16.9820   23.7406 C   0  0  2  0  0  0  0  0  0  0  0  0
    8.0241  -16.8502   22.3762 N   0  0  0  0  0  0  0  0  0  0  0  0
    8.3724  -16.1611   24.6796 C   0  0  0  0  0  0  0  0  0  0  0  0
    9.5868  -15.9807   24.4487 O   0  0  0  0  0  0  0  0  0  0  0  0
    6.2209  -11.7744   27.0522 C   0  0  0  0  0  0  0  0  0  0  0  0
    7.1539  -12.7586   26.4526 C   0  0  0  0  0  0  0  0  0  0  0  0
    7.8784  -13.6488   27.3974 C   0  0  2  0  0  0  0  0  0  0  0  0
    8.8046  -12.8205   28.3102 C   0  0  0  0  0  0  0  0  0  0  0  0
    8.6143  -14.8048   26.8136 C   0  0  2  0  0  0  0  0  0  0  0  0
    7.8331  -15.5568   25.8450 N   0  0  0  0  0  0  0  0  0  0  0  0
    9.3468  -15.6593   27.7492 C   0  0  0  0  0  0  0  0  0  0  0  0
    8.9084  -16.7525   28.1949 O   0  0  0  0  0  0  0  0  0  0  0  0
   10.6285  -15.3256   28.2420 O   0  0  0  0  0  0  0  0  0  0  0  0
  2  1  1  0
  3  5  1  0
  3  2  1  0
  3  4  1  1
  5  6  1  6
  7 11  1  0
  7  5  1  0
  8  7  2  0
 10  9  1  1
 10 12  1  0
 10 11  1  0
 12 19  1  0
 13 12  2  0
 14 15  1  0
 16 15  1  0
 16 17  1  6
 18 20  1  0
 18 16  1  0
 18 19  1  1
 20 22  1  0
 21 20  2  0
M  END
$$$$
