IAI.pdb
     RDKit          3D

 22 21  0  0  1  0  0  0  0  0999 V2000
    7.7049  -12.1043   18.7988 C   0  0  0  0  0  0  0  0  0  0  0  0
    7.9135  -13.6222   18.7692 C   0  0  0  0  0  0  0  0  0  0  0  0
    7.6416  -14.1442   20.1433 C   0  0  2  0  0  0  0  0  0  0  0  0
    8.5691  -13.4406   21.1112 C   0  0  0  0  0  0  0  0  0  0  0  0
    7.6920  -15.6293   20.2884 C   0  0  2  0  0  0  0  0  0  0  0  0
    6.7178  -16.1826   19.3664 N   0  0  0  0  0  0  0  0  0  0  0  0
    7.4368  -16.0801   21.6806 C   0  0  0  0  0  0  0  0  0  0  0  0
    6.3782  -15.7501   22.2657 O   0  0  0  0  0  0  0  0  0  0  0  0
    8.6068  -18.6379   24.0125 C   0  0  0  0  0  0  0  0  0  0  0  0
    8.1332  -17.2019   23.8073 C   0  0  2  0  0  0  0  0  0  0  0  0
    8.3405  -16.8853   22.4157 N   0  0  0  0  0  0  0  0  0  0  0  0
    8.8384  -16.2660   24.7114 C   0  0  0  0  0  0  0  0  0  0  0  0
    9.9708  -15.8481   24.3897 O   0  0  0  0  0  0  0  0  0  0  0  0
    6.4492  -12.0165   26.6548 C   0  0  0  0  0  0  0  0  0  0  0  0
    7.5041  -12.9630   26.2191 C   0  0  0  0  0  0  0  0  0  0  0  0
    8.1719  -13.7518   27.2877 C   0  0  2  0  0  0  0  0  0  0  0  0
    8.9880  -12.8228   28.2085 C   0  0  0  0  0  0  0  0  0  0  0  0
    8.9927  -14.9186   26.8591 C   0  0  2  0  0  0  0  0  0  0  0  0
    8.2984  -15.8068   25.9409 N   0  0  0  0  0  0  0  0  0  0  0  0
    9.7211  -15.6322   27.9091 C   0  0  0  0  0  0  0  0  0  0  0  0
    9.3792  -16.7558   28.3636 O   0  0  0  0  0  0  0  0  0  0  0  0
   10.8882  -15.1134   28.5137 O   0  0  0  0  0  0  0  0  0  0  0  0
  2  1  1  0
  3  5  1  0
  3  2  1  0
  3  4  1  1
  5  6  1  6
  7 11  1  0
  7  5  1  0
  8  7  2  0
 10  9  1  6
 10 12  1  0
 10 11  1  0
 12 19  1  0
 13 12  2  0
 14 15  1  0
 16 15  1  0
 16 17  1  6
 18 20  1  0
 18 16  1  0
 18 19  1  1
 20 22  1  0
 21 20  2  0
M  END
$$$$
