IAI.pdb
     RDKit          3D

 22 21  0  0  1  0  0  0  0  0999 V2000
    7.9935  -12.7729   18.2342 C   0  0  0  0  0  0  0  0  0  0  0  0
    7.8628  -14.2896   18.4095 C   0  0  0  0  0  0  0  0  0  0  0  0
    7.4980  -14.5516   19.8352 C   0  0  2  0  0  0  0  0  0  0  0  0
    8.5407  -13.9016   20.7197 C   0  0  0  0  0  0  0  0  0  0  0  0
    7.2698  -15.9844   20.1875 C   0  0  2  0  0  0  0  0  0  0  0  0
    6.2310  -16.4818   19.3050 N   0  0  0  0  0  0  0  0  0  0  0  0
    6.9045  -16.1746   21.6148 C   0  0  0  0  0  0  0  0  0  0  0  0
    5.9057  -15.5870   22.0932 O   0  0  0  0  0  0  0  0  0  0  0  0
    7.5944  -18.5094   24.3512 C   0  0  0  0  0  0  0  0  0  0  0  0
    7.3407  -17.0705   23.9112 C   0  0  2  0  0  0  0  0  0  0  0  0
    7.6345  -17.0038   22.5008 N   0  0  0  0  0  0  0  0  0  0  0  0
    8.1461  -16.1135   24.7024 C   0  0  0  0  0  0  0  0  0  0  0  0
    9.3212  -15.8741   24.3528 O   0  0  0  0  0  0  0  0  0  0  0  0
    5.9475  -11.8956   28.0717 C   0  0  0  0  0  0  0  0  0  0  0  0
    6.4566  -13.2040   27.5943 C   0  0  0  0  0  0  0  0  0  0  0  0
    7.7283  -13.1815   26.8247 C   0  0  2  0  0  0  0  0  0  0  0  0
    7.5245  -12.4660   25.4743 C   0  0  0  0  0  0  0  0  0  0  0  0
    8.4275  -14.4822   26.6290 C   0  0  2  0  0  0  0  0  0  0  0  0
    7.6575  -15.4403   25.8524 N   0  0  0  0  0  0  0  0  0  0  0  0
    9.0594  -15.0739   27.8091 C   0  0  0  0  0  0  0  0  0  0  0  0
    8.8114  -16.2334   28.2332 O   0  0  0  0  0  0  0  0  0  0  0  0
   10.0162  -14.3841   28.5872 O   0  0  0  0  0  0  0  0  0  0  0  0
  2  1  1  0
  3  5  1  0
  3  2  1  0
  3  4  1  1
  5  6  1  6
  7 11  1  0
  7  5  1  0
  8  7  2  0
 10  9  1  1
 10 12  1  0
 10 11  1  0
 12 19  1  0
 13 12  2  0
 14 15  1  0
 16 15  1  0
 16 17  1  6
 18 20  1  0
 18 16  1  0
 18 19  1  1
 20 22  1  0
 21 20  2  0
M  END
$$$$
