YWD.pdb
     RDKit          3D

 35 37  0  0  1  0  0  0  0  0999 V2000
   25.8400   -8.9978  -27.1819 O   0  0  0  0  0  0  0  0  0  0  0  0
   25.5016   -9.1798  -25.8378 C   0  0  0  0  0  0  0  0  0  0  0  0
   24.5141  -10.0632  -25.4577 C   0  0  0  0  0  0  0  0  0  0  0  0
   24.1997  -10.2231  -24.1167 C   0  0  0  0  0  0  0  0  0  0  0  0
   24.8869   -9.4885  -23.1765 C   0  0  0  0  0  0  0  0  0  0  0  0
   24.5548   -9.6539  -21.7377 C   0  0  0  0  0  0  0  0  0  0  0  0
   25.6320  -10.3898  -20.9922 C   0  0  2  0  0  0  0  0  0  0  0  0
   25.7090  -11.7531  -21.4105 N   0  0  0  0  0  0  0  0  0  0  0  0
   25.3311  -10.2649  -19.5299 C   0  0  0  0  0  0  0  0  0  0  0  0
   24.6184  -11.1109  -18.9384 O   0  0  0  0  0  0  0  0  0  0  0  0
   25.8714   -8.6068  -23.5427 C   0  0  0  0  0  0  0  0  0  0  0  0
   26.1740   -8.4575  -24.8798 C   0  0  0  0  0  0  0  0  0  0  0  0
   25.8550   -9.1665  -18.7662 N   0  0  0  0  0  0  0  0  0  0  0  0
   25.6300   -9.1177  -17.3733 C   0  0  1  0  0  0  0  0  0  0  0  0
   26.8450   -9.0442  -16.4945 C   0  0  0  0  0  0  0  0  0  0  0  0
   27.7217  -10.2244  -16.5781 C   0  0  0  0  0  0  0  0  0  0  0  0
   28.9317  -10.3233  -17.2716 C   0  0  0  0  0  0  0  0  0  0  0  0
   29.4293  -11.5528  -17.1261 N   0  0  0  0  0  0  0  0  0  0  0  0
   28.6051  -12.3022  -16.3575 C   0  0  0  0  0  0  0  0  0  0  0  0
   28.6963  -13.6113  -15.9312 C   0  0  0  0  0  0  0  0  0  0  0  0
   27.7100  -14.1354  -15.1386 C   0  0  0  0  0  0  0  0  0  0  0  0
   26.6524  -13.3209  -14.7952 C   0  0  0  0  0  0  0  0  0  0  0  0
   26.5550  -12.0139  -15.2172 C   0  0  0  0  0  0  0  0  0  0  0  0
   27.5414  -11.4688  -16.0181 C   0  0  0  0  0  0  0  0  0  0  0  0
   24.7124   -8.0357  -16.9385 C   0  0  0  0  0  0  0  0  0  0  0  0
   24.8046   -6.9404  -17.5519 O   0  0  0  0  0  0  0  0  0  0  0  0
   23.7667   -8.1465  -15.9103 N   0  0  0  0  0  0  0  0  0  0  0  0
   22.8161   -7.0844  -15.5922 C   0  0  1  0  0  0  0  0  0  0  0  0
   21.9809   -6.8915  -16.8253 C   0  0  0  0  0  0  0  0  0  0  0  0
   20.8710   -5.9309  -16.6711 C   0  0  0  0  0  0  0  0  0  0  0  0
   20.7329   -5.2640  -15.5847 O   0  0  0  0  0  0  0  0  0  0  0  0
   21.9075   -7.5793  -14.5025 C   0  0  0  0  0  0  0  0  0  0  0  0
   21.9165   -8.8521  -14.0013 O   0  0  0  0  0  0  0  0  0  0  0  0
   19.9541   -5.7275  -17.6884 O   0  0  0  0  0  0  0  0  0  0  0  0
   21.0852   -6.7477  -14.0300 O   0  0  0  0  0  0  0  0  0  0  0  0
  2  1  1  0
  3  2  2  0
  4  3  1  0
  5  4  2  0
  5 11  1  0
  6  5  1  0
  7  6  1  0
  7  8  1  6
  9  7  1  0
  9 13  1  0
 10  9  2  0
 11 12  2  0
 12  2  1  0
 14 13  1  0
 14 25  1  0
 14 15  1  1
 16 17  2  0
 16 15  1  0
 18 17  1  0
 19 24  2  0
 19 18  1  0
 20 19  1  0
 21 22  1  0
 21 20  2  0
 22 23  2  0
 23 24  1  0
 24 16  1  0
 25 27  1  0
 25 26  2  0
 27 28  1  0
 28 29  1  6
 30 31  2  0
 30 29  1  0
 32 28  1  0
 32 33  1  0
 34 30  1  0
 35 32  2  0
M  END
$$$$
