YWD.pdb
     RDKit          3D

 35 37  0  0  1  0  0  0  0  0999 V2000
   27.8430  -22.9549  -22.9550 O   0  0  0  0  0  0  0  0  0  0  0  0
   27.2525  -22.9853  -21.6883 C   0  0  0  0  0  0  0  0  0  0  0  0
   27.1791  -21.8560  -20.9014 C   0  0  0  0  0  0  0  0  0  0  0  0
   26.5876  -21.9160  -19.6487 C   0  0  0  0  0  0  0  0  0  0  0  0
   26.0775  -23.1162  -19.2067 C   0  0  0  0  0  0  0  0  0  0  0  0
   25.4431  -23.1883  -17.8651 C   0  0  0  0  0  0  0  0  0  0  0  0
   26.4624  -23.2581  -16.7632 C   0  0  2  0  0  0  0  0  0  0  0  0
   27.0585  -24.5541  -16.6940 N   0  0  0  0  0  0  0  0  0  0  0  0
   25.7701  -22.8871  -15.4875 C   0  0  0  0  0  0  0  0  0  0  0  0
   25.4951  -23.7521  -14.6218 O   0  0  0  0  0  0  0  0  0  0  0  0
   26.1447  -24.2462  -19.9808 C   0  0  0  0  0  0  0  0  0  0  0  0
   26.7357  -24.1726  -21.2245 C   0  0  0  0  0  0  0  0  0  0  0  0
   25.4028  -21.5232  -15.2242 N   0  0  0  0  0  0  0  0  0  0  0  0
   24.9293  -21.1651  -13.9433 C   0  0  1  0  0  0  0  0  0  0  0  0
   25.6236  -20.0222  -13.2611 C   0  0  0  0  0  0  0  0  0  0  0  0
   26.8408  -20.4076  -12.5275 C   0  0  0  0  0  0  0  0  0  0  0  0
   28.0902  -20.7119  -13.0765 C   0  0  0  0  0  0  0  0  0  0  0  0
   28.9409  -21.0296  -12.0988 N   0  0  0  0  0  0  0  0  0  0  0  0
   28.3212  -20.9543  -10.8979 C   0  0  0  0  0  0  0  0  0  0  0  0
   28.7834  -21.1821   -9.6180 C   0  0  0  0  0  0  0  0  0  0  0  0
   27.9354  -21.0250   -8.5540 C   0  0  0  0  0  0  0  0  0  0  0  0
   26.6370  -20.6403   -8.8107 C   0  0  0  0  0  0  0  0  0  0  0  0
   26.1692  -20.4115  -10.0854 C   0  0  0  0  0  0  0  0  0  0  0  0
   27.0114  -20.5657  -11.1709 C   0  0  0  0  0  0  0  0  0  0  0  0
   23.4729  -20.8874  -13.8841 C   0  0  0  0  0  0  0  0  0  0  0  0
   22.9851  -20.2383  -14.8459 O   0  0  0  0  0  0  0  0  0  0  0  0
   22.6175  -21.2905  -12.8499 N   0  0  0  0  0  0  0  0  0  0  0  0
   21.2022  -20.9327  -12.8092 C   0  0  1  0  0  0  0  0  0  0  0  0
   20.5480  -21.9288  -11.8955 C   0  0  0  0  0  0  0  0  0  0  0  0
   19.2270  -22.4044  -12.3508 C   0  0  0  0  0  0  0  0  0  0  0  0
   18.6379  -23.3692  -11.7457 O   0  0  0  0  0  0  0  0  0  0  0  0
   21.0789  -19.5798  -12.1671 C   0  0  0  0  0  0  0  0  0  0  0  0
   22.1136  -18.8965  -11.5893 O   0  0  0  0  0  0  0  0  0  0  0  0
   18.5941  -21.8262  -13.4380 O   0  0  0  0  0  0  0  0  0  0  0  0
   19.9325  -19.0538  -12.1707 O   0  0  0  0  0  0  0  0  0  0  0  0
  2  1  1  0
  3  2  2  0
  4  3  1  0
  5  4  2  0
  5 11  1  0
  6  5  1  0
  7  6  1  0
  7  8  1  1
  9  7  1  0
  9 13  1  0
 10  9  2  0
 11 12  2  0
 12  2  1  0
 14 13  1  0
 14 25  1  0
 14 15  1  6
 16 17  2  0
 16 15  1  0
 18 17  1  0
 19 24  2  0
 19 18  1  0
 20 19  1  0
 21 22  1  0
 21 20  2  0
 22 23  2  0
 23 24  1  0
 24 16  1  0
 25 27  1  0
 25 26  2  0
 27 28  1  0
 28 29  1  1
 30 31  2  0
 30 29  1  0
 32 28  1  0
 32 33  1  0
 34 30  1  0
 35 32  2  0
M  END
$$$$
