YWD.pdb
     RDKit          3D

 35 37  0  0  1  0  0  0  0  0999 V2000
   27.6426  -23.5786  -22.5813 O   0  0  0  0  0  0  0  0  0  0  0  0
   27.0551  -23.5858  -21.3128 C   0  0  0  0  0  0  0  0  0  0  0  0
   26.7997  -22.4150  -20.6316 C   0  0  0  0  0  0  0  0  0  0  0  0
   26.2160  -22.4526  -19.3743 C   0  0  0  0  0  0  0  0  0  0  0  0
   25.8976  -23.6727  -18.8211 C   0  0  0  0  0  0  0  0  0  0  0  0
   25.2727  -23.7209  -17.4739 C   0  0  0  0  0  0  0  0  0  0  0  0
   26.2998  -23.7416  -16.3773 C   0  0  2  0  0  0  0  0  0  0  0  0
   26.8785  -25.0398  -16.2377 N   0  0  0  0  0  0  0  0  0  0  0  0
   25.6230  -23.2879  -15.1202 C   0  0  0  0  0  0  0  0  0  0  0  0
   25.2610  -24.1093  -14.2440 O   0  0  0  0  0  0  0  0  0  0  0  0
   26.1468  -24.8439  -19.4894 C   0  0  0  0  0  0  0  0  0  0  0  0
   26.7278  -24.7922  -20.7390 C   0  0  0  0  0  0  0  0  0  0  0  0
   25.3713  -21.8926  -14.8872 N   0  0  0  0  0  0  0  0  0  0  0  0
   24.7773  -21.4862  -13.6727 C   0  0  1  0  0  0  0  0  0  0  0  0
   25.3639  -20.2762  -13.0050 C   0  0  0  0  0  0  0  0  0  0  0  0
   26.6323  -20.5311  -12.3019 C   0  0  0  0  0  0  0  0  0  0  0  0
   27.8862  -20.7420  -12.8834 C   0  0  0  0  0  0  0  0  0  0  0  0
   28.7913  -20.9540  -11.9260 N   0  0  0  0  0  0  0  0  0  0  0  0
   28.2046  -20.8962  -10.7078 C   0  0  0  0  0  0  0  0  0  0  0  0
   28.7242  -21.0433   -9.4381 C   0  0  0  0  0  0  0  0  0  0  0  0
   27.8987  -20.9281   -8.3513 C   0  0  0  0  0  0  0  0  0  0  0  0
   26.5641  -20.6662   -8.5753 C   0  0  0  0  0  0  0  0  0  0  0  0
   26.0390  -20.5185   -9.8395 C   0  0  0  0  0  0  0  0  0  0  0  0
   26.8578  -20.6320  -10.9478 C   0  0  0  0  0  0  0  0  0  0  0  0
   23.3109  -21.2730  -13.7491 C   0  0  0  0  0  0  0  0  0  0  0  0
   22.8641  -20.8258  -14.8376 O   0  0  0  0  0  0  0  0  0  0  0  0
   22.4045  -21.5305  -12.7119 N   0  0  0  0  0  0  0  0  0  0  0  0
   20.9745  -21.2563  -12.8248 C   0  0  1  0  0  0  0  0  0  0  0  0
   20.2966  -22.1787  -11.8528 C   0  0  0  0  0  0  0  0  0  0  0  0
   18.8230  -22.0965  -11.8539 C   0  0  0  0  0  0  0  0  0  0  0  0
   18.2186  -21.2439  -12.5967 O   0  0  0  0  0  0  0  0  0  0  0  0
   20.7288  -19.8486  -12.3601 C   0  0  0  0  0  0  0  0  0  0  0  0
   19.7392  -19.0339  -12.8381 O   0  0  0  0  0  0  0  0  0  0  0  0
   18.0591  -22.9312  -11.0559 O   0  0  0  0  0  0  0  0  0  0  0  0
   21.5001  -19.4048  -11.4662 O   0  0  0  0  0  0  0  0  0  0  0  0
  2  1  1  0
  3  2  2  0
  4  3  1  0
  5  4  2  0
  5 11  1  0
  6  5  1  0
  7  6  1  0
  7  8  1  1
  9  7  1  0
  9 13  1  0
 10  9  2  0
 11 12  2  0
 12  2  1  0
 14 13  1  0
 14 25  1  0
 14 15  1  6
 16 17  2  0
 16 15  1  0
 18 17  1  0
 19 24  2  0
 19 18  1  0
 20 19  1  0
 21 22  1  0
 21 20  2  0
 22 23  2  0
 23 24  1  0
 24 16  1  0
 25 27  1  0
 25 26  2  0
 27 28  1  0
 28 29  1  1
 30 31  2  0
 30 29  1  0
 32 28  1  0
 32 33  1  0
 34 30  1  0
 35 32  2  0
M  END
$$$$
