YWD.pdb
     RDKit          3D

 35 37  0  0  1  0  0  0  0  0999 V2000
   18.0116  -24.1482  -13.1857 O   0  0  0  0  0  0  0  0  0  0  0  0
   19.1657  -23.6764  -13.8179 C   0  0  0  0  0  0  0  0  0  0  0  0
   19.1019  -22.9800  -15.0057 C   0  0  0  0  0  0  0  0  0  0  0  0
   20.2635  -22.5239  -15.6102 C   0  0  0  0  0  0  0  0  0  0  0  0
   21.4751  -22.7772  -15.0070 C   0  0  0  0  0  0  0  0  0  0  0  0
   22.7241  -22.2925  -15.6494 C   0  0  0  0  0  0  0  0  0  0  0  0
   23.2777  -21.0780  -14.9592 C   0  0  2  0  0  0  0  0  0  0  0  0
   22.3361  -20.0043  -14.9713 N   0  0  0  0  0  0  0  0  0  0  0  0
   24.5568  -20.7140  -15.6489 C   0  0  0  0  0  0  0  0  0  0  0  0
   24.5571  -20.0215  -16.6948 O   0  0  0  0  0  0  0  0  0  0  0  0
   21.5510  -23.4688  -13.8253 C   0  0  0  0  0  0  0  0  0  0  0  0
   20.3881  -23.9167  -13.2348 C   0  0  0  0  0  0  0  0  0  0  0  0
   25.8209  -21.1521  -15.1251 N   0  0  0  0  0  0  0  0  0  0  0  0
   27.0114  -20.8065  -15.8008 C   0  0  1  0  0  0  0  0  0  0  0  0
   28.0103  -19.9884  -15.0347 C   0  0  0  0  0  0  0  0  0  0  0  0
   27.6771  -18.5567  -14.9478 C   0  0  0  0  0  0  0  0  0  0  0  0
   26.8019  -17.9526  -14.0401 C   0  0  0  0  0  0  0  0  0  0  0  0
   26.7464  -16.6412  -14.2802 N   0  0  0  0  0  0  0  0  0  0  0  0
   27.5521  -16.3224  -15.3199 C   0  0  0  0  0  0  0  0  0  0  0  0
   27.8264  -15.1119  -15.9225 C   0  0  0  0  0  0  0  0  0  0  0  0
   28.7028  -15.0622  -16.9737 C   0  0  0  0  0  0  0  0  0  0  0  0
   29.2823  -16.2410  -17.3914 C   0  0  0  0  0  0  0  0  0  0  0  0
   29.0129  -17.4523  -16.7947 C   0  0  0  0  0  0  0  0  0  0  0  0
   28.1305  -17.5208  -15.7326 C   0  0  0  0  0  0  0  0  0  0  0  0
   27.7449  -21.9597  -16.3785 C   0  0  0  0  0  0  0  0  0  0  0  0
   27.7389  -23.0235  -15.7057 O   0  0  0  0  0  0  0  0  0  0  0  0
   28.4318  -21.9471  -17.5999 N   0  0  0  0  0  0  0  0  0  0  0  0
   29.0833  -23.1313  -18.1532 C   0  0  1  0  0  0  0  0  0  0  0  0
   27.9860  -24.1194  -18.4269 C   0  0  0  0  0  0  0  0  0  0  0  0
   28.4285  -25.3588  -19.0950 C   0  0  0  0  0  0  0  0  0  0  0  0
   28.9837  -26.2989  -18.4225 O   0  0  0  0  0  0  0  0  0  0  0  0
   29.6948  -22.7563  -19.4735 C   0  0  0  0  0  0  0  0  0  0  0  0
   30.6172  -23.5109  -20.1451 O   0  0  0  0  0  0  0  0  0  0  0  0
   28.2589  -25.5370  -20.4575 O   0  0  0  0  0  0  0  0  0  0  0  0
   29.3188  -21.6650  -19.9820 O   0  0  0  0  0  0  0  0  0  0  0  0
  2  1  1  0
  3  2  2  0
  4  3  1  0
  5  4  2  0
  5 11  1  0
  6  5  1  0
  7  6  1  0
  7  8  1  6
  9  7  1  0
  9 13  1  0
 10  9  2  0
 11 12  2  0
 12  2  1  0
 14 13  1  0
 14 25  1  0
 14 15  1  1
 16 17  2  0
 16 15  1  0
 18 17  1  0
 19 24  2  0
 19 18  1  0
 20 19  1  0
 21 22  1  0
 21 20  2  0
 22 23  2  0
 23 24  1  0
 24 16  1  0
 25 27  1  0
 25 26  2  0
 27 28  1  0
 28 29  1  6
 30 31  2  0
 30 29  1  0
 32 28  1  0
 32 33  1  0
 34 30  1  0
 35 32  2  0
M  END
$$$$
