YWD.pdb
     RDKit          3D

 35 37  0  0  1  0  0  0  0  0999 V2000
   29.2758  -16.1385  -17.6139 O   0  0  0  0  0  0  0  0  0  0  0  0
   28.6311  -16.9994  -16.7209 C   0  0  0  0  0  0  0  0  0  0  0  0
   28.1866  -18.2433  -17.1147 C   0  0  0  0  0  0  0  0  0  0  0  0
   27.5502  -19.0762  -16.2070 C   0  0  0  0  0  0  0  0  0  0  0  0
   27.3708  -18.6419  -14.9127 C   0  0  0  0  0  0  0  0  0  0  0  0
   26.6889  -19.5284  -13.9347 C   0  0  0  0  0  0  0  0  0  0  0  0
   27.6679  -20.3123  -13.1071 C   0  0  2  0  0  0  0  0  0  0  0  0
   28.4037  -21.2328  -13.9138 N   0  0  0  0  0  0  0  0  0  0  0  0
   26.8913  -21.0036  -12.0286 C   0  0  0  0  0  0  0  0  0  0  0  0
   26.5124  -22.1921  -12.1603 O   0  0  0  0  0  0  0  0  0  0  0  0
   27.8089  -17.4065  -14.5094 C   0  0  0  0  0  0  0  0  0  0  0  0
   28.4403  -16.5882  -15.4223 C   0  0  0  0  0  0  0  0  0  0  0  0
   26.5603  -20.3172  -10.8105 N   0  0  0  0  0  0  0  0  0  0  0  0
   25.4786  -20.7738  -10.0266 C   0  0  1  0  0  0  0  0  0  0  0  0
   25.4564  -20.3425   -8.5887 C   0  0  0  0  0  0  0  0  0  0  0  0
   26.7908  -20.1765   -7.9885 C   0  0  0  0  0  0  0  0  0  0  0  0
   27.9759  -19.8507   -8.6549 C   0  0  0  0  0  0  0  0  0  0  0  0
   28.9813  -19.8043   -7.7789 N   0  0  0  0  0  0  0  0  0  0  0  0
   28.5298  -20.0861   -6.5346 C   0  0  0  0  0  0  0  0  0  0  0  0
   29.1833  -20.1527   -5.3212 C   0  0  0  0  0  0  0  0  0  0  0  0
   28.4774  -20.4573   -4.1879 C   0  0  0  0  0  0  0  0  0  0  0  0
   27.1238  -20.6878   -4.3091 C   0  0  0  0  0  0  0  0  0  0  0  0
   26.4655  -20.6232   -5.5166 C   0  0  0  0  0  0  0  0  0  0  0  0
   27.1626  -20.3174   -6.6708 C   0  0  0  0  0  0  0  0  0  0  0  0
   24.1409  -20.4705  -10.5925 C   0  0  0  0  0  0  0  0  0  0  0  0
   24.0402  -19.4066  -11.2575 O   0  0  0  0  0  0  0  0  0  0  0  0
   23.0016  -21.2723  -10.4408 N   0  0  0  0  0  0  0  0  0  0  0  0
   21.7300  -20.9713  -11.0930 C   0  0  1  0  0  0  0  0  0  0  0  0
   21.4730  -22.1040  -12.0449 C   0  0  0  0  0  0  0  0  0  0  0  0
   20.8124  -21.7097  -13.3044 C   0  0  0  0  0  0  0  0  0  0  0  0
   20.4856  -20.4876  -13.5138 O   0  0  0  0  0  0  0  0  0  0  0  0
   20.6491  -21.0022  -10.0497 C   0  0  0  0  0  0  0  0  0  0  0  0
   19.5189  -20.2320  -10.0785 O   0  0  0  0  0  0  0  0  0  0  0  0
   20.5277  -22.6437  -14.2860 O   0  0  0  0  0  0  0  0  0  0  0  0
   20.8139  -21.8007   -9.0873 O   0  0  0  0  0  0  0  0  0  0  0  0
  2  1  1  0
  3  2  2  0
  4  3  1  0
  5  4  2  0
  5 11  1  0
  6  5  1  0
  7  6  1  0
  7  8  1  6
  9  7  1  0
  9 13  1  0
 10  9  2  0
 11 12  2  0
 12  2  1  0
 14 13  1  0
 14 25  1  0
 14 15  1  1
 16 17  2  0
 16 15  1  0
 18 17  1  0
 19 24  2  0
 19 18  1  0
 20 19  1  0
 21 22  1  0
 21 20  2  0
 22 23  2  0
 23 24  1  0
 24 16  1  0
 25 27  1  0
 25 26  2  0
 27 28  1  0
 28 29  1  6
 30 31  2  0
 30 29  1  0
 32 28  1  0
 32 33  1  0
 34 30  1  0
 35 32  2  0
M  END
$$$$
