YWD.pdb
     RDKit          3D

 35 37  0  0  1  0  0  0  0  0999 V2000
   22.5577   -7.1254  -26.2867 O   0  0  0  0  0  0  0  0  0  0  0  0
   21.7300   -7.2982  -25.1736 C   0  0  0  0  0  0  0  0  0  0  0  0
   20.3575   -7.3351  -25.2963 C   0  0  0  0  0  0  0  0  0  0  0  0
   19.5613   -7.5077  -24.1743 C   0  0  0  0  0  0  0  0  0  0  0  0
   20.1616   -7.6410  -22.9423 C   0  0  0  0  0  0  0  0  0  0  0  0
   19.3148   -7.8253  -21.7354 C   0  0  0  0  0  0  0  0  0  0  0  0
   19.2701   -9.2605  -21.2927 C   0  0  2  0  0  0  0  0  0  0  0  0
   18.6996  -10.0938  -22.3025 N   0  0  0  0  0  0  0  0  0  0  0  0
   18.4918   -9.3115  -20.0136 C   0  0  0  0  0  0  0  0  0  0  0  0
   17.2375   -9.3100  -20.0155 O   0  0  0  0  0  0  0  0  0  0  0  0
   21.5259   -7.6060  -22.8080 C   0  0  0  0  0  0  0  0  0  0  0  0
   22.3060   -7.4338  -23.9319 C   0  0  0  0  0  0  0  0  0  0  0  0
   19.1682   -9.3636  -18.7471 N   0  0  0  0  0  0  0  0  0  0  0  0
   18.4189   -9.2726  -17.5540 C   0  0  1  0  0  0  0  0  0  0  0  0
   18.8122  -10.1950  -16.4368 C   0  0  0  0  0  0  0  0  0  0  0  0
   18.5780  -11.6207  -16.7214 C   0  0  0  0  0  0  0  0  0  0  0  0
   19.0820  -12.3549  -17.7992 C   0  0  0  0  0  0  0  0  0  0  0  0
   18.6402  -13.6119  -17.7274 N   0  0  0  0  0  0  0  0  0  0  0  0
   17.8510  -13.7680  -16.6390 C   0  0  0  0  0  0  0  0  0  0  0  0
   17.1807  -14.8703  -16.1498 C   0  0  0  0  0  0  0  0  0  0  0  0
   16.4425  -14.7592  -15.0016 C   0  0  0  0  0  0  0  0  0  0  0  0
   16.3998  -13.5327  -14.3740 C   0  0  0  0  0  0  0  0  0  0  0  0
   17.0660  -12.4287  -14.8568 C   0  0  0  0  0  0  0  0  0  0  0  0
   17.8156  -12.5229  -16.0148 C   0  0  0  0  0  0  0  0  0  0  0  0
   18.3408   -7.9055  -16.9825 C   0  0  0  0  0  0  0  0  0  0  0  0
   19.4283   -7.2827  -16.8646 O   0  0  0  0  0  0  0  0  0  0  0  0
   17.1610   -7.2704  -16.5720 N   0  0  0  0  0  0  0  0  0  0  0  0
   17.1387   -5.9110  -16.0389 C   0  0  1  0  0  0  0  0  0  0  0  0
   16.3830   -5.0847  -17.0396 C   0  0  0  0  0  0  0  0  0  0  0  0
   16.2098   -3.6687  -16.6609 C   0  0  0  0  0  0  0  0  0  0  0  0
   16.7536   -3.2082  -15.5950 O   0  0  0  0  0  0  0  0  0  0  0  0
   16.3422   -5.9198  -14.7648 C   0  0  0  0  0  0  0  0  0  0  0  0
   16.6271   -5.1583  -13.6647 O   0  0  0  0  0  0  0  0  0  0  0  0
   15.4582   -2.8062  -17.4409 O   0  0  0  0  0  0  0  0  0  0  0  0
   15.3445   -6.6906  -14.7263 O   0  0  0  0  0  0  0  0  0  0  0  0
  2  1  1  0
  3  2  2  0
  4  3  1  0
  5  4  2  0
  5 11  1  0
  6  5  1  0
  7  6  1  0
  7  8  1  6
  9  7  1  0
  9 13  1  0
 10  9  2  0
 11 12  2  0
 12  2  1  0
 14 13  1  0
 14 25  1  0
 14 15  1  1
 16 17  2  0
 16 15  1  0
 18 17  1  0
 19 24  2  0
 19 18  1  0
 20 19  1  0
 21 22  1  0
 21 20  2  0
 22 23  2  0
 23 24  1  0
 24 16  1  0
 25 27  1  0
 25 26  2  0
 27 28  1  0
 28 29  1  6
 30 31  2  0
 30 29  1  0
 32 28  1  0
 32 33  1  0
 34 30  1  0
 35 32  2  0
M  END
$$$$
