YWD.pdb
     RDKit          3D

 35 37  0  0  1  0  0  0  0  0999 V2000
   30.4622  -16.6123  -18.6804 O   0  0  0  0  0  0  0  0  0  0  0  0
   29.7390  -17.1799  -17.6273 C   0  0  0  0  0  0  0  0  0  0  0  0
   30.3606  -17.5951  -16.4692 C   0  0  0  0  0  0  0  0  0  0  0  0
   29.6176  -18.1549  -15.4409 C   0  0  0  0  0  0  0  0  0  0  0  0
   28.2558  -18.2881  -15.5956 C   0  0  0  0  0  0  0  0  0  0  0  0
   27.4533  -18.8879  -14.4984 C   0  0  0  0  0  0  0  0  0  0  0  0
   27.7315  -20.3554  -14.3346 C   0  0  2  0  0  0  0  0  0  0  0  0
   27.3012  -21.0924  -15.4797 N   0  0  0  0  0  0  0  0  0  0  0  0
   27.0425  -20.8057  -13.0829 C   0  0  0  0  0  0  0  0  0  0  0  0
   25.8836  -21.2847  -13.1151 O   0  0  0  0  0  0  0  0  0  0  0  0
   27.6265  -17.8786  -16.7432 C   0  0  0  0  0  0  0  0  0  0  0  0
   28.3774  -17.3236  -17.7580 C   0  0  0  0  0  0  0  0  0  0  0  0
   27.6970  -20.6987  -11.8083 N   0  0  0  0  0  0  0  0  0  0  0  0
   26.9913  -21.0366  -10.6332 C   0  0  1  0  0  0  0  0  0  0  0  0
   27.7591  -20.9824   -9.3443 C   0  0  0  0  0  0  0  0  0  0  0  0
   26.9173  -20.8149   -8.1478 C   0  0  0  0  0  0  0  0  0  0  0  0
   25.5346  -21.0030   -8.0617 C   0  0  0  0  0  0  0  0  0  0  0  0
   25.1261  -20.7426   -6.8184 N   0  0  0  0  0  0  0  0  0  0  0  0
   26.1782  -20.3825   -6.0470 C   0  0  0  0  0  0  0  0  0  0  0  0
   26.2537  -20.0314   -4.7148 C   0  0  0  0  0  0  0  0  0  0  0  0
   27.4674  -19.7115   -4.1668 C   0  0  0  0  0  0  0  0  0  0  0  0
   28.5785  -19.7546   -4.9813 C   0  0  0  0  0  0  0  0  0  0  0  0
   28.5103  -20.1039   -6.3114 C   0  0  0  0  0  0  0  0  0  0  0  0
   27.2933  -20.4294   -6.8810 C   0  0  0  0  0  0  0  0  0  0  0  0
   25.7401  -20.2660  -10.4271 C   0  0  0  0  0  0  0  0  0  0  0  0
   25.8592  -19.0168  -10.3295 O   0  0  0  0  0  0  0  0  0  0  0  0
   24.4573  -20.8226  -10.3353 N   0  0  0  0  0  0  0  0  0  0  0  0
   23.2543  -20.1113  -10.7590 C   0  0  1  0  0  0  0  0  0  0  0  0
   23.3192  -20.0415  -12.2577 C   0  0  0  0  0  0  0  0  0  0  0  0
   22.1321  -19.4404  -12.8963 C   0  0  0  0  0  0  0  0  0  0  0  0
   22.0593  -19.3404  -14.1725 O   0  0  0  0  0  0  0  0  0  0  0  0
   22.0614  -20.9498  -10.3958 C   0  0  0  0  0  0  0  0  0  0  0  0
   20.8924  -20.4575   -9.8832 O   0  0  0  0  0  0  0  0  0  0  0  0
   21.0733  -18.9695  -12.1386 O   0  0  0  0  0  0  0  0  0  0  0  0
   22.1647  -22.1927  -10.5838 O   0  0  0  0  0  0  0  0  0  0  0  0
  2  1  1  0
  3  2  2  0
  4  3  1  0
  5  4  2  0
  5 11  1  0
  6  5  1  0
  7  6  1  0
  7  8  1  6
  9  7  1  0
  9 13  1  0
 10  9  2  0
 11 12  2  0
 12  2  1  0
 14 13  1  0
 14 25  1  0
 14 15  1  1
 16 17  2  0
 16 15  1  0
 18 17  1  0
 19 24  2  0
 19 18  1  0
 20 19  1  0
 21 22  1  0
 21 20  2  0
 22 23  2  0
 23 24  1  0
 24 16  1  0
 25 27  1  0
 25 26  2  0
 27 28  1  0
 28 29  1  6
 30 31  2  0
 30 29  1  0
 32 28  1  0
 32 33  1  0
 34 30  1  0
 35 32  2  0
M  END
$$$$
