YWD.pdb
     RDKit          3D

 35 37  0  0  1  0  0  0  0  0999 V2000
   30.3305  -21.5053  -20.5221 O   0  0  0  0  0  0  0  0  0  0  0  0
   29.6508  -21.6545  -19.3097 C   0  0  0  0  0  0  0  0  0  0  0  0
   29.9465  -22.6829  -18.4409 C   0  0  0  0  0  0  0  0  0  0  0  0
   29.2556  -22.8061  -17.2450 C   0  0  0  0  0  0  0  0  0  0  0  0
   28.2746  -21.8887  -16.9418 C   0  0  0  0  0  0  0  0  0  0  0  0
   27.5293  -22.0149  -15.6626 C   0  0  0  0  0  0  0  0  0  0  0  0
   27.4859  -20.7174  -14.9059 C   0  0  2  0  0  0  0  0  0  0  0  0
   28.7893  -20.1460  -14.7874 N   0  0  0  0  0  0  0  0  0  0  0  0
   26.8697  -20.9979  -13.5695 C   0  0  0  0  0  0  0  0  0  0  0  0
   25.7142  -21.4765  -13.4740 O   0  0  0  0  0  0  0  0  0  0  0  0
   27.9718  -20.8614  -17.7983 C   0  0  0  0  0  0  0  0  0  0  0  0
   28.6665  -20.7505  -18.9843 C   0  0  0  0  0  0  0  0  0  0  0  0
   27.5924  -20.7234  -12.3584 N   0  0  0  0  0  0  0  0  0  0  0  0
   26.9811  -20.9759  -11.1111 C   0  0  1  0  0  0  0  0  0  0  0  0
   27.8403  -20.8095   -9.8913 C   0  0  0  0  0  0  0  0  0  0  0  0
   27.0876  -20.7537   -8.6269 C   0  0  0  0  0  0  0  0  0  0  0  0
   25.7544  -21.1243   -8.4271 C   0  0  0  0  0  0  0  0  0  0  0  0
   25.4211  -20.9187   -7.1515 N   0  0  0  0  0  0  0  0  0  0  0  0
   26.4773  -20.4205   -6.4675 C   0  0  0  0  0  0  0  0  0  0  0  0
   26.6175  -20.0603   -5.1430 C   0  0  0  0  0  0  0  0  0  0  0  0
   27.8198  -19.5807   -4.6954 C   0  0  0  0  0  0  0  0  0  0  0  0
   28.8541  -19.4766   -5.6005 C   0  0  0  0  0  0  0  0  0  0  0  0
   28.7210  -19.8340   -6.9236 C   0  0  0  0  0  0  0  0  0  0  0  0
   27.5144  -20.3196   -7.3924 C   0  0  0  0  0  0  0  0  0  0  0  0
   25.7342  -20.2075  -10.8733 C   0  0  0  0  0  0  0  0  0  0  0  0
   25.8712  -18.9920  -10.5764 O   0  0  0  0  0  0  0  0  0  0  0  0
   24.4372  -20.7318  -10.9548 N   0  0  0  0  0  0  0  0  0  0  0  0
   23.2406  -19.9123  -10.7838 C   0  0  1  0  0  0  0  0  0  0  0  0
   23.0040  -19.2416  -12.1065 C   0  0  0  0  0  0  0  0  0  0  0  0
   22.5966  -20.1536  -13.1931 C   0  0  0  0  0  0  0  0  0  0  0  0
   22.7884  -19.8324  -14.4195 O   0  0  0  0  0  0  0  0  0  0  0  0
   22.0777  -20.8283  -10.5260 C   0  0  0  0  0  0  0  0  0  0  0  0
   20.8271  -20.4124  -10.1593 O   0  0  0  0  0  0  0  0  0  0  0  0
   21.9980  -21.3715  -12.9184 O   0  0  0  0  0  0  0  0  0  0  0  0
   22.2897  -22.0642  -10.6620 O   0  0  0  0  0  0  0  0  0  0  0  0
  2  1  1  0
  3  2  2  0
  4  3  1  0
  5  4  2  0
  5 11  1  0
  6  5  1  0
  7  6  1  0
  7  8  1  1
  9  7  1  0
  9 13  1  0
 10  9  2  0
 11 12  2  0
 12  2  1  0
 14 13  1  0
 14 25  1  0
 14 15  1  1
 16 17  2  0
 16 15  1  0
 18 17  1  0
 19 24  2  0
 19 18  1  0
 20 19  1  0
 21 22  1  0
 21 20  2  0
 22 23  2  0
 23 24  1  0
 24 16  1  0
 25 27  1  0
 25 26  2  0
 27 28  1  0
 28 29  1  6
 30 31  2  0
 30 29  1  0
 32 28  1  0
 32 33  1  0
 34 30  1  0
 35 32  2  0
M  END
$$$$
