YWD.pdb
     RDKit          3D

 35 37  0  0  1  0  0  0  0  0999 V2000
   31.2976  -16.4004  -18.6460 O   0  0  0  0  0  0  0  0  0  0  0  0
   30.3543  -17.0903  -17.8787 C   0  0  0  0  0  0  0  0  0  0  0  0
   29.1382  -17.4704  -18.4046 C   0  0  0  0  0  0  0  0  0  0  0  0
   28.2218  -18.1537  -17.6198 C   0  0  0  0  0  0  0  0  0  0  0  0
   28.5455  -18.4445  -16.3134 C   0  0  0  0  0  0  0  0  0  0  0  0
   27.5682  -19.1756  -15.4661 C   0  0  0  0  0  0  0  0  0  0  0  0
   28.0621  -20.5438  -15.0895 C   0  0  2  0  0  0  0  0  0  0  0  0
   28.4409  -21.2913  -16.2459 N   0  0  0  0  0  0  0  0  0  0  0  0
   26.9708  -21.2175  -14.3153 C   0  0  0  0  0  0  0  0  0  0  0  0
   26.0418  -21.8272  -14.8974 O   0  0  0  0  0  0  0  0  0  0  0  0
   29.7523  -18.0715  -15.7794 C   0  0  0  0  0  0  0  0  0  0  0  0
   30.6545  -17.3924  -16.5709 C   0  0  0  0  0  0  0  0  0  0  0  0
   26.9625  -21.1808  -12.8790 N   0  0  0  0  0  0  0  0  0  0  0  0
   25.8966  -21.7806  -12.1738 C   0  0  1  0  0  0  0  0  0  0  0  0
   26.1689  -22.1868  -10.7544 C   0  0  0  0  0  0  0  0  0  0  0  0
   26.5059  -21.0661   -9.8607 C   0  0  0  0  0  0  0  0  0  0  0  0
   25.7390  -19.9210   -9.6252 C   0  0  0  0  0  0  0  0  0  0  0  0
   26.3788  -19.1251   -8.7663 N   0  0  0  0  0  0  0  0  0  0  0  0
   27.5575  -19.6821   -8.4030 C   0  0  0  0  0  0  0  0  0  0  0  0
   28.5464  -19.2449   -7.5457 C   0  0  0  0  0  0  0  0  0  0  0  0
   29.6583  -20.0186   -7.3441 C   0  0  0  0  0  0  0  0  0  0  0  0
   29.7437  -21.2192   -8.0159 C   0  0  0  0  0  0  0  0  0  0  0  0
   28.7608  -21.6614   -8.8728 C   0  0  0  0  0  0  0  0  0  0  0  0
   27.6319  -20.8929   -9.0883 C   0  0  0  0  0  0  0  0  0  0  0  0
   24.6433  -20.9864  -12.1663 C   0  0  0  0  0  0  0  0  0  0  0  0
   24.7709  -19.7348  -12.2088 O   0  0  0  0  0  0  0  0  0  0  0  0
   23.3499  -21.5234  -12.1162 N   0  0  0  0  0  0  0  0  0  0  0  0
   22.1668  -20.7772  -12.5362 C   0  0  1  0  0  0  0  0  0  0  0  0
   22.3325  -20.5301  -14.0081 C   0  0  0  0  0  0  0  0  0  0  0  0
   21.1610  -19.9162  -14.6633 C   0  0  0  0  0  0  0  0  0  0  0  0
   20.4525  -19.0435  -14.0464 O   0  0  0  0  0  0  0  0  0  0  0  0
   20.9660  -21.6627  -12.3578 C   0  0  0  0  0  0  0  0  0  0  0  0
   19.7732  -21.2567  -11.8250 O   0  0  0  0  0  0  0  0  0  0  0  0
   20.7973  -20.2659  -15.9526 O   0  0  0  0  0  0  0  0  0  0  0  0
   21.0863  -22.8615  -12.7312 O   0  0  0  0  0  0  0  0  0  0  0  0
  2  1  1  0
  3  2  2  0
  4  3  1  0
  5  4  2  0
  5 11  1  0
  6  5  1  0
  7  6  1  0
  7  8  1  6
  9  7  1  0
  9 13  1  0
 10  9  2  0
 11 12  2  0
 12  2  1  0
 14 13  1  0
 14 25  1  0
 14 15  1  1
 16 17  2  0
 16 15  1  0
 18 17  1  0
 19 24  2  0
 19 18  1  0
 20 19  1  0
 21 22  1  0
 21 20  2  0
 22 23  2  0
 23 24  1  0
 24 16  1  0
 25 27  1  0
 25 26  2  0
 27 28  1  0
 28 29  1  6
 30 31  2  0
 30 29  1  0
 32 28  1  0
 32 33  1  0
 34 30  1  0
 35 32  2  0
M  END
$$$$
