YWD.pdb
     RDKit          3D

 35 37  0  0  1  0  0  0  0  0999 V2000
   28.5420  -14.9255  -18.5453 O   0  0  0  0  0  0  0  0  0  0  0  0
   27.8720  -15.8651  -17.7563 C   0  0  0  0  0  0  0  0  0  0  0  0
   27.9118  -15.8079  -16.3797 C   0  0  0  0  0  0  0  0  0  0  0  0
   27.2375  -16.7538  -15.6225 C   0  0  0  0  0  0  0  0  0  0  0  0
   26.5313  -17.7456  -16.2657 C   0  0  0  0  0  0  0  0  0  0  0  0
   25.8071  -18.7632  -15.4610 C   0  0  0  0  0  0  0  0  0  0  0  0
   26.7489  -19.6906  -14.7463 C   0  0  2  0  0  0  0  0  0  0  0  0
   27.4524  -20.5226  -15.6696 N   0  0  0  0  0  0  0  0  0  0  0  0
   25.9387  -20.4894  -13.7718 C   0  0  0  0  0  0  0  0  0  0  0  0
   25.2765  -21.4883  -14.1419 O   0  0  0  0  0  0  0  0  0  0  0  0
   26.4845  -17.8125  -17.6346 C   0  0  0  0  0  0  0  0  0  0  0  0
   27.1596  -16.8655  -18.3756 C   0  0  0  0  0  0  0  0  0  0  0  0
   25.9011  -20.1278  -12.3817 N   0  0  0  0  0  0  0  0  0  0  0  0
   25.0646  -20.8447  -11.4988 C   0  0  1  0  0  0  0  0  0  0  0  0
   25.2610  -20.5973  -10.0311 C   0  0  0  0  0  0  0  0  0  0  0  0
   26.6516  -20.7567   -9.5737 C   0  0  0  0  0  0  0  0  0  0  0  0
   27.7077  -21.3346  -10.2847 C   0  0  0  0  0  0  0  0  0  0  0  0
   28.8128  -21.3126   -9.5372 N   0  0  0  0  0  0  0  0  0  0  0  0
   28.5542  -20.7403   -8.3384 C   0  0  0  0  0  0  0  0  0  0  0  0
   29.3683  -20.4926   -7.2522 C   0  0  0  0  0  0  0  0  0  0  0  0
   28.8487  -19.8813   -6.1423 C   0  0  0  0  0  0  0  0  0  0  0  0
   27.5148  -19.5342   -6.1574 C   0  0  0  0  0  0  0  0  0  0  0  0
   26.6969  -19.7786   -7.2377 C   0  0  0  0  0  0  0  0  0  0  0  0
   27.2047  -20.3951   -8.3662 C   0  0  0  0  0  0  0  0  0  0  0  0
   23.6140  -20.6982  -11.7745 C   0  0  0  0  0  0  0  0  0  0  0  0
   23.1702  -19.5221  -11.8384 O   0  0  0  0  0  0  0  0  0  0  0  0
   22.7193  -21.7597  -11.9654 N   0  0  0  0  0  0  0  0  0  0  0  0
   21.3595  -21.5684  -12.4623 C   0  0  1  0  0  0  0  0  0  0  0  0
   21.0832  -22.7291  -13.3742 C   0  0  0  0  0  0  0  0  0  0  0  0
   19.6939  -22.8061  -13.8665 C   0  0  0  0  0  0  0  0  0  0  0  0
   18.7547  -23.2286  -13.1028 O   0  0  0  0  0  0  0  0  0  0  0  0
   20.4157  -21.6726  -11.2978 C   0  0  0  0  0  0  0  0  0  0  0  0
   19.1051  -21.2810  -11.3220 O   0  0  0  0  0  0  0  0  0  0  0  0
   19.3707  -22.4284  -15.1588 O   0  0  0  0  0  0  0  0  0  0  0  0
   20.8836  -22.1575  -10.2315 O   0  0  0  0  0  0  0  0  0  0  0  0
  2  1  1  0
  3  2  2  0
  4  3  1  0
  5  4  2  0
  5 11  1  0
  6  5  1  0
  7  6  1  0
  7  8  1  6
  9  7  1  0
  9 13  1  0
 10  9  2  0
 11 12  2  0
 12  2  1  0
 14 13  1  0
 14 25  1  0
 14 15  1  1
 16 17  2  0
 16 15  1  0
 18 17  1  0
 19 24  2  0
 19 18  1  0
 20 19  1  0
 21 22  1  0
 21 20  2  0
 22 23  2  0
 23 24  1  0
 24 16  1  0
 25 27  1  0
 25 26  2  0
 27 28  1  0
 28 29  1  6
 30 31  2  0
 30 29  1  0
 32 28  1  0
 32 33  1  0
 34 30  1  0
 35 32  2  0
M  END
$$$$
