YWD.pdb
     RDKit          3D

 35 37  0  0  1  0  0  0  0  0999 V2000
   29.9991  -20.1044  -23.2283 O   0  0  0  0  0  0  0  0  0  0  0  0
   29.2151  -19.6856  -22.1493 C   0  0  0  0  0  0  0  0  0  0  0  0
   27.8399  -19.7732  -22.1824 C   0  0  0  0  0  0  0  0  0  0  0  0
   27.0877  -19.3498  -21.0972 C   0  0  0  0  0  0  0  0  0  0  0  0
   27.7343  -18.8433  -19.9921 C   0  0  0  0  0  0  0  0  0  0  0  0
   26.9349  -18.3867  -18.8258 C   0  0  0  0  0  0  0  0  0  0  0  0
   26.3327  -17.0289  -19.0528 C   0  0  2  0  0  0  0  0  0  0  0  0
   27.3463  -16.0344  -19.2040 N   0  0  0  0  0  0  0  0  0  0  0  0
   25.4279  -16.7401  -17.8942 C   0  0  0  0  0  0  0  0  0  0  0  0
   25.7220  -15.8687  -17.0412 O   0  0  0  0  0  0  0  0  0  0  0  0
   29.1019  -18.7514  -19.9478 C   0  0  0  0  0  0  0  0  0  0  0  0
   29.8379  -19.1759  -21.0339 C   0  0  0  0  0  0  0  0  0  0  0  0
   24.1945  -17.4589  -17.7320 N   0  0  0  0  0  0  0  0  0  0  0  0
   23.3015  -17.0854  -16.7043 C   0  0  1  0  0  0  0  0  0  0  0  0
   22.8127  -15.6660  -16.7163 C   0  0  0  0  0  0  0  0  0  0  0  0
   22.3709  -15.1917  -18.0386 C   0  0  0  0  0  0  0  0  0  0  0  0
   23.1762  -14.6655  -19.0532 C   0  0  0  0  0  0  0  0  0  0  0  0
   22.4158  -14.3326  -20.0980 N   0  0  0  0  0  0  0  0  0  0  0  0
   21.1172  -14.6114  -19.8379 C   0  0  0  0  0  0  0  0  0  0  0  0
   19.9798  -14.4507  -20.6023 C   0  0  0  0  0  0  0  0  0  0  0  0
   18.7646  -14.8278  -20.0954 C   0  0  0  0  0  0  0  0  0  0  0  0
   18.7288  -15.3600  -18.8244 C   0  0  0  0  0  0  0  0  0  0  0  0
   19.8599  -15.5230  -18.0563 C   0  0  0  0  0  0  0  0  0  0  0  0
   21.0946  -15.1473  -18.5520 C   0  0  0  0  0  0  0  0  0  0  0  0
   22.1061  -17.9563  -16.5848 C   0  0  0  0  0  0  0  0  0  0  0  0
   21.7284  -18.5391  -17.6346 O   0  0  0  0  0  0  0  0  0  0  0  0
   21.3811  -18.1714  -15.4050 N   0  0  0  0  0  0  0  0  0  0  0  0
   20.1987  -19.0267  -15.3481 C   0  0  1  0  0  0  0  0  0  0  0  0
   20.6382  -20.2994  -14.6831 C   0  0  0  0  0  0  0  0  0  0  0  0
   19.5665  -21.2972  -14.4978 C   0  0  0  0  0  0  0  0  0  0  0  0
   19.8215  -22.4361  -13.9670 O   0  0  0  0  0  0  0  0  0  0  0  0
   19.1887  -18.3713  -14.4492 C   0  0  0  0  0  0  0  0  0  0  0  0
   19.4191  -17.2392  -13.7165 O   0  0  0  0  0  0  0  0  0  0  0  0
   18.2660  -21.0320  -14.8920 O   0  0  0  0  0  0  0  0  0  0  0  0
   18.0545  -18.9186  -14.3782 O   0  0  0  0  0  0  0  0  0  0  0  0
  2  1  1  0
  3  2  2  0
  4  3  1  0
  5  4  2  0
  5 11  1  0
  6  5  1  0
  7  6  1  0
  7  8  1  1
  9  7  1  0
  9 13  1  0
 10  9  2  0
 11 12  2  0
 12  2  1  0
 14 13  1  0
 14 25  1  0
 14 15  1  6
 16 17  2  0
 16 15  1  0
 18 17  1  0
 19 24  2  0
 19 18  1  0
 20 19  1  0
 21 22  1  0
 21 20  2  0
 22 23  2  0
 23 24  1  0
 24 16  1  0
 25 27  1  0
 25 26  2  0
 27 28  1  0
 28 29  1  1
 30 31  2  0
 30 29  1  0
 32 28  1  0
 32 33  1  0
 34 30  1  0
 35 32  2  0
M  END
$$$$
