YWD.pdb
     RDKit          3D

 35 37  0  0  1  0  0  0  0  0999 V2000
   30.7968  -16.2292  -19.6422 O   0  0  0  0  0  0  0  0  0  0  0  0
   29.9327  -17.0686  -18.9331 C   0  0  0  0  0  0  0  0  0  0  0  0
   30.0256  -18.4407  -19.0258 C   0  0  0  0  0  0  0  0  0  0  0  0
   29.1546  -19.2488  -18.3107 C   0  0  0  0  0  0  0  0  0  0  0  0
   28.2007  -18.6603  -17.5109 C   0  0  0  0  0  0  0  0  0  0  0  0
   27.2633  -19.5197  -16.7425 C   0  0  0  0  0  0  0  0  0  0  0  0
   27.4118  -19.3291  -15.2594 C   0  0  2  0  0  0  0  0  0  0  0  0
   28.7601  -19.5502  -14.8439 N   0  0  0  0  0  0  0  0  0  0  0  0
   26.4543  -20.2658  -14.5886 C   0  0  0  0  0  0  0  0  0  0  0  0
   25.4089  -20.6501  -15.1656 O   0  0  0  0  0  0  0  0  0  0  0  0
   28.0988  -17.2964  -17.4107 C   0  0  0  0  0  0  0  0  0  0  0  0
   28.9713  -16.5046  -18.1272 C   0  0  0  0  0  0  0  0  0  0  0  0
   26.7127  -20.7490  -13.2603 N   0  0  0  0  0  0  0  0  0  0  0  0
   25.7579  -21.5685  -12.6202 C   0  0  1  0  0  0  0  0  0  0  0  0
   26.1849  -22.2335  -11.3438 C   0  0  0  0  0  0  0  0  0  0  0  0
   26.2697  -21.3237  -10.1891 C   0  0  0  0  0  0  0  0  0  0  0  0
   25.2370  -20.5466   -9.6557 C   0  0  0  0  0  0  0  0  0  0  0  0
   25.6990  -19.8405   -8.6221 N   0  0  0  0  0  0  0  0  0  0  0  0
   27.0118  -20.1045   -8.4258 C   0  0  0  0  0  0  0  0  0  0  0  0
   27.9073  -19.6283   -7.4904 C   0  0  0  0  0  0  0  0  0  0  0  0
   29.2030  -20.0715   -7.5067 C   0  0  0  0  0  0  0  0  0  0  0  0
   29.5630  -20.9882   -8.4710 C   0  0  0  0  0  0  0  0  0  0  0  0
   28.6746  -21.4674   -9.4075 C   0  0  0  0  0  0  0  0  0  0  0  0
   27.3629  -21.0305   -9.4059 C   0  0  0  0  0  0  0  0  0  0  0  0
   24.4603  -20.9013  -12.3502 C   0  0  0  0  0  0  0  0  0  0  0  0
   24.5031  -19.8449  -11.6672 O   0  0  0  0  0  0  0  0  0  0  0  0
   23.2122  -21.3575  -12.7951 N   0  0  0  0  0  0  0  0  0  0  0  0
   21.9762  -20.6077  -12.5878 C   0  0  1  0  0  0  0  0  0  0  0  0
   21.7540  -19.8172  -13.8451 C   0  0  0  0  0  0  0  0  0  0  0  0
   20.5327  -18.9886  -13.8416 C   0  0  0  0  0  0  0  0  0  0  0  0
   19.7970  -18.9169  -12.7938 O   0  0  0  0  0  0  0  0  0  0  0  0
   20.8464  -21.5908  -12.4651 C   0  0  0  0  0  0  0  0  0  0  0  0
   20.8815  -22.8770  -12.9295 O   0  0  0  0  0  0  0  0  0  0  0  0
   20.1503  -18.2728  -14.9634 O   0  0  0  0  0  0  0  0  0  0  0  0
   19.8004  -21.1822  -11.8908 O   0  0  0  0  0  0  0  0  0  0  0  0
  2  1  1  0
  3  2  2  0
  4  3  1  0
  5  4  2  0
  5 11  1  0
  6  5  1  0
  7  6  1  0
  7  8  1  1
  9  7  1  0
  9 13  1  0
 10  9  2  0
 11 12  2  0
 12  2  1  0
 14 13  1  0
 14 25  1  0
 14 15  1  1
 16 17  2  0
 16 15  1  0
 18 17  1  0
 19 24  2  0
 19 18  1  0
 20 19  1  0
 21 22  1  0
 21 20  2  0
 22 23  2  0
 23 24  1  0
 24 16  1  0
 25 27  1  0
 25 26  2  0
 27 28  1  0
 28 29  1  6
 30 31  2  0
 30 29  1  0
 32 28  1  0
 32 33  1  0
 34 30  1  0
 35 32  2  0
M  END
$$$$
