TDK.pdb
     RDKit          3D

 25 24  0  0  1  0  0  0  0  0999 V2000
    9.4496  -12.5860   20.1243 C   0  0  0  0  0  0  0  0  0  0  0  0
    8.1329  -12.9927   19.5521 C   0  0  1  0  0  0  0  0  0  0  0  0
    7.4948  -11.8931   19.0252 O   0  0  0  0  0  0  0  0  0  0  0  0
    8.2481  -14.0409   18.4590 C   0  0  2  0  0  0  0  0  0  0  0  0
    6.9794  -14.4231   17.9142 N   0  0  0  0  0  0  0  0  0  0  0  0
    9.0301  -15.1586   19.0055 C   0  0  0  0  0  0  0  0  0  0  0  0
    8.3853  -16.1721   19.4011 O   0  0  0  0  0  0  0  0  0  0  0  0
   10.4476  -15.1911   19.1244 N   0  0  0  0  0  0  0  0  0  0  0  0
   11.1712  -16.3523   19.5525 C   0  0  1  0  0  0  0  0  0  0  0  0
   12.2570  -16.6635   18.5504 C   0  0  0  0  0  0  0  0  0  0  0  0
   13.0217  -17.8751   18.8796 C   0  0  0  0  0  0  0  0  0  0  0  0
   12.4309  -18.8388   19.4184 O   0  0  0  0  0  0  0  0  0  0  0  0
   11.7040  -16.2227   20.9304 C   0  0  0  0  0  0  0  0  0  0  0  0
   12.5719  -15.3492   21.2126 O   0  0  0  0  0  0  0  0  0  0  0  0
   14.3735  -18.0000   18.6196 O   0  0  0  0  0  0  0  0  0  0  0  0
   11.2856  -17.0512   22.0023 N   0  0  0  0  0  0  0  0  0  0  0  0
   11.8631  -16.9776   23.3495 C   0  0  1  0  0  0  0  0  0  0  0  0
   11.3224  -18.0347   24.2281 C   0  0  0  0  0  0  0  0  0  0  0  0
   11.9033  -17.9694   25.6088 C   0  0  0  0  0  0  0  0  0  0  0  0
   11.2580  -19.0208   26.5212 C   0  0  0  0  0  0  0  0  0  0  0  0
   11.7743  -18.7839   27.9174 C   0  0  0  0  0  0  0  0  0  0  0  0
   11.1069  -19.5713   28.9069 N   0  0  0  0  0  0  0  0  0  0  0  0
   13.3275  -17.0574   23.2398 C   0  0  0  0  0  0  0  0  0  0  0  0
   13.8248  -17.9723   22.5202 O   0  0  0  0  0  0  0  0  0  0  0  0
   14.2314  -16.2193   23.8496 O   0  0  0  0  0  0  0  0  0  0  0  0
  2  1  1  6
  2  3  1  0
  4  2  1  0
  4  5  1  1
  6  8  1  0
  6  4  1  0
  7  6  2  0
  9 10  1  6
  9  8  1  0
 11 10  1  0
 12 11  2  0
 13 14  2  0
 13  9  1  0
 15 11  1  0
 16 13  1  0
 17 23  1  0
 17 16  1  0
 17 18  1  1
 19 20  1  0
 19 18  1  0
 20 21  1  0
 21 22  1  0
 23 25  1  0
 24 23  2  0
M  END
$$$$
