TDK.pdb
     RDKit          3D

 25 24  0  0  1  0  0  0  0  0999 V2000
    7.2611  -17.6058   17.3389 C   0  0  0  0  0  0  0  0  0  0  0  0
    8.4496  -17.9141   18.1866 C   0  0  1  0  0  0  0  0  0  0  0  0
    8.0380  -18.4049   19.4046 O   0  0  0  0  0  0  0  0  0  0  0  0
    9.3894  -18.9302   17.5611 C   0  0  2  0  0  0  0  0  0  0  0  0
    8.7612  -20.1929   17.3095 N   0  0  0  0  0  0  0  0  0  0  0  0
   10.5802  -19.0103   18.4185 C   0  0  0  0  0  0  0  0  0  0  0  0
   10.7730  -20.0979   19.0344 O   0  0  0  0  0  0  0  0  0  0  0  0
   11.5285  -17.9669   18.6100 N   0  0  0  0  0  0  0  0  0  0  0  0
   12.7403  -18.1375   19.3566 C   0  0  1  0  0  0  0  0  0  0  0  0
   13.9008  -17.5914   18.5595 C   0  0  0  0  0  0  0  0  0  0  0  0
   15.2108  -17.9281   19.1352 C   0  0  0  0  0  0  0  0  0  0  0  0
   15.3609  -17.8736   20.3772 O   0  0  0  0  0  0  0  0  0  0  0  0
   12.6680  -17.5451   20.7143 C   0  0  0  0  0  0  0  0  0  0  0  0
   12.5964  -16.2941   20.8749 O   0  0  0  0  0  0  0  0  0  0  0  0
   16.2929  -18.3049   18.3621 O   0  0  0  0  0  0  0  0  0  0  0  0
   12.6739  -18.3240   21.8990 N   0  0  0  0  0  0  0  0  0  0  0  0
   12.6223  -17.7420   23.2453 C   0  0  1  0  0  0  0  0  0  0  0  0
   12.3354  -18.7687   24.2676 C   0  0  0  0  0  0  0  0  0  0  0  0
   12.2441  -18.1811   25.6440 C   0  0  0  0  0  0  0  0  0  0  0  0
   11.8484  -19.2527   26.6684 C   0  0  0  0  0  0  0  0  0  0  0  0
   11.8995  -18.6133   28.0324 C   0  0  0  0  0  0  0  0  0  0  0  0
   11.4282  -19.4704   29.0754 N   0  0  0  0  0  0  0  0  0  0  0  0
   13.8936  -17.0514   23.5095 C   0  0  0  0  0  0  0  0  0  0  0  0
   13.8509  -15.8927   24.0174 O   0  0  0  0  0  0  0  0  0  0  0  0
   15.1514  -17.5477   23.2589 O   0  0  0  0  0  0  0  0  0  0  0  0
  2  1  1  6
  2  3  1  0
  4  2  1  0
  4  5  1  1
  6  8  1  0
  6  4  1  0
  7  6  2  0
  9 10  1  6
  9  8  1  0
 11 10  1  0
 12 11  2  0
 13 14  2  0
 13  9  1  0
 15 11  1  0
 16 13  1  0
 17 23  1  0
 17 16  1  0
 17 18  1  1
 19 20  1  0
 19 18  1  0
 20 21  1  0
 21 22  1  0
 23 25  1  0
 24 23  2  0
M  END
$$$$
