TDK.pdb
     RDKit          3D

 25 24  0  0  1  0  0  0  0  0999 V2000
    7.8623  -12.8951   19.0591 C   0  0  0  0  0  0  0  0  0  0  0  0
    7.4481  -13.5566   17.7874 C   0  0  1  0  0  0  0  0  0  0  0  0
    7.3742  -12.6225   16.7794 O   0  0  0  0  0  0  0  0  0  0  0  0
    8.3961  -14.6569   17.3431 C   0  0  2  0  0  0  0  0  0  0  0  0
    8.0539  -15.2085   16.0659 N   0  0  0  0  0  0  0  0  0  0  0  0
    8.4583  -15.6453   18.4287 C   0  0  0  0  0  0  0  0  0  0  0  0
    7.9630  -16.7856   18.1971 O   0  0  0  0  0  0  0  0  0  0  0  0
    9.0287  -15.4226   19.7132 N   0  0  0  0  0  0  0  0  0  0  0  0
    9.5234  -16.4805   20.5445 C   0  0  1  0  0  0  0  0  0  0  0  0
   10.7016  -17.1397   19.8681 C   0  0  0  0  0  0  0  0  0  0  0  0
   10.3687  -18.4309   19.2492 C   0  0  0  0  0  0  0  0  0  0  0  0
    9.2532  -18.9485   19.4858 O   0  0  0  0  0  0  0  0  0  0  0  0
    9.8502  -16.0278   21.9184 C   0  0  0  0  0  0  0  0  0  0  0  0
   10.8068  -15.2303   22.1300 O   0  0  0  0  0  0  0  0  0  0  0  0
   11.2374  -19.1050   18.4118 O   0  0  0  0  0  0  0  0  0  0  0  0
    9.1280  -16.4491   23.0635 N   0  0  0  0  0  0  0  0  0  0  0  0
    9.4301  -15.9833   24.4221 C   0  0  1  0  0  0  0  0  0  0  0  0
    8.4030  -16.4264   25.3866 C   0  0  0  0  0  0  0  0  0  0  0  0
    8.4428  -17.9087   25.6087 C   0  0  0  0  0  0  0  0  0  0  0  0
    7.2622  -18.3609   26.4782 C   0  0  0  0  0  0  0  0  0  0  0  0
    7.3734  -19.8545   26.6479 C   0  0  0  0  0  0  0  0  0  0  0  0
    6.3878  -20.3970   27.5306 N   0  0  0  0  0  0  0  0  0  0  0  0
   10.7701  -16.4597   24.7969 C   0  0  0  0  0  0  0  0  0  0  0  0
   11.3148  -15.9647   25.8267 O   0  0  0  0  0  0  0  0  0  0  0  0
   11.5063  -17.4111   24.1305 O   0  0  0  0  0  0  0  0  0  0  0  0
  2  1  1  1
  2  3  1  0
  4  2  1  0
  4  5  1  6
  6  8  1  0
  6  4  1  0
  7  6  2  0
  9 10  1  6
  9  8  1  0
 11 10  1  0
 12 11  2  0
 13 14  2  0
 13  9  1  0
 15 11  1  0
 16 13  1  0
 17 23  1  0
 17 16  1  0
 17 18  1  1
 19 20  1  0
 19 18  1  0
 20 21  1  0
 21 22  1  0
 23 25  1  0
 24 23  2  0
M  END
$$$$
