TDK.pdb
     RDKit          3D

 25 24  0  0  1  0  0  0  0  0999 V2000
    9.4379  -13.0365   17.0989 C   0  0  0  0  0  0  0  0  0  0  0  0
    9.3999  -13.8066   18.3763 C   0  0  1  0  0  0  0  0  0  0  0  0
   10.2335  -13.2178   19.2997 O   0  0  0  0  0  0  0  0  0  0  0  0
    8.0111  -13.8982   18.9844 C   0  0  2  0  0  0  0  0  0  0  0  0
    7.4418  -12.6160   19.2751 N   0  0  0  0  0  0  0  0  0  0  0  0
    8.1004  -14.7946   20.1454 C   0  0  0  0  0  0  0  0  0  0  0  0
    7.9910  -14.2665   21.2893 O   0  0  0  0  0  0  0  0  0  0  0  0
    8.2991  -16.2023   20.0852 N   0  0  0  0  0  0  0  0  0  0  0  0
    8.2237  -17.0537   21.2361 C   0  0  1  0  0  0  0  0  0  0  0  0
    8.3796  -18.4927   20.8057 C   0  0  0  0  0  0  0  0  0  0  0  0
    8.2831  -19.4463   21.9202 C   0  0  0  0  0  0  0  0  0  0  0  0
    7.7776  -19.0680   23.0016 O   0  0  0  0  0  0  0  0  0  0  0  0
    9.1938  -16.6793   22.2934 C   0  0  0  0  0  0  0  0  0  0  0  0
   10.4248  -16.5621   22.0346 O   0  0  0  0  0  0  0  0  0  0  0  0
    8.7286  -20.7515   21.8285 O   0  0  0  0  0  0  0  0  0  0  0  0
    8.8156  -16.4324   23.6375 N   0  0  0  0  0  0  0  0  0  0  0  0
    9.7598  -15.9937   24.6718 C   0  0  1  0  0  0  0  0  0  0  0  0
    9.0567  -15.5476   25.8917 C   0  0  0  0  0  0  0  0  0  0  0  0
   10.0110  -15.1914   26.9920 C   0  0  0  0  0  0  0  0  0  0  0  0
    9.2514  -14.8103   28.2695 C   0  0  0  0  0  0  0  0  0  0  0  0
   10.2766  -14.4309   29.3074 C   0  0  0  0  0  0  0  0  0  0  0  0
    9.6980  -14.0361   30.5539 N   0  0  0  0  0  0  0  0  0  0  0  0
   10.6947  -17.0934   24.9539 C   0  0  0  0  0  0  0  0  0  0  0  0
   10.2359  -18.2722   24.9990 O   0  0  0  0  0  0  0  0  0  0  0  0
   12.0464  -16.9696   25.1752 O   0  0  0  0  0  0  0  0  0  0  0  0
  2  1  1  6
  2  3  1  0
  4  2  1  0
  4  5  1  1
  6  8  1  0
  6  4  1  0
  7  6  2  0
  9 10  1  6
  9  8  1  0
 11 10  1  0
 12 11  2  0
 13 14  2  0
 13  9  1  0
 15 11  1  0
 16 13  1  0
 17 23  1  0
 17 16  1  0
 17 18  1  1
 19 20  1  0
 19 18  1  0
 20 21  1  0
 21 22  1  0
 23 25  1  0
 24 23  2  0
M  END
$$$$
