TDK.pdb
     RDKit          3D

 25 24  0  0  1  0  0  0  0  0999 V2000
    6.7422  -18.1295   21.4993 C   0  0  0  0  0  0  0  0  0  0  0  0
    6.8588  -19.3637   20.6691 C   0  0  1  0  0  0  0  0  0  0  0  0
    6.1229  -19.2199   19.5151 O   0  0  0  0  0  0  0  0  0  0  0  0
    8.2888  -19.6954   20.2790 C   0  0  2  0  0  0  0  0  0  0  0  0
    8.3822  -20.8255   19.4033 N   0  0  0  0  0  0  0  0  0  0  0  0
    9.0608  -19.8314   21.5220 C   0  0  0  0  0  0  0  0  0  0  0  0
    8.7781  -20.8112   22.2700 O   0  0  0  0  0  0  0  0  0  0  0  0
   10.0957  -18.9530   21.9487 N   0  0  0  0  0  0  0  0  0  0  0  0
   10.7618  -19.0825   23.2114 C   0  0  1  0  0  0  0  0  0  0  0  0
   12.0314  -18.2652   23.1942 C   0  0  0  0  0  0  0  0  0  0  0  0
   12.9900  -18.7024   22.1691 C   0  0  0  0  0  0  0  0  0  0  0  0
   13.1294  -19.9275   21.9504 O   0  0  0  0  0  0  0  0  0  0  0  0
    9.8902  -18.7355   24.3600 C   0  0  0  0  0  0  0  0  0  0  0  0
    9.3659  -17.5901   24.4557 O   0  0  0  0  0  0  0  0  0  0  0  0
   13.7506  -17.8160   21.4298 O   0  0  0  0  0  0  0  0  0  0  0  0
    9.5917  -19.6445   25.4064 N   0  0  0  0  0  0  0  0  0  0  0  0
    8.7630  -19.2934   26.5657 C   0  0  1  0  0  0  0  0  0  0  0  0
    7.8715  -20.4065   26.9502 C   0  0  0  0  0  0  0  0  0  0  0  0
    6.9371  -20.7868   25.8410 C   0  0  0  0  0  0  0  0  0  0  0  0
    6.2033  -22.0933   26.1712 C   0  0  0  0  0  0  0  0  0  0  0  0
    5.2351  -22.3630   25.0478 C   0  0  0  0  0  0  0  0  0  0  0  0
    4.5206  -23.5919   25.2015 N   0  0  0  0  0  0  0  0  0  0  0  0
    9.6454  -18.8956   27.6730 C   0  0  0  0  0  0  0  0  0  0  0  0
   10.8912  -19.0758   27.5398 O   0  0  0  0  0  0  0  0  0  0  0  0
    9.2471  -18.3324   28.8628 O   0  0  0  0  0  0  0  0  0  0  0  0
  2  1  1  6
  2  3  1  0
  4  2  1  0
  4  5  1  1
  6  8  1  0
  6  4  1  0
  7  6  2  0
  9 10  1  6
  9  8  1  0
 11 10  1  0
 12 11  2  0
 13 14  2  0
 13  9  1  0
 15 11  1  0
 16 13  1  0
 17 23  1  0
 17 16  1  0
 17 18  1  1
 19 20  1  0
 19 18  1  0
 20 21  1  0
 21 22  1  0
 23 25  1  0
 24 23  2  0
M  END
$$$$
