TDK.pdb
     RDKit          3D

 25 24  0  0  1  0  0  0  0  0999 V2000
    8.6654  -16.0510   16.1113 C   0  0  0  0  0  0  0  0  0  0  0  0
    8.7916  -14.6305   16.5501 C   0  0  1  0  0  0  0  0  0  0  0  0
    8.4343  -13.7913   15.5194 O   0  0  0  0  0  0  0  0  0  0  0  0
    7.9303  -14.2924   17.7546 C   0  0  2  0  0  0  0  0  0  0  0  0
    7.8699  -12.8863   18.0224 N   0  0  0  0  0  0  0  0  0  0  0  0
    8.4184  -15.0995   18.8815 C   0  0  0  0  0  0  0  0  0  0  0  0
    9.1798  -14.5257   19.7124 O   0  0  0  0  0  0  0  0  0  0  0  0
    8.1041  -16.4682   19.1109 N   0  0  0  0  0  0  0  0  0  0  0  0
    8.5193  -17.1812   20.2832 C   0  0  1  0  0  0  0  0  0  0  0  0
    7.8868  -18.5524   20.2857 C   0  0  0  0  0  0  0  0  0  0  0  0
    6.4176  -18.5146   20.3171 C   0  0  0  0  0  0  0  0  0  0  0  0
    5.8466  -17.7434   21.1216 O   0  0  0  0  0  0  0  0  0  0  0  0
    9.9941  -17.2466   20.4247 C   0  0  0  0  0  0  0  0  0  0  0  0
   10.7432  -17.2982   19.4088 O   0  0  0  0  0  0  0  0  0  0  0  0
    5.6316  -19.2976   19.4927 O   0  0  0  0  0  0  0  0  0  0  0  0
   10.6506  -17.2554   21.6814 N   0  0  0  0  0  0  0  0  0  0  0  0
   11.9712  -16.6552   21.9039 C   0  0  1  0  0  0  0  0  0  0  0  0
   12.0368  -15.2794   21.3705 C   0  0  0  0  0  0  0  0  0  0  0  0
   12.4181  -15.2565   19.9206 C   0  0  0  0  0  0  0  0  0  0  0  0
   13.7755  -14.5682   19.7255 C   0  0  0  0  0  0  0  0  0  0  0  0
   13.9978  -14.4222   18.2417 C   0  0  0  0  0  0  0  0  0  0  0  0
   15.2706  -13.8588   17.9147 N   0  0  0  0  0  0  0  0  0  0  0  0
   12.2713  -16.6957   23.3431 C   0  0  0  0  0  0  0  0  0  0  0  0
   13.4706  -16.5235   23.7095 O   0  0  0  0  0  0  0  0  0  0  0  0
   11.3618  -16.9026   24.3537 O   0  0  0  0  0  0  0  0  0  0  0  0
  2  1  1  6
  2  3  1  0
  4  2  1  0
  4  5  1  1
  6  8  1  0
  6  4  1  0
  7  6  2  0
  9 10  1  6
  9  8  1  0
 11 10  1  0
 12 11  2  0
 13 14  2  0
 13  9  1  0
 15 11  1  0
 16 13  1  0
 17 23  1  0
 17 16  1  0
 17 18  1  1
 19 20  1  0
 19 18  1  0
 20 21  1  0
 21 22  1  0
 23 25  1  0
 24 23  2  0
M  END
$$$$
