TDK.pdb
     RDKit          3D

 25 24  0  0  1  0  0  0  0  0999 V2000
    7.2825  -12.7557   18.0918 C   0  0  0  0  0  0  0  0  0  0  0  0
    7.8223  -13.9386   18.8238 C   0  0  1  0  0  0  0  0  0  0  0  0
    8.1922  -14.9130   17.9251 O   0  0  0  0  0  0  0  0  0  0  0  0
    9.0265  -13.6137   19.6905 C   0  0  2  0  0  0  0  0  0  0  0  0
   10.1390  -13.1145   18.9384 N   0  0  0  0  0  0  0  0  0  0  0  0
    9.3272  -14.8109   20.4878 C   0  0  0  0  0  0  0  0  0  0  0  0
    8.3964  -15.2687   21.2112 O   0  0  0  0  0  0  0  0  0  0  0  0
   10.5760  -15.4926   20.5105 N   0  0  0  0  0  0  0  0  0  0  0  0
   10.7981  -16.6956   21.2579 C   0  0  1  0  0  0  0  0  0  0  0  0
   11.6498  -17.6406   20.4445 C   0  0  0  0  0  0  0  0  0  0  0  0
   11.9482  -18.9001   21.1414 C   0  0  0  0  0  0  0  0  0  0  0  0
   11.0000  -19.5985   21.5671 O   0  0  0  0  0  0  0  0  0  0  0  0
   11.3737  -16.4408   22.6007 C   0  0  0  0  0  0  0  0  0  0  0  0
   12.3628  -15.6690   22.7484 O   0  0  0  0  0  0  0  0  0  0  0  0
   13.2377  -19.3520   21.3502 O   0  0  0  0  0  0  0  0  0  0  0  0
   10.8653  -17.0323   23.7848 N   0  0  0  0  0  0  0  0  0  0  0  0
   11.3708  -16.7132   25.1251 C   0  0  1  0  0  0  0  0  0  0  0  0
   10.4078  -15.8900   25.8844 C   0  0  0  0  0  0  0  0  0  0  0  0
   10.9135  -15.5546   27.2555 C   0  0  0  0  0  0  0  0  0  0  0  0
    9.8493  -14.7939   28.0574 C   0  0  0  0  0  0  0  0  0  0  0  0
   10.4300  -14.5070   29.4185 C   0  0  0  0  0  0  0  0  0  0  0  0
    9.5463  -13.7664   30.2642 N   0  0  0  0  0  0  0  0  0  0  0  0
   11.6819  -17.9696   25.8233 C   0  0  0  0  0  0  0  0  0  0  0  0
   11.0116  -19.0014   25.5259 O   0  0  0  0  0  0  0  0  0  0  0  0
   12.6500  -18.1428   26.7846 O   0  0  0  0  0  0  0  0  0  0  0  0
  2  1  1  6
  2  3  1  0
  4  2  1  0
  4  5  1  6
  6  8  1  0
  6  4  1  0
  7  6  2  0
  9 10  1  6
  9  8  1  0
 11 10  1  0
 12 11  2  0
 13 14  2  0
 13  9  1  0
 15 11  1  0
 16 13  1  0
 17 23  1  0
 17 16  1  0
 17 18  1  1
 19 20  1  0
 19 18  1  0
 20 21  1  0
 21 22  1  0
 23 25  1  0
 24 23  2  0
M  END
$$$$
