TDK.pdb
     RDKit          3D

 25 24  0  0  1  0  0  0  0  0999 V2000
    9.0808  -12.7245   19.6934 C   0  0  0  0  0  0  0  0  0  0  0  0
    8.2903  -13.4224   18.6377 C   0  0  1  0  0  0  0  0  0  0  0  0
    8.3059  -12.6812   17.4782 O   0  0  0  0  0  0  0  0  0  0  0  0
    8.8090  -14.8133   18.3162 C   0  0  2  0  0  0  0  0  0  0  0  0
    8.0942  -15.4437   17.2466 N   0  0  0  0  0  0  0  0  0  0  0  0
    8.8141  -15.5788   19.5706 C   0  0  0  0  0  0  0  0  0  0  0  0
    7.6942  -15.9659   20.0124 O   0  0  0  0  0  0  0  0  0  0  0  0
    9.9729  -15.9174   20.3237 N   0  0  0  0  0  0  0  0  0  0  0  0
    9.9174  -16.6131   21.5759 C   0  0  1  0  0  0  0  0  0  0  0  0
   11.0699  -17.5851   21.6604 C   0  0  0  0  0  0  0  0  0  0  0  0
   11.1594  -18.2689   22.9586 C   0  0  0  0  0  0  0  0  0  0  0  0
   10.2369  -19.0425   23.3028 O   0  0  0  0  0  0  0  0  0  0  0  0
    9.8732  -15.6973   22.7415 C   0  0  0  0  0  0  0  0  0  0  0  0
   10.7660  -14.8202   22.9136 O   0  0  0  0  0  0  0  0  0  0  0  0
   12.2236  -18.0955   23.8234 O   0  0  0  0  0  0  0  0  0  0  0  0
    8.8492  -15.7415   23.7211 N   0  0  0  0  0  0  0  0  0  0  0  0
    8.7980  -14.8344   24.8736 C   0  0  1  0  0  0  0  0  0  0  0  0
    7.4965  -14.1412   24.9588 C   0  0  0  0  0  0  0  0  0  0  0  0
    7.4391  -13.1941   26.1197 C   0  0  0  0  0  0  0  0  0  0  0  0
    6.0475  -12.5582   26.2354 C   0  0  0  0  0  0  0  0  0  0  0  0
    6.1011  -11.5579   27.3617 C   0  0  0  0  0  0  0  0  0  0  0  0
    4.8632  -10.8719   27.5665 N   0  0  0  0  0  0  0  0  0  0  0  0
    9.0852  -15.6045   26.0932 C   0  0  0  0  0  0  0  0  0  0  0  0
    8.8675  -16.8514   26.0787 O   0  0  0  0  0  0  0  0  0  0  0  0
    9.5799  -15.0981   27.2722 O   0  0  0  0  0  0  0  0  0  0  0  0
  2  1  1  1
  2  3  1  0
  4  2  1  0
  4  5  1  6
  6  8  1  0
  6  4  1  0
  7  6  2  0
  9 10  1  1
  9  8  1  0
 11 10  1  0
 12 11  2  0
 13 14  2  0
 13  9  1  0
 15 11  1  0
 16 13  1  0
 17 23  1  0
 17 16  1  0
 17 18  1  1
 19 20  1  0
 19 18  1  0
 20 21  1  0
 21 22  1  0
 23 25  1  0
 24 23  2  0
M  END
$$$$
