TDK.pdb
     RDKit          3D

 25 24  0  0  1  0  0  0  0  0999 V2000
    9.5298  -12.7499   19.4151 C   0  0  0  0  0  0  0  0  0  0  0  0
    8.4851  -13.3258   18.5189 C   0  0  1  0  0  0  0  0  0  0  0  0
    8.4558  -12.6308   17.3313 O   0  0  0  0  0  0  0  0  0  0  0  0
    8.7056  -14.7946   18.2012 C   0  0  2  0  0  0  0  0  0  0  0  0
    7.7082  -15.3336   17.3253 N   0  0  0  0  0  0  0  0  0  0  0  0
    8.8299  -15.5050   19.4816 C   0  0  0  0  0  0  0  0  0  0  0  0
    7.7640  -15.7125   20.1298 O   0  0  0  0  0  0  0  0  0  0  0  0
   10.0479  -15.9755   20.0471 N   0  0  0  0  0  0  0  0  0  0  0  0
   10.1095  -16.6973   21.2842 C   0  0  1  0  0  0  0  0  0  0  0  0
   11.3251  -17.5932   21.2813 C   0  0  0  0  0  0  0  0  0  0  0  0
   11.4954  -18.3457   22.5326 C   0  0  0  0  0  0  0  0  0  0  0  0
   10.5925  -19.1341   22.8952 O   0  0  0  0  0  0  0  0  0  0  0  0
   10.0738  -15.8090   22.4711 C   0  0  0  0  0  0  0  0  0  0  0  0
   11.0252  -15.0153   22.7182 O   0  0  0  0  0  0  0  0  0  0  0  0
   12.6151  -18.2217   23.3335 O   0  0  0  0  0  0  0  0  0  0  0  0
    8.9941  -15.7893   23.3899 N   0  0  0  0  0  0  0  0  0  0  0  0
    8.9236  -14.8672   24.5295 C   0  0  1  0  0  0  0  0  0  0  0  0
    7.5614  -14.3228   24.7012 C   0  0  0  0  0  0  0  0  0  0  0  0
    7.4980  -13.3025   25.7980 C   0  0  0  0  0  0  0  0  0  0  0  0
    6.0743  -12.7501   25.9462 C   0  0  0  0  0  0  0  0  0  0  0  0
    6.1272  -11.6323   26.9562 C   0  0  0  0  0  0  0  0  0  0  0  0
    4.8612  -11.0020   27.1671 N   0  0  0  0  0  0  0  0  0  0  0  0
    9.3841  -15.5719   25.7354 C   0  0  0  0  0  0  0  0  0  0  0  0
    9.8652  -14.8846   26.6832 O   0  0  0  0  0  0  0  0  0  0  0  0
    9.3413  -16.9305   25.9446 O   0  0  0  0  0  0  0  0  0  0  0  0
  2  1  1  1
  2  3  1  0
  4  2  1  0
  4  5  1  1
  6  8  1  0
  6  4  1  0
  7  6  2  0
  9 10  1  6
  9  8  1  0
 11 10  1  0
 12 11  2  0
 13 14  2  0
 13  9  1  0
 15 11  1  0
 16 13  1  0
 17 23  1  0
 17 16  1  0
 17 18  1  1
 19 20  1  0
 19 18  1  0
 20 21  1  0
 21 22  1  0
 23 25  1  0
 24 23  2  0
M  END
$$$$
