TDK.pdb
     RDKit          3D

 25 24  0  0  1  0  0  0  0  0999 V2000
    8.5234  -12.4147   18.4727 C   0  0  0  0  0  0  0  0  0  0  0  0
    8.7824  -13.4062   19.5571 C   0  0  1  0  0  0  0  0  0  0  0  0
    7.9622  -13.1462   20.6313 O   0  0  0  0  0  0  0  0  0  0  0  0
    8.5545  -14.8448   19.1263 C   0  0  2  0  0  0  0  0  0  0  0  0
    7.2579  -15.0595   18.5560 N   0  0  0  0  0  0  0  0  0  0  0  0
    8.8526  -15.7003   20.2833 C   0  0  0  0  0  0  0  0  0  0  0  0
    7.8700  -16.0950   20.9748 O   0  0  0  0  0  0  0  0  0  0  0  0
   10.1521  -16.1177   20.6855 N   0  0  0  0  0  0  0  0  0  0  0  0
   10.3975  -16.8734   21.8787 C   0  0  1  0  0  0  0  0  0  0  0  0
   11.7408  -17.5551   21.7724 C   0  0  0  0  0  0  0  0  0  0  0  0
   11.8150  -18.5240   20.6693 C   0  0  0  0  0  0  0  0  0  0  0  0
   12.7636  -18.4467   19.8554 O   0  0  0  0  0  0  0  0  0  0  0  0
   10.2822  -16.0566   23.1111 C   0  0  0  0  0  0  0  0  0  0  0  0
   11.1150  -15.1412   23.3648 O   0  0  0  0  0  0  0  0  0  0  0  0
   10.8784  -19.5241   20.4880 O   0  0  0  0  0  0  0  0  0  0  0  0
    9.2526  -16.2423   24.0681 N   0  0  0  0  0  0  0  0  0  0  0  0
    9.1160  -15.4167   25.2738 C   0  0  1  0  0  0  0  0  0  0  0  0
    7.7677  -14.8215   25.3716 C   0  0  0  0  0  0  0  0  0  0  0  0
    7.8007  -13.4523   25.9818 C   0  0  0  0  0  0  0  0  0  0  0  0
    6.3854  -12.8690   26.0873 C   0  0  0  0  0  0  0  0  0  0  0  0
    6.4997  -11.5291   26.7684 C   0  0  0  0  0  0  0  0  0  0  0  0
    5.2384  -10.8823   26.9561 N   0  0  0  0  0  0  0  0  0  0  0  0
    9.4331  -16.2420   26.4490 C   0  0  0  0  0  0  0  0  0  0  0  0
    9.5301  -15.6695   27.5738 O   0  0  0  0  0  0  0  0  0  0  0  0
    9.6360  -17.6022   26.4515 O   0  0  0  0  0  0  0  0  0  0  0  0
  2  1  1  6
  2  3  1  0
  4  2  1  0
  4  5  1  1
  6  8  1  0
  6  4  1  0
  7  6  2  0
  9 10  1  6
  9  8  1  0
 11 10  1  0
 12 11  2  0
 13 14  2  0
 13  9  1  0
 15 11  1  0
 16 13  1  0
 17 23  1  0
 17 16  1  0
 17 18  1  1
 19 20  1  0
 19 18  1  0
 20 21  1  0
 21 22  1  0
 23 25  1  0
 24 23  2  0
M  END
$$$$
