TDK.pdb
     RDKit          3D

 25 24  0  0  1  0  0  0  0  0999 V2000
    7.1546  -12.5061   19.1588 C   0  0  0  0  0  0  0  0  0  0  0  0
    7.9852  -13.4826   18.3954 C   0  0  1  0  0  0  0  0  0  0  0  0
    8.5535  -12.8600   17.3075 O   0  0  0  0  0  0  0  0  0  0  0  0
    9.0998  -14.1016   19.2208 C   0  0  2  0  0  0  0  0  0  0  0  0
   10.1256  -14.6983   18.4181 N   0  0  0  0  0  0  0  0  0  0  0  0
    8.4740  -15.0223   20.1800 C   0  0  0  0  0  0  0  0  0  0  0  0
    7.6461  -14.5259   20.9971 O   0  0  0  0  0  0  0  0  0  0  0  0
    8.7240  -16.4207   20.2622 N   0  0  0  0  0  0  0  0  0  0  0  0
    8.1359  -17.2640   21.2612 C   0  0  1  0  0  0  0  0  0  0  0  0
    8.0036  -18.6667   20.7180 C   0  0  0  0  0  0  0  0  0  0  0  0
    7.5099  -19.6306   21.7120 C   0  0  0  0  0  0  0  0  0  0  0  0
    6.5087  -19.3325   22.4026 O   0  0  0  0  0  0  0  0  0  0  0  0
    8.8722  -17.2311   22.5481 C   0  0  0  0  0  0  0  0  0  0  0  0
    8.3084  -17.5639   23.6286 O   0  0  0  0  0  0  0  0  0  0  0  0
    8.1049  -20.8606   21.9209 O   0  0  0  0  0  0  0  0  0  0  0  0
   10.2290  -16.8330   22.6527 N   0  0  0  0  0  0  0  0  0  0  0  0
   10.9431  -16.7356   23.9311 C   0  0  1  0  0  0  0  0  0  0  0  0
   10.9337  -18.0230   24.6552 C   0  0  0  0  0  0  0  0  0  0  0  0
   11.6617  -17.9374   25.9632 C   0  0  0  0  0  0  0  0  0  0  0  0
   11.5979  -19.2760   26.7104 C   0  0  0  0  0  0  0  0  0  0  0  0
   12.2484  -19.0733   28.0550 C   0  0  0  0  0  0  0  0  0  0  0  0
   12.1974  -20.2348   28.8873 N   0  0  0  0  0  0  0  0  0  0  0  0
   12.3128  -16.2672   23.6718 C   0  0  0  0  0  0  0  0  0  0  0  0
   13.0676  -16.0463   24.6636 O   0  0  0  0  0  0  0  0  0  0  0  0
   12.8706  -16.0429   22.4349 O   0  0  0  0  0  0  0  0  0  0  0  0
  2  1  1  1
  2  3  1  0
  4  2  1  0
  4  5  1  6
  6  8  1  0
  6  4  1  0
  7  6  2  0
  9 10  1  6
  9  8  1  0
 11 10  1  0
 12 11  2  0
 13 14  2  0
 13  9  1  0
 15 11  1  0
 16 13  1  0
 17 23  1  0
 17 16  1  0
 17 18  1  6
 19 20  1  0
 19 18  1  0
 20 21  1  0
 21 22  1  0
 23 25  1  0
 24 23  2  0
M  END
$$$$
