TDK.pdb
     RDKit          3D

 25 24  0  0  1  0  0  0  0  0999 V2000
   -4.9814  -20.2097   24.7108 C   0  0  0  0  0  0  0  0  0  0  0  0
   -3.8152  -20.0366   23.7962 C   0  0  1  0  0  0  0  0  0  0  0  0
   -3.7726  -18.7401   23.3365 O   0  0  0  0  0  0  0  0  0  0  0  0
   -2.4818  -20.3488   24.4532 C   0  0  2  0  0  0  0  0  0  0  0  0
   -1.3617  -20.0797   23.6015 N   0  0  0  0  0  0  0  0  0  0  0  0
   -2.5483  -21.7334   24.9411 C   0  0  0  0  0  0  0  0  0  0  0  0
   -1.6197  -22.5140   24.5839 O   0  0  0  0  0  0  0  0  0  0  0  0
   -3.5692  -22.2629   25.7790 N   0  0  0  0  0  0  0  0  0  0  0  0
   -3.5207  -23.5841   26.3331 C   0  0  1  0  0  0  0  0  0  0  0  0
   -2.1420  -23.8423   26.8924 C   0  0  0  0  0  0  0  0  0  0  0  0
   -1.9750  -25.2037   27.4213 C   0  0  0  0  0  0  0  0  0  0  0  0
   -2.9577  -25.7771   27.9445 O   0  0  0  0  0  0  0  0  0  0  0  0
   -4.5846  -23.8264   27.3374 C   0  0  0  0  0  0  0  0  0  0  0  0
   -4.5905  -23.2101   28.4402 O   0  0  0  0  0  0  0  0  0  0  0  0
   -0.7737  -25.8850   27.3672 O   0  0  0  0  0  0  0  0  0  0  0  0
   -5.6450  -24.7455   27.1340 N   0  0  0  0  0  0  0  0  0  0  0  0
   -6.6767  -25.0198   28.1411 C   0  0  1  0  0  0  0  0  0  0  0  0
   -6.2479  -26.0756   29.0808 C   0  0  0  0  0  0  0  0  0  0  0  0
   -7.3017  -26.3801   30.1029 C   0  0  0  0  0  0  0  0  0  0  0  0
   -6.8479  -27.5140   31.0317 C   0  0  0  0  0  0  0  0  0  0  0  0
   -8.0100  -27.8536   31.9297 C   0  0  0  0  0  0  0  0  0  0  0  0
   -7.7548  -28.9713   32.7843 N   0  0  0  0  0  0  0  0  0  0  0  0
   -6.9981  -23.7666   28.8405 C   0  0  0  0  0  0  0  0  0  0  0  0
   -8.1285  -23.6673   29.4014 O   0  0  0  0  0  0  0  0  0  0  0  0
   -6.1770  -22.6691   28.9528 O   0  0  0  0  0  0  0  0  0  0  0  0
  2  1  1  1
  2  3  1  0
  4  2  1  0
  4  5  1  6
  6  8  1  0
  6  4  1  0
  7  6  2  0
  9 10  1  1
  9  8  1  0
 11 10  1  0
 12 11  2  0
 13 14  2  0
 13  9  1  0
 15 11  1  0
 16 13  1  0
 17 23  1  0
 17 16  1  0
 17 18  1  1
 19 20  1  0
 19 18  1  0
 20 21  1  0
 21 22  1  0
 23 25  1  0
 24 23  2  0
M  END
$$$$
