TDK.pdb
     RDKit          3D

 25 24  0  0  1  0  0  0  0  0999 V2000
    9.2540  -12.6224   19.5452 C   0  0  0  0  0  0  0  0  0  0  0  0
    8.2860  -13.3145   18.6450 C   0  0  1  0  0  0  0  0  0  0  0  0
    8.1654  -12.6154   17.4657 O   0  0  0  0  0  0  0  0  0  0  0  0
    8.6875  -14.7405   18.3098 C   0  0  2  0  0  0  0  0  0  0  0  0
    7.8143  -15.3584   17.3568 N   0  0  0  0  0  0  0  0  0  0  0  0
    8.8070  -15.4710   19.5792 C   0  0  0  0  0  0  0  0  0  0  0  0
    7.7310  -15.7967   20.1585 O   0  0  0  0  0  0  0  0  0  0  0  0
   10.0306  -15.8392   20.2052 N   0  0  0  0  0  0  0  0  0  0  0  0
   10.0912  -16.5811   21.4304 C   0  0  1  0  0  0  0  0  0  0  0  0
   11.3295  -17.4453   21.4319 C   0  0  0  0  0  0  0  0  0  0  0  0
   11.4189  -18.3306   22.6020 C   0  0  0  0  0  0  0  0  0  0  0  0
   10.4899  -18.3235   23.4417 O   0  0  0  0  0  0  0  0  0  0  0  0
   10.0135  -15.7152   22.6318 C   0  0  0  0  0  0  0  0  0  0  0  0
   10.8907  -14.8343   22.8564 O   0  0  0  0  0  0  0  0  0  0  0  0
   12.4899  -19.1768   22.8196 O   0  0  0  0  0  0  0  0  0  0  0  0
    8.9729  -15.8137   23.5899 N   0  0  0  0  0  0  0  0  0  0  0  0
    8.9073  -14.9797   24.7957 C   0  0  1  0  0  0  0  0  0  0  0  0
    7.6185  -14.2641   24.8887 C   0  0  0  0  0  0  0  0  0  0  0  0
    7.5682  -13.3490   26.0754 C   0  0  0  0  0  0  0  0  0  0  0  0
    6.1813  -12.7064   26.2090 C   0  0  0  0  0  0  0  0  0  0  0  0
    6.2150  -11.8090   27.4196 C   0  0  0  0  0  0  0  0  0  0  0  0
    4.9494  -11.2127   27.7153 N   0  0  0  0  0  0  0  0  0  0  0  0
    9.1431  -15.8311   25.9714 C   0  0  0  0  0  0  0  0  0  0  0  0
    8.8989  -17.0692   25.8724 O   0  0  0  0  0  0  0  0  0  0  0  0
    9.6152  -15.4112   27.1929 O   0  0  0  0  0  0  0  0  0  0  0  0
  2  1  1  1
  2  3  1  0
  4  2  1  0
  4  5  1  6
  6  8  1  0
  6  4  1  0
  7  6  2  0
  9 10  1  1
  9  8  1  0
 11 10  1  0
 12 11  2  0
 13 14  2  0
 13  9  1  0
 15 11  1  0
 16 13  1  0
 17 23  1  0
 17 16  1  0
 17 18  1  1
 19 20  1  0
 19 18  1  0
 20 21  1  0
 21 22  1  0
 23 25  1  0
 24 23  2  0
M  END
$$$$
