TDK.pdb
     RDKit          3D

 25 24  0  0  1  0  0  0  0  0999 V2000
    6.6720  -12.5062   18.5157 C   0  0  0  0  0  0  0  0  0  0  0  0
    7.4861  -13.7159   18.8323 C   0  0  1  0  0  0  0  0  0  0  0  0
    7.8022  -14.3816   17.6699 O   0  0  0  0  0  0  0  0  0  0  0  0
    8.7800  -13.3984   19.5615 C   0  0  2  0  0  0  0  0  0  0  0  0
    9.6624  -12.5662   18.7991 N   0  0  0  0  0  0  0  0  0  0  0  0
    9.3706  -14.6769   19.9810 C   0  0  0  0  0  0  0  0  0  0  0  0
    8.6598  -15.4269   20.7101 O   0  0  0  0  0  0  0  0  0  0  0  0
   10.6720  -15.1359   19.6339 N   0  0  0  0  0  0  0  0  0  0  0  0
   11.2106  -16.3829   20.0919 C   0  0  1  0  0  0  0  0  0  0  0  0
   12.0348  -17.0070   18.9913 C   0  0  0  0  0  0  0  0  0  0  0  0
   12.5641  -18.3328   19.3421 C   0  0  0  0  0  0  0  0  0  0  0  0
   13.8043  -18.5043   19.3691 O   0  0  0  0  0  0  0  0  0  0  0  0
   11.9760  -16.2498   21.3552 C   0  0  0  0  0  0  0  0  0  0  0  0
   12.9116  -15.4078   21.4630 O   0  0  0  0  0  0  0  0  0  0  0  0
   11.7492  -19.4071   19.6458 O   0  0  0  0  0  0  0  0  0  0  0  0
   11.7167  -17.0404   22.5033 N   0  0  0  0  0  0  0  0  0  0  0  0
   12.4410  -16.8822   23.7699 C   0  0  1  0  0  0  0  0  0  0  0  0
   11.8222  -17.6778   24.8496 C   0  0  0  0  0  0  0  0  0  0  0  0
   12.5212  -17.4839   26.1618 C   0  0  0  0  0  0  0  0  0  0  0  0
   11.8013  -18.2487   27.2804 C   0  0  0  0  0  0  0  0  0  0  0  0
   12.6149  -18.0795   28.5381 C   0  0  0  0  0  0  0  0  0  0  0  0
   12.0988  -18.8192   29.6476 N   0  0  0  0  0  0  0  0  0  0  0  0
   13.8481  -17.2538   23.5580 C   0  0  0  0  0  0  0  0  0  0  0  0
   14.7438  -16.5304   24.0841 O   0  0  0  0  0  0  0  0  0  0  0  0
   14.3000  -18.3321   22.8340 O   0  0  0  0  0  0  0  0  0  0  0  0
  2  1  1  6
  2  3  1  0
  4  2  1  0
  4  5  1  6
  6  8  1  0
  6  4  1  0
  7  6  2  0
  9 10  1  6
  9  8  1  0
 11 10  1  0
 12 11  2  0
 13 14  2  0
 13  9  1  0
 15 11  1  0
 16 13  1  0
 17 23  1  0
 17 16  1  0
 17 18  1  1
 19 20  1  0
 19 18  1  0
 20 21  1  0
 21 22  1  0
 23 25  1  0
 24 23  2  0
M  END
$$$$
