TDK.pdb
     RDKit          3D

 25 24  0  0  1  0  0  0  0  0999 V2000
    8.7279  -12.5292   19.6773 C   0  0  0  0  0  0  0  0  0  0  0  0
    7.9620  -13.5129   18.8574 C   0  0  1  0  0  0  0  0  0  0  0  0
    6.9877  -12.8601   18.1373 O   0  0  0  0  0  0  0  0  0  0  0  0
    8.8291  -14.2902   17.8822 C   0  0  2  0  0  0  0  0  0  0  0  0
    8.0737  -15.1677   17.0384 N   0  0  0  0  0  0  0  0  0  0  0  0
    9.8751  -14.9615   18.6662 C   0  0  0  0  0  0  0  0  0  0  0  0
    9.8393  -16.2249   18.7098 O   0  0  0  0  0  0  0  0  0  0  0  0
   10.9195  -14.3064   19.3767 N   0  0  0  0  0  0  0  0  0  0  0  0
   12.1387  -14.9591   19.7546 C   0  0  1  0  0  0  0  0  0  0  0  0
   13.3081  -14.2372   19.1289 C   0  0  0  0  0  0  0  0  0  0  0  0
   14.6093  -14.8215   19.4845 C   0  0  0  0  0  0  0  0  0  0  0  0
   14.7539  -16.0640   19.4260 O   0  0  0  0  0  0  0  0  0  0  0  0
   12.2875  -15.0940   21.2240 C   0  0  0  0  0  0  0  0  0  0  0  0
   13.3143  -15.6312   21.7270 O   0  0  0  0  0  0  0  0  0  0  0  0
   15.6889  -14.0562   19.8836 O   0  0  0  0  0  0  0  0  0  0  0  0
   11.3099  -14.6398   22.1451 N   0  0  0  0  0  0  0  0  0  0  0  0
   10.4852  -15.5442   22.9549 C   0  0  1  0  0  0  0  0  0  0  0  0
    9.4618  -16.2232   22.1343 C   0  0  0  0  0  0  0  0  0  0  0  0
    8.6427  -17.1858   22.9409 C   0  0  0  0  0  0  0  0  0  0  0  0
    7.5760  -17.8585   22.0669 C   0  0  0  0  0  0  0  0  0  0  0  0
    6.7684  -18.7659   22.9594 C   0  0  0  0  0  0  0  0  0  0  0  0
    5.6029  -19.2937   22.3210 N   0  0  0  0  0  0  0  0  0  0  0  0
   11.3668  -16.5072   23.6319 C   0  0  0  0  0  0  0  0  0  0  0  0
   11.3074  -16.5884   24.8937 O   0  0  0  0  0  0  0  0  0  0  0  0
   12.2661  -17.3492   23.0207 O   0  0  0  0  0  0  0  0  0  0  0  0
  2  1  1  6
  2  3  1  0
  4  2  1  0
  4  5  1  1
  6  8  1  0
  6  4  1  0
  7  6  2  0
  9 10  1  1
  9  8  1  0
 11 10  1  0
 12 11  2  0
 13 14  2  0
 13  9  1  0
 15 11  1  0
 16 13  1  0
 17 23  1  0
 17 16  1  0
 17 18  1  6
 19 20  1  0
 19 18  1  0
 20 21  1  0
 21 22  1  0
 23 25  1  0
 24 23  2  0
M  END
$$$$
