ALH.pdb
     RDKit          3D

 24 24  0  0  1  0  0  0  0  0999 V2000
    6.7204  -16.7729   21.3018 C   0  0  0  0  0  0  0  0  0  0  0  0
    6.9226  -15.2670   21.3766 C   0  0  2  0  0  0  0  0  0  0  0  0
    7.5385  -14.8284   20.1564 N   0  0  0  0  0  0  0  0  0  0  0  0
    7.7884  -14.9727   22.5418 C   0  0  0  0  0  0  0  0  0  0  0  0
    9.0565  -14.9883   22.4477 O   0  0  0  0  0  0  0  0  0  0  0  0
    6.0165  -11.7063   26.7026 C   0  0  0  0  0  0  0  0  0  0  0  0
    6.9069  -12.3318   25.6273 C   0  0  1  0  0  0  0  0  0  0  0  0
    8.2094  -11.5270   25.5258 C   0  0  0  0  0  0  0  0  0  0  0  0
    7.2957  -13.7092   26.0471 C   0  0  0  0  0  0  0  0  0  0  0  0
    8.0845  -14.4017   24.9882 C   0  0  2  0  0  0  0  0  0  0  0  0
    7.2285  -14.6617   23.8100 N   0  0  0  0  0  0  0  0  0  0  0  0
    8.5857  -15.7140   25.5063 C   0  0  0  0  0  0  0  0  0  0  0  0
    7.8234  -16.6862   25.7351 O   0  0  0  0  0  0  0  0  0  0  0  0
    9.9835  -15.8888   25.7576 N   0  0  0  0  0  0  0  0  0  0  0  0
   10.4640  -17.1979   26.2082 C   0  0  1  0  0  0  0  0  0  0  0  0
   11.8936  -17.4098   25.7856 C   0  0  0  0  0  0  0  0  0  0  0  0
   11.9762  -17.4511   24.3171 C   0  0  0  0  0  0  0  0  0  0  0  0
   10.9683  -17.7278   23.4254 C   0  0  0  0  0  0  0  0  0  0  0  0
   11.4702  -17.6795   22.1907 N   0  0  0  0  0  0  0  0  0  0  0  0
   12.7635  -17.3801   22.2896 C   0  0  0  0  0  0  0  0  0  0  0  0
   13.0907  -17.2367   23.5837 N   0  0  0  0  0  0  0  0  0  0  0  0
   10.2142  -17.3752   27.6446 C   0  0  0  0  0  0  0  0  0  0  0  0
   10.3113  -18.5729   28.3203 O   0  0  0  0  0  0  0  0  0  0  0  0
    9.8807  -16.3635   28.3382 O   0  0  0  0  0  0  0  0  0  0  0  0
  2  1  1  6
  2  3  1  0
  4  2  1  0
  4  5  2  0
  7  6  1  1
  7  9  1  0
  7  8  1  0
 10  9  1  1
 10 11  1  0
 10 12  1  0
 11  4  1  0
 12 14  1  0
 13 12  2  0
 14 15  1  0
 15 22  1  0
 16 17  1  0
 15 16  1  1
 17 18  2  0
 19 18  1  0
 20 19  1  0
 21 20  2  0
 21 17  1  0
 22 24  2  0
 22 23  1  0
M  END
$$$$
