ALH.pdb
     RDKit          3D

 24 24  0  0  1  0  0  0  0  0999 V2000
    7.1755  -15.1640   20.5867 C   0  0  0  0  0  0  0  0  0  0  0  0
    7.5511  -16.3075   21.5171 C   0  0  2  0  0  0  0  0  0  0  0  0
    6.3469  -16.9588   21.9484 N   0  0  0  0  0  0  0  0  0  0  0  0
    8.2897  -15.7432   22.6704 C   0  0  0  0  0  0  0  0  0  0  0  0
    9.5327  -15.4840   22.6005 O   0  0  0  0  0  0  0  0  0  0  0  0
    5.7871  -12.2867   26.0193 C   0  0  0  0  0  0  0  0  0  0  0  0
    6.8965  -12.9331   25.1877 C   0  0  1  0  0  0  0  0  0  0  0  0
    8.0644  -11.9463   25.0581 C   0  0  0  0  0  0  0  0  0  0  0  0
    7.4295  -14.1221   25.9134 C   0  0  0  0  0  0  0  0  0  0  0  0
    8.3610  -14.9125   25.0586 C   0  0  2  0  0  0  0  0  0  0  0  0
    7.6310  -15.4712   23.8995 N   0  0  0  0  0  0  0  0  0  0  0  0
    8.9328  -16.0487   25.8485 C   0  0  0  0  0  0  0  0  0  0  0  0
    8.2260  -16.7884   26.5779 O   0  0  0  0  0  0  0  0  0  0  0  0
   10.3363  -16.3197   25.7847 N   0  0  0  0  0  0  0  0  0  0  0  0
   10.8317  -17.6096   26.2733 C   0  0  1  0  0  0  0  0  0  0  0  0
   10.1862  -18.7427   25.5207 C   0  0  0  0  0  0  0  0  0  0  0  0
    9.1466  -19.3647   26.3559 C   0  0  0  0  0  0  0  0  0  0  0  0
    9.1233  -19.4774   27.7249 C   0  0  0  0  0  0  0  0  0  0  0  0
    8.0119  -20.1247   28.0777 N   0  0  0  0  0  0  0  0  0  0  0  0
    7.3425  -20.4182   26.9651 C   0  0  0  0  0  0  0  0  0  0  0  0
    8.0222  -19.9606   25.9015 N   0  0  0  0  0  0  0  0  0  0  0  0
   12.3003  -17.6321   26.2788 C   0  0  0  0  0  0  0  0  0  0  0  0
   13.0734  -18.4754   27.0479 O   0  0  0  0  0  0  0  0  0  0  0  0
   12.9285  -16.8218   25.5275 O   0  0  0  0  0  0  0  0  0  0  0  0
  2  1  1  6
  2  3  1  0
  4  2  1  0
  4  5  2  0
  7  6  1  1
  7  9  1  0
  7  8  1  0
 10  9  1  1
 10 11  1  0
 10 12  1  0
 11  4  1  0
 12 14  1  0
 13 12  2  0
 14 15  1  0
 15 22  1  0
 16 17  1  0
 15 16  1  6
 17 18  2  0
 19 18  1  0
 20 19  1  0
 21 20  2  0
 21 17  1  0
 22 24  2  0
 22 23  1  0
M  END
$$$$
