ALH.pdb
     RDKit          3D

 24 24  0  0  1  0  0  0  0  0999 V2000
    9.8704  -17.0452   15.7574 C   0  0  0  0  0  0  0  0  0  0  0  0
    9.4357  -17.8084   16.9996 C   0  0  2  0  0  0  0  0  0  0  0  0
    8.0117  -17.9825   16.9528 N   0  0  0  0  0  0  0  0  0  0  0  0
    9.8339  -17.0219   18.1899 C   0  0  0  0  0  0  0  0  0  0  0  0
   11.0569  -16.8279   18.4790 O   0  0  0  0  0  0  0  0  0  0  0  0
    6.4112  -13.2106   20.1516 C   0  0  0  0  0  0  0  0  0  0  0  0
    7.7111  -13.8931   19.7219 C   0  0  1  0  0  0  0  0  0  0  0  0
    8.8322  -12.8467   19.6696 C   0  0  0  0  0  0  0  0  0  0  0  0
    8.1129  -14.8882   20.7577 C   0  0  0  0  0  0  0  0  0  0  0  0
    9.2436  -15.7396   20.2889 C   0  0  2  0  0  0  0  0  0  0  0  0
    8.8579  -16.4549   19.0528 N   0  0  0  0  0  0  0  0  0  0  0  0
    9.5812  -16.7551   21.3361 C   0  0  0  0  0  0  0  0  0  0  0  0
    9.2904  -17.9716   21.2170 O   0  0  0  0  0  0  0  0  0  0  0  0
   10.2610  -16.3453   22.5266 N   0  0  0  0  0  0  0  0  0  0  0  0
   11.3826  -17.1521   23.0154 C   0  0  1  0  0  0  0  0  0  0  0  0
   12.3679  -17.4132   21.9072 C   0  0  0  0  0  0  0  0  0  0  0  0
   12.2293  -18.8004   21.4364 C   0  0  0  0  0  0  0  0  0  0  0  0
   11.3369  -19.7506   21.8701 C   0  0  0  0  0  0  0  0  0  0  0  0
   11.5598  -20.8798   21.1964 N   0  0  0  0  0  0  0  0  0  0  0  0
   12.5672  -20.6583   20.3548 C   0  0  0  0  0  0  0  0  0  0  0  0
   12.9894  -19.3908   20.4880 N   0  0  0  0  0  0  0  0  0  0  0  0
   11.9619  -16.5547   24.2257 C   0  0  0  0  0  0  0  0  0  0  0  0
   12.3380  -17.2580   25.3501 O   0  0  0  0  0  0  0  0  0  0  0  0
   12.1382  -15.2965   24.2641 O   0  0  0  0  0  0  0  0  0  0  0  0
  2  1  1  6
  2  3  1  0
  4  2  1  0
  4  5  2  0
  7  6  1  1
  7  9  1  0
  7  8  1  0
 10  9  1  1
 10 11  1  0
 10 12  1  0
 11  4  1  0
 12 14  1  0
 13 12  2  0
 14 15  1  0
 15 22  1  0
 16 17  1  0
 15 16  1  6
 17 18  2  0
 19 18  1  0
 20 19  1  0
 21 20  2  0
 21 17  1  0
 22 24  2  0
 22 23  1  0
M  END
$$$$
