ALH.pdb
     RDKit          3D

 24 24  0  0  1  0  0  0  0  0999 V2000
    6.9248  -16.0042   19.9817 C   0  0  0  0  0  0  0  0  0  0  0  0
    7.3587  -16.7353   21.2433 C   0  0  2  0  0  0  0  0  0  0  0  0
    6.2089  -17.3736   21.8187 N   0  0  0  0  0  0  0  0  0  0  0  0
    7.9364  -15.7427   22.1788 C   0  0  0  0  0  0  0  0  0  0  0  0
    8.9909  -15.0934   21.8901 O   0  0  0  0  0  0  0  0  0  0  0  0
    7.7306  -11.7130   25.5519 C   0  0  0  0  0  0  0  0  0  0  0  0
    7.3240  -13.0015   26.2694 C   0  0  1  0  0  0  0  0  0  0  0  0
    6.1664  -12.6960   27.2291 C   0  0  0  0  0  0  0  0  0  0  0  0
    6.7970  -13.9774   25.2722 C   0  0  0  0  0  0  0  0  0  0  0  0
    7.8713  -14.4591   24.3575 C   0  0  2  0  0  0  0  0  0  0  0  0
    7.3288  -15.4816   23.4362 N   0  0  0  0  0  0  0  0  0  0  0  0
    8.9751  -15.0810   25.1555 C   0  0  0  0  0  0  0  0  0  0  0  0
    9.6894  -14.4207   25.9507 O   0  0  0  0  0  0  0  0  0  0  0  0
    9.2437  -16.4801   25.0220 N   0  0  0  0  0  0  0  0  0  0  0  0
   10.3953  -17.0508   25.7262 C   0  0  1  0  0  0  0  0  0  0  0  0
   11.6576  -16.3192   25.3541 C   0  0  0  0  0  0  0  0  0  0  0  0
   11.9445  -16.5198   23.9249 C   0  0  0  0  0  0  0  0  0  0  0  0
   11.2365  -17.2765   23.0230 C   0  0  0  0  0  0  0  0  0  0  0  0
   11.8455  -17.2038   21.8387 N   0  0  0  0  0  0  0  0  0  0  0  0
   12.9139  -16.4221   21.9790 C   0  0  0  0  0  0  0  0  0  0  0  0
   12.9902  -15.9945   23.2494 N   0  0  0  0  0  0  0  0  0  0  0  0
   10.1328  -17.1303   27.1692 C   0  0  0  0  0  0  0  0  0  0  0  0
   11.0266  -17.5978   28.1089 O   0  0  0  0  0  0  0  0  0  0  0  0
    9.0036  -16.7466   27.6088 O   0  0  0  0  0  0  0  0  0  0  0  0
  2  1  1  6
  2  3  1  0
  4  2  1  0
  4  5  2  0
  7  6  1  6
  7  9  1  0
  7  8  1  0
 10  9  1  1
 10 11  1  0
 10 12  1  0
 11  4  1  0
 12 14  1  0
 13 12  2  0
 14 15  1  0
 15 22  1  0
 16 17  1  0
 15 16  1  1
 17 18  2  0
 19 18  1  0
 20 19  1  0
 21 20  2  0
 21 17  1  0
 22 24  2  0
 22 23  1  0
M  END
$$$$
