ALH.pdb
     RDKit          3D

 24 24  0  0  1  0  0  0  0  0999 V2000
    7.6499  -16.9795   21.3627 C   0  0  0  0  0  0  0  0  0  0  0  0
    7.5973  -15.4686   21.5330 C   0  0  2  0  0  0  0  0  0  0  0  0
    8.1827  -14.8584   20.3731 N   0  0  0  0  0  0  0  0  0  0  0  0
    8.3532  -15.1134   22.7562 C   0  0  0  0  0  0  0  0  0  0  0  0
    9.6197  -14.9990   22.7445 O   0  0  0  0  0  0  0  0  0  0  0  0
    5.9541  -12.1560   26.6675 C   0  0  0  0  0  0  0  0  0  0  0  0
    7.0559  -12.6680   25.7379 C   0  0  1  0  0  0  0  0  0  0  0  0
    8.2448  -11.6993   25.7898 C   0  0  0  0  0  0  0  0  0  0  0  0
    7.5591  -13.9783   26.2423 C   0  0  0  0  0  0  0  0  0  0  0  0
    8.4373  -14.6491   25.2414 C   0  0  2  0  0  0  0  0  0  0  0  0
    7.6855  -14.8874   23.9898 N   0  0  0  0  0  0  0  0  0  0  0  0
    8.8963  -15.9706   25.7750 C   0  0  0  0  0  0  0  0  0  0  0  0
    8.1346  -16.9659   25.8629 O   0  0  0  0  0  0  0  0  0  0  0  0
   10.2513  -16.1275   26.2075 N   0  0  0  0  0  0  0  0  0  0  0  0
   10.6609  -17.4007   26.8066 C   0  0  1  0  0  0  0  0  0  0  0  0
   12.0400  -17.7845   26.3400 C   0  0  0  0  0  0  0  0  0  0  0  0
   12.0168  -18.0574   24.8942 C   0  0  0  0  0  0  0  0  0  0  0  0
   10.9565  -18.4938   24.1376 C   0  0  0  0  0  0  0  0  0  0  0  0
   11.3653  -18.6321   22.8756 N   0  0  0  0  0  0  0  0  0  0  0  0
   12.6518  -18.2937   22.8262 C   0  0  0  0  0  0  0  0  0  0  0  0
   13.0673  -17.9392   24.0526 N   0  0  0  0  0  0  0  0  0  0  0  0
   10.4925  -17.3650   28.2652 C   0  0  0  0  0  0  0  0  0  0  0  0
   10.6702  -18.4425   29.1064 O   0  0  0  0  0  0  0  0  0  0  0  0
   10.1566  -16.2701   28.8168 O   0  0  0  0  0  0  0  0  0  0  0  0
  2  1  1  6
  2  3  1  0
  4  2  1  0
  4  5  2  0
  7  6  1  1
  7  9  1  0
  7  8  1  0
 10  9  1  1
 10 11  1  0
 10 12  1  0
 11  4  1  0
 12 14  1  0
 13 12  2  0
 14 15  1  0
 15 22  1  0
 16 17  1  0
 15 16  1  1
 17 18  2  0
 19 18  1  0
 20 19  1  0
 21 20  2  0
 21 17  1  0
 22 24  2  0
 22 23  1  0
M  END
$$$$
