ALH.pdb
     RDKit          3D

 24 24  0  0  1  0  0  0  0  0999 V2000
    6.6946  -19.8863   20.8097 C   0  0  0  0  0  0  0  0  0  0  0  0
    7.2073  -18.7907   19.8871 C   0  0  2  0  0  0  0  0  0  0  0  0
    8.0688  -19.3870   18.9059 N   0  0  0  0  0  0  0  0  0  0  0  0
    7.9443  -17.8015   20.7070 C   0  0  0  0  0  0  0  0  0  0  0  0
    9.1611  -17.9810   21.0297 O   0  0  0  0  0  0  0  0  0  0  0  0
    6.6696  -12.5273   20.0668 C   0  0  0  0  0  0  0  0  0  0  0  0
    7.4665  -13.8210   20.2440 C   0  0  1  0  0  0  0  0  0  0  0  0
    8.9414  -13.5486   19.9196 C   0  0  0  0  0  0  0  0  0  0  0  0
    7.4210  -14.2376   21.6754 C   0  0  0  0  0  0  0  0  0  0  0  0
    8.0707  -15.5639   21.8800 C   0  0  2  0  0  0  0  0  0  0  0  0
    7.3133  -16.6129   21.1628 N   0  0  0  0  0  0  0  0  0  0  0  0
    8.0815  -15.9032   23.3383 C   0  0  0  0  0  0  0  0  0  0  0  0
    7.0617  -16.3183   23.9436 O   0  0  0  0  0  0  0  0  0  0  0  0
    9.2897  -15.7557   24.0906 N   0  0  0  0  0  0  0  0  0  0  0  0
    9.5284  -16.6468   25.2294 C   0  0  1  0  0  0  0  0  0  0  0  0
    9.2504  -18.0767   24.8486 C   0  0  0  0  0  0  0  0  0  0  0  0
    8.2199  -18.6358   25.7377 C   0  0  0  0  0  0  0  0  0  0  0  0
    7.6190  -18.0298   26.8142 C   0  0  0  0  0  0  0  0  0  0  0  0
    6.7556  -18.8895   27.3567 N   0  0  0  0  0  0  0  0  0  0  0  0
    6.8028  -20.0146   26.6468 C   0  0  0  0  0  0  0  0  0  0  0  0
    7.6936  -19.8774   25.6518 N   0  0  0  0  0  0  0  0  0  0  0  0
   10.8600  -16.4102   25.8021 C   0  0  0  0  0  0  0  0  0  0  0  0
   11.1980  -16.6129   27.1232 O   0  0  0  0  0  0  0  0  0  0  0  0
   11.7870  -15.9853   25.0433 O   0  0  0  0  0  0  0  0  0  0  0  0
  2  1  1  1
  2  3  1  0
  4  2  1  0
  4  5  2  0
  7  6  1  1
  7  9  1  0
  7  8  1  0
 10  9  1  1
 10 11  1  0
 10 12  1  0
 11  4  1  0
 12 14  1  0
 13 12  2  0
 14 15  1  0
 15 22  1  0
 16 17  1  0
 15 16  1  6
 17 18  2  0
 19 18  1  0
 20 19  1  0
 21 20  2  0
 21 17  1  0
 22 24  2  0
 22 23  1  0
M  END
$$$$
