ALH.pdb
     RDKit          3D

 24 24  0  0  1  0  0  0  0  0999 V2000
    7.1130  -14.8828   20.3632 C   0  0  0  0  0  0  0  0  0  0  0  0
    7.6707  -15.8122   21.4307 C   0  0  2  0  0  0  0  0  0  0  0  0
    6.5827  -16.5514   22.0054 N   0  0  0  0  0  0  0  0  0  0  0  0
    8.3490  -14.9860   22.4561 C   0  0  0  0  0  0  0  0  0  0  0  0
    9.4109  -14.3385   22.1912 O   0  0  0  0  0  0  0  0  0  0  0  0
    5.6962  -11.7862   26.3953 C   0  0  0  0  0  0  0  0  0  0  0  0
    6.6790  -12.2264   25.3087 C   0  0  1  0  0  0  0  0  0  0  0  0
    7.8073  -11.1917   25.2055 C   0  0  0  0  0  0  0  0  0  0  0  0
    7.3215  -13.5100   25.7137 C   0  0  0  0  0  0  0  0  0  0  0  0
    8.3825  -13.9189   24.7492 C   0  0  2  0  0  0  0  0  0  0  0  0
    7.8336  -14.8889   23.7765 N   0  0  0  0  0  0  0  0  0  0  0  0
    9.5101  -14.5746   25.4844 C   0  0  0  0  0  0  0  0  0  0  0  0
    9.8803  -14.2021   26.6259 O   0  0  0  0  0  0  0  0  0  0  0  0
   10.2067  -15.6694   24.8815 N   0  0  0  0  0  0  0  0  0  0  0  0
   11.1009  -16.4827   25.7102 C   0  0  1  0  0  0  0  0  0  0  0  0
   10.3206  -17.2090   26.7735 C   0  0  0  0  0  0  0  0  0  0  0  0
   10.3422  -16.4320   28.0229 C   0  0  0  0  0  0  0  0  0  0  0  0
   10.6339  -15.0987   28.1793 C   0  0  0  0  0  0  0  0  0  0  0  0
   10.5580  -14.7978   29.4764 N   0  0  0  0  0  0  0  0  0  0  0  0
   10.2268  -15.9081   30.1319 C   0  0  0  0  0  0  0  0  0  0  0  0
   10.0906  -16.9184   29.2583 N   0  0  0  0  0  0  0  0  0  0  0  0
   11.9453  -17.3429   24.8710 C   0  0  0  0  0  0  0  0  0  0  0  0
   11.8974  -17.3937   23.4942 O   0  0  0  0  0  0  0  0  0  0  0  0
   12.7906  -18.1080   25.4330 O   0  0  0  0  0  0  0  0  0  0  0  0
  2  1  1  6
  2  3  1  0
  4  2  1  0
  4  5  2  0
  7  6  1  1
  7  9  1  0
  7  8  1  0
 10  9  1  1
 10 11  1  0
 10 12  1  0
 11  4  1  0
 12 14  1  0
 13 12  2  0
 14 15  1  0
 15 22  1  0
 16 17  1  0
 15 16  1  1
 17 18  2  0
 19 18  1  0
 20 19  1  0
 21 20  2  0
 21 17  1  0
 22 24  2  0
 22 23  1  0
M  END
$$$$
