ALH.pdb
     RDKit          3D

 24 24  0  0  1  0  0  0  0  0999 V2000
    7.0248  -19.7544   21.2620 C   0  0  0  0  0  0  0  0  0  0  0  0
    6.7583  -18.7086   20.1898 C   0  0  2  0  0  0  0  0  0  0  0  0
    6.7057  -19.3658   18.9148 N   0  0  0  0  0  0  0  0  0  0  0  0
    7.8564  -17.7152   20.2281 C   0  0  0  0  0  0  0  0  0  0  0  0
    8.9855  -17.9525   19.6936 O   0  0  0  0  0  0  0  0  0  0  0  0
    6.9273  -12.3125   20.3364 C   0  0  0  0  0  0  0  0  0  0  0  0
    7.6278  -13.6351   20.0196 C   0  0  1  0  0  0  0  0  0  0  0  0
    8.7302  -13.3816   18.9827 C   0  0  0  0  0  0  0  0  0  0  0  0
    8.3117  -14.1385   21.2457 C   0  0  0  0  0  0  0  0  0  0  0  0
    8.8188  -15.5280   21.0579 C   0  0  2  0  0  0  0  0  0  0  0  0
    7.6841  -16.4576   20.8665 N   0  0  0  0  0  0  0  0  0  0  0  0
    9.5812  -15.9576   22.2727 C   0  0  0  0  0  0  0  0  0  0  0  0
    9.0275  -16.4989   23.2622 O   0  0  0  0  0  0  0  0  0  0  0  0
   10.9962  -15.7528   22.3297 N   0  0  0  0  0  0  0  0  0  0  0  0
   11.7681  -16.4271   23.3772 C   0  0  1  0  0  0  0  0  0  0  0  0
   11.5255  -17.9127   23.3386 C   0  0  0  0  0  0  0  0  0  0  0  0
   10.4194  -18.2587   24.2452 C   0  0  0  0  0  0  0  0  0  0  0  0
    9.8734  -17.4841   25.2398 C   0  0  0  0  0  0  0  0  0  0  0  0
    8.9046  -18.1808   25.8355 N   0  0  0  0  0  0  0  0  0  0  0  0
    8.8328  -19.3685   25.2386 C   0  0  0  0  0  0  0  0  0  0  0  0
    9.7526  -19.4338   24.2628 N   0  0  0  0  0  0  0  0  0  0  0  0
   13.1815  -16.0326   23.3146 C   0  0  0  0  0  0  0  0  0  0  0  0
   14.0680  -16.1047   24.3678 O   0  0  0  0  0  0  0  0  0  0  0  0
   13.6454  -15.5867   22.2184 O   0  0  0  0  0  0  0  0  0  0  0  0
  2  1  1  1
  2  3  1  0
  4  2  1  0
  4  5  2  0
  7  6  1  1
  7  9  1  0
  7  8  1  0
 10  9  1  1
 10 11  1  0
 10 12  1  0
 11  4  1  0
 12 14  1  0
 13 12  2  0
 14 15  1  0
 15 22  1  0
 16 17  1  0
 15 16  1  6
 17 18  2  0
 19 18  1  0
 20 19  1  0
 21 20  2  0
 21 17  1  0
 22 24  2  0
 22 23  1  0
M  END
$$$$
