ALH.pdb
     RDKit          3D

 24 24  0  0  1  0  0  0  0  0999 V2000
   10.4626  -15.8849   15.6590 C   0  0  0  0  0  0  0  0  0  0  0  0
   10.8360  -16.7144   16.8783 C   0  0  2  0  0  0  0  0  0  0  0  0
    9.8128  -17.6983   17.0914 N   0  0  0  0  0  0  0  0  0  0  0  0
   10.9457  -15.8046   18.0420 C   0  0  0  0  0  0  0  0  0  0  0  0
   11.9046  -14.9763   18.1493 O   0  0  0  0  0  0  0  0  0  0  0  0
    6.4389  -13.6344   19.8886 C   0  0  0  0  0  0  0  0  0  0  0  0
    7.9133  -13.7832   19.5089 C   0  0  1  0  0  0  0  0  0  0  0  0
    8.5446  -12.3891   19.3977 C   0  0  0  0  0  0  0  0  0  0  0  0
    8.6381  -14.4864   20.6065 C   0  0  0  0  0  0  0  0  0  0  0  0
   10.0235  -14.8563   20.1981 C   0  0  2  0  0  0  0  0  0  0  0  0
    9.9786  -15.8268   19.0826 N   0  0  0  0  0  0  0  0  0  0  0  0
   10.7380  -15.4934   21.3494 C   0  0  0  0  0  0  0  0  0  0  0  0
   10.8384  -14.9398   22.4729 O   0  0  0  0  0  0  0  0  0  0  0  0
   11.3371  -16.7824   21.1851 N   0  0  0  0  0  0  0  0  0  0  0  0
   12.0396  -17.3871   22.3203 C   0  0  1  0  0  0  0  0  0  0  0  0
   12.0534  -18.8874   22.1944 C   0  0  0  0  0  0  0  0  0  0  0  0
   10.6820  -19.3812   21.9930 C   0  0  0  0  0  0  0  0  0  0  0  0
    9.5755  -19.1306   22.7678 C   0  0  0  0  0  0  0  0  0  0  0  0
    8.5365  -19.7842   22.2462 N   0  0  0  0  0  0  0  0  0  0  0  0
    8.9663  -20.4350   21.1674 C   0  0  0  0  0  0  0  0  0  0  0  0
   10.2771  -20.1999   20.9972 N   0  0  0  0  0  0  0  0  0  0  0  0
   13.3616  -16.7724   22.4986 C   0  0  0  0  0  0  0  0  0  0  0  0
   14.2683  -17.1211   23.4766 O   0  0  0  0  0  0  0  0  0  0  0  0
   13.7189  -15.8460   21.7049 O   0  0  0  0  0  0  0  0  0  0  0  0
  2  1  1  6
  2  3  1  0
  4  2  1  0
  4  5  2  0
  7  6  1  1
  7  9  1  0
  7  8  1  0
 10  9  1  1
 10 11  1  0
 10 12  1  0
 11  4  1  0
 12 14  1  0
 13 12  2  0
 14 15  1  0
 15 22  1  0
 16 17  1  0
 15 16  1  6
 17 18  2  0
 19 18  1  0
 20 19  1  0
 21 20  2  0
 21 17  1  0
 22 24  2  0
 22 23  1  0
M  END
$$$$
