ALH.pdb
     RDKit          3D

 24 24  0  0  1  0  0  0  0  0999 V2000
    8.9809  -17.8024   15.9570 C   0  0  0  0  0  0  0  0  0  0  0  0
    8.5896  -18.3991   17.3006 C   0  0  2  0  0  0  0  0  0  0  0  0
    7.1571  -18.4489   17.3776 N   0  0  0  0  0  0  0  0  0  0  0  0
    9.1475  -17.5393   18.3699 C   0  0  0  0  0  0  0  0  0  0  0  0
   10.4022  -17.4137   18.5342 O   0  0  0  0  0  0  0  0  0  0  0  0
    8.2062  -13.0417   19.8543 C   0  0  0  0  0  0  0  0  0  0  0  0
    8.1060  -13.7644   21.1989 C   0  0  1  0  0  0  0  0  0  0  0  0
    6.9614  -13.1482   22.0142 C   0  0  0  0  0  0  0  0  0  0  0  0
    7.7367  -15.1907   20.9673 C   0  0  0  0  0  0  0  0  0  0  0  0
    8.8427  -15.9421   20.3076 C   0  0  2  0  0  0  0  0  0  0  0  0
    8.2953  -16.8224   19.2522 N   0  0  0  0  0  0  0  0  0  0  0  0
    9.5472  -16.7958   21.3159 C   0  0  0  0  0  0  0  0  0  0  0  0
    9.1965  -17.9762   21.5657 O   0  0  0  0  0  0  0  0  0  0  0  0
   10.6656  -16.2660   22.0342 N   0  0  0  0  0  0  0  0  0  0  0  0
   11.6038  -17.1952   22.6701 C   0  0  1  0  0  0  0  0  0  0  0  0
   12.1046  -18.2055   21.6723 C   0  0  0  0  0  0  0  0  0  0  0  0
   11.2454  -19.3997   21.7011 C   0  0  0  0  0  0  0  0  0  0  0  0
   10.4286  -19.8237   22.7211 C   0  0  0  0  0  0  0  0  0  0  0  0
    9.8396  -20.9605   22.3472 N   0  0  0  0  0  0  0  0  0  0  0  0
   10.2677  -21.2556   21.1218 C   0  0  0  0  0  0  0  0  0  0  0  0
   11.1288  -20.3112   20.7105 N   0  0  0  0  0  0  0  0  0  0  0  0
   12.6568  -16.4609   23.3837 C   0  0  0  0  0  0  0  0  0  0  0  0
   12.7782  -15.0881   23.4154 O   0  0  0  0  0  0  0  0  0  0  0  0
   13.5345  -17.1183   24.0265 O   0  0  0  0  0  0  0  0  0  0  0  0
  2  1  1  6
  2  3  1  0
  4  2  1  0
  4  5  2  0
  7  6  1  6
  7  9  1  0
  7  8  1  0
 10  9  1  1
 10 11  1  0
 10 12  1  0
 11  4  1  0
 12 14  1  0
 13 12  2  0
 14 15  1  0
 15 22  1  0
 16 17  1  0
 15 16  1  6
 17 18  2  0
 19 18  1  0
 20 19  1  0
 21 20  2  0
 21 17  1  0
 22 24  2  0
 22 23  1  0
M  END
$$$$
