ALH.pdb
     RDKit          3D

 24 24  0  0  1  0  0  0  0  0999 V2000
    9.1826  -18.6022   18.3870 C   0  0  0  0  0  0  0  0  0  0  0  0
    9.3457  -18.6362   19.8991 C   0  0  2  0  0  0  0  0  0  0  0  0
    8.0812  -18.9773   20.4866 N   0  0  0  0  0  0  0  0  0  0  0  0
    9.7934  -17.2974   20.3474 C   0  0  0  0  0  0  0  0  0  0  0  0
   10.9653  -16.8712   20.0982 O   0  0  0  0  0  0  0  0  0  0  0  0
    6.5608  -13.2079   19.9467 C   0  0  0  0  0  0  0  0  0  0  0  0
    7.8848  -13.9715   20.0116 C   0  0  1  0  0  0  0  0  0  0  0  0
    8.9759  -13.1408   19.3233 C   0  0  0  0  0  0  0  0  0  0  0  0
    8.3027  -14.1165   21.4360 C   0  0  0  0  0  0  0  0  0  0  0  0
    9.3843  -15.1314   21.5882 C   0  0  2  0  0  0  0  0  0  0  0  0
    8.9243  -16.4401   21.0743 N   0  0  0  0  0  0  0  0  0  0  0  0
    9.7314  -15.2886   23.0362 C   0  0  0  0  0  0  0  0  0  0  0  0
   10.2371  -14.3600   23.7150 O   0  0  0  0  0  0  0  0  0  0  0  0
    9.4861  -16.5367   23.6916 N   0  0  0  0  0  0  0  0  0  0  0  0
    9.7609  -16.6493   25.1267 C   0  0  1  0  0  0  0  0  0  0  0  0
    8.4857  -16.8856   25.8917 C   0  0  0  0  0  0  0  0  0  0  0  0
    7.6899  -15.6483   25.9243 C   0  0  0  0  0  0  0  0  0  0  0  0
    8.1470  -14.3532   25.8897 C   0  0  0  0  0  0  0  0  0  0  0  0
    7.0982  -13.5320   25.9583 N   0  0  0  0  0  0  0  0  0  0  0  0
    6.0005  -14.2811   26.0347 C   0  0  0  0  0  0  0  0  0  0  0  0
    6.3436  -15.5789   26.0152 N   0  0  0  0  0  0  0  0  0  0  0  0
   10.8196  -17.6364   25.3757 C   0  0  0  0  0  0  0  0  0  0  0  0
   11.5219  -18.3042   24.3952 O   0  0  0  0  0  0  0  0  0  0  0  0
   11.1288  -17.9139   26.5770 O   0  0  0  0  0  0  0  0  0  0  0  0
  2  1  1  6
  2  3  1  0
  4  2  1  0
  4  5  2  0
  7  6  1  1
  7  9  1  0
  7  8  1  0
 10  9  1  1
 10 11  1  0
 10 12  1  0
 11  4  1  0
 12 14  1  0
 13 12  2  0
 14 15  1  0
 15 22  1  0
 16 17  1  0
 15 16  1  1
 17 18  2  0
 19 18  1  0
 20 19  1  0
 21 20  2  0
 21 17  1  0
 22 24  2  0
 22 23  1  0
M  END
$$$$
