ALH.pdb
     RDKit          3D

 24 24  0  0  1  0  0  0  0  0999 V2000
    7.6228  -13.4966   20.5116 C   0  0  0  0  0  0  0  0  0  0  0  0
    7.8247  -14.8845   21.1009 C   0  0  2  0  0  0  0  0  0  0  0  0
    6.5536  -15.5500   21.1462 N   0  0  0  0  0  0  0  0  0  0  0  0
    8.3912  -14.7328   22.4610 C   0  0  0  0  0  0  0  0  0  0  0  0
    9.5961  -14.3685   22.6417 O   0  0  0  0  0  0  0  0  0  0  0  0
    5.6148  -12.5024   26.6230 C   0  0  0  0  0  0  0  0  0  0  0  0
    6.7960  -12.8973   25.7347 C   0  0  1  0  0  0  0  0  0  0  0  0
    8.0520  -12.1575   26.2141 C   0  0  0  0  0  0  0  0  0  0  0  0
    7.0758  -14.3527   25.9022 C   0  0  0  0  0  0  0  0  0  0  0  0
    8.1514  -14.8130   24.9779 C   0  0  2  0  0  0  0  0  0  0  0  0
    7.6037  -14.9905   23.6152 N   0  0  0  0  0  0  0  0  0  0  0  0
    8.6916  -16.1291   25.4446 C   0  0  0  0  0  0  0  0  0  0  0  0
    7.9639  -17.1410   25.6026 O   0  0  0  0  0  0  0  0  0  0  0  0
   10.0881  -16.2610   25.7274 N   0  0  0  0  0  0  0  0  0  0  0  0
   10.5881  -17.5366   26.2478 C   0  0  1  0  0  0  0  0  0  0  0  0
   11.9229  -17.8698   25.6358 C   0  0  0  0  0  0  0  0  0  0  0  0
   11.7767  -18.0245   24.1798 C   0  0  0  0  0  0  0  0  0  0  0  0
   10.7220  -18.5769   23.4944 C   0  0  0  0  0  0  0  0  0  0  0  0
   10.9980  -18.5389   22.1901 N   0  0  0  0  0  0  0  0  0  0  0  0
   12.1963  -17.9776   22.0451 C   0  0  0  0  0  0  0  0  0  0  0  0
   12.6878  -17.6564   23.2524 N   0  0  0  0  0  0  0  0  0  0  0  0
   10.5661  -17.5414   27.7163 C   0  0  0  0  0  0  0  0  0  0  0  0
   10.6581  -18.6698   28.5029 O   0  0  0  0  0  0  0  0  0  0  0  0
   10.4530  -16.4347   28.3313 O   0  0  0  0  0  0  0  0  0  0  0  0
  2  1  1  1
  2  3  1  0
  4  2  1  0
  4  5  2  0
  7  6  1  1
  7  9  1  0
  7  8  1  0
 10  9  1  1
 10 11  1  0
 10 12  1  0
 11  4  1  0
 12 14  1  0
 13 12  2  0
 14 15  1  0
 15 22  1  0
 16 17  1  0
 15 16  1  1
 17 18  2  0
 19 18  1  0
 20 19  1  0
 21 20  2  0
 21 17  1  0
 22 24  2  0
 22 23  1  0
M  END
$$$$
