HII.pdb
     RDKit          3D

 27 27  0  0  1  0  0  0  0  0999 V2000
   23.2443  -21.4468  -15.6662 N   0  0  0  0  0  0  0  0  0  0  0  0
   23.4721  -20.4918  -14.6027 C   0  0  1  0  0  0  0  0  0  0  0  0
   22.2107  -19.9395  -14.0030 C   0  0  0  0  0  0  0  0  0  0  0  0
   21.3802  -19.1528  -14.9313 C   0  0  0  0  0  0  0  0  0  0  0  0
   20.2818  -19.5402  -15.6577 C   0  0  0  0  0  0  0  0  0  0  0  0
   19.8527  -18.4812  -16.3819 N   0  0  0  0  0  0  0  0  0  0  0  0
   20.6677  -17.4567  -16.1115 C   0  0  0  0  0  0  0  0  0  0  0  0
   21.6021  -17.8364  -15.2356 N   0  0  0  0  0  0  0  0  0  0  0  0
   24.3638  -21.0935  -13.5953 C   0  0  0  0  0  0  0  0  0  0  0  0
   24.0850  -22.1953  -13.0768 O   0  0  0  0  0  0  0  0  0  0  0  0
   29.9184  -20.3571  -11.6080 C   0  0  0  0  0  0  0  0  0  0  0  0
   28.8963  -21.4780  -11.8631 C   0  0  0  0  0  0  0  0  0  0  0  0
   27.8169  -20.8709  -12.6876 C   0  0  2  0  0  0  0  0  0  0  0  0
   28.1893  -19.4372  -12.9994 C   0  0  0  0  0  0  0  0  0  0  0  0
   26.4200  -21.0201  -12.1445 C   0  0  2  0  0  0  0  0  0  0  0  0
   25.5502  -20.4494  -13.1885 N   0  0  0  0  0  0  0  0  0  0  0  0
   26.1614  -20.2696  -10.9056 C   0  0  0  0  0  0  0  0  0  0  0  0
   25.8831  -19.0451  -10.9744 O   0  0  0  0  0  0  0  0  0  0  0  0
   22.6384  -21.4595   -7.3621 C   0  0  0  0  0  0  0  0  0  0  0  0
   23.6237  -20.7504   -8.2338 C   0  0  0  0  0  0  0  0  0  0  0  0
   24.9573  -20.7417   -7.5609 C   0  0  2  0  0  0  0  0  0  0  0  0
   24.8358  -20.1097   -6.2135 C   0  0  0  0  0  0  0  0  0  0  0  0
   26.0114  -20.0188   -8.4001 C   0  0  2  0  0  0  0  0  0  0  0  0
   26.1976  -20.8233   -9.5920 N   0  0  0  0  0  0  0  0  0  0  0  0
   27.2380  -19.8284   -7.6327 C   0  0  0  0  0  0  0  0  0  0  0  0
   27.3760  -18.8408   -6.8748 O   0  0  0  0  0  0  0  0  0  0  0  0
   28.2910  -20.7196   -7.7071 O   0  0  0  0  0  0  0  0  0  0  0  0
  2  1  1  6
  3  2  1  0
  3  4  1  0
  4  5  2  0
  5  6  1  0
  7  6  1  0
  8  4  1  0
  8  7  2  0
  9 10  2  0
  9  2  1  0
 12 11  1  0
 13 12  1  0
 13 14  1  1
 15 13  1  0
 15 16  1  6
 16  9  1  0
 17 15  1  0
 18 17  2  0
 19 20  1  0
 21 22  1  1
 21 20  1  0
 23 21  1  0
 23 24  1  6
 24 17  1  0
 25 27  1  0
 25 23  1  0
 26 25  2  0
M  END
$$$$
