HII.pdb
     RDKit          3D

 27 27  0  0  1  0  0  0  0  0999 V2000
   28.2273  -21.6188  -16.4753 N   0  0  0  0  0  0  0  0  0  0  0  0
   27.6250  -20.5679  -15.6831 C   0  0  1  0  0  0  0  0  0  0  0  0
   27.0419  -19.4508  -16.5003 C   0  0  0  0  0  0  0  0  0  0  0  0
   28.0140  -18.7285  -17.3390 C   0  0  0  0  0  0  0  0  0  0  0  0
   29.0227  -17.8762  -16.9640 C   0  0  0  0  0  0  0  0  0  0  0  0
   29.6517  -17.4410  -18.0798 N   0  0  0  0  0  0  0  0  0  0  0  0
   29.0466  -18.0107  -19.1267 C   0  0  0  0  0  0  0  0  0  0  0  0
   28.0508  -18.7956  -18.7060 N   0  0  0  0  0  0  0  0  0  0  0  0
   26.6473  -21.1625  -14.7543 C   0  0  0  0  0  0  0  0  0  0  0  0
   25.9647  -22.1509  -15.0972 O   0  0  0  0  0  0  0  0  0  0  0  0
   25.7372  -20.8008   -8.7600 C   0  0  0  0  0  0  0  0  0  0  0  0
   25.0859  -21.3401  -10.0450 C   0  0  0  0  0  0  0  0  0  0  0  0
   25.9344  -20.8603  -11.1690 C   0  0  2  0  0  0  0  0  0  0  0  0
   26.2253  -19.3886  -10.9667 C   0  0  0  0  0  0  0  0  0  0  0  0
   25.4299  -21.1845  -12.5507 C   0  0  2  0  0  0  0  0  0  0  0  0
   26.4534  -20.6383  -13.4599 N   0  0  0  0  0  0  0  0  0  0  0  0
   24.1518  -20.5454  -12.9014 C   0  0  0  0  0  0  0  0  0  0  0  0
   24.1108  -19.2990  -13.0633 O   0  0  0  0  0  0  0  0  0  0  0  0
   22.0406  -20.9648  -17.1768 C   0  0  0  0  0  0  0  0  0  0  0  0
   22.3664  -20.4515  -15.8116 C   0  0  0  0  0  0  0  0  0  0  0  0
   21.3411  -20.9450  -14.8439 C   0  0  2  0  0  0  0  0  0  0  0  0
   19.9958  -20.4232  -15.2281 C   0  0  0  0  0  0  0  0  0  0  0  0
   21.6804  -20.5486  -13.4067 C   0  0  2  0  0  0  0  0  0  0  0  0
   22.9161  -21.2341  -13.0814 N   0  0  0  0  0  0  0  0  0  0  0  0
   20.5800  -20.8814  -12.5077 C   0  0  0  0  0  0  0  0  0  0  0  0
   20.4246  -22.0506  -12.0861 O   0  0  0  0  0  0  0  0  0  0  0  0
   19.6697  -19.9315  -12.0859 O   0  0  0  0  0  0  0  0  0  0  0  0
  2  1  1  6
  3  2  1  0
  3  4  1  0
  4  5  2  0
  5  6  1  0
  7  6  1  0
  8  4  1  0
  8  7  2  0
  9 10  2  0
  9  2  1  0
 12 11  1  0
 13 12  1  0
 13 14  1  6
 15 13  1  0
 15 16  1  6
 16  9  1  0
 17 15  1  0
 18 17  2  0
 19 20  1  0
 21 22  1  6
 21 20  1  0
 23 21  1  0
 23 24  1  1
 24 17  1  0
 25 27  1  0
 25 23  1  0
 26 25  2  0
M  END
$$$$
