HII.pdb
     RDKit          3D

 27 27  0  0  1  0  0  0  0  0999 V2000
   23.1023  -18.1750  -18.0578 N   0  0  0  0  0  0  0  0  0  0  0  0
   23.1852  -17.9083  -16.6376 C   0  0  1  0  0  0  0  0  0  0  0  0
   21.8521  -17.6806  -15.9844 C   0  0  0  0  0  0  0  0  0  0  0  0
   21.1343  -16.4816  -16.4505 C   0  0  0  0  0  0  0  0  0  0  0  0
   21.3610  -15.1610  -16.1521 C   0  0  0  0  0  0  0  0  0  0  0  0
   20.4423  -14.4115  -16.8035 N   0  0  0  0  0  0  0  0  0  0  0  0
   19.6605  -15.2488  -17.4925 C   0  0  0  0  0  0  0  0  0  0  0  0
   20.0579  -16.5090  -17.2962 N   0  0  0  0  0  0  0  0  0  0  0  0
   23.9599  -18.9810  -15.9886 C   0  0  0  0  0  0  0  0  0  0  0  0
   23.5233  -20.1511  -15.9583 O   0  0  0  0  0  0  0  0  0  0  0  0
   28.9584  -19.5148  -17.2205 C   0  0  0  0  0  0  0  0  0  0  0  0
   27.4887  -19.7856  -16.8564 C   0  0  0  0  0  0  0  0  0  0  0  0
   27.3919  -19.6155  -15.3816 C   0  0  2  0  0  0  0  0  0  0  0  0
   28.4486  -20.4750  -14.7212 C   0  0  0  0  0  0  0  0  0  0  0  0
   26.0180  -19.8012  -14.7929 C   0  0  2  0  0  0  0  0  0  0  0  0
   25.2082  -18.7222  -15.3865 N   0  0  0  0  0  0  0  0  0  0  0  0
   25.9512  -19.6409  -13.3318 C   0  0  0  0  0  0  0  0  0  0  0  0
   26.2138  -18.5214  -12.8228 O   0  0  0  0  0  0  0  0  0  0  0  0
   21.8569  -20.8189  -10.6114 C   0  0  0  0  0  0  0  0  0  0  0  0
   23.1471  -20.2895  -11.1486 C   0  0  0  0  0  0  0  0  0  0  0  0
   24.2830  -20.9636  -10.4511 C   0  0  2  0  0  0  0  0  0  0  0  0
   24.1772  -20.7320   -8.9797 C   0  0  0  0  0  0  0  0  0  0  0  0
   25.6364  -20.4820  -10.9746 C   0  0  2  0  0  0  0  0  0  0  0  0
   25.6029  -20.6731  -12.4116 N   0  0  0  0  0  0  0  0  0  0  0  0
   26.7260  -21.1993  -10.3204 C   0  0  0  0  0  0  0  0  0  0  0  0
   27.1412  -22.2907  -10.7734 O   0  0  0  0  0  0  0  0  0  0  0  0
   27.3419  -20.7117   -9.1840 O   0  0  0  0  0  0  0  0  0  0  0  0
  2  1  1  6
  3  2  1  0
  3  4  1  0
  4  5  2  0
  5  6  1  0
  7  6  1  0
  8  4  1  0
  8  7  2  0
  9 10  2  0
  9  2  1  0
 12 11  1  0
 13 12  1  0
 13 14  1  1
 15 13  1  0
 15 16  1  6
 16  9  1  0
 17 15  1  0
 18 17  2  0
 19 20  1  0
 21 22  1  1
 21 20  1  0
 23 21  1  0
 23 24  1  6
 24 17  1  0
 25 27  1  0
 25 23  1  0
 26 25  2  0
M  END
$$$$
