HII.pdb
     RDKit          3D

 27 27  0  0  1  0  0  0  0  0999 V2000
   19.5032  -13.3453  -17.8711 N   0  0  0  0  0  0  0  0  0  0  0  0
   19.4968  -11.9499  -18.2555 C   0  0  1  0  0  0  0  0  0  0  0  0
   18.4070  -11.5930  -19.2254 C   0  0  0  0  0  0  0  0  0  0  0  0
   18.4438  -12.3388  -20.4953 C   0  0  0  0  0  0  0  0  0  0  0  0
   19.3204  -12.2256  -21.5456 C   0  0  0  0  0  0  0  0  0  0  0  0
   18.9565  -13.1089  -22.5034 N   0  0  0  0  0  0  0  0  0  0  0  0
   17.8759  -13.7576  -22.0580 C   0  0  0  0  0  0  0  0  0  0  0  0
   17.5441  -13.3103  -20.8437 N   0  0  0  0  0  0  0  0  0  0  0  0
   19.4732  -11.1142  -17.0418 C   0  0  0  0  0  0  0  0  0  0  0  0
   18.6634  -11.3534  -16.1212 O   0  0  0  0  0  0  0  0  0  0  0  0
   23.6160  -10.4843  -14.1990 C   0  0  0  0  0  0  0  0  0  0  0  0
   22.1675  -10.6363  -14.6939 C   0  0  0  0  0  0  0  0  0  0  0  0
   21.7333   -9.2783  -15.1193 C   0  0  2  0  0  0  0  0  0  0  0  0
   21.9964   -8.3060  -13.9893 C   0  0  0  0  0  0  0  0  0  0  0  0
   20.3360   -9.1848  -15.6739 C   0  0  2  0  0  0  0  0  0  0  0  0
   20.3569  -10.0271  -16.8832 N   0  0  0  0  0  0  0  0  0  0  0  0
   19.9328   -7.8332  -16.0928 C   0  0  0  0  0  0  0  0  0  0  0  0
   20.6900   -7.1712  -16.8477 O   0  0  0  0  0  0  0  0  0  0  0  0
   15.3786   -6.8345  -18.1719 C   0  0  0  0  0  0  0  0  0  0  0  0
   16.8213   -6.7576  -17.7897 C   0  0  0  0  0  0  0  0  0  0  0  0
   16.9698   -5.8499  -16.6128 C   0  0  2  0  0  0  0  0  0  0  0  0
   16.5194   -4.4743  -16.9796 C   0  0  0  0  0  0  0  0  0  0  0  0
   18.4079   -5.8238  -16.0944 C   0  0  2  0  0  0  0  0  0  0  0  0
   18.7214   -7.1861  -15.7090 N   0  0  0  0  0  0  0  0  0  0  0  0
   18.5433   -4.8671  -15.0006 C   0  0  0  0  0  0  0  0  0  0  0  0
   18.1657   -5.1567  -13.8420 O   0  0  0  0  0  0  0  0  0  0  0  0
   19.0884   -3.6122  -15.1922 O   0  0  0  0  0  0  0  0  0  0  0  0
  2  1  1  1
  3  2  1  0
  3  4  1  0
  4  5  2  0
  5  6  1  0
  7  6  1  0
  8  4  1  0
  8  7  2  0
  9 10  2  0
  9  2  1  0
 12 11  1  0
 13 12  1  0
 13 14  1  1
 15 13  1  0
 15 16  1  6
 16  9  1  0
 17 15  1  0
 18 17  2  0
 19 20  1  0
 21 22  1  6
 21 20  1  0
 23 21  1  0
 23 24  1  1
 24 17  1  0
 25 27  1  0
 25 23  1  0
 26 25  2  0
M  END
$$$$
