HII.pdb
     RDKit          3D

 27 27  0  0  1  0  0  0  0  0999 V2000
   22.3109  -20.4170  -14.4003 N   0  0  0  0  0  0  0  0  0  0  0  0
   21.4739  -20.0205  -13.2880 C   0  0  1  0  0  0  0  0  0  0  0  0
   20.0415  -19.7723  -13.6653 C   0  0  0  0  0  0  0  0  0  0  0  0
   19.8437  -18.7141  -14.6709 C   0  0  0  0  0  0  0  0  0  0  0  0
   19.6335  -17.3697  -14.4894 C   0  0  0  0  0  0  0  0  0  0  0  0
   19.4946  -16.7907  -15.7041 N   0  0  0  0  0  0  0  0  0  0  0  0
   19.6157  -17.7551  -16.6218 C   0  0  0  0  0  0  0  0  0  0  0  0
   19.8277  -18.9303  -16.0228 N   0  0  0  0  0  0  0  0  0  0  0  0
   21.6126  -21.0077  -12.2025 C   0  0  0  0  0  0  0  0  0  0  0  0
   21.6168  -22.2315  -12.4532 O   0  0  0  0  0  0  0  0  0  0  0  0
   25.3949  -20.2917   -8.6591 C   0  0  0  0  0  0  0  0  0  0  0  0
   24.4158  -20.9160   -9.6680 C   0  0  0  0  0  0  0  0  0  0  0  0
   23.1041  -20.9994   -8.9709 C   0  0  2  0  0  0  0  0  0  0  0  0
   23.3037  -21.6856   -7.6365 C   0  0  0  0  0  0  0  0  0  0  0  0
   21.9732  -21.5812   -9.7779 C   0  0  2  0  0  0  0  0  0  0  0  0
   21.7438  -20.6049  -10.8579 N   0  0  0  0  0  0  0  0  0  0  0  0
   20.7061  -21.7221   -9.0433 C   0  0  0  0  0  0  0  0  0  0  0  0
   20.0516  -20.6914   -8.7417 O   0  0  0  0  0  0  0  0  0  0  0  0
   17.4695  -26.1658   -9.5120 C   0  0  0  0  0  0  0  0  0  0  0  0
   18.4391  -25.3440   -8.7259 C   0  0  0  0  0  0  0  0  0  0  0  0
   17.9594  -23.9302   -8.6789 C   0  0  2  0  0  0  0  0  0  0  0  0
   17.8046  -23.4060  -10.0685 C   0  0  0  0  0  0  0  0  0  0  0  0
   18.9017  -23.0380   -7.8704 C   0  0  2  0  0  0  0  0  0  0  0  0
   20.1342  -22.9615   -8.6305 N   0  0  0  0  0  0  0  0  0  0  0  0
   19.0843  -23.5697   -6.5236 C   0  0  0  0  0  0  0  0  0  0  0  0
   20.1738  -24.0805   -6.1758 O   0  0  0  0  0  0  0  0  0  0  0  0
   18.0742  -23.5336   -5.5817 O   0  0  0  0  0  0  0  0  0  0  0  0
  2  1  1  6
  3  2  1  0
  3  4  1  0
  4  5  2  0
  5  6  1  0
  7  6  1  0
  8  4  1  0
  8  7  2  0
  9 10  2  0
  9  2  1  0
 12 11  1  0
 13 12  1  0
 13 14  1  1
 15 13  1  0
 15 16  1  6
 16  9  1  0
 17 15  1  0
 18 17  2  0
 19 20  1  0
 21 22  1  6
 21 20  1  0
 23 21  1  0
 23 24  1  6
 24 17  1  0
 25 27  1  0
 25 23  1  0
 26 25  2  0
M  END
$$$$
