HII.pdb
     RDKit          3D

 27 27  0  0  1  0  0  0  0  0999 V2000
   26.5435  -20.9656  -16.7940 N   0  0  0  0  0  0  0  0  0  0  0  0
   27.2332  -21.3075  -15.5683 C   0  0  1  0  0  0  0  0  0  0  0  0
   28.7191  -21.0982  -15.6299 C   0  0  0  0  0  0  0  0  0  0  0  0
   29.4223  -21.9547  -16.6006 C   0  0  0  0  0  0  0  0  0  0  0  0
   29.9593  -21.6275  -17.8208 C   0  0  0  0  0  0  0  0  0  0  0  0
   30.4970  -22.7434  -18.3646 N   0  0  0  0  0  0  0  0  0  0  0  0
   30.2982  -23.7437  -17.5005 C   0  0  0  0  0  0  0  0  0  0  0  0
   29.6492  -23.2933  -16.4232 N   0  0  0  0  0  0  0  0  0  0  0  0
   26.6048  -20.5913  -14.4440 C   0  0  0  0  0  0  0  0  0  0  0  0
   26.5981  -19.3425  -14.4102 O   0  0  0  0  0  0  0  0  0  0  0  0
   22.5755  -21.0589  -14.7585 C   0  0  0  0  0  0  0  0  0  0  0  0
   23.3445  -20.0360  -13.9050 C   0  0  0  0  0  0  0  0  0  0  0  0
   23.7992  -20.7699  -12.6933 C   0  0  2  0  0  0  0  0  0  0  0  0
   22.8465  -20.4707  -11.5558 C   0  0  0  0  0  0  0  0  0  0  0  0
   25.2474  -20.5832  -12.3237 C   0  0  2  0  0  0  0  0  0  0  0  0
   25.9964  -21.2877  -13.3797 N   0  0  0  0  0  0  0  0  0  0  0  0
   25.6343  -21.1883  -11.0394 C   0  0  0  0  0  0  0  0  0  0  0  0
   25.6638  -22.4410  -10.9333 O   0  0  0  0  0  0  0  0  0  0  0  0
   28.8194  -18.9866   -7.1931 C   0  0  0  0  0  0  0  0  0  0  0  0
   28.1189  -19.9850   -8.0568 C   0  0  0  0  0  0  0  0  0  0  0  0
   26.6946  -20.0976   -7.6211 C   0  0  2  0  0  0  0  0  0  0  0  0
   26.6382  -20.5777   -6.2082 C   0  0  0  0  0  0  0  0  0  0  0  0
   25.8931  -21.0243   -8.5356 C   0  0  2  0  0  0  0  0  0  0  0  0
   25.9917  -20.4590   -9.8673 N   0  0  0  0  0  0  0  0  0  0  0  0
   24.5189  -21.1527   -8.0615 C   0  0  0  0  0  0  0  0  0  0  0  0
   23.6643  -20.2744   -8.3202 O   0  0  0  0  0  0  0  0  0  0  0  0
   24.1034  -22.2376   -7.3137 O   0  0  0  0  0  0  0  0  0  0  0  0
  2  1  1  6
  3  2  1  0
  3  4  1  0
  4  5  2  0
  5  6  1  0
  7  6  1  0
  8  4  1  0
  8  7  2  0
  9 10  2  0
  9  2  1  0
 12 11  1  0
 13 12  1  0
 13 14  1  1
 15 13  1  0
 15 16  1  6
 16  9  1  0
 17 15  1  0
 18 17  2  0
 19 20  1  0
 21 22  1  1
 21 20  1  0
 23 21  1  0
 23 24  1  6
 24 17  1  0
 25 27  1  0
 25 23  1  0
 26 25  2  0
M  END
$$$$
