HII.pdb
     RDKit          3D

 27 27  0  0  1  0  0  0  0  0999 V2000
   27.0552  -37.1121  -11.7336 N   0  0  0  0  0  0  0  0  0  0  0  0
   26.8637  -37.2099  -10.3023 C   0  0  1  0  0  0  0  0  0  0  0  0
   27.3329  -38.5103   -9.7151 C   0  0  0  0  0  0  0  0  0  0  0  0
   26.5308  -39.6848  -10.0991 C   0  0  0  0  0  0  0  0  0  0  0  0
   25.1770  -39.8860   -9.9934 C   0  0  0  0  0  0  0  0  0  0  0  0
   24.8904  -41.1218  -10.4631 N   0  0  0  0  0  0  0  0  0  0  0  0
   26.0422  -41.6775  -10.8525 C   0  0  0  0  0  0  0  0  0  0  0  0
   27.0518  -40.8282  -10.6429 N   0  0  0  0  0  0  0  0  0  0  0  0
   27.4769  -36.0386   -9.6511 C   0  0  0  0  0  0  0  0  0  0  0  0
   28.4695  -35.4759  -10.1597 O   0  0  0  0  0  0  0  0  0  0  0  0
   24.5679  -32.0018   -8.4870 C   0  0  0  0  0  0  0  0  0  0  0  0
   25.7484  -32.8925   -8.9103 C   0  0  0  0  0  0  0  0  0  0  0  0
   26.3685  -33.3808   -7.6491 C   0  0  2  0  0  0  0  0  0  0  0  0
   26.6730  -32.1919   -6.7632 C   0  0  0  0  0  0  0  0  0  0  0  0
   27.5380  -34.3150   -7.8171 C   0  0  2  0  0  0  0  0  0  0  0  0
   26.9663  -35.5206   -8.4434 N   0  0  0  0  0  0  0  0  0  0  0  0
   28.1696  -34.7379   -6.5572 C   0  0  0  0  0  0  0  0  0  0  0  0
   27.6123  -35.6199   -5.8550 O   0  0  0  0  0  0  0  0  0  0  0  0
   33.5713  -33.9350   -5.9840 C   0  0  0  0  0  0  0  0  0  0  0  0
   32.2728  -34.6744   -5.9587 C   0  0  0  0  0  0  0  0  0  0  0  0
   31.4413  -34.1678   -4.8259 C   0  0  2  0  0  0  0  0  0  0  0  0
   32.1141  -34.4806   -3.5300 C   0  0  0  0  0  0  0  0  0  0  0  0
   30.0290  -34.7529   -4.8528 C   0  0  2  0  0  0  0  0  0  0  0  0
   29.3966  -34.2226   -6.0450 N   0  0  0  0  0  0  0  0  0  0  0  0
   29.3132  -34.4262   -3.6237 C   0  0  0  0  0  0  0  0  0  0  0  0
   29.4261  -35.1436   -2.6032 O   0  0  0  0  0  0  0  0  0  0  0  0
   28.4876  -33.3223   -3.5316 O   0  0  0  0  0  0  0  0  0  0  0  0
  2  1  1  6
  3  2  1  0
  3  4  1  0
  4  5  2  0
  5  6  1  0
  7  6  1  0
  8  4  1  0
  8  7  2  0
  9 10  2  0
  9  2  1  0
 12 11  1  0
 13 12  1  0
 13 14  1  6
 15 13  1  0
 15 16  1  1
 16  9  1  0
 17 15  1  0
 18 17  2  0
 19 20  1  0
 21 22  1  1
 21 20  1  0
 23 21  1  0
 23 24  1  6
 24 17  1  0
 25 27  1  0
 25 23  1  0
 26 25  2  0
M  END
$$$$
