HII.pdb
     RDKit          3D

 27 27  0  0  1  0  0  0  0  0999 V2000
   24.7074  -20.7404  -14.0933 N   0  0  0  0  0  0  0  0  0  0  0  0
   23.8493  -20.1444  -13.0916 C   0  0  1  0  0  0  0  0  0  0  0  0
   22.4237  -19.9796  -13.5346 C   0  0  0  0  0  0  0  0  0  0  0  0
   22.2411  -19.1177  -14.7152 C   0  0  0  0  0  0  0  0  0  0  0  0
   23.0398  -18.9789  -15.8230 C   0  0  0  0  0  0  0  0  0  0  0  0
   22.4770  -18.0627  -16.6439 N   0  0  0  0  0  0  0  0  0  0  0  0
   21.3520  -17.6403  -16.0585 C   0  0  0  0  0  0  0  0  0  0  0  0
   21.1852  -18.2634  -14.8886 N   0  0  0  0  0  0  0  0  0  0  0  0
   23.9695  -20.9069  -11.8362 C   0  0  0  0  0  0  0  0  0  0  0  0
   24.0500  -22.1534  -11.8550 O   0  0  0  0  0  0  0  0  0  0  0  0
   26.7380  -20.1559   -6.6974 C   0  0  0  0  0  0  0  0  0  0  0  0
   25.5007  -20.9071   -7.2178 C   0  0  0  0  0  0  0  0  0  0  0  0
   25.2428  -20.3784   -8.5844 C   0  0  2  0  0  0  0  0  0  0  0  0
   25.1456  -18.8695   -8.5131 C   0  0  0  0  0  0  0  0  0  0  0  0
   24.0962  -21.0161   -9.3242 C   0  0  2  0  0  0  0  0  0  0  0  0
   23.9971  -20.2585  -10.5845 N   0  0  0  0  0  0  0  0  0  0  0  0
   22.7942  -20.9058   -8.6476 C   0  0  0  0  0  0  0  0  0  0  0  0
   22.1745  -19.8120   -8.6797 O   0  0  0  0  0  0  0  0  0  0  0  0
   17.4818  -22.9818   -8.5194 C   0  0  0  0  0  0  0  0  0  0  0  0
   18.4576  -22.3419   -7.5855 C   0  0  0  0  0  0  0  0  0  0  0  0
   19.8359  -22.4821   -8.1439 C   0  0  2  0  0  0  0  0  0  0  0  0
   20.1673  -23.9291   -8.3059 C   0  0  0  0  0  0  0  0  0  0  0  0
   20.8771  -21.7878   -7.2656 C   0  0  2  0  0  0  0  0  0  0  0  0
   22.1504  -21.9615   -7.9374 N   0  0  0  0  0  0  0  0  0  0  0  0
   20.8568  -22.3353   -5.9130 C   0  0  0  0  0  0  0  0  0  0  0  0
   21.5791  -23.3105   -5.6027 O   0  0  0  0  0  0  0  0  0  0  0  0
   20.0484  -21.8081   -4.9244 O   0  0  0  0  0  0  0  0  0  0  0  0
  2  1  1  6
  3  2  1  0
  3  4  1  0
  4  5  2  0
  5  6  1  0
  7  6  1  0
  8  4  1  0
  8  7  2  0
  9 10  2  0
  9  2  1  0
 12 11  1  0
 13 12  1  0
 13 14  1  1
 15 13  1  0
 15 16  1  6
 16  9  1  0
 17 15  1  0
 18 17  2  0
 19 20  1  0
 21 22  1  1
 21 20  1  0
 23 21  1  0
 23 24  1  6
 24 17  1  0
 25 27  1  0
 25 23  1  0
 26 25  2  0
M  END
$$$$
