HII.pdb
     RDKit          3D

 27 27  0  0  1  0  0  0  0  0999 V2000
   18.7122  -29.2663  -10.9760 N   0  0  0  0  0  0  0  0  0  0  0  0
   17.7395  -29.1032   -9.9167 C   0  0  1  0  0  0  0  0  0  0  0  0
   17.2931  -30.3973   -9.2987 C   0  0  0  0  0  0  0  0  0  0  0  0
   16.5096  -31.2686  -10.1917 C   0  0  0  0  0  0  0  0  0  0  0  0
   15.5551  -30.9311  -11.1187 C   0  0  0  0  0  0  0  0  0  0  0  0
   15.0982  -32.0666  -11.6948 N   0  0  0  0  0  0  0  0  0  0  0  0
   15.7548  -33.0889  -11.1373 C   0  0  0  0  0  0  0  0  0  0  0  0
   16.6159  -32.6332  -10.2233 N   0  0  0  0  0  0  0  0  0  0  0  0
   18.2627  -28.1497   -8.9222 C   0  0  0  0  0  0  0  0  0  0  0  0
   19.4833  -28.1119   -8.6589 O   0  0  0  0  0  0  0  0  0  0  0  0
   19.8385  -23.7446   -7.2325 C   0  0  0  0  0  0  0  0  0  0  0  0
   18.3036  -23.7389   -7.3337 C   0  0  0  0  0  0  0  0  0  0  0  0
   17.9369  -24.9624   -8.0967 C   0  0  2  0  0  0  0  0  0  0  0  0
   16.6386  -24.7076   -8.8320 C   0  0  0  0  0  0  0  0  0  0  0  0
   17.9344  -26.2457   -7.3082 C   0  0  2  0  0  0  0  0  0  0  0  0
   17.4088  -27.2573   -8.2424 N   0  0  0  0  0  0  0  0  0  0  0  0
   17.0503  -26.2398   -6.1319 C   0  0  0  0  0  0  0  0  0  0  0  0
   15.8042  -26.2724   -6.2984 O   0  0  0  0  0  0  0  0  0  0  0  0
   19.1123  -27.4887   -1.0980 C   0  0  0  0  0  0  0  0  0  0  0  0
   18.5711  -26.6271   -2.1927 C   0  0  0  0  0  0  0  0  0  0  0  0
   17.2310  -27.1418   -2.6055 C   0  0  2  0  0  0  0  0  0  0  0  0
   17.3659  -28.5367   -3.1213 C   0  0  0  0  0  0  0  0  0  0  0  0
   16.5764  -26.2424   -3.6544 C   0  0  2  0  0  0  0  0  0  0  0  0
   17.4932  -26.2006   -4.7770 N   0  0  0  0  0  0  0  0  0  0  0  0
   16.2862  -24.9263   -3.0947 C   0  0  0  0  0  0  0  0  0  0  0  0
   15.3667  -24.7712   -2.2584 O   0  0  0  0  0  0  0  0  0  0  0  0
   17.0051  -23.8040   -3.4584 O   0  0  0  0  0  0  0  0  0  0  0  0
  2  1  1  6
  3  2  1  0
  3  4  1  0
  4  5  2  0
  5  6  1  0
  7  6  1  0
  8  4  1  0
  8  7  2  0
  9 10  2  0
  9  2  1  0
 12 11  1  0
 13 12  1  0
 13 14  1  1
 15 13  1  0
 15 16  1  6
 16  9  1  0
 17 15  1  0
 18 17  2  0
 19 20  1  0
 21 22  1  6
 21 20  1  0
 23 21  1  0
 23 24  1  6
 24 17  1  0
 25 27  1  0
 25 23  1  0
 26 25  2  0
M  END
$$$$
