HII.pdb
     RDKit          3D

 27 27  0  0  1  0  0  0  0  0999 V2000
   23.5382  -21.7338  -12.7277 N   0  0  0  0  0  0  0  0  0  0  0  0
   23.8050  -20.7083  -11.7418 C   0  0  1  0  0  0  0  0  0  0  0  0
   22.5886  -20.2714  -10.9768 C   0  0  0  0  0  0  0  0  0  0  0  0
   21.5432  -19.6321  -11.7945 C   0  0  0  0  0  0  0  0  0  0  0  0
   21.5550  -18.4117  -12.4229 C   0  0  0  0  0  0  0  0  0  0  0  0
   20.3678  -18.2413  -13.0486 N   0  0  0  0  0  0  0  0  0  0  0  0
   19.6330  -19.3330  -12.8139 C   0  0  0  0  0  0  0  0  0  0  0  0
   20.3213  -20.1916  -12.0565 N   0  0  0  0  0  0  0  0  0  0  0  0
   24.8988  -21.1566  -10.8617 C   0  0  0  0  0  0  0  0  0  0  0  0
   24.7710  -22.1832  -10.1615 O   0  0  0  0  0  0  0  0  0  0  0  0
   29.2433  -20.8221  -13.0567 C   0  0  0  0  0  0  0  0  0  0  0  0
   28.4742  -21.6247  -11.9934 C   0  0  0  0  0  0  0  0  0  0  0  0
   28.4507  -20.7741  -10.7729 C   0  0  2  0  0  0  0  0  0  0  0  0
   29.7379  -20.9868  -10.0054 C   0  0  0  0  0  0  0  0  0  0  0  0
   27.2178  -20.8973   -9.9165 C   0  0  2  0  0  0  0  0  0  0  0  0
   26.1142  -20.4463  -10.7831 N   0  0  0  0  0  0  0  0  0  0  0  0
   27.2128  -20.0364   -8.7233 C   0  0  0  0  0  0  0  0  0  0  0  0
   26.8583  -18.8347   -8.8328 O   0  0  0  0  0  0  0  0  0  0  0  0
   27.4947  -22.2170   -3.6248 C   0  0  0  0  0  0  0  0  0  0  0  0
   27.0192  -21.3262   -4.7265 C   0  0  0  0  0  0  0  0  0  0  0  0
   28.1086  -20.3712   -5.0905 C   0  0  2  0  0  0  0  0  0  0  0  0
   28.4213  -19.4967   -3.9212 C   0  0  0  0  0  0  0  0  0  0  0  0
   27.7381  -19.5259   -6.3095 C   0  0  2  0  0  0  0  0  0  0  0  0
   27.5839  -20.4553   -7.4117 N   0  0  0  0  0  0  0  0  0  0  0  0
   28.7496  -18.5024   -6.5525 C   0  0  0  0  0  0  0  0  0  0  0  0
   28.5116  -17.2947   -6.3208 O   0  0  0  0  0  0  0  0  0  0  0  0
   30.0020  -18.8164   -7.0441 O   0  0  0  0  0  0  0  0  0  0  0  0
  2  1  1  6
  3  2  1  0
  3  4  1  0
  4  5  2  0
  5  6  1  0
  7  6  1  0
  8  4  1  0
  8  7  2  0
  9 10  2  0
  9  2  1  0
 12 11  1  0
 13 12  1  0
 13 14  1  1
 15 13  1  0
 15 16  1  6
 16  9  1  0
 17 15  1  0
 18 17  2  0
 19 20  1  0
 21 22  1  1
 21 20  1  0
 23 21  1  0
 23 24  1  6
 24 17  1  0
 25 27  1  0
 25 23  1  0
 26 25  2  0
M  END
$$$$
