HII.pdb
     RDKit          3D

 27 27  0  0  1  0  0  0  0  0999 V2000
   22.6293  -20.5791  -17.9185 N   0  0  0  0  0  0  0  0  0  0  0  0
   22.5963  -19.9121  -16.6344 C   0  0  1  0  0  0  0  0  0  0  0  0
   21.2898  -20.0589  -15.9082 C   0  0  0  0  0  0  0  0  0  0  0  0
   20.1348  -19.4475  -16.5881 C   0  0  0  0  0  0  0  0  0  0  0  0
   19.8461  -18.1206  -16.7895 C   0  0  0  0  0  0  0  0  0  0  0  0
   18.6707  -18.0347  -17.4536 N   0  0  0  0  0  0  0  0  0  0  0  0
   18.2374  -19.2823  -17.6605 C   0  0  0  0  0  0  0  0  0  0  0  0
   19.1057  -20.1575  -17.1461 N   0  0  0  0  0  0  0  0  0  0  0  0
   23.7472  -20.3572  -15.8286 C   0  0  0  0  0  0  0  0  0  0  0  0
   24.0149  -21.5725  -15.7199 O   0  0  0  0  0  0  0  0  0  0  0  0
   28.4618  -18.5849  -16.7689 C   0  0  0  0  0  0  0  0  0  0  0  0
   27.2301  -19.4320  -16.4061 C   0  0  0  0  0  0  0  0  0  0  0  0
   26.9057  -19.1020  -14.9921 C   0  0  2  0  0  0  0  0  0  0  0  0
   28.1737  -19.1818  -14.1694 C   0  0  0  0  0  0  0  0  0  0  0  0
   25.7556  -19.8672  -14.3918 C   0  0  2  0  0  0  0  0  0  0  0  0
   24.5756  -19.4324  -15.1606 N   0  0  0  0  0  0  0  0  0  0  0  0
   25.4891  -19.5619  -12.9773 C   0  0  0  0  0  0  0  0  0  0  0  0
   25.1847  -18.3870  -12.6479 O   0  0  0  0  0  0  0  0  0  0  0  0
   23.1305  -21.7002   -7.9224 C   0  0  0  0  0  0  0  0  0  0  0  0
   24.1647  -20.7637   -8.4581 C   0  0  0  0  0  0  0  0  0  0  0  0
   24.4272  -21.0902   -9.8919 C   0  0  2  0  0  0  0  0  0  0  0  0
   24.9116  -22.4981  -10.0058 C   0  0  0  0  0  0  0  0  0  0  0  0
   25.4326  -20.1239  -10.5188 C   0  0  2  0  0  0  0  0  0  0  0  0
   25.5451  -20.5087  -11.9124 N   0  0  0  0  0  0  0  0  0  0  0  0
   26.7031  -20.1668   -9.8022 C   0  0  0  0  0  0  0  0  0  0  0  0
   27.6409  -20.8968  -10.1980 O   0  0  0  0  0  0  0  0  0  0  0  0
   26.9263  -19.4120   -8.6668 O   0  0  0  0  0  0  0  0  0  0  0  0
  2  1  1  6
  3  2  1  0
  3  4  1  0
  4  5  2  0
  5  6  1  0
  7  6  1  0
  8  4  1  0
  8  7  2  0
  9 10  2  0
  9  2  1  0
 12 11  1  0
 13 12  1  0
 13 14  1  1
 15 13  1  0
 15 16  1  6
 16  9  1  0
 17 15  1  0
 18 17  2  0
 19 20  1  0
 21 22  1  1
 21 20  1  0
 23 21  1  0
 23 24  1  6
 24 17  1  0
 25 27  1  0
 25 23  1  0
 26 25  2  0
M  END
$$$$
