HII.pdb
     RDKit          3D

 27 27  0  0  1  0  0  0  0  0999 V2000
   19.5608  -21.0716  -12.7364 N   0  0  0  0  0  0  0  0  0  0  0  0
   20.7210  -21.4964  -13.4903 C   0  0  1  0  0  0  0  0  0  0  0  0
   20.4952  -21.5453  -14.9744 C   0  0  0  0  0  0  0  0  0  0  0  0
   19.4699  -22.5090  -15.4103 C   0  0  0  0  0  0  0  0  0  0  0  0
   18.1388  -22.3029  -15.6751 C   0  0  0  0  0  0  0  0  0  0  0  0
   17.5863  -23.4843  -16.0345 N   0  0  0  0  0  0  0  0  0  0  0  0
   18.5538  -24.4058  -15.9936 C   0  0  0  0  0  0  0  0  0  0  0  0
   19.7051  -23.8417  -15.6183 N   0  0  0  0  0  0  0  0  0  0  0  0
   21.8734  -20.6565  -13.1184 C   0  0  0  0  0  0  0  0  0  0  0  0
   21.7437  -19.4208  -12.9888 O   0  0  0  0  0  0  0  0  0  0  0  0
   26.3009  -20.9523   -9.3484 C   0  0  0  0  0  0  0  0  0  0  0  0
   25.9451  -20.1883  -10.6352 C   0  0  0  0  0  0  0  0  0  0  0  0
   24.8347  -20.9474  -11.2710 C   0  0  2  0  0  0  0  0  0  0  0  0
   25.2359  -22.4033  -11.3744 C   0  0  0  0  0  0  0  0  0  0  0  0
   24.3135  -20.3786  -12.5647 C   0  0  2  0  0  0  0  0  0  0  0  0
   23.1483  -21.2170  -12.8989 N   0  0  0  0  0  0  0  0  0  0  0  0
   25.2516  -20.4682  -13.6947 C   0  0  0  0  0  0  0  0  0  0  0  0
   25.3848  -21.5631  -14.2988 O   0  0  0  0  0  0  0  0  0  0  0  0
   27.0265  -15.8100  -15.9557 C   0  0  0  0  0  0  0  0  0  0  0  0
   26.4662  -17.1951  -15.9227 C   0  0  0  0  0  0  0  0  0  0  0  0
   27.5505  -18.1548  -15.5560 C   0  0  2  0  0  0  0  0  0  0  0  0
   28.5648  -18.2086  -16.6506 C   0  0  0  0  0  0  0  0  0  0  0  0
   26.9984  -19.5508  -15.2664 C   0  0  2  0  0  0  0  0  0  0  0  0
   26.0477  -19.3907  -14.1833 N   0  0  0  0  0  0  0  0  0  0  0  0
   28.0814  -20.4777  -14.9536 C   0  0  0  0  0  0  0  0  0  0  0  0
   28.6345  -20.4654  -13.8299 O   0  0  0  0  0  0  0  0  0  0  0  0
   28.5403  -21.4008  -15.8735 O   0  0  0  0  0  0  0  0  0  0  0  0
  2  1  1  1
  3  2  1  0
  3  4  1  0
  4  5  2  0
  5  6  1  0
  7  6  1  0
  8  4  1  0
  8  7  2  0
  9 10  2  0
  9  2  1  0
 12 11  1  0
 13 12  1  0
 13 14  1  6
 15 13  1  0
 15 16  1  6
 16  9  1  0
 17 15  1  0
 18 17  2  0
 19 20  1  0
 21 22  1  6
 21 20  1  0
 23 21  1  0
 23 24  1  1
 24 17  1  0
 25 27  1  0
 25 23  1  0
 26 25  2  0
M  END
$$$$
