HII.pdb
     RDKit          3D

 27 27  0  0  1  0  0  0  0  0999 V2000
   22.9980  -21.3002  -13.4209 N   0  0  0  0  0  0  0  0  0  0  0  0
   23.1924  -20.5665  -12.1885 C   0  0  1  0  0  0  0  0  0  0  0  0
   21.9605  -20.4795  -11.3337 C   0  0  0  0  0  0  0  0  0  0  0  0
   20.8395  -19.7422  -11.9418 C   0  0  0  0  0  0  0  0  0  0  0  0
   20.6910  -18.3917  -12.1384 C   0  0  0  0  0  0  0  0  0  0  0  0
   19.4908  -18.1740  -12.7234 N   0  0  0  0  0  0  0  0  0  0  0  0
   18.9051  -19.3644  -12.8868 C   0  0  0  0  0  0  0  0  0  0  0  0
   19.7006  -20.3316  -12.4217 N   0  0  0  0  0  0  0  0  0  0  0  0
   24.3462  -21.1314  -11.4662 C   0  0  0  0  0  0  0  0  0  0  0  0
   24.3433  -22.3254  -11.0987 O   0  0  0  0  0  0  0  0  0  0  0  0
   29.1312  -20.6667  -13.2970 C   0  0  0  0  0  0  0  0  0  0  0  0
   27.8232  -21.1372  -12.6384 C   0  0  0  0  0  0  0  0  0  0  0  0
   27.8275  -20.5697  -11.2631 C   0  0  2  0  0  0  0  0  0  0  0  0
   29.1407  -20.9182  -10.5958 C   0  0  0  0  0  0  0  0  0  0  0  0
   26.6237  -20.8974  -10.4192 C   0  0  2  0  0  0  0  0  0  0  0  0
   25.4804  -20.3481  -11.1698 N   0  0  0  0  0  0  0  0  0  0  0  0
   26.6162  -20.2638   -9.0912 C   0  0  0  0  0  0  0  0  0  0  0  0
   26.1197  -19.1159   -8.9597 O   0  0  0  0  0  0  0  0  0  0  0  0
   28.8796  -21.3676   -3.4425 C   0  0  0  0  0  0  0  0  0  0  0  0
   28.0722  -20.4614   -4.3146 C   0  0  0  0  0  0  0  0  0  0  0  0
   27.9929  -21.0439   -5.6878 C   0  0  2  0  0  0  0  0  0  0  0  0
   29.3697  -21.3145   -6.1988 C   0  0  0  0  0  0  0  0  0  0  0  0
   27.2335  -20.1290   -6.6491 C   0  0  2  0  0  0  0  0  0  0  0  0
   27.1365  -20.8533   -7.9015 N   0  0  0  0  0  0  0  0  0  0  0  0
   27.9090  -18.8416   -6.7758 C   0  0  0  0  0  0  0  0  0  0  0  0
   27.5338  -17.8498   -6.1092 O   0  0  0  0  0  0  0  0  0  0  0  0
   28.9814  -18.6610   -7.6279 O   0  0  0  0  0  0  0  0  0  0  0  0
  2  1  1  6
  3  2  1  0
  3  4  1  0
  4  5  2  0
  5  6  1  0
  7  6  1  0
  8  4  1  0
  8  7  2  0
  9 10  2  0
  9  2  1  0
 12 11  1  0
 13 12  1  0
 13 14  1  1
 15 13  1  0
 15 16  1  6
 16  9  1  0
 17 15  1  0
 18 17  2  0
 19 20  1  0
 21 22  1  6
 21 20  1  0
 23 21  1  0
 23 24  1  6
 24 17  1  0
 25 27  1  0
 25 23  1  0
 26 25  2  0
M  END
$$$$
