HII.pdb
     RDKit          3D

 27 27  0  0  1  0  0  0  0  0999 V2000
   22.8846  -18.3491  -18.6669 N   0  0  0  0  0  0  0  0  0  0  0  0
   23.6986  -19.5408  -18.7779 C   0  0  1  0  0  0  0  0  0  0  0  0
   24.2684  -19.7603  -20.1501 C   0  0  0  0  0  0  0  0  0  0  0  0
   23.3499  -19.4418  -21.2569 C   0  0  0  0  0  0  0  0  0  0  0  0
   23.1007  -18.2344  -21.8606 C   0  0  0  0  0  0  0  0  0  0  0  0
   22.1709  -18.4223  -22.8251 N   0  0  0  0  0  0  0  0  0  0  0  0
   21.8486  -19.7196  -22.8210 C   0  0  0  0  0  0  0  0  0  0  0  0
   22.5483  -20.3601  -21.8804 N   0  0  0  0  0  0  0  0  0  0  0  0
   24.7343  -19.5181  -17.7297 C   0  0  0  0  0  0  0  0  0  0  0  0
   25.6826  -20.3310  -17.7555 O   0  0  0  0  0  0  0  0  0  0  0  0
   26.8220  -14.9767  -16.3031 C   0  0  0  0  0  0  0  0  0  0  0  0
   26.7272  -16.4773  -16.6279 C   0  0  0  0  0  0  0  0  0  0  0  0
   26.0689  -17.1117  -15.4541 C   0  0  2  0  0  0  0  0  0  0  0  0
   26.8972  -16.8294  -14.2190 C   0  0  0  0  0  0  0  0  0  0  0  0
   25.7126  -18.5663  -15.6142 C   0  0  2  0  0  0  0  0  0  0  0  0
   24.6877  -18.5856  -16.6733 N   0  0  0  0  0  0  0  0  0  0  0  0
   25.1153  -19.1853  -14.4204 C   0  0  0  0  0  0  0  0  0  0  0  0
   24.0326  -18.7322  -13.9685 O   0  0  0  0  0  0  0  0  0  0  0  0
   24.4976  -24.2550  -13.9733 C   0  0  0  0  0  0  0  0  0  0  0  0
   24.3241  -22.7795  -13.8112 C   0  0  0  0  0  0  0  0  0  0  0  0
   25.0922  -22.3235  -12.6139 C   0  0  2  0  0  0  0  0  0  0  0  0
   24.5295  -22.9578  -11.3848 C   0  0  0  0  0  0  0  0  0  0  0  0
   25.0865  -20.8002  -12.4828 C   0  0  2  0  0  0  0  0  0  0  0  0
   25.6701  -20.2888  -13.7077 N   0  0  0  0  0  0  0  0  0  0  0  0
   25.8041  -20.3844  -11.2820 C   0  0  0  0  0  0  0  0  0  0  0  0
   27.0532  -20.2917  -11.2786 O   0  0  0  0  0  0  0  0  0  0  0  0
   25.1448  -20.0777  -10.1073 O   0  0  0  0  0  0  0  0  0  0  0  0
  2  1  1  6
  3  2  1  0
  3  4  1  0
  4  5  2  0
  5  6  1  0
  7  6  1  0
  8  4  1  0
  8  7  2  0
  9 10  2  0
  9  2  1  0
 12 11  1  0
 13 12  1  0
 13 14  1  1
 15 13  1  0
 15 16  1  6
 16  9  1  0
 17 15  1  0
 18 17  2  0
 19 20  1  0
 21 22  1  1
 21 20  1  0
 23 21  1  0
 23 24  1  6
 24 17  1  0
 25 27  1  0
 25 23  1  0
 26 25  2  0
M  END
$$$$
