HII.pdb
     RDKit          3D

 27 27  0  0  1  0  0  0  0  0999 V2000
   27.9203  -20.6580  -15.2398 N   0  0  0  0  0  0  0  0  0  0  0  0
   26.7693  -19.9513  -14.7195 C   0  0  1  0  0  0  0  0  0  0  0  0
   25.8736  -19.3847  -15.7837 C   0  0  0  0  0  0  0  0  0  0  0  0
   26.5320  -18.4444  -16.7069 C   0  0  0  0  0  0  0  0  0  0  0  0
   26.7817  -17.1035  -16.5515 C   0  0  0  0  0  0  0  0  0  0  0  0
   27.3995  -16.6514  -17.6668 N   0  0  0  0  0  0  0  0  0  0  0  0
   27.5310  -17.6895  -18.4986 C   0  0  0  0  0  0  0  0  0  0  0  0
   27.0137  -18.7881  -17.9417 N   0  0  0  0  0  0  0  0  0  0  0  0
   26.0492  -20.8271  -13.7780 C   0  0  0  0  0  0  0  0  0  0  0  0
   25.9088  -22.0440  -14.0226 O   0  0  0  0  0  0  0  0  0  0  0  0
   26.4032  -20.3383   -8.4930 C   0  0  0  0  0  0  0  0  0  0  0  0
   26.2853  -20.9719   -9.8897 C   0  0  0  0  0  0  0  0  0  0  0  0
   24.8886  -20.7230  -10.3380 C   0  0  2  0  0  0  0  0  0  0  0  0
   23.9372  -21.3210   -9.3240 C   0  0  0  0  0  0  0  0  0  0  0  0
   24.5784  -21.1236  -11.7564 C   0  0  2  0  0  0  0  0  0  0  0  0
   25.5006  -20.3227  -12.5812 N   0  0  0  0  0  0  0  0  0  0  0  0
   23.2116  -20.8039  -12.1978 C   0  0  0  0  0  0  0  0  0  0  0  0
   22.8647  -19.5997  -12.3032 O   0  0  0  0  0  0  0  0  0  0  0  0
   21.1121  -22.6327  -16.4695 C   0  0  0  0  0  0  0  0  0  0  0  0
   21.4189  -21.7773  -15.2830 C   0  0  0  0  0  0  0  0  0  0  0  0
   20.5190  -22.1621  -14.1546 C   0  0  2  0  0  0  0  0  0  0  0  0
   19.0964  -21.9315  -14.5457 C   0  0  0  0  0  0  0  0  0  0  0  0
   20.8549  -21.3963  -12.8746 C   0  0  2  0  0  0  0  0  0  0  0  0
   22.2135  -21.7670  -12.5289 N   0  0  0  0  0  0  0  0  0  0  0  0
   19.8873  -21.6990  -11.8249 C   0  0  0  0  0  0  0  0  0  0  0  0
   19.9565  -22.7673  -11.1747 O   0  0  0  0  0  0  0  0  0  0  0  0
   18.8623  -20.8298  -11.5045 O   0  0  0  0  0  0  0  0  0  0  0  0
  2  1  1  6
  3  2  1  0
  3  4  1  0
  4  5  2  0
  5  6  1  0
  7  6  1  0
  8  4  1  0
  8  7  2  0
  9 10  2  0
  9  2  1  0
 12 11  1  0
 13 12  1  0
 13 14  1  1
 15 13  1  0
 15 16  1  6
 16  9  1  0
 17 15  1  0
 18 17  2  0
 19 20  1  0
 21 22  1  6
 21 20  1  0
 23 21  1  0
 23 24  1  1
 24 17  1  0
 25 27  1  0
 25 23  1  0
 26 25  2  0
M  END
$$$$
