VVN.pdb
     RDKit          3D

 23 22  0  0  1  0  0  0  0  0999 V2000
   19.7497  -15.0078  -15.4233 C   0  0  0  0  0  0  0  0  0  0  0  0
   18.8437  -14.4320  -16.4575 C   0  0  2  0  0  0  0  0  0  0  0  0
   18.5438  -15.4900  -17.4983 C   0  0  0  0  0  0  0  0  0  0  0  0
   19.3411  -13.1695  -17.0887 C   0  0  2  0  0  0  0  0  0  0  0  0
   20.4786  -13.5106  -17.9182 N   0  0  0  0  0  0  0  0  0  0  0  0
   19.7092  -12.1140  -16.1630 C   0  0  0  0  0  0  0  0  0  0  0  0
   19.0638  -11.7847  -15.1343 O   0  0  0  0  0  0  0  0  0  0  0  0
   23.4378  -10.2287  -16.7600 C   0  0  0  0  0  0  0  0  0  0  0  0
   22.8048  -10.3218  -15.4224 C   0  0  2  0  0  0  0  0  0  0  0  0
   23.2046  -11.6298  -14.7403 C   0  0  0  0  0  0  0  0  0  0  0  0
   21.3136  -10.2779  -15.5031 C   0  0  2  0  0  0  0  0  0  0  0  0
   20.8932  -11.3669  -16.4066 N   0  0  0  0  0  0  0  0  0  0  0  0
   20.7902   -9.0357  -16.0768 C   0  0  0  0  0  0  0  0  0  0  0  0
   20.7194   -8.8759  -17.3466 O   0  0  0  0  0  0  0  0  0  0  0  0
   17.9236   -3.9415  -14.8517 N   0  0  0  0  0  0  0  0  0  0  0  0
   18.0505   -5.0567  -15.7132 C   0  0  0  0  0  0  0  0  0  0  0  0
   17.6959   -4.9297  -16.9096 O   0  0  0  0  0  0  0  0  0  0  0  0
   18.5886   -6.3334  -15.2042 C   0  0  0  0  0  0  0  0  0  0  0  0
   19.8692   -6.7376  -15.9339 C   0  0  2  0  0  0  0  0  0  0  0  0
   20.3408   -7.9726  -15.2842 N   0  0  0  0  0  0  0  0  0  0  0  0
   20.9068   -5.7086  -15.7536 C   0  0  0  0  0  0  0  0  0  0  0  0
   21.0829   -4.7033  -16.7045 O   0  0  0  0  0  0  0  0  0  0  0  0
   21.6760   -5.6728  -14.7628 O   0  0  0  0  0  0  0  0  0  0  0  0
  2  1  1  1
  2  3  1  0
  2  4  1  0
  4  6  1  0
  4  5  1  1
  6 12  1  0
  6  7  2  0
  9  8  1  6
  9 11  1  0
 10  9  1  0
 11 13  1  0
 11 12  1  6
 13 14  2  0
 15 16  1  0
 16 17  2  0
 18 16  1  0
 19 18  1  1
 19 21  1  0
 20 13  1  0
 20 19  1  0
 21 22  1  0
 23 21  2  0
M  END
$$$$
