VVN.pdb
     RDKit          3D

 23 22  0  0  1  0  0  0  0  0999 V2000
   26.8001  -22.1956  -10.2282 C   0  0  0  0  0  0  0  0  0  0  0  0
   26.2641  -20.9358   -9.6385 C   0  0  2  0  0  0  0  0  0  0  0  0
   25.5061  -21.2656   -8.3700 C   0  0  0  0  0  0  0  0  0  0  0  0
   25.4338  -20.1139  -10.5737 C   0  0  2  0  0  0  0  0  0  0  0  0
   24.2621  -20.8915  -10.9212 N   0  0  0  0  0  0  0  0  0  0  0  0
   26.1071  -19.6760  -11.7827 C   0  0  0  0  0  0  0  0  0  0  0  0
   27.2446  -19.1408  -11.8340 O   0  0  0  0  0  0  0  0  0  0  0  0
   24.6798  -21.1496  -15.3890 C   0  0  0  0  0  0  0  0  0  0  0  0
   26.0608  -20.6411  -15.2079 C   0  0  2  0  0  0  0  0  0  0  0  0
   26.9498  -21.7318  -14.6113 C   0  0  0  0  0  0  0  0  0  0  0  0
   26.1076  -19.4561  -14.2991 C   0  0  2  0  0  0  0  0  0  0  0  0
   25.4569  -19.8503  -13.0342 N   0  0  0  0  0  0  0  0  0  0  0  0
   25.3685  -18.2963  -14.8035 C   0  0  0  0  0  0  0  0  0  0  0  0
   24.1067  -18.1842  -14.6083 O   0  0  0  0  0  0  0  0  0  0  0  0
   24.2690  -13.5309  -16.4762 N   0  0  0  0  0  0  0  0  0  0  0  0
   25.6110  -13.5840  -16.0313 C   0  0  0  0  0  0  0  0  0  0  0  0
   26.2628  -12.5140  -15.9726 O   0  0  0  0  0  0  0  0  0  0  0  0
   26.2180  -14.8737  -15.6483 C   0  0  0  0  0  0  0  0  0  0  0  0
   25.2308  -16.0304  -15.8019 C   0  0  2  0  0  0  0  0  0  0  0  0
   25.9887  -17.2596  -15.5114 N   0  0  0  0  0  0  0  0  0  0  0  0
   24.7529  -16.1133  -17.1921 C   0  0  0  0  0  0  0  0  0  0  0  0
   25.5742  -16.6268  -18.1960 O   0  0  0  0  0  0  0  0  0  0  0  0
   23.6108  -15.7374  -17.5511 O   0  0  0  0  0  0  0  0  0  0  0  0
  2  1  1  6
  2  3  1  0
  2  4  1  0
  4  6  1  0
  4  5  1  6
  6 12  1  0
  6  7  2  0
  9  8  1  1
  9 11  1  0
 10  9  1  0
 11 13  1  0
 11 12  1  1
 13 14  2  0
 15 16  1  0
 16 17  2  0
 18 16  1  0
 19 18  1  6
 19 21  1  0
 20 13  1  0
 20 19  1  0
 21 22  1  0
 23 21  2  0
M  END
$$$$
