VVN.pdb
     RDKit          3D

 23 22  0  0  1  0  0  0  0  0999 V2000
   25.9877  -19.4161   -9.9816 C   0  0  0  0  0  0  0  0  0  0  0  0
   25.1628  -20.6409  -10.1851 C   0  0  2  0  0  0  0  0  0  0  0  0
   25.7024  -21.7529   -9.3104 C   0  0  0  0  0  0  0  0  0  0  0  0
   25.0377  -21.0784  -11.6107 C   0  0  2  0  0  0  0  0  0  0  0  0
   26.2373  -21.8151  -11.9520 N   0  0  0  0  0  0  0  0  0  0  0  0
   24.8277  -20.0121  -12.5728 C   0  0  0  0  0  0  0  0  0  0  0  0
   23.9898  -19.0801  -12.4611 O   0  0  0  0  0  0  0  0  0  0  0  0
   27.7853  -18.2980  -14.6494 C   0  0  0  0  0  0  0  0  0  0  0  0
   26.7030  -18.8053  -15.5269 C   0  0  2  0  0  0  0  0  0  0  0  0
   26.4759  -17.8435  -16.6928 C   0  0  0  0  0  0  0  0  0  0  0  0
   25.4106  -18.9574  -14.7929 C   0  0  2  0  0  0  0  0  0  0  0  0
   25.6172  -19.9856  -13.7541 N   0  0  0  0  0  0  0  0  0  0  0  0
   24.3072  -19.4300  -15.6327 C   0  0  0  0  0  0  0  0  0  0  0  0
   24.2004  -20.6690  -15.9430 O   0  0  0  0  0  0  0  0  0  0  0  0
   19.6461  -20.1014  -17.5309 N   0  0  0  0  0  0  0  0  0  0  0  0
   19.9093  -20.0850  -16.1409 C   0  0  0  0  0  0  0  0  0  0  0  0
   19.0327  -20.5313  -15.3625 O   0  0  0  0  0  0  0  0  0  0  0  0
   21.1883  -19.5529  -15.6314 C   0  0  0  0  0  0  0  0  0  0  0  0
   22.1222  -19.1414  -16.7692 C   0  0  2  0  0  0  0  0  0  0  0  0
   23.3210  -18.5705  -16.1316 N   0  0  0  0  0  0  0  0  0  0  0  0
   21.4994  -18.0858  -17.5852 C   0  0  0  0  0  0  0  0  0  0  0  0
   20.9735  -18.3784  -18.8438 O   0  0  0  0  0  0  0  0  0  0  0  0
   21.4060  -16.8917  -17.2114 O   0  0  0  0  0  0  0  0  0  0  0  0
  2  1  1  6
  2  3  1  0
  2  4  1  0
  4  6  1  0
  4  5  1  6
  6 12  1  0
  6  7  2  0
  9  8  1  1
  9 11  1  0
 10  9  1  0
 11 13  1  0
 11 12  1  1
 13 14  2  0
 15 16  1  0
 16 17  2  0
 18 16  1  0
 19 18  1  1
 19 21  1  0
 20 13  1  0
 20 19  1  0
 21 22  1  0
 23 21  2  0
M  END
$$$$
