VVN.pdb
     RDKit          3D

 23 22  0  0  1  0  0  0  0  0999 V2000
   28.3969  -23.2609  -21.1841 C   0  0  0  0  0  0  0  0  0  0  0  0
   27.1381  -22.4978  -21.4188 C   0  0  2  0  0  0  0  0  0  0  0  0
   27.4857  -21.0857  -21.8405 C   0  0  0  0  0  0  0  0  0  0  0  0
   26.1812  -22.5050  -20.2683 C   0  0  2  0  0  0  0  0  0  0  0  0
   26.6954  -21.5984  -19.2624 N   0  0  0  0  0  0  0  0  0  0  0  0
   25.9323  -23.8055  -19.6739 C   0  0  0  0  0  0  0  0  0  0  0  0
   25.6634  -24.8598  -20.3060 O   0  0  0  0  0  0  0  0  0  0  0  0
   28.1337  -25.7044  -17.3447 C   0  0  0  0  0  0  0  0  0  0  0  0
   26.8467  -25.4768  -16.6443 C   0  0  2  0  0  0  0  0  0  0  0  0
   26.4877  -26.6944  -15.7931 C   0  0  0  0  0  0  0  0  0  0  0  0
   25.7241  -25.2313  -17.5991 C   0  0  2  0  0  0  0  0  0  0  0  0
   25.9884  -23.9383  -18.2602 N   0  0  0  0  0  0  0  0  0  0  0  0
   24.4156  -25.1084  -16.9522 C   0  0  0  0  0  0  0  0  0  0  0  0
   24.0978  -24.0478  -16.3063 O   0  0  0  0  0  0  0  0  0  0  0  0
   19.7118  -23.9269  -15.5470 N   0  0  0  0  0  0  0  0  0  0  0  0
   20.0239  -24.6954  -16.6932 C   0  0  0  0  0  0  0  0  0  0  0  0
   19.0842  -25.2420  -17.3189 O   0  0  0  0  0  0  0  0  0  0  0  0
   21.4254  -24.8427  -17.1319 C   0  0  0  0  0  0  0  0  0  0  0  0
   22.1561  -25.9232  -16.3353 C   0  0  2  0  0  0  0  0  0  0  0  0
   23.4523  -26.1231  -17.0058 N   0  0  0  0  0  0  0  0  0  0  0  0
   21.4150  -27.1939  -16.3984 C   0  0  0  0  0  0  0  0  0  0  0  0
   20.3692  -27.4509  -15.5117 O   0  0  0  0  0  0  0  0  0  0  0  0
   21.6705  -28.0994  -17.2287 O   0  0  0  0  0  0  0  0  0  0  0  0
  2  1  1  1
  2  3  1  0
  2  4  1  0
  4  6  1  0
  4  5  1  1
  6 12  1  0
  6  7  2  0
  9  8  1  6
  9 11  1  0
 10  9  1  0
 11 13  1  0
 11 12  1  1
 13 14  2  0
 15 16  1  0
 16 17  2  0
 18 16  1  0
 19 18  1  6
 19 21  1  0
 20 13  1  0
 20 19  1  0
 21 22  1  0
 23 21  2  0
M  END
$$$$
