VVN.pdb
     RDKit          3D

 23 22  0  0  1  0  0  0  0  0999 V2000
   19.0153  -19.0770  -16.5792 C   0  0  0  0  0  0  0  0  0  0  0  0
   19.4410  -17.7452  -16.0624 C   0  0  2  0  0  0  0  0  0  0  0  0
   18.9012  -16.6638  -16.9746 C   0  0  0  0  0  0  0  0  0  0  0  0
   20.9159  -17.5996  -15.8549 C   0  0  2  0  0  0  0  0  0  0  0  0
   21.3394  -18.6506  -14.9526 N   0  0  0  0  0  0  0  0  0  0  0  0
   21.3484  -16.3118  -15.3439 C   0  0  0  0  0  0  0  0  0  0  0  0
   20.9989  -15.8050  -14.2465 O   0  0  0  0  0  0  0  0  0  0  0  0
   25.0443  -15.0071  -15.3057 C   0  0  0  0  0  0  0  0  0  0  0  0
   24.1571  -14.0967  -16.0690 C   0  0  2  0  0  0  0  0  0  0  0  0
   24.5904  -12.6453  -15.8651 C   0  0  0  0  0  0  0  0  0  0  0  0
   22.7297  -14.2184  -15.6448 C   0  0  2  0  0  0  0  0  0  0  0  0
   22.2428  -15.5278  -16.1215 N   0  0  0  0  0  0  0  0  0  0  0  0
   21.8502  -13.2070  -16.2361 C   0  0  0  0  0  0  0  0  0  0  0  0
   21.6360  -13.1787  -17.4995 O   0  0  0  0  0  0  0  0  0  0  0  0
   17.7341  -10.1922  -17.4880 N   0  0  0  0  0  0  0  0  0  0  0  0
   18.0436  -10.3640  -16.1181 C   0  0  0  0  0  0  0  0  0  0  0  0
   17.5380   -9.5709  -15.2883 O   0  0  0  0  0  0  0  0  0  0  0  0
   18.9411  -11.4542  -15.6886 C   0  0  0  0  0  0  0  0  0  0  0  0
   20.3810  -11.2115  -16.1403 C   0  0  2  0  0  0  0  0  0  0  0  0
   21.2012  -12.2333  -15.4673 N   0  0  0  0  0  0  0  0  0  0  0  0
   20.8437   -9.8900  -15.6849 C   0  0  0  0  0  0  0  0  0  0  0  0
   20.4477   -8.7303  -16.3516 O   0  0  0  0  0  0  0  0  0  0  0  0
   21.6018   -9.7284  -14.6982 O   0  0  0  0  0  0  0  0  0  0  0  0
  2  1  1  6
  2  3  1  0
  2  4  1  0
  4  6  1  0
  4  5  1  1
  6 12  1  0
  6  7  2  0
  9  8  1  1
  9 11  1  0
 10  9  1  0
 11 13  1  0
 11 12  1  6
 13 14  2  0
 15 16  1  0
 16 17  2  0
 18 16  1  0
 19 18  1  1
 19 21  1  0
 20 13  1  0
 20 19  1  0
 21 22  1  0
 23 21  2  0
M  END
$$$$
