VVN.pdb
     RDKit          3D

 23 22  0  0  1  0  0  0  0  0999 V2000
   17.2896  -13.7387  -18.1363 C   0  0  0  0  0  0  0  0  0  0  0  0
   18.2933  -14.0386  -17.0757 C   0  0  2  0  0  0  0  0  0  0  0  0
   17.8499  -15.2649  -16.3062 C   0  0  0  0  0  0  0  0  0  0  0  0
   18.5906  -12.8948  -16.1576 C   0  0  2  0  0  0  0  0  0  0  0  0
   17.4214  -12.6790  -15.3303 N   0  0  0  0  0  0  0  0  0  0  0  0
   18.9643  -11.6536  -16.8105 C   0  0  0  0  0  0  0  0  0  0  0  0
   19.8877  -11.5198  -17.6547 O   0  0  0  0  0  0  0  0  0  0  0  0
   16.2323   -8.6613  -17.1035 C   0  0  0  0  0  0  0  0  0  0  0  0
   17.5051   -8.6543  -17.8641 C   0  0  2  0  0  0  0  0  0  0  0  0
   17.3823   -9.5386  -19.1046 C   0  0  0  0  0  0  0  0  0  0  0  0
   18.6498   -9.1584  -17.0468 C   0  0  2  0  0  0  0  0  0  0  0  0
   18.2487  -10.4672  -16.4945 N   0  0  0  0  0  0  0  0  0  0  0  0
   18.9773   -8.3060  -15.9013 C   0  0  0  0  0  0  0  0  0  0  0  0
   18.3424   -8.4195  -14.7937 O   0  0  0  0  0  0  0  0  0  0  0  0
   22.6825   -3.9885  -14.0070 N   0  0  0  0  0  0  0  0  0  0  0  0
   22.1787   -5.2823  -13.7354 C   0  0  0  0  0  0  0  0  0  0  0  0
   22.0915   -5.6495  -12.5392 O   0  0  0  0  0  0  0  0  0  0  0  0
   21.7689   -6.1693  -14.8416 C   0  0  0  0  0  0  0  0  0  0  0  0
   20.2929   -6.5533  -14.7407 C   0  0  2  0  0  0  0  0  0  0  0  0
   19.9884   -7.3385  -15.9491 N   0  0  0  0  0  0  0  0  0  0  0  0
   19.4484   -5.3474  -14.7617 C   0  0  0  0  0  0  0  0  0  0  0  0
   18.9359   -4.8185  -13.5769 O   0  0  0  0  0  0  0  0  0  0  0  0
   19.1446   -4.7379  -15.8157 O   0  0  0  0  0  0  0  0  0  0  0  0
  2  1  1  6
  2  3  1  0
  2  4  1  0
  4  6  1  0
  4  5  1  6
  6 12  1  0
  6  7  2  0
  9  8  1  1
  9 11  1  0
 10  9  1  0
 11 13  1  0
 11 12  1  1
 13 14  2  0
 15 16  1  0
 16 17  2  0
 18 16  1  0
 19 18  1  6
 19 21  1  0
 20 13  1  0
 20 19  1  0
 21 22  1  0
 23 21  2  0
M  END
$$$$
