VVN.pdb
     RDKit          3D

 23 22  0  0  1  0  0  0  0  0999 V2000
   18.2987  -14.5753  -18.1804 C   0  0  0  0  0  0  0  0  0  0  0  0
   17.5465  -14.0112  -17.0237 C   0  0  2  0  0  0  0  0  0  0  0  0
   16.1474  -13.6458  -17.4729 C   0  0  0  0  0  0  0  0  0  0  0  0
   18.2202  -12.8611  -16.3432 C   0  0  2  0  0  0  0  0  0  0  0  0
   17.7784  -12.8457  -14.9638 N   0  0  0  0  0  0  0  0  0  0  0  0
   17.9907  -11.5606  -16.9454 C   0  0  0  0  0  0  0  0  0  0  0  0
   18.2546  -11.2481  -18.1353 O   0  0  0  0  0  0  0  0  0  0  0  0
   15.0541   -9.6050  -17.6553 C   0  0  0  0  0  0  0  0  0  0  0  0
   15.8170   -8.8250  -16.6512 C   0  0  2  0  0  0  0  0  0  0  0  0
   15.6636   -7.3282  -16.9194 C   0  0  0  0  0  0  0  0  0  0  0  0
   17.2744   -9.1534  -16.6751 C   0  0  2  0  0  0  0  0  0  0  0  0
   17.4209  -10.5267  -16.1543 N   0  0  0  0  0  0  0  0  0  0  0  0
   18.0873   -8.2923  -15.8128 C   0  0  0  0  0  0  0  0  0  0  0  0
   17.8168   -8.1655  -14.5663 O   0  0  0  0  0  0  0  0  0  0  0  0
   21.1805   -9.1717  -14.6432 N   0  0  0  0  0  0  0  0  0  0  0  0
   22.0091   -8.2345  -15.3040 C   0  0  0  0  0  0  0  0  0  0  0  0
   23.2186   -8.5214  -15.4715 O   0  0  0  0  0  0  0  0  0  0  0  0
   21.4518   -6.9534  -15.7801 C   0  0  0  0  0  0  0  0  0  0  0  0
   19.9953   -6.7769  -15.3515 C   0  0  2  0  0  0  0  0  0  0  0  0
   19.1900   -7.5747  -16.2920 N   0  0  0  0  0  0  0  0  0  0  0  0
   19.5885   -5.3687  -15.4913 C   0  0  0  0  0  0  0  0  0  0  0  0
   19.6603   -4.4974  -14.4042 O   0  0  0  0  0  0  0  0  0  0  0  0
   19.1632   -4.8784  -16.5652 O   0  0  0  0  0  0  0  0  0  0  0  0
  2  1  1  6
  2  3  1  0
  2  4  1  0
  4  6  1  0
  4  5  1  1
  6 12  1  0
  6  7  2  0
  9  8  1  6
  9 11  1  0
 10  9  1  0
 11 13  1  0
 11 12  1  1
 13 14  2  0
 15 16  1  0
 16 17  2  0
 18 16  1  0
 19 18  1  6
 19 21  1  0
 20 13  1  0
 20 19  1  0
 21 22  1  0
 23 21  2  0
M  END
$$$$
