VVN.pdb
     RDKit          3D

 23 22  0  0  1  0  0  0  0  0999 V2000
   27.4282  -11.7916  -16.7138 C   0  0  0  0  0  0  0  0  0  0  0  0
   26.7241  -12.5478  -15.6394 C   0  0  2  0  0  0  0  0  0  0  0  0
   27.6609  -13.5945  -15.0743 C   0  0  0  0  0  0  0  0  0  0  0  0
   25.4182  -13.1497  -16.0542 C   0  0  2  0  0  0  0  0  0  0  0  0
   25.7049  -14.2370  -16.9673 N   0  0  0  0  0  0  0  0  0  0  0  0
   24.4763  -12.2311  -16.6672 C   0  0  0  0  0  0  0  0  0  0  0  0
   24.4765  -11.8808  -17.8757 O   0  0  0  0  0  0  0  0  0  0  0  0
   20.9662  -12.5040  -17.2906 C   0  0  0  0  0  0  0  0  0  0  0  0
   21.1215  -11.3908  -16.3236 C   0  0  2  0  0  0  0  0  0  0  0  0
   20.0467  -10.3310  -16.5633 C   0  0  0  0  0  0  0  0  0  0  0  0
   22.4571  -10.7308  -16.4377 C   0  0  2  0  0  0  0  0  0  0  0  0
   23.4525  -11.6583  -15.8652 N   0  0  0  0  0  0  0  0  0  0  0  0
   22.5654   -9.4830  -15.6779 C   0  0  0  0  0  0  0  0  0  0  0  0
   22.5553   -9.4901  -14.3961 O   0  0  0  0  0  0  0  0  0  0  0  0
   23.2121   -4.5503  -14.3013 N   0  0  0  0  0  0  0  0  0  0  0  0
   23.3530   -4.6078  -15.7079 C   0  0  0  0  0  0  0  0  0  0  0  0
   23.5987   -3.5448  -16.3268 O   0  0  0  0  0  0  0  0  0  0  0  0
   23.2119   -5.8937  -16.4184 C   0  0  0  0  0  0  0  0  0  0  0  0
   22.8303   -7.0265  -15.4659 C   0  0  2  0  0  0  0  0  0  0  0  0
   22.6888   -8.2338  -16.2979 N   0  0  0  0  0  0  0  0  0  0  0  0
   21.5246   -6.7525  -14.8429 C   0  0  0  0  0  0  0  0  0  0  0  0
   21.4422   -6.3788  -13.5015 O   0  0  0  0  0  0  0  0  0  0  0  0
   20.4358   -6.8364  -15.4610 O   0  0  0  0  0  0  0  0  0  0  0  0
  2  1  1  6
  2  3  1  0
  2  4  1  0
  4  6  1  0
  4  5  1  6
  6 12  1  0
  6  7  2  0
  9  8  1  6
  9 11  1  0
 10  9  1  0
 11 13  1  0
 11 12  1  1
 13 14  2  0
 15 16  1  0
 16 17  2  0
 18 16  1  0
 19 18  1  6
 19 21  1  0
 20 13  1  0
 20 19  1  0
 21 22  1  0
 23 21  2  0
M  END
$$$$
