VVN.pdb
     RDKit          3D

 23 22  0  0  1  0  0  0  0  0999 V2000
   29.3663  -19.8896  -18.0489 C   0  0  0  0  0  0  0  0  0  0  0  0
   27.9708  -20.0251  -18.5553 C   0  0  2  0  0  0  0  0  0  0  0  0
   27.7232  -18.9715  -19.6142 C   0  0  0  0  0  0  0  0  0  0  0  0
   26.9166  -19.9916  -17.4936 C   0  0  2  0  0  0  0  0  0  0  0  0
   26.6884  -18.6047  -17.1433 N   0  0  0  0  0  0  0  0  0  0  0  0
   27.2144  -20.7564  -16.2965 C   0  0  0  0  0  0  0  0  0  0  0  0
   27.3958  -22.0006  -16.2490 O   0  0  0  0  0  0  0  0  0  0  0  0
   29.1117  -21.1809  -11.9724 C   0  0  0  0  0  0  0  0  0  0  0  0
   28.8647  -20.5598  -13.2960 C   0  0  2  0  0  0  0  0  0  0  0  0
   29.0693  -19.0474  -13.2145 C   0  0  0  0  0  0  0  0  0  0  0  0
   27.4760  -20.8142  -13.7847 C   0  0  2  0  0  0  0  0  0  0  0  0
   27.3177  -20.0761  -15.0531 N   0  0  0  0  0  0  0  0  0  0  0  0
   26.4332  -20.3198  -12.8824 C   0  0  0  0  0  0  0  0  0  0  0  0
   26.2163  -19.0631  -12.7533 O   0  0  0  0  0  0  0  0  0  0  0  0
   22.2194  -19.9161   -9.9684 N   0  0  0  0  0  0  0  0  0  0  0  0
   22.1051  -20.9699  -10.9056 C   0  0  0  0  0  0  0  0  0  0  0  0
   21.0019  -21.5573  -11.0110 O   0  0  0  0  0  0  0  0  0  0  0  0
   23.2635  -21.3590  -11.7333 C   0  0  0  0  0  0  0  0  0  0  0  0
   24.5306  -20.6115  -11.3189 C   0  0  2  0  0  0  0  0  0  0  0  0
   25.6249  -21.1773  -12.1264 N   0  0  0  0  0  0  0  0  0  0  0  0
   24.8358  -20.8694   -9.9018 C   0  0  0  0  0  0  0  0  0  0  0  0
   25.5330  -22.0167   -9.5229 O   0  0  0  0  0  0  0  0  0  0  0  0
   24.4971  -20.0967   -8.9729 O   0  0  0  0  0  0  0  0  0  0  0  0
  2  1  1  1
  2  3  1  0
  2  4  1  0
  4  6  1  0
  4  5  1  1
  6 12  1  0
  6  7  2  0
  9  8  1  1
  9 11  1  0
 10  9  1  0
 11 13  1  0
 11 12  1  6
 13 14  2  0
 15 16  1  0
 16 17  2  0
 18 16  1  0
 19 18  1  6
 19 21  1  0
 20 13  1  0
 20 19  1  0
 21 22  1  0
 23 21  2  0
M  END
$$$$
