VVN.pdb
     RDKit          3D

 23 22  0  0  1  0  0  0  0  0999 V2000
   16.9030  -14.3320  -15.8138 C   0  0  0  0  0  0  0  0  0  0  0  0
   15.9872  -13.1681  -15.6449 C   0  0  2  0  0  0  0  0  0  0  0  0
   15.4643  -12.7476  -17.0023 C   0  0  0  0  0  0  0  0  0  0  0  0
   16.5805  -12.0105  -14.9049 C   0  0  2  0  0  0  0  0  0  0  0  0
   15.4998  -11.1123  -14.5533 N   0  0  0  0  0  0  0  0  0  0  0  0
   17.6126  -11.2796  -15.6171 C   0  0  0  0  0  0  0  0  0  0  0  0
   18.6738  -11.7740  -16.0782 O   0  0  0  0  0  0  0  0  0  0  0  0
   16.5336   -7.9620  -17.6169 C   0  0  0  0  0  0  0  0  0  0  0  0
   17.8298   -8.6469  -17.8395 C   0  0  2  0  0  0  0  0  0  0  0  0
   17.6303   -9.8777  -18.7232 C   0  0  0  0  0  0  0  0  0  0  0  0
   18.4560   -9.0925  -16.5583 C   0  0  2  0  0  0  0  0  0  0  0  0
   17.4452   -9.8847  -15.8308 N   0  0  0  0  0  0  0  0  0  0  0  0
   18.8367   -7.9894  -15.6727 C   0  0  0  0  0  0  0  0  0  0  0  0
   18.0084   -7.5176  -14.8158 O   0  0  0  0  0  0  0  0  0  0  0  0
   22.3185   -5.5079  -12.1375 N   0  0  0  0  0  0  0  0  0  0  0  0
   22.3362   -5.3342  -13.5415 C   0  0  0  0  0  0  0  0  0  0  0  0
   22.7382   -4.2389  -14.0021 O   0  0  0  0  0  0  0  0  0  0  0  0
   21.8898   -6.4232  -14.4322 C   0  0  0  0  0  0  0  0  0  0  0  0
   20.4111   -6.2868  -14.7940 C   0  0  2  0  0  0  0  0  0  0  0  0
   20.1066   -7.4009  -15.7082 N   0  0  0  0  0  0  0  0  0  0  0  0
   20.1771   -5.0288  -15.5225 C   0  0  0  0  0  0  0  0  0  0  0  0
   19.7027   -3.8994  -14.8551 O   0  0  0  0  0  0  0  0  0  0  0  0
   20.3826   -4.8976  -16.7534 O   0  0  0  0  0  0  0  0  0  0  0  0
  2  1  1  6
  2  3  1  0
  2  4  1  0
  4  6  1  0
  4  5  1  6
  6 12  1  0
  6  7  2  0
  9  8  1  1
  9 11  1  0
 10  9  1  0
 11 13  1  0
 11 12  1  1
 13 14  2  0
 15 16  1  0
 16 17  2  0
 18 16  1  0
 19 18  1  6
 19 21  1  0
 20 13  1  0
 20 19  1  0
 21 22  1  0
 23 21  2  0
M  END
$$$$
