NDN.pdb
     RDKit          3D

 25 24  0  0  1  0  0  0  0  0999 V2000
   -3.3842  -24.8455   25.9095 N   0  0  0  0  0  0  0  0  0  0  0  0
   -2.4506  -25.8516   25.4883 C   0  0  0  0  0  0  0  0  0  0  0  0
   -2.5535  -27.0245   25.8719 O   0  0  0  0  0  0  0  0  0  0  0  0
   -1.3626  -25.4581   24.5816 C   0  0  0  0  0  0  0  0  0  0  0  0
   -0.1682  -24.9089   25.3552 C   0  0  2  0  0  0  0  0  0  0  0  0
    0.5076  -23.8806   24.6256 N   0  0  0  0  0  0  0  0  0  0  0  0
    0.7303  -26.0565   25.6606 C   0  0  0  0  0  0  0  0  0  0  0  0
    0.3322  -27.2442   25.5439 O   0  0  0  0  0  0  0  0  0  0  0  0
    2.0784  -25.8324   26.0994 N   0  0  0  0  0  0  0  0  0  0  0  0
    3.1660  -26.6018   25.5346 C   0  0  1  0  0  0  0  0  0  0  0  0
    3.1136  -26.6458   24.0261 C   0  0  0  0  0  0  0  0  0  0  0  0
    4.1215  -27.5104   23.4293 C   0  0  0  0  0  0  0  0  0  0  0  0
    4.6053  -28.4801   24.0571 O   0  0  0  0  0  0  0  0  0  0  0  0
    4.4875  -26.0956   26.0158 C   0  0  0  0  0  0  0  0  0  0  0  0
    5.5711  -26.5919   25.5951 O   0  0  0  0  0  0  0  0  0  0  0  0
    4.5684  -27.2779   22.1450 O   0  0  0  0  0  0  0  0  0  0  0  0
    6.0199  -22.9579   25.0773 N   0  0  0  0  0  0  0  0  0  0  0  0
    5.7793  -22.3428   26.3129 C   0  0  0  0  0  0  0  0  0  0  0  0
    5.5986  -21.0690   26.2901 O   0  0  0  0  0  0  0  0  0  0  0  0
    5.7210  -23.0470   27.5916 C   0  0  0  0  0  0  0  0  0  0  0  0
    5.8906  -24.5284   27.4503 C   0  0  2  0  0  0  0  0  0  0  0  0
    4.6006  -25.0492   26.9518 N   0  0  0  0  0  0  0  0  0  0  0  0
    6.2404  -25.2268   28.6964 C   0  0  0  0  0  0  0  0  0  0  0  0
    7.4825  -24.9186   29.2939 O   0  0  0  0  0  0  0  0  0  0  0  0
    5.5223  -26.0705   29.2675 O   0  0  0  0  0  0  0  0  0  0  0  0
  2  1  1  0
  2  3  2  0
  4  2  1  0
  5  4  1  0
  5  6  1  6
  7  5  1  0
  8  7  2  0
  9  7  1  0
 10  9  1  0
 10 11  1  6
 12 11  1  0
 12 13  2  0
 14 10  1  0
 14 22  1  0
 15 14  2  0
 16 12  1  0
 18 17  1  0
 18 19  2  0
 21 20  1  1
 20 18  1  0
 21 22  1  0
 21 23  1  0
 23 25  2  0
 23 24  1  0
M  END
$$$$
