NDN.pdb
     RDKit          3D

 25 24  0  0  1  0  0  0  0  0999 V2000
    5.7797  -18.0626   13.2456 N   0  0  0  0  0  0  0  0  0  0  0  0
    6.8154  -17.0736   13.3480 C   0  0  0  0  0  0  0  0  0  0  0  0
    7.7058  -16.9846   12.4921 O   0  0  0  0  0  0  0  0  0  0  0  0
    6.7949  -16.1583   14.4981 C   0  0  0  0  0  0  0  0  0  0  0  0
    8.0620  -16.2935   15.3363 C   0  0  2  0  0  0  0  0  0  0  0  0
    9.2162  -16.5118   14.5199 N   0  0  0  0  0  0  0  0  0  0  0  0
    7.8425  -17.4085   16.2986 C   0  0  0  0  0  0  0  0  0  0  0  0
    6.8358  -17.4290   17.0529 O   0  0  0  0  0  0  0  0  0  0  0  0
    8.7809  -18.4909   16.3893 N   0  0  0  0  0  0  0  0  0  0  0  0
    8.6125  -19.5191   17.3936 C   0  0  1  0  0  0  0  0  0  0  0  0
    9.2045  -20.8405   16.9652 C   0  0  0  0  0  0  0  0  0  0  0  0
    9.1004  -21.8844   17.9746 C   0  0  0  0  0  0  0  0  0  0  0  0
    7.9880  -22.3062   18.3661 O   0  0  0  0  0  0  0  0  0  0  0  0
    9.1670  -19.0788   18.7100 C   0  0  0  0  0  0  0  0  0  0  0  0
    8.7788  -19.6038   19.7922 O   0  0  0  0  0  0  0  0  0  0  0  0
   10.2374  -22.4381   18.5258 O   0  0  0  0  0  0  0  0  0  0  0  0
   11.0210  -16.5314   22.7506 N   0  0  0  0  0  0  0  0  0  0  0  0
    9.7242  -16.7466   22.2655 C   0  0  0  0  0  0  0  0  0  0  0  0
    8.7597  -16.3909   23.0394 O   0  0  0  0  0  0  0  0  0  0  0  0
    9.4131  -17.3339   20.9646 C   0  0  0  0  0  0  0  0  0  0  0  0
   10.6257  -17.5291   20.1074 C   0  0  2  0  0  0  0  0  0  0  0  0
   10.1422  -18.0685   18.8193 N   0  0  0  0  0  0  0  0  0  0  0  0
   11.6295  -18.4478   20.6656 C   0  0  0  0  0  0  0  0  0  0  0  0
   11.1930  -19.7295   21.0675 O   0  0  0  0  0  0  0  0  0  0  0  0
   12.8385  -18.1817   20.8098 O   0  0  0  0  0  0  0  0  0  0  0  0
  2  1  1  0
  2  3  2  0
  4  2  1  0
  5  4  1  0
  5  6  1  6
  7  5  1  0
  8  7  2  0
  9  7  1  0
 10  9  1  0
 10 11  1  6
 12 11  1  0
 12 13  2  0
 14 10  1  0
 14 22  1  0
 15 14  2  0
 16 12  1  0
 18 17  1  0
 18 19  2  0
 21 20  1  1
 20 18  1  0
 21 22  1  0
 21 23  1  0
 23 25  2  0
 23 24  1  0
M  END
$$$$
