NDN.pdb
     RDKit          3D

 25 24  0  0  1  0  0  0  0  0999 V2000
    7.2905  -13.1638   16.8822 N   0  0  0  0  0  0  0  0  0  0  0  0
    8.4543  -13.9737   17.1074 C   0  0  0  0  0  0  0  0  0  0  0  0
    9.3609  -14.0436   16.2668 O   0  0  0  0  0  0  0  0  0  0  0  0
    8.5501  -14.7221   18.3689 C   0  0  0  0  0  0  0  0  0  0  0  0
    9.4597  -14.0121   19.3666 C   0  0  2  0  0  0  0  0  0  0  0  0
    9.7907  -12.6897   18.9333 N   0  0  0  0  0  0  0  0  0  0  0  0
   10.6717  -14.8588   19.5449 C   0  0  0  0  0  0  0  0  0  0  0  0
   10.5800  -16.0571   19.9169 O   0  0  0  0  0  0  0  0  0  0  0  0
   11.9800  -14.3233   19.2965 N   0  0  0  0  0  0  0  0  0  0  0  0
   13.1580  -15.1049   19.6055 C   0  0  1  0  0  0  0  0  0  0  0  0
   14.3667  -14.6541   18.8205 C   0  0  0  0  0  0  0  0  0  0  0  0
   14.2438  -14.8610   17.3847 C   0  0  0  0  0  0  0  0  0  0  0  0
   13.9439  -15.9800   16.9089 O   0  0  0  0  0  0  0  0  0  0  0  0
   13.4343  -15.1005   21.0745 C   0  0  0  0  0  0  0  0  0  0  0  0
   14.2187  -14.2544   21.5904 O   0  0  0  0  0  0  0  0  0  0  0  0
   14.4561  -13.8167   16.5085 O   0  0  0  0  0  0  0  0  0  0  0  0
   10.8874  -17.7425   22.8853 N   0  0  0  0  0  0  0  0  0  0  0  0
   10.7994  -16.6918   23.8080 C   0  0  0  0  0  0  0  0  0  0  0  0
    9.6675  -16.5488   24.4029 O   0  0  0  0  0  0  0  0  0  0  0  0
   11.8914  -15.7750   24.1263 C   0  0  0  0  0  0  0  0  0  0  0  0
   13.1591  -16.1024   23.3989 C   0  0  2  0  0  0  0  0  0  0  0  0
   12.8434  -16.0253   21.9573 N   0  0  0  0  0  0  0  0  0  0  0  0
   13.7116  -17.4322   23.6984 C   0  0  0  0  0  0  0  0  0  0  0  0
   13.8283  -18.3490   22.6304 O   0  0  0  0  0  0  0  0  0  0  0  0
   14.0871  -17.8119   24.8246 O   0  0  0  0  0  0  0  0  0  0  0  0
  2  1  1  0
  2  3  2  0
  4  2  1  0
  5  4  1  0
  5  6  1  6
  7  5  1  0
  8  7  2  0
  9  7  1  0
 10  9  1  0
 10 11  1  6
 12 11  1  0
 12 13  2  0
 14 10  1  0
 14 22  1  0
 15 14  2  0
 16 12  1  0
 18 17  1  0
 18 19  2  0
 21 20  1  1
 20 18  1  0
 21 22  1  0
 21 23  1  0
 23 25  2  0
 23 24  1  0
M  END
$$$$
