NDN.pdb
     RDKit          3D

 25 24  0  0  1  0  0  0  0  0999 V2000
    7.8333  -12.3246   17.3998 N   0  0  0  0  0  0  0  0  0  0  0  0
    8.1863  -13.7009   17.1939 C   0  0  0  0  0  0  0  0  0  0  0  0
    8.2039  -14.1969   16.0595 O   0  0  0  0  0  0  0  0  0  0  0  0
    8.5329  -14.5153   18.3675 C   0  0  0  0  0  0  0  0  0  0  0  0
    8.9518  -15.9243   17.9600 C   0  0  2  0  0  0  0  0  0  0  0  0
    7.8825  -16.6319   17.3259 N   0  0  0  0  0  0  0  0  0  0  0  0
    9.4281  -16.6198   19.1876 C   0  0  0  0  0  0  0  0  0  0  0  0
    8.6171  -17.1221   20.0077 O   0  0  0  0  0  0  0  0  0  0  0  0
   10.8318  -16.7320   19.4657 N   0  0  0  0  0  0  0  0  0  0  0  0
   11.2871  -17.4397   20.6428 C   0  0  1  0  0  0  0  0  0  0  0  0
   12.7235  -17.8894   20.5210 C   0  0  0  0  0  0  0  0  0  0  0  0
   12.9551  -18.8231   19.4284 C   0  0  0  0  0  0  0  0  0  0  0  0
   13.6410  -18.5039   18.4303 O   0  0  0  0  0  0  0  0  0  0  0  0
   11.0792  -16.6200   21.8753 C   0  0  0  0  0  0  0  0  0  0  0  0
   11.8951  -15.7118   22.2026 O   0  0  0  0  0  0  0  0  0  0  0  0
   12.4191  -20.0936   19.4708 O   0  0  0  0  0  0  0  0  0  0  0  0
    6.6379  -15.1424   22.1943 N   0  0  0  0  0  0  0  0  0  0  0  0
    7.8009  -14.9069   22.9395 C   0  0  0  0  0  0  0  0  0  0  0  0
    8.4776  -13.8589   22.6241 O   0  0  0  0  0  0  0  0  0  0  0  0
    8.2750  -15.7596   24.0268 C   0  0  0  0  0  0  0  0  0  0  0  0
    9.7480  -16.0231   23.9619 C   0  0  2  0  0  0  0  0  0  0  0  0
    9.9764  -16.8081   22.7309 N   0  0  0  0  0  0  0  0  0  0  0  0
   10.2891  -16.7647   25.1110 C   0  0  0  0  0  0  0  0  0  0  0  0
   10.3418  -16.0982   26.3551 O   0  0  0  0  0  0  0  0  0  0  0  0
   10.7041  -17.9393   25.0710 O   0  0  0  0  0  0  0  0  0  0  0  0
  2  1  1  0
  2  3  2  0
  4  2  1  0
  5  4  1  0
  5  6  1  1
  7  5  1  0
  8  7  2  0
  9  7  1  0
 10  9  1  0
 10 11  1  6
 12 11  1  0
 12 13  2  0
 14 10  1  0
 14 22  1  0
 15 14  2  0
 16 12  1  0
 18 17  1  0
 18 19  2  0
 21 20  1  1
 20 18  1  0
 21 22  1  0
 21 23  1  0
 23 25  2  0
 23 24  1  0
M  END
$$$$
