NDN.pdb
     RDKit          3D

 25 24  0  0  1  0  0  0  0  0999 V2000
    8.8740  -13.6600   16.8994 N   0  0  0  0  0  0  0  0  0  0  0  0
    7.6732  -13.3331   17.6152 C   0  0  0  0  0  0  0  0  0  0  0  0
    6.7173  -12.7853   17.0501 O   0  0  0  0  0  0  0  0  0  0  0  0
    7.5999  -13.6683   19.0446 C   0  0  0  0  0  0  0  0  0  0  0  0
    8.8292  -14.4517   19.4937 C   0  0  2  0  0  0  0  0  0  0  0  0
    9.4210  -15.1749   18.4107 N   0  0  0  0  0  0  0  0  0  0  0  0
    8.4026  -15.3547   20.5983 C   0  0  0  0  0  0  0  0  0  0  0  0
    7.9209  -14.8953   21.6658 O   0  0  0  0  0  0  0  0  0  0  0  0
    8.5336  -16.7784   20.4701 N   0  0  0  0  0  0  0  0  0  0  0  0
    8.3291  -17.6352   21.6181 C   0  0  1  0  0  0  0  0  0  0  0  0
    7.6775  -18.9457   21.2459 C   0  0  0  0  0  0  0  0  0  0  0  0
    6.3987  -18.7928   20.5673 C   0  0  0  0  0  0  0  0  0  0  0  0
    5.6069  -17.8693   20.8655 O   0  0  0  0  0  0  0  0  0  0  0  0
    9.6098  -17.8579   22.3560 C   0  0  0  0  0  0  0  0  0  0  0  0
    9.7127  -18.7656   23.2294 O   0  0  0  0  0  0  0  0  0  0  0  0
    6.0288  -19.6707   19.5695 O   0  0  0  0  0  0  0  0  0  0  0  0
   15.4444  -17.7358   22.1284 N   0  0  0  0  0  0  0  0  0  0  0  0
   14.4476  -16.8163   22.4807 C   0  0  0  0  0  0  0  0  0  0  0  0
   14.7583  -15.9585   23.3881 O   0  0  0  0  0  0  0  0  0  0  0  0
   13.1119  -16.7756   21.8905 C   0  0  0  0  0  0  0  0  0  0  0  0
   12.0511  -17.2962   22.8108 C   0  0  2  0  0  0  0  0  0  0  0  0
   10.7611  -17.0807   22.1229 N   0  0  0  0  0  0  0  0  0  0  0  0
   12.0075  -16.6426   24.1277 C   0  0  0  0  0  0  0  0  0  0  0  0
   12.9176  -17.0889   25.1112 O   0  0  0  0  0  0  0  0  0  0  0  0
   11.2283  -15.7220   24.4420 O   0  0  0  0  0  0  0  0  0  0  0  0
  2  1  1  0
  2  3  2  0
  4  2  1  0
  5  4  1  0
  5  6  1  6
  7  5  1  0
  8  7  2  0
  9  7  1  0
 10  9  1  0
 10 11  1  6
 12 11  1  0
 12 13  2  0
 14 10  1  0
 14 22  1  0
 15 14  2  0
 16 12  1  0
 18 17  1  0
 18 19  2  0
 21 20  1  6
 20 18  1  0
 21 22  1  0
 21 23  1  0
 23 25  2  0
 23 24  1  0
M  END
$$$$
