NDN.pdb
     RDKit          3D

 25 24  0  0  1  0  0  0  0  0999 V2000
    7.5053  -11.9905   17.3374 N   0  0  0  0  0  0  0  0  0  0  0  0
    7.3616  -13.3934   17.6065 C   0  0  0  0  0  0  0  0  0  0  0  0
    6.7801  -14.1439   16.8115 O   0  0  0  0  0  0  0  0  0  0  0  0
    7.9268  -13.9259   18.8546 C   0  0  0  0  0  0  0  0  0  0  0  0
    9.2406  -14.6578   18.5998 C   0  0  2  0  0  0  0  0  0  0  0  0
    9.1236  -15.5983   17.5284 N   0  0  0  0  0  0  0  0  0  0  0  0
    9.6389  -15.3148   19.8755 C   0  0  0  0  0  0  0  0  0  0  0  0
    9.9864  -14.6365   20.8764 O   0  0  0  0  0  0  0  0  0  0  0  0
    9.6370  -16.7454   19.9923 N   0  0  0  0  0  0  0  0  0  0  0  0
   10.2731  -17.3849   21.1239 C   0  0  1  0  0  0  0  0  0  0  0  0
    9.8028  -18.8069   21.3170 C   0  0  0  0  0  0  0  0  0  0  0  0
   10.3891  -19.4662   22.4750 C   0  0  0  0  0  0  0  0  0  0  0  0
   11.5631  -19.2257   22.8392 O   0  0  0  0  0  0  0  0  0  0  0  0
   11.7620  -17.3179   21.0106 C   0  0  0  0  0  0  0  0  0  0  0  0
   12.3591  -17.7332   19.9769 O   0  0  0  0  0  0  0  0  0  0  0  0
    9.6552  -20.3786   23.2045 O   0  0  0  0  0  0  0  0  0  0  0  0
   16.3002  -14.8221   21.1542 N   0  0  0  0  0  0  0  0  0  0  0  0
   15.0848  -14.5038   20.5341 C   0  0  0  0  0  0  0  0  0  0  0  0
   15.1175  -13.5491   19.6719 O   0  0  0  0  0  0  0  0  0  0  0  0
   13.8166  -15.1777   20.8018 C   0  0  0  0  0  0  0  0  0  0  0  0
   13.9407  -16.2741   21.8145 C   0  0  2  0  0  0  0  0  0  0  0  0
   12.5749  -16.7938   22.0345 N   0  0  0  0  0  0  0  0  0  0  0  0
   14.5080  -15.8551   23.1051 C   0  0  0  0  0  0  0  0  0  0  0  0
   13.7175  -16.0427   24.2603 O   0  0  0  0  0  0  0  0  0  0  0  0
   15.6361  -15.3474   23.2577 O   0  0  0  0  0  0  0  0  0  0  0  0
  2  1  1  0
  2  3  2  0
  4  2  1  0
  5  4  1  0
  5  6  1  6
  7  5  1  0
  8  7  2  0
  9  7  1  0
 10  9  1  0
 10 11  1  6
 12 11  1  0
 12 13  2  0
 14 10  1  0
 14 22  1  0
 15 14  2  0
 16 12  1  0
 18 17  1  0
 18 19  2  0
 21 20  1  6
 20 18  1  0
 21 22  1  0
 21 23  1  0
 23 25  2  0
 23 24  1  0
M  END
$$$$
