NDN.pdb
     RDKit          3D

 25 24  0  0  1  0  0  0  0  0999 V2000
    7.3896  -12.7846   16.2326 N   0  0  0  0  0  0  0  0  0  0  0  0
    7.9212  -14.0299   15.7553 C   0  0  0  0  0  0  0  0  0  0  0  0
    8.3259  -14.1518   14.5914 O   0  0  0  0  0  0  0  0  0  0  0  0
    7.9790  -15.1663   16.6860 C   0  0  0  0  0  0  0  0  0  0  0  0
    9.2597  -15.1397   17.5140 C   0  0  2  0  0  0  0  0  0  0  0  0
   10.4173  -14.9603   16.6931 N   0  0  0  0  0  0  0  0  0  0  0  0
    9.3171  -16.4116   18.2863 C   0  0  0  0  0  0  0  0  0  0  0  0
    8.3706  -16.7603   19.0381 O   0  0  0  0  0  0  0  0  0  0  0  0
   10.4612  -17.2732   18.1913 N   0  0  0  0  0  0  0  0  0  0  0  0
   10.5740  -18.4321   19.0503 C   0  0  1  0  0  0  0  0  0  0  0  0
   11.2280  -19.6008   18.3526 C   0  0  0  0  0  0  0  0  0  0  0  0
   11.2287  -20.8268   19.1377 C   0  0  0  0  0  0  0  0  0  0  0  0
   10.1807  -21.2662   19.6643 O   0  0  0  0  0  0  0  0  0  0  0  0
   11.2867  -18.0917   20.3194 C   0  0  0  0  0  0  0  0  0  0  0  0
   12.2959  -17.3307   20.3194 O   0  0  0  0  0  0  0  0  0  0  0  0
   12.3963  -21.5390   19.3186 O   0  0  0  0  0  0  0  0  0  0  0  0
   11.3176  -15.2291   22.7415 N   0  0  0  0  0  0  0  0  0  0  0  0
   10.2589  -15.9324   23.3311 C   0  0  0  0  0  0  0  0  0  0  0  0
    9.2559  -15.2288   23.7242 O   0  0  0  0  0  0  0  0  0  0  0  0
   10.2288  -17.3810   23.5178 C   0  0  0  0  0  0  0  0  0  0  0  0
   11.3819  -18.0779   22.8636 C   0  0  2  0  0  0  0  0  0  0  0  0
   10.8796  -18.5908   21.5720 N   0  0  0  0  0  0  0  0  0  0  0  0
   11.9420  -19.1956   23.6384 C   0  0  0  0  0  0  0  0  0  0  0  0
   11.0350  -20.1042   24.2271 O   0  0  0  0  0  0  0  0  0  0  0  0
   13.1583  -19.4035   23.8140 O   0  0  0  0  0  0  0  0  0  0  0  0
  2  1  1  0
  2  3  2  0
  4  2  1  0
  5  4  1  0
  5  6  1  6
  7  5  1  0
  8  7  2  0
  9  7  1  0
 10  9  1  0
 10 11  1  6
 12 11  1  0
 12 13  2  0
 14 10  1  0
 14 22  1  0
 15 14  2  0
 16 12  1  0
 18 17  1  0
 18 19  2  0
 21 20  1  1
 20 18  1  0
 21 22  1  0
 21 23  1  0
 23 25  2  0
 23 24  1  0
M  END
$$$$
