NDN.pdb
     RDKit          3D

 25 24  0  0  1  0  0  0  0  0999 V2000
    8.6323  -14.1465   13.8535 N   0  0  0  0  0  0  0  0  0  0  0  0
    8.3170  -14.6924   15.1433 C   0  0  0  0  0  0  0  0  0  0  0  0
    7.1566  -14.6911   15.5754 O   0  0  0  0  0  0  0  0  0  0  0  0
    9.4092  -15.2610   15.9462 C   0  0  0  0  0  0  0  0  0  0  0  0
    9.4267  -14.6727   17.3534 C   0  0  2  0  0  0  0  0  0  0  0  0
    9.4779  -13.2434   17.3292 N   0  0  0  0  0  0  0  0  0  0  0  0
   10.5949  -15.2591   18.0667 C   0  0  0  0  0  0  0  0  0  0  0  0
   10.6804  -16.4981   18.2675 O   0  0  0  0  0  0  0  0  0  0  0  0
   11.6556  -14.4190   18.5457 N   0  0  0  0  0  0  0  0  0  0  0  0
   12.7380  -14.9835   19.3227 C   0  0  1  0  0  0  0  0  0  0  0  0
   14.0554  -14.2963   19.0535 C   0  0  0  0  0  0  0  0  0  0  0  0
   14.6806  -14.6970   17.8013 C   0  0  0  0  0  0  0  0  0  0  0  0
   14.8144  -15.9038   17.4944 O   0  0  0  0  0  0  0  0  0  0  0  0
   12.4117  -14.9760   20.7813 C   0  0  0  0  0  0  0  0  0  0  0  0
   11.5235  -14.2082   21.2494 O   0  0  0  0  0  0  0  0  0  0  0  0
   15.1424  -13.7450   16.9160 O   0  0  0  0  0  0  0  0  0  0  0  0
   10.0101  -15.2059   23.9366 N   0  0  0  0  0  0  0  0  0  0  0  0
    9.9692  -16.2884   23.0480 C   0  0  0  0  0  0  0  0  0  0  0  0
    8.7997  -16.6877   22.6893 O   0  0  0  0  0  0  0  0  0  0  0  0
   11.1474  -16.9701   22.5178 C   0  0  0  0  0  0  0  0  0  0  0  0
   12.4328  -16.3270   22.9392 C   0  0  2  0  0  0  0  0  0  0  0  0
   13.0650  -15.8137   21.7061 N   0  0  0  0  0  0  0  0  0  0  0  0
   13.3740  -17.2280   23.6215 C   0  0  0  0  0  0  0  0  0  0  0  0
   13.7866  -18.3892   22.9315 O   0  0  0  0  0  0  0  0  0  0  0  0
   13.8375  -17.0439   24.7637 O   0  0  0  0  0  0  0  0  0  0  0  0
  2  1  1  0
  2  3  2  0
  4  2  1  0
  5  4  1  0
  5  6  1  6
  7  5  1  0
  8  7  2  0
  9  7  1  0
 10  9  1  0
 10 11  1  1
 12 11  1  0
 12 13  2  0
 14 10  1  0
 14 22  1  0
 15 14  2  0
 16 12  1  0
 18 17  1  0
 18 19  2  0
 21 20  1  6
 20 18  1  0
 21 22  1  0
 21 23  1  0
 23 25  2  0
 23 24  1  0
M  END
$$$$
