NDN.pdb
     RDKit          3D

 25 24  0  0  1  0  0  0  0  0999 V2000
    7.0648  -12.7586   18.0094 N   0  0  0  0  0  0  0  0  0  0  0  0
    7.7103  -13.9060   17.4369 C   0  0  0  0  0  0  0  0  0  0  0  0
    7.7991  -14.0478   16.2100 O   0  0  0  0  0  0  0  0  0  0  0  0
    8.2716  -14.9164   18.3451 C   0  0  0  0  0  0  0  0  0  0  0  0
    9.7256  -14.6073   18.6870 C   0  0  2  0  0  0  0  0  0  0  0  0
   10.5457  -14.5568   17.5161 N   0  0  0  0  0  0  0  0  0  0  0  0
   10.1885  -15.6485   19.6458 C   0  0  0  0  0  0  0  0  0  0  0  0
    9.5666  -15.8703   20.7166 O   0  0  0  0  0  0  0  0  0  0  0  0
   11.3629  -16.4261   19.3692 N   0  0  0  0  0  0  0  0  0  0  0  0
   11.8445  -17.3881   20.3370 C   0  0  1  0  0  0  0  0  0  0  0  0
   13.1528  -18.0156   19.9188 C   0  0  0  0  0  0  0  0  0  0  0  0
   13.6015  -19.0809   20.8037 C   0  0  0  0  0  0  0  0  0  0  0  0
   12.8151  -19.9663   21.2117 O   0  0  0  0  0  0  0  0  0  0  0  0
   11.9483  -16.7752   21.6964 C   0  0  0  0  0  0  0  0  0  0  0  0
   12.0953  -15.5284   21.8427 O   0  0  0  0  0  0  0  0  0  0  0  0
   14.9172  -19.1392   21.2145 O   0  0  0  0  0  0  0  0  0  0  0  0
   10.3084  -14.8734   26.1097 N   0  0  0  0  0  0  0  0  0  0  0  0
    9.6593  -15.8033   25.2869 C   0  0  0  0  0  0  0  0  0  0  0  0
    8.5075  -16.2133   25.6882 O   0  0  0  0  0  0  0  0  0  0  0  0
   10.2002  -16.3184   24.0314 C   0  0  0  0  0  0  0  0  0  0  0  0
   11.5309  -16.9851   24.1992 C   0  0  2  0  0  0  0  0  0  0  0  0
   11.8875  -17.5407   22.8771 N   0  0  0  0  0  0  0  0  0  0  0  0
   11.5532  -18.0665   25.1958 C   0  0  0  0  0  0  0  0  0  0  0  0
   11.5685  -19.3962   24.7197 O   0  0  0  0  0  0  0  0  0  0  0  0
   11.5614  -17.8989   26.4308 O   0  0  0  0  0  0  0  0  0  0  0  0
  2  1  1  0
  2  3  2  0
  4  2  1  0
  5  4  1  0
  5  6  1  6
  7  5  1  0
  8  7  2  0
  9  7  1  0
 10  9  1  0
 10 11  1  6
 12 11  1  0
 12 13  2  0
 14 10  1  0
 14 22  1  0
 15 14  2  0
 16 12  1  0
 18 17  1  0
 18 19  2  0
 21 20  1  6
 20 18  1  0
 21 22  1  0
 21 23  1  0
 23 25  2  0
 23 24  1  0
M  END
$$$$
