NDN.pdb
     RDKit          3D

 25 24  0  0  1  0  0  0  0  0999 V2000
    7.3991  -11.8906   20.0356 N   0  0  0  0  0  0  0  0  0  0  0  0
    8.0691  -13.1514   19.8858 C   0  0  0  0  0  0  0  0  0  0  0  0
    8.5782  -13.4843   18.8072 O   0  0  0  0  0  0  0  0  0  0  0  0
    8.1421  -14.0455   21.0503 C   0  0  0  0  0  0  0  0  0  0  0  0
    8.7792  -15.3820   20.6837 C   0  0  2  0  0  0  0  0  0  0  0  0
    7.9602  -16.1285   19.7792 N   0  0  0  0  0  0  0  0  0  0  0  0
    9.0235  -16.1218   21.9528 C   0  0  0  0  0  0  0  0  0  0  0  0
    8.0686  -16.5192   22.6690 O   0  0  0  0  0  0  0  0  0  0  0  0
   10.3620  -16.3984   22.3912 N   0  0  0  0  0  0  0  0  0  0  0  0
   10.5904  -17.2098   23.5674 C   0  0  1  0  0  0  0  0  0  0  0  0
   11.5713  -18.3286   23.3098 C   0  0  0  0  0  0  0  0  0  0  0  0
   12.9104  -17.8681   22.9717 C   0  0  0  0  0  0  0  0  0  0  0  0
   13.0930  -16.8332   22.2904 O   0  0  0  0  0  0  0  0  0  0  0  0
   11.0217  -16.3675   24.7244 C   0  0  0  0  0  0  0  0  0  0  0  0
   11.2536  -15.1330   24.5848 O   0  0  0  0  0  0  0  0  0  0  0  0
   14.0185  -18.5689   23.4009 O   0  0  0  0  0  0  0  0  0  0  0  0
   10.4582  -12.9883   28.4834 N   0  0  0  0  0  0  0  0  0  0  0  0
   10.0310  -14.3219   28.4370 C   0  0  0  0  0  0  0  0  0  0  0  0
    9.5496  -14.8046   29.5284 O   0  0  0  0  0  0  0  0  0  0  0  0
   10.0969  -15.1722   27.2509 C   0  0  0  0  0  0  0  0  0  0  0  0
   11.3022  -16.0611   27.2364 C   0  0  2  0  0  0  0  0  0  0  0  0
   11.1909  -16.8931   26.0202 N   0  0  0  0  0  0  0  0  0  0  0  0
   11.4297  -16.9400   28.4087 C   0  0  0  0  0  0  0  0  0  0  0  0
   12.0030  -16.3936   29.5782 O   0  0  0  0  0  0  0  0  0  0  0  0
   11.0683  -18.1321   28.4496 O   0  0  0  0  0  0  0  0  0  0  0  0
  2  1  1  0
  2  3  2  0
  4  2  1  0
  5  4  1  0
  5  6  1  6
  7  5  1  0
  8  7  2  0
  9  7  1  0
 10  9  1  0
 10 11  1  6
 12 11  1  0
 12 13  2  0
 14 10  1  0
 14 22  1  0
 15 14  2  0
 16 12  1  0
 18 17  1  0
 18 19  2  0
 21 20  1  1
 20 18  1  0
 21 22  1  0
 21 23  1  0
 23 25  2  0
 23 24  1  0
M  END
$$$$
