NDN.pdb
     RDKit          3D

 25 24  0  0  1  0  0  0  0  0999 V2000
    7.0796  -13.2431   15.7428 N   0  0  0  0  0  0  0  0  0  0  0  0
    7.4746  -13.7426   17.0295 C   0  0  0  0  0  0  0  0  0  0  0  0
    7.9917  -14.8609   17.1534 O   0  0  0  0  0  0  0  0  0  0  0  0
    7.2537  -12.8904   18.2067 C   0  0  0  0  0  0  0  0  0  0  0  0
    8.4287  -12.9694   19.1761 C   0  0  2  0  0  0  0  0  0  0  0  0
    9.6664  -13.1835   18.4916 N   0  0  0  0  0  0  0  0  0  0  0  0
    8.1334  -14.0602   20.1458 C   0  0  0  0  0  0  0  0  0  0  0  0
    7.1168  -14.0163   20.8856 O   0  0  0  0  0  0  0  0  0  0  0  0
    9.0080  -15.1925   20.2605 N   0  0  0  0  0  0  0  0  0  0  0  0
    8.7661  -16.2009   21.2698 C   0  0  1  0  0  0  0  0  0  0  0  0
    8.8562  -17.6017   20.7131 C   0  0  0  0  0  0  0  0  0  0  0  0
    7.6149  -18.0779   20.1199 C   0  0  0  0  0  0  0  0  0  0  0  0
    7.5346  -18.3453   18.8990 O   0  0  0  0  0  0  0  0  0  0  0  0
    9.6828  -16.0222   22.4368 C   0  0  0  0  0  0  0  0  0  0  0  0
    9.2656  -15.5436   23.5296 O   0  0  0  0  0  0  0  0  0  0  0  0
    6.4893  -18.2480   20.8991 O   0  0  0  0  0  0  0  0  0  0  0  0
   13.3863  -17.1058   25.9248 N   0  0  0  0  0  0  0  0  0  0  0  0
   12.1795  -17.7581   25.6403 C   0  0  0  0  0  0  0  0  0  0  0  0
   11.8052  -18.6570   26.4816 O   0  0  0  0  0  0  0  0  0  0  0  0
   11.3428  -17.4816   24.4751 C   0  0  0  0  0  0  0  0  0  0  0  0
   11.9224  -16.4333   23.5759 C   0  0  2  0  0  0  0  0  0  0  0  0
   11.0459  -16.3735   22.3877 N   0  0  0  0  0  0  0  0  0  0  0  0
   13.3030  -16.6942   23.1409 C   0  0  0  0  0  0  0  0  0  0  0  0
   13.5308  -17.8255   22.3267 O   0  0  0  0  0  0  0  0  0  0  0  0
   14.2889  -15.9908   23.4352 O   0  0  0  0  0  0  0  0  0  0  0  0
  2  1  1  0
  2  3  2  0
  4  2  1  0
  5  4  1  0
  5  6  1  6
  7  5  1  0
  8  7  2  0
  9  7  1  0
 10  9  1  0
 10 11  1  6
 12 11  1  0
 12 13  2  0
 14 10  1  0
 14 22  1  0
 15 14  2  0
 16 12  1  0
 18 17  1  0
 18 19  2  0
 21 20  1  1
 20 18  1  0
 21 22  1  0
 21 23  1  0
 23 25  2  0
 23 24  1  0
M  END
$$$$
