NDN.pdb
     RDKit          3D

 25 24  0  0  1  0  0  0  0  0999 V2000
    6.6363  -12.3293   16.9890 N   0  0  0  0  0  0  0  0  0  0  0  0
    7.4066  -13.5395   17.0442 C   0  0  0  0  0  0  0  0  0  0  0  0
    7.6872  -14.1701   16.0161 O   0  0  0  0  0  0  0  0  0  0  0  0
    7.8624  -14.0171   18.3576 C   0  0  0  0  0  0  0  0  0  0  0  0
    9.0116  -15.0103   18.2177 C   0  0  2  0  0  0  0  0  0  0  0  0
    8.7387  -15.9988   17.2204 N   0  0  0  0  0  0  0  0  0  0  0  0
    9.2390  -15.6197   19.5573 C   0  0  0  0  0  0  0  0  0  0  0  0
    9.3546  -14.9055   20.5865 O   0  0  0  0  0  0  0  0  0  0  0  0
    9.3337  -17.0443   19.7054 N   0  0  0  0  0  0  0  0  0  0  0  0
    9.7395  -17.6200   20.9694 C   0  0  1  0  0  0  0  0  0  0  0  0
    9.2888  -19.0537   21.1168 C   0  0  0  0  0  0  0  0  0  0  0  0
    9.5157  -19.6062   22.4445 C   0  0  0  0  0  0  0  0  0  0  0  0
    9.9916  -18.9091   23.3698 O   0  0  0  0  0  0  0  0  0  0  0  0
   11.2158  -17.4938   21.1669 C   0  0  0  0  0  0  0  0  0  0  0  0
   12.0219  -18.2855   20.6004 O   0  0  0  0  0  0  0  0  0  0  0  0
    9.2064  -20.9233   22.7145 O   0  0  0  0  0  0  0  0  0  0  0  0
   13.0356  -14.1794   19.5362 N   0  0  0  0  0  0  0  0  0  0  0  0
   13.8190  -14.9941   20.3642 C   0  0  0  0  0  0  0  0  0  0  0  0
   14.7110  -15.7127   19.7780 O   0  0  0  0  0  0  0  0  0  0  0  0
   13.6859  -15.0703   21.8171 C   0  0  0  0  0  0  0  0  0  0  0  0
   13.2295  -16.4156   22.2915 C   0  0  2  0  0  0  0  0  0  0  0  0
   11.7866  -16.4980   21.9831 N   0  0  0  0  0  0  0  0  0  0  0  0
   13.4274  -16.6582   23.7286 C   0  0  0  0  0  0  0  0  0  0  0  0
   14.3671  -17.6436   24.1035 O   0  0  0  0  0  0  0  0  0  0  0  0
   12.8291  -16.0582   24.6427 O   0  0  0  0  0  0  0  0  0  0  0  0
  2  1  1  0
  2  3  2  0
  4  2  1  0
  5  4  1  0
  5  6  1  6
  7  5  1  0
  8  7  2  0
  9  7  1  0
 10  9  1  0
 10 11  1  6
 12 11  1  0
 12 13  2  0
 14 10  1  0
 14 22  1  0
 15 14  2  0
 16 12  1  0
 18 17  1  0
 18 19  2  0
 21 20  1  1
 20 18  1  0
 21 22  1  0
 21 23  1  0
 23 25  2  0
 23 24  1  0
M  END
$$$$
