NDN.pdb
     RDKit          3D

 25 24  0  0  1  0  0  0  0  0999 V2000
    7.0633  -11.8889   17.9662 N   0  0  0  0  0  0  0  0  0  0  0  0
    7.4657  -13.2300   17.6492 C   0  0  0  0  0  0  0  0  0  0  0  0
    7.4220  -13.6563   16.4874 O   0  0  0  0  0  0  0  0  0  0  0  0
    7.9381  -14.0933   18.7412 C   0  0  0  0  0  0  0  0  0  0  0  0
    9.4445  -14.3178   18.6577 C   0  0  2  0  0  0  0  0  0  0  0  0
    9.8656  -14.5923   17.3185 N   0  0  0  0  0  0  0  0  0  0  0  0
    9.7806  -15.4327   19.5860 C   0  0  0  0  0  0  0  0  0  0  0  0
    9.5473  -15.3460   20.8192 O   0  0  0  0  0  0  0  0  0  0  0  0
   10.3835  -16.6381   19.0922 N   0  0  0  0  0  0  0  0  0  0  0  0
   10.9707  -17.5887   20.0117 C   0  0  1  0  0  0  0  0  0  0  0  0
   10.8369  -19.0125   19.5266 C   0  0  0  0  0  0  0  0  0  0  0  0
    9.5228  -19.3261   18.9842 C   0  0  0  0  0  0  0  0  0  0  0  0
    8.5024  -19.3395   19.7102 O   0  0  0  0  0  0  0  0  0  0  0  0
   12.3971  -17.2464   20.2986 C   0  0  0  0  0  0  0  0  0  0  0  0
   13.2608  -17.2144   19.3763 O   0  0  0  0  0  0  0  0  0  0  0  0
    9.3723  -19.6168   17.6440 O   0  0  0  0  0  0  0  0  0  0  0  0
   16.0213  -15.3542   19.9551 N   0  0  0  0  0  0  0  0  0  0  0  0
   14.9177  -14.5308   20.2141 C   0  0  0  0  0  0  0  0  0  0  0  0
   14.8422  -13.4456   19.5267 O   0  0  0  0  0  0  0  0  0  0  0  0
   13.8742  -14.8274   21.1924 C   0  0  0  0  0  0  0  0  0  0  0  0
   14.0698  -16.1474   21.8724 C   0  0  2  0  0  0  0  0  0  0  0  0
   12.8552  -16.9422   21.5953 N   0  0  0  0  0  0  0  0  0  0  0  0
   14.2669  -16.0641   23.3275 C   0  0  0  0  0  0  0  0  0  0  0  0
   13.1218  -15.8848   24.1346 O   0  0  0  0  0  0  0  0  0  0  0  0
   15.3692  -16.1414   23.9040 O   0  0  0  0  0  0  0  0  0  0  0  0
  2  1  1  0
  2  3  2  0
  4  2  1  0
  5  4  1  0
  5  6  1  6
  7  5  1  0
  8  7  2  0
  9  7  1  0
 10  9  1  0
 10 11  1  6
 12 11  1  0
 12 13  2  0
 14 10  1  0
 14 22  1  0
 15 14  2  0
 16 12  1  0
 18 17  1  0
 18 19  2  0
 21 20  1  1
 20 18  1  0
 21 22  1  0
 21 23  1  0
 23 25  2  0
 23 24  1  0
M  END
$$$$
