NDN.pdb
     RDKit          3D

 25 24  0  0  1  0  0  0  0  0999 V2000
   12.1242  -17.6500   14.7201 N   0  0  0  0  0  0  0  0  0  0  0  0
   12.6018  -18.0021   16.0274 C   0  0  0  0  0  0  0  0  0  0  0  0
   13.6205  -18.6903   16.1754 O   0  0  0  0  0  0  0  0  0  0  0  0
   11.8521  -17.5217   17.1969 C   0  0  0  0  0  0  0  0  0  0  0  0
   11.8029  -18.5785   18.2958 C   0  0  2  0  0  0  0  0  0  0  0  0
   11.4496  -19.8644   17.7782 N   0  0  0  0  0  0  0  0  0  0  0  0
   10.8339  -18.1073   19.3236 C   0  0  0  0  0  0  0  0  0  0  0  0
   11.0574  -17.0725   20.0033 O   0  0  0  0  0  0  0  0  0  0  0  0
    9.6164  -18.8282   19.5650 N   0  0  0  0  0  0  0  0  0  0  0  0
    8.6868  -18.3708   20.5753 C   0  0  1  0  0  0  0  0  0  0  0  0
    7.2766  -18.8418   20.3113 C   0  0  0  0  0  0  0  0  0  0  0  0
    6.8748  -18.7370   18.9160 C   0  0  0  0  0  0  0  0  0  0  0  0
    7.2562  -17.7860   18.1958 O   0  0  0  0  0  0  0  0  0  0  0  0
    9.1429  -18.7671   21.9424 C   0  0  0  0  0  0  0  0  0  0  0  0
    8.3728  -18.6780   22.9407 O   0  0  0  0  0  0  0  0  0  0  0  0
    6.0579  -19.6946   18.3512 O   0  0  0  0  0  0  0  0  0  0  0  0
   11.4788  -20.7872   26.0881 N   0  0  0  0  0  0  0  0  0  0  0  0
   10.4889  -21.3430   25.2671 C   0  0  0  0  0  0  0  0  0  0  0  0
    9.9219  -22.4131   25.7023 O   0  0  0  0  0  0  0  0  0  0  0  0
   10.0730  -20.7904   23.9803 C   0  0  0  0  0  0  0  0  0  0  0  0
   10.9259  -19.6425   23.5352 C   0  0  2  0  0  0  0  0  0  0  0  0
   10.4389  -19.2578   22.1940 N   0  0  0  0  0  0  0  0  0  0  0  0
   12.3637  -19.9420   23.4556 C   0  0  0  0  0  0  0  0  0  0  0  0
   13.2600  -19.0067   24.0183 O   0  0  0  0  0  0  0  0  0  0  0  0
   12.8524  -20.9610   22.9299 O   0  0  0  0  0  0  0  0  0  0  0  0
  2  1  1  0
  2  3  2  0
  4  2  1  0
  5  4  1  0
  5  6  1  6
  7  5  1  0
  8  7  2  0
  9  7  1  0
 10  9  1  0
 10 11  1  6
 12 11  1  0
 12 13  2  0
 14 10  1  0
 14 22  1  0
 15 14  2  0
 16 12  1  0
 18 17  1  0
 18 19  2  0
 21 20  1  6
 20 18  1  0
 21 22  1  0
 21 23  1  0
 23 25  2  0
 23 24  1  0
M  END
$$$$
