NDN.pdb
     RDKit          3D

 25 24  0  0  1  0  0  0  0  0999 V2000
    7.7237  -12.2879   18.4800 N   0  0  0  0  0  0  0  0  0  0  0  0
    7.4346  -13.2104   17.4187 C   0  0  0  0  0  0  0  0  0  0  0  0
    7.0282  -12.8160   16.3175 O   0  0  0  0  0  0  0  0  0  0  0  0
    7.6360  -14.6451   17.6671 C   0  0  0  0  0  0  0  0  0  0  0  0
    7.8795  -14.9223   19.1471 C   0  0  2  0  0  0  0  0  0  0  0  0
    8.8356  -14.0165   19.7051 N   0  0  0  0  0  0  0  0  0  0  0  0
    8.3196  -16.3398   19.2681 C   0  0  0  0  0  0  0  0  0  0  0  0
    7.5020  -17.2882   19.1465 O   0  0  0  0  0  0  0  0  0  0  0  0
    9.6946  -16.6581   19.5294 N   0  0  0  0  0  0  0  0  0  0  0  0
   10.1144  -18.0384   19.6417 C   0  0  1  0  0  0  0  0  0  0  0  0
    9.7483  -18.8495   18.4216 C   0  0  0  0  0  0  0  0  0  0  0  0
   10.1313  -20.2510   18.5126 C   0  0  0  0  0  0  0  0  0  0  0  0
   10.0065  -20.8947   19.5796 O   0  0  0  0  0  0  0  0  0  0  0  0
   11.5771  -18.1320   19.9348 C   0  0  0  0  0  0  0  0  0  0  0  0
   12.3865  -18.5993   19.0840 O   0  0  0  0  0  0  0  0  0  0  0  0
   10.6441  -20.9071   17.4126 O   0  0  0  0  0  0  0  0  0  0  0  0
   12.2642  -13.2445   19.5066 N   0  0  0  0  0  0  0  0  0  0  0  0
   12.4350  -14.6197   19.7134 C   0  0  0  0  0  0  0  0  0  0  0  0
   13.0997  -15.2535   18.8121 O   0  0  0  0  0  0  0  0  0  0  0  0
   11.9172  -15.3551   20.8646 C   0  0  0  0  0  0  0  0  0  0  0  0
   12.8477  -16.4291   21.3377 C   0  0  2  0  0  0  0  0  0  0  0  0
   12.1311  -17.7090   21.1587 N   0  0  0  0  0  0  0  0  0  0  0  0
   13.2633  -16.3046   22.7430 C   0  0  0  0  0  0  0  0  0  0  0  0
   12.6392  -17.1483   23.6882 O   0  0  0  0  0  0  0  0  0  0  0  0
   14.1272  -15.5109   23.1641 O   0  0  0  0  0  0  0  0  0  0  0  0
  2  1  1  0
  2  3  2  0
  4  2  1  0
  5  4  1  0
  5  6  1  6
  7  5  1  0
  8  7  2  0
  9  7  1  0
 10  9  1  0
 10 11  1  6
 12 11  1  0
 12 13  2  0
 14 10  1  0
 14 22  1  0
 15 14  2  0
 16 12  1  0
 18 17  1  0
 18 19  2  0
 21 20  1  1
 20 18  1  0
 21 22  1  0
 21 23  1  0
 23 25  2  0
 23 24  1  0
M  END
$$$$
