PVE.pdb
     RDKit          3D

 24 24  0  0  1  0  0  0  0  0999 V2000
    6.6333  -14.6123   20.8002 N   0  0  0  0  0  0  0  0  0  0  0  0
    5.9901  -13.3950   20.3966 C   0  0  0  0  0  0  0  0  0  0  0  0
    7.0728  -12.3575   20.1811 C   0  0  0  0  0  0  0  0  0  0  0  0
    8.2349  -13.2548   19.7688 C   0  0  0  0  0  0  0  0  0  0  0  0
    8.0474  -14.4251   20.6968 C   0  0  1  0  0  0  0  0  0  0  0  0
    8.6215  -14.2157   22.0258 C   0  0  0  0  0  0  0  0  0  0  0  0
    9.8415  -14.0151   22.1573 O   0  0  0  0  0  0  0  0  0  0  0  0
    6.2106  -14.6721   25.3253 C   0  0  0  0  0  0  0  0  0  0  0  0
    7.3237  -13.6851   25.4885 C   0  0  2  0  0  0  0  0  0  0  0  0
    6.9023  -12.2637   25.1868 C   0  0  0  0  0  0  0  0  0  0  0  0
    8.4480  -14.0919   24.5370 C   0  0  2  0  0  0  0  0  0  0  0  0
    7.8410  -14.2271   23.2294 N   0  0  0  0  0  0  0  0  0  0  0  0
    8.9918  -15.3874   25.0232 C   0  0  0  0  0  0  0  0  0  0  0  0
    8.3095  -16.4138   24.8552 O   0  0  0  0  0  0  0  0  0  0  0  0
   10.2556  -15.4887   25.6681 N   0  0  0  0  0  0  0  0  0  0  0  0
   10.8975  -16.7786   25.9271 C   0  0  1  0  0  0  0  0  0  0  0  0
   12.3127  -16.6841   25.4694 C   0  0  0  0  0  0  0  0  0  0  0  0
   13.1490  -17.8991   25.6803 C   0  0  0  0  0  0  0  0  0  0  0  0
   14.5307  -17.7422   25.1808 C   0  0  0  0  0  0  0  0  0  0  0  0
   15.1499  -18.5784   24.4861 O   0  0  0  0  0  0  0  0  0  0  0  0
   10.7687  -17.1290   27.3624 C   0  0  0  0  0  0  0  0  0  0  0  0
   11.0726  -18.3944   27.7948 O   0  0  0  0  0  0  0  0  0  0  0  0
   15.2223  -16.5688   25.4992 O   0  0  0  0  0  0  0  0  0  0  0  0
   10.3841  -16.2704   28.1709 O   0  0  0  0  0  0  0  0  0  0  0  0
  2  1  1  0
  3  4  1  0
  3  2  1  0
  4  5  1  0
  5  1  1  0
  5  6  1  1
  7  6  2  0
  9  8  1  6
  9 10  1  0
  9 11  1  0
 11 12  1  6
 11 13  1  0
 12  6  1  0
 13 15  1  0
 14 13  2  0
 15 16  1  0
 16 17  1  1
 16 21  1  0
 17 18  1  0
 18 19  1  0
 19 23  1  0
 20 19  2  0
 21 22  1  0
 24 21  2  0
M  END
$$$$
