PVE.pdb
     RDKit          3D

 24 24  0  0  1  0  0  0  0  0999 V2000
    7.7107  -14.4972   20.2432 N   0  0  0  0  0  0  0  0  0  0  0  0
    8.0466  -15.8078   19.7659 C   0  0  0  0  0  0  0  0  0  0  0  0
    7.4638  -16.8106   20.7405 C   0  0  0  0  0  0  0  0  0  0  0  0
    6.2580  -16.0289   21.2509 C   0  0  0  0  0  0  0  0  0  0  0  0
    6.8317  -14.6417   21.3621 C   0  0  1  0  0  0  0  0  0  0  0  0
    7.5653  -14.4101   22.6062 C   0  0  0  0  0  0  0  0  0  0  0  0
    8.8033  -14.5212   22.6341 O   0  0  0  0  0  0  0  0  0  0  0  0
    6.2797  -11.8460   25.4117 C   0  0  0  0  0  0  0  0  0  0  0  0
    6.7192  -13.1372   26.0275 C   0  0  2  0  0  0  0  0  0  0  0  0
    7.4075  -12.9515   27.3620 C   0  0  0  0  0  0  0  0  0  0  0  0
    7.6816  -13.8129   25.0519 C   0  0  2  0  0  0  0  0  0  0  0  0
    6.9267  -14.0506   23.8394 N   0  0  0  0  0  0  0  0  0  0  0  0
    8.1242  -15.0868   25.6782 C   0  0  0  0  0  0  0  0  0  0  0  0
    7.2652  -15.9512   25.9273 O   0  0  0  0  0  0  0  0  0  0  0  0
    9.4859  -15.3451   25.9981 N   0  0  0  0  0  0  0  0  0  0  0  0
    9.9332  -16.6398   26.5148 C   0  0  1  0  0  0  0  0  0  0  0  0
   11.2968  -16.9009   25.9728 C   0  0  0  0  0  0  0  0  0  0  0  0
   11.4020  -16.9956   24.4896 C   0  0  0  0  0  0  0  0  0  0  0  0
   12.7751  -17.2834   24.0260 C   0  0  0  0  0  0  0  0  0  0  0  0
   13.7748  -17.4261   24.7646 O   0  0  0  0  0  0  0  0  0  0  0  0
    9.8829  -16.6379   27.9970 C   0  0  0  0  0  0  0  0  0  0  0  0
    9.8853  -17.8214   28.6900 O   0  0  0  0  0  0  0  0  0  0  0  0
   12.9984  -17.4111   22.6511 O   0  0  0  0  0  0  0  0  0  0  0  0
    9.8385  -15.5591   28.6076 O   0  0  0  0  0  0  0  0  0  0  0  0
  2  1  1  0
  3  4  1  0
  3  2  1  0
  4  5  1  0
  5  1  1  0
  5  6  1  1
  7  6  2  0
  9  8  1  6
  9 10  1  0
  9 11  1  0
 11 12  1  6
 11 13  1  0
 12  6  1  0
 13 15  1  0
 14 13  2  0
 15 16  1  0
 16 17  1  1
 16 21  1  0
 17 18  1  0
 18 19  1  0
 19 23  1  0
 20 19  2  0
 21 22  1  0
 24 21  2  0
M  END
$$$$
