PVE.pdb
     RDKit          3D

 24 24  0  0  1  0  0  0  0  0999 V2000
    8.8211  -17.3085   16.2505 N   0  0  0  0  0  0  0  0  0  0  0  0
    9.2774  -18.6684   16.2734 C   0  0  0  0  0  0  0  0  0  0  0  0
    8.6948  -19.3236   17.5089 C   0  0  0  0  0  0  0  0  0  0  0  0
    7.4059  -18.5231   17.6624 C   0  0  0  0  0  0  0  0  0  0  0  0
    7.8760  -17.1372   17.3101 C   0  0  1  0  0  0  0  0  0  0  0  0
    8.5015  -16.4300   18.4273 C   0  0  0  0  0  0  0  0  0  0  0  0
    9.7360  -16.4548   18.5729 O   0  0  0  0  0  0  0  0  0  0  0  0
    7.0571  -12.9064   19.9648 C   0  0  0  0  0  0  0  0  0  0  0  0
    7.3367  -13.9615   20.9886 C   0  0  2  0  0  0  0  0  0  0  0  0
    7.8143  -13.3939   22.3072 C   0  0  0  0  0  0  0  0  0  0  0  0
    8.4097  -14.8883   20.4189 C   0  0  2  0  0  0  0  0  0  0  0  0
    7.7569  -15.6834   19.4000 N   0  0  0  0  0  0  0  0  0  0  0  0
    8.9037  -15.7334   21.5380 C   0  0  0  0  0  0  0  0  0  0  0  0
    8.1713  -16.6489   21.9537 O   0  0  0  0  0  0  0  0  0  0  0  0
   10.1752  -15.5296   22.1422 N   0  0  0  0  0  0  0  0  0  0  0  0
   10.7782  -16.5155   23.0409 C   0  0  1  0  0  0  0  0  0  0  0  0
   12.2550  -16.3170   23.0110 C   0  0  0  0  0  0  0  0  0  0  0  0
   13.0500  -17.1993   23.9108 C   0  0  0  0  0  0  0  0  0  0  0  0
   14.4963  -16.8981   23.8834 C   0  0  0  0  0  0  0  0  0  0  0  0
   15.0385  -16.0073   23.1921 O   0  0  0  0  0  0  0  0  0  0  0  0
   10.1973  -16.3841   24.3992 C   0  0  0  0  0  0  0  0  0  0  0  0
   10.1165  -17.4762   25.2248 O   0  0  0  0  0  0  0  0  0  0  0  0
   15.3484  -17.6600   24.6896 O   0  0  0  0  0  0  0  0  0  0  0  0
    9.7844  -15.2800   24.7852 O   0  0  0  0  0  0  0  0  0  0  0  0
  2  1  1  0
  3  4  1  0
  3  2  1  0
  4  5  1  0
  5  1  1  0
  5  6  1  1
  7  6  2  0
  9  8  1  6
  9 10  1  0
  9 11  1  0
 11 12  1  6
 11 13  1  0
 12  6  1  0
 13 15  1  0
 14 13  2  0
 15 16  1  0
 16 17  1  1
 16 21  1  0
 17 18  1  0
 18 19  1  0
 19 23  1  0
 20 19  2  0
 21 22  1  0
 24 21  2  0
M  END
$$$$
