PVE.pdb
     RDKit          3D

 24 24  0  0  1  0  0  0  0  0999 V2000
    6.6396  -14.2985   20.7988 N   0  0  0  0  0  0  0  0  0  0  0  0
    6.3386  -13.0245   20.2118 C   0  0  0  0  0  0  0  0  0  0  0  0
    7.6526  -12.3050   19.9863 C   0  0  0  0  0  0  0  0  0  0  0  0
    8.5847  -13.4940   19.7785 C   0  0  0  0  0  0  0  0  0  0  0  0
    8.0603  -14.4625   20.8046 C   0  0  1  0  0  0  0  0  0  0  0  0
    8.5841  -14.2295   22.1503 C   0  0  0  0  0  0  0  0  0  0  0  0
    9.7972  -14.3693   22.3839 O   0  0  0  0  0  0  0  0  0  0  0  0
    7.8725  -12.4000   26.6324 C   0  0  0  0  0  0  0  0  0  0  0  0
    7.2252  -12.9366   25.3945 C   0  0  2  0  0  0  0  0  0  0  0  0
    6.0825  -13.8838   25.6881 C   0  0  0  0  0  0  0  0  0  0  0  0
    8.2973  -13.6716   24.5912 C   0  0  2  0  0  0  0  0  0  0  0  0
    7.7601  -13.8363   23.2568 N   0  0  0  0  0  0  0  0  0  0  0  0
    8.5251  -14.9829   25.2540 C   0  0  0  0  0  0  0  0  0  0  0  0
    7.5922  -15.8055   25.2703 O   0  0  0  0  0  0  0  0  0  0  0  0
    9.7644  -15.3228   25.8638 N   0  0  0  0  0  0  0  0  0  0  0  0
   10.0719  -16.6869   26.2969 C   0  0  1  0  0  0  0  0  0  0  0  0
   11.4233  -17.0376   25.7752 C   0  0  0  0  0  0  0  0  0  0  0  0
   12.0056  -18.3136   26.2779 C   0  0  0  0  0  0  0  0  0  0  0  0
   13.3135  -18.6306   25.6679 C   0  0  0  0  0  0  0  0  0  0  0  0
   13.5066  -18.8861   24.4585 O   0  0  0  0  0  0  0  0  0  0  0  0
    9.9712  -16.7841   27.7733 C   0  0  0  0  0  0  0  0  0  0  0  0
    9.8653  -18.0096   28.3797 O   0  0  0  0  0  0  0  0  0  0  0  0
   14.4429  -18.6522   26.4928 O   0  0  0  0  0  0  0  0  0  0  0  0
    9.9831  -15.7497   28.4580 O   0  0  0  0  0  0  0  0  0  0  0  0
  2  1  1  0
  3  4  1  0
  3  2  1  0
  4  5  1  0
  5  1  1  0
  5  6  1  1
  7  6  2  0
  9  8  1  1
  9 10  1  0
  9 11  1  0
 11 12  1  6
 11 13  1  0
 12  6  1  0
 13 15  1  0
 14 13  2  0
 15 16  1  0
 16 17  1  1
 16 21  1  0
 17 18  1  0
 18 19  1  0
 19 23  1  0
 20 19  2  0
 21 22  1  0
 24 21  2  0
M  END
$$$$
