PVE.pdb
     RDKit          3D

 24 24  0  0  1  0  0  0  0  0999 V2000
    8.0303  -16.7392   15.9320 N   0  0  0  0  0  0  0  0  0  0  0  0
    8.4643  -18.0670   15.6051 C   0  0  0  0  0  0  0  0  0  0  0  0
    8.2432  -18.9327   16.8286 C   0  0  0  0  0  0  0  0  0  0  0  0
    7.0541  -18.2168   17.4604 C   0  0  0  0  0  0  0  0  0  0  0  0
    7.4184  -16.7754   17.2242 C   0  0  1  0  0  0  0  0  0  0  0  0
    8.3353  -16.2322   18.2260 C   0  0  0  0  0  0  0  0  0  0  0  0
    9.5639  -16.3663   18.0898 O   0  0  0  0  0  0  0  0  0  0  0  0
    6.8674  -14.3670   21.6585 C   0  0  0  0  0  0  0  0  0  0  0  0
    8.0112  -13.7225   20.9404 C   0  0  2  0  0  0  0  0  0  0  0  0
    7.5655  -12.7199   19.8986 C   0  0  0  0  0  0  0  0  0  0  0  0
    8.8178  -14.8299   20.2638 C   0  0  2  0  0  0  0  0  0  0  0  0
    7.8937  -15.5301   19.3964 N   0  0  0  0  0  0  0  0  0  0  0  0
    9.3379  -15.7172   21.3375 C   0  0  0  0  0  0  0  0  0  0  0  0
    8.6538  -16.7003   21.6734 O   0  0  0  0  0  0  0  0  0  0  0  0
   10.5812  -15.4792   21.9862 N   0  0  0  0  0  0  0  0  0  0  0  0
   11.2113  -16.4761   22.8537 C   0  0  1  0  0  0  0  0  0  0  0  0
   12.6797  -16.2205   22.8508 C   0  0  0  0  0  0  0  0  0  0  0  0
   13.4931  -17.0805   23.7557 C   0  0  0  0  0  0  0  0  0  0  0  0
   14.9450  -16.8353   23.6333 C   0  0  0  0  0  0  0  0  0  0  0  0
   15.8336  -17.7157   23.6565 O   0  0  0  0  0  0  0  0  0  0  0  0
   10.6102  -16.4206   24.2083 C   0  0  0  0  0  0  0  0  0  0  0  0
   10.6844  -17.5067   25.0423 O   0  0  0  0  0  0  0  0  0  0  0  0
   15.3846  -15.5165   23.4777 O   0  0  0  0  0  0  0  0  0  0  0  0
   10.0390  -15.3853   24.5836 O   0  0  0  0  0  0  0  0  0  0  0  0
  2  1  1  0
  3  4  1  0
  3  2  1  0
  4  5  1  0
  5  1  1  0
  5  6  1  1
  7  6  2  0
  9  8  1  6
  9 10  1  0
  9 11  1  0
 11 12  1  6
 11 13  1  0
 12  6  1  0
 13 15  1  0
 14 13  2  0
 15 16  1  0
 16 17  1  1
 16 21  1  0
 17 18  1  0
 18 19  1  0
 19 23  1  0
 20 19  2  0
 21 22  1  0
 24 21  2  0
M  END
$$$$
