PVE.pdb
     RDKit          3D

 24 24  0  0  1  0  0  0  0  0999 V2000
    6.2204  -18.6512   17.8425 N   0  0  0  0  0  0  0  0  0  0  0  0
    6.3587  -20.0190   18.2526 C   0  0  0  0  0  0  0  0  0  0  0  0
    6.1815  -20.0638   19.7565 C   0  0  0  0  0  0  0  0  0  0  0  0
    5.2490  -18.8742   19.9587 C   0  0  0  0  0  0  0  0  0  0  0  0
    5.8195  -17.8828   18.9801 C   0  0  1  0  0  0  0  0  0  0  0  0
    6.9616  -17.1344   19.5045 C   0  0  0  0  0  0  0  0  0  0  0  0
    8.1196  -17.5499   19.3247 O   0  0  0  0  0  0  0  0  0  0  0  0
    6.9311  -13.1727   19.6859 C   0  0  0  0  0  0  0  0  0  0  0  0
    7.4706  -13.7351   20.9635 C   0  0  2  0  0  0  0  0  0  0  0  0
    8.5957  -12.9075   21.5450 C   0  0  0  0  0  0  0  0  0  0  0  0
    7.9796  -15.1459   20.6713 C   0  0  2  0  0  0  0  0  0  0  0  0
    6.8278  -15.9091   20.2384 N   0  0  0  0  0  0  0  0  0  0  0  0
    8.5461  -15.6826   21.9368 C   0  0  0  0  0  0  0  0  0  0  0  0
    7.7769  -15.8630   22.8976 O   0  0  0  0  0  0  0  0  0  0  0  0
    9.9266  -15.9931   22.0817 N   0  0  0  0  0  0  0  0  0  0  0  0
   10.4584  -16.6396   23.2827 C   0  0  1  0  0  0  0  0  0  0  0  0
   11.2623  -17.8173   22.8490 C   0  0  0  0  0  0  0  0  0  0  0  0
   10.5247  -18.8673   22.0918 C   0  0  0  0  0  0  0  0  0  0  0  0
   11.3947  -19.9750   21.6455 C   0  0  0  0  0  0  0  0  0  0  0  0
   12.6360  -20.0267   21.7930 O   0  0  0  0  0  0  0  0  0  0  0  0
   11.2365  -15.6619   24.0815 C   0  0  0  0  0  0  0  0  0  0  0  0
   11.4002  -15.8461   25.4305 O   0  0  0  0  0  0  0  0  0  0  0  0
   10.8021  -21.0667   21.0025 O   0  0  0  0  0  0  0  0  0  0  0  0
   11.7390  -14.6751   23.5224 O   0  0  0  0  0  0  0  0  0  0  0  0
  2  1  1  0
  3  4  1  0
  3  2  1  0
  4  5  1  0
  5  1  1  0
  5  6  1  1
  7  6  2  0
  9  8  1  6
  9 10  1  0
  9 11  1  0
 11 12  1  1
 11 13  1  0
 12  6  1  0
 13 15  1  0
 14 13  2  0
 15 16  1  0
 16 17  1  6
 16 21  1  0
 17 18  1  0
 18 19  1  0
 19 23  1  0
 20 19  2  0
 21 22  1  0
 24 21  2  0
M  END
$$$$
