PVE.pdb
     RDKit          3D

 24 24  0  0  1  0  0  0  0  0999 V2000
    8.7627  -17.4471   16.3698 N   0  0  0  0  0  0  0  0  0  0  0  0
    9.2262  -18.8034   16.4331 C   0  0  0  0  0  0  0  0  0  0  0  0
    8.7070  -19.4024   17.7241 C   0  0  0  0  0  0  0  0  0  0  0  0
    7.4231  -18.5992   17.9028 C   0  0  0  0  0  0  0  0  0  0  0  0
    7.8689  -17.2297   17.4649 C   0  0  1  0  0  0  0  0  0  0  0  0
    8.5440  -16.4701   18.5169 C   0  0  0  0  0  0  0  0  0  0  0  0
    9.7832  -16.4974   18.6133 O   0  0  0  0  0  0  0  0  0  0  0  0
    7.2556  -12.8859   19.9195 C   0  0  0  0  0  0  0  0  0  0  0  0
    7.5307  -13.8730   21.0103 C   0  0  2  0  0  0  0  0  0  0  0  0
    8.0796  -13.2298   22.2649 C   0  0  0  0  0  0  0  0  0  0  0  0
    8.5435  -14.8848   20.4761 C   0  0  2  0  0  0  0  0  0  0  0  0
    7.8445  -15.6675   19.4785 N   0  0  0  0  0  0  0  0  0  0  0  0
    8.9769  -15.7247   21.6239 C   0  0  0  0  0  0  0  0  0  0  0  0
    8.2155  -16.6273   22.0151 O   0  0  0  0  0  0  0  0  0  0  0  0
   10.2227  -15.5301   22.2822 N   0  0  0  0  0  0  0  0  0  0  0  0
   10.7860  -16.5263   23.1951 C   0  0  1  0  0  0  0  0  0  0  0  0
   12.2705  -16.4033   23.1452 C   0  0  0  0  0  0  0  0  0  0  0  0
   13.0276  -17.2452   24.1137 C   0  0  0  0  0  0  0  0  0  0  0  0
   14.4884  -17.0349   24.0418 C   0  0  0  0  0  0  0  0  0  0  0  0
   15.0660  -16.2044   23.3058 O   0  0  0  0  0  0  0  0  0  0  0  0
   10.2285  -16.3377   24.5565 C   0  0  0  0  0  0  0  0  0  0  0  0
   10.2112  -17.3806   25.4467 O   0  0  0  0  0  0  0  0  0  0  0  0
   15.3127  -17.8189   24.8557 O   0  0  0  0  0  0  0  0  0  0  0  0
    9.7773  -15.2302   24.8861 O   0  0  0  0  0  0  0  0  0  0  0  0
  2  1  1  0
  3  4  1  0
  3  2  1  0
  4  5  1  0
  5  1  1  0
  5  6  1  1
  7  6  2  0
  9  8  1  6
  9 10  1  0
  9 11  1  0
 11 12  1  6
 11 13  1  0
 12  6  1  0
 13 15  1  0
 14 13  2  0
 15 16  1  0
 16 17  1  1
 16 21  1  0
 17 18  1  0
 18 19  1  0
 19 23  1  0
 20 19  2  0
 21 22  1  0
 24 21  2  0
M  END
$$$$
