PVE.pdb
     RDKit          3D

 24 24  0  0  1  0  0  0  0  0999 V2000
    7.4550  -14.3323   20.4334 N   0  0  0  0  0  0  0  0  0  0  0  0
    7.8004  -15.6051   19.8687 C   0  0  0  0  0  0  0  0  0  0  0  0
    7.3480  -16.6735   20.8428 C   0  0  0  0  0  0  0  0  0  0  0  0
    6.1615  -15.9688   21.4918 C   0  0  0  0  0  0  0  0  0  0  0  0
    6.6857  -14.5633   21.6167 C   0  0  1  0  0  0  0  0  0  0  0  0
    7.5169  -14.3522   22.8016 C   0  0  0  0  0  0  0  0  0  0  0  0
    8.7518  -14.4789   22.7320 O   0  0  0  0  0  0  0  0  0  0  0  0
    6.4123  -11.7992   25.8193 C   0  0  0  0  0  0  0  0  0  0  0  0
    6.9199  -13.1233   26.2973 C   0  0  2  0  0  0  0  0  0  0  0  0
    7.6861  -13.0279   27.5985 C   0  0  0  0  0  0  0  0  0  0  0  0
    7.8349  -13.6889   25.2121 C   0  0  2  0  0  0  0  0  0  0  0  0
    6.9811  -13.9959   24.0837 N   0  0  0  0  0  0  0  0  0  0  0  0
    8.4712  -14.9139   25.7646 C   0  0  0  0  0  0  0  0  0  0  0  0
    7.7654  -15.9262   25.9207 O   0  0  0  0  0  0  0  0  0  0  0  0
    9.8485  -14.9639   26.1165 N   0  0  0  0  0  0  0  0  0  0  0  0
   10.5328  -16.2243   26.4105 C   0  0  1  0  0  0  0  0  0  0  0  0
   11.8740  -16.1772   25.7623 C   0  0  0  0  0  0  0  0  0  0  0  0
   12.7968  -17.3001   26.0905 C   0  0  0  0  0  0  0  0  0  0  0  0
   14.1252  -17.1582   25.4594 C   0  0  0  0  0  0  0  0  0  0  0  0
   14.4890  -16.1991   24.7431 O   0  0  0  0  0  0  0  0  0  0  0  0
   10.5985  -16.4345   27.8771 C   0  0  0  0  0  0  0  0  0  0  0  0
   10.8217  -17.6881   28.3862 O   0  0  0  0  0  0  0  0  0  0  0  0
   15.0699  -18.1687   25.6667 O   0  0  0  0  0  0  0  0  0  0  0  0
   10.4503  -15.4692   28.6420 O   0  0  0  0  0  0  0  0  0  0  0  0
  2  1  1  0
  3  4  1  0
  3  2  1  0
  4  5  1  0
  5  1  1  0
  5  6  1  1
  7  6  2  0
  9  8  1  6
  9 10  1  0
  9 11  1  0
 11 12  1  6
 11 13  1  0
 12  6  1  0
 13 15  1  0
 14 13  2  0
 15 16  1  0
 16 17  1  1
 16 21  1  0
 17 18  1  0
 18 19  1  0
 19 23  1  0
 20 19  2  0
 21 22  1  0
 24 21  2  0
M  END
$$$$
