PVE.pdb
     RDKit          3D

 24 24  0  0  1  0  0  0  0  0999 V2000
    6.7704  -14.5792   20.9901 N   0  0  0  0  0  0  0  0  0  0  0  0
    6.2442  -13.3663   20.4332 C   0  0  0  0  0  0  0  0  0  0  0  0
    7.4109  -12.4287   20.1995 C   0  0  0  0  0  0  0  0  0  0  0  0
    8.5283  -13.4367   19.9526 C   0  0  0  0  0  0  0  0  0  0  0  0
    8.1981  -14.4973   20.9684 C   0  0  1  0  0  0  0  0  0  0  0  0
    8.7014  -14.1999   22.3092 C   0  0  0  0  0  0  0  0  0  0  0  0
    9.9202  -14.0488   22.5023 O   0  0  0  0  0  0  0  0  0  0  0  0
    6.0312  -14.0831   25.4894 C   0  0  0  0  0  0  0  0  0  0  0  0
    7.3344  -13.3707   25.6731 C   0  0  2  0  0  0  0  0  0  0  0  0
    7.2686  -11.9092   25.2873 C   0  0  0  0  0  0  0  0  0  0  0  0
    8.3755  -14.0762   24.8053 C   0  0  2  0  0  0  0  0  0  0  0  0
    7.8500  -14.0665   23.4561 N   0  0  0  0  0  0  0  0  0  0  0  0
    8.5191  -15.4617   25.3254 C   0  0  0  0  0  0  0  0  0  0  0  0
    7.5691  -16.2502   25.1738 O   0  0  0  0  0  0  0  0  0  0  0  0
    9.6975  -15.9092   25.9845 N   0  0  0  0  0  0  0  0  0  0  0  0
    9.8730  -17.2991   26.4094 C   0  0  1  0  0  0  0  0  0  0  0  0
   11.1899  -17.7708   25.8949 C   0  0  0  0  0  0  0  0  0  0  0  0
   11.6260  -19.1184   26.3571 C   0  0  0  0  0  0  0  0  0  0  0  0
   12.9642  -19.4948   25.8564 C   0  0  0  0  0  0  0  0  0  0  0  0
   14.0524  -19.0772   26.3111 O   0  0  0  0  0  0  0  0  0  0  0  0
    9.7519  -17.3966   27.8843 C   0  0  0  0  0  0  0  0  0  0  0  0
    9.5591  -18.6153   28.4828 O   0  0  0  0  0  0  0  0  0  0  0  0
   13.0443  -20.3912   24.7857 O   0  0  0  0  0  0  0  0  0  0  0  0
    9.8260  -16.3687   28.5748 O   0  0  0  0  0  0  0  0  0  0  0  0
  2  1  1  0
  3  4  1  0
  3  2  1  0
  4  5  1  0
  5  1  1  0
  5  6  1  1
  7  6  2  0
  9  8  1  6
  9 10  1  0
  9 11  1  0
 11 12  1  6
 11 13  1  0
 12  6  1  0
 13 15  1  0
 14 13  2  0
 15 16  1  0
 16 17  1  1
 16 21  1  0
 17 18  1  0
 18 19  1  0
 19 23  1  0
 20 19  2  0
 21 22  1  0
 24 21  2  0
M  END
$$$$
