PVE.pdb
     RDKit          3D

 24 24  0  0  1  0  0  0  0  0999 V2000
    6.7895  -14.3381   20.7993 N   0  0  0  0  0  0  0  0  0  0  0  0
    6.4074  -13.0880   20.2082 C   0  0  0  0  0  0  0  0  0  0  0  0
    7.6520  -12.2296   20.1134 C   0  0  0  0  0  0  0  0  0  0  0  0
    8.7199  -13.3089   19.9711 C   0  0  0  0  0  0  0  0  0  0  0  0
    8.2136  -14.3528   20.9302 C   0  0  1  0  0  0  0  0  0  0  0  0
    8.5896  -14.1006   22.3211 C   0  0  0  0  0  0  0  0  0  0  0  0
    9.7882  -14.0551   22.6483 O   0  0  0  0  0  0  0  0  0  0  0  0
    6.4666  -11.9563   24.9063 C   0  0  0  0  0  0  0  0  0  0  0  0
    6.8161  -13.2768   25.5177 C   0  0  2  0  0  0  0  0  0  0  0  0
    7.1509  -13.1765   26.9898 C   0  0  0  0  0  0  0  0  0  0  0  0
    8.0216  -13.8338   24.7620 C   0  0  2  0  0  0  0  0  0  0  0  0
    7.6316  -13.8953   23.3689 N   0  0  0  0  0  0  0  0  0  0  0  0
    8.3012  -15.1869   25.3111 C   0  0  0  0  0  0  0  0  0  0  0  0
    7.3966  -16.0396   25.2677 O   0  0  0  0  0  0  0  0  0  0  0  0
    9.5586  -15.5333   25.8789 N   0  0  0  0  0  0  0  0  0  0  0  0
    9.8699  -16.8971   26.3104 C   0  0  1  0  0  0  0  0  0  0  0  0
   11.0376  -17.3719   25.5152 C   0  0  0  0  0  0  0  0  0  0  0  0
   11.6508  -18.6551   25.9595 C   0  0  0  0  0  0  0  0  0  0  0  0
   12.7661  -19.0915   25.0941 C   0  0  0  0  0  0  0  0  0  0  0  0
   13.2404  -18.4386   24.1381 O   0  0  0  0  0  0  0  0  0  0  0  0
   10.1089  -16.9228   27.7738 C   0  0  0  0  0  0  0  0  0  0  0  0
   10.0424  -18.1059   28.4642 O   0  0  0  0  0  0  0  0  0  0  0  0
   13.3554  -20.3345   25.3471 O   0  0  0  0  0  0  0  0  0  0  0  0
   10.3696  -15.8673   28.3711 O   0  0  0  0  0  0  0  0  0  0  0  0
  2  1  1  0
  3  4  1  0
  3  2  1  0
  4  5  1  0
  5  1  1  0
  5  6  1  1
  7  6  2  0
  9  8  1  6
  9 10  1  0
  9 11  1  0
 11 12  1  6
 11 13  1  0
 12  6  1  0
 13 15  1  0
 14 13  2  0
 15 16  1  0
 16 17  1  6
 16 21  1  0
 17 18  1  0
 18 19  1  0
 19 23  1  0
 20 19  2  0
 21 22  1  0
 24 21  2  0
M  END
$$$$
