PVE.pdb
     RDKit          3D

 24 24  0  0  1  0  0  0  0  0999 V2000
    6.6663  -15.2087   21.7817 N   0  0  0  0  0  0  0  0  0  0  0  0
    5.9697  -14.1435   21.1197 C   0  0  0  0  0  0  0  0  0  0  0  0
    7.0072  -13.1472   20.6440 C   0  0  0  0  0  0  0  0  0  0  0  0
    8.1986  -14.0739   20.4266 C   0  0  0  0  0  0  0  0  0  0  0  0
    8.0703  -15.0005   21.6060 C   0  0  1  0  0  0  0  0  0  0  0  0
    8.6533  -14.4656   22.8363 C   0  0  0  0  0  0  0  0  0  0  0  0
    9.8539  -14.1446   22.8733 O   0  0  0  0  0  0  0  0  0  0  0  0
    6.3300  -14.1535   26.2900 C   0  0  0  0  0  0  0  0  0  0  0  0
    7.4329  -13.1615   26.0923 C   0  0  2  0  0  0  0  0  0  0  0  0
    6.9797  -11.9089   25.3749 C   0  0  0  0  0  0  0  0  0  0  0  0
    8.5295  -13.8433   25.2753 C   0  0  2  0  0  0  0  0  0  0  0  0
    7.9035  -14.2809   24.0452 N   0  0  0  0  0  0  0  0  0  0  0  0
    9.0258  -14.9943   26.0750 C   0  0  0  0  0  0  0  0  0  0  0  0
    8.2648  -15.9624   26.2507 O   0  0  0  0  0  0  0  0  0  0  0  0
   10.3310  -15.0226   26.6398 N   0  0  0  0  0  0  0  0  0  0  0  0
   10.8514  -16.1973   27.3417 C   0  0  1  0  0  0  0  0  0  0  0  0
   12.2533  -16.4171   26.8861 C   0  0  0  0  0  0  0  0  0  0  0  0
   12.4337  -16.6680   25.4285 C   0  0  0  0  0  0  0  0  0  0  0  0
   13.8524  -16.6749   25.0157 C   0  0  0  0  0  0  0  0  0  0  0  0
   14.8285  -16.4706   25.7713 O   0  0  0  0  0  0  0  0  0  0  0  0
   10.7358  -16.0034   28.8075 C   0  0  0  0  0  0  0  0  0  0  0  0
   11.0225  -17.0341   29.6655 O   0  0  0  0  0  0  0  0  0  0  0  0
   14.1518  -16.9290   23.6732 O   0  0  0  0  0  0  0  0  0  0  0  0
   10.3780  -14.9028   29.2540 O   0  0  0  0  0  0  0  0  0  0  0  0
  2  1  1  0
  3  4  1  0
  3  2  1  0
  4  5  1  0
  5  1  1  0
  5  6  1  1
  7  6  2  0
  9  8  1  6
  9 10  1  0
  9 11  1  0
 11 12  1  6
 11 13  1  0
 12  6  1  0
 13 15  1  0
 14 13  2  0
 15 16  1  0
 16 17  1  1
 16 21  1  0
 17 18  1  0
 18 19  1  0
 19 23  1  0
 20 19  2  0
 21 22  1  0
 24 21  2  0
M  END
$$$$
