PVE.pdb
     RDKit          3D

 24 24  0  0  1  0  0  0  0  0999 V2000
    8.0068  -14.4752   20.5636 N   0  0  0  0  0  0  0  0  0  0  0  0
    8.0642  -15.8079   20.0356 C   0  0  0  0  0  0  0  0  0  0  0  0
    7.3597  -16.7187   21.0201 C   0  0  0  0  0  0  0  0  0  0  0  0
    6.3521  -15.7453   21.6223 C   0  0  0  0  0  0  0  0  0  0  0  0
    7.1805  -14.4931   21.7308 C   0  0  1  0  0  0  0  0  0  0  0  0
    8.0132  -14.4450   22.9325 C   0  0  0  0  0  0  0  0  0  0  0  0
    9.2276  -14.7028   22.8646 O   0  0  0  0  0  0  0  0  0  0  0  0
    6.2251  -13.5775   26.4894 C   0  0  0  0  0  0  0  0  0  0  0  0
    7.6344  -13.0870   26.3756 C   0  0  2  0  0  0  0  0  0  0  0  0
    7.7248  -11.6542   25.8983 C   0  0  0  0  0  0  0  0  0  0  0  0
    8.3639  -13.9960   25.3875 C   0  0  2  0  0  0  0  0  0  0  0  0
    7.5017  -14.1079   24.2296 N   0  0  0  0  0  0  0  0  0  0  0  0
    8.5556  -15.3108   26.0547 C   0  0  0  0  0  0  0  0  0  0  0  0
    7.5878  -16.0903   26.1113 O   0  0  0  0  0  0  0  0  0  0  0  0
    9.7990  -15.7013   26.6246 N   0  0  0  0  0  0  0  0  0  0  0  0
   10.0252  -17.0470   27.1547 C   0  0  1  0  0  0  0  0  0  0  0  0
   11.3116  -17.5483   26.5933 C   0  0  0  0  0  0  0  0  0  0  0  0
   11.2002  -18.4567   25.4175 C   0  0  0  0  0  0  0  0  0  0  0  0
   12.3218  -18.3100   24.4669 C   0  0  0  0  0  0  0  0  0  0  0  0
   12.2337  -18.3994   23.2222 O   0  0  0  0  0  0  0  0  0  0  0  0
   10.0058  -17.0169   28.6373 C   0  0  0  0  0  0  0  0  0  0  0  0
    9.8500  -15.8277   29.3024 O   0  0  0  0  0  0  0  0  0  0  0  0
   13.5967  -18.0491   24.9798 O   0  0  0  0  0  0  0  0  0  0  0  0
   10.1316  -18.0743   29.2737 O   0  0  0  0  0  0  0  0  0  0  0  0
  2  1  1  0
  3  4  1  0
  3  2  1  0
  4  5  1  0
  5  1  1  0
  5  6  1  1
  7  6  2  0
  9  8  1  6
  9 10  1  0
  9 11  1  0
 11 12  1  6
 11 13  1  0
 12  6  1  0
 13 15  1  0
 14 13  2  0
 15 16  1  0
 16 17  1  1
 16 21  1  0
 17 18  1  0
 18 19  1  0
 19 23  1  0
 20 19  2  0
 21 22  1  0
 24 21  2  0
M  END
$$$$
