PVE.pdb
     RDKit          3D

 24 24  0  0  1  0  0  0  0  0999 V2000
    6.9267  -14.5651   20.9574 N   0  0  0  0  0  0  0  0  0  0  0  0
    6.5092  -13.3338   20.3509 C   0  0  0  0  0  0  0  0  0  0  0  0
    7.7367  -12.4574   20.2078 C   0  0  0  0  0  0  0  0  0  0  0  0
    8.8186  -13.5220   20.0606 C   0  0  0  0  0  0  0  0  0  0  0  0
    8.3536  -14.5541   21.0529 C   0  0  1  0  0  0  0  0  0  0  0  0
    8.7596  -14.2674   22.4286 C   0  0  0  0  0  0  0  0  0  0  0  0
    9.9649  -14.2199   22.7297 O   0  0  0  0  0  0  0  0  0  0  0  0
    6.8673  -11.9359   24.9624 C   0  0  0  0  0  0  0  0  0  0  0  0
    7.1051  -13.2572   25.6235 C   0  0  2  0  0  0  0  0  0  0  0  0
    7.4741  -13.1288   27.0852 C   0  0  0  0  0  0  0  0  0  0  0  0
    8.2408  -13.9532   24.8747 C   0  0  2  0  0  0  0  0  0  0  0  0
    7.8244  -14.0291   23.4900 N   0  0  0  0  0  0  0  0  0  0  0  0
    8.4007  -15.3055   25.4718 C   0  0  0  0  0  0  0  0  0  0  0  0
    7.8106  -16.2604   24.9360 O   0  0  0  0  0  0  0  0  0  0  0  0
    9.1996  -15.5388   26.6254 N   0  0  0  0  0  0  0  0  0  0  0  0
   10.0437  -16.7271   26.7617 C   0  0  1  0  0  0  0  0  0  0  0  0
   11.0899  -16.6677   25.7018 C   0  0  0  0  0  0  0  0  0  0  0  0
   11.3402  -17.9358   24.9607 C   0  0  0  0  0  0  0  0  0  0  0  0
   12.3681  -17.7956   23.9085 C   0  0  0  0  0  0  0  0  0  0  0  0
   13.0087  -16.7512   23.6552 O   0  0  0  0  0  0  0  0  0  0  0  0
   10.6034  -16.7957   28.1334 C   0  0  0  0  0  0  0  0  0  0  0  0
   10.5733  -15.6929   28.9480 O   0  0  0  0  0  0  0  0  0  0  0  0
   12.6653  -18.9107   23.1182 O   0  0  0  0  0  0  0  0  0  0  0  0
   11.0996  -17.8572   28.5406 O   0  0  0  0  0  0  0  0  0  0  0  0
  2  1  1  0
  3  4  1  0
  3  2  1  0
  4  5  1  0
  5  1  1  0
  5  6  1  1
  7  6  2  0
  9  8  1  6
  9 10  1  0
  9 11  1  0
 11 12  1  6
 11 13  1  0
 12  6  1  0
 13 15  1  0
 14 13  2  0
 15 16  1  0
 16 17  1  6
 16 21  1  0
 17 18  1  0
 18 19  1  0
 19 23  1  0
 20 19  2  0
 21 22  1  0
 24 21  2  0
M  END
$$$$
