PVE.pdb
     RDKit          3D

 24 24  0  0  1  0  0  0  0  0999 V2000
    8.9563  -14.6473   18.6552 N   0  0  0  0  0  0  0  0  0  0  0  0
    7.8351  -14.1302   17.9247 C   0  0  0  0  0  0  0  0  0  0  0  0
    7.4293  -12.8245   18.5772 C   0  0  0  0  0  0  0  0  0  0  0  0
    8.7740  -12.3640   19.1297 C   0  0  0  0  0  0  0  0  0  0  0  0
    9.3542  -13.6652   19.6157 C   0  0  1  0  0  0  0  0  0  0  0  0
    8.8886  -14.0521   20.9473 C   0  0  0  0  0  0  0  0  0  0  0  0
    9.0465  -13.2862   21.9139 O   0  0  0  0  0  0  0  0  0  0  0  0
    7.5177  -17.9250   21.7132 C   0  0  0  0  0  0  0  0  0  0  0  0
    6.7711  -16.7956   22.3509 C   0  0  2  0  0  0  0  0  0  0  0  0
    5.5949  -16.3234   21.5247 C   0  0  0  0  0  0  0  0  0  0  0  0
    7.7520  -15.6395   22.5410 C   0  0  2  0  0  0  0  0  0  0  0  0
    8.2388  -15.3016   21.2199 N   0  0  0  0  0  0  0  0  0  0  0  0
    8.8481  -16.1293   23.4181 C   0  0  0  0  0  0  0  0  0  0  0  0
    9.8745  -16.5835   22.8818 O   0  0  0  0  0  0  0  0  0  0  0  0
    8.7606  -16.0950   24.8374 N   0  0  0  0  0  0  0  0  0  0  0  0
    9.8605  -16.5355   25.6972 C   0  0  1  0  0  0  0  0  0  0  0  0
    9.8284  -15.7104   26.9380 C   0  0  0  0  0  0  0  0  0  0  0  0
   10.7733  -16.1166   28.0160 C   0  0  0  0  0  0  0  0  0  0  0  0
   10.6709  -15.2694   29.2222 C   0  0  0  0  0  0  0  0  0  0  0  0
   10.0750  -14.1713   29.2885 O   0  0  0  0  0  0  0  0  0  0  0  0
    9.7467  -17.9908   25.9590 C   0  0  0  0  0  0  0  0  0  0  0  0
   10.8721  -18.7443   26.1745 O   0  0  0  0  0  0  0  0  0  0  0  0
   11.2838  -15.7127   30.3987 O   0  0  0  0  0  0  0  0  0  0  0  0
    8.6268  -18.5239   25.9819 O   0  0  0  0  0  0  0  0  0  0  0  0
  2  1  1  0
  3  4  1  0
  3  2  1  0
  4  5  1  0
  5  1  1  0
  5  6  1  1
  7  6  2  0
  9  8  1  6
  9 10  1  0
  9 11  1  0
 11 12  1  6
 11 13  1  0
 12  6  1  0
 13 15  1  0
 14 13  2  0
 15 16  1  0
 16 17  1  1
 16 21  1  0
 17 18  1  0
 18 19  1  0
 19 23  1  0
 20 19  2  0
 21 22  1  0
 24 21  2  0
M  END
$$$$
