PVE.pdb
     RDKit          3D

 24 24  0  0  1  0  0  0  0  0999 V2000
    6.5313  -14.1617   21.0308 N   0  0  0  0  0  0  0  0  0  0  0  0
    6.3681  -12.9226   20.3262 C   0  0  0  0  0  0  0  0  0  0  0  0
    7.7517  -12.3836   20.0261 C   0  0  0  0  0  0  0  0  0  0  0  0
    8.5386  -13.6862   19.9279 C   0  0  0  0  0  0  0  0  0  0  0  0
    7.9240  -14.4868   21.0447 C   0  0  1  0  0  0  0  0  0  0  0  0
    8.4927  -14.1896   22.3591 C   0  0  0  0  0  0  0  0  0  0  0  0
    9.7072  -14.3542   22.5686 O   0  0  0  0  0  0  0  0  0  0  0  0
    7.9031  -12.4789   26.9296 C   0  0  0  0  0  0  0  0  0  0  0  0
    7.2685  -12.7763   25.6073 C   0  0  2  0  0  0  0  0  0  0  0  0
    5.9511  -13.5093   25.7354 C   0  0  0  0  0  0  0  0  0  0  0  0
    8.2472  -13.6322   24.8046 C   0  0  2  0  0  0  0  0  0  0  0  0
    7.7129  -13.7037   23.4608 N   0  0  0  0  0  0  0  0  0  0  0  0
    8.2919  -14.9726   25.4466 C   0  0  0  0  0  0  0  0  0  0  0  0
    7.2470  -15.6466   25.4781 O   0  0  0  0  0  0  0  0  0  0  0  0
    9.4806  -15.5028   26.0202 N   0  0  0  0  0  0  0  0  0  0  0  0
    9.5328  -16.8435   26.6059 C   0  0  1  0  0  0  0  0  0  0  0  0
   10.3342  -17.7087   25.6946 C   0  0  0  0  0  0  0  0  0  0  0  0
   11.7802  -17.3691   25.5772 C   0  0  0  0  0  0  0  0  0  0  0  0
   12.3721  -17.8025   24.2945 C   0  0  0  0  0  0  0  0  0  0  0  0
   12.3140  -18.9601   23.8235 O   0  0  0  0  0  0  0  0  0  0  0  0
   10.0833  -16.7739   27.9812 C   0  0  0  0  0  0  0  0  0  0  0  0
   10.1541  -17.9037   28.7553 O   0  0  0  0  0  0  0  0  0  0  0  0
   13.0587  -16.8559   23.5270 O   0  0  0  0  0  0  0  0  0  0  0  0
   10.4799  -15.6870   28.4285 O   0  0  0  0  0  0  0  0  0  0  0  0
  2  1  1  0
  3  4  1  0
  3  2  1  0
  4  5  1  0
  5  1  1  0
  5  6  1  1
  7  6  2  0
  9  8  1  1
  9 10  1  0
  9 11  1  0
 11 12  1  6
 11 13  1  0
 12  6  1  0
 13 15  1  0
 14 13  2  0
 15 16  1  0
 16 17  1  6
 16 21  1  0
 17 18  1  0
 18 19  1  0
 19 23  1  0
 20 19  2  0
 21 22  1  0
 24 21  2  0
M  END
$$$$
