YCM.pdb
     RDKit          3D

 27 27  0  0  1  0  0  0  0  0999 V2000
   10.1474  -13.7425   29.8492 O   0  0  0  0  0  0  0  0  0  0  0  0
    9.8246  -14.3860   28.6664 C   0  0  0  0  0  0  0  0  0  0  0  0
    8.6414  -14.0641   28.0289 C   0  0  0  0  0  0  0  0  0  0  0  0
    8.3003  -14.6899   26.8539 C   0  0  0  0  0  0  0  0  0  0  0  0
    9.1045  -15.6543   26.2585 C   0  0  0  0  0  0  0  0  0  0  0  0
    8.7047  -16.3157   24.9851 C   0  0  0  0  0  0  0  0  0  0  0  0
    7.4892  -17.2126   25.2113 C   0  0  2  0  0  0  0  0  0  0  0  0
    7.8968  -18.1977   26.2020 N   0  0  0  0  0  0  0  0  0  0  0  0
    7.0768  -17.8691   23.9442 C   0  0  0  0  0  0  0  0  0  0  0  0
    7.5618  -18.9604   23.5573 O   0  0  0  0  0  0  0  0  0  0  0  0
   10.2858  -15.9701   26.9023 C   0  0  0  0  0  0  0  0  0  0  0  0
   10.6240  -15.3420   28.0779 C   0  0  0  0  0  0  0  0  0  0  0  0
    6.0989  -17.2775   23.1035 N   0  0  0  0  0  0  0  0  0  0  0  0
    5.7447  -17.8879   21.8081 C   0  0  1  0  0  0  0  0  0  0  0  0
    4.3409  -17.4550   21.4419 C   0  0  0  0  0  0  0  0  0  0  0  0
    3.1321  -18.0895   22.6055 S   0  0  0  0  0  0  0  0  0  0  0  0
    6.7512  -17.5261   20.7972 C   0  0  0  0  0  0  0  0  0  0  0  0
    6.4595  -17.5883   19.5618 O   0  0  0  0  0  0  0  0  0  0  0  0
    7.5871  -11.9414   20.5757 C   0  0  0  0  0  0  0  0  0  0  0  0
    8.0777  -12.5554   18.9300 S   0  0  0  0  0  0  0  0  0  0  0  0
    9.0115  -14.1237   19.1316 C   0  0  0  0  0  0  0  0  0  0  0  0
    8.2362  -15.0588   20.0002 C   0  0  0  0  0  0  0  0  0  0  0  0
    8.8961  -16.3975   20.2212 C   0  0  2  0  0  0  0  0  0  0  0  0
    8.0410  -17.1051   21.1763 N   0  0  0  0  0  0  0  0  0  0  0  0
   10.2194  -16.2322   20.8248 C   0  0  0  0  0  0  0  0  0  0  0  0
   10.4437  -16.4766   22.0450 O   0  0  0  0  0  0  0  0  0  0  0  0
   11.2872  -15.7952   20.0671 O   0  0  0  0  0  0  0  0  0  0  0  0
  2  1  1  0
  2 12  2  0
  3  2  1  0
  4  3  2  0
  4  5  1  0
  5 11  2  0
  6  7  1  0
  6  5  1  0
  7  9  1  0
  7  8  1  1
  9 10  2  0
  9 13  1  0
 11 12  1  0
 13 14  1  0
 14 17  1  0
 14 15  1  6
 16 15  1  0
 17 18  2  0
 20 21  1  0
 20 19  1  0
 22 21  1  0
 23 22  1  1
 24 23  1  0
 24 17  1  0
 25 27  1  0
 25 23  1  0
 26 25  2  0
M  END
$$$$
