YCM.pdb
     RDKit          3D

 27 27  0  0  1  0  0  0  0  0999 V2000
    8.0887  -15.3751   13.8767 O   0  0  0  0  0  0  0  0  0  0  0  0
    8.3135  -15.2887   15.2402 C   0  0  0  0  0  0  0  0  0  0  0  0
    9.5364  -14.8290   15.6907 C   0  0  0  0  0  0  0  0  0  0  0  0
    9.7820  -14.7349   17.0395 C   0  0  0  0  0  0  0  0  0  0  0  0
    8.8398  -15.0873   17.9984 C   0  0  0  0  0  0  0  0  0  0  0  0
    9.1383  -14.9757   19.4535 C   0  0  0  0  0  0  0  0  0  0  0  0
    8.6837  -13.6183   19.9862 C   0  0  2  0  0  0  0  0  0  0  0  0
    9.5290  -12.6286   19.3352 N   0  0  0  0  0  0  0  0  0  0  0  0
    8.8306  -13.5569   21.4632 C   0  0  0  0  0  0  0  0  0  0  0  0
    9.0616  -12.4866   22.0773 O   0  0  0  0  0  0  0  0  0  0  0  0
    7.6196  -15.5460   17.5395 C   0  0  0  0  0  0  0  0  0  0  0  0
    7.3774  -15.6388   16.1891 C   0  0  0  0  0  0  0  0  0  0  0  0
    8.7134  -14.7284   22.2550 N   0  0  0  0  0  0  0  0  0  0  0  0
    8.6269  -14.6431   23.7251 C   0  0  1  0  0  0  0  0  0  0  0  0
    7.4695  -13.7361   24.0856 C   0  0  0  0  0  0  0  0  0  0  0  0
    6.7859  -14.1486   25.6919 S   0  0  0  0  0  0  0  0  0  0  0  0
    8.5104  -15.9951   24.2947 C   0  0  0  0  0  0  0  0  0  0  0  0
    7.3640  -16.5228   24.4455 O   0  0  0  0  0  0  0  0  0  0  0  0
   10.6465  -13.8911   30.5569 C   0  0  0  0  0  0  0  0  0  0  0  0
    9.8548  -14.0005   28.9177 S   0  0  0  0  0  0  0  0  0  0  0  0
   10.2636  -15.6244   28.1639 C   0  0  0  0  0  0  0  0  0  0  0  0
    9.6076  -15.7340   26.8269 C   0  0  0  0  0  0  0  0  0  0  0  0
    9.9068  -17.0151   26.0880 C   0  0  2  0  0  0  0  0  0  0  0  0
    9.6550  -16.7228   24.6755 N   0  0  0  0  0  0  0  0  0  0  0  0
    8.9956  -18.0818   26.5054 C   0  0  0  0  0  0  0  0  0  0  0  0
    7.7391  -17.9394   26.5057 O   0  0  0  0  0  0  0  0  0  0  0  0
    9.4874  -19.3028   26.9211 O   0  0  0  0  0  0  0  0  0  0  0  0
  2  1  1  0
  2 12  2  0
  3  2  1  0
  4  3  2  0
  4  5  1  0
  5 11  2  0
  6  7  1  0
  6  5  1  0
  7  9  1  0
  7  8  1  6
  9 10  2  0
  9 13  1  0
 11 12  1  0
 13 14  1  0
 14 17  1  0
 14 15  1  6
 16 15  1  0
 17 18  2  0
 20 21  1  0
 20 19  1  0
 22 21  1  0
 23 22  1  1
 24 23  1  0
 24 17  1  0
 25 27  1  0
 25 23  1  0
 26 25  2  0
M  END
$$$$
