YCM.pdb
     RDKit          3D

 27 27  0  0  1  0  0  0  0  0999 V2000
    6.8689  -11.3458   26.3453 O   0  0  0  0  0  0  0  0  0  0  0  0
    6.9317  -12.7289   26.3690 C   0  0  0  0  0  0  0  0  0  0  0  0
    5.7643  -13.4558   26.2319 C   0  0  0  0  0  0  0  0  0  0  0  0
    5.8024  -14.8293   26.2523 C   0  0  0  0  0  0  0  0  0  0  0  0
    6.9845  -15.5433   26.4078 C   0  0  0  0  0  0  0  0  0  0  0  0
    6.9914  -17.0326   26.4281 C   0  0  0  0  0  0  0  0  0  0  0  0
    6.5870  -17.5842   25.0623 C   0  0  2  0  0  0  0  0  0  0  0  0
    6.3003  -18.9959   25.2691 N   0  0  0  0  0  0  0  0  0  0  0  0
    7.6822  -17.4009   24.0757 C   0  0  0  0  0  0  0  0  0  0  0  0
    8.6738  -18.1684   24.0135 O   0  0  0  0  0  0  0  0  0  0  0  0
    8.1472  -14.8087   26.5442 C   0  0  0  0  0  0  0  0  0  0  0  0
    8.1054  -13.4345   26.5232 C   0  0  0  0  0  0  0  0  0  0  0  0
    7.6513  -16.3300   23.1455 N   0  0  0  0  0  0  0  0  0  0  0  0
    8.7334  -16.1527   22.1587 C   0  0  1  0  0  0  0  0  0  0  0  0
    8.1344  -15.5942   20.8854 C   0  0  0  0  0  0  0  0  0  0  0  0
    6.3474  -15.4815   20.9932 S   0  0  0  0  0  0  0  0  0  0  0  0
    9.7914  -15.3037   22.7294 C   0  0  0  0  0  0  0  0  0  0  0  0
    9.4877  -14.2075   23.2962 O   0  0  0  0  0  0  0  0  0  0  0  0
   11.6558  -14.4516   29.1741 C   0  0  0  0  0  0  0  0  0  0  0  0
   10.7461  -14.9016   27.6589 S   0  0  0  0  0  0  0  0  0  0  0  0
   11.9287  -14.9927   26.2569 C   0  0  0  0  0  0  0  0  0  0  0  0
   11.1833  -15.2614   24.9912 C   0  0  0  0  0  0  0  0  0  0  0  0
   12.0557  -15.3771   23.7656 C   0  0  2  0  0  0  0  0  0  0  0  0
   11.1450  -15.6881   22.6620 N   0  0  0  0  0  0  0  0  0  0  0  0
   13.0037  -16.4838   23.9041 C   0  0  0  0  0  0  0  0  0  0  0  0
   12.7240  -17.6650   23.5498 O   0  0  0  0  0  0  0  0  0  0  0  0
   14.2593  -16.2704   24.4366 O   0  0  0  0  0  0  0  0  0  0  0  0
  2  1  1  0
  2 12  2  0
  3  2  1  0
  4  3  2  0
  4  5  1  0
  5 11  2  0
  6  7  1  0
  6  5  1  0
  7  9  1  0
  7  8  1  1
  9 10  2  0
  9 13  1  0
 11 12  1  0
 13 14  1  0
 14 17  1  0
 14 15  1  6
 16 15  1  0
 17 18  2  0
 20 21  1  0
 20 19  1  0
 22 21  1  0
 23 22  1  1
 24 23  1  0
 24 17  1  0
 25 27  1  0
 25 23  1  0
 26 25  2  0
M  END
$$$$
