YCM.pdb
     RDKit          3D

 27 27  0  0  1  0  0  0  0  0999 V2000
    7.9702  -12.6896   16.1845 O   0  0  0  0  0  0  0  0  0  0  0  0
    7.8048  -13.2561   17.4371 C   0  0  0  0  0  0  0  0  0  0  0  0
    8.2074  -12.5466   18.5527 C   0  0  0  0  0  0  0  0  0  0  0  0
    8.0531  -13.0889   19.8059 C   0  0  0  0  0  0  0  0  0  0  0  0
    7.4990  -14.3462   20.0146 C   0  0  0  0  0  0  0  0  0  0  0  0
    7.3477  -14.9066   21.3864 C   0  0  0  0  0  0  0  0  0  0  0  0
    8.2692  -16.1104   21.5730 C   0  0  2  0  0  0  0  0  0  0  0  0
    7.7735  -17.1384   20.6700 N   0  0  0  0  0  0  0  0  0  0  0  0
    8.2427  -16.5797   22.9821 C   0  0  0  0  0  0  0  0  0  0  0  0
    7.3056  -17.2733   23.4478 O   0  0  0  0  0  0  0  0  0  0  0  0
    7.0991  -15.0489   18.8938 C   0  0  0  0  0  0  0  0  0  0  0  0
    7.2549  -14.5032   17.6413 C   0  0  0  0  0  0  0  0  0  0  0  0
    9.2959  -16.2568   23.8761 N   0  0  0  0  0  0  0  0  0  0  0  0
    9.3982  -16.9118   25.1939 C   0  0  1  0  0  0  0  0  0  0  0  0
    9.3780  -18.4114   24.9868 C   0  0  0  0  0  0  0  0  0  0  0  0
    9.5718  -19.2923   26.5374 S   0  0  0  0  0  0  0  0  0  0  0  0
   10.6013  -16.4337   25.8938 C   0  0  0  0  0  0  0  0  0  0  0  0
   11.4287  -17.2697   26.3753 O   0  0  0  0  0  0  0  0  0  0  0  0
    6.0369  -11.4109   26.3603 C   0  0  0  0  0  0  0  0  0  0  0  0
    7.6944  -11.6993   27.0641 S   0  0  0  0  0  0  0  0  0  0  0  0
    7.8328  -13.4607   27.5646 C   0  0  0  0  0  0  0  0  0  0  0  0
    8.7338  -14.1805   26.6158 C   0  0  0  0  0  0  0  0  0  0  0  0
   10.1681  -14.2823   27.0729 C   0  0  2  0  0  0  0  0  0  0  0  0
   10.8571  -15.0559   26.0380 N   0  0  0  0  0  0  0  0  0  0  0  0
   10.2614  -15.0186   28.3346 C   0  0  0  0  0  0  0  0  0  0  0  0
   10.8859  -14.5689   29.3379 O   0  0  0  0  0  0  0  0  0  0  0  0
    9.6588  -16.2528   28.4735 O   0  0  0  0  0  0  0  0  0  0  0  0
  2  1  1  0
  2 12  2  0
  3  2  1  0
  4  3  2  0
  4  5  1  0
  5 11  2  0
  6  7  1  0
  6  5  1  0
  7  9  1  0
  7  8  1  6
  9 10  2  0
  9 13  1  0
 11 12  1  0
 13 14  1  0
 14 17  1  0
 14 15  1  6
 16 15  1  0
 17 18  2  0
 20 21  1  0
 20 19  1  0
 22 21  1  0
 23 22  1  6
 24 23  1  0
 24 17  1  0
 25 27  1  0
 25 23  1  0
 26 25  2  0
M  END
$$$$
