YCM.pdb
     RDKit          3D

 27 27  0  0  1  0  0  0  0  0999 V2000
    4.8092  -10.1022   25.7816 O   0  0  0  0  0  0  0  0  0  0  0  0
    5.5752  -11.2524   25.6940 C   0  0  0  0  0  0  0  0  0  0  0  0
    5.3204  -12.2959   26.5636 C   0  0  0  0  0  0  0  0  0  0  0  0
    6.0679  -13.4470   26.4952 C   0  0  0  0  0  0  0  0  0  0  0  0
    7.0931  -13.6202   25.5730 C   0  0  0  0  0  0  0  0  0  0  0  0
    7.8865  -14.8800   25.5263 C   0  0  0  0  0  0  0  0  0  0  0  0
    7.3668  -15.7942   24.4186 C   0  0  2  0  0  0  0  0  0  0  0  0
    6.2390  -16.5150   24.9900 N   0  0  0  0  0  0  0  0  0  0  0  0
    8.4276  -16.7322   23.9696 C   0  0  0  0  0  0  0  0  0  0  0  0
    8.6090  -17.8548   24.5015 O   0  0  0  0  0  0  0  0  0  0  0  0
    7.3412  -12.5720   24.7072 C   0  0  0  0  0  0  0  0  0  0  0  0
    6.5913  -11.4216   24.7785 C   0  0  0  0  0  0  0  0  0  0  0  0
    9.2956  -16.3905   22.9007 N   0  0  0  0  0  0  0  0  0  0  0  0
   10.5252  -17.1648   22.6467 C   0  0  1  0  0  0  0  0  0  0  0  0
   11.0472  -16.7990   21.2734 C   0  0  0  0  0  0  0  0  0  0  0  0
   12.4589  -17.8068   20.8162 S   0  0  0  0  0  0  0  0  0  0  0  0
   11.4962  -16.9225   23.7255 C   0  0  0  0  0  0  0  0  0  0  0  0
   12.0486  -15.7833   23.8371 O   0  0  0  0  0  0  0  0  0  0  0  0
   10.4522  -14.3147   27.8045 C   0  0  0  0  0  0  0  0  0  0  0  0
   11.0980  -15.7962   28.6495 S   0  0  0  0  0  0  0  0  0  0  0  0
   12.5758  -16.4037   27.7443 C   0  0  0  0  0  0  0  0  0  0  0  0
   12.2158  -17.6234   26.9615 C   0  0  0  0  0  0  0  0  0  0  0  0
   12.8988  -17.7284   25.6202 C   0  0  2  0  0  0  0  0  0  0  0  0
   11.8249  -17.9364   24.6468 N   0  0  0  0  0  0  0  0  0  0  0  0
   13.7877  -18.8907   25.5783 C   0  0  0  0  0  0  0  0  0  0  0  0
   13.4992  -19.9426   24.9386 O   0  0  0  0  0  0  0  0  0  0  0  0
   14.9940  -18.8766   26.2491 O   0  0  0  0  0  0  0  0  0  0  0  0
  2  1  1  0
  2 12  2  0
  3  2  1  0
  4  3  2  0
  4  5  1  0
  5 11  2  0
  6  7  1  0
  6  5  1  0
  7  9  1  0
  7  8  1  1
  9 10  2  0
  9 13  1  0
 11 12  1  0
 13 14  1  0
 14 17  1  0
 14 15  1  6
 16 15  1  0
 17 18  2  0
 20 21  1  0
 20 19  1  0
 22 21  1  0
 23 22  1  1
 24 23  1  0
 24 17  1  0
 25 27  1  0
 25 23  1  0
 26 25  2  0
M  END
$$$$
