YCM.pdb
     RDKit          3D

 27 27  0  0  1  0  0  0  0  0999 V2000
    7.4322  -12.8902   26.9887 O   0  0  0  0  0  0  0  0  0  0  0  0
    7.1480  -14.1599   26.5150 C   0  0  0  0  0  0  0  0  0  0  0  0
    8.0766  -15.1671   26.6966 C   0  0  0  0  0  0  0  0  0  0  0  0
    7.8161  -16.4349   26.2349 C   0  0  0  0  0  0  0  0  0  0  0  0
    6.6369  -16.7648   25.5777 C   0  0  0  0  0  0  0  0  0  0  0  0
    6.3860  -18.1486   25.0872 C   0  0  0  0  0  0  0  0  0  0  0  0
    6.2833  -18.1615   23.5633 C   0  0  2  0  0  0  0  0  0  0  0  0
    5.9665  -19.5332   23.1945 N   0  0  0  0  0  0  0  0  0  0  0  0
    7.5619  -17.7245   22.9462 C   0  0  0  0  0  0  0  0  0  0  0  0
    8.5400  -18.4968   22.7948 O   0  0  0  0  0  0  0  0  0  0  0  0
    5.7136  -15.7518   25.4003 C   0  0  0  0  0  0  0  0  0  0  0  0
    5.9776  -14.4844   25.8638 C   0  0  0  0  0  0  0  0  0  0  0  0
    7.7327  -16.3906   22.4940 N   0  0  0  0  0  0  0  0  0  0  0  0
    8.9551  -15.9856   21.7745 C   0  0  1  0  0  0  0  0  0  0  0  0
    8.6703  -14.6968   21.0330 C   0  0  0  0  0  0  0  0  0  0  0  0
    8.3946  -13.3333   22.1654 S   0  0  0  0  0  0  0  0  0  0  0  0
   10.0766  -15.8804   22.7216 C   0  0  0  0  0  0  0  0  0  0  0  0
   10.9853  -15.0118   22.5340 O   0  0  0  0  0  0  0  0  0  0  0  0
   11.0604  -12.1778   27.7545 C   0  0  0  0  0  0  0  0  0  0  0  0
   10.1698  -13.7569   27.9515 S   0  0  0  0  0  0  0  0  0  0  0  0
   11.0886  -15.0759   27.0634 C   0  0  0  0  0  0  0  0  0  0  0  0
   10.4170  -15.3623   25.7608 C   0  0  0  0  0  0  0  0  0  0  0  0
   11.0941  -16.4241   24.9297 C   0  0  2  0  0  0  0  0  0  0  0  0
   10.1606  -16.7285   23.8434 N   0  0  0  0  0  0  0  0  0  0  0  0
   11.3014  -17.6439   25.7119 C   0  0  0  0  0  0  0  0  0  0  0  0
   12.3759  -17.8742   26.3373 O   0  0  0  0  0  0  0  0  0  0  0  0
   10.3111  -18.6020   25.7941 O   0  0  0  0  0  0  0  0  0  0  0  0
  2  1  1  0
  2 12  2  0
  3  2  1  0
  4  3  2  0
  4  5  1  0
  5 11  2  0
  6  7  1  0
  6  5  1  0
  7  9  1  0
  7  8  1  6
  9 10  2  0
  9 13  1  0
 11 12  1  0
 13 14  1  0
 14 17  1  0
 14 15  1  1
 16 15  1  0
 17 18  2  0
 20 21  1  0
 20 19  1  0
 22 21  1  0
 23 22  1  1
 24 23  1  0
 24 17  1  0
 25 27  1  0
 25 23  1  0
 26 25  2  0
M  END
$$$$
