YCM.pdb
     RDKit          3D

 27 27  0  0  1  0  0  0  0  0999 V2000
    0.6097  -26.0553   27.4751 O   0  0  0  0  0  0  0  0  0  0  0  0
    1.6933  -25.3168   27.0303 C   0  0  0  0  0  0  0  0  0  0  0  0
    1.4846  -24.0314   26.5678 C   0  0  0  0  0  0  0  0  0  0  0  0
    2.5451  -23.2799   26.1214 C   0  0  0  0  0  0  0  0  0  0  0  0
    3.8498  -23.7583   26.1107 C   0  0  0  0  0  0  0  0  0  0  0  0
    4.9772  -22.9187   25.6181 C   0  0  0  0  0  0  0  0  0  0  0  0
    4.9142  -22.7839   24.0979 C   0  0  2  0  0  0  0  0  0  0  0  0
    5.1612  -24.1161   23.5667 N   0  0  0  0  0  0  0  0  0  0  0  0
    5.9335  -21.8183   23.6127 C   0  0  0  0  0  0  0  0  0  0  0  0
    7.1214  -22.1486   23.3764 O   0  0  0  0  0  0  0  0  0  0  0  0
    4.0497  -25.0445   26.5750 C   0  0  0  0  0  0  0  0  0  0  0  0
    2.9863  -25.7936   27.0209 C   0  0  0  0  0  0  0  0  0  0  0  0
    5.5992  -20.4572   23.3925 N   0  0  0  0  0  0  0  0  0  0  0  0
    6.6172  -19.4914   22.9377 C   0  0  1  0  0  0  0  0  0  0  0  0
    5.9212  -18.3847   22.1743 C   0  0  0  0  0  0  0  0  0  0  0  0
    4.4401  -18.9805   21.3563 S   0  0  0  0  0  0  0  0  0  0  0  0
    7.3934  -19.0084   24.0909 C   0  0  0  0  0  0  0  0  0  0  0  0
    6.7920  -18.5619   25.1177 O   0  0  0  0  0  0  0  0  0  0  0  0
   10.3733  -21.1487   30.1774 C   0  0  0  0  0  0  0  0  0  0  0  0
    9.3737  -21.1513   28.6520 S   0  0  0  0  0  0  0  0  0  0  0  0
    9.9575  -19.8010   27.5529 C   0  0  0  0  0  0  0  0  0  0  0  0
    9.1556  -19.8003   26.2931 C   0  0  0  0  0  0  0  0  0  0  0  0
    9.5549  -18.7371   25.2997 C   0  0  2  0  0  0  0  0  0  0  0  0
    8.8019  -19.0355   24.0798 N   0  0  0  0  0  0  0  0  0  0  0  0
   10.9830  -18.8239   24.9902 C   0  0  0  0  0  0  0  0  0  0  0  0
   11.4685  -19.7519   24.2817 O   0  0  0  0  0  0  0  0  0  0  0  0
   11.8645  -17.8767   25.4714 O   0  0  0  0  0  0  0  0  0  0  0  0
  2  1  1  0
  2 12  2  0
  3  2  1  0
  4  3  2  0
  4  5  1  0
  5 11  2  0
  6  7  1  0
  6  5  1  0
  7  9  1  0
  7  8  1  6
  9 10  2  0
  9 13  1  0
 11 12  1  0
 13 14  1  0
 14 17  1  0
 14 15  1  1
 16 15  1  0
 17 18  2  0
 20 21  1  0
 20 19  1  0
 22 21  1  0
 23 22  1  1
 24 23  1  0
 24 17  1  0
 25 27  1  0
 25 23  1  0
 26 25  2  0
M  END
$$$$
