YCM.pdb
     RDKit          3D

 27 27  0  0  1  0  0  0  0  0999 V2000
   -0.2951  -21.0673   22.8225 O   0  0  0  0  0  0  0  0  0  0  0  0
    1.0002  -20.5779   22.8285 C   0  0  0  0  0  0  0  0  0  0  0  0
    1.2798  -19.4113   22.1425 C   0  0  0  0  0  0  0  0  0  0  0  0
    2.5581  -18.9069   22.1346 C   0  0  0  0  0  0  0  0  0  0  0  0
    3.6111  -19.5254   22.7978 C   0  0  0  0  0  0  0  0  0  0  0  0
    4.9863  -18.9539   22.7678 C   0  0  0  0  0  0  0  0  0  0  0  0
    5.4518  -18.7659   21.3252 C   0  0  2  0  0  0  0  0  0  0  0  0
    5.4369  -20.0908   20.7233 N   0  0  0  0  0  0  0  0  0  0  0  0
    6.8149  -18.1766   21.2850 C   0  0  0  0  0  0  0  0  0  0  0  0
    7.8557  -18.8779   21.2571 O   0  0  0  0  0  0  0  0  0  0  0  0
    3.3230  -20.6915   23.4814 C   0  0  0  0  0  0  0  0  0  0  0  0
    2.0427  -21.1933   23.4872 C   0  0  0  0  0  0  0  0  0  0  0  0
    6.9990  -16.7698   21.2762 N   0  0  0  0  0  0  0  0  0  0  0  0
    8.3477  -16.1834   21.1618 C   0  0  1  0  0  0  0  0  0  0  0  0
    8.4234  -15.4041   19.8660 C   0  0  0  0  0  0  0  0  0  0  0  0
    7.0584  -14.2506   19.7113 S   0  0  0  0  0  0  0  0  0  0  0  0
    8.6374  -15.3687   22.3525 C   0  0  0  0  0  0  0  0  0  0  0  0
    8.6744  -14.1016   22.2600 O   0  0  0  0  0  0  0  0  0  0  0  0
    6.5325  -11.3651   27.7872 C   0  0  0  0  0  0  0  0  0  0  0  0
    6.3922  -12.5360   26.3961 S   0  0  0  0  0  0  0  0  0  0  0  0
    7.9735  -13.4542   26.2263 C   0  0  0  0  0  0  0  0  0  0  0  0
    7.9125  -14.3361   25.0227 C   0  0  0  0  0  0  0  0  0  0  0  0
    9.1624  -15.1450   24.7776 C   0  0  2  0  0  0  0  0  0  0  0  0
    8.8727  -15.9713   23.6040 N   0  0  0  0  0  0  0  0  0  0  0  0
    9.4374  -16.0335   25.9079 C   0  0  0  0  0  0  0  0  0  0  0  0
    9.2367  -17.2808   25.8548 O   0  0  0  0  0  0  0  0  0  0  0  0
    9.9346  -15.5291   27.0927 O   0  0  0  0  0  0  0  0  0  0  0  0
  2  1  1  0
  2 12  2  0
  3  2  1  0
  4  3  2  0
  4  5  1  0
  5 11  2  0
  6  7  1  0
  6  5  1  0
  7  9  1  0
  7  8  1  1
  9 10  2  0
  9 13  1  0
 11 12  1  0
 13 14  1  0
 14 17  1  0
 14 15  1  6
 16 15  1  0
 17 18  2  0
 20 21  1  0
 20 19  1  0
 22 21  1  0
 23 22  1  1
 24 23  1  0
 24 17  1  0
 25 27  1  0
 25 23  1  0
 26 25  2  0
M  END
$$$$
