YCM.pdb
     RDKit          3D

 27 27  0  0  1  0  0  0  0  0999 V2000
    7.6238  -26.6929   23.3282 O   0  0  0  0  0  0  0  0  0  0  0  0
    8.1277  -25.4032   23.3188 C   0  0  0  0  0  0  0  0  0  0  0  0
    7.2779  -24.3489   23.5948 C   0  0  0  0  0  0  0  0  0  0  0  0
    7.7558  -23.0605   23.5911 C   0  0  0  0  0  0  0  0  0  0  0  0
    9.0836  -22.7553   23.3170 C   0  0  0  0  0  0  0  0  0  0  0  0
    9.5696  -21.3473   23.3188 C   0  0  0  0  0  0  0  0  0  0  0  0
    8.8704  -20.5427   22.2248 C   0  0  2  0  0  0  0  0  0  0  0  0
    9.2780  -21.1429   20.9632 N   0  0  0  0  0  0  0  0  0  0  0  0
    9.2674  -19.1127   22.2884 C   0  0  0  0  0  0  0  0  0  0  0  0
   10.1625  -18.6247   21.5557 O   0  0  0  0  0  0  0  0  0  0  0  0
    9.9266  -23.8153   23.0422 C   0  0  0  0  0  0  0  0  0  0  0  0
    9.4450  -25.1033   23.0468 C   0  0  0  0  0  0  0  0  0  0  0  0
    8.6387  -18.2231   23.1974 N   0  0  0  0  0  0  0  0  0  0  0  0
    9.0689  -16.8159   23.2997 C   0  0  1  0  0  0  0  0  0  0  0  0
    7.8364  -15.9367   23.3035 C   0  0  0  0  0  0  0  0  0  0  0  0
    6.6906  -16.4156   24.5978 S   0  0  0  0  0  0  0  0  0  0  0  0
    9.9162  -16.6411   24.4903 C   0  0  0  0  0  0  0  0  0  0  0  0
    9.6491  -17.2778   25.5574 O   0  0  0  0  0  0  0  0  0  0  0  0
    9.1886  -15.1864   29.8744 C   0  0  0  0  0  0  0  0  0  0  0  0
   10.2762  -13.9305   29.1224 S   0  0  0  0  0  0  0  0  0  0  0  0
   11.4955  -14.7696   28.0354 C   0  0  0  0  0  0  0  0  0  0  0  0
   10.9540  -14.8501   26.6460 C   0  0  0  0  0  0  0  0  0  0  0  0
   11.8396  -15.5883   25.6727 C   0  0  2  0  0  0  0  0  0  0  0  0
   11.0289  -15.7774   24.4682 N   0  0  0  0  0  0  0  0  0  0  0  0
   12.2006  -16.9073   26.1947 C   0  0  0  0  0  0  0  0  0  0  0  0
   13.2012  -17.0890   26.9462 O   0  0  0  0  0  0  0  0  0  0  0  0
   11.4458  -18.0187   25.8774 O   0  0  0  0  0  0  0  0  0  0  0  0
  2  1  1  0
  2 12  2  0
  3  2  1  0
  4  3  2  0
  4  5  1  0
  5 11  2  0
  6  7  1  0
  6  5  1  0
  7  9  1  0
  7  8  1  6
  9 10  2  0
  9 13  1  0
 11 12  1  0
 13 14  1  0
 14 17  1  0
 14 15  1  1
 16 15  1  0
 17 18  2  0
 20 21  1  0
 20 19  1  0
 22 21  1  0
 23 22  1  1
 24 23  1  0
 24 17  1  0
 25 27  1  0
 25 23  1  0
 26 25  2  0
M  END
$$$$
