YCM.pdb
     RDKit          3D

 27 27  0  0  1  0  0  0  0  0999 V2000
    5.6210  -24.4852   25.6115 O   0  0  0  0  0  0  0  0  0  0  0  0
    6.0841  -23.1917   25.4390 C   0  0  0  0  0  0  0  0  0  0  0  0
    5.1718  -22.1556   25.3744 C   0  0  0  0  0  0  0  0  0  0  0  0
    5.6084  -20.8638   25.2037 C   0  0  0  0  0  0  0  0  0  0  0  0
    6.9544  -20.5373   25.0897 C   0  0  0  0  0  0  0  0  0  0  0  0
    7.3948  -19.1267   24.9030 C   0  0  0  0  0  0  0  0  0  0  0  0
    6.6738  -18.4984   23.7120 C   0  0  2  0  0  0  0  0  0  0  0  0
    6.9092  -19.3891   22.5855 N   0  0  0  0  0  0  0  0  0  0  0  0
    7.2015  -17.1375   23.4358 C   0  0  0  0  0  0  0  0  0  0  0  0
    8.1077  -16.9200   22.5946 O   0  0  0  0  0  0  0  0  0  0  0  0
    7.8599  -21.5792   25.1554 C   0  0  0  0  0  0  0  0  0  0  0  0
    7.4196  -22.8706   25.3263 C   0  0  0  0  0  0  0  0  0  0  0  0
    6.6928  -16.0065   24.1249 N   0  0  0  0  0  0  0  0  0  0  0  0
    7.3027  -14.6750   23.9488 C   0  0  1  0  0  0  0  0  0  0  0  0
    6.3867  -13.6420   24.5701 C   0  0  0  0  0  0  0  0  0  0  0  0
    6.2634  -13.8557   26.3469 S   0  0  0  0  0  0  0  0  0  0  0  0
    8.6599  -14.6715   24.5177 C   0  0  0  0  0  0  0  0  0  0  0  0
    9.3527  -13.6062   24.4982 O   0  0  0  0  0  0  0  0  0  0  0  0
   10.1746  -13.2632   29.6174 C   0  0  0  0  0  0  0  0  0  0  0  0
   10.9346  -14.9139   29.7702 S   0  0  0  0  0  0  0  0  0  0  0  0
   11.4005  -15.5141   28.0983 C   0  0  0  0  0  0  0  0  0  0  0  0
   10.2377  -15.3678   27.1729 C   0  0  0  0  0  0  0  0  0  0  0  0
   10.5156  -15.7867   25.7503 C   0  0  2  0  0  0  0  0  0  0  0  0
    9.2087  -15.8352   25.0917 N   0  0  0  0  0  0  0  0  0  0  0  0
   11.1011  -17.1276   25.7074 C   0  0  0  0  0  0  0  0  0  0  0  0
   10.4116  -18.1618   25.4745 O   0  0  0  0  0  0  0  0  0  0  0  0
   12.4519  -17.3113   25.9243 O   0  0  0  0  0  0  0  0  0  0  0  0
  2  1  1  0
  2 12  2  0
  3  2  1  0
  4  3  2  0
  4  5  1  0
  5 11  2  0
  6  7  1  0
  6  5  1  0
  7  9  1  0
  7  8  1  6
  9 10  2  0
  9 13  1  0
 11 12  1  0
 13 14  1  0
 14 17  1  0
 14 15  1  1
 16 15  1  0
 17 18  2  0
 20 21  1  0
 20 19  1  0
 22 21  1  0
 23 22  1  1
 24 23  1  0
 24 17  1  0
 25 27  1  0
 25 23  1  0
 26 25  2  0
M  END
$$$$
