YCM.pdb
     RDKit          3D

 27 27  0  0  1  0  0  0  0  0999 V2000
    8.6952  -13.4073   16.0767 O   0  0  0  0  0  0  0  0  0  0  0  0
    8.3268  -13.7408   17.3691 C   0  0  0  0  0  0  0  0  0  0  0  0
    9.0598  -14.6936   18.0508 C   0  0  0  0  0  0  0  0  0  0  0  0
    8.7127  -15.0405   19.3344 C   0  0  0  0  0  0  0  0  0  0  0  0
    7.6349  -14.4680   19.9993 C   0  0  0  0  0  0  0  0  0  0  0  0
    7.2835  -14.8679   21.3904 C   0  0  0  0  0  0  0  0  0  0  0  0
    7.2091  -16.3894   21.5028 C   0  0  2  0  0  0  0  0  0  0  0  0
    5.8544  -16.7541   21.1161 N   0  0  0  0  0  0  0  0  0  0  0  0
    7.5047  -16.8293   22.8906 C   0  0  0  0  0  0  0  0  0  0  0  0
    6.6259  -16.8857   23.7853 O   0  0  0  0  0  0  0  0  0  0  0  0
    6.9074  -13.5161   19.3105 C   0  0  0  0  0  0  0  0  0  0  0  0
    7.2576  -13.1713   18.0262 C   0  0  0  0  0  0  0  0  0  0  0  0
    8.8180  -17.2111   23.2682 N   0  0  0  0  0  0  0  0  0  0  0  0
    9.1276  -17.5810   24.6622 C   0  0  1  0  0  0  0  0  0  0  0  0
    9.8617  -18.9051   24.6553 C   0  0  0  0  0  0  0  0  0  0  0  0
   10.7161  -19.1918   26.2062 S   0  0  0  0  0  0  0  0  0  0  0  0
    9.8839  -16.4959   25.3074 C   0  0  0  0  0  0  0  0  0  0  0  0
   10.8891  -15.9870   24.7192 O   0  0  0  0  0  0  0  0  0  0  0  0
    6.6913  -12.0917   26.1759 C   0  0  0  0  0  0  0  0  0  0  0  0
    7.1478  -12.3752   27.9187 S   0  0  0  0  0  0  0  0  0  0  0  0
    8.1533  -13.9077   28.0312 C   0  0  0  0  0  0  0  0  0  0  0  0
    9.4144  -13.7363   27.2499 C   0  0  0  0  0  0  0  0  0  0  0  0
   10.3015  -14.9565   27.2212 C   0  0  2  0  0  0  0  0  0  0  0  0
    9.5095  -16.0039   26.5733 N   0  0  0  0  0  0  0  0  0  0  0  0
   10.6233  -15.3982   28.5792 C   0  0  0  0  0  0  0  0  0  0  0  0
   10.1682  -16.4714   29.0692 O   0  0  0  0  0  0  0  0  0  0  0  0
   11.4504  -14.6427   29.3858 O   0  0  0  0  0  0  0  0  0  0  0  0
  2  1  1  0
  2 12  2  0
  3  2  1  0
  4  3  2  0
  4  5  1  0
  5 11  2  0
  6  7  1  0
  6  5  1  0
  7  9  1  0
  7  8  1  1
  9 10  2  0
  9 13  1  0
 11 12  1  0
 13 14  1  0
 14 17  1  0
 14 15  1  6
 16 15  1  0
 17 18  2  0
 20 21  1  0
 20 19  1  0
 22 21  1  0
 23 22  1  1
 24 23  1  0
 24 17  1  0
 25 27  1  0
 25 23  1  0
 26 25  2  0
M  END
$$$$
