YCM.pdb
     RDKit          3D

 27 27  0  0  1  0  0  0  0  0999 V2000
   12.7576  -25.2524   24.2899 O   0  0  0  0  0  0  0  0  0  0  0  0
   11.5565  -24.5839   24.1235 C   0  0  0  0  0  0  0  0  0  0  0  0
   10.3735  -25.2775   24.2943 C   0  0  0  0  0  0  0  0  0  0  0  0
    9.1695  -24.6346   24.1342 C   0  0  0  0  0  0  0  0  0  0  0  0
    9.0779  -23.2886   23.8009 C   0  0  0  0  0  0  0  0  0  0  0  0
    7.7567  -22.6217   23.6324 C   0  0  0  0  0  0  0  0  0  0  0  0
    7.3432  -21.9273   24.9285 C   0  0  2  0  0  0  0  0  0  0  0  0
    6.0803  -22.5337   25.3228 N   0  0  0  0  0  0  0  0  0  0  0  0
    7.1899  -20.4651   24.7161 C   0  0  0  0  0  0  0  0  0  0  0  0
    6.2200  -19.8120   25.1730 O   0  0  0  0  0  0  0  0  0  0  0  0
   10.2656  -22.6024   23.6320 C   0  0  0  0  0  0  0  0  0  0  0  0
   11.4686  -23.2488   23.7930 C   0  0  0  0  0  0  0  0  0  0  0  0
    8.1524  -19.7333   23.9738 N   0  0  0  0  0  0  0  0  0  0  0  0
    8.0525  -18.2674   23.8422 C   0  0  1  0  0  0  0  0  0  0  0  0
    8.1117  -17.6566   25.2263 C   0  0  0  0  0  0  0  0  0  0  0  0
    9.7002  -17.9487   26.0069 S   0  0  0  0  0  0  0  0  0  0  0  0
    9.1070  -17.7770   22.9404 C   0  0  0  0  0  0  0  0  0  0  0  0
   10.2613  -18.3081   22.9669 O   0  0  0  0  0  0  0  0  0  0  0  0
    7.3986  -11.4224   20.4469 C   0  0  0  0  0  0  0  0  0  0  0  0
    8.0321  -12.9133   19.6091 S   0  0  0  0  0  0  0  0  0  0  0  0
    8.7753  -14.0320   20.8615 C   0  0  0  0  0  0  0  0  0  0  0  0
    9.2431  -15.2850   20.1972 C   0  0  0  0  0  0  0  0  0  0  0  0
    9.9088  -16.2718   21.1244 C   0  0  2  0  0  0  0  0  0  0  0  0
    8.8579  -16.7239   22.0384 N   0  0  0  0  0  0  0  0  0  0  0  0
   10.9548  -15.6201   21.9142 C   0  0  0  0  0  0  0  0  0  0  0  0
   10.7665  -15.2363   23.1042 O   0  0  0  0  0  0  0  0  0  0  0  0
   12.2061  -15.3983   21.3752 O   0  0  0  0  0  0  0  0  0  0  0  0
  2  1  1  0
  2 12  2  0
  3  2  1  0
  4  3  2  0
  4  5  1  0
  5 11  2  0
  6  7  1  0
  6  5  1  0
  7  9  1  0
  7  8  1  6
  9 10  2  0
  9 13  1  0
 11 12  1  0
 13 14  1  0
 14 17  1  0
 14 15  1  1
 16 15  1  0
 17 18  2  0
 20 21  1  0
 20 19  1  0
 22 21  1  0
 23 22  1  6
 24 23  1  0
 24 17  1  0
 25 27  1  0
 25 23  1  0
 26 25  2  0
M  END
$$$$
