YCM.pdb
     RDKit          3D

 27 27  0  0  1  0  0  0  0  0999 V2000
    3.1812  -24.7733   22.3426 O   0  0  0  0  0  0  0  0  0  0  0  0
    4.1037  -23.7807   22.6271 C   0  0  0  0  0  0  0  0  0  0  0  0
    3.6706  -22.6156   23.2311 C   0  0  0  0  0  0  0  0  0  0  0  0
    4.5683  -21.6168   23.5228 C   0  0  0  0  0  0  0  0  0  0  0  0
    5.9237  -21.7206   23.2343 C   0  0  0  0  0  0  0  0  0  0  0  0
    6.8706  -20.6183   23.5615 C   0  0  0  0  0  0  0  0  0  0  0  0
    6.4290  -19.3211   22.8869 C   0  0  2  0  0  0  0  0  0  0  0  0
    6.7630  -19.4681   21.4781 N   0  0  0  0  0  0  0  0  0  0  0  0
    7.1288  -18.1538   23.4824 C   0  0  0  0  0  0  0  0  0  0  0  0
    8.2156  -17.7140   23.0335 O   0  0  0  0  0  0  0  0  0  0  0  0
    6.3484  -22.8889   22.6305 C   0  0  0  0  0  0  0  0  0  0  0  0
    5.4475  -23.8863   22.3401 C   0  0  0  0  0  0  0  0  0  0  0  0
    6.5866  -17.4757   24.6045 N   0  0  0  0  0  0  0  0  0  0  0  0
    7.3300  -16.3839   25.2612 C   0  0  1  0  0  0  0  0  0  0  0  0
    6.3349  -15.4677   25.9413 C   0  0  0  0  0  0  0  0  0  0  0  0
    7.1511  -14.0752   26.7241 S   0  0  0  0  0  0  0  0  0  0  0  0
    8.3302  -16.9479   26.1816 C   0  0  0  0  0  0  0  0  0  0  0  0
    8.1665  -18.1147   26.6581 O   0  0  0  0  0  0  0  0  0  0  0  0
   10.4374  -13.1989   29.6224 C   0  0  0  0  0  0  0  0  0  0  0  0
   10.5485  -13.1812   27.8022 S   0  0  0  0  0  0  0  0  0  0  0  0
   11.6170  -14.5710   27.2553 C   0  0  0  0  0  0  0  0  0  0  0  0
   11.2737  -15.8002   28.0308 C   0  0  0  0  0  0  0  0  0  0  0  0
   10.5921  -16.8774   27.2234 C   0  0  2  0  0  0  0  0  0  0  0  0
    9.4770  -16.2144   26.5444 N   0  0  0  0  0  0  0  0  0  0  0  0
   10.0447  -17.9157   28.0981 C   0  0  0  0  0  0  0  0  0  0  0  0
    8.8030  -18.0521   28.2944 O   0  0  0  0  0  0  0  0  0  0  0  0
   10.8825  -18.7976   28.7507 O   0  0  0  0  0  0  0  0  0  0  0  0
  2  1  1  0
  2 12  2  0
  3  2  1  0
  4  3  2  0
  4  5  1  0
  5 11  2  0
  6  7  1  0
  6  5  1  0
  7  9  1  0
  7  8  1  6
  9 10  2  0
  9 13  1  0
 11 12  1  0
 13 14  1  0
 14 17  1  0
 14 15  1  1
 16 15  1  0
 17 18  2  0
 20 21  1  0
 20 19  1  0
 22 21  1  0
 23 22  1  1
 24 23  1  0
 24 17  1  0
 25 27  1  0
 25 23  1  0
 26 25  2  0
M  END
$$$$
