LSD.pdb
     RDKit          3D

 23 22  0  0  1  0  0  0  0  0999 V2000
   19.4422  -12.3134  -19.5670 C   0  0  0  0  0  0  0  0  0  0  0  0
   18.2327  -11.4462  -19.2642 C   0  0  2  0  0  0  0  0  0  0  0  0
   17.8247  -10.6398  -20.4741 C   0  0  0  0  0  0  0  0  0  0  0  0
   18.5745  -10.5268  -18.1270 C   0  0  0  0  0  0  0  0  0  0  0  0
   18.9486  -11.2668  -16.8682 C   0  0  2  0  0  0  0  0  0  0  0  0
   17.8735  -12.0570  -16.3449 N   0  0  0  0  0  0  0  0  0  0  0  0
   19.2866  -10.2173  -15.8492 C   0  0  0  0  0  0  0  0  0  0  0  0
   18.3784   -9.5889  -15.2958 O   0  0  0  0  0  0  0  0  0  0  0  0
   22.5438   -8.3980  -12.9315 O   0  0  0  0  0  0  0  0  0  0  0  0
   22.2755   -9.3870  -13.8643 C   0  0  0  0  0  0  0  0  0  0  0  0
   21.0819   -8.9504  -14.6826 C   0  0  2  0  0  0  0  0  0  0  0  0
   20.6354   -9.9874  -15.5603 N   0  0  0  0  0  0  0  0  0  0  0  0
   21.3403   -7.6636  -15.3804 C   0  0  0  0  0  0  0  0  0  0  0  0
   21.6869   -7.6124  -16.5680 O   0  0  0  0  0  0  0  0  0  0  0  0
   21.1880   -6.4611  -14.6755 N   0  0  0  0  0  0  0  0  0  0  0  0
   21.4271   -5.1477  -15.2982 C   0  0  1  0  0  0  0  0  0  0  0  0
   20.3368   -4.9513  -16.2969 C   0  0  0  0  0  0  0  0  0  0  0  0
   20.3531   -3.6479  -16.9733 C   0  0  0  0  0  0  0  0  0  0  0  0
   21.2994   -2.8349  -16.8196 O   0  0  0  0  0  0  0  0  0  0  0  0
   21.4155   -4.1272  -14.2229 C   0  0  0  0  0  0  0  0  0  0  0  0
   20.8520   -4.3571  -13.1257 O   0  0  0  0  0  0  0  0  0  0  0  0
   19.3063   -3.2799  -17.8106 O   0  0  0  0  0  0  0  0  0  0  0  0
   22.0173   -2.8770  -14.3633 O   0  0  0  0  0  0  0  0  0  0  0  0
  2  1  1  6
  2  4  1  0
  2  3  1  0
  4  5  1  0
  5  7  1  0
  5  6  1  1
  7  8  2  0
  9 10  1  0
 11 10  1  6
 12 11  1  0
 12  7  1  0
 13 11  1  0
 14 13  2  0
 15 13  1  0
 16 15  1  0
 16 17  1  6
 17 18  1  0
 18 19  2  0
 18 22  1  0
 20 16  1  0
 21 20  2  0
 23 20  1  0
M  END
$$$$
