LSD.pdb
     RDKit          3D

 23 22  0  0  1  0  0  0  0  0999 V2000
   26.3464  -16.0868  -14.4042 C   0  0  0  0  0  0  0  0  0  0  0  0
   26.3499  -16.7023  -15.7926 C   0  0  2  0  0  0  0  0  0  0  0  0
   27.5282  -16.2142  -16.6013 C   0  0  0  0  0  0  0  0  0  0  0  0
   25.0675  -16.3357  -16.4828 C   0  0  0  0  0  0  0  0  0  0  0  0
   23.8449  -16.7707  -15.7158 C   0  0  2  0  0  0  0  0  0  0  0  0
   23.6314  -18.1872  -15.7624 N   0  0  0  0  0  0  0  0  0  0  0  0
   22.6740  -16.1068  -16.3809 C   0  0  0  0  0  0  0  0  0  0  0  0
   22.3300  -16.4659  -17.5118 O   0  0  0  0  0  0  0  0  0  0  0  0
   19.7672  -15.5819  -14.6074 O   0  0  0  0  0  0  0  0  0  0  0  0
   19.6886  -14.4238  -15.3642 C   0  0  0  0  0  0  0  0  0  0  0  0
   20.9183  -14.3499  -16.2402 C   0  0  2  0  0  0  0  0  0  0  0  0
   22.0071  -15.0930  -15.6859 N   0  0  0  0  0  0  0  0  0  0  0  0
   21.2739  -12.9432  -16.5635 C   0  0  0  0  0  0  0  0  0  0  0  0
   22.0398  -12.2747  -15.8566 O   0  0  0  0  0  0  0  0  0  0  0  0
   20.7269  -12.3456  -17.7080 N   0  0  0  0  0  0  0  0  0  0  0  0
   20.9792  -10.9370  -18.0575 C   0  0  1  0  0  0  0  0  0  0  0  0
   20.7005  -10.8098  -19.5173 C   0  0  0  0  0  0  0  0  0  0  0  0
   20.9038   -9.4623  -20.0646 C   0  0  0  0  0  0  0  0  0  0  0  0
   21.3642   -8.5262  -19.3632 O   0  0  0  0  0  0  0  0  0  0  0  0
   20.0868  -10.0963  -17.2242 C   0  0  0  0  0  0  0  0  0  0  0  0
   18.9042  -10.4472  -16.9944 O   0  0  0  0  0  0  0  0  0  0  0  0
   20.5866   -9.1893  -21.3901 O   0  0  0  0  0  0  0  0  0  0  0  0
   20.4991   -8.8905  -16.6577 O   0  0  0  0  0  0  0  0  0  0  0  0
  2  1  1  1
  2  4  1  0
  2  3  1  0
  4  5  1  0
  5  7  1  0
  5  6  1  6
  7  8  2  0
  9 10  1  0
 11 10  1  1
 12 11  1  0
 12  7  1  0
 13 11  1  0
 14 13  2  0
 15 13  1  0
 16 15  1  0
 16 17  1  6
 17 18  1  0
 18 19  2  0
 18 22  1  0
 20 16  1  0
 21 20  2  0
 23 20  1  0
M  END
$$$$
