LSD.pdb
     RDKit          3D

 23 22  0  0  1  0  0  0  0  0999 V2000
   27.8659  -17.9517   -5.4028 C   0  0  0  0  0  0  0  0  0  0  0  0
   27.8590  -19.4704   -5.4014 C   0  0  2  0  0  0  0  0  0  0  0  0
   29.0706  -20.0194   -4.6865 C   0  0  0  0  0  0  0  0  0  0  0  0
   27.8420  -19.9510   -6.8241 C   0  0  0  0  0  0  0  0  0  0  0  0
   26.4735  -20.3924   -7.2765 C   0  0  2  0  0  0  0  0  0  0  0  0
   26.3113  -21.8164   -7.2564 N   0  0  0  0  0  0  0  0  0  0  0  0
   26.3335  -19.9335   -8.6991 C   0  0  0  0  0  0  0  0  0  0  0  0
   27.1520  -19.1349   -9.1663 O   0  0  0  0  0  0  0  0  0  0  0  0
   26.4514  -22.2482  -11.2625 O   0  0  0  0  0  0  0  0  0  0  0  0
   26.4029  -20.8948  -11.5563 C   0  0  0  0  0  0  0  0  0  0  0  0
   25.1873  -20.3090  -10.8750 C   0  0  2  0  0  0  0  0  0  0  0  0
   25.2672  -20.4343   -9.4527 N   0  0  0  0  0  0  0  0  0  0  0  0
   23.9272  -20.8578  -11.4414 C   0  0  0  0  0  0  0  0  0  0  0  0
   23.1245  -21.5103  -10.7609 O   0  0  0  0  0  0  0  0  0  0  0  0
   23.6302  -20.6323  -12.7931 N   0  0  0  0  0  0  0  0  0  0  0  0
   22.2489  -20.6263  -13.3052 C   0  0  1  0  0  0  0  0  0  0  0  0
   21.5235  -19.5675  -12.5453 C   0  0  0  0  0  0  0  0  0  0  0  0
   20.0847  -19.4874  -12.8279 C   0  0  0  0  0  0  0  0  0  0  0  0
   19.3538  -20.5101  -12.8323 O   0  0  0  0  0  0  0  0  0  0  0  0
   22.3065  -20.3546  -14.7614 C   0  0  0  0  0  0  0  0  0  0  0  0
   23.1007  -19.5006  -15.2243 O   0  0  0  0  0  0  0  0  0  0  0  0
   19.4914  -18.2603  -13.1006 O   0  0  0  0  0  0  0  0  0  0  0  0
   21.4987  -21.0178  -15.6847 O   0  0  0  0  0  0  0  0  0  0  0  0
  2  1  1  6
  2  4  1  0
  2  3  1  0
  4  5  1  0
  5  7  1  0
  5  6  1  6
  7  8  2  0
  9 10  1  0
 11 10  1  6
 12 11  1  0
 12  7  1  0
 13 11  1  0
 14 13  2  0
 15 13  1  0
 16 15  1  0
 16 17  1  1
 17 18  1  0
 18 19  2  0
 18 22  1  0
 20 16  1  0
 21 20  2  0
 23 20  1  0
M  END
$$$$
