LSD.pdb
     RDKit          3D

 23 22  0  0  1  0  0  0  0  0999 V2000
   26.4528  -22.4800  -11.6644 C   0  0  0  0  0  0  0  0  0  0  0  0
   26.4926  -21.0342  -11.2014 C   0  0  2  0  0  0  0  0  0  0  0  0
   26.0288  -20.9083   -9.7698 C   0  0  0  0  0  0  0  0  0  0  0  0
   25.6082  -20.2185  -12.1002 C   0  0  0  0  0  0  0  0  0  0  0  0
   26.0090  -20.3044  -13.5507 C   0  0  2  0  0  0  0  0  0  0  0  0
   27.3279  -19.8000  -13.7961 N   0  0  0  0  0  0  0  0  0  0  0  0
   25.0390  -19.4427  -14.3060 C   0  0  0  0  0  0  0  0  0  0  0  0
   25.1946  -18.2173  -14.3212 O   0  0  0  0  0  0  0  0  0  0  0  0
   22.5058  -21.2005  -17.0514 O   0  0  0  0  0  0  0  0  0  0  0  0
   22.8228  -19.8525  -17.1040 C   0  0  0  0  0  0  0  0  0  0  0  0
   22.9715  -19.3487  -15.6866 C   0  0  2  0  0  0  0  0  0  0  0  0
   23.9811  -20.0680  -14.9736 N   0  0  0  0  0  0  0  0  0  0  0  0
   21.6647  -19.3172  -14.9790 C   0  0  0  0  0  0  0  0  0  0  0  0
   21.2990  -20.2272  -14.2230 O   0  0  0  0  0  0  0  0  0  0  0  0
   20.8106  -18.2216  -15.1691 N   0  0  0  0  0  0  0  0  0  0  0  0
   19.5219  -18.0967  -14.4664 C   0  0  1  0  0  0  0  0  0  0  0  0
   19.1240  -16.6629  -14.5696 C   0  0  0  0  0  0  0  0  0  0  0  0
   17.8614  -16.3277  -13.8988 C   0  0  0  0  0  0  0  0  0  0  0  0
   17.2904  -17.1349  -13.1225 O   0  0  0  0  0  0  0  0  0  0  0  0
   18.5574  -19.0119  -15.1221 C   0  0  0  0  0  0  0  0  0  0  0  0
   17.7937  -19.7363  -14.4393 O   0  0  0  0  0  0  0  0  0  0  0  0
   17.2617  -15.0918  -14.1112 O   0  0  0  0  0  0  0  0  0  0  0  0
   18.4435  -19.1205  -16.5078 O   0  0  0  0  0  0  0  0  0  0  0  0
  2  1  1  6
  2  4  1  0
  2  3  1  0
  4  5  1  0
  5  7  1  0
  5  6  1  1
  7  8  2  0
  9 10  1  0
 11 10  1  6
 12 11  1  0
 12  7  1  0
 13 11  1  0
 14 13  2  0
 15 13  1  0
 16 15  1  0
 16 17  1  6
 17 18  1  0
 18 19  2  0
 18 22  1  0
 20 16  1  0
 21 20  2  0
 23 20  1  0
M  END
$$$$
