LSD.pdb
     RDKit          3D

 23 22  0  0  1  0  0  0  0  0999 V2000
   17.0154  -15.0404  -20.0289 C   0  0  0  0  0  0  0  0  0  0  0  0
   16.0617  -14.8553  -18.8616 C   0  0  2  0  0  0  0  0  0  0  0  0
   14.6922  -14.4346  -19.3394 C   0  0  0  0  0  0  0  0  0  0  0  0
   16.6266  -13.8113  -17.9417 C   0  0  0  0  0  0  0  0  0  0  0  0
   18.0081  -14.1541  -17.4456 C   0  0  2  0  0  0  0  0  0  0  0  0
   18.0235  -15.2991  -16.5837 N   0  0  0  0  0  0  0  0  0  0  0  0
   18.4728  -12.9708  -16.6469 C   0  0  0  0  0  0  0  0  0  0  0  0
   17.8461  -12.6311  -15.6380 O   0  0  0  0  0  0  0  0  0  0  0  0
   22.0874  -11.0981  -17.7414 O   0  0  0  0  0  0  0  0  0  0  0  0
   21.6985  -11.2207  -16.4170 C   0  0  0  0  0  0  0  0  0  0  0  0
   20.1881  -11.1909  -16.3656 C   0  0  2  0  0  0  0  0  0  0  0  0
   19.6136  -12.2880  -17.0807 N   0  0  0  0  0  0  0  0  0  0  0  0
   19.6538   -9.8706  -16.7909 C   0  0  0  0  0  0  0  0  0  0  0  0
   19.2993   -9.6437  -17.9554 O   0  0  0  0  0  0  0  0  0  0  0  0
   19.5442   -8.8408  -15.8455 N   0  0  0  0  0  0  0  0  0  0  0  0
   18.9992   -7.5151  -16.1851 C   0  0  1  0  0  0  0  0  0  0  0  0
   18.0164   -7.1779  -15.1149 C   0  0  0  0  0  0  0  0  0  0  0  0
   17.4106   -5.8457  -15.2371 C   0  0  0  0  0  0  0  0  0  0  0  0
   17.6378   -5.1042  -16.2264 O   0  0  0  0  0  0  0  0  0  0  0  0
   20.1326   -6.5617  -16.2489 C   0  0  0  0  0  0  0  0  0  0  0  0
   21.2454   -6.8527  -15.7475 O   0  0  0  0  0  0  0  0  0  0  0  0
   16.5603   -5.3692  -14.2461 O   0  0  0  0  0  0  0  0  0  0  0  0
   20.0324   -5.3107  -16.8571 O   0  0  0  0  0  0  0  0  0  0  0  0
  2  1  1  6
  2  4  1  0
  2  3  1  0
  4  5  1  0
  5  7  1  0
  5  6  1  1
  7  8  2  0
  9 10  1  0
 11 10  1  6
 12 11  1  0
 12  7  1  0
 13 11  1  0
 14 13  2  0
 15 13  1  0
 16 15  1  0
 16 17  1  1
 17 18  1  0
 18 19  2  0
 18 22  1  0
 20 16  1  0
 21 20  2  0
 23 20  1  0
M  END
$$$$
