LSD.pdb
     RDKit          3D

 23 22  0  0  1  0  0  0  0  0999 V2000
   29.8348  -16.9913  -18.6913 C   0  0  0  0  0  0  0  0  0  0  0  0
   28.7015  -15.9820  -18.6356 C   0  0  2  0  0  0  0  0  0  0  0  0
   29.2317  -14.5680  -18.6341 C   0  0  0  0  0  0  0  0  0  0  0  0
   27.8995  -16.2299  -17.3902 C   0  0  0  0  0  0  0  0  0  0  0  0
   27.3788  -17.6416  -17.3007 C   0  0  2  0  0  0  0  0  0  0  0  0
   26.7315  -18.0751  -18.5037 N   0  0  0  0  0  0  0  0  0  0  0  0
   26.3560  -17.6428  -16.2017 C   0  0  0  0  0  0  0  0  0  0  0  0
   26.5992  -17.0586  -15.1408 O   0  0  0  0  0  0  0  0  0  0  0  0
   22.6556  -19.5765  -16.8568 O   0  0  0  0  0  0  0  0  0  0  0  0
   22.7516  -18.4679  -16.0310 C   0  0  0  0  0  0  0  0  0  0  0  0
   24.1358  -18.4521  -15.4238 C   0  0  2  0  0  0  0  0  0  0  0  0
   25.1494  -18.3142  -16.4232 N   0  0  0  0  0  0  0  0  0  0  0  0
   24.3517  -19.6185  -14.5279 C   0  0  0  0  0  0  0  0  0  0  0  0
   24.8427  -20.6812  -14.9313 O   0  0  0  0  0  0  0  0  0  0  0  0
   23.9893  -19.5191  -13.1770 N   0  0  0  0  0  0  0  0  0  0  0  0
   24.0794  -20.6618  -12.2516 C   0  0  1  0  0  0  0  0  0  0  0  0
   24.9456  -20.2196  -11.1208 C   0  0  0  0  0  0  0  0  0  0  0  0
   25.2543  -21.2675  -10.1394 C   0  0  0  0  0  0  0  0  0  0  0  0
   24.8614  -22.4519  -10.2912 O   0  0  0  0  0  0  0  0  0  0  0  0
   22.7030  -21.0077  -11.8232 C   0  0  0  0  0  0  0  0  0  0  0  0
   21.8255  -20.1189  -11.7028 O   0  0  0  0  0  0  0  0  0  0  0  0
   25.9989  -20.9674   -9.0047 O   0  0  0  0  0  0  0  0  0  0  0  0
   22.3091  -22.3139  -11.5343 O   0  0  0  0  0  0  0  0  0  0  0  0
  2  1  1  1
  2  4  1  0
  2  3  1  0
  4  5  1  0
  5  7  1  0
  5  6  1  6
  7  8  2  0
  9 10  1  0
 11 10  1  6
 12 11  1  0
 12  7  1  0
 13 11  1  0
 14 13  2  0
 15 13  1  0
 16 15  1  0
 16 17  1  1
 17 18  1  0
 18 19  2  0
 18 22  1  0
 20 16  1  0
 21 20  2  0
 23 20  1  0
M  END
$$$$
