LSD.pdb
     RDKit          3D

 23 22  0  0  1  0  0  0  0  0999 V2000
   28.7180  -18.3508  -16.2902 C   0  0  0  0  0  0  0  0  0  0  0  0
   28.5663  -19.7804  -16.7799 C   0  0  2  0  0  0  0  0  0  0  0  0
   28.3206  -19.8222  -18.2693 C   0  0  0  0  0  0  0  0  0  0  0  0
   27.4167  -20.4169  -16.0528 C   0  0  0  0  0  0  0  0  0  0  0  0
   27.5676  -20.3585  -14.5541 C   0  0  2  0  0  0  0  0  0  0  0  0
   28.5959  -21.2275  -14.0625 N   0  0  0  0  0  0  0  0  0  0  0  0
   26.2598  -20.8237  -13.9822 C   0  0  0  0  0  0  0  0  0  0  0  0
   25.3685  -21.2201  -14.7402 O   0  0  0  0  0  0  0  0  0  0  0  0
   25.9505  -20.1697  -10.1207 O   0  0  0  0  0  0  0  0  0  0  0  0
   25.0482  -21.1748  -10.4305 C   0  0  0  0  0  0  0  0  0  0  0  0
   24.9079  -21.2338  -11.9344 C   0  0  2  0  0  0  0  0  0  0  0  0
   26.0971  -20.7908  -12.5936 N   0  0  0  0  0  0  0  0  0  0  0  0
   23.6845  -20.5269  -12.3961 C   0  0  0  0  0  0  0  0  0  0  0  0
   23.5483  -19.3008  -12.2895 O   0  0  0  0  0  0  0  0  0  0  0  0
   22.6438  -21.2679  -12.9741 N   0  0  0  0  0  0  0  0  0  0  0  0
   21.4107  -20.6359  -13.4740 C   0  0  1  0  0  0  0  0  0  0  0  0
   20.9262  -21.4897  -14.5970 C   0  0  0  0  0  0  0  0  0  0  0  0
   19.6732  -21.0367  -15.2146 C   0  0  0  0  0  0  0  0  0  0  0  0
   19.0689  -20.0117  -14.8090 O   0  0  0  0  0  0  0  0  0  0  0  0
   20.4495  -20.5637  -12.3477 C   0  0  0  0  0  0  0  0  0  0  0  0
   19.5258  -19.7146  -12.3453 O   0  0  0  0  0  0  0  0  0  0  0  0
   19.1205  -21.7424  -16.2769 O   0  0  0  0  0  0  0  0  0  0  0  0
   20.5128  -21.4172  -11.2465 O   0  0  0  0  0  0  0  0  0  0  0  0
  2  1  1  1
  2  4  1  0
  2  3  1  0
  4  5  1  0
  5  7  1  0
  5  6  1  1
  7  8  2  0
  9 10  1  0
 11 10  1  1
 12 11  1  0
 12  7  1  0
 13 11  1  0
 14 13  2  0
 15 13  1  0
 16 15  1  0
 16 17  1  6
 17 18  1  0
 18 19  2  0
 18 22  1  0
 20 16  1  0
 21 20  2  0
 23 20  1  0
M  END
$$$$
