LSD.pdb
     RDKit          3D

 23 22  0  0  1  0  0  0  0  0999 V2000
   24.0855  -15.0463  -14.5734 C   0  0  0  0  0  0  0  0  0  0  0  0
   24.5291  -14.7015  -15.9843 C   0  0  2  0  0  0  0  0  0  0  0  0
   26.0198  -14.4678  -16.0442 C   0  0  0  0  0  0  0  0  0  0  0  0
   23.7985  -13.4668  -16.4284 C   0  0  0  0  0  0  0  0  0  0  0  0
   22.3005  -13.6094  -16.3399 C   0  0  2  0  0  0  0  0  0  0  0  0
   21.7890  -14.6555  -17.1755 N   0  0  0  0  0  0  0  0  0  0  0  0
   21.7258  -12.3102  -16.8256 C   0  0  0  0  0  0  0  0  0  0  0  0
   21.7638  -12.0382  -18.0300 O   0  0  0  0  0  0  0  0  0  0  0  0
   18.5834   -9.0412  -16.6962 O   0  0  0  0  0  0  0  0  0  0  0  0
   19.0685  -10.2422  -16.2039 C   0  0  0  0  0  0  0  0  0  0  0  0
   20.5788  -10.1849  -16.2285 C   0  0  2  0  0  0  0  0  0  0  0  0
   21.1609  -11.4447  -15.8835 N   0  0  0  0  0  0  0  0  0  0  0  0
   21.0952   -9.0572  -15.4091 C   0  0  0  0  0  0  0  0  0  0  0  0
   21.3202   -9.1685  -14.1966 O   0  0  0  0  0  0  0  0  0  0  0  0
   21.3387   -7.8208  -16.0240 N   0  0  0  0  0  0  0  0  0  0  0  0
   21.8469   -6.6569  -15.2776 C   0  0  1  0  0  0  0  0  0  0  0  0
   22.2916   -5.6644  -16.2984 C   0  0  0  0  0  0  0  0  0  0  0  0
   22.8559   -4.4269  -15.7446 C   0  0  0  0  0  0  0  0  0  0  0  0
   22.9849   -4.2554  -14.5060 O   0  0  0  0  0  0  0  0  0  0  0  0
   20.7467   -6.1513  -14.4222 C   0  0  0  0  0  0  0  0  0  0  0  0
   20.9444   -5.8861  -13.2119 O   0  0  0  0  0  0  0  0  0  0  0  0
   23.2657   -3.4035  -16.5912 O   0  0  0  0  0  0  0  0  0  0  0  0
   19.4533   -5.9447  -14.9011 O   0  0  0  0  0  0  0  0  0  0  0  0
  2  1  1  1
  2  4  1  0
  2  3  1  0
  4  5  1  0
  5  7  1  0
  5  6  1  6
  7  8  2  0
  9 10  1  0
 11 10  1  1
 12 11  1  0
 12  7  1  0
 13 11  1  0
 14 13  2  0
 15 13  1  0
 16 15  1  0
 16 17  1  6
 17 18  1  0
 18 19  2  0
 18 22  1  0
 20 16  1  0
 21 20  2  0
 23 20  1  0
M  END
$$$$
