LSD.pdb
     RDKit          3D

 23 22  0  0  1  0  0  0  0  0999 V2000
   15.6241  -10.2941  -17.6044 C   0  0  0  0  0  0  0  0  0  0  0  0
   17.1410  -10.3136  -17.5327 C   0  0  2  0  0  0  0  0  0  0  0  0
   17.7534   -9.9971  -18.8763 C   0  0  0  0  0  0  0  0  0  0  0  0
   17.5819  -11.6748  -17.0765 C   0  0  0  0  0  0  0  0  0  0  0  0
   19.0815  -11.8145  -17.0157 C   0  0  2  0  0  0  0  0  0  0  0  0
   19.5063  -13.1531  -16.7293 N   0  0  0  0  0  0  0  0  0  0  0  0
   19.5396  -10.9353  -15.8882 C   0  0  0  0  0  0  0  0  0  0  0  0
   18.9939  -11.0252  -14.7836 O   0  0  0  0  0  0  0  0  0  0  0  0
   23.3583   -9.4624  -15.8649 O   0  0  0  0  0  0  0  0  0  0  0  0
   22.5474   -9.6359  -14.7546 C   0  0  0  0  0  0  0  0  0  0  0  0
   21.1477   -9.1988  -15.1216 C   0  0  2  0  0  0  0  0  0  0  0  0
   20.5814  -10.0353  -16.1338 N   0  0  0  0  0  0  0  0  0  0  0  0
   21.0996   -7.7527  -15.4624 C   0  0  0  0  0  0  0  0  0  0  0  0
   21.1540   -7.3457  -16.6305 O   0  0  0  0  0  0  0  0  0  0  0  0
   20.9884   -6.8104  -14.4301 N   0  0  0  0  0  0  0  0  0  0  0  0
   21.1527   -5.3650  -14.6624 C   0  0  1  0  0  0  0  0  0  0  0  0
   19.7872   -4.7696  -14.5891 C   0  0  0  0  0  0  0  0  0  0  0  0
   19.7462   -3.3098  -14.7438 C   0  0  0  0  0  0  0  0  0  0  0  0
   20.7785   -2.6439  -15.0103 O   0  0  0  0  0  0  0  0  0  0  0  0
   22.0680   -4.8397  -13.6213 C   0  0  0  0  0  0  0  0  0  0  0  0
   22.3408   -5.5206  -12.6033 O   0  0  0  0  0  0  0  0  0  0  0  0
   18.5467   -2.6230  -14.5964 O   0  0  0  0  0  0  0  0  0  0  0  0
   22.6681   -3.5838  -13.7088 O   0  0  0  0  0  0  0  0  0  0  0  0
  2  1  1  6
  2  4  1  0
  2  3  1  0
  4  5  1  0
  5  7  1  0
  5  6  1  1
  7  8  2  0
  9 10  1  0
 11 10  1  6
 12 11  1  0
 12  7  1  0
 13 11  1  0
 14 13  2  0
 15 13  1  0
 16 15  1  0
 16 17  1  1
 17 18  1  0
 18 19  2  0
 18 22  1  0
 20 16  1  0
 21 20  2  0
 23 20  1  0
M  END
$$$$
