LSD.pdb
     RDKit          3D

 23 22  0  0  1  0  0  0  0  0999 V2000
   21.7706  -11.4337  -20.3472 C   0  0  0  0  0  0  0  0  0  0  0  0
   20.3052  -11.6447  -20.0088 C   0  0  2  0  0  0  0  0  0  0  0  0
   19.4171  -11.2435  -21.1625 C   0  0  0  0  0  0  0  0  0  0  0  0
   19.9704  -10.8254  -18.7955 C   0  0  0  0  0  0  0  0  0  0  0  0
   20.8725  -11.1187  -17.6241 C   0  0  2  0  0  0  0  0  0  0  0  0
   20.7750  -12.4747  -17.1703 N   0  0  0  0  0  0  0  0  0  0  0  0
   20.4142  -10.2259  -16.5075 C   0  0  0  0  0  0  0  0  0  0  0  0
   19.3612  -10.4816  -15.9144 O   0  0  0  0  0  0  0  0  0  0  0  0
   22.6948   -8.8926  -13.8156 O   0  0  0  0  0  0  0  0  0  0  0  0
   21.3208   -8.7161  -13.7781 C   0  0  0  0  0  0  0  0  0  0  0  0
   20.8751   -8.2064  -15.1296 C   0  0  2  0  0  0  0  0  0  0  0  0
   21.2075   -9.1230  -16.1757 N   0  0  0  0  0  0  0  0  0  0  0  0
   21.3674   -6.8266  -15.3816 C   0  0  0  0  0  0  0  0  0  0  0  0
   22.4032   -6.5997  -16.0209 O   0  0  0  0  0  0  0  0  0  0  0  0
   20.6382   -5.7386  -14.8811 N   0  0  0  0  0  0  0  0  0  0  0  0
   21.0866   -4.3456  -15.0503 C   0  0  1  0  0  0  0  0  0  0  0  0
   19.8652   -3.4956  -14.9491 C   0  0  0  0  0  0  0  0  0  0  0  0
   20.1097   -2.0535  -15.0808 C   0  0  0  0  0  0  0  0  0  0  0  0
   20.6626   -1.5670  -16.0996 O   0  0  0  0  0  0  0  0  0  0  0  0
   22.0801   -4.0571  -13.9885 C   0  0  0  0  0  0  0  0  0  0  0  0
   22.7177   -2.9764  -13.9823 O   0  0  0  0  0  0  0  0  0  0  0  0
   19.7293   -1.1828  -14.0663 O   0  0  0  0  0  0  0  0  0  0  0  0
   22.3599   -4.9503  -12.9547 O   0  0  0  0  0  0  0  0  0  0  0  0
  2  1  1  6
  2  4  1  0
  2  3  1  0
  4  5  1  0
  5  7  1  0
  5  6  1  1
  7  8  2  0
  9 10  1  0
 11 10  1  1
 12 11  1  0
 12  7  1  0
 13 11  1  0
 14 13  2  0
 15 13  1  0
 16 15  1  0
 16 17  1  1
 17 18  1  0
 18 19  2  0
 18 22  1  0
 20 16  1  0
 21 20  2  0
 23 20  1  0
M  END
$$$$
