LSD.pdb
     RDKit          3D

 23 22  0  0  1  0  0  0  0  0999 V2000
   28.8729  -20.6239   -4.7299 C   0  0  0  0  0  0  0  0  0  0  0  0
   28.7247  -19.3883   -5.6004 C   0  0  2  0  0  0  0  0  0  0  0  0
   28.8413  -18.1266   -4.7787 C   0  0  0  0  0  0  0  0  0  0  0  0
   27.3853  -19.4369   -6.2778 C   0  0  0  0  0  0  0  0  0  0  0  0
   27.2367  -20.6223   -7.1969 C   0  0  2  0  0  0  0  0  0  0  0  0
   28.4796  -21.2880   -7.4546 N   0  0  0  0  0  0  0  0  0  0  0  0
   26.7257  -20.0812   -8.5007 C   0  0  0  0  0  0  0  0  0  0  0  0
   26.0528  -19.0452   -8.5099 O   0  0  0  0  0  0  0  0  0  0  0  0
   28.0964  -21.9495  -11.7610 O   0  0  0  0  0  0  0  0  0  0  0  0
   27.4529  -20.7619  -12.0705 C   0  0  0  0  0  0  0  0  0  0  0  0
   26.4889  -20.4435  -10.9505 C   0  0  2  0  0  0  0  0  0  0  0  0
   27.0348  -20.7795   -9.6722 N   0  0  0  0  0  0  0  0  0  0  0  0
   25.1523  -21.0470  -11.1934 C   0  0  0  0  0  0  0  0  0  0  0  0
   24.7897  -22.0958  -10.6441 O   0  0  0  0  0  0  0  0  0  0  0  0
   24.2652  -20.4117  -12.0741 N   0  0  0  0  0  0  0  0  0  0  0  0
   22.9188  -20.9404  -12.3527 C   0  0  1  0  0  0  0  0  0  0  0  0
   21.9541  -19.9441  -11.8037 C   0  0  0  0  0  0  0  0  0  0  0  0
   20.5594  -20.4017  -11.7595 C   0  0  0  0  0  0  0  0  0  0  0  0
   20.2629  -21.6229  -11.7900 O   0  0  0  0  0  0  0  0  0  0  0  0
   22.7951  -21.1158  -13.8196 C   0  0  0  0  0  0  0  0  0  0  0  0
   21.9560  -21.9139  -14.3023 O   0  0  0  0  0  0  0  0  0  0  0  0
   19.5217  -19.4801  -11.6819 O   0  0  0  0  0  0  0  0  0  0  0  0
   23.5873  -20.4190  -14.7317 O   0  0  0  0  0  0  0  0  0  0  0  0
  2  1  1  1
  2  4  1  0
  2  3  1  0
  4  5  1  0
  5  7  1  0
  5  6  1  6
  7  8  2  0
  9 10  1  0
 11 10  1  6
 12 11  1  0
 12  7  1  0
 13 11  1  0
 14 13  2  0
 15 13  1  0
 16 15  1  0
 16 17  1  6
 17 18  1  0
 18 19  2  0
 18 22  1  0
 20 16  1  0
 21 20  2  0
 23 20  1  0
M  END
$$$$
