LSD.pdb
     RDKit          3D

 23 22  0  0  1  0  0  0  0  0999 V2000
   10.9114  -10.5114   -9.4855 C   0  0  0  0  0  0  0  0  0  0  0  0
   12.0402  -10.0565  -10.3940 C   0  0  2  0  0  0  0  0  0  0  0  0
   11.5161   -9.6472  -11.7498 C   0  0  0  0  0  0  0  0  0  0  0  0
   13.0203  -11.1846  -10.5427 C   0  0  0  0  0  0  0  0  0  0  0  0
   14.1501  -10.8580  -11.4856 C   0  0  2  0  0  0  0  0  0  0  0  0
   15.0049  -11.9795  -11.7420 N   0  0  0  0  0  0  0  0  0  0  0  0
   14.9706   -9.7998  -10.8069 C   0  0  0  0  0  0  0  0  0  0  0  0
   15.2425   -9.9140   -9.6072 O   0  0  0  0  0  0  0  0  0  0  0  0
   16.9222   -6.9087  -13.1286 O   0  0  0  0  0  0  0  0  0  0  0  0
   17.3738   -7.3156  -11.8833 C   0  0  0  0  0  0  0  0  0  0  0  0
   16.1692   -7.6308  -11.0261 C   0  0  2  0  0  0  0  0  0  0  0  0
   15.4027   -8.7093  -11.5684 N   0  0  0  0  0  0  0  0  0  0  0  0
   15.3589   -6.4143  -10.7558 C   0  0  0  0  0  0  0  0  0  0  0  0
   14.3998   -6.0862  -11.4669 O   0  0  0  0  0  0  0  0  0  0  0  0
   15.6859   -5.6050   -9.6585 N   0  0  0  0  0  0  0  0  0  0  0  0
   14.9994   -4.3299   -9.3884 C   0  0  1  0  0  0  0  0  0  0  0  0
   15.3098   -3.9770   -7.9728 C   0  0  0  0  0  0  0  0  0  0  0  0
   14.7161   -2.7155   -7.5116 C   0  0  0  0  0  0  0  0  0  0  0  0
   13.9866   -2.0158   -8.2589 O   0  0  0  0  0  0  0  0  0  0  0  0
   15.5057   -3.3284  -10.3571 C   0  0  0  0  0  0  0  0  0  0  0  0
   14.9217   -2.2281  -10.5073 O   0  0  0  0  0  0  0  0  0  0  0  0
   14.9518   -2.2615   -6.2191 O   0  0  0  0  0  0  0  0  0  0  0  0
   16.6373   -3.5444  -11.1430 O   0  0  0  0  0  0  0  0  0  0  0  0
  2  1  1  1
  2  4  1  0
  2  3  1  0
  4  5  1  0
  5  7  1  0
  5  6  1  1
  7  8  2  0
  9 10  1  0
 11 10  1  6
 12 11  1  0
 12  7  1  0
 13 11  1  0
 14 13  2  0
 15 13  1  0
 16 15  1  0
 16 17  1  1
 17 18  1  0
 18 19  2  0
 18 22  1  0
 20 16  1  0
 21 20  2  0
 23 20  1  0
M  END
$$$$
