LSD.pdb
     RDKit          3D

 23 22  0  0  1  0  0  0  0  0999 V2000
   13.4918   -6.0223   -9.6963 C   0  0  0  0  0  0  0  0  0  0  0  0
   14.2511   -6.5426   -8.4883 C   0  0  2  0  0  0  0  0  0  0  0  0
   14.4253   -5.4617   -7.4481 C   0  0  0  0  0  0  0  0  0  0  0  0
   15.5942   -7.0375   -8.9429 C   0  0  0  0  0  0  0  0  0  0  0  0
   15.4963   -8.1200   -9.9873 C   0  0  2  0  0  0  0  0  0  0  0  0
   15.1263   -9.3919   -9.4399 N   0  0  0  0  0  0  0  0  0  0  0  0
   16.8686   -8.2561  -10.5807 C   0  0  0  0  0  0  0  0  0  0  0  0
   17.8491   -8.3527   -9.8354 O   0  0  0  0  0  0  0  0  0  0  0  0
   17.2216   -9.5480  -14.4217 O   0  0  0  0  0  0  0  0  0  0  0  0
   18.2812   -9.6205  -13.5316 C   0  0  0  0  0  0  0  0  0  0  0  0
   18.2409   -8.3923  -12.6513 C   0  0  2  0  0  0  0  0  0  0  0  0
   16.9875   -8.2688  -11.9740 N   0  0  0  0  0  0  0  0  0  0  0  0
   18.6226   -7.1689  -13.4043 C   0  0  0  0  0  0  0  0  0  0  0  0
   17.7879   -6.4583  -13.9800 O   0  0  0  0  0  0  0  0  0  0  0  0
   19.9738   -6.7998  -13.4691 N   0  0  0  0  0  0  0  0  0  0  0  0
   20.4464   -5.6862  -14.3097 C   0  0  1  0  0  0  0  0  0  0  0  0
   20.8706   -4.6043  -13.3747 C   0  0  0  0  0  0  0  0  0  0  0  0
   21.3398   -3.3770  -14.0304 C   0  0  0  0  0  0  0  0  0  0  0  0
   21.4607   -3.2992  -15.2792 O   0  0  0  0  0  0  0  0  0  0  0  0
   21.5584   -6.1922  -15.1494 C   0  0  0  0  0  0  0  0  0  0  0  0
   22.3205   -7.0960  -14.7290 O   0  0  0  0  0  0  0  0  0  0  0  0
   21.6653   -2.2581  -13.2725 O   0  0  0  0  0  0  0  0  0  0  0  0
   21.8189   -5.7045  -16.4297 O   0  0  0  0  0  0  0  0  0  0  0  0
  2  1  1  6
  2  4  1  0
  2  3  1  0
  4  5  1  0
  5  7  1  0
  5  6  1  1
  7  8  2  0
  9 10  1  0
 11 10  1  6
 12 11  1  0
 12  7  1  0
 13 11  1  0
 14 13  2  0
 15 13  1  0
 16 15  1  0
 16 17  1  1
 17 18  1  0
 18 19  2  0
 18 22  1  0
 20 16  1  0
 21 20  2  0
 23 20  1  0
M  END
$$$$
