LSD.pdb
     RDKit          3D

 23 22  0  0  1  0  0  0  0  0999 V2000
   20.7400  -15.7986  -15.3458 C   0  0  0  0  0  0  0  0  0  0  0  0
   20.7336  -15.3575  -16.7990 C   0  0  2  0  0  0  0  0  0  0  0  0
   21.8137  -16.0609  -17.5860 C   0  0  0  0  0  0  0  0  0  0  0  0
   20.9474  -13.8719  -16.8501 C   0  0  0  0  0  0  0  0  0  0  0  0
   19.8204  -13.0962  -16.2175 C   0  0  2  0  0  0  0  0  0  0  0  0
   18.5267  -13.5554  -16.6293 N   0  0  0  0  0  0  0  0  0  0  0  0
   19.9745  -11.6772  -16.6828 C   0  0  0  0  0  0  0  0  0  0  0  0
   21.0673  -11.1126  -16.5688 O   0  0  0  0  0  0  0  0  0  0  0  0
   16.5199   -9.5568  -17.5840 O   0  0  0  0  0  0  0  0  0  0  0  0
   17.6102   -9.3047  -18.4013 C   0  0  0  0  0  0  0  0  0  0  0  0
   18.8638   -9.6664  -17.6379 C   0  0  2  0  0  0  0  0  0  0  0  0
   18.8599  -11.0386  -17.2357 N   0  0  0  0  0  0  0  0  0  0  0  0
   19.1068   -8.7268  -16.5119 C   0  0  0  0  0  0  0  0  0  0  0  0
   18.7795   -8.9904  -15.3473 O   0  0  0  0  0  0  0  0  0  0  0  0
   19.7286   -7.4968  -16.7701 N   0  0  0  0  0  0  0  0  0  0  0  0
   19.9922   -6.5098  -15.7087 C   0  0  1  0  0  0  0  0  0  0  0  0
   21.2761   -6.9155  -15.0670 C   0  0  0  0  0  0  0  0  0  0  0  0
   21.8168   -5.9421  -14.1095 C   0  0  0  0  0  0  0  0  0  0  0  0
   21.0761   -5.3312  -13.2981 O   0  0  0  0  0  0  0  0  0  0  0  0
   20.0610   -5.1710  -16.3415 C   0  0  0  0  0  0  0  0  0  0  0  0
   20.2608   -4.1434  -15.6498 O   0  0  0  0  0  0  0  0  0  0  0  0
   23.1799   -5.6714  -14.0798 O   0  0  0  0  0  0  0  0  0  0  0  0
   19.9110   -4.9773  -17.7144 O   0  0  0  0  0  0  0  0  0  0  0  0
  2  1  1  1
  2  4  1  0
  2  3  1  0
  4  5  1  0
  5  7  1  0
  5  6  1  6
  7  8  2  0
  9 10  1  0
 11 10  1  1
 12 11  1  0
 12  7  1  0
 13 11  1  0
 14 13  2  0
 15 13  1  0
 16 15  1  0
 16 17  1  6
 17 18  1  0
 18 19  2  0
 18 22  1  0
 20 16  1  0
 21 20  2  0
 23 20  1  0
M  END
$$$$
