LSD.pdb
     RDKit          3D

 23 22  0  0  1  0  0  0  0  0999 V2000
   26.4213  -13.9254  -15.1339 C   0  0  0  0  0  0  0  0  0  0  0  0
   25.9176  -13.6824  -16.5459 C   0  0  2  0  0  0  0  0  0  0  0  0
   27.0180  -13.8892  -17.5593 C   0  0  0  0  0  0  0  0  0  0  0  0
   25.3975  -12.2763  -16.6341 C   0  0  0  0  0  0  0  0  0  0  0  0
   24.2310  -12.0249  -15.7131 C   0  0  2  0  0  0  0  0  0  0  0  0
   23.1983  -13.0109  -15.8384 N   0  0  0  0  0  0  0  0  0  0  0  0
   23.6536  -10.6999  -16.1192 C   0  0  0  0  0  0  0  0  0  0  0  0
   24.4095   -9.7545  -16.3662 O   0  0  0  0  0  0  0  0  0  0  0  0
   19.4848  -10.2929  -16.1679 O   0  0  0  0  0  0  0  0  0  0  0  0
   20.2198   -9.6735  -17.1661 C   0  0  0  0  0  0  0  0  0  0  0  0
   21.6015   -9.3871  -16.6240 C   0  0  2  0  0  0  0  0  0  0  0  0
   22.2625  -10.5836  -16.2041 N   0  0  0  0  0  0  0  0  0  0  0  0
   21.5680   -8.3368  -15.5727 C   0  0  0  0  0  0  0  0  0  0  0  0
   21.6169   -8.6068  -14.3653 O   0  0  0  0  0  0  0  0  0  0  0  0
   21.4782   -6.9905  -15.9541 N   0  0  0  0  0  0  0  0  0  0  0  0
   21.4312   -5.8950  -14.9703 C   0  0  1  0  0  0  0  0  0  0  0  0
   22.0712   -4.7163  -15.6229 C   0  0  0  0  0  0  0  0  0  0  0  0
   22.0956   -3.4994  -14.8012 C   0  0  0  0  0  0  0  0  0  0  0  0
   21.7418   -3.5088  -13.5950 O   0  0  0  0  0  0  0  0  0  0  0  0
   20.0098   -5.6601  -14.6209 C   0  0  0  0  0  0  0  0  0  0  0  0
   19.0973   -5.9001  -15.4480 O   0  0  0  0  0  0  0  0  0  0  0  0
   22.5169   -2.2930  -15.3481 O   0  0  0  0  0  0  0  0  0  0  0  0
   19.6099   -5.1687  -13.3785 O   0  0  0  0  0  0  0  0  0  0  0  0
  2  1  1  1
  2  4  1  0
  2  3  1  0
  4  5  1  0
  5  7  1  0
  5  6  1  6
  7  8  2  0
  9 10  1  0
 11 10  1  1
 12 11  1  0
 12  7  1  0
 13 11  1  0
 14 13  2  0
 15 13  1  0
 16 15  1  0
 16 17  1  6
 17 18  1  0
 18 19  2  0
 18 22  1  0
 20 16  1  0
 21 20  2  0
 23 20  1  0
M  END
$$$$
