VTD.pdb
     RDKit          3D

 23 22  0  0  1  0  0  0  0  0999 V2000
    0.4830  -27.6239   27.3097 C   0  0  0  0  0  0  0  0  0  0  0  0
    0.8429  -26.5866   28.3300 C   0  0  2  0  0  0  0  0  0  0  0  0
    1.7575  -27.2386   29.3458 C   0  0  0  0  0  0  0  0  0  0  0  0
   -0.3191  -25.9429   28.9995 C   0  0  2  0  0  0  0  0  0  0  0  0
   -0.9488  -26.9057   29.8720 N   0  0  0  0  0  0  0  0  0  0  0  0
   -1.3064  -25.3339   28.1287 C   0  0  0  0  0  0  0  0  0  0  0  0
   -1.0947  -24.3746   27.3405 O   0  0  0  0  0  0  0  0  0  0  0  0
   -3.3755  -26.3943   25.1696 C   0  0  0  0  0  0  0  0  0  0  0  0
   -4.2812  -26.0994   26.3266 C   0  0  1  0  0  0  0  0  0  0  0  0
   -4.7303  -27.2953   26.8860 O   0  0  0  0  0  0  0  0  0  0  0  0
   -3.6838  -25.1772   27.3357 C   0  0  2  0  0  0  0  0  0  0  0  0
   -2.6383  -25.8314   28.1343 N   0  0  0  0  0  0  0  0  0  0  0  0
   -4.7862  -24.7089   28.2409 C   0  0  0  0  0  0  0  0  0  0  0  0
   -4.9296  -25.2491   29.3528 O   0  0  0  0  0  0  0  0  0  0  0  0
   -5.6501  -23.6622   27.8263 N   0  0  0  0  0  0  0  0  0  0  0  0
   -6.7986  -23.2300   28.6683 C   0  0  1  0  0  0  0  0  0  0  0  0
   -6.3367  -21.9517   29.3216 C   0  0  0  0  0  0  0  0  0  0  0  0
   -7.2980  -21.3115   30.2040 C   0  0  0  0  0  0  0  0  0  0  0  0
   -8.4341  -21.7784   30.4084 O   0  0  0  0  0  0  0  0  0  0  0  0
   -7.9594  -22.9756   27.7509 C   0  0  0  0  0  0  0  0  0  0  0  0
   -7.8168  -22.4701   26.6236 O   0  0  0  0  0  0  0  0  0  0  0  0
   -7.0066  -20.1173   30.8878 O   0  0  0  0  0  0  0  0  0  0  0  0
   -9.2683  -23.3049   28.1397 O   0  0  0  0  0  0  0  0  0  0  0  0
  2  1  1  6
  2  3  1  0
  2  4  1  0
  4  6  1  0
  4  5  1  6
  6  7  2  0
  9 10  1  0
  9  8  1  6
 11  9  1  0
 12  6  1  0
 11 12  1  1
 13 14  2  0
 13 11  1  0
 15 13  1  0
 16 17  1  6
 16 15  1  0
 17 18  1  0
 18 19  2  0
 18 22  1  0
 20 16  1  0
 21 20  2  0
 23 20  1  0
M  END
$$$$
