VTD.pdb
     RDKit          3D

 23 22  0  0  1  0  0  0  0  0999 V2000
    7.8017  -12.7610   20.9702 C   0  0  0  0  0  0  0  0  0  0  0  0
    8.9335  -12.9469   20.0055 C   0  0  2  0  0  0  0  0  0  0  0  0
    8.9327  -11.7625   19.0617 C   0  0  0  0  0  0  0  0  0  0  0  0
    8.9021  -14.2272   19.2487 C   0  0  2  0  0  0  0  0  0  0  0  0
    7.7347  -14.2401   18.3992 N   0  0  0  0  0  0  0  0  0  0  0  0
    8.9613  -15.4424   20.0385 C   0  0  0  0  0  0  0  0  0  0  0  0
    7.9669  -16.0875   20.4645 O   0  0  0  0  0  0  0  0  0  0  0  0
    9.6519  -18.6976   19.1402 C   0  0  0  0  0  0  0  0  0  0  0  0
   10.6981  -18.3877   20.1675 C   0  0  1  0  0  0  0  0  0  0  0  0
   11.9256  -18.1826   19.5381 O   0  0  0  0  0  0  0  0  0  0  0  0
   10.3252  -17.2724   21.0855 C   0  0  2  0  0  0  0  0  0  0  0  0
   10.2292  -15.9852   20.3836 N   0  0  0  0  0  0  0  0  0  0  0  0
   11.3770  -17.1837   22.1530 C   0  0  0  0  0  0  0  0  0  0  0  0
   12.1669  -16.2220   22.1487 O   0  0  0  0  0  0  0  0  0  0  0  0
   11.4630  -18.1883   23.1516 N   0  0  0  0  0  0  0  0  0  0  0  0
   12.4454  -18.0880   24.2650 C   0  0  1  0  0  0  0  0  0  0  0  0
   11.9693  -19.0875   25.2889 C   0  0  0  0  0  0  0  0  0  0  0  0
   11.9323  -18.6139   26.6626 C   0  0  0  0  0  0  0  0  0  0  0  0
   12.4038  -17.5134   27.0046 O   0  0  0  0  0  0  0  0  0  0  0  0
   13.7880  -18.4776   23.7176 C   0  0  0  0  0  0  0  0  0  0  0  0
   13.9132  -19.2627   22.7613 O   0  0  0  0  0  0  0  0  0  0  0  0
   11.3589  -19.3711   27.7001 O   0  0  0  0  0  0  0  0  0  0  0  0
   14.9690  -17.9608   24.2754 O   0  0  0  0  0  0  0  0  0  0  0  0
  2  1  1  1
  2  3  1  0
  2  4  1  0
  4  6  1  0
  4  5  1  1
  6  7  2  0
  9 10  1  0
  9  8  1  6
 11  9  1  0
 12  6  1  0
 11 12  1  6
 13 14  2  0
 13 11  1  0
 15 13  1  0
 16 17  1  1
 16 15  1  0
 17 18  1  0
 18 19  2  0
 18 22  1  0
 20 16  1  0
 21 20  2  0
 23 20  1  0
M  END
$$$$
