VTD.pdb
     RDKit          3D

 23 22  0  0  1  0  0  0  0  0999 V2000
    6.5901  -13.1071   19.5926 C   0  0  0  0  0  0  0  0  0  0  0  0
    7.8659  -13.1214   18.8062 C   0  0  2  0  0  0  0  0  0  0  0  0
    7.5150  -13.4315   17.3660 C   0  0  0  0  0  0  0  0  0  0  0  0
    8.8994  -14.0631   19.3141 C   0  0  2  0  0  0  0  0  0  0  0  0
    8.5314  -15.4081   18.9397 N   0  0  0  0  0  0  0  0  0  0  0  0
    9.1856  -13.9982   20.7346 C   0  0  0  0  0  0  0  0  0  0  0  0
    8.8358  -13.0693   21.5100 O   0  0  0  0  0  0  0  0  0  0  0  0
    7.8355  -14.0257   23.2149 C   0  0  0  0  0  0  0  0  0  0  0  0
    8.7177  -15.2077   23.4805 C   0  0  1  0  0  0  0  0  0  0  0  0
    8.0285  -16.3826   23.1811 O   0  0  0  0  0  0  0  0  0  0  0  0
   10.0458  -15.1281   22.8056 C   0  0  2  0  0  0  0  0  0  0  0  0
    9.9211  -15.0516   21.3436 N   0  0  0  0  0  0  0  0  0  0  0  0
   10.8258  -16.3556   23.1782 C   0  0  0  0  0  0  0  0  0  0  0  0
   10.5567  -17.4372   22.6248 O   0  0  0  0  0  0  0  0  0  0  0  0
   11.8560  -16.2751   24.1508 N   0  0  0  0  0  0  0  0  0  0  0  0
   12.7022  -17.4547   24.4784 C   0  0  1  0  0  0  0  0  0  0  0  0
   14.0241  -16.8714   24.9104 C   0  0  0  0  0  0  0  0  0  0  0  0
   14.7430  -16.1190   23.8957 C   0  0  0  0  0  0  0  0  0  0  0  0
   15.3954  -15.0919   24.1601 O   0  0  0  0  0  0  0  0  0  0  0  0
   12.0403  -18.1833   25.6119 C   0  0  0  0  0  0  0  0  0  0  0  0
   12.4262  -19.3004   25.9992 O   0  0  0  0  0  0  0  0  0  0  0  0
   14.7488  -16.5034   22.5426 O   0  0  0  0  0  0  0  0  0  0  0  0
   10.9443  -17.6198   26.2859 O   0  0  0  0  0  0  0  0  0  0  0  0
  2  1  1  1
  2  3  1  0
  2  4  1  0
  4  6  1  0
  4  5  1  1
  6  7  2  0
  9 10  1  0
  9  8  1  6
 11  9  1  0
 12  6  1  0
 11 12  1  6
 13 14  2  0
 13 11  1  0
 15 13  1  0
 16 17  1  1
 16 15  1  0
 17 18  1  0
 18 19  2  0
 18 22  1  0
 20 16  1  0
 21 20  2  0
 23 20  1  0
M  END
$$$$
