VTD.pdb
     RDKit          3D

 23 22  0  0  1  0  0  0  0  0999 V2000
   10.5231  -18.9464   18.0582 C   0  0  0  0  0  0  0  0  0  0  0  0
    9.0369  -18.8739   17.8785 C   0  0  2  0  0  0  0  0  0  0  0  0
    8.6874  -19.6442   16.6223 C   0  0  0  0  0  0  0  0  0  0  0  0
    8.4832  -17.4943   17.8251 C   0  0  2  0  0  0  0  0  0  0  0  0
    8.7341  -16.9397   16.5158 N   0  0  0  0  0  0  0  0  0  0  0  0
    8.9388  -16.5785   18.8536 C   0  0  0  0  0  0  0  0  0  0  0  0
    9.8390  -15.7088   18.7126 O   0  0  0  0  0  0  0  0  0  0  0  0
    7.4217  -13.8039   20.7550 C   0  0  0  0  0  0  0  0  0  0  0  0
    7.8274  -14.8477   21.7510 C   0  0  1  0  0  0  0  0  0  0  0  0
    6.6924  -15.4941   22.2399 O   0  0  0  0  0  0  0  0  0  0  0  0
    8.8580  -15.7968   21.2385 C   0  0  2  0  0  0  0  0  0  0  0  0
    8.3460  -16.6336   20.1447 N   0  0  0  0  0  0  0  0  0  0  0  0
    9.2861  -16.6722   22.3806 C   0  0  0  0  0  0  0  0  0  0  0  0
    8.6963  -17.7510   22.5729 O   0  0  0  0  0  0  0  0  0  0  0  0
   10.3513  -16.2672   23.2261 N   0  0  0  0  0  0  0  0  0  0  0  0
   11.0199  -17.2317   24.1414 C   0  0  1  0  0  0  0  0  0  0  0  0
   11.7088  -18.2142   23.2281 C   0  0  0  0  0  0  0  0  0  0  0  0
   13.0725  -17.8780   22.8539 C   0  0  0  0  0  0  0  0  0  0  0  0
   13.6476  -16.8542   23.2680 O   0  0  0  0  0  0  0  0  0  0  0  0
   12.0198  -16.4620   24.9547 C   0  0  0  0  0  0  0  0  0  0  0  0
   12.7468  -17.0075   25.8036 O   0  0  0  0  0  0  0  0  0  0  0  0
   13.8351  -18.6908   21.9958 O   0  0  0  0  0  0  0  0  0  0  0  0
   12.1720  -15.0762   24.7828 O   0  0  0  0  0  0  0  0  0  0  0  0
  2  1  1  6
  2  3  1  0
  2  4  1  0
  4  6  1  0
  4  5  1  6
  6  7  2  0
  9 10  1  0
  9  8  1  6
 11  9  1  0
 12  6  1  0
 11 12  1  6
 13 14  2  0
 13 11  1  0
 15 13  1  0
 16 17  1  6
 16 15  1  0
 17 18  1  0
 18 19  2  0
 18 22  1  0
 20 16  1  0
 21 20  2  0
 23 20  1  0
M  END
$$$$
