VTD.pdb
     RDKit          3D

 23 22  0  0  1  0  0  0  0  0999 V2000
   11.6290  -13.8467   17.4217 C   0  0  0  0  0  0  0  0  0  0  0  0
   10.3246  -14.5739   17.2952 C   0  0  2  0  0  0  0  0  0  0  0  0
    9.9708  -14.6313   15.8238 C   0  0  0  0  0  0  0  0  0  0  0  0
    9.2079  -13.9908   18.0861 C   0  0  2  0  0  0  0  0  0  0  0  0
    8.8449  -12.7159   17.5139 N   0  0  0  0  0  0  0  0  0  0  0  0
    9.4330  -13.8546   19.5126 C   0  0  0  0  0  0  0  0  0  0  0  0
    9.8792  -12.8270   20.0883 O   0  0  0  0  0  0  0  0  0  0  0  0
    7.1185  -14.0698   22.4637 C   0  0  0  0  0  0  0  0  0  0  0  0
    8.1779  -15.1174   22.6254 C   0  0  1  0  0  0  0  0  0  0  0  0
    7.6284  -16.3782   22.3940 O   0  0  0  0  0  0  0  0  0  0  0  0
    9.4025  -14.8621   21.8125 C   0  0  2  0  0  0  0  0  0  0  0  0
    9.1386  -14.9501   20.3698 N   0  0  0  0  0  0  0  0  0  0  0  0
   10.4317  -15.8853   22.1968 C   0  0  0  0  0  0  0  0  0  0  0  0
   11.0465  -16.4938   21.3021 O   0  0  0  0  0  0  0  0  0  0  0  0
   10.6946  -16.1497   23.5659 N   0  0  0  0  0  0  0  0  0  0  0  0
   11.9866  -16.7452   24.0030 C   0  0  1  0  0  0  0  0  0  0  0  0
   13.0205  -15.6932   23.6890 C   0  0  0  0  0  0  0  0  0  0  0  0
   14.1355  -16.1309   22.8656 C   0  0  0  0  0  0  0  0  0  0  0  0
   14.2247  -17.2903   22.4204 O   0  0  0  0  0  0  0  0  0  0  0  0
   11.8952  -16.9839   25.4823 C   0  0  0  0  0  0  0  0  0  0  0  0
   11.2307  -16.2491   26.2341 O   0  0  0  0  0  0  0  0  0  0  0  0
   15.1913  -15.2696   22.5163 O   0  0  0  0  0  0  0  0  0  0  0  0
   12.5678  -18.0630   26.0791 O   0  0  0  0  0  0  0  0  0  0  0  0
  2  1  1  6
  2  3  1  0
  2  4  1  0
  4  6  1  0
  4  5  1  6
  6  7  2  0
  9 10  1  0
  9  8  1  6
 11  9  1  0
 12  6  1  0
 11 12  1  6
 13 14  2  0
 13 11  1  0
 15 13  1  0
 16 17  1  1
 16 15  1  0
 17 18  1  0
 18 19  2  0
 18 22  1  0
 20 16  1  0
 21 20  2  0
 23 20  1  0
M  END
$$$$
