VTD.pdb
     RDKit          3D

 23 22  0  0  1  0  0  0  0  0999 V2000
    7.8199  -12.1248   20.1439 C   0  0  0  0  0  0  0  0  0  0  0  0
    8.5083  -13.1121   19.2507 C   0  0  2  0  0  0  0  0  0  0  0  0
    8.1021  -12.8035   17.8248 C   0  0  0  0  0  0  0  0  0  0  0  0
    8.2441  -14.5385   19.5798 C   0  0  2  0  0  0  0  0  0  0  0  0
    6.8858  -14.8601   19.2107 N   0  0  0  0  0  0  0  0  0  0  0  0
    8.5003  -14.9403   20.9499 C   0  0  0  0  0  0  0  0  0  0  0  0
    7.6654  -14.9015   21.8921 O   0  0  0  0  0  0  0  0  0  0  0  0
    7.7306  -16.7010   23.1299 C   0  0  0  0  0  0  0  0  0  0  0  0
    9.1827  -17.0591   23.0336 C   0  0  1  0  0  0  0  0  0  0  0  0
    9.3391  -18.1557   22.1862 O   0  0  0  0  0  0  0  0  0  0  0  0
   10.0598  -15.9110   22.6618 C   0  0  2  0  0  0  0  0  0  0  0  0
    9.7898  -15.4246   21.3020 N   0  0  0  0  0  0  0  0  0  0  0  0
   11.4856  -16.3720   22.7550 C   0  0  0  0  0  0  0  0  0  0  0  0
   12.2018  -16.3399   21.7378 O   0  0  0  0  0  0  0  0  0  0  0  0
   12.0029  -16.8372   23.9918 N   0  0  0  0  0  0  0  0  0  0  0  0
   13.4594  -17.0807   24.1768 C   0  0  1  0  0  0  0  0  0  0  0  0
   14.0990  -15.7241   24.0193 C   0  0  0  0  0  0  0  0  0  0  0  0
   15.2880  -15.6807   23.1844 C   0  0  0  0  0  0  0  0  0  0  0  0
   16.4207  -15.9646   23.6167 O   0  0  0  0  0  0  0  0  0  0  0  0
   13.6548  -17.6084   25.5686 C   0  0  0  0  0  0  0  0  0  0  0  0
   12.9039  -17.2956   26.5093 O   0  0  0  0  0  0  0  0  0  0  0  0
   15.2367  -15.3135   21.8275 O   0  0  0  0  0  0  0  0  0  0  0  0
   14.7096  -18.4884   25.8620 O   0  0  0  0  0  0  0  0  0  0  0  0
  2  1  1  1
  2  3  1  0
  2  4  1  0
  4  6  1  0
  4  5  1  1
  6  7  2  0
  9 10  1  0
  9  8  1  6
 11  9  1  0
 12  6  1  0
 11 12  1  6
 13 14  2  0
 13 11  1  0
 15 13  1  0
 16 17  1  1
 16 15  1  0
 17 18  1  0
 18 19  2  0
 18 22  1  0
 20 16  1  0
 21 20  2  0
 23 20  1  0
M  END
$$$$
