VTD.pdb
     RDKit          3D

 23 22  0  0  1  0  0  0  0  0999 V2000
   10.9658  -12.4397   19.5555 C   0  0  0  0  0  0  0  0  0  0  0  0
   10.6214  -13.6431   18.7312 C   0  0  2  0  0  0  0  0  0  0  0  0
   11.0157  -13.3478   17.2991 C   0  0  0  0  0  0  0  0  0  0  0  0
    9.1974  -14.0657   18.8120 C   0  0  2  0  0  0  0  0  0  0  0  0
    8.3688  -13.0303   18.2413 N   0  0  0  0  0  0  0  0  0  0  0  0
    8.7090  -14.4307   20.1282 C   0  0  0  0  0  0  0  0  0  0  0  0
    8.1278  -13.6563   20.9338 O   0  0  0  0  0  0  0  0  0  0  0  0
    5.9625  -16.3707   21.2323 C   0  0  0  0  0  0  0  0  0  0  0  0
    7.1716  -17.0606   21.7874 C   0  0  1  0  0  0  0  0  0  0  0  0
    7.4252  -18.2209   21.0564 O   0  0  0  0  0  0  0  0  0  0  0  0
    8.3673  -16.1757   21.9012 C   0  0  2  0  0  0  0  0  0  0  0  0
    8.8805  -15.7654   20.5871 N   0  0  0  0  0  0  0  0  0  0  0  0
    9.4319  -16.9333   22.6405 C   0  0  0  0  0  0  0  0  0  0  0  0
   10.4480  -17.3072   22.0271 O   0  0  0  0  0  0  0  0  0  0  0  0
    9.2740  -17.2156   24.0222 N   0  0  0  0  0  0  0  0  0  0  0  0
   10.2678  -18.0421   24.7598 C   0  0  1  0  0  0  0  0  0  0  0  0
    9.9360  -17.8338   26.2161 C   0  0  0  0  0  0  0  0  0  0  0  0
   11.0216  -17.3374   27.0454 C   0  0  0  0  0  0  0  0  0  0  0  0
   12.1833  -17.2025   26.6179 O   0  0  0  0  0  0  0  0  0  0  0  0
   10.0508  -19.4724   24.3587 C   0  0  0  0  0  0  0  0  0  0  0  0
   10.9789  -20.2992   24.3179 O   0  0  0  0  0  0  0  0  0  0  0  0
   10.8301  -16.9752   28.3910 O   0  0  0  0  0  0  0  0  0  0  0  0
    8.7711  -19.9346   24.0095 O   0  0  0  0  0  0  0  0  0  0  0  0
  2  1  1  1
  2  3  1  0
  2  4  1  0
  4  6  1  0
  4  5  1  1
  6  7  2  0
  9 10  1  0
  9  8  1  6
 11  9  1  0
 12  6  1  0
 11 12  1  6
 13 14  2  0
 13 11  1  0
 15 13  1  0
 16 17  1  1
 16 15  1  0
 17 18  1  0
 18 19  2  0
 18 22  1  0
 20 16  1  0
 21 20  2  0
 23 20  1  0
M  END
$$$$
