VTD.pdb
     RDKit          3D

 23 22  0  0  1  0  0  0  0  0999 V2000
    7.4149  -13.1125   21.1051 C   0  0  0  0  0  0  0  0  0  0  0  0
    8.5381  -12.9131   20.1330 C   0  0  2  0  0  0  0  0  0  0  0  0
    8.2817  -11.6165   19.3937 C   0  0  0  0  0  0  0  0  0  0  0  0
    8.7415  -14.0357   19.1785 C   0  0  2  0  0  0  0  0  0  0  0  0
    7.5713  -14.1561   18.3414 N   0  0  0  0  0  0  0  0  0  0  0  0
    9.0766  -15.3215   19.7603 C   0  0  0  0  0  0  0  0  0  0  0  0
    8.2685  -16.2663   19.9622 O   0  0  0  0  0  0  0  0  0  0  0  0
   11.0924  -18.0682   18.5888 C   0  0  0  0  0  0  0  0  0  0  0  0
   11.7040  -17.6578   19.8939 C   0  0  1  0  0  0  0  0  0  0  0  0
   12.9194  -17.0153   19.6596 O   0  0  0  0  0  0  0  0  0  0  0  0
   10.7874  -16.8628   20.7618 C   0  0  2  0  0  0  0  0  0  0  0  0
   10.4195  -15.5786   20.1501 N   0  0  0  0  0  0  0  0  0  0  0  0
   11.4887  -16.6138   22.0657 C   0  0  0  0  0  0  0  0  0  0  0  0
   11.8795  -15.4634   22.3350 O   0  0  0  0  0  0  0  0  0  0  0  0
   11.6995  -17.6828   22.9749 N   0  0  0  0  0  0  0  0  0  0  0  0
   12.3452  -17.4562   24.2966 C   0  0  1  0  0  0  0  0  0  0  0  0
   11.6116  -18.3711   25.2447 C   0  0  0  0  0  0  0  0  0  0  0  0
   12.1593  -18.4572   26.5883 C   0  0  0  0  0  0  0  0  0  0  0  0
   12.3017  -19.5406   27.1854 O   0  0  0  0  0  0  0  0  0  0  0  0
   13.7860  -17.8581   24.1690 C   0  0  0  0  0  0  0  0  0  0  0  0
   14.1335  -19.0400   23.9981 O   0  0  0  0  0  0  0  0  0  0  0  0
   12.5662  -17.3174   27.3051 O   0  0  0  0  0  0  0  0  0  0  0  0
   14.8089  -16.8980   24.2392 O   0  0  0  0  0  0  0  0  0  0  0  0
  2  1  1  1
  2  3  1  0
  2  4  1  0
  4  6  1  0
  4  5  1  1
  6  7  2  0
  9 10  1  0
  9  8  1  6
 11  9  1  0
 12  6  1  0
 11 12  1  6
 13 14  2  0
 13 11  1  0
 15 13  1  0
 16 17  1  1
 16 15  1  0
 17 18  1  0
 18 19  2  0
 18 22  1  0
 20 16  1  0
 21 20  2  0
 23 20  1  0
M  END
$$$$
