VTD.pdb
     RDKit          3D

 23 22  0  0  1  0  0  0  0  0999 V2000
    9.7414  -19.3295   18.0312 C   0  0  0  0  0  0  0  0  0  0  0  0
    8.2886  -18.9611   18.0320 C   0  0  2  0  0  0  0  0  0  0  0  0
    7.5878  -19.8516   17.0274 C   0  0  0  0  0  0  0  0  0  0  0  0
    8.0103  -17.5267   17.7532 C   0  0  2  0  0  0  0  0  0  0  0  0
    8.2780  -17.2604   16.3596 N   0  0  0  0  0  0  0  0  0  0  0  0
    8.7007  -16.5635   18.5896 C   0  0  0  0  0  0  0  0  0  0  0  0
    9.7674  -15.9649   18.2890 O   0  0  0  0  0  0  0  0  0  0  0  0
    7.4702  -13.3102   20.5298 C   0  0  0  0  0  0  0  0  0  0  0  0
    7.9947  -14.3696   21.4511 C   0  0  1  0  0  0  0  0  0  0  0  0
    6.9319  -14.9755   22.1207 O   0  0  0  0  0  0  0  0  0  0  0  0
    8.8936  -15.3544   20.7820 C   0  0  2  0  0  0  0  0  0  0  0  0
    8.1620  -16.2389   19.8647 N   0  0  0  0  0  0  0  0  0  0  0  0
    9.5528  -16.1766   21.8513 C   0  0  0  0  0  0  0  0  0  0  0  0
    9.1168  -17.3161   22.0965 O   0  0  0  0  0  0  0  0  0  0  0  0
   10.6593  -15.6535   22.5694 N   0  0  0  0  0  0  0  0  0  0  0  0
   11.3673  -16.4659   23.5959 C   0  0  1  0  0  0  0  0  0  0  0  0
   12.6901  -15.7690   23.7925 C   0  0  0  0  0  0  0  0  0  0  0  0
   13.7313  -16.1118   22.8381 C   0  0  0  0  0  0  0  0  0  0  0  0
   13.6024  -17.0302   22.0072 O   0  0  0  0  0  0  0  0  0  0  0  0
   10.5450  -16.4217   24.8512 C   0  0  0  0  0  0  0  0  0  0  0  0
    9.7535  -15.4938   25.0946 O   0  0  0  0  0  0  0  0  0  0  0  0
   14.9582  -15.4254   22.7902 O   0  0  0  0  0  0  0  0  0  0  0  0
   10.6421  -17.4434   25.8102 O   0  0  0  0  0  0  0  0  0  0  0  0
  2  1  1  6
  2  3  1  0
  2  4  1  0
  4  6  1  0
  4  5  1  6
  6  7  2  0
  9 10  1  0
  9  8  1  6
 11  9  1  0
 12  6  1  0
 11 12  1  6
 13 14  2  0
 13 11  1  0
 15 13  1  0
 16 17  1  1
 16 15  1  0
 17 18  1  0
 18 19  2  0
 18 22  1  0
 20 16  1  0
 21 20  2  0
 23 20  1  0
M  END
$$$$
