VTD.pdb
     RDKit          3D

 23 22  0  0  1  0  0  0  0  0999 V2000
   10.7493  -15.8772   17.6532 C   0  0  0  0  0  0  0  0  0  0  0  0
   10.3436  -14.4657   17.3538 C   0  0  2  0  0  0  0  0  0  0  0  0
   11.5097  -13.5670   17.7085 C   0  0  0  0  0  0  0  0  0  0  0  0
    9.1016  -14.0169   18.0384 C   0  0  2  0  0  0  0  0  0  0  0  0
    8.6408  -12.7966   17.4192 N   0  0  0  0  0  0  0  0  0  0  0  0
    9.1851  -13.8490   19.4768 C   0  0  0  0  0  0  0  0  0  0  0  0
    8.7656  -12.8526   20.1229 O   0  0  0  0  0  0  0  0  0  0  0  0
    7.2229  -14.0591   21.5446 C   0  0  0  0  0  0  0  0  0  0  0  0
    8.1306  -15.1343   22.0605 C   0  0  1  0  0  0  0  0  0  0  0  0
    7.6541  -16.3817   21.6584 O   0  0  0  0  0  0  0  0  0  0  0  0
    9.5663  -14.9242   21.7137 C   0  0  2  0  0  0  0  0  0  0  0  0
    9.7840  -14.8721   20.2616 N   0  0  0  0  0  0  0  0  0  0  0  0
   10.3521  -16.0624   22.2975 C   0  0  0  0  0  0  0  0  0  0  0  0
   10.3189  -17.1734   21.7377 O   0  0  0  0  0  0  0  0  0  0  0  0
   11.1211  -15.8658   23.4738 N   0  0  0  0  0  0  0  0  0  0  0  0
   11.9817  -16.9484   24.0236 C   0  0  1  0  0  0  0  0  0  0  0  0
   13.2610  -16.2571   24.4231 C   0  0  0  0  0  0  0  0  0  0  0  0
   14.1526  -15.9008   23.3319 C   0  0  0  0  0  0  0  0  0  0  0  0
   13.8739  -16.1244   22.1390 O   0  0  0  0  0  0  0  0  0  0  0  0
   11.2804  -17.5161   25.2234 C   0  0  0  0  0  0  0  0  0  0  0  0
   10.3473  -16.9210   25.7909 O   0  0  0  0  0  0  0  0  0  0  0  0
   15.3940  -15.2773   23.5528 O   0  0  0  0  0  0  0  0  0  0  0  0
   11.6594  -18.7594   25.7559 O   0  0  0  0  0  0  0  0  0  0  0  0
  2  1  1  1
  2  3  1  0
  2  4  1  0
  4  6  1  0
  4  5  1  6
  6  7  2  0
  9 10  1  0
  9  8  1  6
 11  9  1  0
 12  6  1  0
 11 12  1  6
 13 14  2  0
 13 11  1  0
 15 13  1  0
 16 17  1  1
 16 15  1  0
 17 18  1  0
 18 19  2  0
 18 22  1  0
 20 16  1  0
 21 20  2  0
 23 20  1  0
M  END
$$$$
