VTD.pdb
     RDKit          3D

 23 22  0  0  1  0  0  0  0  0999 V2000
    7.4060  -12.5278   19.3456 C   0  0  0  0  0  0  0  0  0  0  0  0
    8.4179  -13.2171   18.4813 C   0  0  2  0  0  0  0  0  0  0  0  0
    7.7952  -13.4187   17.1156 C   0  0  0  0  0  0  0  0  0  0  0  0
    8.9281  -14.5039   19.0259 C   0  0  2  0  0  0  0  0  0  0  0  0
    7.9213  -15.5222   18.8413 N   0  0  0  0  0  0  0  0  0  0  0  0
    9.3760  -14.4855   20.4055 C   0  0  0  0  0  0  0  0  0  0  0  0
   10.3574  -13.8315   20.8476 O   0  0  0  0  0  0  0  0  0  0  0  0
    7.3662  -13.8588   23.7428 C   0  0  0  0  0  0  0  0  0  0  0  0
    8.0297  -15.2027   23.7433 C   0  0  1  0  0  0  0  0  0  0  0  0
    7.0672  -16.1998   23.5866 O   0  0  0  0  0  0  0  0  0  0  0  0
    9.1483  -15.3193   22.7631 C   0  0  2  0  0  0  0  0  0  0  0  0
    8.6763  -15.2572   21.3731 N   0  0  0  0  0  0  0  0  0  0  0  0
    9.8337  -16.6336   23.0011 C   0  0  0  0  0  0  0  0  0  0  0  0
   10.0137  -17.4068   22.0428 O   0  0  0  0  0  0  0  0  0  0  0  0
   10.2682  -16.9826   24.3061 N   0  0  0  0  0  0  0  0  0  0  0  0
   11.4222  -17.8987   24.5164 C   0  0  1  0  0  0  0  0  0  0  0  0
   12.6083  -17.1591   23.9503 C   0  0  0  0  0  0  0  0  0  0  0  0
   13.6765  -17.9911   23.4218 C   0  0  0  0  0  0  0  0  0  0  0  0
   13.4745  -19.1338   22.9703 O   0  0  0  0  0  0  0  0  0  0  0  0
   11.5722  -18.1022   25.9962 C   0  0  0  0  0  0  0  0  0  0  0  0
   12.1217  -19.1094   26.4760 O   0  0  0  0  0  0  0  0  0  0  0  0
   15.0143  -17.5579   23.3855 O   0  0  0  0  0  0  0  0  0  0  0  0
   11.0893  -17.1468   26.9056 O   0  0  0  0  0  0  0  0  0  0  0  0
  2  1  1  1
  2  3  1  0
  2  4  1  0
  4  6  1  0
  4  5  1  1
  6  7  2  0
  9 10  1  0
  9  8  1  6
 11  9  1  0
 12  6  1  0
 11 12  1  6
 13 14  2  0
 13 11  1  0
 15 13  1  0
 16 17  1  1
 16 15  1  0
 17 18  1  0
 18 19  2  0
 18 22  1  0
 20 16  1  0
 21 20  2  0
 23 20  1  0
M  END
$$$$
