VTD.pdb
     RDKit          3D

 23 22  0  0  1  0  0  0  0  0999 V2000
    9.2960  -11.8201   19.9350 C   0  0  0  0  0  0  0  0  0  0  0  0
    8.2842  -12.5598   19.1132 C   0  0  2  0  0  0  0  0  0  0  0  0
    7.3097  -13.2185   20.0671 C   0  0  0  0  0  0  0  0  0  0  0  0
    8.8577  -13.5566   18.1697 C   0  0  2  0  0  0  0  0  0  0  0  0
    7.7939  -14.0980   17.3573 N   0  0  0  0  0  0  0  0  0  0  0  0
    9.6328  -14.6303   18.7618 C   0  0  0  0  0  0  0  0  0  0  0  0
    9.1586  -15.6759   19.2797 O   0  0  0  0  0  0  0  0  0  0  0  0
   11.6422  -17.0394   17.1741 C   0  0  0  0  0  0  0  0  0  0  0  0
   12.5700  -16.3536   18.1307 C   0  0  1  0  0  0  0  0  0  0  0  0
   13.4302  -15.5119   17.4260 O   0  0  0  0  0  0  0  0  0  0  0  0
   11.8705  -15.6595   19.2507 C   0  0  2  0  0  0  0  0  0  0  0  0
   11.0512  -14.5343   18.7802 N   0  0  0  0  0  0  0  0  0  0  0  0
   12.9152  -15.1546   20.2033 C   0  0  0  0  0  0  0  0  0  0  0  0
   13.3191  -13.9825   20.0960 O   0  0  0  0  0  0  0  0  0  0  0  0
   13.4308  -16.0100   21.2114 N   0  0  0  0  0  0  0  0  0  0  0  0
   14.5172  -15.5604   22.1240 C   0  0  1  0  0  0  0  0  0  0  0  0
   14.3998  -16.4558   23.3317 C   0  0  0  0  0  0  0  0  0  0  0  0
   15.4009  -16.2538   24.3660 C   0  0  0  0  0  0  0  0  0  0  0  0
   16.2922  -15.3890   24.2757 O   0  0  0  0  0  0  0  0  0  0  0  0
   15.8218  -15.7825   21.4152 C   0  0  0  0  0  0  0  0  0  0  0  0
   16.7473  -14.9526   21.4515 O   0  0  0  0  0  0  0  0  0  0  0  0
   15.4286  -17.0255   25.5417 O   0  0  0  0  0  0  0  0  0  0  0  0
   16.0466  -16.9543   20.6740 O   0  0  0  0  0  0  0  0  0  0  0  0
  2  1  1  1
  2  3  1  0
  2  4  1  0
  4  6  1  0
  4  5  1  1
  6  7  2  0
  9 10  1  0
  9  8  1  6
 11  9  1  0
 12  6  1  0
 11 12  1  6
 13 14  2  0
 13 11  1  0
 15 13  1  0
 16 17  1  1
 16 15  1  0
 17 18  1  0
 18 19  2  0
 18 22  1  0
 20 16  1  0
 21 20  2  0
 23 20  1  0
M  END
$$$$
