VTD.pdb
     RDKit          3D

 23 22  0  0  1  0  0  0  0  0999 V2000
   15.3564  -20.5175   17.6199 C   0  0  0  0  0  0  0  0  0  0  0  0
   14.1364  -21.2332   17.1244 C   0  0  2  0  0  0  0  0  0  0  0  0
   14.5504  -22.0826   15.9409 C   0  0  0  0  0  0  0  0  0  0  0  0
   12.9969  -20.3463   16.7670 C   0  0  2  0  0  0  0  0  0  0  0  0
   13.1096  -19.9773   15.3757 N   0  0  0  0  0  0  0  0  0  0  0  0
   12.8215  -19.1630   17.5874 C   0  0  0  0  0  0  0  0  0  0  0  0
   13.2206  -18.0045   17.2956 O   0  0  0  0  0  0  0  0  0  0  0  0
    9.5563  -17.7071   18.9387 C   0  0  0  0  0  0  0  0  0  0  0  0
   10.4921  -17.9571   20.0824 C   0  0  1  0  0  0  0  0  0  0  0  0
   10.0404  -19.0464   20.8270 O   0  0  0  0  0  0  0  0  0  0  0  0
   11.9198  -18.0898   19.6708 C   0  0  2  0  0  0  0  0  0  0  0  0
   12.1477  -19.2759   18.8342 N   0  0  0  0  0  0  0  0  0  0  0  0
   12.7509  -18.1887   20.9171 C   0  0  0  0  0  0  0  0  0  0  0  0
   13.0915  -19.3114   21.3323 O   0  0  0  0  0  0  0  0  0  0  0  0
   13.1394  -17.0116   21.6078 N   0  0  0  0  0  0  0  0  0  0  0  0
   13.9551  -17.0794   22.8508 C   0  0  1  0  0  0  0  0  0  0  0  0
   14.4153  -15.6627   23.0864 C   0  0  0  0  0  0  0  0  0  0  0  0
   15.7169  -15.5193   23.7171 C   0  0  0  0  0  0  0  0  0  0  0  0
   16.0217  -16.1150   24.7672 O   0  0  0  0  0  0  0  0  0  0  0  0
   13.0524  -17.5422   23.9574 C   0  0  0  0  0  0  0  0  0  0  0  0
   13.4834  -18.1335   24.9630 O   0  0  0  0  0  0  0  0  0  0  0  0
   16.7219  -14.6944   23.1802 O   0  0  0  0  0  0  0  0  0  0  0  0
   11.6669  -17.3200   23.8950 O   0  0  0  0  0  0  0  0  0  0  0  0
  2  1  1  6
  2  3  1  0
  2  4  1  0
  4  6  1  0
  4  5  1  6
  6  7  2  0
  9 10  1  0
  9  8  1  6
 11  9  1  0
 12  6  1  0
 11 12  1  6
 13 14  2  0
 13 11  1  0
 15 13  1  0
 16 17  1  1
 16 15  1  0
 17 18  1  0
 18 19  2  0
 18 22  1  0
 20 16  1  0
 21 20  2  0
 23 20  1  0
M  END
$$$$
