CLF.pdb
     RDKit          3D

 26 26  0  0  1  0  0  0  0  0999 V2000
   28.3260  -24.5423  -17.0194 N   0  0  0  0  0  0  0  0  0  0  0  0
   26.9430  -24.2893  -16.7016 C   0  0  1  0  0  0  0  0  0  0  0  0
   26.3073  -25.5149  -16.0823 C   0  0  0  0  0  0  0  0  0  0  0  0
   24.5141  -25.2465  -16.0434 S   0  0  0  0  0  0  0  0  0  0  0  0
   26.8465  -23.1042  -15.8504 C   0  0  0  0  0  0  0  0  0  0  0  0
   27.6334  -22.8533  -14.8970 O   0  0  0  0  0  0  0  0  0  0  0  0
   27.9822  -18.9718  -15.2111 C   0  0  0  0  0  0  0  0  0  0  0  0
   27.2562  -19.3772  -16.4496 C   0  0  2  0  0  0  0  0  0  0  0  0
   27.2528  -18.1905  -17.3964 C   0  0  0  0  0  0  0  0  0  0  0  0
   25.8344  -19.7719  -16.2276 C   0  0  0  0  0  0  0  0  0  0  0  0
   25.6738  -20.9504  -15.2956 C   0  0  2  0  0  0  0  0  0  0  0  0
   25.8256  -22.1575  -16.0744 N   0  0  0  0  0  0  0  0  0  0  0  0
   24.2923  -20.8835  -14.7592 C   0  0  0  0  0  0  0  0  0  0  0  0
   23.4051  -21.5629  -15.3230 O   0  0  0  0  0  0  0  0  0  0  0  0
   23.9705  -20.0795  -13.6435 N   0  0  0  0  0  0  0  0  0  0  0  0
   22.6064  -19.9147  -13.1231 C   0  0  1  0  0  0  0  0  0  0  0  0
   22.6841  -19.1289  -11.8667 C   0  0  0  0  0  0  0  0  0  0  0  0
   23.3183  -19.9081  -10.7945 C   0  0  0  0  0  0  0  0  0  0  0  0
   24.6748  -19.8968  -10.5780 C   0  0  0  0  0  0  0  0  0  0  0  0
   25.2466  -20.6392   -9.5540 C   0  0  0  0  0  0  0  0  0  0  0  0
   24.4318  -21.4004   -8.7426 C   0  0  0  0  0  0  0  0  0  0  0  0
   23.0665  -21.4239   -8.9457 C   0  0  0  0  0  0  0  0  0  0  0  0
   22.5019  -20.6802   -9.9700 C   0  0  0  0  0  0  0  0  0  0  0  0
   21.7282  -19.3005  -14.1363 C   0  0  0  0  0  0  0  0  0  0  0  0
   20.3365  -19.4828  -14.0102 O   0  0  0  0  0  0  0  0  0  0  0  0
   22.1277  -18.6262  -15.1020 O   0  0  0  0  0  0  0  0  0  0  0  0
  2  5  1  0
  2  1  1  1
  3  2  1  0
  4  3  1  0
  5  6  2  0
  8  7  1  1
  8  9  1  0
 10  8  1  0
 11 10  1  6
 12 11  1  0
 12  5  1  0
 13 11  1  0
 13 14  2  0
 15 13  1  0
 16 15  1  0
 16 24  1  0
 16 17  1  1
 18 19  2  0
 18 17  1  0
 20 19  1  0
 21 20  2  0
 22 21  1  0
 22 23  2  0
 23 18  1  0
 24 26  2  0
 24 25  1  0
M  END
$$$$
