CLF.pdb
     RDKit          3D

 26 26  0  0  1  0  0  0  0  0999 V2000
   21.2933  -11.7720  -19.9853 N   0  0  0  0  0  0  0  0  0  0  0  0
   20.0642  -11.3736  -19.3463 C   0  0  1  0  0  0  0  0  0  0  0  0
   19.0548  -12.5001  -19.3867 C   0  0  0  0  0  0  0  0  0  0  0  0
   18.5951  -12.7674  -21.1206 S   0  0  0  0  0  0  0  0  0  0  0  0
   20.3478  -10.9094  -17.9890 C   0  0  0  0  0  0  0  0  0  0  0  0
   19.4619  -10.5525  -17.1650 O   0  0  0  0  0  0  0  0  0  0  0  0
   22.1881  -12.7824  -14.3435 C   0  0  0  0  0  0  0  0  0  0  0  0
   23.0869  -12.5146  -15.5036 C   0  0  2  0  0  0  0  0  0  0  0  0
   24.4433  -13.1207  -15.1908 C   0  0  0  0  0  0  0  0  0  0  0  0
   23.3037  -11.0667  -15.7920 C   0  0  0  0  0  0  0  0  0  0  0  0
   22.0502  -10.3438  -16.2272 C   0  0  2  0  0  0  0  0  0  0  0  0
   21.6802  -10.8409  -17.5321 N   0  0  0  0  0  0  0  0  0  0  0  0
   22.4025   -8.9065  -16.3318 C   0  0  0  0  0  0  0  0  0  0  0  0
   22.8846   -8.4924  -17.4100 O   0  0  0  0  0  0  0  0  0  0  0  0
   22.2055   -8.0167  -15.2528 N   0  0  0  0  0  0  0  0  0  0  0  0
   22.3558   -6.5590  -15.3599 C   0  0  1  0  0  0  0  0  0  0  0  0
   21.4220   -6.0751  -16.4068 C   0  0  0  0  0  0  0  0  0  0  0  0
   21.5288   -4.6197  -16.5784 C   0  0  0  0  0  0  0  0  0  0  0  0
   20.6043   -3.7461  -16.0596 C   0  0  0  0  0  0  0  0  0  0  0  0
   20.7329   -2.3750  -16.2330 C   0  0  0  0  0  0  0  0  0  0  0  0
   21.8116   -1.8873  -16.9405 C   0  0  0  0  0  0  0  0  0  0  0  0
   22.7503   -2.7505  -17.4690 C   0  0  0  0  0  0  0  0  0  0  0  0
   22.6159   -4.1187  -17.2922 C   0  0  0  0  0  0  0  0  0  0  0  0
   22.1442   -5.9115  -14.0519 C   0  0  0  0  0  0  0  0  0  0  0  0
   22.9503   -4.8049  -13.7182 O   0  0  0  0  0  0  0  0  0  0  0  0
   21.2986   -6.2717  -13.2139 O   0  0  0  0  0  0  0  0  0  0  0  0
  2  5  1  0
  2  1  1  1
  3  2  1  0
  4  3  1  0
  5  6  2  0
  8  7  1  1
  8  9  1  0
 10  8  1  0
 11 10  1  6
 12 11  1  0
 12  5  1  0
 13 11  1  0
 13 14  2  0
 15 13  1  0
 16 15  1  0
 16 24  1  0
 16 17  1  6
 18 19  2  0
 18 17  1  0
 20 19  1  0
 21 20  2  0
 22 21  1  0
 22 23  2  0
 23 18  1  0
 24 26  2  0
 24 25  1  0
M  END
$$$$
