CLF.pdb
     RDKit          3D

 26 26  0  0  1  0  0  0  0  0999 V2000
   28.7237  -21.1791  -14.0312 N   0  0  0  0  0  0  0  0  0  0  0  0
   27.9206  -20.2106  -13.3280 C   0  0  1  0  0  0  0  0  0  0  0  0
   27.1491  -19.3502  -14.3048 C   0  0  0  0  0  0  0  0  0  0  0  0
   26.4974  -17.9259  -13.3906 S   0  0  0  0  0  0  0  0  0  0  0  0
   27.0583  -20.8968  -12.3669 C   0  0  0  0  0  0  0  0  0  0  0  0
   26.5215  -22.0191  -12.5752 O   0  0  0  0  0  0  0  0  0  0  0  0
   28.2747  -21.3106   -8.0149 C   0  0  0  0  0  0  0  0  0  0  0  0
   27.6126  -20.0139   -8.3399 C   0  0  2  0  0  0  0  0  0  0  0  0
   27.5965  -19.1706   -7.0776 C   0  0  0  0  0  0  0  0  0  0  0  0
   26.2007  -20.1439   -8.8048 C   0  0  0  0  0  0  0  0  0  0  0  0
   26.0531  -20.9671  -10.0633 C   0  0  2  0  0  0  0  0  0  0  0  0
   26.7835  -20.3029  -11.1177 N   0  0  0  0  0  0  0  0  0  0  0  0
   24.6080  -20.9766  -10.3985 C   0  0  0  0  0  0  0  0  0  0  0  0
   23.8090  -21.4490   -9.5589 O   0  0  0  0  0  0  0  0  0  0  0  0
   24.1308  -20.4702  -11.6276 N   0  0  0  0  0  0  0  0  0  0  0  0
   22.7088  -20.2421  -11.9188 C   0  0  1  0  0  0  0  0  0  0  0  0
   22.5978  -19.0076  -12.7348 C   0  0  0  0  0  0  0  0  0  0  0  0
   22.7487  -19.3049  -14.1658 C   0  0  0  0  0  0  0  0  0  0  0  0
   21.6789  -19.6048  -14.9736 C   0  0  0  0  0  0  0  0  0  0  0  0
   21.8503  -19.8768  -16.3239 C   0  0  0  0  0  0  0  0  0  0  0  0
   23.1213  -19.8438  -16.8581 C   0  0  0  0  0  0  0  0  0  0  0  0
   24.2081  -19.5445  -16.0611 C   0  0  0  0  0  0  0  0  0  0  0  0
   24.0299  -19.2738  -14.7135 C   0  0  0  0  0  0  0  0  0  0  0  0
   22.1100  -21.4220  -12.5701 C   0  0  0  0  0  0  0  0  0  0  0  0
   22.9606  -22.4844  -12.9357 O   0  0  0  0  0  0  0  0  0  0  0  0
   20.8989  -21.5512  -12.8220 O   0  0  0  0  0  0  0  0  0  0  0  0
  2  5  1  0
  2  1  1  6
  3  2  1  0
  4  3  1  0
  5  6  2  0
  8  7  1  1
  8  9  1  0
 10  8  1  0
 11 10  1  1
 12 11  1  0
 12  5  1  0
 13 11  1  0
 13 14  2  0
 15 13  1  0
 16 15  1  0
 16 24  1  0
 16 17  1  6
 18 19  2  0
 18 17  1  0
 20 19  1  0
 21 20  2  0
 22 21  1  0
 22 23  2  0
 23 18  1  0
 24 26  2  0
 24 25  1  0
M  END
$$$$
