CLF.pdb
     RDKit          3D

 26 26  0  0  1  0  0  0  0  0999 V2000
   28.5498  -21.0139  -13.8759 N   0  0  0  0  0  0  0  0  0  0  0  0
   27.8678  -20.0562  -13.0421 C   0  0  1  0  0  0  0  0  0  0  0  0
   27.1292  -19.0438  -13.8904 C   0  0  0  0  0  0  0  0  0  0  0  0
   28.3214  -17.7753  -14.3991 S   0  0  0  0  0  0  0  0  0  0  0  0
   26.9949  -20.7600  -12.1035 C   0  0  0  0  0  0  0  0  0  0  0  0
   26.4529  -21.8737  -12.3422 O   0  0  0  0  0  0  0  0  0  0  0  0
   28.1125  -21.2923   -7.7879 C   0  0  0  0  0  0  0  0  0  0  0  0
   27.4738  -20.0072   -8.1955 C   0  0  2  0  0  0  0  0  0  0  0  0
   27.5722  -19.0467   -7.0238 C   0  0  0  0  0  0  0  0  0  0  0  0
   26.0299  -20.1244   -8.5532 C   0  0  0  0  0  0  0  0  0  0  0  0
   25.7918  -20.7756   -9.8957 C   0  0  2  0  0  0  0  0  0  0  0  0
   26.7154  -20.1945  -10.8423 N   0  0  0  0  0  0  0  0  0  0  0  0
   24.4036  -20.4357  -10.2933 C   0  0  0  0  0  0  0  0  0  0  0  0
   23.9889  -19.2774  -10.0630 O   0  0  0  0  0  0  0  0  0  0  0  0
   23.5599  -21.3822  -10.9154 N   0  0  0  0  0  0  0  0  0  0  0  0
   22.5837  -21.0426  -11.9599 C   0  0  1  0  0  0  0  0  0  0  0  0
   23.2881  -20.2759  -13.0173 C   0  0  0  0  0  0  0  0  0  0  0  0
   22.3614  -19.8733  -14.0841 C   0  0  0  0  0  0  0  0  0  0  0  0
   22.2211  -20.5891  -15.2481 C   0  0  0  0  0  0  0  0  0  0  0  0
   21.3339  -20.1881  -16.2374 C   0  0  0  0  0  0  0  0  0  0  0  0
   20.5824  -19.0484  -16.0417 C   0  0  0  0  0  0  0  0  0  0  0  0
   20.7105  -18.3166  -14.8781 C   0  0  0  0  0  0  0  0  0  0  0  0
   21.5982  -18.7227  -13.8942 C   0  0  0  0  0  0  0  0  0  0  0  0
   21.9178  -22.2553  -12.4708 C   0  0  0  0  0  0  0  0  0  0  0  0
   20.5140  -22.2432  -12.5926 O   0  0  0  0  0  0  0  0  0  0  0  0
   22.5083  -23.2971  -12.8068 O   0  0  0  0  0  0  0  0  0  0  0  0
  2  5  1  0
  2  1  1  6
  3  2  1  0
  4  3  1  0
  5  6  2  0
  8  7  1  1
  8  9  1  0
 10  8  1  0
 11 10  1  1
 12 11  1  0
 12  5  1  0
 13 11  1  0
 13 14  2  0
 15 13  1  0
 16 15  1  0
 16 24  1  0
 16 17  1  6
 18 19  2  0
 18 17  1  0
 20 19  1  0
 21 20  2  0
 22 21  1  0
 22 23  2  0
 23 18  1  0
 24 26  2  0
 24 25  1  0
M  END
$$$$
