CLF.pdb
     RDKit          3D

 26 26  0  0  1  0  0  0  0  0999 V2000
   23.0672  -11.4148  -16.7337 N   0  0  0  0  0  0  0  0  0  0  0  0
   22.3492  -10.3258  -17.3471 C   0  0  1  0  0  0  0  0  0  0  0  0
   21.2582  -10.8524  -18.2537 C   0  0  0  0  0  0  0  0  0  0  0  0
   22.0559  -11.7391  -19.6199 S   0  0  0  0  0  0  0  0  0  0  0  0
   21.8451   -9.4274  -16.3093 C   0  0  0  0  0  0  0  0  0  0  0  0
   21.3591   -9.8173  -15.2126 O   0  0  0  0  0  0  0  0  0  0  0  0
   22.1918   -3.3109  -15.2464 C   0  0  0  0  0  0  0  0  0  0  0  0
   21.6073   -4.6460  -14.9282 C   0  0  2  0  0  0  0  0  0  0  0  0
   22.0199   -5.0091  -13.5130 C   0  0  0  0  0  0  0  0  0  0  0  0
   22.0692   -5.7482  -15.8217 C   0  0  0  0  0  0  0  0  0  0  0  0
   21.4083   -7.0760  -15.5332 C   0  0  2  0  0  0  0  0  0  0  0  0
   21.8859   -8.0315  -16.5056 N   0  0  0  0  0  0  0  0  0  0  0  0
   19.9503   -6.8748  -15.7187 C   0  0  0  0  0  0  0  0  0  0  0  0
   19.5273   -6.6416  -16.8734 O   0  0  0  0  0  0  0  0  0  0  0  0
   19.0506   -6.9411  -14.6320 N   0  0  0  0  0  0  0  0  0  0  0  0
   17.6049   -6.7089  -14.7546 C   0  0  1  0  0  0  0  0  0  0  0  0
   16.8994   -7.8718  -14.1611 C   0  0  0  0  0  0  0  0  0  0  0  0
   16.6428   -8.9064  -15.1722 C   0  0  0  0  0  0  0  0  0  0  0  0
   15.4541   -8.9912  -15.8555 C   0  0  0  0  0  0  0  0  0  0  0  0
   15.2408   -9.9765  -16.8096 C   0  0  0  0  0  0  0  0  0  0  0  0
   16.2453  -10.8844  -17.0714 C   0  0  0  0  0  0  0  0  0  0  0  0
   17.4463  -10.8144  -16.3942 C   0  0  0  0  0  0  0  0  0  0  0  0
   17.6528   -9.8279  -15.4428 C   0  0  0  0  0  0  0  0  0  0  0  0
   17.2248   -5.4248  -14.1370 C   0  0  0  0  0  0  0  0  0  0  0  0
   15.9284   -4.9277  -14.3778 O   0  0  0  0  0  0  0  0  0  0  0  0
   17.9694   -4.7419  -13.4115 O   0  0  0  0  0  0  0  0  0  0  0  0
  2  5  1  0
  2  1  1  1
  3  2  1  0
  4  3  1  0
  5  6  2  0
  8  7  1  6
  8  9  1  0
 10  8  1  0
 11 10  1  6
 12 11  1  0
 12  5  1  0
 13 11  1  0
 13 14  2  0
 15 13  1  0
 16 15  1  0
 16 24  1  0
 16 17  1  1
 18 19  2  0
 18 17  1  0
 20 19  1  0
 21 20  2  0
 22 21  1  0
 22 23  2  0
 23 18  1  0
 24 26  2  0
 24 25  1  0
M  END
$$$$
