CLF.pdb
     RDKit          3D

 26 26  0  0  1  0  0  0  0  0999 V2000
   25.4340  -17.3105  -18.2989 N   0  0  0  0  0  0  0  0  0  0  0  0
   24.7254  -17.2838  -17.0439 C   0  0  1  0  0  0  0  0  0  0  0  0
   23.3029  -16.8094  -17.2468 C   0  0  0  0  0  0  0  0  0  0  0  0
   22.5408  -16.6344  -15.6104 S   0  0  0  0  0  0  0  0  0  0  0  0
   24.8038  -18.5995  -16.4108 C   0  0  0  0  0  0  0  0  0  0  0  0
   24.4641  -19.6758  -16.9741 O   0  0  0  0  0  0  0  0  0  0  0  0
   27.8843  -21.3427  -15.1814 C   0  0  0  0  0  0  0  0  0  0  0  0
   27.7906  -20.1068  -14.3512 C   0  0  2  0  0  0  0  0  0  0  0  0
   28.9687  -20.0992  -13.3937 C   0  0  0  0  0  0  0  0  0  0  0  0
   26.5495  -20.0114  -13.5284 C   0  0  0  0  0  0  0  0  0  0  0  0
   25.2829  -19.9592  -14.3508 C   0  0  2  0  0  0  0  0  0  0  0  0
   25.2830  -18.7181  -15.0898 N   0  0  0  0  0  0  0  0  0  0  0  0
   24.1520  -19.9581  -13.3907 C   0  0  0  0  0  0  0  0  0  0  0  0
   24.2128  -19.1885  -12.4056 O   0  0  0  0  0  0  0  0  0  0  0  0
   23.0299  -20.7971  -13.5691 N   0  0  0  0  0  0  0  0  0  0  0  0
   21.8833  -20.8319  -12.6510 C   0  0  1  0  0  0  0  0  0  0  0  0
   21.4207  -19.4380  -12.4382 C   0  0  0  0  0  0  0  0  0  0  0  0
   20.2302  -19.4019  -11.5779 C   0  0  0  0  0  0  0  0  0  0  0  0
   20.3039  -19.5213  -10.2113 C   0  0  0  0  0  0  0  0  0  0  0  0
   19.1628  -19.4787   -9.4223 C   0  0  0  0  0  0  0  0  0  0  0  0
   17.9350  -19.3133  -10.0282 C   0  0  0  0  0  0  0  0  0  0  0  0
   17.8420  -19.1918  -11.4002 C   0  0  0  0  0  0  0  0  0  0  0  0
   18.9855  -19.2351  -12.1823 C   0  0  0  0  0  0  0  0  0  0  0  0
   20.8248  -21.7205  -13.1657 C   0  0  0  0  0  0  0  0  0  0  0  0
   20.0261  -22.4140  -12.2347 O   0  0  0  0  0  0  0  0  0  0  0  0
   20.5812  -21.9043  -14.3715 O   0  0  0  0  0  0  0  0  0  0  0  0
  2  5  1  0
  2  1  1  6
  3  2  1  0
  4  3  1  0
  5  6  2  0
  8  7  1  1
  8  9  1  0
 10  8  1  0
 11 10  1  1
 12 11  1  0
 12  5  1  0
 13 11  1  0
 13 14  2  0
 15 13  1  0
 16 15  1  0
 16 24  1  0
 16 17  1  6
 18 19  2  0
 18 17  1  0
 20 19  1  0
 21 20  2  0
 22 21  1  0
 22 23  2  0
 23 18  1  0
 24 26  2  0
 24 25  1  0
M  END
$$$$
