CLF.pdb
     RDKit          3D

 26 26  0  0  1  0  0  0  0  0999 V2000
   27.4436  -16.6891  -16.6430 N   0  0  0  0  0  0  0  0  0  0  0  0
   26.7049  -17.2712  -15.5507 C   0  0  1  0  0  0  0  0  0  0  0  0
   25.4344  -16.4907  -15.2928 C   0  0  0  0  0  0  0  0  0  0  0  0
   24.6659  -17.1665  -13.7955 S   0  0  0  0  0  0  0  0  0  0  0  0
   26.4599  -18.6862  -15.8261 C   0  0  0  0  0  0  0  0  0  0  0  0
   25.7848  -19.1088  -16.8043 O   0  0  0  0  0  0  0  0  0  0  0  0
   27.9315  -22.2176  -17.7738 C   0  0  0  0  0  0  0  0  0  0  0  0
   28.7449  -21.5803  -16.6979 C   0  0  2  0  0  0  0  0  0  0  0  0
   30.1081  -22.2484  -16.6877 C   0  0  0  0  0  0  0  0  0  0  0  0
   28.1711  -21.7218  -15.3277 C   0  0  0  0  0  0  0  0  0  0  0  0
   26.8067  -21.0903  -15.1767 C   0  0  2  0  0  0  0  0  0  0  0  0
   26.9927  -19.6727  -14.9708 N   0  0  0  0  0  0  0  0  0  0  0  0
   26.1942  -21.6857  -13.9638 C   0  0  0  0  0  0  0  0  0  0  0  0
   26.3207  -22.9174  -13.7808 O   0  0  0  0  0  0  0  0  0  0  0  0
   25.4841  -20.8977  -13.0313 N   0  0  0  0  0  0  0  0  0  0  0  0
   24.8813  -21.4328  -11.8028 C   0  0  1  0  0  0  0  0  0  0  0  0
   25.9523  -22.0869  -11.0109 C   0  0  0  0  0  0  0  0  0  0  0  0
   26.4517  -21.1926   -9.9574 C   0  0  0  0  0  0  0  0  0  0  0  0
   27.7729  -21.1601   -9.5827 C   0  0  0  0  0  0  0  0  0  0  0  0
   28.2179  -20.3013   -8.5872 C   0  0  0  0  0  0  0  0  0  0  0  0
   27.3113  -19.4677   -7.9667 C   0  0  0  0  0  0  0  0  0  0  0  0
   25.9797  -19.4869   -8.3304 C   0  0  0  0  0  0  0  0  0  0  0  0
   25.5419  -20.3470   -9.3253 C   0  0  0  0  0  0  0  0  0  0  0  0
   24.1768  -20.3724  -11.0582 C   0  0  0  0  0  0  0  0  0  0  0  0
   23.3362  -20.7524   -9.9929 O   0  0  0  0  0  0  0  0  0  0  0  0
   24.2711  -19.1563  -11.3016 O   0  0  0  0  0  0  0  0  0  0  0  0
  2  5  1  0
  2  1  1  6
  3  2  1  0
  4  3  1  0
  5  6  2  0
  8  7  1  6
  8  9  1  0
 10  8  1  0
 11 10  1  1
 12 11  1  0
 12  5  1  0
 13 11  1  0
 13 14  2  0
 15 13  1  0
 16 15  1  0
 16 24  1  0
 16 17  1  1
 18 19  2  0
 18 17  1  0
 20 19  1  0
 21 20  2  0
 22 21  1  0
 22 23  2  0
 23 18  1  0
 24 26  2  0
 24 25  1  0
M  END
$$$$
