CLF.pdb
     RDKit          3D

 26 26  0  0  1  0  0  0  0  0999 V2000
   14.0654  -14.5329    8.9828 N   0  0  0  0  0  0  0  0  0  0  0  0
   15.4859  -14.3316    9.1222 C   0  0  1  0  0  0  0  0  0  0  0  0
   15.9577  -14.7974   10.4824 C   0  0  0  0  0  0  0  0  0  0  0  0
   15.6583  -13.4520   11.6610 S   0  0  0  0  0  0  0  0  0  0  0  0
   16.1830  -14.9915    8.0191 C   0  0  0  0  0  0  0  0  0  0  0  0
   15.7431  -16.0055    7.4113 O   0  0  0  0  0  0  0  0  0  0  0  0
   16.8090  -13.5011    4.1106 C   0  0  0  0  0  0  0  0  0  0  0  0
   17.7187  -12.9049    5.1316 C   0  0  2  0  0  0  0  0  0  0  0  0
   18.4753  -11.7658    4.4721 C   0  0  0  0  0  0  0  0  0  0  0  0
   18.7328  -13.8524    5.6797 C   0  0  0  0  0  0  0  0  0  0  0  0
   18.1276  -15.0190    6.4255 C   0  0  2  0  0  0  0  0  0  0  0  0
   17.4268  -14.4967    7.5755 N   0  0  0  0  0  0  0  0  0  0  0  0
   19.2578  -15.8644    6.8822 C   0  0  0  0  0  0  0  0  0  0  0  0
   19.8083  -16.6176    6.0478 O   0  0  0  0  0  0  0  0  0  0  0  0
   19.7120  -15.8322    8.2192 N   0  0  0  0  0  0  0  0  0  0  0  0
   20.8251  -16.6488    8.7223 C   0  0  1  0  0  0  0  0  0  0  0  0
   21.6945  -15.7803    9.5542 C   0  0  0  0  0  0  0  0  0  0  0  0
   22.8198  -16.5409   10.1147 C   0  0  0  0  0  0  0  0  0  0  0  0
   22.7653  -17.1338   11.3527 C   0  0  0  0  0  0  0  0  0  0  0  0
   23.8422  -17.8509   11.8554 C   0  0  0  0  0  0  0  0  0  0  0  0
   24.9853  -17.9662   11.0926 C   0  0  0  0  0  0  0  0  0  0  0  0
   25.0578  -17.3767    9.8463 C   0  0  0  0  0  0  0  0  0  0  0  0
   23.9787  -16.6621    9.3502 C   0  0  0  0  0  0  0  0  0  0  0  0
   20.3236  -17.8305    9.4482 C   0  0  0  0  0  0  0  0  0  0  0  0
   21.1317  -18.9845    9.4812 O   0  0  0  0  0  0  0  0  0  0  0  0
   19.2310  -17.8850   10.0401 O   0  0  0  0  0  0  0  0  0  0  0  0
  2  5  1  0
  2  1  1  6
  3  2  1  0
  4  3  1  0
  5  6  2  0
  8  7  1  6
  8  9  1  0
 10  8  1  0
 11 10  1  1
 12 11  1  0
 12  5  1  0
 13 11  1  0
 13 14  2  0
 15 13  1  0
 16 15  1  0
 16 24  1  0
 16 17  1  1
 18 19  2  0
 18 17  1  0
 20 19  1  0
 21 20  2  0
 22 21  1  0
 22 23  2  0
 23 18  1  0
 24 26  2  0
 24 25  1  0
M  END
$$$$
