CLF.pdb
     RDKit          3D

 26 26  0  0  1  0  0  0  0  0999 V2000
   27.5477  -20.6474  -17.5654 N   0  0  0  0  0  0  0  0  0  0  0  0
   26.7093  -19.7526  -16.8077 C   0  0  1  0  0  0  0  0  0  0  0  0
   25.8096  -18.9588  -17.7298 C   0  0  0  0  0  0  0  0  0  0  0  0
   24.8299  -17.8273  -16.7056 S   0  0  0  0  0  0  0  0  0  0  0  0
   25.9685  -20.5121  -15.8015 C   0  0  0  0  0  0  0  0  0  0  0  0
   25.2926  -21.5468  -16.0537 O   0  0  0  0  0  0  0  0  0  0  0  0
   23.8623  -20.8234  -10.6560 C   0  0  0  0  0  0  0  0  0  0  0  0
   25.2743  -21.2044  -10.9502 C   0  0  2  0  0  0  0  0  0  0  0  0
   26.1058  -20.8959   -9.7180 C   0  0  0  0  0  0  0  0  0  0  0  0
   25.8849  -20.4658  -12.0939 C   0  0  0  0  0  0  0  0  0  0  0  0
   25.2037  -20.7314  -13.4163 C   0  0  2  0  0  0  0  0  0  0  0  0
   25.9835  -20.0971  -14.4538 N   0  0  0  0  0  0  0  0  0  0  0  0
   23.8687  -20.0885  -13.3440 C   0  0  0  0  0  0  0  0  0  0  0  0
   23.8079  -18.8888  -12.9923 O   0  0  0  0  0  0  0  0  0  0  0  0
   22.6887  -20.7974  -13.6598 N   0  0  0  0  0  0  0  0  0  0  0  0
   21.3421  -20.2144  -13.5846 C   0  0  1  0  0  0  0  0  0  0  0  0
   21.1659  -19.3099  -14.7478 C   0  0  0  0  0  0  0  0  0  0  0  0
   21.1569  -20.0654  -16.0080 C   0  0  0  0  0  0  0  0  0  0  0  0
   20.0427  -20.7281  -16.4626 C   0  0  0  0  0  0  0  0  0  0  0  0
   20.0612  -21.4302  -17.6598 C   0  0  0  0  0  0  0  0  0  0  0  0
   21.2233  -21.4591  -18.4018 C   0  0  0  0  0  0  0  0  0  0  0  0
   22.3525  -20.7990  -17.9602 C   0  0  0  0  0  0  0  0  0  0  0  0
   22.3272  -20.0997  -16.7638 C   0  0  0  0  0  0  0  0  0  0  0  0
   20.3155  -21.2708  -13.5125 C   0  0  0  0  0  0  0  0  0  0  0  0
   20.7393  -22.6145  -13.5388 O   0  0  0  0  0  0  0  0  0  0  0  0
   19.0922  -21.0624  -13.4281 O   0  0  0  0  0  0  0  0  0  0  0  0
  2  5  1  0
  2  1  1  6
  3  2  1  0
  4  3  1  0
  5  6  2  0
  8  7  1  1
  8  9  1  0
 10  8  1  0
 11 10  1  1
 12 11  1  0
 12  5  1  0
 13 11  1  0
 13 14  2  0
 15 13  1  0
 16 15  1  0
 16 24  1  0
 16 17  1  6
 18 19  2  0
 18 17  1  0
 20 19  1  0
 21 20  2  0
 22 21  1  0
 22 23  2  0
 23 18  1  0
 24 26  2  0
 24 25  1  0
M  END
$$$$
