CLF.pdb
     RDKit          3D

 26 26  0  0  1  0  0  0  0  0999 V2000
   20.8124  -36.9281  -10.9358 N   0  0  0  0  0  0  0  0  0  0  0  0
   20.8105  -35.7103  -10.1646 C   0  0  1  0  0  0  0  0  0  0  0  0
   19.5029  -35.5554   -9.4191 C   0  0  0  0  0  0  0  0  0  0  0  0
   18.3971  -34.5506  -10.4471 S   0  0  0  0  0  0  0  0  0  0  0  0
   21.9767  -35.6891   -9.2826 C   0  0  0  0  0  0  0  0  0  0  0  0
   22.2618  -36.6077   -8.4666 O   0  0  0  0  0  0  0  0  0  0  0  0
   27.1836  -32.3279   -8.9649 C   0  0  0  0  0  0  0  0  0  0  0  0
   26.2929  -33.4034   -8.4400 C   0  0  2  0  0  0  0  0  0  0  0  0
   26.9389  -34.7396   -8.7595 C   0  0  0  0  0  0  0  0  0  0  0  0
   24.9263  -33.4167   -9.0388 C   0  0  0  0  0  0  0  0  0  0  0  0
   24.0253  -34.4840   -8.4624 C   0  0  2  0  0  0  0  0  0  0  0  0
   22.8635  -34.5931   -9.3139 N   0  0  0  0  0  0  0  0  0  0  0  0
   23.6070  -34.0087   -7.1208 C   0  0  0  0  0  0  0  0  0  0  0  0
   22.7990  -33.0549   -7.0563 O   0  0  0  0  0  0  0  0  0  0  0  0
   24.0982  -34.6054   -5.9387 N   0  0  0  0  0  0  0  0  0  0  0  0
   23.4800  -34.4279   -4.6176 C   0  0  1  0  0  0  0  0  0  0  0  0
   22.0450  -34.7898   -4.7279 C   0  0  0  0  0  0  0  0  0  0  0  0
   21.3698  -34.6750   -3.4280 C   0  0  0  0  0  0  0  0  0  0  0  0
   21.0705  -35.7691   -2.6531 C   0  0  0  0  0  0  0  0  0  0  0  0
   20.4362  -35.6307   -1.4264 C   0  0  0  0  0  0  0  0  0  0  0  0
   20.1027  -34.3681   -0.9831 C   0  0  0  0  0  0  0  0  0  0  0  0
   20.3956  -33.2573   -1.7487 C   0  0  0  0  0  0  0  0  0  0  0  0
   21.0293  -33.4025   -2.9728 C   0  0  0  0  0  0  0  0  0  0  0  0
   24.1967  -35.2097   -3.5928 C   0  0  0  0  0  0  0  0  0  0  0  0
   24.4387  -34.6058   -2.3428 O   0  0  0  0  0  0  0  0  0  0  0  0
   24.6062  -36.3735   -3.7504 O   0  0  0  0  0  0  0  0  0  0  0  0
  2  5  1  0
  2  1  1  1
  3  2  1  0
  4  3  1  0
  5  6  2  0
  8  7  1  6
  8  9  1  0
 10  8  1  0
 11 10  1  6
 12 11  1  0
 12  5  1  0
 13 11  1  0
 13 14  2  0
 15 13  1  0
 16 15  1  0
 16 24  1  0
 16 17  1  6
 18 19  2  0
 18 17  1  0
 20 19  1  0
 21 20  2  0
 22 21  1  0
 22 23  2  0
 23 18  1  0
 24 26  2  0
 24 25  1  0
M  END
$$$$
