CLF.pdb
     RDKit          3D

 26 26  0  0  1  0  0  0  0  0999 V2000
   29.0892  -22.3578  -17.9509 N   0  0  0  0  0  0  0  0  0  0  0  0
   27.7893  -22.3786  -17.3283 C   0  0  1  0  0  0  0  0  0  0  0  0
   27.2391  -23.7878  -17.2939 C   0  0  0  0  0  0  0  0  0  0  0  0
   25.6311  -23.7322  -16.4569 S   0  0  0  0  0  0  0  0  0  0  0  0
   27.8727  -21.7657  -16.0033 C   0  0  0  0  0  0  0  0  0  0  0  0
   28.6544  -22.1548  -15.0930 O   0  0  0  0  0  0  0  0  0  0  0  0
   27.4350  -16.2393  -14.9465 C   0  0  0  0  0  0  0  0  0  0  0  0
   27.7963  -17.6828  -14.8388 C   0  0  2  0  0  0  0  0  0  0  0  0
   28.4130  -18.1077  -16.1594 C   0  0  0  0  0  0  0  0  0  0  0  0
   26.6395  -18.5883  -14.5775 C   0  0  0  0  0  0  0  0  0  0  0  0
   27.0360  -20.0335  -14.3843 C   0  0  2  0  0  0  0  0  0  0  0  0
   27.0462  -20.6694  -15.6812 N   0  0  0  0  0  0  0  0  0  0  0  0
   25.9844  -20.6543  -13.5420 C   0  0  0  0  0  0  0  0  0  0  0  0
   24.9023  -20.9719  -14.0850 O   0  0  0  0  0  0  0  0  0  0  0  0
   26.1832  -20.8871  -12.1632 N   0  0  0  0  0  0  0  0  0  0  0  0
   25.2245  -21.6031  -11.3104 C   0  0  1  0  0  0  0  0  0  0  0  0
   25.9580  -22.1267  -10.1314 C   0  0  0  0  0  0  0  0  0  0  0  0
   26.4758  -21.0303   -9.3016 C   0  0  0  0  0  0  0  0  0  0  0  0
   25.6622  -20.2572   -8.5094 C   0  0  0  0  0  0  0  0  0  0  0  0
   26.1794  -19.2306   -7.7316 C   0  0  0  0  0  0  0  0  0  0  0  0
   27.5366  -18.9874   -7.7592 C   0  0  0  0  0  0  0  0  0  0  0  0
   28.3693  -19.7542   -8.5496 C   0  0  0  0  0  0  0  0  0  0  0  0
   27.8463  -20.7779   -9.3239 C   0  0  0  0  0  0  0  0  0  0  0  0
   24.0918  -20.7315  -10.9468 C   0  0  0  0  0  0  0  0  0  0  0  0
   24.2161  -19.3468  -11.1771 O   0  0  0  0  0  0  0  0  0  0  0  0
   23.0245  -21.1310  -10.4485 O   0  0  0  0  0  0  0  0  0  0  0  0
  2  5  1  0
  2  1  1  1
  3  2  1  0
  4  3  1  0
  5  6  2  0
  8  7  1  6
  8  9  1  0
 10  8  1  0
 11 10  1  6
 12 11  1  0
 12  5  1  0
 13 11  1  0
 13 14  2  0
 15 13  1  0
 16 15  1  0
 16 24  1  0
 16 17  1  1
 18 19  2  0
 18 17  1  0
 20 19  1  0
 21 20  2  0
 22 21  1  0
 22 23  2  0
 23 18  1  0
 24 26  2  0
 24 25  1  0
M  END
$$$$
