CLF.pdb
     RDKit          3D

 26 26  0  0  1  0  0  0  0  0999 V2000
   22.0249  -11.7307  -19.2610 N   0  0  0  0  0  0  0  0  0  0  0  0
   21.2928  -11.0745  -18.2070 C   0  0  1  0  0  0  0  0  0  0  0  0
   21.7759  -11.5443  -16.8521 C   0  0  0  0  0  0  0  0  0  0  0  0
   21.0736  -13.1900  -16.5559 S   0  0  0  0  0  0  0  0  0  0  0  0
   21.3874   -9.6251  -18.3759 C   0  0  0  0  0  0  0  0  0  0  0  0
   22.3707   -9.0384  -18.9052 O   0  0  0  0  0  0  0  0  0  0  0  0
   19.4259   -4.4832  -18.6468 C   0  0  0  0  0  0  0  0  0  0  0  0
   19.0648   -5.6804  -19.4603 C   0  0  2  0  0  0  0  0  0  0  0  0
   17.6836   -5.4459  -20.0453 C   0  0  0  0  0  0  0  0  0  0  0  0
   19.0086   -6.9552  -18.6869 C   0  0  0  0  0  0  0  0  0  0  0  0
   20.3372   -7.3585  -18.0908 C   0  0  2  0  0  0  0  0  0  0  0  0
   20.3371   -8.7944  -17.9339 N   0  0  0  0  0  0  0  0  0  0  0  0
   20.4156   -6.7191  -16.7544 C   0  0  0  0  0  0  0  0  0  0  0  0
   19.5809   -7.0592  -15.8860 O   0  0  0  0  0  0  0  0  0  0  0  0
   21.3992   -5.7511  -16.4545 N   0  0  0  0  0  0  0  0  0  0  0  0
   21.5273   -5.0969  -15.1451 C   0  0  1  0  0  0  0  0  0  0  0  0
   22.8823   -5.3883  -14.6148 C   0  0  0  0  0  0  0  0  0  0  0  0
   23.0842   -6.8340  -14.4468 C   0  0  0  0  0  0  0  0  0  0  0  0
   22.4591   -7.5561  -13.4596 C   0  0  0  0  0  0  0  0  0  0  0  0
   22.6646   -8.9224  -13.3271 C   0  0  0  0  0  0  0  0  0  0  0  0
   23.5138   -9.5607  -14.2065 C   0  0  0  0  0  0  0  0  0  0  0  0
   24.1507   -8.8508  -15.2047 C   0  0  0  0  0  0  0  0  0  0  0  0
   23.9410   -7.4866  -15.3314 C   0  0  0  0  0  0  0  0  0  0  0  0
   21.2450   -3.6531  -15.2492 C   0  0  0  0  0  0  0  0  0  0  0  0
   20.8591   -2.9640  -14.0822 O   0  0  0  0  0  0  0  0  0  0  0  0
   21.3240   -2.9918  -16.2996 O   0  0  0  0  0  0  0  0  0  0  0  0
  2  5  1  0
  2  1  1  6
  3  2  1  0
  4  3  1  0
  5  6  2  0
  8  7  1  1
  8  9  1  0
 10  8  1  0
 11 10  1  1
 12 11  1  0
 12  5  1  0
 13 11  1  0
 13 14  2  0
 15 13  1  0
 16 15  1  0
 16 24  1  0
 16 17  1  6
 18 19  2  0
 18 17  1  0
 20 19  1  0
 21 20  2  0
 22 21  1  0
 22 23  2  0
 23 18  1  0
 24 26  2  0
 24 25  1  0
M  END
$$$$
