CLF.pdb
     RDKit          3D

 26 26  0  0  1  0  0  0  0  0999 V2000
   28.2479  -19.2686  -16.1710 N   0  0  0  0  0  0  0  0  0  0  0  0
   27.7737  -18.9266  -14.8535 C   0  0  1  0  0  0  0  0  0  0  0  0
   26.5990  -17.9769  -14.9414 C   0  0  0  0  0  0  0  0  0  0  0  0
   27.2356  -16.3575  -15.4528 S   0  0  0  0  0  0  0  0  0  0  0  0
   27.4653  -20.1493  -14.1130 C   0  0  0  0  0  0  0  0  0  0  0  0
   27.1439  -21.2417  -14.6556 O   0  0  0  0  0  0  0  0  0  0  0  0
   30.1041  -22.0768  -11.4106 C   0  0  0  0  0  0  0  0  0  0  0  0
   29.3696  -20.9543  -10.7580 C   0  0  2  0  0  0  0  0  0  0  0  0
   29.9589  -20.7556   -9.3731 C   0  0  0  0  0  0  0  0  0  0  0  0
   27.9066  -21.1935  -10.5876 C   0  0  0  0  0  0  0  0  0  0  0  0
   27.1549  -21.2916  -11.8947 C   0  0  2  0  0  0  0  0  0  0  0  0
   27.5184  -20.1515  -12.7038 N   0  0  0  0  0  0  0  0  0  0  0  0
   25.7112  -21.2165  -11.5620 C   0  0  0  0  0  0  0  0  0  0  0  0
   25.3851  -21.1405  -10.3560 O   0  0  0  0  0  0  0  0  0  0  0  0
   24.7191  -21.2297  -12.5672 N   0  0  0  0  0  0  0  0  0  0  0  0
   23.2810  -21.0989  -12.2956 C   0  0  1  0  0  0  0  0  0  0  0  0
   23.0658  -19.8336  -11.5508 C   0  0  0  0  0  0  0  0  0  0  0  0
   21.6344  -19.5900  -11.3256 C   0  0  0  0  0  0  0  0  0  0  0  0
   20.8263  -19.0129  -12.2747 C   0  0  0  0  0  0  0  0  0  0  0  0
   19.4756  -18.7990  -12.0366 C   0  0  0  0  0  0  0  0  0  0  0  0
   18.9415  -19.1752  -10.8221 C   0  0  0  0  0  0  0  0  0  0  0  0
   19.7388  -19.7564   -9.8565 C   0  0  0  0  0  0  0  0  0  0  0  0
   21.0868  -19.9672  -10.1008 C   0  0  0  0  0  0  0  0  0  0  0  0
   22.5014  -21.1745  -13.5452 C   0  0  0  0  0  0  0  0  0  0  0  0
   21.2084  -21.7324  -13.4909 O   0  0  0  0  0  0  0  0  0  0  0  0
   22.9029  -20.7778  -14.6535 O   0  0  0  0  0  0  0  0  0  0  0  0
  2  5  1  0
  2  1  1  6
  3  2  1  0
  4  3  1  0
  5  6  2  0
  8  7  1  1
  8  9  1  0
 10  8  1  0
 11 10  1  1
 12 11  1  0
 12  5  1  0
 13 11  1  0
 13 14  2  0
 15 13  1  0
 16 15  1  0
 16 24  1  0
 16 17  1  6
 18 19  2  0
 18 17  1  0
 20 19  1  0
 21 20  2  0
 22 21  1  0
 22 23  2  0
 23 18  1  0
 24 26  2  0
 24 25  1  0
M  END
$$$$
