CLF.pdb
     RDKit          3D

 26 26  0  0  1  0  0  0  0  0999 V2000
   26.9303  -17.1576  -16.7089 N   0  0  0  0  0  0  0  0  0  0  0  0
   26.7767  -17.4862  -15.3139 C   0  0  1  0  0  0  0  0  0  0  0  0
   25.8934  -16.4704  -14.6228 C   0  0  0  0  0  0  0  0  0  0  0  0
   24.1685  -16.9372  -14.9329 S   0  0  0  0  0  0  0  0  0  0  0  0
   26.2797  -18.8555  -15.1867 C   0  0  0  0  0  0  0  0  0  0  0  0
   25.7795  -19.5166  -16.1374 O   0  0  0  0  0  0  0  0  0  0  0  0
   29.2336  -21.4078  -11.8395 C   0  0  0  0  0  0  0  0  0  0  0  0
   28.0539  -20.7063  -12.4242 C   0  0  2  0  0  0  0  0  0  0  0  0
   27.3666  -19.9420  -11.3070 C   0  0  0  0  0  0  0  0  0  0  0  0
   27.0374  -21.6143  -13.0314 C   0  0  0  0  0  0  0  0  0  0  0  0
   25.9229  -20.8826  -13.7426 C   0  0  2  0  0  0  0  0  0  0  0  0
   26.3445  -19.5155  -13.9422 N   0  0  0  0  0  0  0  0  0  0  0  0
   24.7505  -20.9066  -12.8340 C   0  0  0  0  0  0  0  0  0  0  0  0
   24.8692  -20.3880  -11.7011 O   0  0  0  0  0  0  0  0  0  0  0  0
   23.5265  -21.4950  -13.2218 N   0  0  0  0  0  0  0  0  0  0  0  0
   22.2155  -21.0497  -12.7300 C   0  0  1  0  0  0  0  0  0  0  0  0
   22.1240  -19.5816  -12.9259 C   0  0  0  0  0  0  0  0  0  0  0  0
   20.7997  -19.0781  -12.5367 C   0  0  0  0  0  0  0  0  0  0  0  0
   19.7916  -18.8737  -13.4472 C   0  0  0  0  0  0  0  0  0  0  0  0
   18.5480  -18.4016  -13.0506 C   0  0  0  0  0  0  0  0  0  0  0  0
   18.3272  -18.1347  -11.7157 C   0  0  0  0  0  0  0  0  0  0  0  0
   19.3288  -18.3341  -10.7868 C   0  0  0  0  0  0  0  0  0  0  0  0
   20.5683  -18.8058  -11.1896 C   0  0  0  0  0  0  0  0  0  0  0  0
   21.1263  -21.7908  -13.3929 C   0  0  0  0  0  0  0  0  0  0  0  0
   20.0077  -22.1631  -12.6208 O   0  0  0  0  0  0  0  0  0  0  0  0
   21.1205  -22.1138  -14.5940 O   0  0  0  0  0  0  0  0  0  0  0  0
  2  5  1  0
  2  1  1  6
  3  2  1  0
  4  3  1  0
  5  6  2  0
  8  7  1  1
  8  9  1  0
 10  8  1  0
 11 10  1  1
 12 11  1  0
 12  5  1  0
 13 11  1  0
 13 14  2  0
 15 13  1  0
 16 15  1  0
 16 24  1  0
 16 17  1  6
 18 19  2  0
 18 17  1  0
 20 19  1  0
 21 20  2  0
 22 21  1  0
 22 23  2  0
 23 18  1  0
 24 26  2  0
 24 25  1  0
M  END
$$$$
