CLF.pdb
     RDKit          3D

 26 26  0  0  1  0  0  0  0  0999 V2000
   18.3880  -12.5468  -17.7700 N   0  0  0  0  0  0  0  0  0  0  0  0
   18.8781  -11.2255  -18.0727 C   0  0  1  0  0  0  0  0  0  0  0  0
   17.7453  -10.3287  -18.5226 C   0  0  0  0  0  0  0  0  0  0  0  0
   18.4626   -8.7356  -19.0093 S   0  0  0  0  0  0  0  0  0  0  0  0
   19.6010  -10.6962  -16.9171 C   0  0  0  0  0  0  0  0  0  0  0  0
   19.1449  -10.6896  -15.7411 O   0  0  0  0  0  0  0  0  0  0  0  0
   25.4303   -9.7517  -15.2939 C   0  0  0  0  0  0  0  0  0  0  0  0
   23.9880   -9.4197  -15.1068 C   0  0  2  0  0  0  0  0  0  0  0  0
   23.5493   -9.9890  -13.7695 C   0  0  0  0  0  0  0  0  0  0  0  0
   23.0855   -9.9900  -16.1494 C   0  0  0  0  0  0  0  0  0  0  0  0
   21.6464   -9.5517  -16.0071 C   0  0  2  0  0  0  0  0  0  0  0  0
   20.8906  -10.1502  -17.0828 N   0  0  0  0  0  0  0  0  0  0  0  0
   21.6338   -8.0762  -16.1606 C   0  0  0  0  0  0  0  0  0  0  0  0
   22.0628   -7.5890  -17.2307 O   0  0  0  0  0  0  0  0  0  0  0  0
   21.1542   -7.2304  -15.1362 N   0  0  0  0  0  0  0  0  0  0  0  0
   21.1538   -5.7636  -15.2230 C   0  0  1  0  0  0  0  0  0  0  0  0
   20.0016   -5.2558  -14.4377 C   0  0  0  0  0  0  0  0  0  0  0  0
   19.9404   -3.7884  -14.4780 C   0  0  0  0  0  0  0  0  0  0  0  0
   20.7071   -2.9955  -13.6590 C   0  0  0  0  0  0  0  0  0  0  0  0
   20.6324   -1.6109  -13.7220 C   0  0  0  0  0  0  0  0  0  0  0  0
   19.7702   -1.0267  -14.6260 C   0  0  0  0  0  0  0  0  0  0  0  0
   18.9920   -1.8080  -15.4567 C   0  0  0  0  0  0  0  0  0  0  0  0
   19.0715   -3.1900  -15.3887 C   0  0  0  0  0  0  0  0  0  0  0  0
   22.4463   -5.2106  -14.7774 C   0  0  0  0  0  0  0  0  0  0  0  0
   23.0669   -4.2353  -15.5833 O   0  0  0  0  0  0  0  0  0  0  0  0
   23.0345   -5.5428  -13.7330 O   0  0  0  0  0  0  0  0  0  0  0  0
  2  5  1  0
  2  1  1  1
  3  2  1  0
  4  3  1  0
  5  6  2  0
  8  7  1  6
  8  9  1  0
 10  8  1  0
 11 10  1  6
 12 11  1  0
 12  5  1  0
 13 11  1  0
 13 14  2  0
 15 13  1  0
 16 15  1  0
 16 24  1  0
 16 17  1  1
 18 19  2  0
 18 17  1  0
 20 19  1  0
 21 20  2  0
 22 21  1  0
 22 23  2  0
 23 18  1  0
 24 26  2  0
 24 25  1  0
M  END
$$$$
