AWL.pdb
     RDKit          3D

 28 29  0  0  1  0  0  0  0  0999 V2000
   26.9932  -17.2501  -14.1921 C   0  0  0  0  0  0  0  0  0  0  0  0
   27.8218  -18.3544  -13.6050 C   0  0  2  0  0  0  0  0  0  0  0  0
   28.9351  -18.7012  -14.4554 N   0  0  0  0  0  0  0  0  0  0  0  0
   26.9384  -19.5262  -13.3493 C   0  0  0  0  0  0  0  0  0  0  0  0
   26.8328  -20.4506  -14.1946 O   0  0  0  0  0  0  0  0  0  0  0  0
   26.1783  -19.6618  -12.1551 N   0  0  0  0  0  0  0  0  0  0  0  0
   25.3309  -20.8071  -11.9107 C   0  0  1  0  0  0  0  0  0  0  0  0
   25.1541  -21.1123  -10.4467 C   0  0  0  0  0  0  0  0  0  0  0  0
   26.3300  -20.7405   -9.6384 C   0  0  0  0  0  0  0  0  0  0  0  0
   26.3646  -19.8846   -8.5634 C   0  0  0  0  0  0  0  0  0  0  0  0
   27.6346  -19.8254   -8.1173 N   0  0  0  0  0  0  0  0  0  0  0  0
   28.4416  -20.6013   -8.8458 C   0  0  0  0  0  0  0  0  0  0  0  0
   29.7903  -20.8708   -8.7851 C   0  0  0  0  0  0  0  0  0  0  0  0
   30.3462  -21.7388   -9.7014 C   0  0  0  0  0  0  0  0  0  0  0  0
   29.5317  -22.3274  -10.6726 C   0  0  0  0  0  0  0  0  0  0  0  0
   28.1814  -22.0538  -10.7287 C   0  0  0  0  0  0  0  0  0  0  0  0
   27.6224  -21.1856   -9.8129 C   0  0  0  0  0  0  0  0  0  0  0  0
   23.9998  -20.5348  -12.5071 C   0  0  0  0  0  0  0  0  0  0  0  0
   23.5462  -19.3488  -12.5029 O   0  0  0  0  0  0  0  0  0  0  0  0
   21.5250  -22.0483  -17.4854 C   0  0  0  0  0  0  0  0  0  0  0  0
   21.6476  -20.8306  -16.5028 C   0  0  1  0  0  0  0  0  0  0  0  0
   20.1876  -20.5768  -16.1238 C   0  0  0  0  0  0  0  0  0  0  0  0
   22.4936  -21.3136  -15.3850 C   0  0  0  0  0  0  0  0  0  0  0  0
   22.0369  -21.1766  -13.9868 C   0  0  2  0  0  0  0  0  0  0  0  0
   23.1909  -21.5198  -13.0881 N   0  0  0  0  0  0  0  0  0  0  0  0
   20.9099  -21.9581  -13.5104 C   0  0  0  0  0  0  0  0  0  0  0  0
   20.9534  -23.3243  -13.3595 O   0  0  0  0  0  0  0  0  0  0  0  0
   19.7838  -21.4264  -13.2010 O   0  0  0  0  0  0  0  0  0  0  0  0
  2  1  1  6
  2  3  1  0
  4  5  2  0
  4  2  1  0
  6  4  1  0
  7  6  1  0
  7  8  1  1
  9  8  1  0
  9 17  1  0
 10 11  1  0
 10  9  2  0
 11 12  1  0
 12 13  1  0
 12 17  2  0
 13 14  2  0
 14 15  1  0
 16 15  2  0
 17 16  1  0
 18 19  2  0
 18  7  1  0
 21 20  1  6
 21 23  1  0
 21 22  1  0
 24 23  1  6
 24 25  1  0
 25 18  1  0
 26 24  1  0
 27 26  1  0
 28 26  2  0
M  END
$$$$
