AWL.pdb
     RDKit          3D

 28 29  0  0  1  0  0  0  0  0999 V2000
   23.9910  -18.8800  -15.1369 C   0  0  0  0  0  0  0  0  0  0  0  0
   25.1472  -19.6908  -14.6305 C   0  0  2  0  0  0  0  0  0  0  0  0
   25.6770  -20.5657  -15.6488 N   0  0  0  0  0  0  0  0  0  0  0  0
   24.7039  -20.4504  -13.4282 C   0  0  0  0  0  0  0  0  0  0  0  0
   24.1921  -21.5930  -13.5401 O   0  0  0  0  0  0  0  0  0  0  0  0
   24.8328  -19.9336  -12.1096 N   0  0  0  0  0  0  0  0  0  0  0  0
   24.4458  -20.6974  -10.9450 C   0  0  1  0  0  0  0  0  0  0  0  0
   25.0464  -20.1747   -9.6668 C   0  0  0  0  0  0  0  0  0  0  0  0
   26.4381  -20.6182   -9.4650 C   0  0  0  0  0  0  0  0  0  0  0  0
   27.1674  -21.4630  -10.2675 C   0  0  0  0  0  0  0  0  0  0  0  0
   28.3910  -21.6051   -9.7214 N   0  0  0  0  0  0  0  0  0  0  0  0
   28.5057  -20.8947   -8.5962 C   0  0  0  0  0  0  0  0  0  0  0  0
   29.5346  -20.7185   -7.6986 C   0  0  0  0  0  0  0  0  0  0  0  0
   29.3423  -19.9009   -6.6047 C   0  0  0  0  0  0  0  0  0  0  0  0
   28.1090  -19.2677   -6.4282 C   0  0  0  0  0  0  0  0  0  0  0  0
   27.0819  -19.4478   -7.3304 C   0  0  0  0  0  0  0  0  0  0  0  0
   27.2716  -20.2655   -8.4260 C   0  0  0  0  0  0  0  0  0  0  0  0
   22.9670  -20.6536  -10.8320 C   0  0  0  0  0  0  0  0  0  0  0  0
   22.3506  -19.5850  -11.1329 O   0  0  0  0  0  0  0  0  0  0  0  0
   20.0817  -22.8977  -14.3711 C   0  0  0  0  0  0  0  0  0  0  0  0
   19.9665  -21.8731  -13.1879 C   0  0  1  0  0  0  0  0  0  0  0  0
   18.4523  -21.6932  -13.0665 C   0  0  0  0  0  0  0  0  0  0  0  0
   20.5967  -22.5449  -12.0259 C   0  0  0  0  0  0  0  0  0  0  0  0
   20.7237  -21.8420  -10.7329 C   0  0  2  0  0  0  0  0  0  0  0  0
   22.1864  -21.7360  -10.4063 N   0  0  0  0  0  0  0  0  0  0  0  0
   20.0849  -22.3822   -9.5461 C   0  0  0  0  0  0  0  0  0  0  0  0
   20.7742  -23.0449   -8.5578 O   0  0  0  0  0  0  0  0  0  0  0  0
   18.8225  -22.2847   -9.3378 O   0  0  0  0  0  0  0  0  0  0  0  0
  2  1  1  6
  2  3  1  0
  4  5  2  0
  4  2  1  0
  6  4  1  0
  7  6  1  0
  7  8  1  1
  9  8  1  0
  9 17  1  0
 10 11  1  0
 10  9  2  0
 11 12  1  0
 12 13  1  0
 12 17  2  0
 13 14  2  0
 14 15  1  0
 16 15  2  0
 17 16  1  0
 18 19  2  0
 18  7  1  0
 21 20  1  6
 21 23  1  0
 21 22  1  0
 24 23  1  6
 24 25  1  0
 25 18  1  0
 26 24  1  0
 27 26  1  0
 28 26  2  0
M  END
$$$$
