AWL.pdb
     RDKit          3D

 28 29  0  0  1  0  0  0  0  0999 V2000
   27.5702  -21.5882  -17.7419 C   0  0  0  0  0  0  0  0  0  0  0  0
   28.3419  -22.2794  -16.6569 C   0  0  2  0  0  0  0  0  0  0  0  0
   28.7009  -23.6272  -17.0277 N   0  0  0  0  0  0  0  0  0  0  0  0
   27.5333  -22.2493  -15.4062 C   0  0  0  0  0  0  0  0  0  0  0  0
   26.6371  -23.1056  -15.1972 O   0  0  0  0  0  0  0  0  0  0  0  0
   27.7269  -21.2667  -14.3965 N   0  0  0  0  0  0  0  0  0  0  0  0
   26.9711  -21.2732  -13.1645 C   0  0  1  0  0  0  0  0  0  0  0  0
   27.5394  -20.3546  -12.1153 C   0  0  0  0  0  0  0  0  0  0  0  0
   26.8046  -20.4199  -10.8386 C   0  0  0  0  0  0  0  0  0  0  0  0
   25.4492  -20.2894  -10.6504 C   0  0  0  0  0  0  0  0  0  0  0  0
   25.1966  -20.4130   -9.3327 N   0  0  0  0  0  0  0  0  0  0  0  0
   26.3202  -20.6191   -8.6404 C   0  0  0  0  0  0  0  0  0  0  0  0
   26.5762  -20.8027   -7.3003 C   0  0  0  0  0  0  0  0  0  0  0  0
   27.8762  -20.9971   -6.8828 C   0  0  0  0  0  0  0  0  0  0  0  0
   28.9073  -21.0041   -7.8260 C   0  0  0  0  0  0  0  0  0  0  0  0
   28.6451  -20.8197   -9.1672 C   0  0  0  0  0  0  0  0  0  0  0  0
   27.3450  -20.6249   -9.5878 C   0  0  0  0  0  0  0  0  0  0  0  0
   25.5822  -20.8497  -13.4702 C   0  0  0  0  0  0  0  0  0  0  0  0
   25.3885  -19.8072  -14.1688 O   0  0  0  0  0  0  0  0  0  0  0  0
   21.3309  -21.0220  -16.0714 C   0  0  0  0  0  0  0  0  0  0  0  0
   21.1666  -22.0692  -14.9140 C   0  0  1  0  0  0  0  0  0  0  0  0
   20.6892  -23.3101  -15.6704 C   0  0  0  0  0  0  0  0  0  0  0  0
   22.5153  -22.2021  -14.3124 C   0  0  0  0  0  0  0  0  0  0  0  0
   23.0578  -21.1347  -13.4473 C   0  0  2  0  0  0  0  0  0  0  0  0
   24.4440  -21.5375  -13.0306 N   0  0  0  0  0  0  0  0  0  0  0  0
   22.3630  -20.7642  -12.2274 C   0  0  0  0  0  0  0  0  0  0  0  0
   21.5072  -19.6908  -12.1468 O   0  0  0  0  0  0  0  0  0  0  0  0
   22.5048  -21.4126  -11.1292 O   0  0  0  0  0  0  0  0  0  0  0  0
  2  1  1  6
  2  3  1  0
  4  5  2  0
  4  2  1  0
  6  4  1  0
  7  6  1  0
  7  8  1  1
  9  8  1  0
  9 17  1  0
 10 11  1  0
 10  9  2  0
 11 12  1  0
 12 13  1  0
 12 17  2  0
 13 14  2  0
 14 15  1  0
 16 15  2  0
 17 16  1  0
 18 19  2  0
 18  7  1  0
 21 20  1  6
 21 23  1  0
 21 22  1  0
 24 23  1  1
 24 25  1  0
 25 18  1  0
 26 24  1  0
 27 26  1  0
 28 26  2  0
M  END
$$$$
