AWL.pdb
     RDKit          3D

 28 29  0  0  1  0  0  0  0  0999 V2000
-3803.7549-1714.6803 1305.4800 C   0  0  0  0  0  0  0  0  0  0  0  0
-3803.4900-1714.4769 1304.0176 C   0  0  2  0  0  0  0  0  0  0  0  0
-3803.8220-1713.1383 1303.5924 N   0  0  0  0  0  0  0  0  0  0  0  0
-3804.2495-1715.5027 1303.2500 C   0  0  0  0  0  0  0  0  0  0  0  0
-3803.8821-1715.8503 1302.0995 O   0  0  0  0  0  0  0  0  0  0  0  0
-3805.4143-1716.1348 1303.7675 N   0  0  0  0  0  0  0  0  0  0  0  0
-3805.9185-1717.3768 1303.2264 C   0  0  1  0  0  0  0  0  0  0  0  0
-3806.6682-1717.1993 1301.9326 C   0  0  0  0  0  0  0  0  0  0  0  0
-3807.2642-1718.4546 1301.4402 C   0  0  0  0  0  0  0  0  0  0  0  0
-3808.0720-1719.3231 1302.1353 C   0  0  0  0  0  0  0  0  0  0  0  0
-3808.3943-1720.3419 1301.3153 N   0  0  0  0  0  0  0  0  0  0  0  0
-3807.8376-1720.1892 1300.1099 C   0  0  0  0  0  0  0  0  0  0  0  0
-3807.8704-1720.9447 1298.9595 C   0  0  0  0  0  0  0  0  0  0  0  0
-3807.1765-1720.5120 1297.8497 C   0  0  0  0  0  0  0  0  0  0  0  0
-3806.4543-1719.3163 1297.9126 C   0  0  0  0  0  0  0  0  0  0  0  0
-3806.4265-1718.5641 1299.0680 C   0  0  0  0  0  0  0  0  0  0  0  0
-3807.1201-1718.9946 1300.1802 C   0  0  0  0  0  0  0  0  0  0  0  0
-3804.7651-1718.2812 1302.9908 C   0  0  0  0  0  0  0  0  0  0  0  0
-3803.8193-1718.3177 1303.8374 O   0  0  0  0  0  0  0  0  0  0  0  0
-3802.6399-1720.2549 1299.5952 C   0  0  0  0  0  0  0  0  0  0  0  0
-3803.9441-1720.3141 1298.7240 C   0  0  1  0  0  0  0  0  0  0  0  0
-3804.1064-1721.8173 1298.4929 C   0  0  0  0  0  0  0  0  0  0  0  0
-3805.0037-1719.7073 1299.5651 C   0  0  0  0  0  0  0  0  0  0  0  0
-3804.6909-1718.5819 1300.4692 C   0  0  2  0  0  0  0  0  0  0  0  0
-3804.6482-1719.1160 1301.8733 N   0  0  0  0  0  0  0  0  0  0  0  0
-3805.5569-1717.4178 1300.5090 C   0  0  0  0  0  0  0  0  0  0  0  0
-3805.9309-1716.7206 1299.3844 O   0  0  0  0  0  0  0  0  0  0  0  0
-3806.0330-1716.9502 1301.6047 O   0  0  0  0  0  0  0  0  0  0  0  0
  2  1  1  1
  2  3  1  0
  4  5  2  0
  4  2  1  0
  6  4  1  0
  7  6  1  0
  7  8  1  6
  9  8  1  0
  9 17  1  0
 10 11  1  0
 10  9  2  0
 11 12  1  0
 12 13  1  0
 12 17  2  0
 13 14  2  0
 14 15  1  0
 16 15  2  0
 17 16  1  0
 18 19  2  0
 18  7  1  0
 21 20  1  1
 21 23  1  0
 21 22  1  0
 24 23  1  6
 24 25  1  0
 25 18  1  0
 26 24  1  0
 27 26  1  0
 28 26  2  0
M  END
$$$$
