AWL.pdb
     RDKit          3D

 28 29  0  0  1  0  0  0  0  0999 V2000
   27.6294  -19.7367  -15.1463 C   0  0  0  0  0  0  0  0  0  0  0  0
   27.9256  -21.0836  -14.5560 C   0  0  2  0  0  0  0  0  0  0  0  0
   27.5829  -22.1542  -15.4612 N   0  0  0  0  0  0  0  0  0  0  0  0
   27.1998  -21.2044  -13.2607 C   0  0  0  0  0  0  0  0  0  0  0  0
   26.0725  -21.7574  -13.2025 O   0  0  0  0  0  0  0  0  0  0  0  0
   27.7329  -20.7088  -12.0390 N   0  0  0  0  0  0  0  0  0  0  0  0
   27.0686  -20.9157  -10.7720 C   0  0  1  0  0  0  0  0  0  0  0  0
   27.8836  -20.4543   -9.5928 C   0  0  0  0  0  0  0  0  0  0  0  0
   27.1724  -20.6080   -8.3103 C   0  0  0  0  0  0  0  0  0  0  0  0
   25.9462  -21.1935   -8.1032 C   0  0  0  0  0  0  0  0  0  0  0  0
   25.6668  -21.1233   -6.7869 N   0  0  0  0  0  0  0  0  0  0  0  0
   26.6497  -20.5194   -6.1136 C   0  0  0  0  0  0  0  0  0  0  0  0
   26.8269  -20.2167   -4.7824 C   0  0  0  0  0  0  0  0  0  0  0  0
   27.9795  -19.5717   -4.3854 C   0  0  0  0  0  0  0  0  0  0  0  0
   28.9441  -19.2382   -5.3399 C   0  0  0  0  0  0  0  0  0  0  0  0
   28.7614  -19.5438   -6.6721 C   0  0  0  0  0  0  0  0  0  0  0  0
   27.6088  -20.1892   -7.0722 C   0  0  0  0  0  0  0  0  0  0  0  0
   25.7882  -20.1660  -10.7918 C   0  0  0  0  0  0  0  0  0  0  0  0
   25.8094  -18.8992  -10.8755 O   0  0  0  0  0  0  0  0  0  0  0  0
   23.0811  -18.8859  -14.8819 C   0  0  0  0  0  0  0  0  0  0  0  0
   22.4554  -19.1050  -13.4593 C   0  0  1  0  0  0  0  0  0  0  0  0
   21.2373  -19.9744  -13.7757 C   0  0  0  0  0  0  0  0  0  0  0  0
   23.5072  -19.7912  -12.6709 C   0  0  0  0  0  0  0  0  0  0  0  0
   23.2889  -20.1043  -11.2438 C   0  0  2  0  0  0  0  0  0  0  0  0
   24.5286  -20.7747  -10.7230 N   0  0  0  0  0  0  0  0  0  0  0  0
   22.1775  -20.9499  -10.8469 C   0  0  0  0  0  0  0  0  0  0  0  0
   22.2595  -22.3215  -10.7919 O   0  0  0  0  0  0  0  0  0  0  0  0
   21.0303  -20.4742  -10.5240 O   0  0  0  0  0  0  0  0  0  0  0  0
  2  1  1  6
  2  3  1  0
  4  5  2  0
  4  2  1  0
  6  4  1  0
  7  6  1  0
  7  8  1  1
  9  8  1  0
  9 17  1  0
 10 11  1  0
 10  9  2  0
 11 12  1  0
 12 13  1  0
 12 17  2  0
 13 14  2  0
 14 15  1  0
 16 15  2  0
 17 16  1  0
 18 19  2  0
 18  7  1  0
 21 20  1  6
 21 23  1  0
 21 22  1  0
 24 23  1  6
 24 25  1  0
 25 18  1  0
 26 24  1  0
 27 26  1  0
 28 26  2  0
M  END
$$$$
