AWL.pdb
     RDKit          3D

 28 29  0  0  1  0  0  0  0  0999 V2000
   27.6348  -18.9788  -14.9107 C   0  0  0  0  0  0  0  0  0  0  0  0
   28.3729  -19.9561  -14.0444 C   0  0  2  0  0  0  0  0  0  0  0  0
   29.1315  -20.9021  -14.8271 N   0  0  0  0  0  0  0  0  0  0  0  0
   27.3911  -20.6387  -13.1559 C   0  0  0  0  0  0  0  0  0  0  0  0
   26.8625  -21.7274  -13.4955 O   0  0  0  0  0  0  0  0  0  0  0  0
   27.0039  -20.1054  -11.8958 N   0  0  0  0  0  0  0  0  0  0  0  0
   26.0724  -20.7887  -11.0269 C   0  0  1  0  0  0  0  0  0  0  0  0
   26.1260  -20.3044   -9.6020 C   0  0  0  0  0  0  0  0  0  0  0  0
   27.3927  -20.6458   -8.9288 C   0  0  0  0  0  0  0  0  0  0  0  0
   28.4090  -21.4323   -9.4164 C   0  0  0  0  0  0  0  0  0  0  0  0
   29.3796  -21.4866   -8.4832 N   0  0  0  0  0  0  0  0  0  0  0  0
   29.0536  -20.7735   -7.4019 C   0  0  0  0  0  0  0  0  0  0  0  0
   29.6995  -20.5257   -6.2117 C   0  0  0  0  0  0  0  0  0  0  0  0
   29.0889  -19.7279   -5.2668 C   0  0  0  0  0  0  0  0  0  0  0  0
   27.8284  -19.1871   -5.5346 C   0  0  0  0  0  0  0  0  0  0  0  0
   27.1861  -19.4387   -6.7285 C   0  0  0  0  0  0  0  0  0  0  0  0
   27.7948  -20.2367   -7.6760 C   0  0  0  0  0  0  0  0  0  0  0  0
   24.7024  -20.5730  -11.5546 C   0  0  0  0  0  0  0  0  0  0  0  0
   24.3201  -19.3944  -11.8318 O   0  0  0  0  0  0  0  0  0  0  0  0
   20.9855  -21.8161  -15.1309 C   0  0  0  0  0  0  0  0  0  0  0  0
   20.7423  -22.6586  -13.8293 C   0  0  1  0  0  0  0  0  0  0  0  0
   20.4045  -24.0375  -14.3987 C   0  0  0  0  0  0  0  0  0  0  0  0
   22.0220  -22.6030  -13.0825 C   0  0  0  0  0  0  0  0  0  0  0  0
   22.4416  -21.3580  -12.4073 C   0  0  2  0  0  0  0  0  0  0  0  0
   23.7810  -21.6051  -11.7730 N   0  0  0  0  0  0  0  0  0  0  0  0
   21.6072  -20.7762  -11.3713 C   0  0  0  0  0  0  0  0  0  0  0  0
   20.7278  -19.7453  -11.6057 O   0  0  0  0  0  0  0  0  0  0  0  0
   21.6368  -21.1811  -10.1540 O   0  0  0  0  0  0  0  0  0  0  0  0
  2  1  1  6
  2  3  1  0
  4  5  2  0
  4  2  1  0
  6  4  1  0
  7  6  1  0
  7  8  1  1
  9  8  1  0
  9 17  1  0
 10 11  1  0
 10  9  2  0
 11 12  1  0
 12 13  1  0
 12 17  2  0
 13 14  2  0
 14 15  1  0
 16 15  2  0
 17 16  1  0
 18 19  2  0
 18  7  1  0
 21 20  1  6
 21 23  1  0
 21 22  1  0
 24 23  1  1
 24 25  1  0
 25 18  1  0
 26 24  1  0
 27 26  1  0
 28 26  2  0
M  END
$$$$
