AWL.pdb
     RDKit          3D

 28 29  0  0  1  0  0  0  0  0999 V2000
   27.2418  -20.0087  -15.3543 C   0  0  0  0  0  0  0  0  0  0  0  0
   27.9688  -21.0297  -14.5299 C   0  0  2  0  0  0  0  0  0  0  0  0
   28.1343  -22.2751  -15.2402 N   0  0  0  0  0  0  0  0  0  0  0  0
   27.2304  -21.2198  -13.2502 C   0  0  0  0  0  0  0  0  0  0  0  0
   26.3134  -22.0744  -13.1558 O   0  0  0  0  0  0  0  0  0  0  0  0
   27.5169  -20.4577  -12.0842 N   0  0  0  0  0  0  0  0  0  0  0  0
   26.8638  -20.7139  -10.8204 C   0  0  1  0  0  0  0  0  0  0  0  0
   27.5502  -20.0542   -9.6537 C   0  0  0  0  0  0  0  0  0  0  0  0
   26.9546  -20.4229   -8.3562 C   0  0  0  0  0  0  0  0  0  0  0  0
   25.8278  -21.1805   -8.1425 C   0  0  0  0  0  0  0  0  0  0  0  0
   25.6341  -21.2752   -6.8124 N   0  0  0  0  0  0  0  0  0  0  0  0
   26.5792  -20.6165   -6.1363 C   0  0  0  0  0  0  0  0  0  0  0  0
   26.8098  -20.4238   -4.7928 C   0  0  0  0  0  0  0  0  0  0  0  0
   27.8985  -19.6758   -4.3962 C   0  0  0  0  0  0  0  0  0  0  0  0
   28.7456  -19.1284   -5.3636 C   0  0  0  0  0  0  0  0  0  0  0  0
   28.5098  -19.3246   -6.7080 C   0  0  0  0  0  0  0  0  0  0  0  0
   27.4209  -20.0729   -7.1077 C   0  0  0  0  0  0  0  0  0  0  0  0
   25.4720  -20.2065  -10.9064 C   0  0  0  0  0  0  0  0  0  0  0  0
   25.2686  -18.9551  -10.9776 O   0  0  0  0  0  0  0  0  0  0  0  0
   22.3725  -21.9922  -14.7505 C   0  0  0  0  0  0  0  0  0  0  0  0
   23.0557  -20.9600  -13.7856 C   0  0  1  0  0  0  0  0  0  0  0  0
   22.6140  -19.6228  -14.3825 C   0  0  0  0  0  0  0  0  0  0  0  0
   22.4919  -21.2461  -12.4443 C   0  0  0  0  0  0  0  0  0  0  0  0
   22.9743  -20.5114  -11.2570 C   0  0  2  0  0  0  0  0  0  0  0  0
   24.3412  -21.0329  -10.9149 N   0  0  0  0  0  0  0  0  0  0  0  0
   22.2110  -20.5439  -10.0224 C   0  0  0  0  0  0  0  0  0  0  0  0
   22.4582  -21.4408   -9.0098 O   0  0  0  0  0  0  0  0  0  0  0  0
   21.2407  -19.7369   -9.7904 O   0  0  0  0  0  0  0  0  0  0  0  0
  2  1  1  6
  2  3  1  0
  4  5  2  0
  4  2  1  0
  6  4  1  0
  7  6  1  0
  7  8  1  1
  9  8  1  0
  9 17  1  0
 10 11  1  0
 10  9  2  0
 11 12  1  0
 12 13  1  0
 12 17  2  0
 13 14  2  0
 14 15  1  0
 16 15  2  0
 17 16  1  0
 18 19  2  0
 18  7  1  0
 21 20  1  6
 21 23  1  0
 21 22  1  0
 24 23  1  6
 24 25  1  0
 25 18  1  0
 26 24  1  0
 27 26  1  0
 28 26  2  0
M  END
$$$$
