AWL.pdb
     RDKit          3D

 28 29  0  0  1  0  0  0  0  0999 V2000
   17.3424  -31.0245   -6.7422 C   0  0  0  0  0  0  0  0  0  0  0  0
   17.2458  -29.7206   -7.4777 C   0  0  2  0  0  0  0  0  0  0  0  0
   17.8409  -29.7985   -8.7902 N   0  0  0  0  0  0  0  0  0  0  0  0
   17.8806  -28.6590   -6.6476 C   0  0  0  0  0  0  0  0  0  0  0  0
   19.1192  -28.6624   -6.4336 O   0  0  0  0  0  0  0  0  0  0  0  0
   17.1331  -27.6010   -6.0608 N   0  0  0  0  0  0  0  0  0  0  0  0
   17.7698  -26.5057   -5.3649 C   0  0  1  0  0  0  0  0  0  0  0  0
   17.2343  -25.1568   -5.7664 C   0  0  0  0  0  0  0  0  0  0  0  0
   17.6359  -24.7641   -7.1297 C   0  0  0  0  0  0  0  0  0  0  0  0
   18.8812  -24.8869   -7.6987 C   0  0  0  0  0  0  0  0  0  0  0  0
   18.8149  -24.4078   -8.9563 N   0  0  0  0  0  0  0  0  0  0  0  0
   17.5853  -23.9742   -9.2463 C   0  0  0  0  0  0  0  0  0  0  0  0
   17.0300  -23.4129  -10.3741 C   0  0  0  0  0  0  0  0  0  0  0  0
   15.6964  -23.0615  -10.3653 C   0  0  0  0  0  0  0  0  0  0  0  0
   14.9351  -23.2812   -9.2142 C   0  0  0  0  0  0  0  0  0  0  0  0
   15.4966  -23.8438   -8.0873 C   0  0  0  0  0  0  0  0  0  0  0  0
   16.8310  -24.1965   -8.0933 C   0  0  0  0  0  0  0  0  0  0  0  0
   17.5532  -26.6928   -3.9090 C   0  0  0  0  0  0  0  0  0  0  0  0
   16.4843  -27.2462   -3.5043 O   0  0  0  0  0  0  0  0  0  0  0  0
   20.3363  -27.9889    0.9274 C   0  0  0  0  0  0  0  0  0  0  0  0
   19.6408  -26.6019    0.6910 C   0  0  1  0  0  0  0  0  0  0  0  0
   20.6178  -25.6352    1.3623 C   0  0  0  0  0  0  0  0  0  0  0  0
   19.5514  -26.4551   -0.7818 C   0  0  0  0  0  0  0  0  0  0  0  0
   18.2488  -26.5729   -1.4684 C   0  0  2  0  0  0  0  0  0  0  0  0
   18.4687  -26.2915   -2.9278 N   0  0  0  0  0  0  0  0  0  0  0  0
   17.1342  -25.7365   -1.0611 C   0  0  0  0  0  0  0  0  0  0  0  0
   16.3057  -26.0491   -0.0089 O   0  0  0  0  0  0  0  0  0  0  0  0
   16.8371  -24.6427   -1.6627 O   0  0  0  0  0  0  0  0  0  0  0  0
  2  1  1  1
  2  3  1  0
  4  5  2  0
  4  2  1  0
  6  4  1  0
  7  6  1  0
  7  8  1  6
  9  8  1  0
  9 17  1  0
 10 11  1  0
 10  9  2  0
 11 12  1  0
 12 13  1  0
 12 17  2  0
 13 14  2  0
 14 15  1  0
 16 15  2  0
 17 16  1  0
 18 19  2  0
 18  7  1  0
 21 20  1  6
 21 23  1  0
 21 22  1  0
 24 23  1  1
 24 25  1  0
 25 18  1  0
 26 24  1  0
 27 26  1  0
 28 26  2  0
M  END
$$$$
