AWL.pdb
     RDKit          3D

 28 29  0  0  1  0  0  0  0  0999 V2000
   27.1259  -19.8278  -15.2835 C   0  0  0  0  0  0  0  0  0  0  0  0
   27.7887  -21.0071  -14.6351 C   0  0  2  0  0  0  0  0  0  0  0  0
   27.7344  -22.1816  -15.4722 N   0  0  0  0  0  0  0  0  0  0  0  0
   27.1470  -21.2441  -13.3118 C   0  0  0  0  0  0  0  0  0  0  0  0
   26.1692  -22.0262  -13.2004 O   0  0  0  0  0  0  0  0  0  0  0  0
   27.5970  -20.6093  -12.1215 N   0  0  0  0  0  0  0  0  0  0  0  0
   26.9153  -20.7764  -10.8579 C   0  0  1  0  0  0  0  0  0  0  0  0
   27.7019  -20.2517   -9.6859 C   0  0  0  0  0  0  0  0  0  0  0  0
   27.0193  -20.4658   -8.3966 C   0  0  0  0  0  0  0  0  0  0  0  0
   25.8114  -21.0876   -8.1872 C   0  0  0  0  0  0  0  0  0  0  0  0
   25.5557  -21.0687   -6.8643 N   0  0  0  0  0  0  0  0  0  0  0  0
   26.5368  -20.4642   -6.1890 C   0  0  0  0  0  0  0  0  0  0  0  0
   26.7323  -20.2025   -4.8516 C   0  0  0  0  0  0  0  0  0  0  0  0
   27.8767  -19.5435   -4.4539 C   0  0  0  0  0  0  0  0  0  0  0  0
   28.8148  -19.1546   -5.4140 C   0  0  0  0  0  0  0  0  0  0  0  0
   28.6138  -19.4194   -6.7523 C   0  0  0  0  0  0  0  0  0  0  0  0
   27.4693  -20.0787   -7.1531 C   0  0  0  0  0  0  0  0  0  0  0  0
   25.6222  -20.0522  -10.9293 C   0  0  0  0  0  0  0  0  0  0  0  0
   25.6116  -18.8280  -11.2665 O   0  0  0  0  0  0  0  0  0  0  0  0
   22.7995  -19.4754  -15.0008 C   0  0  0  0  0  0  0  0  0  0  0  0
   22.2180  -19.4436  -13.5433 C   0  0  1  0  0  0  0  0  0  0  0  0
   20.9283  -20.2519  -13.6955 C   0  0  0  0  0  0  0  0  0  0  0  0
   23.2485  -20.0916  -12.6968 C   0  0  0  0  0  0  0  0  0  0  0  0
   23.1001  -20.1216  -11.2274 C   0  0  2  0  0  0  0  0  0  0  0  0
   24.3836  -20.6407  -10.6438 N   0  0  0  0  0  0  0  0  0  0  0  0
   22.0374  -20.9024  -10.6199 C   0  0  0  0  0  0  0  0  0  0  0  0
   20.8314  -20.3620  -10.2397 O   0  0  0  0  0  0  0  0  0  0  0  0
   22.1520  -22.1590  -10.3869 O   0  0  0  0  0  0  0  0  0  0  0  0
  2  1  1  6
  2  3  1  0
  4  5  2  0
  4  2  1  0
  6  4  1  0
  7  6  1  0
  7  8  1  1
  9  8  1  0
  9 17  1  0
 10 11  1  0
 10  9  2  0
 11 12  1  0
 12 13  1  0
 12 17  2  0
 13 14  2  0
 14 15  1  0
 16 15  2  0
 17 16  1  0
 18 19  2  0
 18  7  1  0
 21 20  1  6
 21 23  1  0
 21 22  1  0
 24 23  1  6
 24 25  1  0
 25 18  1  0
 26 24  1  0
 27 26  1  0
 28 26  2  0
M  END
$$$$
