AWL.pdb
     RDKit          3D

 28 29  0  0  1  0  0  0  0  0999 V2000
   29.6446  -21.4177  -15.7561 C   0  0  0  0  0  0  0  0  0  0  0  0
   28.2144  -21.3635  -16.2056 C   0  0  2  0  0  0  0  0  0  0  0  0
   28.0842  -20.7660  -17.5130 N   0  0  0  0  0  0  0  0  0  0  0  0
   27.4226  -20.6258  -15.1819 C   0  0  0  0  0  0  0  0  0  0  0  0
   27.5446  -19.3822  -15.0456 O   0  0  0  0  0  0  0  0  0  0  0  0
   26.5006  -21.2766  -14.3167 N   0  0  0  0  0  0  0  0  0  0  0  0
   25.6411  -20.5402  -13.4176 C   0  0  1  0  0  0  0  0  0  0  0  0
   24.1910  -20.5743  -13.8225 C   0  0  0  0  0  0  0  0  0  0  0  0
   23.9400  -19.8991  -15.1091 C   0  0  0  0  0  0  0  0  0  0  0  0
   23.6417  -20.4886  -16.3145 C   0  0  0  0  0  0  0  0  0  0  0  0
   23.4892  -19.5123  -17.2305 N   0  0  0  0  0  0  0  0  0  0  0  0
   23.6722  -18.3053  -16.6884 C   0  0  0  0  0  0  0  0  0  0  0  0
   23.6242  -17.0290  -17.2022 C   0  0  0  0  0  0  0  0  0  0  0  0
   23.8648  -15.9572  -16.3683 C   0  0  0  0  0  0  0  0  0  0  0  0
   24.1521  -16.1862  -15.0200 C   0  0  0  0  0  0  0  0  0  0  0  0
   24.1989  -17.4668  -14.5107 C   0  0  0  0  0  0  0  0  0  0  0  0
   23.9585  -18.5413  -15.3431 C   0  0  0  0  0  0  0  0  0  0  0  0
   25.7736  -21.1297  -12.0624 C   0  0  0  0  0  0  0  0  0  0  0  0
   25.8283  -22.3918  -11.9348 O   0  0  0  0  0  0  0  0  0  0  0  0
   28.5692  -19.0140   -7.7410 C   0  0  0  0  0  0  0  0  0  0  0  0
   28.0713  -19.9728   -8.8796 C   0  0  1  0  0  0  0  0  0  0  0  0
   28.9332  -21.2156   -8.6512 C   0  0  0  0  0  0  0  0  0  0  0  0
   26.6262  -20.1750   -8.6165 C   0  0  0  0  0  0  0  0  0  0  0  0
   25.8086  -21.0046   -9.5251 C   0  0  2  0  0  0  0  0  0  0  0  0
   25.8445  -20.3711  -10.8870 N   0  0  0  0  0  0  0  0  0  0  0  0
   24.4072  -21.2421   -9.2290 C   0  0  0  0  0  0  0  0  0  0  0  0
   23.9833  -22.0389   -8.1914 O   0  0  0  0  0  0  0  0  0  0  0  0
   23.4590  -20.7274   -9.9235 O   0  0  0  0  0  0  0  0  0  0  0  0
  2  1  1  1
  2  3  1  0
  4  5  2  0
  4  2  1  0
  6  4  1  0
  7  6  1  0
  7  8  1  6
  9  8  1  0
  9 17  1  0
 10 11  1  0
 10  9  2  0
 11 12  1  0
 12 13  1  0
 12 17  2  0
 13 14  2  0
 14 15  1  0
 16 15  2  0
 17 16  1  0
 18 19  2  0
 18  7  1  0
 21 20  1  1
 21 23  1  0
 21 22  1  0
 24 23  1  1
 24 25  1  0
 25 18  1  0
 26 24  1  0
 27 26  1  0
 28 26  2  0
M  END
$$$$
