AWL.pdb
     RDKit          3D

 28 29  0  0  1  0  0  0  0  0999 V2000
   27.7373  -20.5917  -16.5415 C   0  0  0  0  0  0  0  0  0  0  0  0
   28.4598  -21.5084  -15.5990 C   0  0  2  0  0  0  0  0  0  0  0  0
   28.7527  -22.7835  -16.2083 N   0  0  0  0  0  0  0  0  0  0  0  0
   27.6397  -21.6632  -14.3651 C   0  0  0  0  0  0  0  0  0  0  0  0
   26.6302  -22.4120  -14.3518 O   0  0  0  0  0  0  0  0  0  0  0  0
   27.9480  -20.9838  -13.1545 N   0  0  0  0  0  0  0  0  0  0  0  0
   27.1355  -21.1243  -11.9674 C   0  0  1  0  0  0  0  0  0  0  0  0
   27.7910  -20.5684  -10.7308 C   0  0  0  0  0  0  0  0  0  0  0  0
   26.8992  -20.5782   -9.5566 C   0  0  0  0  0  0  0  0  0  0  0  0
   25.5560  -20.8690   -9.5337 C   0  0  0  0  0  0  0  0  0  0  0  0
   25.1269  -20.7611   -8.2610 N   0  0  0  0  0  0  0  0  0  0  0  0
   26.1222  -20.4129   -7.4411 C   0  0  0  0  0  0  0  0  0  0  0  0
   26.1843  -20.1844   -6.0850 C   0  0  0  0  0  0  0  0  0  0  0  0
   27.3894  -19.8301   -5.5156 C   0  0  0  0  0  0  0  0  0  0  0  0
   28.5228  -19.7100   -6.3242 C   0  0  0  0  0  0  0  0  0  0  0  0
   28.4548  -19.9401   -7.6821 C   0  0  0  0  0  0  0  0  0  0  0  0
   27.2500  -20.2948   -8.2546 C   0  0  0  0  0  0  0  0  0  0  0  0
   25.8557  -20.4082  -12.1938 C   0  0  0  0  0  0  0  0  0  0  0  0
   25.8738  -19.1619  -12.4360 O   0  0  0  0  0  0  0  0  0  0  0  0
   23.2034  -20.7885  -16.3509 C   0  0  0  0  0  0  0  0  0  0  0  0
   23.7425  -20.0606  -15.0693 C   0  0  1  0  0  0  0  0  0  0  0  0
   23.3673  -18.6039  -15.3467 C   0  0  0  0  0  0  0  0  0  0  0  0
   23.0114  -20.6739  -13.9344 C   0  0  0  0  0  0  0  0  0  0  0  0
   23.3415  -20.3033  -12.5431 C   0  0  2  0  0  0  0  0  0  0  0  0
   24.6001  -21.0279  -12.1580 N   0  0  0  0  0  0  0  0  0  0  0  0
   22.3888  -20.5580  -11.4775 C   0  0  0  0  0  0  0  0  0  0  0  0
   21.4470  -19.6397  -11.0764 O   0  0  0  0  0  0  0  0  0  0  0  0
   22.3627  -21.6630  -10.8256 O   0  0  0  0  0  0  0  0  0  0  0  0
  2  1  1  6
  2  3  1  0
  4  5  2  0
  4  2  1  0
  6  4  1  0
  7  6  1  0
  7  8  1  1
  9  8  1  0
  9 17  1  0
 10 11  1  0
 10  9  2  0
 11 12  1  0
 12 13  1  0
 12 17  2  0
 13 14  2  0
 14 15  1  0
 16 15  2  0
 17 16  1  0
 18 19  2  0
 18  7  1  0
 21 20  1  6
 21 23  1  0
 21 22  1  0
 24 23  1  6
 24 25  1  0
 25 18  1  0
 26 24  1  0
 27 26  1  0
 28 26  2  0
M  END
$$$$
