AWL.pdb
     RDKit          3D

 28 29  0  0  1  0  0  0  0  0999 V2000
   29.4308  -26.1461  -18.4930 C   0  0  0  0  0  0  0  0  0  0  0  0
   28.7114  -25.3245  -17.4645 C   0  0  2  0  0  0  0  0  0  0  0  0
   29.6274  -24.5734  -16.6399 N   0  0  0  0  0  0  0  0  0  0  0  0
   27.8526  -26.2291  -16.6501 C   0  0  0  0  0  0  0  0  0  0  0  0
   28.2850  -26.7457  -15.5888 O   0  0  0  0  0  0  0  0  0  0  0  0
   26.5188  -26.5532  -17.0219 N   0  0  0  0  0  0  0  0  0  0  0  0
   25.6760  -27.3930  -16.2012 C   0  0  1  0  0  0  0  0  0  0  0  0
   24.2156  -27.0375  -16.2927 C   0  0  0  0  0  0  0  0  0  0  0  0
   23.8935  -25.7638  -15.6232 C   0  0  0  0  0  0  0  0  0  0  0  0
   24.6410  -24.6103  -15.6245 C   0  0  0  0  0  0  0  0  0  0  0  0
   23.9865  -23.6876  -14.8924 N   0  0  0  0  0  0  0  0  0  0  0  0
   22.8419  -24.1759  -14.4071 C   0  0  0  0  0  0  0  0  0  0  0  0
   21.8492  -23.6348  -13.6216 C   0  0  0  0  0  0  0  0  0  0  0  0
   20.7620  -24.4112  -13.2792 C   0  0  0  0  0  0  0  0  0  0  0  0
   20.6885  -25.7302  -13.7351 C   0  0  0  0  0  0  0  0  0  0  0  0
   21.6858  -26.2671  -14.5216 C   0  0  0  0  0  0  0  0  0  0  0  0
   22.7749  -25.4923  -14.8658 C   0  0  0  0  0  0  0  0  0  0  0  0
   25.8547  -28.7993  -16.6398 C   0  0  0  0  0  0  0  0  0  0  0  0
   26.0837  -29.0455  -17.8642 O   0  0  0  0  0  0  0  0  0  0  0  0
   28.6762  -32.8587  -17.2025 C   0  0  0  0  0  0  0  0  0  0  0  0
   27.7921  -33.1393  -15.9364 C   0  0  1  0  0  0  0  0  0  0  0  0
   28.8193  -33.6859  -14.9435 C   0  0  0  0  0  0  0  0  0  0  0  0
   27.2189  -31.8246  -15.5604 C   0  0  0  0  0  0  0  0  0  0  0  0
   26.0214  -31.3045  -16.2516 C   0  0  2  0  0  0  0  0  0  0  0  0
   25.7868  -29.8990  -15.7750 N   0  0  0  0  0  0  0  0  0  0  0  0
   24.7494  -31.9918  -16.1186 C   0  0  0  0  0  0  0  0  0  0  0  0
   23.9342  -31.8570  -15.0194 O   0  0  0  0  0  0  0  0  0  0  0  0
   24.2965  -32.7843  -17.0204 O   0  0  0  0  0  0  0  0  0  0  0  0
  2  1  1  6
  2  3  1  0
  4  5  2  0
  4  2  1  0
  6  4  1  0
  7  6  1  0
  7  8  1  6
  9  8  1  0
  9 17  1  0
 10 11  1  0
 10  9  2  0
 11 12  1  0
 12 13  1  0
 12 17  2  0
 13 14  2  0
 14 15  1  0
 16 15  2  0
 17 16  1  0
 18 19  2  0
 18  7  1  0
 21 20  1  6
 21 23  1  0
 21 22  1  0
 24 23  1  1
 24 25  1  0
 25 18  1  0
 26 24  1  0
 27 26  1  0
 28 26  2  0
M  END
$$$$
