GPM.pdb
     RDKit          3D

 20 20  0  0  1  0  0  0  0  0999 V2000
   26.7279  -16.5219  -14.7962 N   0  0  0  0  0  0  0  0  0  0  0  0
   27.3584  -17.6766  -14.2890 C   0  0  0  0  0  0  0  0  0  0  0  0
   26.6340  -18.5493  -13.3900 C   0  0  0  0  0  0  0  0  0  0  0  0
   26.2460  -17.9941  -12.2883 O   0  0  0  0  0  0  0  0  0  0  0  0
   26.3022  -19.8870  -13.5491 N   0  0  0  0  0  0  0  0  0  0  0  0
   26.0952  -20.5833  -14.8002 C   0  0  0  0  0  0  0  0  0  0  0  0
   27.0453  -21.7829  -14.6146 C   0  0  0  0  0  0  0  0  0  0  0  0
   26.8017  -22.1139  -13.1617 C   0  0  0  0  0  0  0  0  0  0  0  0
   26.1041  -20.9298  -12.5492 C   0  0  1  0  0  0  0  0  0  0  0  0
   26.5807  -20.6444  -11.2141 C   0  0  0  0  0  0  0  0  0  0  0  0
   27.8320  -20.6919  -10.9402 O   0  0  0  0  0  0  0  0  0  0  0  0
   28.5643  -19.1652   -4.1440 C   0  0  0  0  0  0  0  0  0  0  0  0
   28.1171  -18.5819   -5.8007 S   0  0  0  0  0  0  0  0  0  0  0  0
   27.1164  -19.8702   -6.5982 C   0  0  0  0  0  0  0  0  0  0  0  0
   26.8281  -19.4904   -8.0443 C   0  0  0  0  0  0  0  0  0  0  0  0
   26.1198  -20.6350   -8.7355 C   0  0  2  0  0  0  0  0  0  0  0  0
   25.7623  -20.2971  -10.0975 N   0  0  0  0  0  0  0  0  0  0  0  0
   24.8863  -21.0011   -8.0143 C   0  0  0  0  0  0  0  0  0  0  0  0
   24.9583  -21.5437   -6.7509 O   0  0  0  0  0  0  0  0  0  0  0  0
   23.7603  -20.8246   -8.5378 O   0  0  0  0  0  0  0  0  0  0  0  0
  2  1  1  0
  3  2  1  0
  4  3  2  0
  5  9  1  0
  5  3  1  0
  6  5  1  0
  7  6  1  0
  7  8  1  0
  8  9  1  0
  9 10  1  1
 10 17  1  0
 10 11  2  0
 13 12  1  0
 14 15  1  0
 14 13  1  0
 16 15  1  1
 16 18  1  0
 17 16  1  0
 18 20  2  0
 18 19  1  0
M  END
$$$$
