GPM.pdb
     RDKit          3D

 20 20  0  0  1  0  0  0  0  0999 V2000
   22.0817  -13.7155  -18.7662 N   0  0  0  0  0  0  0  0  0  0  0  0
   22.8354  -12.6032  -18.3386 C   0  0  0  0  0  0  0  0  0  0  0  0
   22.2542  -11.6635  -17.4039 C   0  0  0  0  0  0  0  0  0  0  0  0
   21.2266  -11.0177  -17.8501 O   0  0  0  0  0  0  0  0  0  0  0  0
   22.6460  -11.3657  -16.1067 N   0  0  0  0  0  0  0  0  0  0  0  0
   23.4463  -12.1962  -15.2333 C   0  0  0  0  0  0  0  0  0  0  0  0
   24.5452  -11.1957  -14.8235 C   0  0  0  0  0  0  0  0  0  0  0  0
   23.7286   -9.9390  -14.6399 C   0  0  0  0  0  0  0  0  0  0  0  0
   22.3981  -10.1754  -15.3016 C   0  0  1  0  0  0  0  0  0  0  0  0
   21.9221   -9.0058  -16.0063 C   0  0  0  0  0  0  0  0  0  0  0  0
   22.6012   -8.4974  -16.9672 O   0  0  0  0  0  0  0  0  0  0  0  0
   16.6068   -4.8398  -19.7042 C   0  0  0  0  0  0  0  0  0  0  0  0
   16.9439   -6.3026  -18.6886 S   0  0  0  0  0  0  0  0  0  0  0  0
   18.5752   -6.0886  -17.9204 C   0  0  0  0  0  0  0  0  0  0  0  0
   18.9882   -7.3659  -17.2016 C   0  0  0  0  0  0  0  0  0  0  0  0
   20.2965   -7.1371  -16.4767 C   0  0  2  0  0  0  0  0  0  0  0  0
   20.7066   -8.3096  -15.7323 N   0  0  0  0  0  0  0  0  0  0  0  0
   20.1831   -6.0099  -15.5321 C   0  0  0  0  0  0  0  0  0  0  0  0
   20.4190   -4.7224  -15.9593 O   0  0  0  0  0  0  0  0  0  0  0  0
   19.8719   -6.2060  -14.3331 O   0  0  0  0  0  0  0  0  0  0  0  0
  2  1  1  0
  3  2  1  0
  4  3  2  0
  5  9  1  0
  5  3  1  0
  6  5  1  0
  7  6  1  0
  7  8  1  0
  8  9  1  0
  9 10  1  6
 10 17  1  0
 10 11  2  0
 13 12  1  0
 14 15  1  0
 14 13  1  0
 16 15  1  1
 16 18  1  0
 17 16  1  0
 18 20  2  0
 18 19  1  0
M  END
$$$$
