GPM.pdb
     RDKit          3D

 20 20  0  0  1  0  0  0  0  0999 V2000
   12.5702  -20.4718    0.9021 N   0  0  0  0  0  0  0  0  0  0  0  0
   13.1657  -19.8304    2.0077 C   0  0  0  0  0  0  0  0  0  0  0  0
   14.5804  -20.0052    2.2577 C   0  0  0  0  0  0  0  0  0  0  0  0
   15.0222  -21.2056    2.0670 O   0  0  0  0  0  0  0  0  0  0  0  0
   15.5174  -19.0683    2.6692 N   0  0  0  0  0  0  0  0  0  0  0  0
   15.3959  -17.6293    2.5838 C   0  0  0  0  0  0  0  0  0  0  0  0
   15.7056  -17.2342    4.0413 C   0  0  0  0  0  0  0  0  0  0  0  0
   16.8319  -18.1882    4.3592 C   0  0  0  0  0  0  0  0  0  0  0  0
   16.8183  -19.2572    3.3005 C   0  0  1  0  0  0  0  0  0  0  0  0
   17.0885  -20.5695    3.8446 C   0  0  0  0  0  0  0  0  0  0  0  0
   16.2308  -21.1585    4.5933 O   0  0  0  0  0  0  0  0  0  0  0  0
   20.9786  -27.4323    3.9337 C   0  0  0  0  0  0  0  0  0  0  0  0
   20.8845  -25.7941    3.1640 S   0  0  0  0  0  0  0  0  0  0  0  0
   19.6678  -24.8102    4.0854 C   0  0  0  0  0  0  0  0  0  0  0  0
   19.5038  -23.4407    3.4404 C   0  0  0  0  0  0  0  0  0  0  0  0
   18.4843  -22.6358    4.2163 C   0  0  2  0  0  0  0  0  0  0  0  0
   18.2785  -21.3277    3.6300 N   0  0  0  0  0  0  0  0  0  0  0  0
   18.9162  -22.4496    5.6143 C   0  0  0  0  0  0  0  0  0  0  0  0
   18.5915  -23.3865    6.5696 O   0  0  0  0  0  0  0  0  0  0  0  0
   19.5817  -21.4415    5.9518 O   0  0  0  0  0  0  0  0  0  0  0  0
  2  1  1  0
  3  2  1  0
  4  3  2  0
  5  9  1  0
  5  3  1  0
  6  5  1  0
  7  6  1  0
  7  8  1  0
  8  9  1  0
  9 10  1  1
 10 17  1  0
 10 11  2  0
 13 12  1  0
 14 15  1  0
 14 13  1  0
 16 15  1  6
 16 18  1  0
 17 16  1  0
 18 20  2  0
 18 19  1  0
M  END
$$$$
