GPM.pdb
     RDKit          3D

 20 20  0  0  1  0  0  0  0  0999 V2000
   25.0608  -12.3357  -15.8916 N   0  0  0  0  0  0  0  0  0  0  0  0
   23.7134  -12.3918  -16.3034 C   0  0  0  0  0  0  0  0  0  0  0  0
   23.0718  -11.1982  -16.8116 C   0  0  0  0  0  0  0  0  0  0  0  0
   23.4154  -10.1017  -16.2185 O   0  0  0  0  0  0  0  0  0  0  0  0
   22.1480  -11.0727  -17.8391 N   0  0  0  0  0  0  0  0  0  0  0  0
   21.8762  -12.0400  -18.8800 C   0  0  0  0  0  0  0  0  0  0  0  0
   20.3463  -12.1734  -18.7471 C   0  0  0  0  0  0  0  0  0  0  0  0
   19.9573  -10.7345  -18.5062 C   0  0  0  0  0  0  0  0  0  0  0  0
   21.2125   -9.9935  -18.1330 C   0  0  1  0  0  0  0  0  0  0  0  0
   20.9858   -9.0294  -17.0793 C   0  0  0  0  0  0  0  0  0  0  0  0
   20.4301   -9.3793  -15.9785 O   0  0  0  0  0  0  0  0  0  0  0  0
   21.9764   -1.9003  -13.7866 C   0  0  0  0  0  0  0  0  0  0  0  0
   22.5730   -3.0551  -15.0497 S   0  0  0  0  0  0  0  0  0  0  0  0
   21.5111   -4.5275  -15.0105 C   0  0  0  0  0  0  0  0  0  0  0  0
   21.9190   -5.4980  -16.1107 C   0  0  0  0  0  0  0  0  0  0  0  0
   21.0411   -6.7288  -16.0496 C   0  0  2  0  0  0  0  0  0  0  0  0
   21.3306   -7.6454  -17.1327 N   0  0  0  0  0  0  0  0  0  0  0  0
   19.6149   -6.3608  -16.1281 C   0  0  0  0  0  0  0  0  0  0  0  0
   18.8966   -6.1247  -14.9774 O   0  0  0  0  0  0  0  0  0  0  0  0
   19.0387   -6.2579  -17.2374 O   0  0  0  0  0  0  0  0  0  0  0  0
  2  1  1  0
  3  2  1  0
  4  3  2  0
  5  9  1  0
  5  3  1  0
  6  5  1  0
  7  6  1  0
  7  8  1  0
  8  9  1  0
  9 10  1  1
 10 17  1  0
 10 11  2  0
 13 12  1  0
 14 15  1  0
 14 13  1  0
 16 15  1  6
 16 18  1  0
 17 16  1  0
 18 20  2  0
 18 19  1  0
M  END
$$$$
