GPM.pdb
     RDKit          3D

 20 20  0  0  1  0  0  0  0  0999 V2000
   19.5748  -10.3314  -15.2618 N   0  0  0  0  0  0  0  0  0  0  0  0
   19.7395   -8.9465  -15.0539 C   0  0  0  0  0  0  0  0  0  0  0  0
   19.6368   -8.4083  -13.7143 C   0  0  0  0  0  0  0  0  0  0  0  0
   18.6777   -8.9029  -13.0016 O   0  0  0  0  0  0  0  0  0  0  0  0
   20.4209   -7.4442  -13.0975 N   0  0  0  0  0  0  0  0  0  0  0  0
   21.7983   -7.1248  -13.4033 C   0  0  0  0  0  0  0  0  0  0  0  0
   21.6941   -5.6008  -13.6103 C   0  0  0  0  0  0  0  0  0  0  0  0
   20.7386   -5.2300  -12.5016 C   0  0  0  0  0  0  0  0  0  0  0  0
   20.0877   -6.5034  -12.0342 C   0  0  1  0  0  0  0  0  0  0  0  0
   18.6819   -6.3253  -11.7456 C   0  0  0  0  0  0  0  0  0  0  0  0
   17.8463   -6.0731  -12.6843 O   0  0  0  0  0  0  0  0  0  0  0  0
   12.2519   -7.7486   -7.4948 C   0  0  0  0  0  0  0  0  0  0  0  0
   14.0522   -7.9448   -7.5684 S   0  0  0  0  0  0  0  0  0  0  0  0
   14.6822   -6.8569   -8.8787 C   0  0  0  0  0  0  0  0  0  0  0  0
   16.1613   -7.1271   -9.1190 C   0  0  0  0  0  0  0  0  0  0  0  0
   16.6604   -6.2436  -10.2413 C   0  0  2  0  0  0  0  0  0  0  0  0
   18.0846   -6.4007  -10.4515 N   0  0  0  0  0  0  0  0  0  0  0  0
   16.3933   -4.8226   -9.9492 C   0  0  0  0  0  0  0  0  0  0  0  0
   17.4032   -4.0097   -9.4855 O   0  0  0  0  0  0  0  0  0  0  0  0
   15.2495   -4.3366  -10.1179 O   0  0  0  0  0  0  0  0  0  0  0  0
  2  1  1  0
  3  2  1  0
  4  3  2  0
  5  9  1  0
  5  3  1  0
  6  5  1  0
  7  6  1  0
  7  8  1  0
  8  9  1  0
  9 10  1  6
 10 17  1  0
 10 11  2  0
 13 12  1  0
 14 15  1  0
 14 13  1  0
 16 15  1  1
 16 18  1  0
 17 16  1  0
 18 20  2  0
 18 19  1  0
M  END
$$$$
