GPM.pdb
     RDKit          3D

 20 20  0  0  1  0  0  0  0  0999 V2000
   32.3582  -27.5903    8.6844 N   0  0  0  0  0  0  0  0  0  0  0  0
   32.4404  -26.5371    7.7503 C   0  0  0  0  0  0  0  0  0  0  0  0
   32.7480  -25.1991    8.2080 C   0  0  0  0  0  0  0  0  0  0  0  0
   32.0459  -24.7943    9.2158 O   0  0  0  0  0  0  0  0  0  0  0  0
   33.6853  -24.3015    7.7174 N   0  0  0  0  0  0  0  0  0  0  0  0
   34.9417  -24.6269    7.0782 C   0  0  0  0  0  0  0  0  0  0  0  0
   34.8184  -23.8034    5.7808 C   0  0  0  0  0  0  0  0  0  0  0  0
   34.1928  -22.5352    6.3098 C   0  0  0  0  0  0  0  0  0  0  0  0
   33.6601  -22.8439    7.6827 C   0  0  1  0  0  0  0  0  0  0  0  0
   32.3822  -22.2133    7.9283 C   0  0  0  0  0  0  0  0  0  0  0  0
   31.3429  -22.5550    7.2603 O   0  0  0  0  0  0  0  0  0  0  0  0
   25.9183  -21.9063   11.2270 C   0  0  0  0  0  0  0  0  0  0  0  0
   27.5901  -22.5622   10.9823 S   0  0  0  0  0  0  0  0  0  0  0  0
   28.5864  -21.2739   10.1792 C   0  0  0  0  0  0  0  0  0  0  0  0
   29.9479  -21.8317    9.7873 C   0  0  0  0  0  0  0  0  0  0  0  0
   30.7993  -20.7241    9.2062 C   0  0  2  0  0  0  0  0  0  0  0  0
   32.1342  -21.1873    8.8890 N   0  0  0  0  0  0  0  0  0  0  0  0
   30.9164  -19.5998   10.1539 C   0  0  0  0  0  0  0  0  0  0  0  0
   30.0279  -18.5496   10.0950 O   0  0  0  0  0  0  0  0  0  0  0  0
   31.8213  -19.5838   11.0222 O   0  0  0  0  0  0  0  0  0  0  0  0
  2  1  1  0
  3  2  1  0
  4  3  2  0
  5  9  1  0
  5  3  1  0
  6  5  1  0
  7  6  1  0
  7  8  1  0
  8  9  1  0
  9 10  1  6
 10 17  1  0
 10 11  2  0
 13 12  1  0
 14 15  1  0
 14 13  1  0
 16 15  1  1
 16 18  1  0
 17 16  1  0
 18 20  2  0
 18 19  1  0
M  END
$$$$
