GPM.pdb
     RDKit          3D

 20 20  0  0  1  0  0  0  0  0999 V2000
   24.2530  -19.1930  -16.7337 N   0  0  0  0  0  0  0  0  0  0  0  0
   25.1891  -18.8111  -15.7507 C   0  0  0  0  0  0  0  0  0  0  0  0
   25.3998  -19.6596  -14.5974 C   0  0  0  0  0  0  0  0  0  0  0  0
   24.3587  -19.8284  -13.8490 O   0  0  0  0  0  0  0  0  0  0  0  0
   26.5556  -20.3103  -14.1908 N   0  0  0  0  0  0  0  0  0  0  0  0
   27.6698  -20.6976  -15.0284 C   0  0  0  0  0  0  0  0  0  0  0  0
   28.8403  -20.0672  -14.2482 C   0  0  0  0  0  0  0  0  0  0  0  0
   28.4256  -20.3654  -12.8273 C   0  0  0  0  0  0  0  0  0  0  0  0
   26.9699  -20.7443  -12.8616 C   0  0  1  0  0  0  0  0  0  0  0  0
   26.2351  -20.1950  -11.7439 C   0  0  0  0  0  0  0  0  0  0  0  0
   25.9773  -18.9410  -11.6810 O   0  0  0  0  0  0  0  0  0  0  0  0
   21.2792  -22.0215   -8.2039 C   0  0  0  0  0  0  0  0  0  0  0  0
   22.2187  -21.3011   -6.8315 S   0  0  0  0  0  0  0  0  0  0  0  0
   23.6473  -20.4236   -7.5289 C   0  0  0  0  0  0  0  0  0  0  0  0
   24.1074  -21.1054   -8.8104 C   0  0  0  0  0  0  0  0  0  0  0  0
   25.2276  -20.3030   -9.4353 C   0  0  2  0  0  0  0  0  0  0  0  0
   25.7365  -20.9391  -10.6326 N   0  0  0  0  0  0  0  0  0  0  0  0
   26.3480  -20.1409   -8.4898 C   0  0  0  0  0  0  0  0  0  0  0  0
   27.3461  -21.0874   -8.4305 O   0  0  0  0  0  0  0  0  0  0  0  0
   26.4081  -19.1444   -7.7304 O   0  0  0  0  0  0  0  0  0  0  0  0
  2  1  1  0
  3  2  1  0
  4  3  2  0
  5  9  1  0
  5  3  1  0
  6  5  1  0
  7  6  1  0
  7  8  1  0
  8  9  1  0
  9 10  1  1
 10 17  1  0
 10 11  2  0
 13 12  1  0
 14 15  1  0
 14 13  1  0
 16 15  1  1
 16 18  1  0
 17 16  1  0
 18 20  2  0
 18 19  1  0
M  END
$$$$
