CEE.pdb
     RDKit          3D

 25 24  0  0  1  0  0  0  0  0999 V2000
    5.1699  -13.0256   26.6971 N   0  0  0  0  0  0  0  0  0  0  0  0
    6.1451  -12.6386   25.7126 C   0  0  1  0  0  0  0  0  0  0  0  0
    7.2854  -11.8394   26.3252 C   0  0  0  0  0  0  0  0  0  0  0  0
    6.6389  -10.2625   26.9735 S   0  0  0  0  0  0  0  0  0  0  0  0
    6.7332  -13.8622   25.1169 C   0  0  0  0  0  0  0  0  0  0  0  0
    7.0155  -14.8386   25.8188 O   0  0  0  0  0  0  0  0  0  0  0  0
    6.9944  -13.9586   23.7150 N   0  0  0  0  0  0  0  0  0  0  0  0
    7.5955  -15.0950   23.0990 C   0  0  1  0  0  0  0  0  0  0  0  0
    7.4111  -15.1251   21.6044 C   0  0  0  0  0  0  0  0  0  0  0  0
    8.6704  -14.7146   20.8869 C   0  0  0  0  0  0  0  0  0  0  0  0
    8.8226  -15.4303   19.5934 C   0  0  0  0  0  0  0  0  0  0  0  0
    9.9722  -15.5247   19.0989 O   0  0  0  0  0  0  0  0  0  0  0  0
    9.0016  -15.2886   23.5027 C   0  0  0  0  0  0  0  0  0  0  0  0
    9.6717  -14.2896   23.8268 O   0  0  0  0  0  0  0  0  0  0  0  0
    7.7557  -15.9901   18.9209 O   0  0  0  0  0  0  0  0  0  0  0  0
    9.5886  -16.5620   23.5267 N   0  0  0  0  0  0  0  0  0  0  0  0
   10.8342  -16.7405   24.3100 C   0  0  1  0  0  0  0  0  0  0  0  0
   10.5192  -17.4499   25.5745 C   0  0  0  0  0  0  0  0  0  0  0  0
   11.6586  -17.7393   26.4771 C   0  0  0  0  0  0  0  0  0  0  0  0
   11.3288  -18.4601   27.7134 C   0  0  0  0  0  0  0  0  0  0  0  0
   10.1630  -18.8628   28.0359 O   0  0  0  0  0  0  0  0  0  0  0  0
   11.8425  -17.2826   23.4225 C   0  0  0  0  0  0  0  0  0  0  0  0
   13.1952  -17.0865   23.6557 O   0  0  0  0  0  0  0  0  0  0  0  0
   12.3604  -18.7306   28.6103 O   0  0  0  0  0  0  0  0  0  0  0  0
   11.5197  -17.9507   22.4093 O   0  0  0  0  0  0  0  0  0  0  0  0
  2  5  1  0
  2  1  1  1
  3  2  1  0
  4  3  1  0
  5  6  2  0
  7  8  1  0
  7  5  1  0
  8  9  1  6
  9 10  1  0
 10 11  1  0
 11 15  1  0
 11 12  2  0
 13  8  1  0
 14 13  2  0
 16 13  1  0
 17 18  1  1
 17 16  1  0
 18 19  1  0
 20 19  1  0
 20 21  2  0
 22 23  1  0
 22 17  1  0
 24 20  1  0
 25 22  2  0
M  END
$$$$
