CEE.pdb
     RDKit          3D

 25 24  0  0  1  0  0  0  0  0999 V2000
   15.5573  -18.3928   15.7680 N   0  0  0  0  0  0  0  0  0  0  0  0
   15.3887  -19.3857   16.7954 C   0  0  1  0  0  0  0  0  0  0  0  0
   16.6266  -20.2554   16.9546 C   0  0  0  0  0  0  0  0  0  0  0  0
   18.1053  -19.1921   17.0436 S   0  0  0  0  0  0  0  0  0  0  0  0
   15.1616  -18.6991   18.0897 C   0  0  0  0  0  0  0  0  0  0  0  0
   15.4959  -17.5211   18.2517 O   0  0  0  0  0  0  0  0  0  0  0  0
   14.5504  -19.3704   19.1936 N   0  0  0  0  0  0  0  0  0  0  0  0
   14.2670  -18.7429   20.4419 C   0  0  1  0  0  0  0  0  0  0  0  0
   13.0978  -19.3607   21.1631 C   0  0  0  0  0  0  0  0  0  0  0  0
   12.7705  -18.6071   22.4257 C   0  0  0  0  0  0  0  0  0  0  0  0
   11.5935  -19.1889   23.1220 C   0  0  0  0  0  0  0  0  0  0  0  0
   11.6763  -20.3680   23.5438 O   0  0  0  0  0  0  0  0  0  0  0  0
   15.4598  -18.6111   21.3006 C   0  0  0  0  0  0  0  0  0  0  0  0
   16.2522  -19.5698   21.3714 O   0  0  0  0  0  0  0  0  0  0  0  0
   10.4222  -18.4869   23.3201 O   0  0  0  0  0  0  0  0  0  0  0  0
   15.7126  -17.4399   22.0293 N   0  0  0  0  0  0  0  0  0  0  0  0
   16.9855  -17.3493   22.7832 C   0  0  1  0  0  0  0  0  0  0  0  0
   17.7503  -16.1686   22.3115 C   0  0  0  0  0  0  0  0  0  0  0  0
   19.0201  -15.8729   23.0163 C   0  0  0  0  0  0  0  0  0  0  0  0
   19.7435  -14.6797   22.5584 C   0  0  0  0  0  0  0  0  0  0  0  0
   19.3808  -13.4769   22.7756 O   0  0  0  0  0  0  0  0  0  0  0  0
   16.6766  -17.4799   24.1924 C   0  0  0  0  0  0  0  0  0  0  0  0
   15.3961  -17.2621   24.6775 O   0  0  0  0  0  0  0  0  0  0  0  0
   20.9173  -14.8632   21.8304 O   0  0  0  0  0  0  0  0  0  0  0  0
   17.5648  -17.7963   25.0219 O   0  0  0  0  0  0  0  0  0  0  0  0
  2  5  1  0
  2  1  1  6
  3  2  1  0
  4  3  1  0
  5  6  2  0
  7  8  1  0
  7  5  1  0
  8  9  1  1
  9 10  1  0
 10 11  1  0
 11 15  1  0
 11 12  2  0
 13  8  1  0
 14 13  2  0
 16 13  1  0
 17 18  1  1
 17 16  1  0
 18 19  1  0
 20 19  1  0
 20 21  2  0
 22 23  1  0
 22 17  1  0
 24 20  1  0
 25 22  2  0
M  END
$$$$
