CEE.pdb
     RDKit          3D

 25 24  0  0  1  0  0  0  0  0999 V2000
    8.4865  -14.5900   17.7408 N   0  0  0  0  0  0  0  0  0  0  0  0
    9.4353  -13.7274   18.3931 C   0  0  1  0  0  0  0  0  0  0  0  0
    8.8614  -13.1022   19.6556 C   0  0  0  0  0  0  0  0  0  0  0  0
    7.5365  -11.9337   19.2035 S   0  0  0  0  0  0  0  0  0  0  0  0
   10.6140  -14.5320   18.7949 C   0  0  0  0  0  0  0  0  0  0  0  0
   10.4786  -15.6613   19.2764 O   0  0  0  0  0  0  0  0  0  0  0  0
   11.9450  -14.0343   18.6412 N   0  0  0  0  0  0  0  0  0  0  0  0
   13.1116  -14.7780   18.9846 C   0  0  1  0  0  0  0  0  0  0  0  0
   14.3073  -14.4281   18.1379 C   0  0  0  0  0  0  0  0  0  0  0  0
   14.3288  -15.2264   16.8607 C   0  0  0  0  0  0  0  0  0  0  0  0
   15.5573  -14.9598   16.0680 C   0  0  0  0  0  0  0  0  0  0  0  0
   16.6690  -15.0789   16.6381 O   0  0  0  0  0  0  0  0  0  0  0  0
   13.4083  -14.7434   20.4297 C   0  0  0  0  0  0  0  0  0  0  0  0
   13.3577  -13.6489   21.0226 O   0  0  0  0  0  0  0  0  0  0  0  0
   15.5217  -14.5888   14.7395 O   0  0  0  0  0  0  0  0  0  0  0  0
   13.7425  -15.9071   21.1375 N   0  0  0  0  0  0  0  0  0  0  0  0
   13.9023  -15.8068   22.6076 C   0  0  1  0  0  0  0  0  0  0  0  0
   13.3521  -17.0291   23.2438 C   0  0  0  0  0  0  0  0  0  0  0  0
   13.5811  -17.1825   24.7000 C   0  0  0  0  0  0  0  0  0  0  0  0
   13.0568  -18.4140   25.3043 C   0  0  0  0  0  0  0  0  0  0  0  0
   11.8343  -18.6188   25.6025 O   0  0  0  0  0  0  0  0  0  0  0  0
   15.2709  -15.4181   22.8795 C   0  0  0  0  0  0  0  0  0  0  0  0
   15.6374  -14.8541   24.0921 O   0  0  0  0  0  0  0  0  0  0  0  0
   13.9541  -19.4445   25.5771 O   0  0  0  0  0  0  0  0  0  0  0  0
   16.1719  -15.5812   22.0201 O   0  0  0  0  0  0  0  0  0  0  0  0
  2  5  1  0
  2  1  1  1
  3  2  1  0
  4  3  1  0
  5  6  2  0
  7  8  1  0
  7  5  1  0
  8  9  1  6
  9 10  1  0
 10 11  1  0
 11 15  1  0
 11 12  2  0
 13  8  1  0
 14 13  2  0
 16 13  1  0
 17 18  1  1
 17 16  1  0
 18 19  1  0
 20 19  1  0
 20 21  2  0
 22 23  1  0
 22 17  1  0
 24 20  1  0
 25 22  2  0
M  END
$$$$
