CEE.pdb
     RDKit          3D

 25 24  0  0  1  0  0  0  0  0999 V2000
    5.2677  -13.8725   26.6228 N   0  0  0  0  0  0  0  0  0  0  0  0
    6.3094  -13.3251   25.7951 C   0  0  1  0  0  0  0  0  0  0  0  0
    7.3487  -12.5726   26.6123 C   0  0  0  0  0  0  0  0  0  0  0  0
    6.5890  -11.0770   27.3273 S   0  0  0  0  0  0  0  0  0  0  0  0
    7.0080  -14.4382   25.1089 C   0  0  0  0  0  0  0  0  0  0  0  0
    7.1909  -15.5200   25.6763 O   0  0  0  0  0  0  0  0  0  0  0  0
    7.4939  -14.3030   23.7715 N   0  0  0  0  0  0  0  0  0  0  0  0
    8.1753  -15.3397   23.0694 C   0  0  1  0  0  0  0  0  0  0  0  0
    8.2032  -15.1258   21.5786 C   0  0  0  0  0  0  0  0  0  0  0  0
    8.8526  -16.2851   20.8691 C   0  0  0  0  0  0  0  0  0  0  0  0
    8.9634  -16.0408   19.4073 C   0  0  0  0  0  0  0  0  0  0  0  0
   10.0618  -16.2764   18.8478 O   0  0  0  0  0  0  0  0  0  0  0  0
    9.5106  -15.6278   23.6276 C   0  0  0  0  0  0  0  0  0  0  0  0
   10.2856  -14.6761   23.8410 O   0  0  0  0  0  0  0  0  0  0  0  0
    7.9123  -15.5682   18.6486 O   0  0  0  0  0  0  0  0  0  0  0  0
    9.9165  -16.9385   23.9178 N   0  0  0  0  0  0  0  0  0  0  0  0
   11.2807  -17.1415   24.4605 C   0  0  1  0  0  0  0  0  0  0  0  0
   11.2222  -18.1140   25.5795 C   0  0  0  0  0  0  0  0  0  0  0  0
   10.0863  -17.9774   26.5216 C   0  0  0  0  0  0  0  0  0  0  0  0
   10.0898  -18.8973   27.6663 C   0  0  0  0  0  0  0  0  0  0  0  0
   11.0217  -19.7243   27.9366 O   0  0  0  0  0  0  0  0  0  0  0  0
   12.1690  -17.3940   23.3445 C   0  0  0  0  0  0  0  0  0  0  0  0
   11.6822  -17.6062   22.0636 O   0  0  0  0  0  0  0  0  0  0  0  0
    8.9968  -18.8737   28.5303 O   0  0  0  0  0  0  0  0  0  0  0  0
   13.4141  -17.4285   23.5046 O   0  0  0  0  0  0  0  0  0  0  0  0
  2  5  1  0
  2  1  1  1
  3  2  1  0
  4  3  1  0
  5  6  2  0
  7  8  1  0
  7  5  1  0
  8  9  1  6
  9 10  1  0
 10 11  1  0
 11 15  1  0
 11 12  2  0
 13  8  1  0
 14 13  2  0
 16 13  1  0
 17 18  1  1
 17 16  1  0
 18 19  1  0
 20 19  1  0
 20 21  2  0
 22 23  1  0
 22 17  1  0
 24 20  1  0
 25 22  2  0
M  END
$$$$
