CEE.pdb
     RDKit          3D

 25 24  0  0  1  0  0  0  0  0999 V2000
    5.0983  -13.4118   26.2897 N   0  0  0  0  0  0  0  0  0  0  0  0
    6.2027  -12.9831   25.4733 C   0  0  1  0  0  0  0  0  0  0  0  0
    7.2467  -12.2265   26.2806 C   0  0  0  0  0  0  0  0  0  0  0  0
    6.5855  -10.5911   26.7426 S   0  0  0  0  0  0  0  0  0  0  0  0
    6.8669  -14.1796   24.9029 C   0  0  0  0  0  0  0  0  0  0  0  0
    7.0336  -15.1983   25.5814 O   0  0  0  0  0  0  0  0  0  0  0  0
    7.3373  -14.2001   23.5534 N   0  0  0  0  0  0  0  0  0  0  0  0
    8.0791  -15.2797   22.9911 C   0  0  1  0  0  0  0  0  0  0  0  0
    8.1944  -15.2010   21.4913 C   0  0  0  0  0  0  0  0  0  0  0  0
    8.9877  -16.3567   20.9397 C   0  0  0  0  0  0  0  0  0  0  0  0
    9.1633  -16.2483   19.4679 C   0  0  0  0  0  0  0  0  0  0  0  0
    8.5463  -17.0590   18.7352 O   0  0  0  0  0  0  0  0  0  0  0  0
    9.3826  -15.4846   23.6518 C   0  0  0  0  0  0  0  0  0  0  0  0
    9.9340  -14.5099   24.1975 O   0  0  0  0  0  0  0  0  0  0  0  0
    9.9733  -15.2974   18.8816 O   0  0  0  0  0  0  0  0  0  0  0  0
   10.0031  -16.7420   23.6748 N   0  0  0  0  0  0  0  0  0  0  0  0
   11.3105  -16.8615   24.3628 C   0  0  1  0  0  0  0  0  0  0  0  0
   11.0886  -16.9130   25.8290 C   0  0  0  0  0  0  0  0  0  0  0  0
   10.5137  -18.1666   26.3716 C   0  0  0  0  0  0  0  0  0  0  0  0
   10.4851  -18.2765   27.8358 C   0  0  0  0  0  0  0  0  0  0  0  0
    9.5200  -18.7606   28.5137 O   0  0  0  0  0  0  0  0  0  0  0  0
   12.0554  -17.9236   23.7185 C   0  0  0  0  0  0  0  0  0  0  0  0
   13.3954  -18.1431   23.9991 O   0  0  0  0  0  0  0  0  0  0  0  0
   11.5915  -17.8205   28.5497 O   0  0  0  0  0  0  0  0  0  0  0  0
   11.5065  -18.6820   22.8815 O   0  0  0  0  0  0  0  0  0  0  0  0
  2  5  1  0
  2  1  1  1
  3  2  1  0
  4  3  1  0
  5  6  2  0
  7  8  1  0
  7  5  1  0
  8  9  1  6
  9 10  1  0
 10 11  1  0
 11 15  1  0
 11 12  2  0
 13  8  1  0
 14 13  2  0
 16 13  1  0
 17 18  1  1
 17 16  1  0
 18 19  1  0
 20 19  1  0
 20 21  2  0
 22 23  1  0
 22 17  1  0
 24 20  1  0
 25 22  2  0
M  END
$$$$
