CEE.pdb
     RDKit          3D

 25 24  0  0  1  0  0  0  0  0999 V2000
    8.1586  -13.1973   17.6903 N   0  0  0  0  0  0  0  0  0  0  0  0
    9.0243  -13.8867   18.6096 C   0  0  1  0  0  0  0  0  0  0  0  0
    9.7374  -12.9257   19.5489 C   0  0  0  0  0  0  0  0  0  0  0  0
   11.5026  -12.8393   19.0999 S   0  0  0  0  0  0  0  0  0  0  0  0
    8.2048  -14.7958   19.4463 C   0  0  0  0  0  0  0  0  0  0  0  0
    7.1722  -14.3972   19.9945 O   0  0  0  0  0  0  0  0  0  0  0  0
    8.5761  -16.1610   19.6494 N   0  0  0  0  0  0  0  0  0  0  0  0
    7.8805  -17.0481   20.5218 C   0  0  1  0  0  0  0  0  0  0  0  0
    7.4715  -18.3350   19.8545 C   0  0  0  0  0  0  0  0  0  0  0  0
    6.4516  -18.0932   18.7726 C   0  0  0  0  0  0  0  0  0  0  0  0
    6.0759  -19.3541   18.0815 C   0  0  0  0  0  0  0  0  0  0  0  0
    5.1232  -20.0251   18.5473 O   0  0  0  0  0  0  0  0  0  0  0  0
    8.5884  -17.2689   21.7976 C   0  0  0  0  0  0  0  0  0  0  0  0
    9.7343  -16.7991   21.9326 O   0  0  0  0  0  0  0  0  0  0  0  0
    6.7306  -19.8111   16.9561 O   0  0  0  0  0  0  0  0  0  0  0  0
    8.0003  -17.9898   22.8470 N   0  0  0  0  0  0  0  0  0  0  0  0
    8.5669  -17.8280   24.2070 C   0  0  1  0  0  0  0  0  0  0  0  0
    8.7294  -16.3826   24.5003 C   0  0  0  0  0  0  0  0  0  0  0  0
    9.2449  -16.0299   25.8443 C   0  0  0  0  0  0  0  0  0  0  0  0
   10.6460  -16.3840   26.1058 C   0  0  0  0  0  0  0  0  0  0  0  0
   11.6562  -15.7805   25.6154 O   0  0  0  0  0  0  0  0  0  0  0  0
    7.7935  -18.6545   25.1110 C   0  0  0  0  0  0  0  0  0  0  0  0
    8.3788  -19.2820   26.2001 O   0  0  0  0  0  0  0  0  0  0  0  0
   10.9036  -17.4598   26.9532 O   0  0  0  0  0  0  0  0  0  0  0  0
    6.5624  -18.8283   24.9342 O   0  0  0  0  0  0  0  0  0  0  0  0
  2  5  1  0
  2  1  1  6
  3  2  1  0
  4  3  1  0
  5  6  2  0
  7  8  1  0
  7  5  1  0
  8  9  1  6
  9 10  1  0
 10 11  1  0
 11 15  1  0
 11 12  2  0
 13  8  1  0
 14 13  2  0
 16 13  1  0
 17 18  1  1
 17 16  1  0
 18 19  1  0
 20 19  1  0
 20 21  2  0
 22 23  1  0
 22 17  1  0
 24 20  1  0
 25 22  2  0
M  END
$$$$
