CEE.pdb
     RDKit          3D

 25 24  0  0  1  0  0  0  0  0999 V2000
    5.1967  -13.3721   26.8775 N   0  0  0  0  0  0  0  0  0  0  0  0
    6.2515  -12.8708   26.0372 C   0  0  1  0  0  0  0  0  0  0  0  0
    7.3115  -12.1285   26.8369 C   0  0  0  0  0  0  0  0  0  0  0  0
    6.7321  -10.4344   27.1827 S   0  0  0  0  0  0  0  0  0  0  0  0
    6.9195  -14.0169   25.3751 C   0  0  0  0  0  0  0  0  0  0  0  0
    7.1532  -15.0603   25.9935 O   0  0  0  0  0  0  0  0  0  0  0  0
    7.3163  -13.9587   24.0033 N   0  0  0  0  0  0  0  0  0  0  0  0
    7.9294  -15.0435   23.3109 C   0  0  1  0  0  0  0  0  0  0  0  0
    7.9478  -14.8572   21.8163 C   0  0  0  0  0  0  0  0  0  0  0  0
    8.4584  -16.0888   21.1152 C   0  0  0  0  0  0  0  0  0  0  0  0
    8.4441  -15.9245   19.6382 C   0  0  0  0  0  0  0  0  0  0  0  0
    9.4898  -15.5176   19.0761 O   0  0  0  0  0  0  0  0  0  0  0  0
    9.2544  -15.3957   23.8566 C   0  0  0  0  0  0  0  0  0  0  0  0
   10.0169  -14.4763   24.2103 O   0  0  0  0  0  0  0  0  0  0  0  0
    7.3329  -16.2001   18.8680 O   0  0  0  0  0  0  0  0  0  0  0  0
    9.6644  -16.7310   23.9815 N   0  0  0  0  0  0  0  0  0  0  0  0
   10.8935  -17.0127   24.7605 C   0  0  1  0  0  0  0  0  0  0  0  0
   10.5700  -17.9536   25.8612 C   0  0  0  0  0  0  0  0  0  0  0  0
   11.6924  -18.3641   26.7376 C   0  0  0  0  0  0  0  0  0  0  0  0
   11.3487  -19.2843   27.8293 C   0  0  0  0  0  0  0  0  0  0  0  0
   10.1888  -19.7711   28.0370 O   0  0  0  0  0  0  0  0  0  0  0  0
   11.9453  -17.3493   23.8232 C   0  0  0  0  0  0  0  0  0  0  0  0
   13.2841  -17.1909   24.1478 O   0  0  0  0  0  0  0  0  0  0  0  0
   12.3588  -19.6617   28.7119 O   0  0  0  0  0  0  0  0  0  0  0  0
   11.6746  -17.7975   22.6817 O   0  0  0  0  0  0  0  0  0  0  0  0
  2  5  1  0
  2  1  1  1
  3  2  1  0
  4  3  1  0
  5  6  2  0
  7  8  1  0
  7  5  1  0
  8  9  1  6
  9 10  1  0
 10 11  1  0
 11 15  1  0
 11 12  2  0
 13  8  1  0
 14 13  2  0
 16 13  1  0
 17 18  1  1
 17 16  1  0
 18 19  1  0
 20 19  1  0
 20 21  2  0
 22 23  1  0
 22 17  1  0
 24 20  1  0
 25 22  2  0
M  END
$$$$
