CEE.pdb
     RDKit          3D

 25 24  0  0  1  0  0  0  0  0999 V2000
    6.5955  -15.8509   20.4048 N   0  0  0  0  0  0  0  0  0  0  0  0
    7.5609  -15.1578   21.2157 C   0  0  1  0  0  0  0  0  0  0  0  0
    6.9021  -14.3835   22.3473 C   0  0  0  0  0  0  0  0  0  0  0  0
    8.1887  -13.5842   23.3626 S   0  0  0  0  0  0  0  0  0  0  0  0
    8.4694  -16.1540   21.8322 C   0  0  0  0  0  0  0  0  0  0  0  0
    8.0233  -17.1622   22.3891 O   0  0  0  0  0  0  0  0  0  0  0  0
    9.8887  -15.9870   21.8058 N   0  0  0  0  0  0  0  0  0  0  0  0
   10.8025  -16.8882   22.4260 C   0  0  1  0  0  0  0  0  0  0  0  0
   11.9869  -17.2216   21.5572 C   0  0  0  0  0  0  0  0  0  0  0  0
   12.8800  -18.2419   22.2133 C   0  0  0  0  0  0  0  0  0  0  0  0
   14.0486  -18.5780   21.3589 C   0  0  0  0  0  0  0  0  0  0  0  0
   13.9777  -19.5975   20.6306 O   0  0  0  0  0  0  0  0  0  0  0  0
   11.1947  -16.4626   23.7834 C   0  0  0  0  0  0  0  0  0  0  0  0
   11.6733  -15.3225   23.9356 O   0  0  0  0  0  0  0  0  0  0  0  0
   15.1996  -17.8173   21.3370 O   0  0  0  0  0  0  0  0  0  0  0  0
   11.0400  -17.3094   24.8905 N   0  0  0  0  0  0  0  0  0  0  0  0
   11.2009  -16.7247   26.2430 C   0  0  1  0  0  0  0  0  0  0  0  0
   10.2882  -15.5637   26.3856 C   0  0  0  0  0  0  0  0  0  0  0  0
   10.2823  -14.8789   27.6999 C   0  0  0  0  0  0  0  0  0  0  0  0
    9.3546  -13.7478   27.8284 C   0  0  0  0  0  0  0  0  0  0  0  0
    8.5003  -13.3996   26.9484 O   0  0  0  0  0  0  0  0  0  0  0  0
   11.1322  -17.8058   27.2046 C   0  0  0  0  0  0  0  0  0  0  0  0
   11.5913  -17.6511   28.5038 O   0  0  0  0  0  0  0  0  0  0  0  0
    9.4020  -12.9897   28.9966 O   0  0  0  0  0  0  0  0  0  0  0  0
   10.6516  -18.9221   26.8886 O   0  0  0  0  0  0  0  0  0  0  0  0
  2  5  1  0
  2  1  1  1
  3  2  1  0
  4  3  1  0
  5  6  2  0
  7  8  1  0
  7  5  1  0
  8  9  1  6
  9 10  1  0
 10 11  1  0
 11 15  1  0
 11 12  2  0
 13  8  1  0
 14 13  2  0
 16 13  1  0
 17 18  1  1
 17 16  1  0
 18 19  1  0
 20 19  1  0
 20 21  2  0
 22 23  1  0
 22 17  1  0
 24 20  1  0
 25 22  2  0
M  END
$$$$
