CEE.pdb
     RDKit          3D

 25 24  0  0  1  0  0  0  0  0999 V2000
    9.0070  -14.3026   17.7444 N   0  0  0  0  0  0  0  0  0  0  0  0
    8.9914  -13.7398   19.0683 C   0  0  1  0  0  0  0  0  0  0  0  0
    7.6511  -13.1004   19.3988 C   0  0  0  0  0  0  0  0  0  0  0  0
    6.8862  -12.4730   17.8670 S   0  0  0  0  0  0  0  0  0  0  0  0
    9.2170  -14.8264   20.0514 C   0  0  0  0  0  0  0  0  0  0  0  0
    9.2161  -14.5962   21.2649 O   0  0  0  0  0  0  0  0  0  0  0  0
    9.4428  -16.1749   19.6348 N   0  0  0  0  0  0  0  0  0  0  0  0
    9.6333  -17.2603   20.5390 C   0  0  1  0  0  0  0  0  0  0  0  0
    9.1047  -18.5689   20.0128 C   0  0  0  0  0  0  0  0  0  0  0  0
    9.4218  -19.7059   20.9487 C   0  0  0  0  0  0  0  0  0  0  0  0
    8.9758  -21.0115   20.3962 C   0  0  0  0  0  0  0  0  0  0  0  0
    9.1096  -22.0350   21.1100 O   0  0  0  0  0  0  0  0  0  0  0  0
   11.0223  -17.3627   21.0264 C   0  0  0  0  0  0  0  0  0  0  0  0
   11.9016  -17.7651   20.2410 O   0  0  0  0  0  0  0  0  0  0  0  0
    8.4247  -21.1394   19.1377 O   0  0  0  0  0  0  0  0  0  0  0  0
   11.3645  -17.0195   22.3425 N   0  0  0  0  0  0  0  0  0  0  0  0
   12.8018  -16.9878   22.7031 C   0  0  1  0  0  0  0  0  0  0  0  0
   13.5107  -16.0437   21.8045 C   0  0  0  0  0  0  0  0  0  0  0  0
   14.9143  -15.7196   22.1530 C   0  0  0  0  0  0  0  0  0  0  0  0
   15.5968  -14.7806   21.2535 C   0  0  0  0  0  0  0  0  0  0  0  0
   15.2551  -13.5663   21.0685 O   0  0  0  0  0  0  0  0  0  0  0  0
   12.8954  -16.8103   24.1377 C   0  0  0  0  0  0  0  0  0  0  0  0
   14.0579  -17.1101   24.8313 O   0  0  0  0  0  0  0  0  0  0  0  0
   16.7037  -15.2400   20.5427 O   0  0  0  0  0  0  0  0  0  0  0  0
   11.9205  -16.3767   24.8000 O   0  0  0  0  0  0  0  0  0  0  0  0
  2  5  1  0
  2  1  1  6
  3  2  1  0
  4  3  1  0
  5  6  2  0
  7  8  1  0
  7  5  1  0
  8  9  1  6
  9 10  1  0
 10 11  1  0
 11 15  1  0
 11 12  2  0
 13  8  1  0
 14 13  2  0
 16 13  1  0
 17 18  1  6
 17 16  1  0
 18 19  1  0
 20 19  1  0
 20 21  2  0
 22 23  1  0
 22 17  1  0
 24 20  1  0
 25 22  2  0
M  END
$$$$
