CEE.pdb
     RDKit          3D

 25 24  0  0  1  0  0  0  0  0999 V2000
    6.5890  -16.0628   19.7624 N   0  0  0  0  0  0  0  0  0  0  0  0
    7.5503  -15.2418   20.4492 C   0  0  1  0  0  0  0  0  0  0  0  0
    6.9721  -14.6266   21.7146 C   0  0  0  0  0  0  0  0  0  0  0  0
    8.2785  -13.7029   22.5896 S   0  0  0  0  0  0  0  0  0  0  0  0
    8.6981  -16.0884   20.8540 C   0  0  0  0  0  0  0  0  0  0  0  0
    8.5287  -17.1085   21.5296 O   0  0  0  0  0  0  0  0  0  0  0  0
   10.0376  -15.7585   20.4799 N   0  0  0  0  0  0  0  0  0  0  0  0
   11.1600  -16.5988   20.7371 C   0  0  1  0  0  0  0  0  0  0  0  0
   12.2479  -16.4663   19.7038 C   0  0  0  0  0  0  0  0  0  0  0  0
   13.3292  -17.4948   19.9091 C   0  0  0  0  0  0  0  0  0  0  0  0
   14.4349  -17.3309   18.9298 C   0  0  0  0  0  0  0  0  0  0  0  0
   15.1614  -16.3116   19.0197 O   0  0  0  0  0  0  0  0  0  0  0  0
   11.6674  -16.4705   22.1168 C   0  0  0  0  0  0  0  0  0  0  0  0
   11.5454  -15.3750   22.6974 O   0  0  0  0  0  0  0  0  0  0  0  0
   14.6903  -18.2502   17.9329 O   0  0  0  0  0  0  0  0  0  0  0  0
   12.2773  -17.5473   22.7767 N   0  0  0  0  0  0  0  0  0  0  0  0
   12.7336  -17.3416   24.1717 C   0  0  1  0  0  0  0  0  0  0  0  0
   11.9534  -18.2218   25.0762 C   0  0  0  0  0  0  0  0  0  0  0  0
   12.3385  -18.2147   26.5074 C   0  0  0  0  0  0  0  0  0  0  0  0
   11.6443  -19.1866   27.3619 C   0  0  0  0  0  0  0  0  0  0  0  0
   12.2084  -20.1433   27.9880 O   0  0  0  0  0  0  0  0  0  0  0  0
   14.1802  -17.4157   24.1808 C   0  0  0  0  0  0  0  0  0  0  0  0
   14.9336  -16.7681   25.1481 O   0  0  0  0  0  0  0  0  0  0  0  0
   10.2640  -19.0641   27.5075 O   0  0  0  0  0  0  0  0  0  0  0  0
   14.7990  -18.0727   23.3076 O   0  0  0  0  0  0  0  0  0  0  0  0
  2  5  1  0
  2  1  1  1
  3  2  1  0
  4  3  1  0
  5  6  2  0
  7  8  1  0
  7  5  1  0
  8  9  1  6
  9 10  1  0
 10 11  1  0
 11 15  1  0
 11 12  2  0
 13  8  1  0
 14 13  2  0
 16 13  1  0
 17 18  1  1
 17 16  1  0
 18 19  1  0
 20 19  1  0
 20 21  2  0
 22 23  1  0
 22 17  1  0
 24 20  1  0
 25 22  2  0
M  END
$$$$
