WHF.pdb
     RDKit          3D

 36 39  0  0  1  0  0  0  0  0999 V2000
   21.8870  -15.9572  -29.2916 N   0  0  0  0  0  0  0  0  0  0  0  0
   21.7971  -16.2814  -27.9001 C   0  0  1  0  0  0  0  0  0  0  0  0
   20.4970  -15.8216  -27.2740 C   0  0  0  0  0  0  0  0  0  0  0  0
   20.3873  -14.3619  -27.2047 C   0  0  0  0  0  0  0  0  0  0  0  0
   20.3574  -13.4143  -28.2045 C   0  0  0  0  0  0  0  0  0  0  0  0
   20.2453  -12.1992  -27.6324 N   0  0  0  0  0  0  0  0  0  0  0  0
   20.1992  -12.3006  -26.2923 C   0  0  0  0  0  0  0  0  0  0  0  0
   20.0893  -11.3461  -25.2938 C   0  0  0  0  0  0  0  0  0  0  0  0
   20.0678  -11.7732  -23.9636 C   0  0  0  0  0  0  0  0  0  0  0  0
   20.1551  -13.1172  -23.6704 C   0  0  0  0  0  0  0  0  0  0  0  0
   20.2627  -14.0322  -24.6838 C   0  0  0  0  0  0  0  0  0  0  0  0
   20.2880  -13.6519  -26.0264 C   0  0  0  0  0  0  0  0  0  0  0  0
   21.9819  -17.7336  -27.6460 C   0  0  0  0  0  0  0  0  0  0  0  0
   21.2406  -18.5709  -28.2232 O   0  0  0  0  0  0  0  0  0  0  0  0
   22.9875  -18.1541  -26.7597 N   0  0  0  0  0  0  0  0  0  0  0  0
   23.1596  -19.6251  -26.4396 C   0  0  1  0  0  0  0  0  0  0  0  0
   24.6193  -19.8155  -26.2114 C   0  0  0  0  0  0  0  0  0  0  0  0
   25.0959  -21.1237  -25.7685 C   0  0  0  0  0  0  0  0  0  0  0  0
   25.6566  -22.0992  -26.6240 C   0  0  0  0  0  0  0  0  0  0  0  0
   25.9611  -23.1344  -25.8464 N   0  0  0  0  0  0  0  0  0  0  0  0
   25.6341  -22.8805  -24.5731 C   0  0  0  0  0  0  0  0  0  0  0  0
   25.1167  -21.6634  -24.5628 N   0  0  0  0  0  0  0  0  0  0  0  0
   22.2973  -19.8126  -25.2481 C   0  0  0  0  0  0  0  0  0  0  0  0
   22.2428  -18.8743  -24.3675 O   0  0  0  0  0  0  0  0  0  0  0  0
   21.4932  -20.9315  -24.9495 N   0  0  0  0  0  0  0  0  0  0  0  0
   20.6712  -20.9988  -23.7471 C   0  0  1  0  0  0  0  0  0  0  0  0
   19.3480  -21.6833  -24.1052 C   0  0  0  0  0  0  0  0  0  0  0  0
   19.5969  -22.9684  -24.8288 C   0  0  0  0  0  0  0  0  0  0  0  0
   19.7113  -24.1767  -24.2009 C   0  0  0  0  0  0  0  0  0  0  0  0
   19.9466  -25.3286  -24.9584 C   0  0  0  0  0  0  0  0  0  0  0  0
   20.0659  -25.2673  -26.3350 C   0  0  0  0  0  0  0  0  0  0  0  0
   19.9522  -24.0593  -26.9718 C   0  0  0  0  0  0  0  0  0  0  0  0
   19.7218  -22.9457  -26.2059 C   0  0  0  0  0  0  0  0  0  0  0  0
   21.3073  -21.8030  -22.6822 C   0  0  0  0  0  0  0  0  0  0  0  0
   22.0045  -22.8253  -22.9023 O   0  0  0  0  0  0  0  0  0  0  0  0
   21.1169  -21.3969  -21.3754 O   0  0  0  0  0  0  0  0  0  0  0  0
  2  1  1  6
  3  2  1  0
  4  3  1  0
  5  4  2  0
  6  7  1  0
  6  5  1  0
  7 12  2  0
  8  7  1  0
  8  9  2  0
  9 10  1  0
 10 11  2  0
 12  4  1  0
 12 11  1  0
 13 14  2  0
 13  2  1  0
 15 13  1  0
 16 15  1  0
 16 17  1  1
 18 17  1  0
 19 18  2  0
 20 19  1  0
 21 20  1  0
 21 22  2  0
 22 18  1  0
 23 16  1  0
 24 23  2  0
 25 23  1  0
 26 34  1  0
 26 25  1  0
 26 27  1  6
 28 33  1  0
 28 27  1  0
 29 28  2  0
 30 31  2  0
 30 29  1  0
 31 32  1  0
 32 33  2  0
 34 36  1  0
 35 34  2  0
M  END
$$$$
