WHF.pdb
     RDKit          3D

 36 39  0  0  1  0  0  0  0  0999 V2000
   15.5989  -10.0383  -16.7608 N   0  0  0  0  0  0  0  0  0  0  0  0
   16.2221  -10.2438  -15.4885 C   0  0  1  0  0  0  0  0  0  0  0  0
   17.7160   -9.9972  -15.5209 C   0  0  0  0  0  0  0  0  0  0  0  0
   18.4141  -10.8745  -16.4646 C   0  0  0  0  0  0  0  0  0  0  0  0
   19.1244  -10.5806  -17.6082 C   0  0  0  0  0  0  0  0  0  0  0  0
   19.5794  -11.7358  -18.1321 N   0  0  0  0  0  0  0  0  0  0  0  0
   19.2004  -12.7863  -17.3829 C   0  0  0  0  0  0  0  0  0  0  0  0
   19.4228  -14.1476  -17.5154 C   0  0  0  0  0  0  0  0  0  0  0  0
   18.8865  -15.0068  -16.5530 C   0  0  0  0  0  0  0  0  0  0  0  0
   18.1555  -14.4942  -15.5029 C   0  0  0  0  0  0  0  0  0  0  0  0
   17.9561  -13.1428  -15.4045 C   0  0  0  0  0  0  0  0  0  0  0  0
   18.4727  -12.2470  -16.3418 C   0  0  0  0  0  0  0  0  0  0  0  0
   15.6073   -9.4159  -14.4187 C   0  0  0  0  0  0  0  0  0  0  0  0
   15.4378   -8.1821  -14.5997 O   0  0  0  0  0  0  0  0  0  0  0  0
   15.2218  -10.0255  -13.2132 N   0  0  0  0  0  0  0  0  0  0  0  0
   14.4399   -9.2448  -12.1764 C   0  0  1  0  0  0  0  0  0  0  0  0
   13.5626  -10.2430  -11.5035 C   0  0  0  0  0  0  0  0  0  0  0  0
   12.7807   -9.8216  -10.3435 C   0  0  0  0  0  0  0  0  0  0  0  0
   12.8358   -8.5301   -9.7718 C   0  0  0  0  0  0  0  0  0  0  0  0
   11.9863   -8.5476   -8.7486 N   0  0  0  0  0  0  0  0  0  0  0  0
   11.4059   -9.7492   -8.6378 C   0  0  0  0  0  0  0  0  0  0  0  0
   11.9066  -10.4899   -9.6123 N   0  0  0  0  0  0  0  0  0  0  0  0
   15.5031   -8.6545  -11.3283 C   0  0  0  0  0  0  0  0  0  0  0  0
   16.5528   -9.3553  -11.0716 O   0  0  0  0  0  0  0  0  0  0  0  0
   15.5117   -7.3691  -10.7494 N   0  0  0  0  0  0  0  0  0  0  0  0
   16.6379   -6.8782   -9.9641 C   0  0  1  0  0  0  0  0  0  0  0  0
   17.5321   -6.0346  -10.8785 C   0  0  0  0  0  0  0  0  0  0  0  0
   16.7871   -4.8447  -11.3946 C   0  0  0  0  0  0  0  0  0  0  0  0
   16.7345   -3.6465  -10.7398 C   0  0  0  0  0  0  0  0  0  0  0  0
   16.0108   -2.5871  -11.2964 C   0  0  0  0  0  0  0  0  0  0  0  0
   15.3455   -2.7300  -12.5005 C   0  0  0  0  0  0  0  0  0  0  0  0
   15.3937   -3.9285  -13.1631 C   0  0  0  0  0  0  0  0  0  0  0  0
   16.1100   -4.9507  -12.5958 C   0  0  0  0  0  0  0  0  0  0  0  0
   16.2032   -6.0080   -8.8508 C   0  0  0  0  0  0  0  0  0  0  0  0
   16.9743   -5.5884   -7.9515 O   0  0  0  0  0  0  0  0  0  0  0  0
   14.8715   -5.6425   -8.8086 O   0  0  0  0  0  0  0  0  0  0  0  0
  2  1  1  6
  3  2  1  0
  4  3  1  0
  5  4  2  0
  6  7  1  0
  6  5  1  0
  7 12  2  0
  8  7  1  0
  8  9  2  0
  9 10  1  0
 10 11  2  0
 12  4  1  0
 12 11  1  0
 13 14  2  0
 13  2  1  0
 15 13  1  0
 16 15  1  0
 16 17  1  1
 18 17  1  0
 19 18  2  0
 20 19  1  0
 21 20  1  0
 21 22  2  0
 22 18  1  0
 23 16  1  0
 24 23  2  0
 25 23  1  0
 26 34  1  0
 26 25  1  0
 26 27  1  6
 28 33  1  0
 28 27  1  0
 29 28  2  0
 30 31  2  0
 30 29  1  0
 31 32  1  0
 32 33  2  0
 34 36  1  0
 35 34  2  0
M  END
$$$$
