WHF.pdb
     RDKit          3D

 36 39  0  0  1  0  0  0  0  0999 V2000
   27.4208  -20.3130  -16.2287 N   0  0  0  0  0  0  0  0  0  0  0  0
   26.8553  -20.7584  -14.9913 C   0  0  1  0  0  0  0  0  0  0  0  0
   26.8597  -19.6837  -13.9242 C   0  0  0  0  0  0  0  0  0  0  0  0
   28.0522  -19.7349  -13.0741 C   0  0  0  0  0  0  0  0  0  0  0  0
   29.3526  -19.3553  -13.3260 C   0  0  0  0  0  0  0  0  0  0  0  0
   30.0862  -19.6008  -12.2225 N   0  0  0  0  0  0  0  0  0  0  0  0
   29.3260  -20.1283  -11.2467 C   0  0  0  0  0  0  0  0  0  0  0  0
   29.6257  -20.5380   -9.9573 C   0  0  0  0  0  0  0  0  0  0  0  0
   28.5966  -21.0566   -9.1672 C   0  0  0  0  0  0  0  0  0  0  0  0
   27.3189  -21.1509   -9.6754 C   0  0  0  0  0  0  0  0  0  0  0  0
   27.0599  -20.7360  -10.9546 C   0  0  0  0  0  0  0  0  0  0  0  0
   28.0559  -20.2116  -11.7799 C   0  0  0  0  0  0  0  0  0  0  0  0
   25.4756  -21.2840  -15.1582 C   0  0  0  0  0  0  0  0  0  0  0  0
   24.6522  -20.6660  -15.8820 O   0  0  0  0  0  0  0  0  0  0  0  0
   25.1074  -22.4702  -14.5019 N   0  0  0  0  0  0  0  0  0  0  0  0
   23.7065  -23.0269  -14.6553 C   0  0  1  0  0  0  0  0  0  0  0  0
   23.8471  -24.5036  -14.5203 C   0  0  0  0  0  0  0  0  0  0  0  0
   22.6412  -25.3284  -14.5392 C   0  0  0  0  0  0  0  0  0  0  0  0
   21.3253  -24.8149  -14.5888 C   0  0  0  0  0  0  0  0  0  0  0  0
   20.5205  -25.8739  -14.5923 N   0  0  0  0  0  0  0  0  0  0  0  0
   21.2320  -27.0073  -14.5487 C   0  0  0  0  0  0  0  0  0  0  0  0
   22.5027  -26.6420  -14.5177 N   0  0  0  0  0  0  0  0  0  0  0  0
   22.9569  -22.3546  -13.5670 C   0  0  0  0  0  0  0  0  0  0  0  0
   23.5032  -22.2584  -12.4046 O   0  0  0  0  0  0  0  0  0  0  0  0
   21.6724  -21.7795  -13.6502 N   0  0  0  0  0  0  0  0  0  0  0  0
   20.9953  -21.2190  -12.4869 C   0  0  1  0  0  0  0  0  0  0  0  0
   21.4098  -19.7505  -12.3488 C   0  0  0  0  0  0  0  0  0  0  0  0
   21.2095  -19.0214  -13.6393 C   0  0  0  0  0  0  0  0  0  0  0  0
   22.0767  -19.1011  -14.6923 C   0  0  0  0  0  0  0  0  0  0  0  0
   21.8102  -18.3820  -15.8618 C   0  0  0  0  0  0  0  0  0  0  0  0
   20.6822  -17.5895  -15.9727 C   0  0  0  0  0  0  0  0  0  0  0  0
   19.8077  -17.5045  -14.9211 C   0  0  0  0  0  0  0  0  0  0  0  0
   20.0924  -18.2194  -13.7864 C   0  0  0  0  0  0  0  0  0  0  0  0
   19.5243  -21.2483  -12.6311 C   0  0  0  0  0  0  0  0  0  0  0  0
   18.9331  -21.6223  -13.6752 O   0  0  0  0  0  0  0  0  0  0  0  0
   18.7684  -20.8390  -11.5495 O   0  0  0  0  0  0  0  0  0  0  0  0
  2  1  1  6
  3  2  1  0
  4  3  1  0
  5  4  2  0
  6  7  1  0
  6  5  1  0
  7 12  2  0
  8  7  1  0
  8  9  2  0
  9 10  1  0
 10 11  2  0
 12  4  1  0
 12 11  1  0
 13 14  2  0
 13  2  1  0
 15 13  1  0
 16 15  1  0
 16 17  1  1
 18 17  1  0
 19 18  2  0
 20 19  1  0
 21 20  1  0
 21 22  2  0
 22 18  1  0
 23 16  1  0
 24 23  2  0
 25 23  1  0
 26 34  1  0
 26 25  1  0
 26 27  1  6
 28 33  1  0
 28 27  1  0
 29 28  2  0
 30 31  2  0
 30 29  1  0
 31 32  1  0
 32 33  2  0
 34 36  1  0
 35 34  2  0
M  END
$$$$
