WHF.pdb
     RDKit          3D

 36 39  0  0  1  0  0  0  0  0999 V2000
   15.8697  -26.4744   -8.8033 N   0  0  0  0  0  0  0  0  0  0  0  0
   16.6264  -27.2223   -7.8454 C   0  0  1  0  0  0  0  0  0  0  0  0
   18.0692  -26.7707   -7.7567 C   0  0  0  0  0  0  0  0  0  0  0  0
   18.8103  -26.9957   -9.0007 C   0  0  0  0  0  0  0  0  0  0  0  0
   18.9620  -26.1975  -10.1135 C   0  0  0  0  0  0  0  0  0  0  0  0
   19.7415  -26.8495  -10.9987 N   0  0  0  0  0  0  0  0  0  0  0  0
   20.1144  -28.0493  -10.5193 C   0  0  0  0  0  0  0  0  0  0  0  0
   20.8999  -29.0578  -11.0542 C   0  0  0  0  0  0  0  0  0  0  0  0
   21.1089  -30.2124  -10.2957 C   0  0  0  0  0  0  0  0  0  0  0  0
   20.5387  -30.3281   -9.0462 C   0  0  0  0  0  0  0  0  0  0  0  0
   19.7680  -29.3106   -8.5498 C   0  0  0  0  0  0  0  0  0  0  0  0
   19.5321  -28.1394   -9.2714 C   0  0  0  0  0  0  0  0  0  0  0  0
   16.0137  -27.1892   -6.4922 C   0  0  0  0  0  0  0  0  0  0  0  0
   15.6068  -26.0985   -6.0143 O   0  0  0  0  0  0  0  0  0  0  0  0
   15.8966  -28.3830   -5.7609 N   0  0  0  0  0  0  0  0  0  0  0  0
   15.2434  -28.3823   -4.3938 C   0  0  1  0  0  0  0  0  0  0  0  0
   14.5502  -29.6959   -4.2822 C   0  0  0  0  0  0  0  0  0  0  0  0
   13.7849  -29.9854   -3.0717 C   0  0  0  0  0  0  0  0  0  0  0  0
   12.5709  -29.3498   -2.7253 C   0  0  0  0  0  0  0  0  0  0  0  0
   12.1959  -29.8861   -1.5675 N   0  0  0  0  0  0  0  0  0  0  0  0
   13.0812  -30.8065   -1.1650 C   0  0  0  0  0  0  0  0  0  0  0  0
   14.0231  -30.8400   -2.0929 N   0  0  0  0  0  0  0  0  0  0  0  0
   16.3896  -28.1849   -3.4741 C   0  0  0  0  0  0  0  0  0  0  0  0
   17.5240  -28.7165   -3.7732 O   0  0  0  0  0  0  0  0  0  0  0  0
   16.3947  -27.4544   -2.2683 N   0  0  0  0  0  0  0  0  0  0  0  0
   17.5544  -27.4210   -1.3852 C   0  0  1  0  0  0  0  0  0  0  0  0
   17.6739  -26.0104   -0.7993 C   0  0  0  0  0  0  0  0  0  0  0  0
   18.8170  -25.9327    0.1622 C   0  0  0  0  0  0  0  0  0  0  0  0
   20.1278  -25.9936   -0.2192 C   0  0  0  0  0  0  0  0  0  0  0  0
   21.1329  -25.9151    0.7502 C   0  0  0  0  0  0  0  0  0  0  0  0
   20.8240  -25.7765    2.0911 C   0  0  0  0  0  0  0  0  0  0  0  0
   19.5119  -25.7146    2.4813 C   0  0  0  0  0  0  0  0  0  0  0  0
   18.5462  -25.7940    1.5113 C   0  0  0  0  0  0  0  0  0  0  0  0
   17.4168  -28.3577   -0.2498 C   0  0  0  0  0  0  0  0  0  0  0  0
   18.3131  -29.1663    0.1001 O   0  0  0  0  0  0  0  0  0  0  0  0
   16.2309  -28.3325    0.4587 O   0  0  0  0  0  0  0  0  0  0  0  0
  2  1  1  6
  3  2  1  0
  4  3  1  0
  5  4  2  0
  6  7  1  0
  6  5  1  0
  7 12  2  0
  8  7  1  0
  8  9  2  0
  9 10  1  0
 10 11  2  0
 12  4  1  0
 12 11  1  0
 13 14  2  0
 13  2  1  0
 15 13  1  0
 16 15  1  0
 16 17  1  1
 18 17  1  0
 19 18  2  0
 20 19  1  0
 21 20  1  0
 21 22  2  0
 22 18  1  0
 23 16  1  0
 24 23  2  0
 25 23  1  0
 26 34  1  0
 26 25  1  0
 26 27  1  1
 28 33  1  0
 28 27  1  0
 29 28  2  0
 30 31  2  0
 30 29  1  0
 31 32  1  0
 32 33  2  0
 34 36  1  0
 35 34  2  0
M  END
$$$$
