WHF.pdb
     RDKit          3D

 36 39  0  0  1  0  0  0  0  0999 V2000
   27.9816  -21.7664  -13.8746 N   0  0  0  0  0  0  0  0  0  0  0  0
   26.8389  -21.6598  -13.0188 C   0  0  1  0  0  0  0  0  0  0  0  0
   26.8555  -20.4041  -12.1724 C   0  0  0  0  0  0  0  0  0  0  0  0
   27.9039  -20.4253  -11.1488 C   0  0  0  0  0  0  0  0  0  0  0  0
   29.2613  -20.2095  -11.2479 C   0  0  0  0  0  0  0  0  0  0  0  0
   29.8009  -20.3396  -10.0199 N   0  0  0  0  0  0  0  0  0  0  0  0
   28.8572  -20.6332   -9.1080 C   0  0  0  0  0  0  0  0  0  0  0  0
   28.9255  -20.8560   -7.7421 C   0  0  0  0  0  0  0  0  0  0  0  0
   27.7442  -21.1464   -7.0547 C   0  0  0  0  0  0  0  0  0  0  0  0
   26.5477  -21.2057   -7.7363 C   0  0  0  0  0  0  0  0  0  0  0  0
   26.5186  -20.9798   -9.0867 C   0  0  0  0  0  0  0  0  0  0  0  0
   27.6729  -20.6864   -9.8144 C   0  0  0  0  0  0  0  0  0  0  0  0
   25.5606  -21.7310  -13.7729 C   0  0  0  0  0  0  0  0  0  0  0  0
   25.3971  -21.0209  -14.7989 O   0  0  0  0  0  0  0  0  0  0  0  0
   24.5465  -22.5952  -13.3274 N   0  0  0  0  0  0  0  0  0  0  0  0
   23.3455  -22.8828  -14.2053 C   0  0  1  0  0  0  0  0  0  0  0  0
   23.2409  -24.3675  -14.2643 C   0  0  0  0  0  0  0  0  0  0  0  0
   23.9829  -25.0830  -15.2998 C   0  0  0  0  0  0  0  0  0  0  0  0
   24.6783  -24.4565  -16.3590 C   0  0  0  0  0  0  0  0  0  0  0  0
   25.2156  -25.4402  -17.0748 N   0  0  0  0  0  0  0  0  0  0  0  0
   24.9096  -26.6311  -16.5446 C   0  0  0  0  0  0  0  0  0  0  0  0
   24.1678  -26.3787  -15.4791 N   0  0  0  0  0  0  0  0  0  0  0  0
   22.2400  -22.1924  -13.4986 C   0  0  0  0  0  0  0  0  0  0  0  0
   22.0864  -22.3975  -12.2363 O   0  0  0  0  0  0  0  0  0  0  0  0
   21.3021  -21.2996  -14.0563 N   0  0  0  0  0  0  0  0  0  0  0  0
   20.2156  -20.7244  -13.2724 C   0  0  1  0  0  0  0  0  0  0  0  0
   20.5697  -19.2684  -12.9530 C   0  0  0  0  0  0  0  0  0  0  0  0
   20.9969  -18.5449  -14.1904 C   0  0  0  0  0  0  0  0  0  0  0  0
   22.2853  -18.5261  -14.6453 C   0  0  0  0  0  0  0  0  0  0  0  0
   22.5948  -17.8205  -15.8125 C   0  0  0  0  0  0  0  0  0  0  0  0
   21.6184  -17.1396  -16.5168 C   0  0  0  0  0  0  0  0  0  0  0  0
   20.3242  -17.1539  -16.0669 C   0  0  0  0  0  0  0  0  0  0  0  0
   20.0477  -17.8530  -14.9203 C   0  0  0  0  0  0  0  0  0  0  0  0
   18.9381  -20.7125  -14.0163 C   0  0  0  0  0  0  0  0  0  0  0  0
   18.8493  -20.9164  -15.2533 O   0  0  0  0  0  0  0  0  0  0  0  0
   17.7839  -20.4621  -13.2993 O   0  0  0  0  0  0  0  0  0  0  0  0
  2  1  1  6
  3  2  1  0
  4  3  1  0
  5  4  2  0
  6  7  1  0
  6  5  1  0
  7 12  2  0
  8  7  1  0
  8  9  2  0
  9 10  1  0
 10 11  2  0
 12  4  1  0
 12 11  1  0
 13 14  2  0
 13  2  1  0
 15 13  1  0
 16 15  1  0
 16 17  1  1
 18 17  1  0
 19 18  2  0
 20 19  1  0
 21 20  1  0
 21 22  2  0
 22 18  1  0
 23 16  1  0
 24 23  2  0
 25 23  1  0
 26 34  1  0
 26 25  1  0
 26 27  1  6
 28 33  1  0
 28 27  1  0
 29 28  2  0
 30 31  2  0
 30 29  1  0
 31 32  1  0
 32 33  2  0
 34 36  1  0
 35 34  2  0
M  END
$$$$
