WHF.pdb
     RDKit          3D

 36 39  0  0  1  0  0  0  0  0999 V2000
   34.9949  -33.4623  -16.6229 N   0  0  0  0  0  0  0  0  0  0  0  0
   34.2747  -32.9522  -17.7500 C   0  0  1  0  0  0  0  0  0  0  0  0
   33.0232  -33.7485  -18.0553 C   0  0  0  0  0  0  0  0  0  0  0  0
   33.2947  -34.9442  -18.8577 C   0  0  0  0  0  0  0  0  0  0  0  0
   33.6855  -36.2104  -18.4801 C   0  0  0  0  0  0  0  0  0  0  0  0
   33.8055  -36.9648  -19.5904 N   0  0  0  0  0  0  0  0  0  0  0  0
   33.5101  -36.2513  -20.6913 C   0  0  0  0  0  0  0  0  0  0  0  0
   33.4915  -36.5864  -22.0357 C   0  0  0  0  0  0  0  0  0  0  0  0
   33.1346  -35.6034  -22.9622 C   0  0  0  0  0  0  0  0  0  0  0  0
   32.8117  -34.3349  -22.5305 C   0  0  0  0  0  0  0  0  0  0  0  0
   32.8411  -34.0400  -21.1934 C   0  0  0  0  0  0  0  0  0  0  0  0
   33.1912  -34.9895  -20.2323 C   0  0  0  0  0  0  0  0  0  0  0  0
   33.9218  -31.5176  -17.5919 C   0  0  0  0  0  0  0  0  0  0  0  0
   33.6615  -31.0578  -16.4498 O   0  0  0  0  0  0  0  0  0  0  0  0
   33.8834  -30.6897  -18.7263 N   0  0  0  0  0  0  0  0  0  0  0  0
   33.5944  -29.2092  -18.5840 C   0  0  1  0  0  0  0  0  0  0  0  0
   34.7928  -28.5144  -19.1316 C   0  0  0  0  0  0  0  0  0  0  0  0
   35.9353  -28.2852  -18.2502 C   0  0  0  0  0  0  0  0  0  0  0  0
   35.9507  -27.3474  -17.1928 C   0  0  0  0  0  0  0  0  0  0  0  0
   37.1558  -27.4427  -16.6383 N   0  0  0  0  0  0  0  0  0  0  0  0
   37.8929  -28.3667  -17.2673 C   0  0  0  0  0  0  0  0  0  0  0  0
   37.1281  -28.8528  -18.2306 N   0  0  0  0  0  0  0  0  0  0  0  0
   32.3442  -29.0348  -19.3619 C   0  0  0  0  0  0  0  0  0  0  0  0
   32.2188  -29.6567  -20.4828 O   0  0  0  0  0  0  0  0  0  0  0  0
   31.2289  -28.2469  -19.0113 N   0  0  0  0  0  0  0  0  0  0  0  0
   30.0173  -28.2112  -19.8216 C   0  0  1  0  0  0  0  0  0  0  0  0
   29.4409  -29.6291  -19.8899 C   0  0  0  0  0  0  0  0  0  0  0  0
   29.0429  -30.1037  -18.5285 C   0  0  0  0  0  0  0  0  0  0  0  0
   29.8588  -30.8440  -17.7201 C   0  0  0  0  0  0  0  0  0  0  0  0
   29.4020  -31.2468  -16.4612 C   0  0  0  0  0  0  0  0  0  0  0  0
   28.1362  -30.9089  -16.0179 C   0  0  0  0  0  0  0  0  0  0  0  0
   27.3121  -30.1667  -16.8228 C   0  0  0  0  0  0  0  0  0  0  0  0
   27.7843  -29.7849  -18.0520 C   0  0  0  0  0  0  0  0  0  0  0  0
   28.9774  -27.3426  -19.2303 C   0  0  0  0  0  0  0  0  0  0  0  0
   29.0626  -26.8335  -18.0845 O   0  0  0  0  0  0  0  0  0  0  0  0
   27.8535  -27.0835  -19.9910 O   0  0  0  0  0  0  0  0  0  0  0  0
  2  1  1  1
  3  2  1  0
  4  3  1  0
  5  4  2  0
  6  7  1  0
  6  5  1  0
  7 12  2  0
  8  7  1  0
  8  9  2  0
  9 10  1  0
 10 11  2  0
 12  4  1  0
 12 11  1  0
 13 14  2  0
 13  2  1  0
 15 13  1  0
 16 15  1  0
 16 17  1  6
 18 17  1  0
 19 18  2  0
 20 19  1  0
 21 20  1  0
 21 22  2  0
 22 18  1  0
 23 16  1  0
 24 23  2  0
 25 23  1  0
 26 34  1  0
 26 25  1  0
 26 27  1  1
 28 33  1  0
 28 27  1  0
 29 28  2  0
 30 31  2  0
 30 29  1  0
 31 32  1  0
 32 33  2  0
 34 36  1  0
 35 34  2  0
M  END
$$$$
