WHF.pdb
     RDKit          3D

 36 39  0  0  1  0  0  0  0  0999 V2000
   28.2306  -19.7676  -15.8684 N   0  0  0  0  0  0  0  0  0  0  0  0
   27.7195  -20.6104  -14.8302 C   0  0  1  0  0  0  0  0  0  0  0  0
   27.6514  -19.9115  -13.4883 C   0  0  0  0  0  0  0  0  0  0  0  0
   28.9505  -19.8557  -12.8126 C   0  0  0  0  0  0  0  0  0  0  0  0
   29.9208  -18.8774  -12.8096 C   0  0  0  0  0  0  0  0  0  0  0  0
   30.9396  -19.2945  -12.0322 N   0  0  0  0  0  0  0  0  0  0  0  0
   30.6859  -20.5109  -11.5179 C   0  0  0  0  0  0  0  0  0  0  0  0
   31.4194  -21.3335  -10.6782 C   0  0  0  0  0  0  0  0  0  0  0  0
   30.8752  -22.5674  -10.3127 C   0  0  0  0  0  0  0  0  0  0  0  0
   29.6359  -22.9410  -10.7863 C   0  0  0  0  0  0  0  0  0  0  0  0
   28.9395  -22.1016  -11.6147 C   0  0  0  0  0  0  0  0  0  0  0  0
   29.4433  -20.8602  -12.0061 C   0  0  0  0  0  0  0  0  0  0  0  0
   26.3846  -21.1709  -15.1642 C   0  0  0  0  0  0  0  0  0  0  0  0
   25.6480  -20.5827  -15.9979 O   0  0  0  0  0  0  0  0  0  0  0  0
   25.9611  -22.3565  -14.5410 N   0  0  0  0  0  0  0  0  0  0  0  0
   24.6403  -22.9929  -14.9237 C   0  0  1  0  0  0  0  0  0  0  0  0
   24.8961  -24.4602  -14.9456 C   0  0  0  0  0  0  0  0  0  0  0  0
   25.4347  -25.0609  -16.1637 C   0  0  0  0  0  0  0  0  0  0  0  0
   25.6443  -24.3596  -17.3729 C   0  0  0  0  0  0  0  0  0  0  0  0
   26.1410  -25.2483  -18.2286 N   0  0  0  0  0  0  0  0  0  0  0  0
   26.2575  -26.4489  -17.6474 C   0  0  0  0  0  0  0  0  0  0  0  0
   25.8240  -26.2997  -16.4069 N   0  0  0  0  0  0  0  0  0  0  0  0
   23.7199  -22.5210  -13.8615 C   0  0  0  0  0  0  0  0  0  0  0  0
   23.7766  -23.0746  -12.7000 O   0  0  0  0  0  0  0  0  0  0  0  0
   22.7560  -21.4974  -13.9663 N   0  0  0  0  0  0  0  0  0  0  0  0
   21.9136  -21.1055  -12.8426 C   0  0  1  0  0  0  0  0  0  0  0  0
   22.4516  -19.7889  -12.2728 C   0  0  0  0  0  0  0  0  0  0  0  0
   23.5458  -20.0481  -11.2865 C   0  0  0  0  0  0  0  0  0  0  0  0
   23.3412  -20.1281   -9.9379 C   0  0  0  0  0  0  0  0  0  0  0  0
   24.4253  -20.3719   -9.0886 C   0  0  0  0  0  0  0  0  0  0  0  0
   25.7041  -20.5340   -9.5898 C   0  0  0  0  0  0  0  0  0  0  0  0
   25.9173  -20.4552  -10.9412 C   0  0  0  0  0  0  0  0  0  0  0  0
   24.8376  -20.2153  -11.7514 C   0  0  0  0  0  0  0  0  0  0  0  0
   20.5136  -20.8667  -13.2530 C   0  0  0  0  0  0  0  0  0  0  0  0
   20.1428  -20.7808  -14.4507 O   0  0  0  0  0  0  0  0  0  0  0  0
   19.5692  -20.7325  -12.2535 O   0  0  0  0  0  0  0  0  0  0  0  0
  2  1  1  6
  3  2  1  0
  4  3  1  0
  5  4  2  0
  6  7  1  0
  6  5  1  0
  7 12  2  0
  8  7  1  0
  8  9  2  0
  9 10  1  0
 10 11  2  0
 12  4  1  0
 12 11  1  0
 13 14  2  0
 13  2  1  0
 15 13  1  0
 16 15  1  0
 16 17  1  1
 18 17  1  0
 19 18  2  0
 20 19  1  0
 21 20  1  0
 21 22  2  0
 22 18  1  0
 23 16  1  0
 24 23  2  0
 25 23  1  0
 26 34  1  0
 26 25  1  0
 26 27  1  6
 28 33  1  0
 28 27  1  0
 29 28  2  0
 30 31  2  0
 30 29  1  0
 31 32  1  0
 32 33  2  0
 34 36  1  0
 35 34  2  0
M  END
$$$$
