WHF.pdb
     RDKit          3D

 36 39  0  0  1  0  0  0  0  0999 V2000
   22.0052  -21.6886  -13.6893 N   0  0  0  0  0  0  0  0  0  0  0  0
   22.8508  -20.6496  -13.1846 C   0  0  1  0  0  0  0  0  0  0  0  0
   22.0782  -19.5596  -12.4716 C   0  0  0  0  0  0  0  0  0  0  0  0
   21.2463  -18.7676  -13.3815 C   0  0  0  0  0  0  0  0  0  0  0  0
   19.8777  -18.6249  -13.4536 C   0  0  0  0  0  0  0  0  0  0  0  0
   19.5930  -17.7824  -14.4662 N   0  0  0  0  0  0  0  0  0  0  0  0
   20.7173  -17.3588  -15.0704 C   0  0  0  0  0  0  0  0  0  0  0  0
   20.9290  -16.5015  -16.1383 C   0  0  0  0  0  0  0  0  0  0  0  0
   22.2433  -16.2530  -16.5423 C   0  0  0  0  0  0  0  0  0  0  0  0
   23.2924  -16.8556  -15.8820 C   0  0  0  0  0  0  0  0  0  0  0  0
   23.0448  -17.6973  -14.8304 C   0  0  0  0  0  0  0  0  0  0  0  0
   21.7491  -17.9748  -14.3920 C   0  0  0  0  0  0  0  0  0  0  0  0
   23.9121  -21.1725  -12.2857 C   0  0  0  0  0  0  0  0  0  0  0  0
   23.6662  -22.1427  -11.5228 O   0  0  0  0  0  0  0  0  0  0  0  0
   25.1825  -20.5731  -12.3000 N   0  0  0  0  0  0  0  0  0  0  0  0
   26.3248  -21.1811  -11.5118 C   0  0  1  0  0  0  0  0  0  0  0  0
   27.5586  -20.8509  -12.2784 C   0  0  0  0  0  0  0  0  0  0  0  0
   28.8579  -21.0931  -11.6557 C   0  0  0  0  0  0  0  0  0  0  0  0
   29.0347  -21.5111  -10.3171 C   0  0  0  0  0  0  0  0  0  0  0  0
   30.3483  -21.6186  -10.1391 N   0  0  0  0  0  0  0  0  0  0  0  0
   31.0043  -21.3003  -11.2621 C   0  0  0  0  0  0  0  0  0  0  0  0
   30.0775  -20.9896  -12.1530 N   0  0  0  0  0  0  0  0  0  0  0  0
   26.2029  -20.5285  -10.1861 C   0  0  0  0  0  0  0  0  0  0  0  0
   25.6775  -19.3545  -10.1182 O   0  0  0  0  0  0  0  0  0  0  0  0
   26.6005  -21.0555   -8.9404 N   0  0  0  0  0  0  0  0  0  0  0  0
   26.5106  -20.2845   -7.7062 C   0  0  1  0  0  0  0  0  0  0  0  0
   26.6318  -21.2512   -6.5237 C   0  0  0  0  0  0  0  0  0  0  0  0
   27.6720  -20.7778   -5.5589 C   0  0  0  0  0  0  0  0  0  0  0  0
   28.9629  -21.2260   -5.5626 C   0  0  0  0  0  0  0  0  0  0  0  0
   29.8688  -20.7287   -4.6202 C   0  0  0  0  0  0  0  0  0  0  0  0
   29.4814  -19.7892   -3.6820 C   0  0  0  0  0  0  0  0  0  0  0  0
   28.1886  -19.3349   -3.6720 C   0  0  0  0  0  0  0  0  0  0  0  0
   27.3208  -19.8385   -4.6064 C   0  0  0  0  0  0  0  0  0  0  0  0
   27.6071  -19.3006   -7.5831 C   0  0  0  0  0  0  0  0  0  0  0  0
   28.7690  -19.4926   -8.0221 O   0  0  0  0  0  0  0  0  0  0  0  0
   27.3254  -18.1066   -6.9478 O   0  0  0  0  0  0  0  0  0  0  0  0
  2  1  1  1
  3  2  1  0
  4  3  1  0
  5  4  2  0
  6  7  1  0
  6  5  1  0
  7 12  2  0
  8  7  1  0
  8  9  2  0
  9 10  1  0
 10 11  2  0
 12  4  1  0
 12 11  1  0
 13 14  2  0
 13  2  1  0
 15 13  1  0
 16 15  1  0
 16 17  1  6
 18 17  1  0
 19 18  2  0
 20 19  1  0
 21 20  1  0
 21 22  2  0
 22 18  1  0
 23 16  1  0
 24 23  2  0
 25 23  1  0
 26 34  1  0
 26 25  1  0
 26 27  1  1
 28 33  1  0
 28 27  1  0
 29 28  2  0
 30 31  2  0
 30 29  1  0
 31 32  1  0
 32 33  2  0
 34 36  1  0
 35 34  2  0
M  END
$$$$
