CIL.pdb
     RDKit          3D

 23 22  0  0  1  0  0  0  0  0999 V2000
    7.6494  -15.0446   20.0147 N   0  0  0  0  0  0  0  0  0  0  0  0
    6.9772  -15.3708   21.2360 C   0  0  1  0  0  0  0  0  0  0  0  0
    6.5698  -16.8414   21.2866 C   0  0  0  0  0  0  0  0  0  0  0  0
    5.1003  -17.0831   20.2494 S   0  0  0  0  0  0  0  0  0  0  0  0
    7.8110  -15.1057   22.4373 C   0  0  0  0  0  0  0  0  0  0  0  0
    9.0582  -15.2157   22.3118 O   0  0  0  0  0  0  0  0  0  0  0  0
    6.0339  -11.6526   26.2137 C   0  0  0  0  0  0  0  0  0  0  0  0
    6.9751  -12.3343   25.2343 C   0  0  0  0  0  0  0  0  0  0  0  0
    7.3760  -13.6480   25.8449 C   0  0  2  0  0  0  0  0  0  0  0  0
    8.3092  -13.4889   26.9980 C   0  0  0  0  0  0  0  0  0  0  0  0
    8.0161  -14.5784   24.8364 C   0  0  2  0  0  0  0  0  0  0  0  0
    7.1960  -14.7449   23.6622 N   0  0  0  0  0  0  0  0  0  0  0  0
    8.2896  -15.9153   25.4288 C   0  0  0  0  0  0  0  0  0  0  0  0
    7.4256  -16.8204   25.3321 O   0  0  0  0  0  0  0  0  0  0  0  0
   12.4192  -19.2164   25.0518 C   0  0  0  0  0  0  0  0  0  0  0  0
   11.0577  -19.1172   24.3365 C   0  0  2  0  0  0  0  0  0  0  0  0
   11.2932  -19.3275   22.8569 C   0  0  0  0  0  0  0  0  0  0  0  0
   10.4497  -17.7710   24.5614 C   0  0  0  0  0  0  0  0  0  0  0  0
   10.1413  -17.5418   26.0078 C   0  0  2  0  0  0  0  0  0  0  0  0
    9.4972  -16.2254   26.1090 N   0  0  0  0  0  0  0  0  0  0  0  0
   11.3009  -17.6227   26.9128 C   0  0  0  0  0  0  0  0  0  0  0  0
   12.2091  -16.6023   27.1409 O   0  0  0  0  0  0  0  0  0  0  0  0
   11.4779  -18.7289   27.5345 O   0  0  0  0  0  0  0  0  0  0  0  0
  2  1  1  6
  2  3  1  0
  4  3  1  0
  5  6  2  0
  5  2  1  0
  7  8  1  0
  8  9  1  0
  9 11  1  0
  9 10  1  1
 11 12  1  6
 12  5  1  0
 13 11  1  0
 13 20  1  0
 14 13  2  0
 16 15  1  1
 16 17  1  0
 18 16  1  0
 19 20  1  0
 19 18  1  6
 21 19  1  0
 22 21  1  0
 23 21  2  0
M  END
$$$$
