CIL.pdb
     RDKit          3D

 23 22  0  0  1  0  0  0  0  0999 V2000
    5.6842  -19.2247   23.6586 N   0  0  0  0  0  0  0  0  0  0  0  0
    6.2007  -18.5777   24.8268 C   0  0  1  0  0  0  0  0  0  0  0  0
    7.0944  -19.5071   25.6444 C   0  0  0  0  0  0  0  0  0  0  0  0
    7.4227  -18.7428   27.2573 S   0  0  0  0  0  0  0  0  0  0  0  0
    7.0037  -17.3693   24.5046 C   0  0  0  0  0  0  0  0  0  0  0  0
    7.7756  -17.4350   23.5130 O   0  0  0  0  0  0  0  0  0  0  0  0
    5.1399  -12.6455   26.5542 C   0  0  0  0  0  0  0  0  0  0  0  0
    5.5963  -13.6221   25.4828 C   0  0  0  0  0  0  0  0  0  0  0  0
    7.0828  -13.7854   25.6350 C   0  0  2  0  0  0  0  0  0  0  0  0
    7.8475  -12.5994   25.1506 C   0  0  0  0  0  0  0  0  0  0  0  0
    7.6018  -15.0143   24.9186 C   0  0  2  0  0  0  0  0  0  0  0  0
    6.8828  -16.2038   25.3019 N   0  0  0  0  0  0  0  0  0  0  0  0
    9.0519  -15.2211   25.1774 C   0  0  0  0  0  0  0  0  0  0  0  0
    9.8957  -14.5949   24.4910 O   0  0  0  0  0  0  0  0  0  0  0  0
   10.3420  -14.7785   30.0188 C   0  0  0  0  0  0  0  0  0  0  0  0
   11.1169  -14.8477   28.6884 C   0  0  2  0  0  0  0  0  0  0  0  0
   10.5345  -13.8081   27.7562 C   0  0  0  0  0  0  0  0  0  0  0  0
   10.9786  -16.2038   28.0768 C   0  0  0  0  0  0  0  0  0  0  0  0
   10.9508  -16.1325   26.5821 C   0  0  2  0  0  0  0  0  0  0  0  0
    9.5390  -16.1047   26.1769 N   0  0  0  0  0  0  0  0  0  0  0  0
   11.6668  -17.2201   25.8929 C   0  0  0  0  0  0  0  0  0  0  0  0
   11.0897  -18.1331   25.0261 O   0  0  0  0  0  0  0  0  0  0  0  0
   12.9236  -17.3242   26.1191 O   0  0  0  0  0  0  0  0  0  0  0  0
  2  1  1  6
  2  3  1  0
  4  3  1  0
  5  6  2  0
  5  2  1  0
  7  8  1  0
  8  9  1  0
  9 11  1  0
  9 10  1  6
 11 12  1  1
 12  5  1  0
 13 11  1  0
 13 20  1  0
 14 13  2  0
 16 15  1  1
 16 17  1  0
 18 16  1  0
 19 20  1  0
 19 18  1  1
 21 19  1  0
 22 21  1  0
 23 21  2  0
M  END
$$$$
