CIL.pdb
     RDKit          3D

 23 22  0  0  1  0  0  0  0  0999 V2000
   11.1829  -18.6134   19.3628 N   0  0  0  0  0  0  0  0  0  0  0  0
   10.2265  -18.4673   20.4183 C   0  0  1  0  0  0  0  0  0  0  0  0
   10.5288  -19.3946   21.5930 C   0  0  0  0  0  0  0  0  0  0  0  0
    9.9540  -21.0675   21.1879 S   0  0  0  0  0  0  0  0  0  0  0  0
   10.1733  -17.0827   20.9556 C   0  0  0  0  0  0  0  0  0  0  0  0
   11.2362  -16.4098   20.9275 O   0  0  0  0  0  0  0  0  0  0  0  0
    7.3069  -12.1870   20.0941 C   0  0  0  0  0  0  0  0  0  0  0  0
    8.1720  -12.8864   21.1297 C   0  0  0  0  0  0  0  0  0  0  0  0
    8.1145  -14.3591   20.8349 C   0  0  2  0  0  0  0  0  0  0  0  0
    6.7187  -14.8825   20.7729 C   0  0  0  0  0  0  0  0  0  0  0  0
    8.8877  -15.1779   21.8470 C   0  0  2  0  0  0  0  0  0  0  0  0
    8.9580  -16.5686   21.4727 N   0  0  0  0  0  0  0  0  0  0  0  0
    8.2865  -15.0721   23.2036 C   0  0  0  0  0  0  0  0  0  0  0  0
    7.1665  -15.5942   23.4235 O   0  0  0  0  0  0  0  0  0  0  0  0
    5.5588  -12.1644   26.7374 C   0  0  0  0  0  0  0  0  0  0  0  0
    6.9141  -12.8935   26.8203 C   0  0  2  0  0  0  0  0  0  0  0  0
    8.0077  -11.8490   26.7747 C   0  0  0  0  0  0  0  0  0  0  0  0
    7.0695  -13.8332   25.6691 C   0  0  0  0  0  0  0  0  0  0  0  0
    8.4233  -14.4710   25.6591 C   0  0  2  0  0  0  0  0  0  0  0  0
    8.9243  -14.4000   24.2799 N   0  0  0  0  0  0  0  0  0  0  0  0
    8.4625  -15.8580   26.1543 C   0  0  0  0  0  0  0  0  0  0  0  0
    8.6552  -16.9819   25.3683 O   0  0  0  0  0  0  0  0  0  0  0  0
    8.3038  -16.0309   27.4138 O   0  0  0  0  0  0  0  0  0  0  0  0
  2  1  1  6
  2  3  1  0
  4  3  1  0
  5  6  2  0
  5  2  1  0
  7  8  1  0
  8  9  1  0
  9 11  1  0
  9 10  1  1
 11 12  1  6
 12  5  1  0
 13 11  1  0
 13 20  1  0
 14 13  2  0
 16 15  1  6
 16 17  1  0
 18 16  1  0
 19 20  1  0
 19 18  1  6
 21 19  1  0
 22 21  1  0
 23 21  2  0
M  END
$$$$
