CIL.pdb
     RDKit          3D

 23 22  0  0  1  0  0  0  0  0999 V2000
    4.8069  -13.2046   26.4926 N   0  0  0  0  0  0  0  0  0  0  0  0
    6.0023  -12.7336   25.8608 C   0  0  1  0  0  0  0  0  0  0  0  0
    6.8988  -11.9722   26.8343 C   0  0  0  0  0  0  0  0  0  0  0  0
    8.3053  -11.2775   25.9218 S   0  0  0  0  0  0  0  0  0  0  0  0
    6.8174  -13.8344   25.2840 C   0  0  0  0  0  0  0  0  0  0  0  0
    6.8418  -14.9256   25.9102 O   0  0  0  0  0  0  0  0  0  0  0  0
    7.8974  -13.3900   19.9513 C   0  0  0  0  0  0  0  0  0  0  0  0
    7.3738  -13.9015   21.2833 C   0  0  0  0  0  0  0  0  0  0  0  0
    8.5405  -14.4985   22.0193 C   0  0  2  0  0  0  0  0  0  0  0  0
    9.0096  -15.7803   21.4170 C   0  0  0  0  0  0  0  0  0  0  0  0
    8.2332  -14.7415   23.4819 C   0  0  2  0  0  0  0  0  0  0  0  0
    7.5281  -13.6323   24.0747 N   0  0  0  0  0  0  0  0  0  0  0  0
    9.4738  -14.9982   24.2615 C   0  0  0  0  0  0  0  0  0  0  0  0
   10.4409  -14.2046   24.1594 O   0  0  0  0  0  0  0  0  0  0  0  0
   11.3270  -14.0102   27.6444 C   0  0  0  0  0  0  0  0  0  0  0  0
   10.1789  -15.0376   27.6840 C   0  0  2  0  0  0  0  0  0  0  0  0
    9.6701  -15.1120   29.1069 C   0  0  0  0  0  0  0  0  0  0  0  0
   10.6702  -16.3821   27.2560 C   0  0  0  0  0  0  0  0  0  0  0  0
   10.9002  -16.4385   25.7782 C   0  0  2  0  0  0  0  0  0  0  0  0
    9.6232  -16.1124   25.1294 N   0  0  0  0  0  0  0  0  0  0  0  0
   11.4236  -17.7214   25.2775 C   0  0  0  0  0  0  0  0  0  0  0  0
   10.7725  -18.5560   24.3845 O   0  0  0  0  0  0  0  0  0  0  0  0
   12.5732  -18.0885   25.7076 O   0  0  0  0  0  0  0  0  0  0  0  0
  2  1  1  1
  2  3  1  0
  4  3  1  0
  5  6  2  0
  5  2  1  0
  7  8  1  0
  8  9  1  0
  9 11  1  0
  9 10  1  6
 11 12  1  1
 12  5  1  0
 13 11  1  0
 13 20  1  0
 14 13  2  0
 16 15  1  1
 16 17  1  0
 18 16  1  0
 19 20  1  0
 19 18  1  1
 21 19  1  0
 22 21  1  0
 23 21  2  0
M  END
$$$$
