CIL.pdb
     RDKit          3D

 23 22  0  0  1  0  0  0  0  0999 V2000
    6.5195  -19.5409   21.0399 N   0  0  0  0  0  0  0  0  0  0  0  0
    6.3075  -18.4710   21.9675 C   0  0  1  0  0  0  0  0  0  0  0  0
    6.1700  -18.9790   23.4008 C   0  0  0  0  0  0  0  0  0  0  0  0
    4.6598  -19.9767   23.5315 S   0  0  0  0  0  0  0  0  0  0  0  0
    7.4130  -17.4778   21.9589 C   0  0  0  0  0  0  0  0  0  0  0  0
    8.5873  -17.9199   21.8647 O   0  0  0  0  0  0  0  0  0  0  0  0
    6.7522  -12.5585   19.6147 C   0  0  0  0  0  0  0  0  0  0  0  0
    7.3130  -13.9151   20.0088 C   0  0  0  0  0  0  0  0  0  0  0  0
    7.7637  -13.8108   21.4389 C   0  0  2  0  0  0  0  0  0  0  0  0
    8.8708  -12.8284   21.6262 C   0  0  0  0  0  0  0  0  0  0  0  0
    8.2085  -15.1453   21.9994 C   0  0  2  0  0  0  0  0  0  0  0  0
    7.1239  -16.0937   22.0547 N   0  0  0  0  0  0  0  0  0  0  0  0
    8.7898  -14.9953   23.3605 C   0  0  0  0  0  0  0  0  0  0  0  0
   10.0004  -14.6877   23.4829 O   0  0  0  0  0  0  0  0  0  0  0  0
    8.4349  -11.9648   26.3542 C   0  0  0  0  0  0  0  0  0  0  0  0
    7.2692  -12.9479   26.1314 C   0  0  2  0  0  0  0  0  0  0  0  0
    6.0456  -12.3821   26.8183 C   0  0  0  0  0  0  0  0  0  0  0  0
    7.5982  -14.2841   26.7132 C   0  0  0  0  0  0  0  0  0  0  0  0
    8.6131  -15.0090   25.8860 C   0  0  2  0  0  0  0  0  0  0  0  0
    8.0337  -15.1854   24.5476 N   0  0  0  0  0  0  0  0  0  0  0  0
    9.0549  -16.3030   26.4344 C   0  0  0  0  0  0  0  0  0  0  0  0
    9.8936  -16.4644   27.5246 O   0  0  0  0  0  0  0  0  0  0  0  0
    8.6258  -17.3596   25.8503 O   0  0  0  0  0  0  0  0  0  0  0  0
  2  1  1  6
  2  3  1  0
  4  3  1  0
  5  6  2  0
  5  2  1  0
  7  8  1  0
  8  9  1  0
  9 11  1  0
  9 10  1  6
 11 12  1  1
 12  5  1  0
 13 11  1  0
 13 20  1  0
 14 13  2  0
 16 15  1  1
 16 17  1  0
 18 16  1  0
 19 20  1  0
 19 18  1  1
 21 19  1  0
 22 21  1  0
 23 21  2  0
M  END
$$$$
