CIL.pdb
     RDKit          3D

 23 22  0  0  1  0  0  0  0  0999 V2000
    7.8830  -15.2328   17.1471 N   0  0  0  0  0  0  0  0  0  0  0  0
    8.4118  -14.5855   18.3096 C   0  0  1  0  0  0  0  0  0  0  0  0
    7.8773  -13.1635   18.4622 C   0  0  0  0  0  0  0  0  0  0  0  0
    8.5985  -12.4182   19.9515 S   0  0  0  0  0  0  0  0  0  0  0  0
    8.0902  -15.3116   19.5658 C   0  0  0  0  0  0  0  0  0  0  0  0
    6.8957  -15.6677   19.7387 O   0  0  0  0  0  0  0  0  0  0  0  0
   10.2534  -19.7352   21.0509 C   0  0  0  0  0  0  0  0  0  0  0  0
    9.3281  -18.5541   20.8084 C   0  0  0  0  0  0  0  0  0  0  0  0
    9.6051  -17.5442   21.8866 C   0  0  2  0  0  0  0  0  0  0  0  0
    9.3750  -18.0845   23.2581 C   0  0  0  0  0  0  0  0  0  0  0  0
    8.7769  -16.2873   21.7226 C   0  0  2  0  0  0  0  0  0  0  0  0
    9.1106  -15.5776   20.5126 N   0  0  0  0  0  0  0  0  0  0  0  0
    8.9453  -15.3714   22.8826 C   0  0  0  0  0  0  0  0  0  0  0  0
   10.0623  -14.8374   23.0888 O   0  0  0  0  0  0  0  0  0  0  0  0
    5.5020  -12.1423   26.8601 C   0  0  0  0  0  0  0  0  0  0  0  0
    6.8867  -12.7221   26.5110 C   0  0  2  0  0  0  0  0  0  0  0  0
    7.8378  -11.5635   26.3057 C   0  0  0  0  0  0  0  0  0  0  0  0
    6.8089  -13.5352   25.2600 C   0  0  0  0  0  0  0  0  0  0  0  0
    8.0965  -14.2471   24.9862 C   0  0  2  0  0  0  0  0  0  0  0  0
    7.8909  -15.0649   23.7832 N   0  0  0  0  0  0  0  0  0  0  0  0
    8.5993  -15.0749   26.0962 C   0  0  0  0  0  0  0  0  0  0  0  0
    9.6657  -14.7483   26.9173 O   0  0  0  0  0  0  0  0  0  0  0  0
    7.9978  -16.1853   26.3130 O   0  0  0  0  0  0  0  0  0  0  0  0
  2  1  1  6
  2  3  1  0
  4  3  1  0
  5  6  2  0
  5  2  1  0
  7  8  1  0
  8  9  1  0
  9 11  1  0
  9 10  1  1
 11 12  1  6
 12  5  1  0
 13 11  1  0
 13 20  1  0
 14 13  2  0
 16 15  1  6
 16 17  1  0
 18 16  1  0
 19 20  1  0
 19 18  1  1
 21 19  1  0
 22 21  1  0
 23 21  2  0
M  END
$$$$
