CIL.pdb
     RDKit          3D

 23 22  0  0  1  0  0  0  0  0999 V2000
    9.4060  -18.8326   19.1922 N   0  0  0  0  0  0  0  0  0  0  0  0
    8.4459  -18.3780   20.1522 C   0  0  1  0  0  0  0  0  0  0  0  0
    8.2346  -19.3946   21.2716 C   0  0  0  0  0  0  0  0  0  0  0  0
    6.9101  -20.5375   20.7890 S   0  0  0  0  0  0  0  0  0  0  0  0
    8.8394  -17.0962   20.7932 C   0  0  0  0  0  0  0  0  0  0  0  0
   10.0592  -16.9301   21.0539 O   0  0  0  0  0  0  0  0  0  0  0  0
    7.3514  -12.2971   19.1565 C   0  0  0  0  0  0  0  0  0  0  0  0
    8.1151  -13.4834   19.7217 C   0  0  0  0  0  0  0  0  0  0  0  0
    7.6481  -13.6786   21.1370 C   0  0  2  0  0  0  0  0  0  0  0  0
    7.9441  -12.5060   22.0107 C   0  0  0  0  0  0  0  0  0  0  0  0
    8.2487  -14.9137   21.7746 C   0  0  2  0  0  0  0  0  0  0  0  0
    7.8562  -16.1187   21.0869 N   0  0  0  0  0  0  0  0  0  0  0  0
    7.8633  -15.0268   23.2069 C   0  0  0  0  0  0  0  0  0  0  0  0
    6.6977  -15.3846   23.5048 O   0  0  0  0  0  0  0  0  0  0  0  0
    5.6814  -12.4521   27.0144 C   0  0  0  0  0  0  0  0  0  0  0  0
    7.0659  -13.1155   26.8794 C   0  0  2  0  0  0  0  0  0  0  0  0
    8.0624  -12.0403   26.5054 C   0  0  0  0  0  0  0  0  0  0  0  0
    7.0375  -14.1650   25.8164 C   0  0  0  0  0  0  0  0  0  0  0  0
    8.3626  -14.8476   25.6824 C   0  0  2  0  0  0  0  0  0  0  0  0
    8.7601  -14.7465   24.2718 N   0  0  0  0  0  0  0  0  0  0  0  0
    8.3886  -16.2512   26.1291 C   0  0  0  0  0  0  0  0  0  0  0  0
    9.1205  -16.7354   27.2005 O   0  0  0  0  0  0  0  0  0  0  0  0
    7.6754  -17.0856   25.4682 O   0  0  0  0  0  0  0  0  0  0  0  0
  2  1  1  6
  2  3  1  0
  4  3  1  0
  5  6  2  0
  5  2  1  0
  7  8  1  0
  8  9  1  0
  9 11  1  0
  9 10  1  1
 11 12  1  6
 12  5  1  0
 13 11  1  0
 13 20  1  0
 14 13  2  0
 16 15  1  6
 16 17  1  0
 18 16  1  0
 19 20  1  0
 19 18  1  6
 21 19  1  0
 22 21  1  0
 23 21  2  0
M  END
$$$$
