CIL.pdb
     RDKit          3D

 23 22  0  0  1  0  0  0  0  0999 V2000
    6.1404  -17.0378   19.4028 N   0  0  0  0  0  0  0  0  0  0  0  0
    7.1399  -16.4298   20.2283 C   0  0  1  0  0  0  0  0  0  0  0  0
    7.3569  -14.9612   19.8713 C   0  0  0  0  0  0  0  0  0  0  0  0
    8.7243  -14.3069   20.8690 S   0  0  0  0  0  0  0  0  0  0  0  0
    6.7993  -16.4835   21.6739 C   0  0  0  0  0  0  0  0  0  0  0  0
    5.6567  -16.0815   22.0145 O   0  0  0  0  0  0  0  0  0  0  0  0
    6.8802  -20.7838   24.4612 C   0  0  0  0  0  0  0  0  0  0  0  0
    6.6043  -19.4118   23.8683 C   0  0  0  0  0  0  0  0  0  0  0  0
    7.5182  -18.4381   24.5583 C   0  0  2  0  0  0  0  0  0  0  0  0
    7.2982  -18.3837   26.0329 C   0  0  0  0  0  0  0  0  0  0  0  0
    7.3871  -17.0354   24.0031 C   0  0  2  0  0  0  0  0  0  0  0  0
    7.7458  -16.9737   22.6079 N   0  0  0  0  0  0  0  0  0  0  0  0
    8.2279  -16.0709   24.7618 C   0  0  0  0  0  0  0  0  0  0  0  0
    9.4687  -16.0545   24.5738 O   0  0  0  0  0  0  0  0  0  0  0  0
    7.9115  -11.7552   25.0605 C   0  0  0  0  0  0  0  0  0  0  0  0
    6.9324  -12.5125   25.9787 C   0  0  2  0  0  0  0  0  0  0  0  0
    5.9746  -11.5024   26.5714 C   0  0  0  0  0  0  0  0  0  0  0  0
    7.6767  -13.2018   27.0756 C   0  0  0  0  0  0  0  0  0  0  0  0
    8.5415  -14.3024   26.5460 C   0  0  2  0  0  0  0  0  0  0  0  0
    7.6907  -15.1529   25.7030 N   0  0  0  0  0  0  0  0  0  0  0  0
    9.2241  -15.1079   27.5735 C   0  0  0  0  0  0  0  0  0  0  0  0
    8.9265  -16.4241   27.8849 O   0  0  0  0  0  0  0  0  0  0  0  0
   10.1668  -14.5384   28.2281 O   0  0  0  0  0  0  0  0  0  0  0  0
  2  1  1  6
  2  3  1  0
  4  3  1  0
  5  6  2  0
  5  2  1  0
  7  8  1  0
  8  9  1  0
  9 11  1  0
  9 10  1  1
 11 12  1  6
 12  5  1  0
 13 11  1  0
 13 20  1  0
 14 13  2  0
 16 15  1  6
 16 17  1  0
 18 16  1  0
 19 20  1  0
 19 18  1  1
 21 19  1  0
 22 21  1  0
 23 21  2  0
M  END
$$$$
