CIL.pdb
     RDKit          3D

 23 22  0  0  1  0  0  0  0  0999 V2000
   13.1709  -16.4795   19.9962 N   0  0  0  0  0  0  0  0  0  0  0  0
   12.0784  -17.1434   20.6409 C   0  0  1  0  0  0  0  0  0  0  0  0
   12.5371  -18.3812   21.4081 C   0  0  0  0  0  0  0  0  0  0  0  0
   13.3562  -19.5198   20.2566 S   0  0  0  0  0  0  0  0  0  0  0  0
   11.3661  -16.2678   21.6077 C   0  0  0  0  0  0  0  0  0  0  0  0
   12.0003  -15.2872   22.0764 O   0  0  0  0  0  0  0  0  0  0  0  0
    6.7575  -14.1686   20.4028 C   0  0  0  0  0  0  0  0  0  0  0  0
    8.1514  -14.4508   20.9386 C   0  0  0  0  0  0  0  0  0  0  0  0
    7.9873  -15.2170   22.2214 C   0  0  2  0  0  0  0  0  0  0  0  0
    7.2214  -14.4594   23.2535 C   0  0  0  0  0  0  0  0  0  0  0  0
    9.3166  -15.6284   22.8185 C   0  0  2  0  0  0  0  0  0  0  0  0
   10.0252  -16.5521   21.9679 N   0  0  0  0  0  0  0  0  0  0  0  0
    9.1408  -16.2445   24.1610 C   0  0  0  0  0  0  0  0  0  0  0  0
    9.0859  -17.4943   24.2628 O   0  0  0  0  0  0  0  0  0  0  0  0
   11.3067  -14.6015   28.2065 C   0  0  0  0  0  0  0  0  0  0  0  0
   10.0480  -14.0490   27.5094 C   0  0  2  0  0  0  0  0  0  0  0  0
    9.7120  -12.7170   28.1434 C   0  0  0  0  0  0  0  0  0  0  0  0
    8.9017  -14.9912   27.6841 C   0  0  0  0  0  0  0  0  0  0  0  0
    8.9445  -16.1010   26.6810 C   0  0  2  0  0  0  0  0  0  0  0  0
    9.0300  -15.4797   25.3525 N   0  0  0  0  0  0  0  0  0  0  0  0
    7.8113  -17.0404   26.7421 C   0  0  0  0  0  0  0  0  0  0  0  0
    7.7868  -18.2163   27.4734 O   0  0  0  0  0  0  0  0  0  0  0  0
    6.7687  -16.7396   26.0609 O   0  0  0  0  0  0  0  0  0  0  0  0
  2  1  1  1
  2  3  1  0
  4  3  1  0
  5  6  2  0
  5  2  1  0
  7  8  1  0
  8  9  1  0
  9 11  1  0
  9 10  1  1
 11 12  1  6
 12  5  1  0
 13 11  1  0
 13 20  1  0
 14 13  2  0
 16 15  1  1
 16 17  1  0
 18 16  1  0
 19 20  1  0
 19 18  1  1
 21 19  1  0
 22 21  1  0
 23 21  2  0
M  END
$$$$
