CIL.pdb
     RDKit          3D

 23 22  0  0  1  0  0  0  0  0999 V2000
   12.2422  -17.7507   19.1475 N   0  0  0  0  0  0  0  0  0  0  0  0
   10.9323  -17.7769   19.7250 C   0  0  1  0  0  0  0  0  0  0  0  0
   10.6706  -19.0756   20.4841 C   0  0  0  0  0  0  0  0  0  0  0  0
   11.8074  -19.1740   21.8953 S   0  0  0  0  0  0  0  0  0  0  0  0
   10.7036  -16.6591   20.6774 C   0  0  0  0  0  0  0  0  0  0  0  0
   11.6945  -15.9452   20.9803 O   0  0  0  0  0  0  0  0  0  0  0  0
    6.6465  -13.2086   20.0774 C   0  0  0  0  0  0  0  0  0  0  0  0
    8.0052  -13.8296   20.3575 C   0  0  0  0  0  0  0  0  0  0  0  0
    7.8984  -14.5591   21.6674 C   0  0  2  0  0  0  0  0  0  0  0  0
    7.5175  -13.6639   22.7985 C   0  0  0  0  0  0  0  0  0  0  0  0
    9.1828  -15.2724   22.0337 C   0  0  2  0  0  0  0  0  0  0  0  0
    9.4087  -16.4317   21.2065 N   0  0  0  0  0  0  0  0  0  0  0  0
    9.1835  -15.6896   23.4616 C   0  0  0  0  0  0  0  0  0  0  0  0
    8.5877  -16.7424   23.7961 O   0  0  0  0  0  0  0  0  0  0  0  0
    9.1584  -13.2523   28.9785 C   0  0  0  0  0  0  0  0  0  0  0  0
    9.7223  -14.4443   28.1807 C   0  0  2  0  0  0  0  0  0  0  0  0
   11.1301  -14.7065   28.6688 C   0  0  0  0  0  0  0  0  0  0  0  0
    9.7484  -14.1266   26.7210 C   0  0  0  0  0  0  0  0  0  0  0  0
    9.8254  -15.3684   25.8894 C   0  0  2  0  0  0  0  0  0  0  0  0
    9.8337  -14.9464   24.4823 N   0  0  0  0  0  0  0  0  0  0  0  0
    8.7517  -16.3477   26.1307 C   0  0  0  0  0  0  0  0  0  0  0  0
    7.4471  -16.2302   25.6810 O   0  0  0  0  0  0  0  0  0  0  0  0
    9.0560  -17.3887   26.8130 O   0  0  0  0  0  0  0  0  0  0  0  0
  2  1  1  1
  2  3  1  0
  4  3  1  0
  5  6  2  0
  5  2  1  0
  7  8  1  0
  8  9  1  0
  9 11  1  0
  9 10  1  1
 11 12  1  6
 12  5  1  0
 13 11  1  0
 13 20  1  0
 14 13  2  0
 16 15  1  1
 16 17  1  0
 18 16  1  0
 19 20  1  0
 19 18  1  1
 21 19  1  0
 22 21  1  0
 23 21  2  0
M  END
$$$$
