CIL.pdb
     RDKit          3D

 23 22  0  0  1  0  0  0  0  0999 V2000
    6.6126  -19.6567   20.9126 N   0  0  0  0  0  0  0  0  0  0  0  0
    6.4302  -18.6336   21.8975 C   0  0  1  0  0  0  0  0  0  0  0  0
    6.4589  -19.1973   23.3161 C   0  0  0  0  0  0  0  0  0  0  0  0
    5.5605  -18.0694   24.4180 S   0  0  0  0  0  0  0  0  0  0  0  0
    7.4722  -17.5764   21.8250 C   0  0  0  0  0  0  0  0  0  0  0  0
    8.6644  -17.9485   21.6710 O   0  0  0  0  0  0  0  0  0  0  0  0
    6.7207  -12.7409   19.4035 C   0  0  0  0  0  0  0  0  0  0  0  0
    7.3214  -14.0593   19.8626 C   0  0  0  0  0  0  0  0  0  0  0  0
    7.6680  -13.9067   21.3172 C   0  0  2  0  0  0  0  0  0  0  0  0
    8.7090  -12.8654   21.5576 C   0  0  0  0  0  0  0  0  0  0  0  0
    8.1402  -15.2063   21.9344 C   0  0  2  0  0  0  0  0  0  0  0  0
    7.1062  -16.2112   21.9287 N   0  0  0  0  0  0  0  0  0  0  0  0
    8.6105  -15.0043   23.3311 C   0  0  0  0  0  0  0  0  0  0  0  0
    9.8095  -14.6969   23.5390 O   0  0  0  0  0  0  0  0  0  0  0  0
    6.1213  -12.5856   25.4138 C   0  0  0  0  0  0  0  0  0  0  0  0
    6.7194  -13.1039   26.7362 C   0  0  2  0  0  0  0  0  0  0  0  0
    8.0147  -12.3620   26.9832 C   0  0  0  0  0  0  0  0  0  0  0  0
    6.9908  -14.5702   26.6441 C   0  0  0  0  0  0  0  0  0  0  0  0
    8.2121  -14.8530   25.8267 C   0  0  2  0  0  0  0  0  0  0  0  0
    7.7595  -15.1433   24.4596 N   0  0  0  0  0  0  0  0  0  0  0  0
    9.0628  -15.9435   26.3339 C   0  0  0  0  0  0  0  0  0  0  0  0
   10.1262  -15.7873   27.2072 O   0  0  0  0  0  0  0  0  0  0  0  0
    8.7921  -17.1288   25.9296 O   0  0  0  0  0  0  0  0  0  0  0  0
  2  1  1  6
  2  3  1  0
  4  3  1  0
  5  6  2  0
  5  2  1  0
  7  8  1  0
  8  9  1  0
  9 11  1  0
  9 10  1  6
 11 12  1  1
 12  5  1  0
 13 11  1  0
 13 20  1  0
 14 13  2  0
 16 15  1  6
 16 17  1  0
 18 16  1  0
 19 20  1  0
 19 18  1  1
 21 19  1  0
 22 21  1  0
 23 21  2  0
M  END
$$$$
