CIL.pdb
     RDKit          3D

 23 22  0  0  1  0  0  0  0  0999 V2000
   13.2242  -16.7339   20.3209 N   0  0  0  0  0  0  0  0  0  0  0  0
   11.9892  -17.2751   20.8025 C   0  0  1  0  0  0  0  0  0  0  0  0
   12.1981  -18.5841   21.5603 C   0  0  0  0  0  0  0  0  0  0  0  0
   12.5614  -19.9043   20.3693 S   0  0  0  0  0  0  0  0  0  0  0  0
   11.2759  -16.3476   21.7188 C   0  0  0  0  0  0  0  0  0  0  0  0
   11.9748  -15.6739   22.5195 O   0  0  0  0  0  0  0  0  0  0  0  0
    6.8901  -13.5114   20.0977 C   0  0  0  0  0  0  0  0  0  0  0  0
    8.2246  -13.9867   20.6482 C   0  0  0  0  0  0  0  0  0  0  0  0
    7.9371  -14.7535   21.9087 C   0  0  2  0  0  0  0  0  0  0  0  0
    7.2198  -13.9376   22.9312 C   0  0  0  0  0  0  0  0  0  0  0  0
    9.1946  -15.3132   22.5397 C   0  0  2  0  0  0  0  0  0  0  0  0
    9.8630  -16.2479   21.6687 N   0  0  0  0  0  0  0  0  0  0  0  0
    8.8996  -15.9843   23.8341 C   0  0  0  0  0  0  0  0  0  0  0  0
    8.5963  -17.2021   23.8417 O   0  0  0  0  0  0  0  0  0  0  0  0
   10.9804  -15.3032   28.1663 C   0  0  0  0  0  0  0  0  0  0  0  0
    9.9832  -14.2972   27.5591 C   0  0  2  0  0  0  0  0  0  0  0  0
    9.8947  -13.1093   28.4918 C   0  0  0  0  0  0  0  0  0  0  0  0
    8.6347  -14.9245   27.4162 C   0  0  0  0  0  0  0  0  0  0  0  0
    8.6276  -15.9759   26.3512 C   0  0  2  0  0  0  0  0  0  0  0  0
    8.9441  -15.3074   25.0819 N   0  0  0  0  0  0  0  0  0  0  0  0
    7.3723  -16.7385   26.2366 C   0  0  0  0  0  0  0  0  0  0  0  0
    6.3231  -16.4277   25.3878 O   0  0  0  0  0  0  0  0  0  0  0  0
    7.2477  -17.7701   26.9862 O   0  0  0  0  0  0  0  0  0  0  0  0
  2  1  1  1
  2  3  1  0
  4  3  1  0
  5  6  2  0
  5  2  1  0
  7  8  1  0
  8  9  1  0
  9 11  1  0
  9 10  1  1
 11 12  1  6
 12  5  1  0
 13 11  1  0
 13 20  1  0
 14 13  2  0
 16 15  1  1
 16 17  1  0
 18 16  1  0
 19 20  1  0
 19 18  1  1
 21 19  1  0
 22 21  1  0
 23 21  2  0
M  END
$$$$
