CIL.pdb
     RDKit          3D

 23 22  0  0  1  0  0  0  0  0999 V2000
    5.8999  -19.2488   21.0933 N   0  0  0  0  0  0  0  0  0  0  0  0
    5.9977  -18.2777   22.1409 C   0  0  1  0  0  0  0  0  0  0  0  0
    6.1064  -18.9325   23.5159 C   0  0  0  0  0  0  0  0  0  0  0  0
    5.8296  -17.6733   24.7931 S   0  0  0  0  0  0  0  0  0  0  0  0
    7.1757  -17.3850   21.9864 C   0  0  0  0  0  0  0  0  0  0  0  0
    8.2774  -17.9241   21.7054 O   0  0  0  0  0  0  0  0  0  0  0  0
    6.8829  -12.5466   19.5466 C   0  0  0  0  0  0  0  0  0  0  0  0
    7.3618  -13.9217   19.9820 C   0  0  0  0  0  0  0  0  0  0  0  0
    7.8363  -13.7973   21.4028 C   0  0  2  0  0  0  0  0  0  0  0  0
    9.0139  -12.8918   21.5420 C   0  0  0  0  0  0  0  0  0  0  0  0
    8.1902  -15.1387   22.0095 C   0  0  2  0  0  0  0  0  0  0  0  0
    7.0321  -15.9852   22.1553 N   0  0  0  0  0  0  0  0  0  0  0  0
    8.8425  -14.9786   23.3368 C   0  0  0  0  0  0  0  0  0  0  0  0
   10.0610  -14.6832   23.3929 O   0  0  0  0  0  0  0  0  0  0  0  0
    8.3529  -11.7381   26.0599 C   0  0  0  0  0  0  0  0  0  0  0  0
    7.2743  -12.8331   25.9469 C   0  0  2  0  0  0  0  0  0  0  0  0
    6.0094  -12.3083   26.5900 C   0  0  0  0  0  0  0  0  0  0  0  0
    7.7179  -14.0737   26.6515 C   0  0  0  0  0  0  0  0  0  0  0  0
    8.7504  -14.8152   25.8616 C   0  0  2  0  0  0  0  0  0  0  0  0
    8.1467  -15.1454   24.5637 N   0  0  0  0  0  0  0  0  0  0  0  0
    9.2798  -16.0272   26.5106 C   0  0  0  0  0  0  0  0  0  0  0  0
   10.1476  -16.0414   27.5898 O   0  0  0  0  0  0  0  0  0  0  0  0
    8.9040  -17.1548   26.0323 O   0  0  0  0  0  0  0  0  0  0  0  0
  2  1  1  6
  2  3  1  0
  4  3  1  0
  5  6  2  0
  5  2  1  0
  7  8  1  0
  8  9  1  0
  9 11  1  0
  9 10  1  6
 11 12  1  1
 12  5  1  0
 13 11  1  0
 13 20  1  0
 14 13  2  0
 16 15  1  1
 16 17  1  0
 18 16  1  0
 19 20  1  0
 19 18  1  1
 21 19  1  0
 22 21  1  0
 23 21  2  0
M  END
$$$$
