RYM.pdb
     RDKit          3D

 32 32  0  0  1  0  0  0  0  0999 V2000
    8.5735  -13.1126   20.0055 N   0  0  0  0  0  0  0  0  0  0  0  0
    8.3198  -13.5607   18.6651 C   0  0  0  0  0  0  0  0  0  0  0  0
    8.8372  -12.9625   17.6500 N   0  0  0  0  0  0  0  0  0  0  0  0
    7.4734  -14.6953   18.4725 N   0  0  0  0  0  0  0  0  0  0  0  0
    6.3563  -14.9607   19.3270 C   0  0  0  0  0  0  0  0  0  0  0  0
    6.6247  -15.9321   20.4057 C   0  0  0  0  0  0  0  0  0  0  0  0
    6.2720  -17.3582   20.2152 C   0  0  0  0  0  0  0  0  0  0  0  0
    5.4282  -18.0683   21.1782 C   0  0  2  0  0  0  0  0  0  0  0  0
    4.0022  -17.8806   21.0406 N   0  0  0  0  0  0  0  0  0  0  0  0
    5.8482  -17.8621   22.5970 C   0  0  0  0  0  0  0  0  0  0  0  0
    5.0823  -17.1133   23.2791 O   0  0  0  0  0  0  0  0  0  0  0  0
    8.6973  -13.2429   16.6664 O   0  0  0  0  0  0  0  0  0  0  0  0
    9.3792  -19.1651   30.5864 C   0  0  0  0  0  0  0  0  0  0  0  0
    9.1007  -19.2345   29.2132 C   0  0  0  0  0  0  0  0  0  0  0  0
   10.0701  -18.9910   28.2661 C   0  0  0  0  0  0  0  0  0  0  0  0
    9.7707  -19.0659   26.9150 C   0  0  0  0  0  0  0  0  0  0  0  0
    8.5093  -19.3822   26.4601 C   0  0  0  0  0  0  0  0  0  0  0  0
    8.1793  -19.4692   25.0190 C   0  0  2  0  0  0  0  0  0  0  0  0
    7.3092  -18.3246   24.5420 N   0  0  0  0  0  0  0  0  0  0  0  0
    7.0094  -18.4556   23.1401 C   0  0  0  0  0  0  0  0  0  0  0  0
    8.0686  -17.0547   24.7338 O   0  0  0  0  0  0  0  0  0  0  0  0
    8.9556  -16.7058   23.9115 C   0  0  0  0  0  0  0  0  0  0  0  0
    7.5371  -19.6260   27.4217 C   0  0  0  0  0  0  0  0  0  0  0  0
    7.8352  -19.5516   28.7727 C   0  0  0  0  0  0  0  0  0  0  0  0
    6.4186  -11.8707   28.1798 S   0  0  0  0  0  0  0  0  0  0  0  0
    5.5450  -12.3218   26.6541 C   0  0  0  0  0  0  0  0  0  0  0  0
    6.5636  -13.5270   25.7197 C   0  0  0  0  0  0  0  0  0  0  0  0
    7.6969  -13.9316   26.6051 C   0  0  2  0  0  0  0  0  0  0  0  0
    8.5798  -14.9844   25.9765 N   0  0  0  0  0  0  0  0  0  0  0  0
    7.8230  -16.2021   25.8384 C   0  0  0  0  0  0  0  0  0  0  0  0
    9.8457  -15.2087   26.7192 O   0  0  0  0  0  0  0  0  0  0  0  0
   10.1048  -16.2284   27.3914 O   0  0  0  0  0  0  0  0  0  0  0  0
  1  2  1  0
  2  3  2  0
  2  4  1  0
  4  5  1  0
  5  6  1  0
  7  8  1  0
  7  6  1  0
  8  9  1  1
  8 10  1  0
 10 11  2  0
 12 13  1  0
 13 23  2  0
 13 14  1  0
 14 15  2  0
 15 16  1  0
 16 17  1  0
 18 17  1  1
 18 20  1  0
 19 10  1  0
 19 18  1  0
 20 29  1  0
 21 20  2  0
 22 16  2  0
 23 22  1  0
 25 24  1  0
 26 25  1  0
 27 26  1  0
 28 30  1  0
 28 27  1  6
 29 28  1  0
 30 32  1  0
 31 30  2  0
M  END
$$$$
