RYM.pdb
     RDKit          3D

 32 32  0  0  1  0  0  0  0  0999 V2000
   13.0500  -20.9197   18.2986 N   0  0  0  0  0  0  0  0  0  0  0  0
   13.5201  -21.6490   19.4428 C   0  0  0  0  0  0  0  0  0  0  0  0
   14.7767  -21.8368   19.6471 N   0  0  0  0  0  0  0  0  0  0  0  0
   12.5596  -22.1699   20.3631 N   0  0  0  0  0  0  0  0  0  0  0  0
   11.1655  -21.8637   20.2572 C   0  0  0  0  0  0  0  0  0  0  0  0
   10.8705  -20.4826   19.8274 C   0  0  0  0  0  0  0  0  0  0  0  0
    9.4678  -20.0075   19.7921 C   0  0  0  0  0  0  0  0  0  0  0  0
    9.1375  -18.6411   19.3828 C   0  0  2  0  0  0  0  0  0  0  0  0
    9.4295  -18.2955   18.0106 N   0  0  0  0  0  0  0  0  0  0  0  0
    9.6749  -17.6001   20.3098 C   0  0  0  0  0  0  0  0  0  0  0  0
   10.8868  -17.2781   20.1091 O   0  0  0  0  0  0  0  0  0  0  0  0
   15.1709  -22.3975   20.4190 O   0  0  0  0  0  0  0  0  0  0  0  0
    6.8014  -11.9033   18.0335 C   0  0  0  0  0  0  0  0  0  0  0  0
    7.1900  -12.6662   19.1448 C   0  0  0  0  0  0  0  0  0  0  0  0
    6.4748  -13.7716   19.5481 C   0  0  0  0  0  0  0  0  0  0  0  0
    6.8788  -14.5097   20.6494 C   0  0  0  0  0  0  0  0  0  0  0  0
    7.9971  -14.1794   21.3830 C   0  0  0  0  0  0  0  0  0  0  0  0
    8.4404  -14.9634   22.5588 C   0  0  2  0  0  0  0  0  0  0  0  0
    9.4618  -16.0261   22.2094 N   0  0  0  0  0  0  0  0  0  0  0  0
    8.8943  -17.0167   21.3325 C   0  0  0  0  0  0  0  0  0  0  0  0
    9.8704  -16.7083   23.4717 O   0  0  0  0  0  0  0  0  0  0  0  0
   10.8146  -17.5410   23.4757 C   0  0  0  0  0  0  0  0  0  0  0  0
    8.7128  -13.0629   20.9699 C   0  0  0  0  0  0  0  0  0  0  0  0
    8.3101  -12.3244   19.8692 C   0  0  0  0  0  0  0  0  0  0  0  0
   10.8872  -13.0360   30.1482 S   0  0  0  0  0  0  0  0  0  0  0  0
    9.9815  -13.2828   28.5949 C   0  0  0  0  0  0  0  0  0  0  0  0
   10.4568  -14.9034   27.8802 C   0  0  0  0  0  0  0  0  0  0  0  0
    9.7032  -15.0625   26.6001 C   0  0  1  0  0  0  0  0  0  0  0  0
    9.9909  -16.3781   25.9148 N   0  0  0  0  0  0  0  0  0  0  0  0
    9.2172  -16.4478   24.7017 C   0  0  0  0  0  0  0  0  0  0  0  0
    9.7516  -17.5576   26.7842 O   0  0  0  0  0  0  0  0  0  0  0  0
    8.7246  -18.2670   26.7539 O   0  0  0  0  0  0  0  0  0  0  0  0
  1  2  1  0
  2  3  2  0
  2  4  1  0
  4  5  1  0
  5  6  1  0
  7  8  1  0
  7  6  1  0
  8  9  1  6
  8 10  1  0
 10 11  2  0
 12 13  1  0
 13 23  2  0
 13 14  1  0
 14 15  2  0
 15 16  1  0
 16 17  1  0
 18 17  1  6
 18 20  1  0
 19 10  1  0
 19 18  1  0
 20 29  1  0
 21 20  2  0
 22 16  2  0
 23 22  1  0
 25 24  1  0
 26 25  1  0
 27 26  1  0
 28 30  1  0
 28 27  1  6
 29 28  1  0
 30 32  1  0
 31 30  2  0
M  END
$$$$
