RYM.pdb
     RDKit          3D

 32 32  0  0  1  0  0  0  0  0999 V2000
    7.5995  -13.1363   17.2411 N   0  0  0  0  0  0  0  0  0  0  0  0
    8.8823  -13.4419   17.8093 C   0  0  0  0  0  0  0  0  0  0  0  0
    9.4225  -12.6778   18.6927 N   0  0  0  0  0  0  0  0  0  0  0  0
    9.5591  -14.6222   17.3737 N   0  0  0  0  0  0  0  0  0  0  0  0
    8.8649  -15.8528   17.1454 C   0  0  0  0  0  0  0  0  0  0  0  0
    9.6224  -17.0640   17.5172 C   0  0  0  0  0  0  0  0  0  0  0  0
   10.6854  -16.9794   18.5455 C   0  0  0  0  0  0  0  0  0  0  0  0
   10.5660  -17.6849   19.8229 C   0  0  2  0  0  0  0  0  0  0  0  0
    9.7172  -18.8541   19.8317 N   0  0  0  0  0  0  0  0  0  0  0  0
   10.2278  -16.7847   20.9660 C   0  0  0  0  0  0  0  0  0  0  0  0
   10.9804  -15.7693   21.0892 O   0  0  0  0  0  0  0  0  0  0  0  0
   10.3600  -12.8198   19.1008 O   0  0  0  0  0  0  0  0  0  0  0  0
    6.0913  -12.1616   27.1773 C   0  0  0  0  0  0  0  0  0  0  0  0
    6.4167  -13.0541   26.1450 C   0  0  0  0  0  0  0  0  0  0  0  0
    7.0665  -12.6351   25.0056 C   0  0  0  0  0  0  0  0  0  0  0  0
    7.3775  -13.5360   23.9994 C   0  0  0  0  0  0  0  0  0  0  0  0
    7.0571  -14.8730   24.0877 C   0  0  0  0  0  0  0  0  0  0  0  0
    7.3884  -15.8451   23.0207 C   0  0  2  0  0  0  0  0  0  0  0  0
    8.8703  -16.1481   22.9367 N   0  0  0  0  0  0  0  0  0  0  0  0
    9.1516  -17.0422   21.8441 C   0  0  0  0  0  0  0  0  0  0  0  0
    9.2769  -16.8252   24.2024 O   0  0  0  0  0  0  0  0  0  0  0  0
    9.1366  -18.0687   24.3398 C   0  0  0  0  0  0  0  0  0  0  0  0
    6.4015  -15.2875   25.2400 C   0  0  0  0  0  0  0  0  0  0  0  0
    6.0902  -14.3880   26.2466 C   0  0  0  0  0  0  0  0  0  0  0  0
    9.4554  -13.1688   29.1604 S   0  0  0  0  0  0  0  0  0  0  0  0
   10.9373  -13.4128   28.1414 C   0  0  0  0  0  0  0  0  0  0  0  0
   11.3190  -15.2050   28.0663 C   0  0  0  0  0  0  0  0  0  0  0  0
   10.0636  -15.9101   27.6682 C   0  0  2  0  0  0  0  0  0  0  0  0
   10.2556  -16.8081   26.4682 N   0  0  0  0  0  0  0  0  0  0  0  0
    9.8301  -16.1013   25.2874 C   0  0  0  0  0  0  0  0  0  0  0  0
    9.5681  -18.1175   26.5989 O   0  0  0  0  0  0  0  0  0  0  0  0
    8.3295  -18.2697   26.6398 O   0  0  0  0  0  0  0  0  0  0  0  0
  1  2  1  0
  2  3  2  0
  2  4  1  0
  4  5  1  0
  5  6  1  0
  7  8  1  0
  7  6  1  0
  8  9  1  6
  8 10  1  0
 10 11  2  0
 12 13  1  0
 13 23  2  0
 13 14  1  0
 14 15  2  0
 15 16  1  0
 16 17  1  0
 18 17  1  6
 18 20  1  0
 19 10  1  0
 19 18  1  0
 20 29  1  0
 21 20  2  0
 22 16  2  0
 23 22  1  0
 25 24  1  0
 26 25  1  0
 27 26  1  0
 28 30  1  0
 28 27  1  6
 29 28  1  0
 30 32  1  0
 31 30  2  0
M  END
$$$$
