RYM.pdb
     RDKit          3D

 32 32  0  0  1  0  0  0  0  0999 V2000
    6.2058  -23.5568   23.2426 N   0  0  0  0  0  0  0  0  0  0  0  0
    4.9628  -22.8548   23.3980 C   0  0  0  0  0  0  0  0  0  0  0  0
    3.8330  -23.4529   23.2499 N   0  0  0  0  0  0  0  0  0  0  0  0
    4.9993  -21.4643   23.7236 N   0  0  0  0  0  0  0  0  0  0  0  0
    4.6370  -20.4547   22.7761 C   0  0  0  0  0  0  0  0  0  0  0  0
    5.6991  -20.1075   21.8115 C   0  0  0  0  0  0  0  0  0  0  0  0
    6.1940  -18.7134   21.7331 C   0  0  0  0  0  0  0  0  0  0  0  0
    7.1915  -18.3151   20.7381 C   0  0  2  0  0  0  0  0  0  0  0  0
    7.7405  -19.3738   19.9226 N   0  0  0  0  0  0  0  0  0  0  0  0
    8.2857  -17.4698   21.3037 C   0  0  0  0  0  0  0  0  0  0  0  0
    9.4193  -18.0378   21.3747 O   0  0  0  0  0  0  0  0  0  0  0  0
    2.9137  -22.9834   23.2461 O   0  0  0  0  0  0  0  0  0  0  0  0
    7.2584  -12.8823   16.4851 C   0  0  0  0  0  0  0  0  0  0  0  0
    7.6831  -13.1247   17.7999 C   0  0  0  0  0  0  0  0  0  0  0  0
    9.0088  -13.3418   18.1026 C   0  0  0  0  0  0  0  0  0  0  0  0
    9.4041  -13.5790   19.4096 C   0  0  0  0  0  0  0  0  0  0  0  0
    8.5053  -13.6091   20.4533 C   0  0  0  0  0  0  0  0  0  0  0  0
    8.9171  -13.8574   21.8541 C   0  0  2  0  0  0  0  0  0  0  0  0
    9.1866  -15.3203   22.1402 N   0  0  0  0  0  0  0  0  0  0  0  0
    8.0764  -16.1385   21.7273 C   0  0  0  0  0  0  0  0  0  0  0  0
    9.3539  -15.4807   23.6140 O   0  0  0  0  0  0  0  0  0  0  0  0
   10.3154  -14.9337   24.2150 C   0  0  0  0  0  0  0  0  0  0  0  0
    7.1701  -13.3896   20.1396 C   0  0  0  0  0  0  0  0  0  0  0  0
    6.7737  -13.1522   18.8335 C   0  0  0  0  0  0  0  0  0  0  0  0
    6.1263  -11.6859   27.0956 S   0  0  0  0  0  0  0  0  0  0  0  0
    7.6388  -12.6755   27.2607 C   0  0  0  0  0  0  0  0  0  0  0  0
    7.4441  -14.2244   26.2982 C   0  0  0  0  0  0  0  0  0  0  0  0
    8.7315  -14.9754   26.4002 C   0  0  1  0  0  0  0  0  0  0  0  0
    8.6449  -16.3627   25.8075 N   0  0  0  0  0  0  0  0  0  0  0  0
    8.4463  -16.2477   24.3855 C   0  0  0  0  0  0  0  0  0  0  0  0
    7.5992  -17.2066   26.4390 O   0  0  0  0  0  0  0  0  0  0  0  0
    7.5962  -17.5578   27.6371 O   0  0  0  0  0  0  0  0  0  0  0  0
  1  2  1  0
  2  3  2  0
  2  4  1  0
  4  5  1  0
  5  6  1  0
  7  8  1  0
  7  6  1  0
  8  9  1  1
  8 10  1  0
 10 11  2  0
 12 13  1  0
 13 23  2  0
 13 14  1  0
 14 15  2  0
 15 16  1  0
 16 17  1  0
 18 17  1  6
 18 20  1  0
 19 10  1  0
 19 18  1  0
 20 29  1  0
 21 20  2  0
 22 16  2  0
 23 22  1  0
 25 24  1  0
 26 25  1  0
 27 26  1  0
 28 30  1  0
 28 27  1  6
 29 28  1  0
 30 32  1  0
 31 30  2  0
M  END
$$$$
