RYM.pdb
     RDKit          3D

 32 32  0  0  1  0  0  0  0  0999 V2000
    9.4914  -19.7997   14.5628 N   0  0  0  0  0  0  0  0  0  0  0  0
   10.8799  -19.8421   14.9267 C   0  0  0  0  0  0  0  0  0  0  0  0
   11.7461  -20.4482   14.1930 N   0  0  0  0  0  0  0  0  0  0  0  0
   11.2909  -19.1930   16.1311 N   0  0  0  0  0  0  0  0  0  0  0  0
   10.3472  -18.6305   17.0484 C   0  0  0  0  0  0  0  0  0  0  0  0
   10.2919  -17.1554   17.0462 C   0  0  0  0  0  0  0  0  0  0  0  0
   10.2913  -16.4179   18.3309 C   0  0  0  0  0  0  0  0  0  0  0  0
   10.0058  -17.0955   19.5970 C   0  0  2  0  0  0  0  0  0  0  0  0
    8.9382  -18.0688   19.5757 N   0  0  0  0  0  0  0  0  0  0  0  0
    9.8333  -16.1552   20.7450 C   0  0  0  0  0  0  0  0  0  0  0  0
   10.7374  -15.2701   20.8531 O   0  0  0  0  0  0  0  0  0  0  0  0
   12.7525  -20.5233   14.4096 O   0  0  0  0  0  0  0  0  0  0  0  0
    6.4079  -11.5740   27.5013 C   0  0  0  0  0  0  0  0  0  0  0  0
    6.6004  -12.3889   26.3758 C   0  0  0  0  0  0  0  0  0  0  0  0
    7.1668  -11.9015   25.2192 C   0  0  0  0  0  0  0  0  0  0  0  0
    7.3470  -12.7264   24.1202 C   0  0  0  0  0  0  0  0  0  0  0  0
    6.9744  -14.0528   24.1302 C   0  0  0  0  0  0  0  0  0  0  0  0
    7.1662  -14.9443   22.9633 C   0  0  1  0  0  0  0  0  0  0  0  0
    8.6183  -15.3062   22.7285 N   0  0  0  0  0  0  0  0  0  0  0  0
    8.7462  -16.2428   21.6428 C   0  0  0  0  0  0  0  0  0  0  0  0
    9.1380  -15.9602   23.9646 O   0  0  0  0  0  0  0  0  0  0  0  0
    9.0811  -17.2102   24.1030 C   0  0  0  0  0  0  0  0  0  0  0  0
    6.4036  -14.5365   25.3004 C   0  0  0  0  0  0  0  0  0  0  0  0
    6.2231  -13.7130   26.3998 C   0  0  0  0  0  0  0  0  0  0  0  0
   11.5210  -14.8133   31.3914 S   0  0  0  0  0  0  0  0  0  0  0  0
   11.1144  -14.1052   29.7705 C   0  0  0  0  0  0  0  0  0  0  0  0
   10.8766  -15.4695   28.5682 C   0  0  0  0  0  0  0  0  0  0  0  0
   10.4182  -14.8561   27.2854 C   0  0  1  0  0  0  0  0  0  0  0  0
   10.1727  -15.8826   26.2042 N   0  0  0  0  0  0  0  0  0  0  0  0
    9.7092  -15.2066   25.0197 C   0  0  0  0  0  0  0  0  0  0  0  0
    9.2395  -16.9603   26.6189 O   0  0  0  0  0  0  0  0  0  0  0  0
    7.9964  -16.9030   26.5176 O   0  0  0  0  0  0  0  0  0  0  0  0
  1  2  1  0
  2  3  2  0
  2  4  1  0
  4  5  1  0
  5  6  1  0
  7  8  1  0
  7  6  1  0
  8  9  1  6
  8 10  1  0
 10 11  2  0
 12 13  1  0
 13 23  2  0
 13 14  1  0
 14 15  2  0
 15 16  1  0
 16 17  1  0
 18 17  1  6
 18 20  1  0
 19 10  1  0
 19 18  1  0
 20 29  1  0
 21 20  2  0
 22 16  2  0
 23 22  1  0
 25 24  1  0
 26 25  1  0
 27 26  1  0
 28 30  1  0
 28 27  1  6
 29 28  1  0
 30 32  1  0
 31 30  2  0
M  END
$$$$
