RYM.pdb
     RDKit          3D

 32 32  0  0  1  0  0  0  0  0999 V2000
   12.2220  -19.6287   14.8190 N   0  0  0  0  0  0  0  0  0  0  0  0
   11.8548  -20.2968   16.0358 C   0  0  0  0  0  0  0  0  0  0  0  0
   10.7336  -20.9186   16.1461 N   0  0  0  0  0  0  0  0  0  0  0  0
   12.7645  -20.2606   17.1367 N   0  0  0  0  0  0  0  0  0  0  0  0
   13.0385  -19.0524   17.8534 C   0  0  0  0  0  0  0  0  0  0  0  0
   12.0413  -17.9818   17.6573 C   0  0  0  0  0  0  0  0  0  0  0  0
   11.5398  -17.2212   18.8255 C   0  0  0  0  0  0  0  0  0  0  0  0
   10.8736  -17.8941   19.9422 C   0  0  2  0  0  0  0  0  0  0  0  0
    9.6970  -18.6660   19.6146 N   0  0  0  0  0  0  0  0  0  0  0  0
   10.6000  -16.9893   21.0991 C   0  0  0  0  0  0  0  0  0  0  0  0
   11.6021  -16.3257   21.5090 O   0  0  0  0  0  0  0  0  0  0  0  0
   10.4199  -21.4229   16.9905 O   0  0  0  0  0  0  0  0  0  0  0  0
    6.6559  -11.9916   27.2198 C   0  0  0  0  0  0  0  0  0  0  0  0
    6.8923  -12.9108   26.1867 C   0  0  0  0  0  0  0  0  0  0  0  0
    6.5283  -14.2340   26.2995 C   0  0  0  0  0  0  0  0  0  0  0  0
    6.7722  -15.1232   25.2649 C   0  0  0  0  0  0  0  0  0  0  0  0
    7.3811  -14.7340   24.0920 C   0  0  0  0  0  0  0  0  0  0  0  0
    7.6428  -15.6746   22.9784 C   0  0  2  0  0  0  0  0  0  0  0  0
    9.1125  -16.0035   22.8158 N   0  0  0  0  0  0  0  0  0  0  0  0
    9.3228  -16.8790   21.6926 C   0  0  0  0  0  0  0  0  0  0  0  0
    9.5665  -16.7153   24.0459 O   0  0  0  0  0  0  0  0  0  0  0  0
    9.5061  -17.9705   24.1213 C   0  0  0  0  0  0  0  0  0  0  0  0
    7.7455  -13.3978   23.9862 C   0  0  0  0  0  0  0  0  0  0  0  0
    7.5021  -12.5078   25.0197 C   0  0  0  0  0  0  0  0  0  0  0  0
    9.1459  -12.6719   29.5849 S   0  0  0  0  0  0  0  0  0  0  0  0
   10.4499  -13.8596   29.1570 C   0  0  0  0  0  0  0  0  0  0  0  0
    9.8933  -14.8646   27.7276 C   0  0  0  0  0  0  0  0  0  0  0  0
   11.0192  -15.7749   27.3594 C   0  0  1  0  0  0  0  0  0  0  0  0
   10.6473  -16.7477   26.2646 N   0  0  0  0  0  0  0  0  0  0  0  0
   10.0770  -16.0124   25.1651 C   0  0  0  0  0  0  0  0  0  0  0  0
    9.7432  -17.8317   26.7247 O   0  0  0  0  0  0  0  0  0  0  0  0
    8.5422  -17.9415   26.4014 O   0  0  0  0  0  0  0  0  0  0  0  0
  1  2  1  0
  2  3  2  0
  2  4  1  0
  4  5  1  0
  5  6  1  0
  7  8  1  0
  7  6  1  0
  8  9  1  6
  8 10  1  0
 10 11  2  0
 12 13  1  0
 13 23  2  0
 13 14  1  0
 14 15  2  0
 15 16  1  0
 16 17  1  0
 18 17  1  6
 18 20  1  0
 19 10  1  0
 19 18  1  0
 20 29  1  0
 21 20  2  0
 22 16  2  0
 23 22  1  0
 25 24  1  0
 26 25  1  0
 27 26  1  0
 28 30  1  0
 28 27  1  6
 29 28  1  0
 30 32  1  0
 31 30  2  0
M  END
$$$$
