RYM.pdb
     RDKit          3D

 32 32  0  0  1  0  0  0  0  0999 V2000
    7.5693  -18.9481   15.0220 N   0  0  0  0  0  0  0  0  0  0  0  0
    8.9805  -18.9797   14.7581 C   0  0  0  0  0  0  0  0  0  0  0  0
    9.4539  -18.6517   13.6073 N   0  0  0  0  0  0  0  0  0  0  0  0
    9.8627  -19.3861   15.8056 N   0  0  0  0  0  0  0  0  0  0  0  0
    9.3754  -19.8544   17.0673 C   0  0  0  0  0  0  0  0  0  0  0  0
    9.0883  -18.7899   18.0488 C   0  0  0  0  0  0  0  0  0  0  0  0
   10.1249  -18.3969   19.0314 C   0  0  0  0  0  0  0  0  0  0  0  0
    9.8796  -18.4846   20.4722 C   0  0  2  0  0  0  0  0  0  0  0  0
    8.5772  -18.9658   20.8718 N   0  0  0  0  0  0  0  0  0  0  0  0
   10.2217  -17.2300   21.2075 C   0  0  0  0  0  0  0  0  0  0  0  0
   11.3894  -16.7817   20.9879 O   0  0  0  0  0  0  0  0  0  0  0  0
   10.4450  -18.7368   13.3319 O   0  0  0  0  0  0  0  0  0  0  0  0
    6.7059  -13.1125   17.3169 C   0  0  0  0  0  0  0  0  0  0  0  0
    7.1375  -13.4134   18.6173 C   0  0  0  0  0  0  0  0  0  0  0  0
    8.0743  -12.6394   19.2649 C   0  0  0  0  0  0  0  0  0  0  0  0
    8.4848  -12.9568   20.5501 C   0  0  0  0  0  0  0  0  0  0  0  0
    7.9844  -14.0444   21.2318 C   0  0  0  0  0  0  0  0  0  0  0  0
    8.4127  -14.3904   22.6067 C   0  0  2  0  0  0  0  0  0  0  0  0
    9.6250  -15.2982   22.6370 N   0  0  0  0  0  0  0  0  0  0  0  0
    9.3151  -16.5894   22.0811 C   0  0  0  0  0  0  0  0  0  0  0  0
   10.0217  -15.4934   24.0619 O   0  0  0  0  0  0  0  0  0  0  0  0
   10.9927  -14.8591   24.5514 C   0  0  0  0  0  0  0  0  0  0  0  0
    7.0402  -14.8202   20.5715 C   0  0  0  0  0  0  0  0  0  0  0  0
    6.6289  -14.5039   19.2869 C   0  0  0  0  0  0  0  0  0  0  0  0
    6.3021  -12.0929   27.1022 S   0  0  0  0  0  0  0  0  0  0  0  0
    7.8335  -12.9218   27.6142 C   0  0  0  0  0  0  0  0  0  0  0  0
    7.9687  -14.5217   26.7281 C   0  0  0  0  0  0  0  0  0  0  0  0
    9.3866  -14.9769   26.8472 C   0  0  1  0  0  0  0  0  0  0  0  0
    9.5935  -16.3798   26.3254 N   0  0  0  0  0  0  0  0  0  0  0  0
    9.3278  -16.3918   24.9097 C   0  0  0  0  0  0  0  0  0  0  0  0
    8.7848  -17.3979   27.0420 O   0  0  0  0  0  0  0  0  0  0  0  0
    7.8891  -18.0924   26.5182 O   0  0  0  0  0  0  0  0  0  0  0  0
  1  2  1  0
  2  3  2  0
  2  4  1  0
  4  5  1  0
  5  6  1  0
  7  8  1  0
  7  6  1  0
  8  9  1  6
  8 10  1  0
 10 11  2  0
 12 13  1  0
 13 23  2  0
 13 14  1  0
 14 15  2  0
 15 16  1  0
 16 17  1  0
 18 17  1  6
 18 20  1  0
 19 10  1  0
 19 18  1  0
 20 29  1  0
 21 20  2  0
 22 16  2  0
 23 22  1  0
 25 24  1  0
 26 25  1  0
 27 26  1  0
 28 30  1  0
 28 27  1  6
 29 28  1  0
 30 32  1  0
 31 30  2  0
M  END
$$$$
