RYM.pdb
     RDKit          3D

 32 32  0  0  1  0  0  0  0  0999 V2000
    7.6020  -15.7758   14.4766 N   0  0  0  0  0  0  0  0  0  0  0  0
    8.5157  -14.6815   14.6485 C   0  0  0  0  0  0  0  0  0  0  0  0
    8.1471  -13.4643   14.4519 N   0  0  0  0  0  0  0  0  0  0  0  0
    9.8576  -14.9676   15.0460 N   0  0  0  0  0  0  0  0  0  0  0  0
   10.1959  -16.1535   15.7725 C   0  0  0  0  0  0  0  0  0  0  0  0
    9.6465  -16.2136   17.1413 C   0  0  0  0  0  0  0  0  0  0  0  0
   10.4948  -15.8239   18.2916 C   0  0  0  0  0  0  0  0  0  0  0  0
   10.5824  -16.6603   19.4901 C   0  0  2  0  0  0  0  0  0  0  0  0
    9.8762  -17.9200   19.4447 N   0  0  0  0  0  0  0  0  0  0  0  0
   10.2587  -15.9246   20.7493 C   0  0  0  0  0  0  0  0  0  0  0  0
   11.0647  -14.9889   21.0455 O   0  0  0  0  0  0  0  0  0  0  0  0
    8.7589  -12.6393   14.5549 O   0  0  0  0  0  0  0  0  0  0  0  0
    6.1541  -11.7328   27.2317 C   0  0  0  0  0  0  0  0  0  0  0  0
    6.4522  -12.5770   26.1517 C   0  0  0  0  0  0  0  0  0  0  0  0
    6.1563  -13.9215   26.1825 C   0  0  0  0  0  0  0  0  0  0  0  0
    6.4604  -14.7355   25.1028 C   0  0  0  0  0  0  0  0  0  0  0  0
    7.0638  -14.2480   23.9643 C   0  0  0  0  0  0  0  0  0  0  0  0
    7.3893  -15.1076   22.8031 C   0  0  2  0  0  0  0  0  0  0  0  0
    8.8544  -15.4875   22.7414 N   0  0  0  0  0  0  0  0  0  0  0  0
    9.1402  -16.2444   21.5507 C   0  0  0  0  0  0  0  0  0  0  0  0
    9.1590  -16.3502   23.9198 O   0  0  0  0  0  0  0  0  0  0  0  0
    9.5114  -17.5489   23.7649 C   0  0  0  0  0  0  0  0  0  0  0  0
    7.3592  -12.8909   23.9413 C   0  0  0  0  0  0  0  0  0  0  0  0
    7.0557  -12.0762   25.0199 C   0  0  0  0  0  0  0  0  0  0  0  0
   10.3912  -14.0729   30.8292 S   0  0  0  0  0  0  0  0  0  0  0  0
   11.1328  -13.5439   29.2594 C   0  0  0  0  0  0  0  0  0  0  0  0
   11.2675  -14.9952   28.1463 C   0  0  0  0  0  0  0  0  0  0  0  0
   10.1820  -14.8752   27.1270 C   0  0  1  0  0  0  0  0  0  0  0  0
   10.1760  -16.0236   26.1449 N   0  0  0  0  0  0  0  0  0  0  0  0
    9.0635  -15.8583   25.2451 C   0  0  0  0  0  0  0  0  0  0  0  0
   10.1560  -17.3559   26.7998 O   0  0  0  0  0  0  0  0  0  0  0  0
   11.1638  -17.9480   27.2388 O   0  0  0  0  0  0  0  0  0  0  0  0
  1  2  1  0
  2  3  2  0
  2  4  1  0
  4  5  1  0
  5  6  1  0
  7  8  1  0
  7  6  1  0
  8  9  1  6
  8 10  1  0
 10 11  2  0
 12 13  1  0
 13 23  2  0
 13 14  1  0
 14 15  2  0
 15 16  1  0
 16 17  1  0
 18 17  1  6
 18 20  1  0
 19 10  1  0
 19 18  1  0
 20 29  1  0
 21 20  2  0
 22 16  2  0
 23 22  1  0
 25 24  1  0
 26 25  1  0
 27 26  1  0
 28 30  1  0
 28 27  1  6
 29 28  1  0
 30 32  1  0
 31 30  2  0
M  END
$$$$
