RYM.pdb
     RDKit          3D

 32 32  0  0  1  0  0  0  0  0999 V2000
    9.6805  -13.6057   17.3232 N   0  0  0  0  0  0  0  0  0  0  0  0
    8.2485  -13.4983   17.3135 C   0  0  0  0  0  0  0  0  0  0  0  0
    7.6585  -12.4559   16.8432 N   0  0  0  0  0  0  0  0  0  0  0  0
    7.4785  -14.5799   17.8406 N   0  0  0  0  0  0  0  0  0  0  0  0
    8.0658  -15.6041   18.6497 C   0  0  0  0  0  0  0  0  0  0  0  0
    8.6898  -16.7054   17.8901 C   0  0  0  0  0  0  0  0  0  0  0  0
   10.0147  -17.2243   18.3021 C   0  0  0  0  0  0  0  0  0  0  0  0
   10.1961  -17.9204   19.5773 C   0  0  2  0  0  0  0  0  0  0  0  0
    9.4318  -19.1330   19.7591 N   0  0  0  0  0  0  0  0  0  0  0  0
   10.0486  -17.0264   20.7650 C   0  0  0  0  0  0  0  0  0  0  0  0
   10.8172  -16.0156   20.7735 O   0  0  0  0  0  0  0  0  0  0  0  0
    6.6353  -12.3260   16.8023 O   0  0  0  0  0  0  0  0  0  0  0  0
    6.8882  -11.6690   26.7788 C   0  0  0  0  0  0  0  0  0  0  0  0
    7.0406  -12.7447   25.8913 C   0  0  0  0  0  0  0  0  0  0  0  0
    6.6195  -14.0148   26.2162 C   0  0  0  0  0  0  0  0  0  0  0  0
    6.7808  -15.0615   25.3223 C   0  0  0  0  0  0  0  0  0  0  0  0
    7.3609  -14.8861   24.0850 C   0  0  0  0  0  0  0  0  0  0  0  0
    7.5344  -15.9965   23.1204 C   0  0  2  0  0  0  0  0  0  0  0  0
    8.9866  -16.3688   22.9030 N   0  0  0  0  0  0  0  0  0  0  0  0
    9.1235  -17.2847   21.8009 C   0  0  0  0  0  0  0  0  0  0  0  0
    9.4785  -17.0528   24.1343 O   0  0  0  0  0  0  0  0  0  0  0  0
    8.8356  -18.0111   24.6375 C   0  0  0  0  0  0  0  0  0  0  0  0
    7.7832  -13.6022   23.7651 C   0  0  0  0  0  0  0  0  0  0  0  0
    7.6224  -12.5549   24.6577 C   0  0  0  0  0  0  0  0  0  0  0  0
   10.4230  -13.1532   30.1852 S   0  0  0  0  0  0  0  0  0  0  0  0
    9.5751  -13.9702   28.8041 C   0  0  0  0  0  0  0  0  0  0  0  0
   10.6870  -15.2435   28.0930 C   0  0  0  0  0  0  0  0  0  0  0  0
    9.9758  -15.8549   26.9302 C   0  0  2  0  0  0  0  0  0  0  0  0
   10.8243  -16.8661   26.1948 N   0  0  0  0  0  0  0  0  0  0  0  0
   10.6757  -16.6532   24.7780 C   0  0  0  0  0  0  0  0  0  0  0  0
   10.5225  -18.2702   26.5712 O   0  0  0  0  0  0  0  0  0  0  0  0
    9.7479  -19.0236   25.9456 O   0  0  0  0  0  0  0  0  0  0  0  0
  1  2  1  0
  2  3  2  0
  2  4  1  0
  4  5  1  0
  5  6  1  0
  7  8  1  0
  7  6  1  0
  8  9  1  1
  8 10  1  0
 10 11  2  0
 12 13  1  0
 13 23  2  0
 13 14  1  0
 14 15  2  0
 15 16  1  0
 16 17  1  0
 18 17  1  6
 18 20  1  0
 19 10  1  0
 19 18  1  0
 20 29  1  0
 21 20  2  0
 22 16  2  0
 23 22  1  0
 25 24  1  0
 26 25  1  0
 27 26  1  0
 28 30  1  0
 28 27  1  1
 29 28  1  0
 30 32  1  0
 31 30  2  0
M  END
$$$$
