RYM.pdb
     RDKit          3D

 32 32  0  0  1  0  0  0  0  0999 V2000
    7.6917  -13.4962   19.4362 N   0  0  0  0  0  0  0  0  0  0  0  0
    9.0731  -13.2355   19.7292 C   0  0  0  0  0  0  0  0  0  0  0  0
    9.5636  -12.0490   19.6423 N   0  0  0  0  0  0  0  0  0  0  0  0
    9.9058  -14.3271   20.1237 N   0  0  0  0  0  0  0  0  0  0  0  0
    9.4183  -15.6718   20.1748 C   0  0  0  0  0  0  0  0  0  0  0  0
   10.3877  -16.6579   20.6913 C   0  0  0  0  0  0  0  0  0  0  0  0
   11.3840  -16.2467   21.7076 C   0  0  0  0  0  0  0  0  0  0  0  0
   11.7935  -17.1532   22.7820 C   0  0  2  0  0  0  0  0  0  0  0  0
   12.2736  -18.4535   22.3743 N   0  0  0  0  0  0  0  0  0  0  0  0
   10.7712  -17.2887   23.8629 C   0  0  0  0  0  0  0  0  0  0  0  0
   10.2755  -18.4510   23.9889 O   0  0  0  0  0  0  0  0  0  0  0  0
   10.5441  -11.8001   19.8477 O   0  0  0  0  0  0  0  0  0  0  0  0
   12.8868  -17.9529   31.1006 C   0  0  0  0  0  0  0  0  0  0  0  0
   12.1295  -17.3558   30.0818 C   0  0  0  0  0  0  0  0  0  0  0  0
   10.8483  -17.7714   29.7956 C   0  0  0  0  0  0  0  0  0  0  0  0
   10.1198  -17.1656   28.7841 C   0  0  0  0  0  0  0  0  0  0  0  0
   10.6328  -16.1350   28.0274 C   0  0  0  0  0  0  0  0  0  0  0  0
    9.8618  -15.4776   26.9472 C   0  0  2  0  0  0  0  0  0  0  0  0
    9.5156  -16.4186   25.8117 N   0  0  0  0  0  0  0  0  0  0  0  0
   10.3849  -16.2061   24.6841 C   0  0  0  0  0  0  0  0  0  0  0  0
    8.1185  -16.1261   25.3777 O   0  0  0  0  0  0  0  0  0  0  0  0
    7.1879  -16.0413   26.2213 C   0  0  0  0  0  0  0  0  0  0  0  0
   11.9258  -15.7220   28.3222 C   0  0  0  0  0  0  0  0  0  0  0  0
   12.6551  -16.3266   29.3331 C   0  0  0  0  0  0  0  0  0  0  0  0
    5.7342  -11.7126   26.7633 S   0  0  0  0  0  0  0  0  0  0  0  0
    6.0959  -11.2660   25.0417 C   0  0  0  0  0  0  0  0  0  0  0  0
    5.8395  -12.7384   23.9789 C   0  0  0  0  0  0  0  0  0  0  0  0
    6.9100  -13.7234   24.3188 C   0  0  1  0  0  0  0  0  0  0  0  0
    6.6947  -15.0671   23.6621 N   0  0  0  0  0  0  0  0  0  0  0  0
    7.7892  -15.9353   24.0130 C   0  0  0  0  0  0  0  0  0  0  0  0
    6.5164  -14.9796   22.1908 O   0  0  0  0  0  0  0  0  0  0  0  0
    5.6341  -14.3054   21.6200 O   0  0  0  0  0  0  0  0  0  0  0  0
  1  2  1  0
  2  3  2  0
  2  4  1  0
  4  5  1  0
  5  6  1  0
  7  8  1  0
  7  6  1  0
  8  9  1  6
  8 10  1  0
 10 11  2  0
 12 13  1  0
 13 23  2  0
 13 14  1  0
 14 15  2  0
 15 16  1  0
 16 17  1  0
 18 17  1  1
 18 20  1  0
 19 10  1  0
 19 18  1  0
 20 29  1  0
 21 20  2  0
 22 16  2  0
 23 22  1  0
 25 24  1  0
 26 25  1  0
 27 26  1  0
 28 30  1  0
 28 27  1  1
 29 28  1  0
 30 32  1  0
 31 30  2  0
M  END
$$$$
