RYM.pdb
     RDKit          3D

 32 32  0  0  1  0  0  0  0  0999 V2000
    8.5237  -12.7976   14.5933 N   0  0  0  0  0  0  0  0  0  0  0  0
    8.8482  -14.0753   14.0239 C   0  0  0  0  0  0  0  0  0  0  0  0
    9.4468  -14.1699   12.8887 N   0  0  0  0  0  0  0  0  0  0  0  0
    8.4920  -15.2555   14.7457 N   0  0  0  0  0  0  0  0  0  0  0  0
    7.8649  -15.1971   16.0310 C   0  0  0  0  0  0  0  0  0  0  0  0
    8.4775  -16.0674   17.0539 C   0  0  0  0  0  0  0  0  0  0  0  0
    9.4087  -15.4882   18.0499 C   0  0  0  0  0  0  0  0  0  0  0  0
    9.9509  -16.2958   19.1441 C   0  0  2  0  0  0  0  0  0  0  0  0
    9.5092  -17.6701   19.2054 N   0  0  0  0  0  0  0  0  0  0  0  0
    9.8184  -15.6440   20.4818 C   0  0  0  0  0  0  0  0  0  0  0  0
   10.5102  -14.5901   20.6352 O   0  0  0  0  0  0  0  0  0  0  0  0
    9.6130  -15.0536   12.3819 O   0  0  0  0  0  0  0  0  0  0  0  0
    6.2628  -12.3759   27.8174 C   0  0  0  0  0  0  0  0  0  0  0  0
    6.5225  -13.0724   26.6277 C   0  0  0  0  0  0  0  0  0  0  0  0
    7.0308  -12.4389   25.5158 C   0  0  0  0  0  0  0  0  0  0  0  0
    7.2794  -13.1486   24.3516 C   0  0  0  0  0  0  0  0  0  0  0  0
    7.0340  -14.5005   24.2508 C   0  0  0  0  0  0  0  0  0  0  0  0
    7.2998  -15.2696   23.0133 C   0  0  2  0  0  0  0  0  0  0  0  0
    8.7778  -15.4208   22.7176 N   0  0  0  0  0  0  0  0  0  0  0  0
    8.9860  -16.1599   21.4999 C   0  0  0  0  0  0  0  0  0  0  0  0
    9.3972  -16.1907   23.8353 O   0  0  0  0  0  0  0  0  0  0  0  0
    9.8563  -17.3469   23.6423 C   0  0  0  0  0  0  0  0  0  0  0  0
    6.5210  -15.1320   25.3765 C   0  0  0  0  0  0  0  0  0  0  0  0
    6.2722  -14.4237   26.5409 C   0  0  0  0  0  0  0  0  0  0  0  0
    9.9625  -13.5592   29.5372 S   0  0  0  0  0  0  0  0  0  0  0  0
   11.3382  -14.7187   29.7763 C   0  0  0  0  0  0  0  0  0  0  0  0
   11.3782  -15.8927   28.3680 C   0  0  0  0  0  0  0  0  0  0  0  0
   10.4913  -15.3375   27.3017 C   0  0  1  0  0  0  0  0  0  0  0  0
   10.4364  -16.2166   26.0739 N   0  0  0  0  0  0  0  0  0  0  0  0
    9.4906  -15.6553   25.1437 C   0  0  0  0  0  0  0  0  0  0  0  0
   10.1247  -17.6353   26.3812 O   0  0  0  0  0  0  0  0  0  0  0  0
   10.9489  -18.4670   26.8145 O   0  0  0  0  0  0  0  0  0  0  0  0
  1  2  1  0
  2  3  2  0
  2  4  1  0
  4  5  1  0
  5  6  1  0
  7  8  1  0
  7  6  1  0
  8  9  1  1
  8 10  1  0
 10 11  2  0
 12 13  1  0
 13 23  2  0
 13 14  1  0
 14 15  2  0
 15 16  1  0
 16 17  1  0
 18 17  1  6
 18 20  1  0
 19 10  1  0
 19 18  1  0
 20 29  1  0
 21 20  2  0
 22 16  2  0
 23 22  1  0
 25 24  1  0
 26 25  1  0
 27 26  1  0
 28 30  1  0
 28 27  1  6
 29 28  1  0
 30 32  1  0
 31 30  2  0
M  END
$$$$
