GNG.pdb
     RDKit          3D

 17 16  0  0  1  0  0  0  0  0999 V2000
   17.7281  -10.3399  -13.9400 N   0  0  0  0  0  0  0  0  0  0  0  0
   17.3334   -9.8769  -15.2787 C   0  0  0  0  0  0  0  0  0  0  0  0
   18.2972   -8.8301  -15.6933 C   0  0  0  0  0  0  0  0  0  0  0  0
   19.5403   -9.0735  -15.6923 O   0  0  0  0  0  0  0  0  0  0  0  0
   16.1788   -5.9248  -18.9485 N   0  0  0  0  0  0  0  0  0  0  0  0
   17.5253   -6.2104  -18.5997 C   0  0  0  0  0  0  0  0  0  0  0  0
   18.1235   -7.0854  -19.2771 O   0  0  0  0  0  0  0  0  0  0  0  0
   18.2510   -5.5358  -17.4832 C   0  0  0  0  0  0  0  0  0  0  0  0
   18.8689   -6.6279  -16.6181 C   0  0  2  0  0  0  0  0  0  0  0  0
   17.8865   -7.5284  -16.1053 N   0  0  0  0  0  0  0  0  0  0  0  0
   19.5892   -6.0125  -15.4831 C   0  0  0  0  0  0  0  0  0  0  0  0
   18.9781   -5.4309  -14.5537 O   0  0  0  0  0  0  0  0  0  0  0  0
   21.0242   -6.0508  -15.3877 N   0  0  0  0  0  0  0  0  0  0  0  0
   21.7186   -5.4991  -14.2488 C   0  0  0  0  0  0  0  0  0  0  0  0
   21.7374   -6.4691  -13.1283 C   0  0  0  0  0  0  0  0  0  0  0  0
   21.1319   -7.5485  -13.2316 O   0  0  0  0  0  0  0  0  0  0  0  0
   22.4274   -6.1958  -11.9494 O   0  0  0  0  0  0  0  0  0  0  0  0
  1  2  1  0
  2  3  1  0
  3  4  2  0
  3 10  1  0
  6  7  2  0
  6  5  1  0
  9  8  1  1
  8  6  1  0
  9 11  1  0
 10  9  1  0
 11 12  2  0
 13 11  1  0
 13 14  1  0
 15 14  1  0
 15 17  1  0
 16 15  2  0
M  END
$$$$
