GNG.pdb
     RDKit          3D

 17 16  0  0  1  0  0  0  0  0999 V2000
   19.3452  -11.3596  -15.7678 N   0  0  0  0  0  0  0  0  0  0  0  0
   18.8934  -10.0802  -16.3346 C   0  0  0  0  0  0  0  0  0  0  0  0
   19.2944   -9.0068  -15.3947 C   0  0  0  0  0  0  0  0  0  0  0  0
   18.8505   -9.0015  -14.2083 O   0  0  0  0  0  0  0  0  0  0  0  0
   22.6473   -4.7381  -13.5534 N   0  0  0  0  0  0  0  0  0  0  0  0
   22.1152   -6.0185  -13.2476 C   0  0  0  0  0  0  0  0  0  0  0  0
   21.8063   -6.2436  -12.0492 O   0  0  0  0  0  0  0  0  0  0  0  0
   21.9124   -7.0936  -14.2632 C   0  0  0  0  0  0  0  0  0  0  0  0
   20.4940   -6.9474  -14.8017 C   0  0  2  0  0  0  0  0  0  0  0  0
   20.1786   -7.9519  -15.7664 N   0  0  0  0  0  0  0  0  0  0  0  0
   20.3372   -5.6182  -15.4297 C   0  0  0  0  0  0  0  0  0  0  0  0
   20.9094   -5.3287  -16.5087 O   0  0  0  0  0  0  0  0  0  0  0  0
   19.5212   -4.5928  -14.8362 N   0  0  0  0  0  0  0  0  0  0  0  0
   19.4003   -3.2850  -15.4354 C   0  0  0  0  0  0  0  0  0  0  0  0
   18.5408   -2.4078  -14.6058 C   0  0  0  0  0  0  0  0  0  0  0  0
   17.9653   -2.8684  -13.6062 O   0  0  0  0  0  0  0  0  0  0  0  0
   18.3627   -1.0633  -14.9237 O   0  0  0  0  0  0  0  0  0  0  0  0
  1  2  1  0
  2  3  1  0
  3  4  2  0
  3 10  1  0
  6  7  2  0
  6  5  1  0
  9  8  1  6
  8  6  1  0
  9 11  1  0
 10  9  1  0
 11 12  2  0
 13 11  1  0
 13 14  1  0
 15 14  1  0
 15 17  1  0
 16 15  2  0
M  END
$$$$
