GNG.pdb
     RDKit          3D

 17 16  0  0  1  0  0  0  0  0999 V2000
   25.7745  -22.5569  -11.6709 N   0  0  0  0  0  0  0  0  0  0  0  0
   24.9729  -21.3243  -11.6831 C   0  0  0  0  0  0  0  0  0  0  0  0
   24.4078  -21.1704  -13.0446 C   0  0  0  0  0  0  0  0  0  0  0  0
   24.9680  -21.7307  -14.0329 O   0  0  0  0  0  0  0  0  0  0  0  0
   21.0592  -22.3351  -12.5240 N   0  0  0  0  0  0  0  0  0  0  0  0
   20.8040  -21.3755  -13.5391 C   0  0  0  0  0  0  0  0  0  0  0  0
   19.8937  -20.5349  -13.3224 O   0  0  0  0  0  0  0  0  0  0  0  0
   21.5495  -21.3206  -14.8312 C   0  0  0  0  0  0  0  0  0  0  0  0
   22.7217  -20.3657  -14.6387 C   0  0  2  0  0  0  0  0  0  0  0  0
   23.2341  -20.4044  -13.3065 N   0  0  0  0  0  0  0  0  0  0  0  0
   22.2906  -18.9847  -14.9431 C   0  0  0  0  0  0  0  0  0  0  0  0
   21.7815  -18.2459  -14.0654 O   0  0  0  0  0  0  0  0  0  0  0  0
   22.4343  -18.4200  -16.2585 N   0  0  0  0  0  0  0  0  0  0  0  0
   22.0872  -17.0454  -16.5304 C   0  0  0  0  0  0  0  0  0  0  0  0
   20.6719  -16.9388  -16.9575 C   0  0  0  0  0  0  0  0  0  0  0  0
   19.9459  -17.9464  -16.9570 O   0  0  0  0  0  0  0  0  0  0  0  0
   20.1307  -15.7207  -17.3623 O   0  0  0  0  0  0  0  0  0  0  0  0
  1  2  1  0
  2  3  1  0
  3  4  2  0
  3 10  1  0
  6  7  2  0
  6  5  1  0
  9  8  1  1
  8  6  1  0
  9 11  1  0
 10  9  1  0
 11 12  2  0
 13 11  1  0
 13 14  1  0
 15 14  1  0
 15 17  1  0
 16 15  2  0
M  END
$$$$
