GNG.pdb
     RDKit          3D

 17 16  0  0  1  0  0  0  0  0999 V2000
   27.5182  -18.2563  -15.7686 N   0  0  0  0  0  0  0  0  0  0  0  0
   26.8405  -17.9352  -14.5038 C   0  0  0  0  0  0  0  0  0  0  0  0
   26.1884  -19.1740  -14.0173 C   0  0  0  0  0  0  0  0  0  0  0  0
   26.1026  -20.1868  -14.7734 O   0  0  0  0  0  0  0  0  0  0  0  0
   27.6046  -20.8396  -11.7518 N   0  0  0  0  0  0  0  0  0  0  0  0
   26.6563  -21.0282  -10.7118 C   0  0  0  0  0  0  0  0  0  0  0  0
   27.0994  -21.3422   -9.5772 O   0  0  0  0  0  0  0  0  0  0  0  0
   25.1830  -20.8781  -10.8992 C   0  0  0  0  0  0  0  0  0  0  0  0
   24.9479  -20.4870  -12.3534 C   0  0  2  0  0  0  0  0  0  0  0  0
   25.6388  -19.2884  -12.7068 N   0  0  0  0  0  0  0  0  0  0  0  0
   23.5012  -20.2887  -12.5853 C   0  0  0  0  0  0  0  0  0  0  0  0
   22.8971  -19.2794  -12.1474 O   0  0  0  0  0  0  0  0  0  0  0  0
   22.7161  -21.2412  -13.3243 N   0  0  0  0  0  0  0  0  0  0  0  0
   21.3161  -21.0156  -13.5945 C   0  0  0  0  0  0  0  0  0  0  0  0
   20.7675  -22.0977  -14.4459 C   0  0  0  0  0  0  0  0  0  0  0  0
   21.5163  -22.9922  -14.8719 O   0  0  0  0  0  0  0  0  0  0  0  0
   19.4162  -22.1359  -14.7818 O   0  0  0  0  0  0  0  0  0  0  0  0
  1  2  1  0
  2  3  1  0
  3  4  2  0
  3 10  1  0
  6  7  2  0
  6  5  1  0
  9  8  1  1
  8  6  1  0
  9 11  1  0
 10  9  1  0
 11 12  2  0
 13 11  1  0
 13 14  1  0
 15 14  1  0
 15 17  1  0
 16 15  2  0
M  END
$$$$
