GNG.pdb
     RDKit          3D

 17 16  0  0  1  0  0  0  0  0999 V2000
   21.3840  -19.6701  -14.6993 N   0  0  0  0  0  0  0  0  0  0  0  0
   22.8102  -19.6871  -15.0566 C   0  0  0  0  0  0  0  0  0  0  0  0
   23.2807  -18.2821  -15.0909 C   0  0  0  0  0  0  0  0  0  0  0  0
   22.6866  -17.3955  -14.4085 O   0  0  0  0  0  0  0  0  0  0  0  0
   26.7727  -17.1554  -13.5650 N   0  0  0  0  0  0  0  0  0  0  0  0
   26.9391  -17.2636  -14.9710 C   0  0  0  0  0  0  0  0  0  0  0  0
   27.6649  -18.1991  -15.3957 O   0  0  0  0  0  0  0  0  0  0  0  0
   26.3075  -16.3328  -15.9523 C   0  0  0  0  0  0  0  0  0  0  0  0
   24.7974  -16.4955  -15.8251 C   0  0  2  0  0  0  0  0  0  0  0  0
   24.3979  -17.8656  -15.8726 N   0  0  0  0  0  0  0  0  0  0  0  0
   24.1265  -15.7657  -16.9220 C   0  0  0  0  0  0  0  0  0  0  0  0
   24.4311  -15.9597  -18.1241 O   0  0  0  0  0  0  0  0  0  0  0  0
   23.0920  -14.7993  -16.6658 N   0  0  0  0  0  0  0  0  0  0  0  0
   22.4634  -14.0661  -17.7387 C   0  0  0  0  0  0  0  0  0  0  0  0
   21.5005  -13.0761  -17.2007 C   0  0  0  0  0  0  0  0  0  0  0  0
   20.8858  -13.3165  -16.1487 O   0  0  0  0  0  0  0  0  0  0  0  0
   21.2676  -11.8681  -17.8541 O   0  0  0  0  0  0  0  0  0  0  0  0
  1  2  1  0
  2  3  1  0
  3  4  2  0
  3 10  1  0
  6  7  2  0
  6  5  1  0
  9  8  1  6
  8  6  1  0
  9 11  1  0
 10  9  1  0
 11 12  2  0
 13 11  1  0
 13 14  1  0
 15 14  1  0
 15 17  1  0
 16 15  2  0
M  END
$$$$
