GNG.pdb
     RDKit          3D

 17 16  0  0  1  0  0  0  0  0999 V2000
   19.5568  -21.2343  -13.3714 N   0  0  0  0  0  0  0  0  0  0  0  0
   20.7535  -21.9517  -12.9072 C   0  0  0  0  0  0  0  0  0  0  0  0
   21.9146  -21.0474  -13.0826 C   0  0  0  0  0  0  0  0  0  0  0  0
   21.7389  -19.7959  -13.1686 O   0  0  0  0  0  0  0  0  0  0  0  0
   25.4678  -22.6066  -10.8627 N   0  0  0  0  0  0  0  0  0  0  0  0
   25.5632  -21.3242  -11.4649 C   0  0  0  0  0  0  0  0  0  0  0  0
   25.5619  -20.3260  -10.6996 O   0  0  0  0  0  0  0  0  0  0  0  0
   25.6592  -21.1081  -12.9389 C   0  0  0  0  0  0  0  0  0  0  0  0
   24.3053  -20.5912  -13.4109 C   0  0  2  0  0  0  0  0  0  0  0  0
   23.2553  -21.5260  -13.1605 N   0  0  0  0  0  0  0  0  0  0  0  0
   24.3597  -20.3138  -14.8621 C   0  0  0  0  0  0  0  0  0  0  0  0
   24.3149  -21.2376  -15.7106 O   0  0  0  0  0  0  0  0  0  0  0  0
   24.4653  -18.9728  -15.3724 N   0  0  0  0  0  0  0  0  0  0  0  0
   24.4727  -18.7048  -16.7908 C   0  0  0  0  0  0  0  0  0  0  0  0
   23.0888  -18.5715  -17.3044 C   0  0  0  0  0  0  0  0  0  0  0  0
   22.2116  -18.0503  -16.5965 O   0  0  0  0  0  0  0  0  0  0  0  0
   22.7459  -19.0207  -18.5776 O   0  0  0  0  0  0  0  0  0  0  0  0
  1  2  1  0
  2  3  1  0
  3  4  2  0
  3 10  1  0
  6  7  2  0
  6  5  1  0
  9  8  1  6
  8  6  1  0
  9 11  1  0
 10  9  1  0
 11 12  2  0
 13 11  1  0
 13 14  1  0
 15 14  1  0
 15 17  1  0
 16 15  2  0
M  END
$$$$
