GNG.pdb
     RDKit          3D

 17 16  0  0  1  0  0  0  0  0999 V2000
   17.3722  -11.2260  -11.5784 N   0  0  0  0  0  0  0  0  0  0  0  0
   16.1585  -11.0532  -10.7665 C   0  0  0  0  0  0  0  0  0  0  0  0
   15.8726   -9.6009  -10.6909 C   0  0  0  0  0  0  0  0  0  0  0  0
   15.3275   -9.0081  -11.6687 O   0  0  0  0  0  0  0  0  0  0  0  0
   13.5286   -6.3381   -6.7105 N   0  0  0  0  0  0  0  0  0  0  0  0
   14.1486   -7.0195   -7.7910 C   0  0  0  0  0  0  0  0  0  0  0  0
   13.4165   -7.7461   -8.5109 O   0  0  0  0  0  0  0  0  0  0  0  0
   15.6045   -6.9193   -8.1053 C   0  0  0  0  0  0  0  0  0  0  0  0
   15.7995   -7.4412   -9.5239 C   0  0  2  0  0  0  0  0  0  0  0  0
   16.1869   -8.8155   -9.5433 N   0  0  0  0  0  0  0  0  0  0  0  0
   16.8406   -6.6435  -10.2064 C   0  0  0  0  0  0  0  0  0  0  0  0
   18.0264   -6.6204   -9.7957 O   0  0  0  0  0  0  0  0  0  0  0  0
   16.5462   -5.8562  -11.3739 N   0  0  0  0  0  0  0  0  0  0  0  0
   17.5737   -5.1051  -12.0550 C   0  0  0  0  0  0  0  0  0  0  0  0
   17.0124   -4.4007  -13.2321 C   0  0  0  0  0  0  0  0  0  0  0  0
   16.6743   -5.0454  -14.2383 O   0  0  0  0  0  0  0  0  0  0  0  0
   16.8519   -3.0169  -13.2354 O   0  0  0  0  0  0  0  0  0  0  0  0
  1  2  1  0
  2  3  1  0
  3  4  2  0
  3 10  1  0
  6  7  2  0
  6  5  1  0
  9  8  1  1
  8  6  1  0
  9 11  1  0
 10  9  1  0
 11 12  2  0
 13 11  1  0
 13 14  1  0
 15 14  1  0
 15 17  1  0
 16 15  2  0
M  END
$$$$
