GNG.pdb
     RDKit          3D

 17 16  0  0  1  0  0  0  0  0999 V2000
   18.0976  -22.7148  -10.9221 N   0  0  0  0  0  0  0  0  0  0  0  0
   18.9778  -23.1944  -11.9979 C   0  0  0  0  0  0  0  0  0  0  0  0
   19.6810  -22.0172  -12.5603 C   0  0  0  0  0  0  0  0  0  0  0  0
   19.1516  -20.8683  -12.4938 O   0  0  0  0  0  0  0  0  0  0  0  0
   22.6285  -18.6588  -14.8474 N   0  0  0  0  0  0  0  0  0  0  0  0
   23.4977  -19.6552  -14.3298 C   0  0  0  0  0  0  0  0  0  0  0  0
   24.7253  -19.3841  -14.2870 O   0  0  0  0  0  0  0  0  0  0  0  0
   23.0319  -20.9884  -13.8462 C   0  0  0  0  0  0  0  0  0  0  0  0
   21.5088  -20.9499  -13.8057 C   0  0  2  0  0  0  0  0  0  0  0  0
   20.9573  -22.1133  -13.1884 N   0  0  0  0  0  0  0  0  0  0  0  0
   20.9793  -20.8449  -15.1821 C   0  0  0  0  0  0  0  0  0  0  0  0
   20.8908  -21.8481  -15.9312 O   0  0  0  0  0  0  0  0  0  0  0  0
   20.5390  -19.5894  -15.7295 N   0  0  0  0  0  0  0  0  0  0  0  0
   19.1695  -19.1510  -15.6027 C   0  0  0  0  0  0  0  0  0  0  0  0
   18.2685  -20.0144  -16.4023 C   0  0  0  0  0  0  0  0  0  0  0  0
   18.1190  -21.2084  -16.0949 O   0  0  0  0  0  0  0  0  0  0  0  0
   17.5766  -19.5118  -17.5019 O   0  0  0  0  0  0  0  0  0  0  0  0
  1  2  1  0
  2  3  1  0
  3  4  2  0
  3 10  1  0
  6  7  2  0
  6  5  1  0
  9  8  1  6
  8  6  1  0
  9 11  1  0
 10  9  1  0
 11 12  2  0
 13 11  1  0
 13 14  1  0
 15 14  1  0
 15 17  1  0
 16 15  2  0
M  END
$$$$
