GNG.pdb
     RDKit          3D

 17 16  0  0  1  0  0  0  0  0999 V2000
   19.3799  -13.3290  -16.2364 N   0  0  0  0  0  0  0  0  0  0  0  0
   20.3652  -12.7519  -17.1628 C   0  0  0  0  0  0  0  0  0  0  0  0
   21.2954  -11.9178  -16.3656 C   0  0  0  0  0  0  0  0  0  0  0  0
   21.1970  -11.8844  -15.1031 O   0  0  0  0  0  0  0  0  0  0  0  0
   26.8354   -9.9149  -15.2401 N   0  0  0  0  0  0  0  0  0  0  0  0
   25.4265  -10.0898  -15.2119 C   0  0  0  0  0  0  0  0  0  0  0  0
   24.8126   -9.6647  -14.1996 O   0  0  0  0  0  0  0  0  0  0  0  0
   24.6529  -10.7470  -16.3064 C   0  0  0  0  0  0  0  0  0  0  0  0
   23.1879  -10.3728  -16.1147 C   0  0  2  0  0  0  0  0  0  0  0  0
   22.3236  -11.1305  -16.9620 N   0  0  0  0  0  0  0  0  0  0  0  0
   23.0014   -8.9356  -16.4075 C   0  0  0  0  0  0  0  0  0  0  0  0
   23.6038   -8.3735  -17.3544 O   0  0  0  0  0  0  0  0  0  0  0  0
   22.1206   -8.1120  -15.6230 N   0  0  0  0  0  0  0  0  0  0  0  0
   21.9669   -6.7024  -15.8937 C   0  0  0  0  0  0  0  0  0  0  0  0
   21.0962   -6.0670  -14.8763 C   0  0  0  0  0  0  0  0  0  0  0  0
   20.5290   -6.7663  -14.0209 O   0  0  0  0  0  0  0  0  0  0  0  0
   20.8985   -4.6883  -14.8561 O   0  0  0  0  0  0  0  0  0  0  0  0
  1  2  1  0
  2  3  1  0
  3  4  2  0
  3 10  1  0
  6  7  2  0
  6  5  1  0
  9  8  1  6
  8  6  1  0
  9 11  1  0
 10  9  1  0
 11 12  2  0
 13 11  1  0
 13 14  1  0
 15 14  1  0
 15 17  1  0
 16 15  2  0
M  END
$$$$
