GNG.pdb
     RDKit          3D

 17 16  0  0  1  0  0  0  0  0999 V2000
   18.2876  -11.8394  -16.6607 N   0  0  0  0  0  0  0  0  0  0  0  0
   19.1144  -11.5099  -15.4902 C   0  0  0  0  0  0  0  0  0  0  0  0
   18.9922  -10.0524  -15.2509 C   0  0  0  0  0  0  0  0  0  0  0  0
   19.3702   -9.2285  -16.1358 O   0  0  0  0  0  0  0  0  0  0  0  0
   15.9938   -8.1522  -15.3366 N   0  0  0  0  0  0  0  0  0  0  0  0
   15.9364   -7.7604  -13.9730 C   0  0  0  0  0  0  0  0  0  0  0  0
   14.8087   -7.4537  -13.5079 O   0  0  0  0  0  0  0  0  0  0  0  0
   17.1318   -7.6923  -13.0814 C   0  0  0  0  0  0  0  0  0  0  0  0
   18.3426   -8.0974  -13.9137 C   0  0  2  0  0  0  0  0  0  0  0  0
   18.4560   -9.5149  -14.0441 N   0  0  0  0  0  0  0  0  0  0  0  0
   19.5741   -7.5773  -13.2824 C   0  0  0  0  0  0  0  0  0  0  0  0
   20.0479   -8.0934  -12.2409 O   0  0  0  0  0  0  0  0  0  0  0  0
   20.2898   -6.4562  -13.8306 N   0  0  0  0  0  0  0  0  0  0  0  0
   21.5043   -5.9673  -13.2227 C   0  0  0  0  0  0  0  0  0  0  0  0
   22.1220   -4.9143  -14.0632 C   0  0  0  0  0  0  0  0  0  0  0  0
   21.6293   -4.6338  -15.1682 O   0  0  0  0  0  0  0  0  0  0  0  0
   23.2538   -4.2231  -13.6370 O   0  0  0  0  0  0  0  0  0  0  0  0
  1  2  1  0
  2  3  1  0
  3  4  2  0
  3 10  1  0
  6  7  2  0
  6  5  1  0
  9  8  1  1
  8  6  1  0
  9 11  1  0
 10  9  1  0
 11 12  2  0
 13 11  1  0
 13 14  1  0
 15 14  1  0
 15 17  1  0
 16 15  2  0
M  END
$$$$
