GNG.pdb
     RDKit          3D

 17 16  0  0  1  0  0  0  0  0999 V2000
   21.0230  -11.5901  -17.2444 N   0  0  0  0  0  0  0  0  0  0  0  0
   21.2510  -11.0333  -18.5861 C   0  0  0  0  0  0  0  0  0  0  0  0
   21.2221   -9.5561  -18.4694 C   0  0  0  0  0  0  0  0  0  0  0  0
   21.3839   -8.8335  -19.4972 O   0  0  0  0  0  0  0  0  0  0  0  0
   18.9232   -7.5260  -15.1254 N   0  0  0  0  0  0  0  0  0  0  0  0
   18.6152   -7.4941  -16.5111 C   0  0  0  0  0  0  0  0  0  0  0  0
   17.4972   -7.9498  -16.8643 O   0  0  0  0  0  0  0  0  0  0  0  0
   19.5416   -6.9581  -17.5518 C   0  0  0  0  0  0  0  0  0  0  0  0
   20.9405   -7.4622  -17.2172 C   0  0  2  0  0  0  0  0  0  0  0  0
   21.0152   -8.8882  -17.2269 N   0  0  0  0  0  0  0  0  0  0  0  0
   21.3361   -6.9738  -15.8790 C   0  0  0  0  0  0  0  0  0  0  0  0
   21.0785   -7.6261  -14.8380 O   0  0  0  0  0  0  0  0  0  0  0  0
   22.0358   -5.7290  -15.7045 N   0  0  0  0  0  0  0  0  0  0  0  0
   22.5441   -5.3246  -14.4153 C   0  0  0  0  0  0  0  0  0  0  0  0
   21.5590   -4.4709  -13.7099 C   0  0  0  0  0  0  0  0  0  0  0  0
   20.5177   -4.9714  -13.2543 O   0  0  0  0  0  0  0  0  0  0  0  0
   21.7773   -3.1053  -13.5427 O   0  0  0  0  0  0  0  0  0  0  0  0
  1  2  1  0
  2  3  1  0
  3  4  2  0
  3 10  1  0
  6  7  2  0
  6  5  1  0
  9  8  1  1
  8  6  1  0
  9 11  1  0
 10  9  1  0
 11 12  2  0
 13 11  1  0
 13 14  1  0
 15 14  1  0
 15 17  1  0
 16 15  2  0
M  END
$$$$
