YKQ.pdb
     RDKit          3D

 31 31  0  0  1  0  0  0  0  0999 V2000
   19.2309  -13.9054  -19.5466 O   0  0  0  0  0  0  0  0  0  0  0  0
   19.6844  -15.0845  -18.9827 C   0  0  0  0  0  0  0  0  0  0  0  0
   19.1649  -15.5530  -17.8006 C   0  0  0  0  0  0  0  0  0  0  0  0
   19.6279  -16.7447  -17.2371 C   0  0  0  0  0  0  0  0  0  0  0  0
   20.6178  -17.4878  -17.8460 C   0  0  0  0  0  0  0  0  0  0  0  0
   21.1040  -18.7388  -17.2548 C   0  0  0  0  0  0  0  0  0  0  0  0
   22.4028  -18.5683  -16.4945 C   0  0  2  0  0  0  0  0  0  0  0  0
   23.4598  -18.4056  -17.4907 N   0  0  0  0  0  0  0  0  0  0  0  0
   22.6006  -19.8329  -15.7360 C   0  0  0  0  0  0  0  0  0  0  0  0
   23.7014  -20.4210  -15.8784 O   0  0  0  0  0  0  0  0  0  0  0  0
   21.1237  -16.9967  -19.0322 C   0  0  0  0  0  0  0  0  0  0  0  0
   20.6743  -15.8192  -19.6001 C   0  0  0  0  0  0  0  0  0  0  0  0
   21.6301  -20.4039  -14.8732 N   0  0  0  0  0  0  0  0  0  0  0  0
   21.8722  -20.7334  -13.4929 C   0  0  1  0  0  0  0  0  0  0  0  0
   22.2202  -19.4784  -12.7243 C   0  0  0  0  0  0  0  0  0  0  0  0
   22.6637  -19.8269  -11.3190 C   0  0  0  0  0  0  0  0  0  0  0  0
   24.1577  -20.1520  -11.2965 C   0  0  0  0  0  0  0  0  0  0  0  0
   24.5824  -20.3526   -9.8392 C   0  0  0  0  0  0  0  0  0  0  0  0
   25.9977  -20.5985   -9.7431 N   0  0  0  0  0  0  0  0  0  0  0  0
   20.7172  -21.4073  -12.8543 C   0  0  0  0  0  0  0  0  0  0  0  0
   19.6689  -20.7401  -12.6593 O   0  0  0  0  0  0  0  0  0  0  0  0
   20.1672  -27.5397  -11.4757 N   0  0  0  0  0  0  0  0  0  0  0  0
   20.4335  -27.0163  -12.7481 C   0  0  0  0  0  0  0  0  0  0  0  0
   20.8365  -27.7383  -13.6682 O   0  0  0  0  0  0  0  0  0  0  0  0
   20.2280  -25.5610  -13.0011 C   0  0  0  0  0  0  0  0  0  0  0  0
   19.6808  -24.8648  -11.7906 C   0  0  0  0  0  0  0  0  0  0  0  0
   19.4542  -23.4175  -12.0565 C   0  0  2  0  0  0  0  0  0  0  0  0
   20.7186  -22.7646  -12.4466 N   0  0  0  0  0  0  0  0  0  0  0  0
   18.9439  -22.7115  -10.8902 C   0  0  0  0  0  0  0  0  0  0  0  0
   19.7962  -21.8269  -10.1981 O   0  0  0  0  0  0  0  0  0  0  0  0
   17.7737  -22.8616  -10.4785 O   0  0  0  0  0  0  0  0  0  0  0  0
  2  1  1  0
  3  2  2  0
  4  3  1  0
  5  4  2  0
  5 11  1  0
  6  5  1  0
  7  9  1  0
  7  6  1  0
  7  8  1  6
  9 10  2  0
 11 12  2  0
 12  2  1  0
 13 14  1  0
 13  9  1  0
 14 20  1  0
 14 15  1  1
 16 15  1  0
 17 16  1  0
 18 17  1  0
 19 18  1  0
 20 21  2  0
 20 28  1  0
 22 23  1  0
 23 24  2  0
 23 25  1  0
 25 26  1  0
 27 26  1  1
 27 29  1  0
 28 27  1  0
 29 31  2  0
 29 30  1  0
M  END
$$$$
