YKQ.pdb
     RDKit          3D

 31 31  0  0  1  0  0  0  0  0999 V2000
   25.3522  -21.0133   -7.6107 O   0  0  0  0  0  0  0  0  0  0  0  0
   25.3102  -20.7359   -8.9653 C   0  0  0  0  0  0  0  0  0  0  0  0
   24.1215  -20.4685   -9.5996 C   0  0  0  0  0  0  0  0  0  0  0  0
   24.0869  -20.1892  -10.9682 C   0  0  0  0  0  0  0  0  0  0  0  0
   25.2399  -20.1726  -11.7252 C   0  0  0  0  0  0  0  0  0  0  0  0
   25.2039  -19.8794  -13.1618 C   0  0  0  0  0  0  0  0  0  0  0  0
   24.4681  -20.9336  -13.9625 C   0  0  2  0  0  0  0  0  0  0  0  0
   25.3042  -22.1324  -13.9558 N   0  0  0  0  0  0  0  0  0  0  0  0
   24.3555  -20.3923  -15.3437 C   0  0  0  0  0  0  0  0  0  0  0  0
   25.0398  -20.9514  -16.2365 O   0  0  0  0  0  0  0  0  0  0  0  0
   26.4212  -20.4442  -11.0656 C   0  0  0  0  0  0  0  0  0  0  0  0
   26.4689  -20.7220   -9.7123 C   0  0  0  0  0  0  0  0  0  0  0  0
   23.5307  -19.2959  -15.7044 N   0  0  0  0  0  0  0  0  0  0  0  0
   22.7415  -19.2417  -16.9072 C   0  0  1  0  0  0  0  0  0  0  0  0
   21.8419  -20.4552  -16.9799 C   0  0  0  0  0  0  0  0  0  0  0  0
   21.0448  -20.4440  -18.2673 C   0  0  0  0  0  0  0  0  0  0  0  0
   20.2233  -21.7273  -18.3970 C   0  0  0  0  0  0  0  0  0  0  0  0
   19.4320  -21.6592  -19.7059 C   0  0  0  0  0  0  0  0  0  0  0  0
   18.5632  -22.7989  -19.8438 N   0  0  0  0  0  0  0  0  0  0  0  0
   21.9262  -18.0080  -17.0016 C   0  0  0  0  0  0  0  0  0  0  0  0
   21.0829  -17.7780  -16.0970 O   0  0  0  0  0  0  0  0  0  0  0  0
   22.1223  -11.0220  -19.4069 N   0  0  0  0  0  0  0  0  0  0  0  0
   22.4241  -12.3886  -19.4789 C   0  0  0  0  0  0  0  0  0  0  0  0
   23.2666  -12.8192  -20.2758 O   0  0  0  0  0  0  0  0  0  0  0  0
   21.7177  -13.3450  -18.5786 C   0  0  0  0  0  0  0  0  0  0  0  0
   22.2659  -14.7344  -18.7144 C   0  0  0  0  0  0  0  0  0  0  0  0
   21.5019  -15.7004  -17.8779 C   0  0  2  0  0  0  0  0  0  0  0  0
   22.0368  -17.0643  -18.0532 N   0  0  0  0  0  0  0  0  0  0  0  0
   20.0891  -15.7410  -18.2262 C   0  0  0  0  0  0  0  0  0  0  0  0
   19.2340  -14.7322  -17.7373 O   0  0  0  0  0  0  0  0  0  0  0  0
   19.6046  -16.6409  -18.9452 O   0  0  0  0  0  0  0  0  0  0  0  0
  2  1  1  0
  3  2  2  0
  4  3  1  0
  5  4  2  0
  5 11  1  0
  6  5  1  0
  7  9  1  0
  7  6  1  0
  7  8  1  6
  9 10  2  0
 11 12  2  0
 12  2  1  0
 13 14  1  0
 13  9  1  0
 14 20  1  0
 14 15  1  1
 16 15  1  0
 17 16  1  0
 18 17  1  0
 19 18  1  0
 20 21  2  0
 20 28  1  0
 22 23  1  0
 23 24  2  0
 23 25  1  0
 25 26  1  0
 27 26  1  6
 27 29  1  0
 28 27  1  0
 29 31  2  0
 29 30  1  0
M  END
$$$$
