YKQ.pdb
     RDKit          3D

 31 31  0  0  1  0  0  0  0  0999 V2000
   28.2862  -19.9691   -3.6732 O   0  0  0  0  0  0  0  0  0  0  0  0
   27.9345  -19.8962   -5.0092 C   0  0  0  0  0  0  0  0  0  0  0  0
   26.8399  -20.5698   -5.4939 C   0  0  0  0  0  0  0  0  0  0  0  0
   26.4909  -20.4914   -6.8445 C   0  0  0  0  0  0  0  0  0  0  0  0
   27.2303  -19.7384   -7.7328 C   0  0  0  0  0  0  0  0  0  0  0  0
   26.8642  -19.6559   -9.1506 C   0  0  0  0  0  0  0  0  0  0  0  0
   26.0057  -20.8166   -9.6085 C   0  0  2  0  0  0  0  0  0  0  0  0
   26.9037  -21.9488   -9.8269 N   0  0  0  0  0  0  0  0  0  0  0  0
   25.3940  -20.3890  -10.8956 C   0  0  0  0  0  0  0  0  0  0  0  0
   24.6315  -19.3913  -10.8649 O   0  0  0  0  0  0  0  0  0  0  0  0
   28.3249  -19.0712   -7.2222 C   0  0  0  0  0  0  0  0  0  0  0  0
   28.6808  -19.1405   -5.8882 C   0  0  0  0  0  0  0  0  0  0  0  0
   25.6202  -21.0354  -12.1380 N   0  0  0  0  0  0  0  0  0  0  0  0
   24.9386  -20.6955  -13.3597 C   0  0  1  0  0  0  0  0  0  0  0  0
   25.8481  -20.9578  -14.5391 C   0  0  0  0  0  0  0  0  0  0  0  0
   26.9797  -19.9519  -14.5659 C   0  0  0  0  0  0  0  0  0  0  0  0
   27.9132  -20.2307  -15.7447 C   0  0  0  0  0  0  0  0  0  0  0  0
   29.0710  -19.2306  -15.6857 C   0  0  0  0  0  0  0  0  0  0  0  0
   30.0759  -19.5458  -16.6674 N   0  0  0  0  0  0  0  0  0  0  0  0
   23.6684  -21.4390  -13.5323 C   0  0  0  0  0  0  0  0  0  0  0  0
   23.5835  -22.5973  -13.0491 O   0  0  0  0  0  0  0  0  0  0  0  0
   20.3797  -22.0647   -9.8611 N   0  0  0  0  0  0  0  0  0  0  0  0
   19.3305  -22.2957  -10.7609 C   0  0  0  0  0  0  0  0  0  0  0  0
   18.2221  -22.6815  -10.3699 O   0  0  0  0  0  0  0  0  0  0  0  0
   19.5512  -22.0732  -12.2190 C   0  0  0  0  0  0  0  0  0  0  0  0
   20.9490  -21.6063  -12.4981 C   0  0  0  0  0  0  0  0  0  0  0  0
   21.2018  -21.5037  -13.9617 C   0  0  2  0  0  0  0  0  0  0  0  0
   22.5358  -20.9249  -14.2115 N   0  0  0  0  0  0  0  0  0  0  0  0
   20.2288  -20.6564  -14.6357 C   0  0  0  0  0  0  0  0  0  0  0  0
   20.6341  -19.3920  -15.1102 O   0  0  0  0  0  0  0  0  0  0  0  0
   19.0429  -21.0099  -14.8095 O   0  0  0  0  0  0  0  0  0  0  0  0
  2  1  1  0
  3  2  2  0
  4  3  1  0
  5  4  2  0
  5 11  1  0
  6  5  1  0
  7  9  1  0
  7  6  1  0
  7  8  1  6
  9 10  2  0
 11 12  2  0
 12  2  1  0
 13 14  1  0
 13  9  1  0
 14 20  1  0
 14 15  1  6
 16 15  1  0
 17 16  1  0
 18 17  1  0
 19 18  1  0
 20 21  2  0
 20 28  1  0
 22 23  1  0
 23 24  2  0
 23 25  1  0
 25 26  1  0
 27 26  1  1
 27 29  1  0
 28 27  1  0
 29 31  2  0
 29 30  1  0
M  END
$$$$
