YKQ.pdb
     RDKit          3D

 31 31  0  0  1  0  0  0  0  0999 V2000
   28.0081  -19.8747   -5.0289 O   0  0  0  0  0  0  0  0  0  0  0  0
   27.4577  -19.8496   -6.2978 C   0  0  0  0  0  0  0  0  0  0  0  0
   27.7605  -18.8448   -7.1841 C   0  0  0  0  0  0  0  0  0  0  0  0
   27.2007  -18.8260   -8.4642 C   0  0  0  0  0  0  0  0  0  0  0  0
   26.3291  -19.8113   -8.8793 C   0  0  0  0  0  0  0  0  0  0  0  0
   25.7414  -19.7918  -10.2229 C   0  0  0  0  0  0  0  0  0  0  0  0
   26.0771  -21.0264  -11.0334 C   0  0  2  0  0  0  0  0  0  0  0  0
   27.5348  -21.1228  -11.0763 N   0  0  0  0  0  0  0  0  0  0  0  0
   25.5373  -20.7783  -12.3975 C   0  0  0  0  0  0  0  0  0  0  0  0
   25.9120  -19.7309  -12.9809 O   0  0  0  0  0  0  0  0  0  0  0  0
   26.0405  -20.8096   -7.9714 C   0  0  0  0  0  0  0  0  0  0  0  0
   26.5876  -20.8396   -6.7022 C   0  0  0  0  0  0  0  0  0  0  0  0
   24.6361  -21.6456  -13.0670 N   0  0  0  0  0  0  0  0  0  0  0  0
   24.1591  -21.4333  -14.4086 C   0  0  1  0  0  0  0  0  0  0  0  0
   24.7816  -22.4523  -15.3365 C   0  0  0  0  0  0  0  0  0  0  0  0
   26.2640  -22.1857  -15.4937 C   0  0  0  0  0  0  0  0  0  0  0  0
   26.9186  -23.2881  -16.3272 C   0  0  0  0  0  0  0  0  0  0  0  0
   28.4211  -23.0037  -16.4020 C   0  0  0  0  0  0  0  0  0  0  0  0
   29.1199  -24.0857  -17.0453 N   0  0  0  0  0  0  0  0  0  0  0  0
   22.6822  -21.5021  -14.5084 C   0  0  0  0  0  0  0  0  0  0  0  0
   22.0424  -22.0211  -13.5579 O   0  0  0  0  0  0  0  0  0  0  0  0
   20.0653  -17.0849  -13.1600 N   0  0  0  0  0  0  0  0  0  0  0  0
   19.5301  -18.2656  -12.6276 C   0  0  0  0  0  0  0  0  0  0  0  0
   18.9548  -18.2735  -11.5325 O   0  0  0  0  0  0  0  0  0  0  0  0
   19.6549  -19.5391  -13.3936 C   0  0  0  0  0  0  0  0  0  0  0  0
   20.4551  -19.3495  -14.6479 C   0  0  0  0  0  0  0  0  0  0  0  0
   20.5326  -20.6111  -15.4347 C   0  0  2  0  0  0  0  0  0  0  0  0
   21.9398  -21.0171  -15.6139 N   0  0  0  0  0  0  0  0  0  0  0  0
   19.9486  -20.4755  -16.7613 C   0  0  0  0  0  0  0  0  0  0  0  0
   20.7798  -20.1158  -17.8418 O   0  0  0  0  0  0  0  0  0  0  0  0
   18.7329  -20.6668  -16.9779 O   0  0  0  0  0  0  0  0  0  0  0  0
  2  1  1  0
  3  2  2  0
  4  3  1  0
  5  4  2  0
  5 11  1  0
  6  5  1  0
  7  9  1  0
  7  6  1  0
  7  8  1  6
  9 10  2  0
 11 12  2  0
 12  2  1  0
 13 14  1  0
 13  9  1  0
 14 20  1  0
 14 15  1  6
 16 15  1  0
 17 16  1  0
 18 17  1  0
 19 18  1  0
 20 21  2  0
 20 28  1  0
 22 23  1  0
 23 24  2  0
 23 25  1  0
 25 26  1  0
 27 26  1  6
 27 29  1  0
 28 27  1  0
 29 31  2  0
 29 30  1  0
M  END
$$$$
