YKQ.pdb
     RDKit          3D

 31 31  0  0  1  0  0  0  0  0999 V2000
   27.4671  -22.2182  -23.2038 O   0  0  0  0  0  0  0  0  0  0  0  0
   26.8677  -21.6133  -22.1135 C   0  0  0  0  0  0  0  0  0  0  0  0
   25.5246  -21.3254  -22.1096 C   0  0  0  0  0  0  0  0  0  0  0  0
   24.9262  -20.7144  -21.0048 C   0  0  0  0  0  0  0  0  0  0  0  0
   25.6605  -20.3810  -19.8857 C   0  0  0  0  0  0  0  0  0  0  0  0
   25.0327  -19.7396  -18.7257 C   0  0  0  0  0  0  0  0  0  0  0  0
   25.1799  -18.2322  -18.7316 C   0  0  2  0  0  0  0  0  0  0  0  0
   26.5016  -17.9325  -18.1842 N   0  0  0  0  0  0  0  0  0  0  0  0
   24.1185  -17.7150  -17.8262 C   0  0  0  0  0  0  0  0  0  0  0  0
   24.4309  -17.5283  -16.6240 O   0  0  0  0  0  0  0  0  0  0  0  0
   27.0074  -20.6801  -19.9134 C   0  0  0  0  0  0  0  0  0  0  0  0
   27.6114  -21.2844  -21.0001 C   0  0  0  0  0  0  0  0  0  0  0  0
   22.7924  -17.4248  -18.2383 N   0  0  0  0  0  0  0  0  0  0  0  0
   21.7788  -16.8831  -17.3713 C   0  0  1  0  0  0  0  0  0  0  0  0
   21.0556  -15.7575  -18.0764 C   0  0  0  0  0  0  0  0  0  0  0  0
   21.8073  -14.4551  -17.8988 C   0  0  0  0  0  0  0  0  0  0  0  0
   20.8989  -13.3961  -17.2729 C   0  0  0  0  0  0  0  0  0  0  0  0
   21.6349  -12.0539  -17.3053 C   0  0  0  0  0  0  0  0  0  0  0  0
   20.8040  -10.9970  -16.7902 N   0  0  0  0  0  0  0  0  0  0  0  0
   20.8017  -17.9040  -16.9254 C   0  0  0  0  0  0  0  0  0  0  0  0
   20.1658  -18.5454  -17.8010 O   0  0  0  0  0  0  0  0  0  0  0  0
   22.1025  -20.8769  -12.4106 N   0  0  0  0  0  0  0  0  0  0  0  0
   21.6658  -21.7712  -13.3972 C   0  0  0  0  0  0  0  0  0  0  0  0
   22.1831  -22.8874  -13.5267 O   0  0  0  0  0  0  0  0  0  0  0  0
   20.5561  -21.3725  -14.3103 C   0  0  0  0  0  0  0  0  0  0  0  0
   20.0509  -19.9965  -13.9928 C   0  0  0  0  0  0  0  0  0  0  0  0
   19.5973  -19.2908  -15.2228 C   0  0  2  0  0  0  0  0  0  0  0  0
   20.5364  -18.2058  -15.5664 N   0  0  0  0  0  0  0  0  0  0  0  0
   18.2805  -18.6903  -15.0654 C   0  0  0  0  0  0  0  0  0  0  0  0
   17.1509  -19.5297  -14.9809 O   0  0  0  0  0  0  0  0  0  0  0  0
   18.1144  -17.4535  -15.0024 O   0  0  0  0  0  0  0  0  0  0  0  0
  2  1  1  0
  3  2  2  0
  4  3  1  0
  5  4  2  0
  5 11  1  0
  6  5  1  0
  7  9  1  0
  7  6  1  0
  7  8  1  1
  9 10  2  0
 11 12  2  0
 12  2  1  0
 13 14  1  0
 13  9  1  0
 14 20  1  0
 14 15  1  6
 16 15  1  0
 17 16  1  0
 18 17  1  0
 19 18  1  0
 20 21  2  0
 20 28  1  0
 22 23  1  0
 23 24  2  0
 23 25  1  0
 25 26  1  0
 27 26  1  1
 27 29  1  0
 28 27  1  0
 29 31  2  0
 29 30  1  0
M  END
$$$$
