YKQ.pdb
     RDKit          3D

 31 31  0  0  1  0  0  0  0  0999 V2000
   16.5022  -14.7954  -21.0329 O   0  0  0  0  0  0  0  0  0  0  0  0
   17.8823  -14.7161  -20.9809 C   0  0  0  0  0  0  0  0  0  0  0  0
   18.6547  -15.0457  -22.0679 C   0  0  0  0  0  0  0  0  0  0  0  0
   20.0482  -14.9631  -22.0080 C   0  0  0  0  0  0  0  0  0  0  0  0
   20.6925  -14.5498  -20.8604 C   0  0  0  0  0  0  0  0  0  0  0  0
   22.1552  -14.4630  -20.7972 C   0  0  0  0  0  0  0  0  0  0  0  0
   22.8350  -15.8071  -20.9557 C   0  0  2  0  0  0  0  0  0  0  0  0
   22.5915  -16.5541  -19.7233 N   0  0  0  0  0  0  0  0  0  0  0  0
   24.2866  -15.5155  -21.1025 C   0  0  0  0  0  0  0  0  0  0  0  0
   24.9583  -15.4010  -20.0472 O   0  0  0  0  0  0  0  0  0  0  0  0
   19.8953  -14.2242  -19.7822 C   0  0  0  0  0  0  0  0  0  0  0  0
   18.5159  -14.3016  -19.8286 C   0  0  0  0  0  0  0  0  0  0  0  0
   24.9456  -15.3616  -22.3493 N   0  0  0  0  0  0  0  0  0  0  0  0
   26.3708  -15.2212  -22.4963 C   0  0  1  0  0  0  0  0  0  0  0  0
   26.9474  -16.4860  -23.0919 C   0  0  0  0  0  0  0  0  0  0  0  0
   28.4597  -16.4140  -23.1190 C   0  0  0  0  0  0  0  0  0  0  0  0
   29.0454  -17.7115  -23.6777 C   0  0  0  0  0  0  0  0  0  0  0  0
   30.5671  -17.5582  -23.7493 C   0  0  0  0  0  0  0  0  0  0  0  0
   31.1657  -18.6690  -24.4427 N   0  0  0  0  0  0  0  0  0  0  0  0
   26.7480  -14.0572  -23.3322 C   0  0  0  0  0  0  0  0  0  0  0  0
   26.1362  -13.8766  -24.4164 O   0  0  0  0  0  0  0  0  0  0  0  0
   28.1547   -7.7200  -24.9146 N   0  0  0  0  0  0  0  0  0  0  0  0
   28.3042   -8.6659  -23.8915 C   0  0  0  0  0  0  0  0  0  0  0  0
   27.6969   -8.5542  -22.8196 O   0  0  0  0  0  0  0  0  0  0  0  0
   29.2125   -9.8310  -24.0958 C   0  0  0  0  0  0  0  0  0  0  0  0
   28.8615  -10.9679  -23.1826 C   0  0  0  0  0  0  0  0  0  0  0  0
   28.0828  -12.0152  -23.8991 C   0  0  2  0  0  0  0  0  0  0  0  0
   27.7608  -13.1285  -22.9857 N   0  0  0  0  0  0  0  0  0  0  0  0
   28.8129  -12.5770  -25.0262 C   0  0  0  0  0  0  0  0  0  0  0  0
   29.7007  -13.6490  -24.8012 O   0  0  0  0  0  0  0  0  0  0  0  0
   28.6811  -12.1421  -26.1902 O   0  0  0  0  0  0  0  0  0  0  0  0
  2  1  1  0
  3  2  2  0
  4  3  1  0
  5  4  2  0
  5 11  1  0
  6  5  1  0
  7  9  1  0
  7  6  1  0
  7  8  1  1
  9 10  2  0
 11 12  2  0
 12  2  1  0
 13 14  1  0
 13  9  1  0
 14 20  1  0
 14 15  1  6
 16 15  1  0
 17 16  1  0
 18 17  1  0
 19 18  1  0
 20 21  2  0
 20 28  1  0
 22 23  1  0
 23 24  2  0
 23 25  1  0
 25 26  1  0
 27 26  1  1
 27 29  1  0
 28 27  1  0
 29 31  2  0
 29 30  1  0
M  END
$$$$
