YKQ.pdb
     RDKit          3D

 31 31  0  0  1  0  0  0  0  0999 V2000
   27.0679  -31.7693  -20.3980 O   0  0  0  0  0  0  0  0  0  0  0  0
   27.0408  -30.6543  -19.5795 C   0  0  0  0  0  0  0  0  0  0  0  0
   27.2064  -30.7661  -18.2205 C   0  0  0  0  0  0  0  0  0  0  0  0
   27.1778  -29.6355  -17.4001 C   0  0  0  0  0  0  0  0  0  0  0  0
   26.9831  -28.3746  -17.9246 C   0  0  0  0  0  0  0  0  0  0  0  0
   26.9530  -27.1876  -17.0636 C   0  0  0  0  0  0  0  0  0  0  0  0
   28.2303  -26.3766  -17.1294 C   0  0  2  0  0  0  0  0  0  0  0  0
   29.2309  -27.0958  -16.3434 N   0  0  0  0  0  0  0  0  0  0  0  0
   27.9171  -25.0694  -16.4915 C   0  0  0  0  0  0  0  0  0  0  0  0
   28.7393  -24.6303  -15.6494 O   0  0  0  0  0  0  0  0  0  0  0  0
   26.8191  -28.2881  -19.2920 C   0  0  0  0  0  0  0  0  0  0  0  0
   26.8454  -29.3988  -20.1146 C   0  0  0  0  0  0  0  0  0  0  0  0
   26.7586  -24.3018  -16.7764 N   0  0  0  0  0  0  0  0  0  0  0  0
   26.6901  -22.8691  -16.6537 C   0  0  1  0  0  0  0  0  0  0  0  0
   27.7557  -22.2334  -17.5182 C   0  0  0  0  0  0  0  0  0  0  0  0
   27.7525  -20.7298  -17.3386 C   0  0  0  0  0  0  0  0  0  0  0  0
   28.8299  -20.0861  -18.2123 C   0  0  0  0  0  0  0  0  0  0  0  0
   28.7644  -18.5694  -18.0140 C   0  0  0  0  0  0  0  0  0  0  0  0
   29.7975  -17.9054  -18.7654 N   0  0  0  0  0  0  0  0  0  0  0  0
   25.3603  -22.3263  -17.0183 C   0  0  0  0  0  0  0  0  0  0  0  0
   25.0048  -22.3755  -18.2239 O   0  0  0  0  0  0  0  0  0  0  0  0
   20.8188  -20.3994  -13.1291 N   0  0  0  0  0  0  0  0  0  0  0  0
   22.1949  -20.5825  -12.9377 C   0  0  0  0  0  0  0  0  0  0  0  0
   22.7011  -20.5162  -11.8109 O   0  0  0  0  0  0  0  0  0  0  0  0
   23.0689  -20.8628  -14.1132 C   0  0  0  0  0  0  0  0  0  0  0  0
   22.2729  -20.9491  -15.3815 C   0  0  0  0  0  0  0  0  0  0  0  0
   23.1468  -21.2531  -16.5478 C   0  0  2  0  0  0  0  0  0  0  0  0
   24.4576  -21.7517  -16.0891 N   0  0  0  0  0  0  0  0  0  0  0  0
   23.3946  -20.0824  -17.3767 C   0  0  0  0  0  0  0  0  0  0  0  0
   22.4911  -19.7745  -18.4144 O   0  0  0  0  0  0  0  0  0  0  0  0
   24.3826  -19.3376  -17.2015 O   0  0  0  0  0  0  0  0  0  0  0  0
  2  1  1  0
  3  2  2  0
  4  3  1  0
  5  4  2  0
  5 11  1  0
  6  5  1  0
  7  9  1  0
  7  6  1  0
  7  8  1  1
  9 10  2  0
 11 12  2  0
 12  2  1  0
 13 14  1  0
 13  9  1  0
 14 20  1  0
 14 15  1  6
 16 15  1  0
 17 16  1  0
 18 17  1  0
 19 18  1  0
 20 21  2  0
 20 28  1  0
 22 23  1  0
 23 24  2  0
 23 25  1  0
 25 26  1  0
 27 26  1  1
 27 29  1  0
 28 27  1  0
 29 31  2  0
 29 30  1  0
M  END
$$$$
