YKQ.pdb
     RDKit          3D

 31 31  0  0  1  0  0  0  0  0999 V2000
   33.2246  -22.5276  -22.0468 O   0  0  0  0  0  0  0  0  0  0  0  0
   32.2731  -23.2246  -21.3238 C   0  0  0  0  0  0  0  0  0  0  0  0
   31.1121  -22.6195  -20.9085 C   0  0  0  0  0  0  0  0  0  0  0  0
   30.1555  -23.3298  -20.1786 C   0  0  0  0  0  0  0  0  0  0  0  0
   30.3440  -24.6567  -19.8518 C   0  0  0  0  0  0  0  0  0  0  0  0
   29.3402  -25.4026  -19.0857 C   0  0  0  0  0  0  0  0  0  0  0  0
   29.2233  -24.9342  -17.6502 C   0  0  2  0  0  0  0  0  0  0  0  0
   30.4541  -25.3347  -16.9712 N   0  0  0  0  0  0  0  0  0  0  0  0
   28.0591  -25.6619  -17.0769 C   0  0  0  0  0  0  0  0  0  0  0  0
   28.3017  -26.7020  -16.4158 O   0  0  0  0  0  0  0  0  0  0  0  0
   31.5178  -25.2423  -20.2801 C   0  0  0  0  0  0  0  0  0  0  0  0
   32.4719  -24.5506  -21.0028 C   0  0  0  0  0  0  0  0  0  0  0  0
   26.7095  -25.2532  -17.2326 N   0  0  0  0  0  0  0  0  0  0  0  0
   25.5905  -25.9125  -16.6116 C   0  0  1  0  0  0  0  0  0  0  0  0
   24.4413  -24.9395  -16.4714 C   0  0  0  0  0  0  0  0  0  0  0  0
   24.5957  -24.1200  -15.2075 C   0  0  0  0  0  0  0  0  0  0  0  0
   23.4321  -23.1384  -15.0629 C   0  0  0  0  0  0  0  0  0  0  0  0
   23.6232  -22.3575  -13.7599 C   0  0  0  0  0  0  0  0  0  0  0  0
   22.5123  -21.4737  -13.5200 N   0  0  0  0  0  0  0  0  0  0  0  0
   25.1437  -27.1100  -17.3615 C   0  0  0  0  0  0  0  0  0  0  0  0
   24.9148  -26.9932  -18.5928 O   0  0  0  0  0  0  0  0  0  0  0  0
   28.0677  -31.3783  -16.8419 N   0  0  0  0  0  0  0  0  0  0  0  0
   27.0724  -31.5475  -15.8700 C   0  0  0  0  0  0  0  0  0  0  0  0
   27.3416  -31.9830  -14.7439 O   0  0  0  0  0  0  0  0  0  0  0  0
   25.6602  -31.1966  -16.1966 C   0  0  0  0  0  0  0  0  0  0  0  0
   25.5438  -30.6094  -17.5718 C   0  0  0  0  0  0  0  0  0  0  0  0
   24.5254  -29.5241  -17.6111 C   0  0  2  0  0  0  0  0  0  0  0  0
   24.9567  -28.3869  -16.7758 N   0  0  0  0  0  0  0  0  0  0  0  0
   23.2290  -29.9603  -17.1130 C   0  0  0  0  0  0  0  0  0  0  0  0
   22.7167  -29.3782  -15.9354 O   0  0  0  0  0  0  0  0  0  0  0  0
   22.5512  -30.8352  -17.6932 O   0  0  0  0  0  0  0  0  0  0  0  0
  2  1  1  0
  3  2  2  0
  4  3  1  0
  5  4  2  0
  5 11  1  0
  6  5  1  0
  7  9  1  0
  7  6  1  0
  7  8  1  1
  9 10  2  0
 11 12  2  0
 12  2  1  0
 13 14  1  0
 13  9  1  0
 14 20  1  0
 14 15  1  6
 16 15  1  0
 17 16  1  0
 18 17  1  0
 19 18  1  0
 20 21  2  0
 20 28  1  0
 22 23  1  0
 23 24  2  0
 23 25  1  0
 25 26  1  0
 27 26  1  1
 27 29  1  0
 28 27  1  0
 29 31  2  0
 29 30  1  0
M  END
$$$$
