YKQ.pdb
     RDKit          3D

 31 31  0  0  1  0  0  0  0  0999 V2000
   28.8515  -27.2972  -17.6310 O   0  0  0  0  0  0  0  0  0  0  0  0
   28.1258  -26.2887  -17.0225 C   0  0  0  0  0  0  0  0  0  0  0  0
   26.8120  -26.4735  -16.6669 C   0  0  0  0  0  0  0  0  0  0  0  0
   26.0854  -25.4503  -16.0526 C   0  0  0  0  0  0  0  0  0  0  0  0
   26.6603  -24.2256  -15.7837 C   0  0  0  0  0  0  0  0  0  0  0  0
   25.8979  -23.1513  -15.1389 C   0  0  0  0  0  0  0  0  0  0  0  0
   25.2513  -22.2070  -16.1309 C   0  0  2  0  0  0  0  0  0  0  0  0
   26.2298  -21.1609  -16.4212 N   0  0  0  0  0  0  0  0  0  0  0  0
   24.0709  -21.6286  -15.4340 C   0  0  0  0  0  0  0  0  0  0  0  0
   24.2918  -20.9383  -14.4081 O   0  0  0  0  0  0  0  0  0  0  0  0
   27.9808  -24.0642  -16.1501 C   0  0  0  0  0  0  0  0  0  0  0  0
   28.7106  -25.0684  -16.7583 C   0  0  0  0  0  0  0  0  0  0  0  0
   22.7289  -21.8100  -15.8568 N   0  0  0  0  0  0  0  0  0  0  0  0
   21.5922  -21.2027  -15.2153 C   0  0  1  0  0  0  0  0  0  0  0  0
   20.8229  -20.3758  -16.2210 C   0  0  0  0  0  0  0  0  0  0  0  0
   19.6101  -19.7463  -15.5683 C   0  0  0  0  0  0  0  0  0  0  0  0
   18.8296  -18.9126  -16.5853 C   0  0  0  0  0  0  0  0  0  0  0  0
   17.6515  -18.2546  -15.8620 C   0  0  0  0  0  0  0  0  0  0  0  0
   18.0868  -17.1156  -15.0964 N   0  0  0  0  0  0  0  0  0  0  0  0
   20.6891  -22.1971  -14.5897 C   0  0  0  0  0  0  0  0  0  0  0  0
   20.1214  -23.0392  -15.3319 O   0  0  0  0  0  0  0  0  0  0  0  0
   17.8240  -25.4174   -8.8717 N   0  0  0  0  0  0  0  0  0  0  0  0
   17.8401  -24.3244   -9.7486 C   0  0  0  0  0  0  0  0  0  0  0  0
   16.7973  -23.7381  -10.0635 O   0  0  0  0  0  0  0  0  0  0  0  0
   19.1379  -23.8564  -10.3149 C   0  0  0  0  0  0  0  0  0  0  0  0
   18.9332  -22.7907  -11.3503 C   0  0  0  0  0  0  0  0  0  0  0  0
   19.4361  -23.2278  -12.6817 C   0  0  2  0  0  0  0  0  0  0  0  0
   20.4226  -22.2603  -13.1992 N   0  0  0  0  0  0  0  0  0  0  0  0
   18.3727  -23.3328  -13.6703 C   0  0  0  0  0  0  0  0  0  0  0  0
   17.8782  -24.6085  -14.0111 O   0  0  0  0  0  0  0  0  0  0  0  0
   17.8805  -22.3299  -14.2300 O   0  0  0  0  0  0  0  0  0  0  0  0
  2  1  1  0
  3  2  2  0
  4  3  1  0
  5  4  2  0
  5 11  1  0
  6  5  1  0
  7  9  1  0
  7  6  1  0
  7  8  1  1
  9 10  2  0
 11 12  2  0
 12  2  1  0
 13 14  1  0
 13  9  1  0
 14 20  1  0
 14 15  1  6
 16 15  1  0
 17 16  1  0
 18 17  1  0
 19 18  1  0
 20 21  2  0
 20 28  1  0
 22 23  1  0
 23 24  2  0
 23 25  1  0
 25 26  1  0
 27 26  1  1
 27 29  1  0
 28 27  1  0
 29 31  2  0
 29 30  1  0
M  END
$$$$
