YKQ.pdb
     RDKit          3D

 31 31  0  0  1  0  0  0  0  0999 V2000
   23.0041  -22.3444   -5.4952 O   0  0  0  0  0  0  0  0  0  0  0  0
   23.3377  -21.8635   -6.7487 C   0  0  0  0  0  0  0  0  0  0  0  0
   22.5289  -22.0904   -7.8354 C   0  0  0  0  0  0  0  0  0  0  0  0
   22.8723  -21.6014   -9.0985 C   0  0  0  0  0  0  0  0  0  0  0  0
   24.0299  -20.8777   -9.2959 C   0  0  0  0  0  0  0  0  0  0  0  0
   24.3907  -20.3643  -10.6215 C   0  0  0  0  0  0  0  0  0  0  0  0
   25.2182  -21.3421  -11.4295 C   0  0  2  0  0  0  0  0  0  0  0  0
   26.5935  -21.2352  -10.9465 N   0  0  0  0  0  0  0  0  0  0  0  0
   25.1313  -20.8811  -12.8415 C   0  0  0  0  0  0  0  0  0  0  0  0
   25.8932  -19.9441  -13.1869 O   0  0  0  0  0  0  0  0  0  0  0  0
   24.8257  -20.6629   -8.1892 C   0  0  0  0  0  0  0  0  0  0  0  0
   24.4973  -21.1412   -6.9345 C   0  0  0  0  0  0  0  0  0  0  0  0
   24.2489  -21.4322  -13.8060 N   0  0  0  0  0  0  0  0  0  0  0  0
   24.2074  -21.0257  -15.1864 C   0  0  1  0  0  0  0  0  0  0  0  0
   24.3034  -22.2434  -16.0780 C   0  0  0  0  0  0  0  0  0  0  0  0
   24.4294  -21.8263  -17.5282 C   0  0  0  0  0  0  0  0  0  0  0  0
   24.6264  -23.0525  -18.4205 C   0  0  0  0  0  0  0  0  0  0  0  0
   24.8472  -22.5693  -19.8565 C   0  0  0  0  0  0  0  0  0  0  0  0
   25.0304  -23.6810  -20.7528 N   0  0  0  0  0  0  0  0  0  0  0  0
   22.9857  -20.2563  -15.5199 C   0  0  0  0  0  0  0  0  0  0  0  0
   21.8926  -20.6227  -15.0168 O   0  0  0  0  0  0  0  0  0  0  0  0
   22.2564  -14.7585  -18.6690 N   0  0  0  0  0  0  0  0  0  0  0  0
   20.9455  -15.0989  -18.3091 C   0  0  0  0  0  0  0  0  0  0  0  0
   19.9925  -14.3571  -18.5774 O   0  0  0  0  0  0  0  0  0  0  0  0
   20.6910  -16.3796  -17.5885 C   0  0  0  0  0  0  0  0  0  0  0  0
   21.9647  -17.1300  -17.3352 C   0  0  0  0  0  0  0  0  0  0  0  0
   21.7023  -18.4192  -16.6383 C   0  0  2  0  0  0  0  0  0  0  0  0
   22.9703  -19.1264  -16.3753 N   0  0  0  0  0  0  0  0  0  0  0  0
   20.8620  -19.3134  -17.4217 C   0  0  0  0  0  0  0  0  0  0  0  0
   19.4813  -19.3751  -17.1428 O   0  0  0  0  0  0  0  0  0  0  0  0
   21.3216  -20.0310  -18.3357 O   0  0  0  0  0  0  0  0  0  0  0  0
  2  1  1  0
  3  2  2  0
  4  3  1  0
  5  4  2  0
  5 11  1  0
  6  5  1  0
  7  9  1  0
  7  6  1  0
  7  8  1  1
  9 10  2  0
 11 12  2  0
 12  2  1  0
 13 14  1  0
 13  9  1  0
 14 20  1  0
 14 15  1  6
 16 15  1  0
 17 16  1  0
 18 17  1  0
 19 18  1  0
 20 21  2  0
 20 28  1  0
 22 23  1  0
 23 24  2  0
 23 25  1  0
 25 26  1  0
 27 26  1  6
 27 29  1  0
 28 27  1  0
 29 31  2  0
 29 30  1  0
M  END
$$$$
