YKQ.pdb
     RDKit          3D

 31 31  0  0  1  0  0  0  0  0999 V2000
   27.7412  -19.8021   -4.8519 O   0  0  0  0  0  0  0  0  0  0  0  0
   27.2260  -19.8407   -6.1352 C   0  0  0  0  0  0  0  0  0  0  0  0
   26.5165  -20.9279   -6.5839 C   0  0  0  0  0  0  0  0  0  0  0  0
   25.9991  -20.9597   -7.8814 C   0  0  0  0  0  0  0  0  0  0  0  0
   26.1823  -19.9052   -8.7516 C   0  0  0  0  0  0  0  0  0  0  0  0
   25.6393  -19.9383  -10.1136 C   0  0  0  0  0  0  0  0  0  0  0  0
   26.1116  -21.1369  -10.9099 C   0  0  2  0  0  0  0  0  0  0  0  0
   27.5532  -20.9828  -11.0946 N   0  0  0  0  0  0  0  0  0  0  0  0
   25.4133  -21.0566  -12.2212 C   0  0  0  0  0  0  0  0  0  0  0  0
   25.8499  -20.2233  -13.0536 O   0  0  0  0  0  0  0  0  0  0  0  0
   26.8981  -18.8248   -8.2778 C   0  0  0  0  0  0  0  0  0  0  0  0
   27.4152  -18.7809   -6.9966 C   0  0  0  0  0  0  0  0  0  0  0  0
   24.2980  -21.8567  -12.5796 N   0  0  0  0  0  0  0  0  0  0  0  0
   23.6580  -21.8172  -13.8686 C   0  0  1  0  0  0  0  0  0  0  0  0
   23.4255  -23.2270  -14.3639 C   0  0  0  0  0  0  0  0  0  0  0  0
   24.6981  -23.7938  -14.9572 C   0  0  0  0  0  0  0  0  0  0  0  0
   24.5124  -25.2714  -15.3049 C   0  0  0  0  0  0  0  0  0  0  0  0
   25.8433  -25.8089  -15.8377 C   0  0  0  0  0  0  0  0  0  0  0  0
   25.7816  -27.2334  -16.0381 N   0  0  0  0  0  0  0  0  0  0  0  0
   22.3750  -21.0759  -13.8481 C   0  0  0  0  0  0  0  0  0  0  0  0
   21.6163  -21.2217  -12.8554 O   0  0  0  0  0  0  0  0  0  0  0  0
   20.0160  -16.7441  -17.9090 N   0  0  0  0  0  0  0  0  0  0  0  0
   19.1774  -16.6373  -16.7913 C   0  0  0  0  0  0  0  0  0  0  0  0
   18.2545  -15.8143  -16.7570 O   0  0  0  0  0  0  0  0  0  0  0  0
   19.3992  -17.5319  -15.6188 C   0  0  0  0  0  0  0  0  0  0  0  0
   20.5507  -18.4648  -15.8495 C   0  0  0  0  0  0  0  0  0  0  0  0
   20.7156  -19.4107  -14.7117 C   0  0  2  0  0  0  0  0  0  0  0  0
   21.9456  -20.2076  -14.8825 N   0  0  0  0  0  0  0  0  0  0  0  0
   19.6055  -20.3458  -14.6011 C   0  0  0  0  0  0  0  0  0  0  0  0
   19.6051  -21.5060  -15.4023 O   0  0  0  0  0  0  0  0  0  0  0  0
   18.6492  -20.1569  -13.8192 O   0  0  0  0  0  0  0  0  0  0  0  0
  2  1  1  0
  3  2  2  0
  4  3  1  0
  5  4  2  0
  5 11  1  0
  6  5  1  0
  7  9  1  0
  7  6  1  0
  7  8  1  6
  9 10  2  0
 11 12  2  0
 12  2  1  0
 13 14  1  0
 13  9  1  0
 14 20  1  0
 14 15  1  1
 16 15  1  0
 17 16  1  0
 18 17  1  0
 19 18  1  0
 20 21  2  0
 20 28  1  0
 22 23  1  0
 23 24  2  0
 23 25  1  0
 25 26  1  0
 27 26  1  6
 27 29  1  0
 28 27  1  0
 29 31  2  0
 29 30  1  0
M  END
$$$$
