MTR.pdb
     RDKit          3D

 27 26  0  0  1  0  0  0  0  0999 V2000
    8.2936  -11.7859   27.2924 C   0  0  0  0  0  0  0  0  0  0  0  0
    6.9798  -12.6594   28.1279 S   0  0  0  0  0  0  0  0  0  0  0  0
    6.0272  -13.6741   27.0487 C   0  0  0  0  0  0  0  0  0  0  0  0
    6.7673  -14.3573   25.9587 C   0  0  0  0  0  0  0  0  0  0  0  0
    6.0470  -15.2228   25.0099 C   0  0  2  0  0  0  0  0  0  0  0  0
    5.3847  -16.3241   25.7000 N   0  0  0  0  0  0  0  0  0  0  0  0
    7.0173  -15.8398   24.0102 C   0  0  0  0  0  0  0  0  0  0  0  0
    7.4685  -16.9676   24.2779 O   0  0  0  0  0  0  0  0  0  0  0  0
    6.9061  -14.7259   20.1417 C   0  0  0  0  0  0  0  0  0  0  0  0
    8.3036  -15.0151   20.5740 C   0  0  1  0  0  0  0  0  0  0  0  0
    8.8685  -13.7336   20.8585 O   0  0  0  0  0  0  0  0  0  0  0  0
    8.4113  -15.7487   21.9081 C   0  0  2  0  0  0  0  0  0  0  0  0
    7.4030  -15.1801   22.8236 N   0  0  0  0  0  0  0  0  0  0  0  0
    9.7341  -15.7084   22.5214 C   0  0  0  0  0  0  0  0  0  0  0  0
   10.0031  -14.7060   23.2800 O   0  0  0  0  0  0  0  0  0  0  0  0
    8.2478  -20.2793   26.4162 N   0  0  0  0  0  0  0  0  0  0  0  0
    9.4911  -19.9415   26.9860 C   0  0  0  0  0  0  0  0  0  0  0  0
    9.5681  -19.7379   28.2458 N   0  0  0  0  0  0  0  0  0  0  0  0
   10.6415  -19.8314   26.1760 N   0  0  0  0  0  0  0  0  0  0  0  0
   11.7157  -18.9762   26.5168 C   0  0  0  0  0  0  0  0  0  0  0  0
   12.3015  -18.1997   25.3959 C   0  0  0  0  0  0  0  0  0  0  0  0
   11.3379  -17.6351   24.4223 C   0  0  0  0  0  0  0  0  0  0  0  0
   11.8588  -16.8022   23.3133 C   0  0  2  0  0  0  0  0  0  0  0  0
   10.7288  -16.6743   22.3509 N   0  0  0  0  0  0  0  0  0  0  0  0
   12.9102  -17.5816   22.5440 C   0  0  0  0  0  0  0  0  0  0  0  0
   12.6632  -18.1120   21.4288 O   0  0  0  0  0  0  0  0  0  0  0  0
   14.1649  -17.7319   23.0477 O   0  0  0  0  0  0  0  0  0  0  0  0
  2  1  1  0
  3  2  1  0
  4  5  1  0
  4  3  1  0
  5  7  1  0
  5  6  1  1
  7  8  2  0
 10  9  1  1
 10 12  1  0
 11 10  1  0
 12 13  1  1
 13  7  1  0
 14 12  1  0
 14 15  2  0
 17 16  1  0
 18 17  2  0
 19 17  1  0
 20 19  1  0
 21 20  1  0
 21 22  1  0
 23 22  1  1
 23 24  1  0
 23 25  1  0
 24 14  1  0
 25 26  2  0
 25 27  1  0
M  END
$$$$
