MTR.pdb
     RDKit          3D

 27 26  0  0  1  0  0  0  0  0999 V2000
    9.8520  -14.2053   29.4684 C   0  0  0  0  0  0  0  0  0  0  0  0
   10.6564  -15.7080   28.9375 S   0  0  0  0  0  0  0  0  0  0  0  0
    9.6448  -16.7038   27.8948 C   0  0  0  0  0  0  0  0  0  0  0  0
    8.2151  -16.8196   28.2757 C   0  0  0  0  0  0  0  0  0  0  0  0
    7.2833  -17.5707   27.4178 C   0  0  2  0  0  0  0  0  0  0  0  0
    7.8205  -18.8842   27.0803 N   0  0  0  0  0  0  0  0  0  0  0  0
    7.0533  -16.8304   26.1061 C   0  0  0  0  0  0  0  0  0  0  0  0
    6.4556  -17.4442   25.2044 O   0  0  0  0  0  0  0  0  0  0  0  0
    6.2683  -12.9065   25.8455 C   0  0  0  0  0  0  0  0  0  0  0  0
    7.2885  -13.3266   24.8423 C   0  0  1  0  0  0  0  0  0  0  0  0
    8.5451  -13.0507   25.4645 O   0  0  0  0  0  0  0  0  0  0  0  0
    7.3446  -14.8313   24.5931 C   0  0  2  0  0  0  0  0  0  0  0  0
    7.4898  -15.5044   25.8985 N   0  0  0  0  0  0  0  0  0  0  0  0
    8.3992  -15.2597   23.6810 C   0  0  0  0  0  0  0  0  0  0  0  0
    9.0823  -16.2969   24.0133 O   0  0  0  0  0  0  0  0  0  0  0  0
    8.4544  -15.2565   16.6386 N   0  0  0  0  0  0  0  0  0  0  0  0
    8.0221  -13.9334   16.4214 C   0  0  0  0  0  0  0  0  0  0  0  0
    7.8300  -13.5256   15.2250 N   0  0  0  0  0  0  0  0  0  0  0  0
    7.8002  -13.0664   17.5126 N   0  0  0  0  0  0  0  0  0  0  0  0
    8.6962  -12.9968   18.6052 C   0  0  0  0  0  0  0  0  0  0  0  0
    8.9039  -14.2637   19.3497 C   0  0  0  0  0  0  0  0  0  0  0  0
    9.8835  -14.2126   20.4601 C   0  0  0  0  0  0  0  0  0  0  0  0
    9.7562  -15.1953   21.5615 C   0  0  2  0  0  0  0  0  0  0  0  0
    8.7222  -14.6331   22.4749 N   0  0  0  0  0  0  0  0  0  0  0  0
   11.0249  -15.1901   22.3952 C   0  0  0  0  0  0  0  0  0  0  0  0
   11.1374  -14.4856   23.4330 O   0  0  0  0  0  0  0  0  0  0  0  0
   12.0905  -15.9561   22.0365 O   0  0  0  0  0  0  0  0  0  0  0  0
  2  1  1  0
  3  2  1  0
  4  5  1  0
  4  3  1  0
  5  7  1  0
  5  6  1  6
  7  8  2  0
 10  9  1  1
 10 12  1  0
 11 10  1  0
 12 13  1  1
 13  7  1  0
 14 12  1  0
 14 15  2  0
 17 16  1  0
 18 17  2  0
 19 17  1  0
 20 19  1  0
 21 20  1  0
 21 22  1  0
 23 22  1  6
 23 24  1  0
 23 25  1  0
 24 14  1  0
 25 26  2  0
 25 27  1  0
M  END
$$$$
