MTR.pdb
     RDKit          3D

 27 26  0  0  1  0  0  0  0  0999 V2000
   11.4571  -14.8345   27.4889 C   0  0  0  0  0  0  0  0  0  0  0  0
   11.3374  -14.3604   29.2059 S   0  0  0  0  0  0  0  0  0  0  0  0
   11.3869  -15.7330   30.3083 C   0  0  0  0  0  0  0  0  0  0  0  0
   11.0688  -17.0606   29.7260 C   0  0  0  0  0  0  0  0  0  0  0  0
   11.0801  -18.2605   30.5794 C   0  0  2  0  0  0  0  0  0  0  0  0
   12.3876  -18.4561   31.1958 N   0  0  0  0  0  0  0  0  0  0  0  0
   10.7844  -19.5051   29.7517 C   0  0  0  0  0  0  0  0  0  0  0  0
   11.6095  -20.4342   29.8079 O   0  0  0  0  0  0  0  0  0  0  0  0
    6.9134  -20.2315   27.9883 C   0  0  0  0  0  0  0  0  0  0  0  0
    7.9348  -21.2561   28.3500 C   0  0  1  0  0  0  0  0  0  0  0  0
    7.7533  -22.3031   27.3945 O   0  0  0  0  0  0  0  0  0  0  0  0
    9.3778  -20.8166   28.1172 C   0  0  2  0  0  0  0  0  0  0  0  0
    9.6304  -19.6231   28.9479 N   0  0  0  0  0  0  0  0  0  0  0  0
    9.7161  -20.5465   26.7243 C   0  0  0  0  0  0  0  0  0  0  0  0
   10.1797  -19.3806   26.4444 O   0  0  0  0  0  0  0  0  0  0  0  0
   16.5264  -20.5603   23.0272 N   0  0  0  0  0  0  0  0  0  0  0  0
   15.7463  -20.3280   21.8774 C   0  0  0  0  0  0  0  0  0  0  0  0
   16.3266  -20.0542   20.7716 N   0  0  0  0  0  0  0  0  0  0  0  0
   14.3384  -20.3994   21.9433 N   0  0  0  0  0  0  0  0  0  0  0  0
   13.6620  -20.7102   23.1463 C   0  0  0  0  0  0  0  0  0  0  0  0
   12.1867  -20.8343   23.0423 C   0  0  0  0  0  0  0  0  0  0  0  0
   11.4520  -20.9536   24.3233 C   0  0  0  0  0  0  0  0  0  0  0  0
    9.9783  -21.1005   24.2826 C   0  0  2  0  0  0  0  0  0  0  0  0
    9.5782  -21.4560   25.6729 N   0  0  0  0  0  0  0  0  0  0  0  0
    9.6133  -22.3296   23.4696 C   0  0  0  0  0  0  0  0  0  0  0  0
    9.7051  -22.3493   22.2138 O   0  0  0  0  0  0  0  0  0  0  0  0
    9.1686  -23.4582   24.0854 O   0  0  0  0  0  0  0  0  0  0  0  0
  2  1  1  0
  3  2  1  0
  4  5  1  0
  4  3  1  0
  5  7  1  0
  5  6  1  6
  7  8  2  0
 10  9  1  6
 10 12  1  0
 11 10  1  0
 12 13  1  1
 13  7  1  0
 14 12  1  0
 14 15  2  0
 17 16  1  0
 18 17  2  0
 19 17  1  0
 20 19  1  0
 21 20  1  0
 21 22  1  0
 23 22  1  1
 23 24  1  0
 23 25  1  0
 24 14  1  0
 25 26  2  0
 25 27  1  0
M  END
$$$$
