MTR.pdb
     RDKit          3D

 27 26  0  0  1  0  0  0  0  0999 V2000
    8.5929  -12.1483   21.9823 C   0  0  0  0  0  0  0  0  0  0  0  0
    7.6557  -12.4578   20.4947 S   0  0  0  0  0  0  0  0  0  0  0  0
    8.4107  -13.6449   19.4350 C   0  0  0  0  0  0  0  0  0  0  0  0
    8.7391  -14.9588   20.0421 C   0  0  0  0  0  0  0  0  0  0  0  0
    9.3430  -16.0197   19.2186 C   0  0  2  0  0  0  0  0  0  0  0  0
    8.4311  -16.4525   18.1656 N   0  0  0  0  0  0  0  0  0  0  0  0
    9.6549  -17.2430   20.0717 C   0  0  0  0  0  0  0  0  0  0  0  0
    8.7297  -18.0516   20.2655 O   0  0  0  0  0  0  0  0  0  0  0  0
   11.4260  -20.0185   19.2784 C   0  0  0  0  0  0  0  0  0  0  0  0
   12.0723  -19.6148   20.5601 C   0  0  1  0  0  0  0  0  0  0  0  0
   13.1748  -18.7943   20.1684 O   0  0  0  0  0  0  0  0  0  0  0  0
   11.2297  -18.6795   21.4232 C   0  0  2  0  0  0  0  0  0  0  0  0
   10.9311  -17.4719   20.6292 N   0  0  0  0  0  0  0  0  0  0  0  0
   11.8376  -18.3120   22.6972 C   0  0  0  0  0  0  0  0  0  0  0  0
   12.3297  -17.1286   22.7972 O   0  0  0  0  0  0  0  0  0  0  0  0
   14.1337  -19.3313   30.4442 N   0  0  0  0  0  0  0  0  0  0  0  0
   13.0898  -20.2708   30.3333 C   0  0  0  0  0  0  0  0  0  0  0  0
   12.1471  -20.2646   31.1969 N   0  0  0  0  0  0  0  0  0  0  0  0
   13.0818  -21.2081   29.2783 N   0  0  0  0  0  0  0  0  0  0  0  0
   13.4261  -20.8457   27.9548 C   0  0  0  0  0  0  0  0  0  0  0  0
   12.7999  -19.6008   27.4442 C   0  0  0  0  0  0  0  0  0  0  0  0
   12.1795  -19.6880   26.1016 C   0  0  0  0  0  0  0  0  0  0  0  0
   12.5459  -18.6738   25.0857 C   0  0  2  0  0  0  0  0  0  0  0  0
   11.9241  -19.1438   23.8162 N   0  0  0  0  0  0  0  0  0  0  0  0
   14.0376  -18.7453   24.8126 C   0  0  0  0  0  0  0  0  0  0  0  0
   14.5314  -19.5981   24.0285 O   0  0  0  0  0  0  0  0  0  0  0  0
   14.8932  -17.8784   25.4186 O   0  0  0  0  0  0  0  0  0  0  0  0
  2  1  1  0
  3  2  1  0
  4  5  1  0
  4  3  1  0
  5  7  1  0
  5  6  1  6
  7  8  2  0
 10  9  1  6
 10 12  1  0
 11 10  1  0
 12 13  1  6
 13  7  1  0
 14 12  1  0
 14 15  2  0
 17 16  1  0
 18 17  2  0
 19 17  1  0
 20 19  1  0
 21 20  1  0
 21 22  1  0
 23 22  1  1
 23 24  1  0
 23 25  1  0
 24 14  1  0
 25 26  2  0
 25 27  1  0
M  END
$$$$
