MTR.pdb
     RDKit          3D

 27 26  0  0  1  0  0  0  0  0999 V2000
    7.9948  -12.4299   21.5115 C   0  0  0  0  0  0  0  0  0  0  0  0
    7.5469  -11.8316   19.8902 S   0  0  0  0  0  0  0  0  0  0  0  0
    8.0728  -12.8964   18.5896 C   0  0  0  0  0  0  0  0  0  0  0  0
    8.7058  -14.1754   18.9973 C   0  0  0  0  0  0  0  0  0  0  0  0
    9.1282  -15.1465   17.9742 C   0  0  2  0  0  0  0  0  0  0  0  0
    7.9942  -15.5953   17.1740 N   0  0  0  0  0  0  0  0  0  0  0  0
    9.7305  -16.3827   18.6303 C   0  0  0  0  0  0  0  0  0  0  0  0
    8.9863  -17.3688   18.7754 O   0  0  0  0  0  0  0  0  0  0  0  0
   12.8560  -18.2691   17.7796 C   0  0  0  0  0  0  0  0  0  0  0  0
   12.9183  -18.0006   19.2451 C   0  0  1  0  0  0  0  0  0  0  0  0
   13.7399  -16.8376   19.3669 O   0  0  0  0  0  0  0  0  0  0  0  0
   11.5937  -17.5589   19.8615 C   0  0  2  0  0  0  0  0  0  0  0  0
   11.0729  -16.4320   19.0634 N   0  0  0  0  0  0  0  0  0  0  0  0
   11.6692  -17.1908   21.2708 C   0  0  0  0  0  0  0  0  0  0  0  0
   11.9351  -15.9638   21.5474 O   0  0  0  0  0  0  0  0  0  0  0  0
    5.5959  -19.4388   24.1952 N   0  0  0  0  0  0  0  0  0  0  0  0
    6.3664  -18.6249   25.0489 C   0  0  0  0  0  0  0  0  0  0  0  0
    5.8196  -17.6183   25.6165 N   0  0  0  0  0  0  0  0  0  0  0  0
    7.7276  -18.9183   25.2784 N   0  0  0  0  0  0  0  0  0  0  0  0
    8.5383  -18.1037   26.1035 C   0  0  0  0  0  0  0  0  0  0  0  0
    9.6633  -17.4153   25.4230 C   0  0  0  0  0  0  0  0  0  0  0  0
   10.4389  -18.2320   24.4604 C   0  0  0  0  0  0  0  0  0  0  0  0
   11.5773  -17.6005   23.7531 C   0  0  2  0  0  0  0  0  0  0  0  0
   11.4727  -18.0661   22.3418 N   0  0  0  0  0  0  0  0  0  0  0  0
   12.8793  -18.2071   24.2445 C   0  0  0  0  0  0  0  0  0  0  0  0
   13.5040  -19.0741   23.5781 O   0  0  0  0  0  0  0  0  0  0  0  0
   13.4124  -17.8262   25.4368 O   0  0  0  0  0  0  0  0  0  0  0  0
  2  1  1  0
  3  2  1  0
  4  5  1  0
  4  3  1  0
  5  7  1  0
  5  6  1  1
  7  8  2  0
 10  9  1  6
 10 12  1  0
 11 10  1  0
 12 13  1  6
 13  7  1  0
 14 12  1  0
 14 15  2  0
 17 16  1  0
 18 17  2  0
 19 17  1  0
 20 19  1  0
 21 20  1  0
 21 22  1  0
 23 22  1  1
 23 24  1  0
 23 25  1  0
 24 14  1  0
 25 26  2  0
 25 27  1  0
M  END
$$$$
