MTR.pdb
     RDKit          3D

 27 26  0  0  1  0  0  0  0  0999 V2000
    7.3482  -12.5373   20.7274 C   0  0  0  0  0  0  0  0  0  0  0  0
    7.2172  -12.5463   18.9470 S   0  0  0  0  0  0  0  0  0  0  0  0
    8.7013  -13.0539   18.1460 C   0  0  0  0  0  0  0  0  0  0  0  0
    9.4012  -14.2246   18.7310 C   0  0  0  0  0  0  0  0  0  0  0  0
    9.3213  -15.5368   18.0678 C   0  0  2  0  0  0  0  0  0  0  0  0
    7.9542  -15.8370   17.6571 N   0  0  0  0  0  0  0  0  0  0  0  0
    9.7552  -16.6426   19.0220 C   0  0  0  0  0  0  0  0  0  0  0  0
    8.8596  -17.3482   19.5192 O   0  0  0  0  0  0  0  0  0  0  0  0
   12.6325  -19.1001   18.4174 C   0  0  0  0  0  0  0  0  0  0  0  0
   12.7536  -18.6006   19.8172 C   0  0  1  0  0  0  0  0  0  0  0  0
   13.7250  -17.5549   19.7471 O   0  0  0  0  0  0  0  0  0  0  0  0
   11.5099  -17.8878   20.3415 C   0  0  2  0  0  0  0  0  0  0  0  0
   11.1093  -16.8768   19.3437 N   0  0  0  0  0  0  0  0  0  0  0  0
   11.6678  -17.2712   21.6539 C   0  0  0  0  0  0  0  0  0  0  0  0
   12.0707  -16.0509   21.6885 O   0  0  0  0  0  0  0  0  0  0  0  0
   10.9019  -15.8490   29.2207 N   0  0  0  0  0  0  0  0  0  0  0  0
   10.2899  -14.6872   28.7104 C   0  0  0  0  0  0  0  0  0  0  0  0
    9.8448  -13.8056   29.5222 N   0  0  0  0  0  0  0  0  0  0  0  0
   10.1711  -14.4958   27.3173 N   0  0  0  0  0  0  0  0  0  0  0  0
    9.4898  -15.4210   26.4918 C   0  0  0  0  0  0  0  0  0  0  0  0
   10.2089  -16.6896   26.2162 C   0  0  0  0  0  0  0  0  0  0  0  0
   10.2965  -17.0916   24.7928 C   0  0  0  0  0  0  0  0  0  0  0  0
   11.6364  -17.2021   24.1702 C   0  0  2  0  0  0  0  0  0  0  0  0
   11.4131  -17.9019   22.8741 N   0  0  0  0  0  0  0  0  0  0  0  0
   12.4886  -18.1717   24.9692 C   0  0  0  0  0  0  0  0  0  0  0  0
   12.6385  -19.3721   24.6188 O   0  0  0  0  0  0  0  0  0  0  0  0
   13.1205  -17.7640   26.1028 O   0  0  0  0  0  0  0  0  0  0  0  0
  2  1  1  0
  3  2  1  0
  4  5  1  0
  4  3  1  0
  5  7  1  0
  5  6  1  1
  7  8  2  0
 10  9  1  6
 10 12  1  0
 11 10  1  0
 12 13  1  6
 13  7  1  0
 14 12  1  0
 14 15  2  0
 17 16  1  0
 18 17  2  0
 19 17  1  0
 20 19  1  0
 21 20  1  0
 21 22  1  0
 23 22  1  1
 23 24  1  0
 23 25  1  0
 24 14  1  0
 25 26  2  0
 25 27  1  0
M  END
$$$$
