MTR.pdb
     RDKit          3D

 27 26  0  0  1  0  0  0  0  0999 V2000
    7.2302  -11.1153   25.5862 C   0  0  0  0  0  0  0  0  0  0  0  0
    6.5817  -12.2009   26.8464 S   0  0  0  0  0  0  0  0  0  0  0  0
    6.0064  -13.7379   26.2072 C   0  0  0  0  0  0  0  0  0  0  0  0
    6.7666  -14.3054   25.0658 C   0  0  0  0  0  0  0  0  0  0  0  0
    6.2557  -15.4912   24.3580 C   0  0  2  0  0  0  0  0  0  0  0  0
    5.6134  -16.4197   25.2816 N   0  0  0  0  0  0  0  0  0  0  0  0
    7.3982  -16.2444   23.6880 C   0  0  0  0  0  0  0  0  0  0  0  0
    7.2066  -17.4431   23.4164 O   0  0  0  0  0  0  0  0  0  0  0  0
    7.3338  -16.7407   21.2532 C   0  0  0  0  0  0  0  0  0  0  0  0
    8.7626  -16.3579   21.0646 C   0  0  1  0  0  0  0  0  0  0  0  0
    8.7164  -15.0315   20.5346 O   0  0  0  0  0  0  0  0  0  0  0  0
    9.5459  -16.1883   22.3635 C   0  0  2  0  0  0  0  0  0  0  0  0
    8.6308  -15.6307   23.3782 N   0  0  0  0  0  0  0  0  0  0  0  0
   10.7428  -15.3623   22.2506 C   0  0  0  0  0  0  0  0  0  0  0  0
   10.5902  -14.0879   22.3250 O   0  0  0  0  0  0  0  0  0  0  0  0
   13.4920  -19.6699   28.5943 N   0  0  0  0  0  0  0  0  0  0  0  0
   12.2983  -19.7664   27.8525 C   0  0  0  0  0  0  0  0  0  0  0  0
   11.3992  -20.5985   28.2180 N   0  0  0  0  0  0  0  0  0  0  0  0
   12.0944  -18.9513   26.7186 N   0  0  0  0  0  0  0  0  0  0  0  0
   13.1647  -18.5506   25.8847 C   0  0  0  0  0  0  0  0  0  0  0  0
   13.1359  -17.1368   25.4343 C   0  0  0  0  0  0  0  0  0  0  0  0
   12.4147  -16.8723   24.1673 C   0  0  0  0  0  0  0  0  0  0  0  0
   13.0066  -15.9159   23.2029 C   0  0  2  0  0  0  0  0  0  0  0  0
   12.0404  -15.8476   22.0710 N   0  0  0  0  0  0  0  0  0  0  0  0
   14.2532  -16.5239   22.5857 C   0  0  0  0  0  0  0  0  0  0  0  0
   15.4042  -16.0738   22.8279 O   0  0  0  0  0  0  0  0  0  0  0  0
   14.1582  -17.5853   21.7401 O   0  0  0  0  0  0  0  0  0  0  0  0
  2  1  1  0
  3  2  1  0
  4  5  1  0
  4  3  1  0
  5  7  1  0
  5  6  1  1
  7  8  2  0
 10  9  1  1
 10 12  1  0
 11 10  1  0
 12 13  1  1
 13  7  1  0
 14 12  1  0
 14 15  2  0
 17 16  1  0
 18 17  2  0
 19 17  1  0
 20 19  1  0
 21 20  1  0
 21 22  1  0
 23 22  1  1
 23 24  1  0
 23 25  1  0
 24 14  1  0
 25 26  2  0
 25 27  1  0
M  END
$$$$
