MTR.pdb
     RDKit          3D

 27 26  0  0  1  0  0  0  0  0999 V2000
    6.8201  -10.7782   27.0690 C   0  0  0  0  0  0  0  0  0  0  0  0
    5.3565  -11.6922   26.6112 S   0  0  0  0  0  0  0  0  0  0  0  0
    5.6839  -13.0035   25.4819 C   0  0  0  0  0  0  0  0  0  0  0  0
    7.0554  -13.5701   25.5064 C   0  0  0  0  0  0  0  0  0  0  0  0
    7.4665  -14.5472   24.4844 C   0  0  2  0  0  0  0  0  0  0  0  0
    6.3473  -15.3926   24.0837 N   0  0  0  0  0  0  0  0  0  0  0  0
    8.5492  -15.4680   25.0334 C   0  0  0  0  0  0  0  0  0  0  0  0
    9.5262  -14.9308   25.5848 O   0  0  0  0  0  0  0  0  0  0  0  0
    7.9573  -19.0316   26.8340 C   0  0  0  0  0  0  0  0  0  0  0  0
    8.9850  -19.1001   25.7556 C   0  0  1  0  0  0  0  0  0  0  0  0
    8.2605  -19.4916   24.5876 O   0  0  0  0  0  0  0  0  0  0  0  0
    9.5774  -17.7493   25.3632 C   0  0  2  0  0  0  0  0  0  0  0  0
    8.4700  -16.8736   24.9332 N   0  0  0  0  0  0  0  0  0  0  0  0
   10.6061  -17.8110   24.3310 C   0  0  0  0  0  0  0  0  0  0  0  0
   10.3153  -18.4321   23.2437 O   0  0  0  0  0  0  0  0  0  0  0  0
   14.8794  -13.8539   19.3828 N   0  0  0  0  0  0  0  0  0  0  0  0
   14.1705  -14.8055   18.6235 C   0  0  0  0  0  0  0  0  0  0  0  0
   14.6884  -15.2589   17.5462 N   0  0  0  0  0  0  0  0  0  0  0  0
   12.9026  -15.2568   19.0480 N   0  0  0  0  0  0  0  0  0  0  0  0
   12.5076  -15.2055   20.4055 C   0  0  0  0  0  0  0  0  0  0  0  0
   13.4604  -15.7991   21.3764 C   0  0  0  0  0  0  0  0  0  0  0  0
   12.9578  -15.9694   22.7597 C   0  0  0  0  0  0  0  0  0  0  0  0
   12.8599  -17.3403   23.3129 C   0  0  2  0  0  0  0  0  0  0  0  0
   11.8798  -17.2460   24.4309 N   0  0  0  0  0  0  0  0  0  0  0  0
   14.1646  -17.7053   23.9980 C   0  0  0  0  0  0  0  0  0  0  0  0
   15.1817  -18.0632   23.3471 O   0  0  0  0  0  0  0  0  0  0  0  0
   14.2704  -17.6569   25.3534 O   0  0  0  0  0  0  0  0  0  0  0  0
  2  1  1  0
  3  2  1  0
  4  5  1  0
  4  3  1  0
  5  7  1  0
  5  6  1  1
  7  8  2  0
 10  9  1  1
 10 12  1  0
 11 10  1  0
 12 13  1  6
 13  7  1  0
 14 12  1  0
 14 15  2  0
 17 16  1  0
 18 17  2  0
 19 17  1  0
 20 19  1  0
 21 20  1  0
 21 22  1  0
 23 22  1  1
 23 24  1  0
 23 25  1  0
 24 14  1  0
 25 26  2  0
 25 27  1  0
M  END
$$$$
