MTR.pdb
     RDKit          3D

 27 26  0  0  1  0  0  0  0  0999 V2000
    7.2384  -11.4357   21.0369 C   0  0  0  0  0  0  0  0  0  0  0  0
    7.7815  -12.3024   19.5738 S   0  0  0  0  0  0  0  0  0  0  0  0
    6.9347  -13.8251   19.3165 C   0  0  0  0  0  0  0  0  0  0  0  0
    7.3705  -14.9731   20.1500 C   0  0  0  0  0  0  0  0  0  0  0  0
    8.4897  -15.8213   19.7071 C   0  0  2  0  0  0  0  0  0  0  0  0
    8.1599  -16.5268   18.4738 N   0  0  0  0  0  0  0  0  0  0  0  0
    8.8041  -16.8790   20.7578 C   0  0  0  0  0  0  0  0  0  0  0  0
    7.9717  -17.7901   20.9139 O   0  0  0  0  0  0  0  0  0  0  0  0
   12.3789  -18.3927   21.3435 C   0  0  0  0  0  0  0  0  0  0  0  0
   11.7495  -18.0785   22.6584 C   0  0  1  0  0  0  0  0  0  0  0  0
   12.2689  -16.7951   23.0124 O   0  0  0  0  0  0  0  0  0  0  0  0
   10.2432  -17.8407   22.5948 C   0  0  2  0  0  0  0  0  0  0  0  0
    9.9827  -16.8487   21.5336 N   0  0  0  0  0  0  0  0  0  0  0  0
    9.6400  -17.4103   23.8512 C   0  0  0  0  0  0  0  0  0  0  0  0
    9.4599  -16.1485   24.0183 O   0  0  0  0  0  0  0  0  0  0  0  0
    4.6439  -22.8053   27.7785 N   0  0  0  0  0  0  0  0  0  0  0  0
    5.9842  -23.0675   28.1240 C   0  0  0  0  0  0  0  0  0  0  0  0
    6.2764  -24.1644   28.7121 N   0  0  0  0  0  0  0  0  0  0  0  0
    6.9958  -22.1309   27.8220 N   0  0  0  0  0  0  0  0  0  0  0  0
    6.6983  -20.8615   27.2729 C   0  0  0  0  0  0  0  0  0  0  0  0
    7.8641  -19.9762   27.0286 C   0  0  0  0  0  0  0  0  0  0  0  0
    7.5565  -18.6261   26.5013 C   0  0  0  0  0  0  0  0  0  0  0  0
    8.6830  -17.7272   26.1581 C   0  0  2  0  0  0  0  0  0  0  0  0
    9.2409  -18.2618   24.8844 N   0  0  0  0  0  0  0  0  0  0  0  0
    9.8074  -17.9175   27.1602 C   0  0  0  0  0  0  0  0  0  0  0  0
    9.7009  -17.5481   28.3594 O   0  0  0  0  0  0  0  0  0  0  0  0
   10.9781  -18.4986   26.7828 O   0  0  0  0  0  0  0  0  0  0  0  0
  2  1  1  0
  3  2  1  0
  4  5  1  0
  4  3  1  0
  5  7  1  0
  5  6  1  6
  7  8  2  0
 10  9  1  6
 10 12  1  0
 11 10  1  0
 12 13  1  6
 13  7  1  0
 14 12  1  0
 14 15  2  0
 17 16  1  0
 18 17  2  0
 19 17  1  0
 20 19  1  0
 21 20  1  0
 21 22  1  0
 23 22  1  1
 23 24  1  0
 23 25  1  0
 24 14  1  0
 25 26  2  0
 25 27  1  0
M  END
$$$$
