MTR.pdb
     RDKit          3D

 27 26  0  0  1  0  0  0  0  0999 V2000
    6.4215  -10.7273   28.1272 C   0  0  0  0  0  0  0  0  0  0  0  0
    7.2382  -11.5336   26.7596 S   0  0  0  0  0  0  0  0  0  0  0  0
    6.4026  -12.9840   26.2118 C   0  0  0  0  0  0  0  0  0  0  0  0
    6.9216  -13.6185   24.9746 C   0  0  0  0  0  0  0  0  0  0  0  0
    6.2062  -14.7578   24.3758 C   0  0  2  0  0  0  0  0  0  0  0  0
    6.0408  -15.8408   25.3389 N   0  0  0  0  0  0  0  0  0  0  0  0
    6.9930  -15.3212   23.1990 C   0  0  0  0  0  0  0  0  0  0  0  0
    7.5493  -16.4218   23.3621 O   0  0  0  0  0  0  0  0  0  0  0  0
    8.1980  -12.9888   19.6923 C   0  0  0  0  0  0  0  0  0  0  0  0
    7.5623  -14.3346   19.6015 C   0  0  1  0  0  0  0  0  0  0  0  0
    8.2687  -15.0001   18.5525 O   0  0  0  0  0  0  0  0  0  0  0  0
    7.8088  -15.2307   20.8122 C   0  0  2  0  0  0  0  0  0  0  0  0
    7.1009  -14.6429   21.9661 N   0  0  0  0  0  0  0  0  0  0  0  0
    9.2147  -15.4465   21.1354 C   0  0  0  0  0  0  0  0  0  0  0  0
    9.6348  -15.0061   22.2677 O   0  0  0  0  0  0  0  0  0  0  0  0
    8.5867  -18.2529   25.5247 N   0  0  0  0  0  0  0  0  0  0  0  0
    9.8947  -18.0244   25.9951 C   0  0  0  0  0  0  0  0  0  0  0  0
   10.0679  -17.3159   27.0451 N   0  0  0  0  0  0  0  0  0  0  0  0
   11.0037  -18.5736   25.3168 N   0  0  0  0  0  0  0  0  0  0  0  0
   11.0140  -18.7357   23.9114 C   0  0  0  0  0  0  0  0  0  0  0  0
   11.2458  -17.5004   23.1222 C   0  0  0  0  0  0  0  0  0  0  0  0
   11.2890  -17.6672   21.6506 C   0  0  0  0  0  0  0  0  0  0  0  0
   11.4933  -16.4656   20.8083 C   0  0  2  0  0  0  0  0  0  0  0  0
   10.1381  -16.0958   20.3124 N   0  0  0  0  0  0  0  0  0  0  0  0
   12.2522  -16.8506   19.5510 C   0  0  0  0  0  0  0  0  0  0  0  0
   11.6602  -17.2077   18.4984 O   0  0  0  0  0  0  0  0  0  0  0  0
   13.6121  -16.8218   19.5287 O   0  0  0  0  0  0  0  0  0  0  0  0
  2  1  1  0
  3  2  1  0
  4  5  1  0
  4  3  1  0
  5  7  1  0
  5  6  1  1
  7  8  2  0
 10  9  1  1
 10 12  1  0
 11 10  1  0
 12 13  1  1
 13  7  1  0
 14 12  1  0
 14 15  2  0
 17 16  1  0
 18 17  2  0
 19 17  1  0
 20 19  1  0
 21 20  1  0
 21 22  1  0
 23 22  1  1
 23 24  1  0
 23 25  1  0
 24 14  1  0
 25 26  2  0
 25 27  1  0
M  END
$$$$
