MTR.pdb
     RDKit          3D

 27 26  0  0  1  0  0  0  0  0999 V2000
    7.5312  -11.2601   19.9084 C   0  0  0  0  0  0  0  0  0  0  0  0
    8.2188  -12.8970   20.0950 S   0  0  0  0  0  0  0  0  0  0  0  0
    7.0250  -14.0987   20.5774 C   0  0  0  0  0  0  0  0  0  0  0  0
    7.5386  -15.4597   20.8718 C   0  0  0  0  0  0  0  0  0  0  0  0
    8.6862  -15.9922   20.1184 C   0  0  2  0  0  0  0  0  0  0  0  0
    8.2656  -16.5331   18.8307 N   0  0  0  0  0  0  0  0  0  0  0  0
    9.3463  -17.1297   20.8878 C   0  0  0  0  0  0  0  0  0  0  0  0
    8.6820  -18.1694   21.0461 O   0  0  0  0  0  0  0  0  0  0  0  0
   12.4320  -18.8535   19.9899 C   0  0  0  0  0  0  0  0  0  0  0  0
   12.5917  -18.4975   21.4291 C   0  0  1  0  0  0  0  0  0  0  0  0
   13.3025  -17.2578   21.4200 O   0  0  0  0  0  0  0  0  0  0  0  0
   11.2872  -18.1473   22.1399 C   0  0  2  0  0  0  0  0  0  0  0  0
   10.6545  -17.0325   21.4083 N   0  0  0  0  0  0  0  0  0  0  0  0
   11.4331  -17.8102   23.5515 C   0  0  0  0  0  0  0  0  0  0  0  0
   11.6302  -16.5746   23.8464 O   0  0  0  0  0  0  0  0  0  0  0  0
   10.9901  -14.8985   29.8117 N   0  0  0  0  0  0  0  0  0  0  0  0
   10.0626  -14.4552   28.8484 C   0  0  0  0  0  0  0  0  0  0  0  0
   10.0890  -13.2348   28.4686 N   0  0  0  0  0  0  0  0  0  0  0  0
    9.1151  -15.3489   28.3052 N   0  0  0  0  0  0  0  0  0  0  0  0
    9.4646  -16.2965   27.3145 C   0  0  0  0  0  0  0  0  0  0  0  0
   10.0865  -17.5488   27.8120 C   0  0  0  0  0  0  0  0  0  0  0  0
   10.4622  -18.5431   26.7797 C   0  0  0  0  0  0  0  0  0  0  0  0
   11.7034  -18.3206   26.0019 C   0  0  2  0  0  0  0  0  0  0  0  0
   11.3726  -18.7240   24.6064 N   0  0  0  0  0  0  0  0  0  0  0  0
   12.7591  -19.3225   26.4335 C   0  0  0  0  0  0  0  0  0  0  0  0
   12.9110  -20.4256   25.8451 O   0  0  0  0  0  0  0  0  0  0  0  0
   13.5795  -19.0521   27.4845 O   0  0  0  0  0  0  0  0  0  0  0  0
  2  1  1  0
  3  2  1  0
  4  5  1  0
  4  3  1  0
  5  7  1  0
  5  6  1  6
  7  8  2  0
 10  9  1  6
 10 12  1  0
 11 10  1  0
 12 13  1  6
 13  7  1  0
 14 12  1  0
 14 15  2  0
 17 16  1  0
 18 17  2  0
 19 17  1  0
 20 19  1  0
 21 20  1  0
 21 22  1  0
 23 22  1  1
 23 24  1  0
 23 25  1  0
 24 14  1  0
 25 26  2  0
 25 27  1  0
M  END
$$$$
