MTR.pdb
     RDKit          3D

 27 26  0  0  1  0  0  0  0  0999 V2000
    6.7705  -10.8788   25.4479 C   0  0  0  0  0  0  0  0  0  0  0  0
    6.0090  -11.9094   26.6909 S   0  0  0  0  0  0  0  0  0  0  0  0
    5.5294  -13.4905   26.0808 C   0  0  0  0  0  0  0  0  0  0  0  0
    6.5550  -14.2431   25.3164 C   0  0  0  0  0  0  0  0  0  0  0  0
    6.1987  -15.5108   24.6573 C   0  0  2  0  0  0  0  0  0  0  0  0
    5.7572  -16.5041   25.6300 N   0  0  0  0  0  0  0  0  0  0  0  0
    7.4082  -16.0950   23.9380 C   0  0  0  0  0  0  0  0  0  0  0  0
    7.8918  -17.1441   24.3994 O   0  0  0  0  0  0  0  0  0  0  0  0
    7.7790  -15.2346   20.0489 C   0  0  0  0  0  0  0  0  0  0  0  0
    9.1180  -15.4923   20.6524 C   0  0  1  0  0  0  0  0  0  0  0  0
    9.6597  -14.1938   20.9029 O   0  0  0  0  0  0  0  0  0  0  0  0
    9.0720  -16.1257   22.0404 C   0  0  2  0  0  0  0  0  0  0  0  0
    7.9740  -15.4908   22.7950 N   0  0  0  0  0  0  0  0  0  0  0  0
   10.3195  -16.0408   22.7913 C   0  0  0  0  0  0  0  0  0  0  0  0
   10.4609  -15.0444   23.5911 O   0  0  0  0  0  0  0  0  0  0  0  0
   11.2938  -17.5634   28.4952 N   0  0  0  0  0  0  0  0  0  0  0  0
   11.7900  -18.8819   28.4934 C   0  0  0  0  0  0  0  0  0  0  0  0
   11.5669  -19.6365   29.5010 N   0  0  0  0  0  0  0  0  0  0  0  0
   12.5239  -19.3671   27.3900 N   0  0  0  0  0  0  0  0  0  0  0  0
   11.9284  -19.5518   26.1201 C   0  0  0  0  0  0  0  0  0  0  0  0
   11.7184  -18.3185   25.3216 C   0  0  0  0  0  0  0  0  0  0  0  0
   12.7550  -18.0161   24.3070 C   0  0  0  0  0  0  0  0  0  0  0  0
   12.6186  -16.7789   23.5035 C   0  0  2  0  0  0  0  0  0  0  0  0
   11.3700  -16.9582   22.7110 N   0  0  0  0  0  0  0  0  0  0  0  0
   13.7156  -16.7314   22.4551 C   0  0  0  0  0  0  0  0  0  0  0  0
   13.5127  -17.0800   21.2621 O   0  0  0  0  0  0  0  0  0  0  0  0
   14.9660  -16.3069   22.7822 O   0  0  0  0  0  0  0  0  0  0  0  0
  2  1  1  0
  3  2  1  0
  4  5  1  0
  4  3  1  0
  5  7  1  0
  5  6  1  1
  7  8  2  0
 10  9  1  1
 10 12  1  0
 11 10  1  0
 12 13  1  1
 13  7  1  0
 14 12  1  0
 14 15  2  0
 17 16  1  0
 18 17  2  0
 19 17  1  0
 20 19  1  0
 21 20  1  0
 21 22  1  0
 23 22  1  1
 23 24  1  0
 23 25  1  0
 24 14  1  0
 25 26  2  0
 25 27  1  0
M  END
$$$$
