MTR.pdb
     RDKit          3D

 27 26  0  0  1  0  0  0  0  0999 V2000
    5.5866  -11.6469   25.6329 C   0  0  0  0  0  0  0  0  0  0  0  0
    6.8366  -12.0000   26.8577 S   0  0  0  0  0  0  0  0  0  0  0  0
    7.0381  -13.7224   27.1649 C   0  0  0  0  0  0  0  0  0  0  0  0
    7.0138  -14.6130   25.9779 C   0  0  0  0  0  0  0  0  0  0  0  0
    7.0685  -16.0740   26.1526 C   0  0  2  0  0  0  0  0  0  0  0  0
    8.0565  -16.4475   27.1587 N   0  0  0  0  0  0  0  0  0  0  0  0
    7.4778  -16.7508   24.8503 C   0  0  0  0  0  0  0  0  0  0  0  0
    6.6652  -17.5438   24.3422 O   0  0  0  0  0  0  0  0  0  0  0  0
    6.5183  -16.7656   22.4974 C   0  0  0  0  0  0  0  0  0  0  0  0
    7.8850  -16.5371   21.9466 C   0  0  1  0  0  0  0  0  0  0  0  0
    8.0325  -15.1159   21.9186 O   0  0  0  0  0  0  0  0  0  0  0  0
    9.0177  -16.9881   22.8647 C   0  0  2  0  0  0  0  0  0  0  0  0
    8.7200  -16.5051   24.2271 N   0  0  0  0  0  0  0  0  0  0  0  0
   10.3475  -16.5541   22.4515 C   0  0  0  0  0  0  0  0  0  0  0  0
   10.7575  -15.4145   22.8828 O   0  0  0  0  0  0  0  0  0  0  0  0
    8.4752  -14.2789   17.9447 N   0  0  0  0  0  0  0  0  0  0  0  0
    8.9679  -13.1863   18.6852 C   0  0  0  0  0  0  0  0  0  0  0  0
    8.3324  -12.0773   18.6633 N   0  0  0  0  0  0  0  0  0  0  0  0
   10.1495  -13.3142   19.4462 N   0  0  0  0  0  0  0  0  0  0  0  0
   11.3732  -13.7189   18.8629 C   0  0  0  0  0  0  0  0  0  0  0  0
   11.8410  -15.0798   19.2261 C   0  0  0  0  0  0  0  0  0  0  0  0
   12.1027  -15.3150   20.6653 C   0  0  0  0  0  0  0  0  0  0  0  0
   12.4698  -16.6820   21.1033 C   0  0  2  0  0  0  0  0  0  0  0  0
   11.2100  -17.2805   21.6269 N   0  0  0  0  0  0  0  0  0  0  0  0
   13.3714  -16.5993   22.3219 C   0  0  0  0  0  0  0  0  0  0  0  0
   12.9112  -16.6196   23.4940 O   0  0  0  0  0  0  0  0  0  0  0  0
   14.7203  -16.4970   22.1777 O   0  0  0  0  0  0  0  0  0  0  0  0
  2  1  1  0
  3  2  1  0
  4  5  1  0
  4  3  1  0
  5  7  1  0
  5  6  1  1
  7  8  2  0
 10  9  1  1
 10 12  1  0
 11 10  1  0
 12 13  1  1
 13  7  1  0
 14 12  1  0
 14 15  2  0
 17 16  1  0
 18 17  2  0
 19 17  1  0
 20 19  1  0
 21 20  1  0
 21 22  1  0
 23 22  1  1
 23 24  1  0
 23 25  1  0
 24 14  1  0
 25 26  2  0
 25 27  1  0
M  END
$$$$
