PHC.pdb
     RDKit          3D

 24 25  0  0  1  0  0  0  0  0999 V2000
   11.3994  -17.3463   16.3329 N   0  0  0  0  0  0  0  0  0  0  0  0
   10.8684  -17.3847   14.9984 C   0  0  0  0  0  0  0  0  0  0  0  0
   11.0773  -16.0228   14.3892 C   0  0  0  0  0  0  0  0  0  0  0  0
   11.2383  -15.1600   15.6484 C   0  0  0  0  0  0  0  0  0  0  0  0
   12.0084  -16.0685   16.5419 C   0  0  1  0  0  0  0  0  0  0  0  0
   12.0150  -15.6550   17.9622 C   0  0  0  0  0  0  0  0  0  0  0  0
   12.6422  -14.6005   18.2452 O   0  0  0  0  0  0  0  0  0  0  0  0
   11.3763  -16.3529   18.9971 N   0  0  0  0  0  0  0  0  0  0  0  0
   11.4923  -16.0161   20.3995 C   0  0  1  0  0  0  0  0  0  0  0  0
   10.3605  -16.5453   21.2186 C   0  0  0  0  0  0  0  0  0  0  0  0
   10.3907  -16.1297   22.6208 C   0  0  0  0  0  0  0  0  0  0  0  0
   10.3010  -16.9786   23.7000 C   0  0  0  0  0  0  0  0  0  0  0  0
   10.3666  -16.2184   24.8181 N   0  0  0  0  0  0  0  0  0  0  0  0
   10.4926  -14.9393   24.4693 C   0  0  0  0  0  0  0  0  0  0  0  0
   10.5061  -14.8982   23.1321 N   0  0  0  0  0  0  0  0  0  0  0  0
   12.7578  -16.5952   20.9780 C   0  0  0  0  0  0  0  0  0  0  0  0
   13.1642  -17.7453   20.6507 O   0  0  0  0  0  0  0  0  0  0  0  0
   13.5383  -15.8664   21.9129 N   0  0  0  0  0  0  0  0  0  0  0  0
   14.7957  -16.3849   22.4580 C   0  0  1  0  0  0  0  0  0  0  0  0
   15.7968  -15.2567   22.4130 C   0  0  0  0  0  0  0  0  0  0  0  0
   16.7001  -15.1864   20.8694 S   0  0  0  0  0  0  0  0  0  0  0  0
   14.6156  -16.7660   23.8893 C   0  0  0  0  0  0  0  0  0  0  0  0
   15.6293  -17.3844   24.5918 O   0  0  0  0  0  0  0  0  0  0  0  0
   13.5448  -16.5374   24.4928 O   0  0  0  0  0  0  0  0  0  0  0  0
  1  5  1  0
  1  2  1  0
  2  3  1  0
  4  3  1  0
  5  4  1  0
  5  6  1  1
  6  8  1  0
  7  6  2  0
  9  8  1  0
  9 10  1  1
 10 11  1  0
 11 15  1  0
 11 12  2  0
 12 13  1  0
 14 13  1  0
 15 14  2  0
 16  9  1  0
 17 16  2  0
 18 16  1  0
 19 22  1  0
 19 18  1  0
 19 20  1  1
 21 20  1  0
 22 23  1  0
 24 22  2  0
M  END
$$$$
