PHC.pdb
     RDKit          3D

 24 25  0  0  1  0  0  0  0  0999 V2000
    9.0370  -14.6440   19.6119 N   0  0  0  0  0  0  0  0  0  0  0  0
    8.9301  -14.3684   18.2057 C   0  0  0  0  0  0  0  0  0  0  0  0
    8.0185  -13.1796   18.0460 C   0  0  0  0  0  0  0  0  0  0  0  0
    7.2542  -13.2153   19.3766 C   0  0  0  0  0  0  0  0  0  0  0  0
    8.3209  -13.6330   20.3277 C   0  0  1  0  0  0  0  0  0  0  0  0
    7.8135  -14.0991   21.6367 C   0  0  0  0  0  0  0  0  0  0  0  0
    7.0289  -13.3288   22.2501 O   0  0  0  0  0  0  0  0  0  0  0  0
    8.1463  -15.3262   22.2280 N   0  0  0  0  0  0  0  0  0  0  0  0
    7.6345  -15.7818   23.5024 C   0  0  1  0  0  0  0  0  0  0  0  0
    7.8138  -17.2507   23.7077 C   0  0  0  0  0  0  0  0  0  0  0  0
    7.1178  -18.0818   22.7256 C   0  0  0  0  0  0  0  0  0  0  0  0
    5.7835  -17.9788   22.4054 C   0  0  0  0  0  0  0  0  0  0  0  0
    5.5213  -18.9140   21.4624 N   0  0  0  0  0  0  0  0  0  0  0  0
    6.6389  -19.5856   21.1914 C   0  0  0  0  0  0  0  0  0  0  0  0
    7.6016  -19.0710   21.9650 N   0  0  0  0  0  0  0  0  0  0  0  0
    8.3503  -15.0921   24.6353 C   0  0  0  0  0  0  0  0  0  0  0  0
    9.6095  -14.9963   24.6560 O   0  0  0  0  0  0  0  0  0  0  0  0
    7.6325  -14.5252   25.7204 N   0  0  0  0  0  0  0  0  0  0  0  0
    8.2977  -13.8093   26.8122 C   0  0  1  0  0  0  0  0  0  0  0  0
    7.2681  -12.9015   27.4389 C   0  0  0  0  0  0  0  0  0  0  0  0
    6.4280  -11.8686   26.2427 S   0  0  0  0  0  0  0  0  0  0  0  0
    8.7421  -14.7727   27.8614 C   0  0  0  0  0  0  0  0  0  0  0  0
    9.4619  -14.3453   28.9580 O   0  0  0  0  0  0  0  0  0  0  0  0
    8.4766  -15.9917   27.7786 O   0  0  0  0  0  0  0  0  0  0  0  0
  1  5  1  0
  1  2  1  0
  2  3  1  0
  4  3  1  0
  5  4  1  0
  5  6  1  1
  6  8  1  0
  7  6  2  0
  9  8  1  0
  9 10  1  1
 10 11  1  0
 11 15  1  0
 11 12  2  0
 12 13  1  0
 14 13  1  0
 15 14  2  0
 16  9  1  0
 17 16  2  0
 18 16  1  0
 19 22  1  0
 19 18  1  0
 19 20  1  1
 21 20  1  0
 22 23  1  0
 24 22  2  0
M  END
$$$$
