PHC.pdb
     RDKit          3D

 24 25  0  0  1  0  0  0  0  0999 V2000
    9.3036  -14.5155   19.4744 N   0  0  0  0  0  0  0  0  0  0  0  0
    9.0530  -14.2161   18.0916 C   0  0  0  0  0  0  0  0  0  0  0  0
    8.0220  -13.1185   18.0463 C   0  0  0  0  0  0  0  0  0  0  0  0
    7.3792  -13.2627   19.4327 C   0  0  0  0  0  0  0  0  0  0  0  0
    8.5571  -13.5980   20.2795 C   0  0  1  0  0  0  0  0  0  0  0  0
    8.2084  -14.1446   21.6090 C   0  0  0  0  0  0  0  0  0  0  0  0
    7.3526  -13.5091   22.2793 O   0  0  0  0  0  0  0  0  0  0  0  0
    8.7625  -15.3083   22.1612 N   0  0  0  0  0  0  0  0  0  0  0  0
    8.3361  -15.8999   23.4110 C   0  0  1  0  0  0  0  0  0  0  0  0
    8.6457  -17.3589   23.4974 C   0  0  0  0  0  0  0  0  0  0  0  0
    7.9819  -18.1729   22.4793 C   0  0  0  0  0  0  0  0  0  0  0  0
    6.6535  -18.0787   22.1330 C   0  0  0  0  0  0  0  0  0  0  0  0
    6.4240  -18.9922   21.1607 N   0  0  0  0  0  0  0  0  0  0  0  0
    7.5561  -19.6421   20.8967 C   0  0  0  0  0  0  0  0  0  0  0  0
    8.4951  -19.1355   21.7040 N   0  0  0  0  0  0  0  0  0  0  0  0
    9.0310  -15.2368   24.5725 C   0  0  0  0  0  0  0  0  0  0  0  0
   10.2690  -14.9890   24.5436 O   0  0  0  0  0  0  0  0  0  0  0  0
    8.3163  -14.8671   25.7417 N   0  0  0  0  0  0  0  0  0  0  0  0
    8.9302  -14.0942   26.8246 C   0  0  1  0  0  0  0  0  0  0  0  0
    7.8312  -13.2874   27.4713 C   0  0  0  0  0  0  0  0  0  0  0  0
    6.8399  -12.3831   26.2868 S   0  0  0  0  0  0  0  0  0  0  0  0
    9.4800  -15.0138   27.8630 C   0  0  0  0  0  0  0  0  0  0  0  0
   10.1983  -14.5252   28.9349 O   0  0  0  0  0  0  0  0  0  0  0  0
    9.3071  -16.2502   27.7934 O   0  0  0  0  0  0  0  0  0  0  0  0
  1  5  1  0
  1  2  1  0
  2  3  1  0
  4  3  1  0
  5  4  1  0
  5  6  1  1
  6  8  1  0
  7  6  2  0
  9  8  1  0
  9 10  1  6
 10 11  1  0
 11 15  1  0
 11 12  2  0
 12 13  1  0
 14 13  1  0
 15 14  2  0
 16  9  1  0
 17 16  2  0
 18 16  1  0
 19 22  1  0
 19 18  1  0
 19 20  1  1
 21 20  1  0
 22 23  1  0
 24 22  2  0
M  END
$$$$
