PHC.pdb
     RDKit          3D

 24 25  0  0  1  0  0  0  0  0999 V2000
    8.5405  -14.9455   19.4757 N   0  0  0  0  0  0  0  0  0  0  0  0
    8.1447  -14.6060   18.1368 C   0  0  0  0  0  0  0  0  0  0  0  0
    7.3888  -13.3046   18.2050 C   0  0  0  0  0  0  0  0  0  0  0  0
    6.9603  -13.2913   19.6788 C   0  0  0  0  0  0  0  0  0  0  0  0
    8.1544  -13.8782   20.3470 C   0  0  1  0  0  0  0  0  0  0  0  0
    7.9104  -14.3237   21.7363 C   0  0  0  0  0  0  0  0  0  0  0  0
    7.4649  -13.4631   22.5401 O   0  0  0  0  0  0  0  0  0  0  0  0
    8.1405  -15.6244   22.2068 N   0  0  0  0  0  0  0  0  0  0  0  0
    7.8123  -16.0779   23.5411 C   0  0  1  0  0  0  0  0  0  0  0  0
    8.2178  -17.4944   23.7882 C   0  0  0  0  0  0  0  0  0  0  0  0
    7.9046  -17.9810   25.1317 C   0  0  0  0  0  0  0  0  0  0  0  0
    6.6357  -18.1818   25.6248 C   0  0  0  0  0  0  0  0  0  0  0  0
    6.7629  -18.6335   26.8946 N   0  0  0  0  0  0  0  0  0  0  0  0
    8.0565  -18.7180   27.2001 C   0  0  0  0  0  0  0  0  0  0  0  0
    8.7398  -18.3190   26.1213 N   0  0  0  0  0  0  0  0  0  0  0  0
    8.5178  -15.2357   24.5728 C   0  0  0  0  0  0  0  0  0  0  0  0
    9.7560  -14.9997   24.4940 O   0  0  0  0  0  0  0  0  0  0  0  0
    7.8135  -14.6774   25.6712 N   0  0  0  0  0  0  0  0  0  0  0  0
    8.4741  -13.8621   26.6939 C   0  0  1  0  0  0  0  0  0  0  0  0
    7.4486  -12.8831   27.2107 C   0  0  0  0  0  0  0  0  0  0  0  0
    6.4116  -12.2104   25.9162 S   0  0  0  0  0  0  0  0  0  0  0  0
    8.8924  -14.7189   27.8415 C   0  0  0  0  0  0  0  0  0  0  0  0
    9.5942  -14.1883   28.9043 O   0  0  0  0  0  0  0  0  0  0  0  0
    8.6207  -15.9389   27.8746 O   0  0  0  0  0  0  0  0  0  0  0  0
  1  5  1  0
  1  2  1  0
  2  3  1  0
  4  3  1  0
  5  4  1  0
  5  6  1  1
  6  8  1  0
  7  6  2  0
  9  8  1  0
  9 10  1  6
 10 11  1  0
 11 15  1  0
 11 12  2  0
 12 13  1  0
 14 13  1  0
 15 14  2  0
 16  9  1  0
 17 16  2  0
 18 16  1  0
 19 22  1  0
 19 18  1  0
 19 20  1  1
 21 20  1  0
 22 23  1  0
 24 22  2  0
M  END
$$$$
