PHC.pdb
     RDKit          3D

 24 25  0  0  1  0  0  0  0  0999 V2000
    9.2621  -14.5825   19.0349 N   0  0  0  0  0  0  0  0  0  0  0  0
    8.9135  -14.3476   17.6609 C   0  0  0  0  0  0  0  0  0  0  0  0
    7.6860  -13.4742   17.6489 C   0  0  0  0  0  0  0  0  0  0  0  0
    7.1288  -13.7321   19.0556 C   0  0  0  0  0  0  0  0  0  0  0  0
    8.3761  -13.8238   19.8636 C   0  0  1  0  0  0  0  0  0  0  0  0
    8.1843  -14.4191   21.2041 C   0  0  0  0  0  0  0  0  0  0  0  0
    7.2190  -13.9857   21.8866 O   0  0  0  0  0  0  0  0  0  0  0  0
    8.9975  -15.4203   21.7539 N   0  0  0  0  0  0  0  0  0  0  0  0
    8.7815  -16.0244   23.0509 C   0  0  1  0  0  0  0  0  0  0  0  0
    9.7713  -17.0993   23.3620 C   0  0  0  0  0  0  0  0  0  0  0  0
    9.6825  -18.2667   22.4850 C   0  0  0  0  0  0  0  0  0  0  0  0
    8.6421  -18.5330   21.6248 C   0  0  0  0  0  0  0  0  0  0  0  0
    8.9278  -19.6959   20.9934 N   0  0  0  0  0  0  0  0  0  0  0  0
   10.0997  -20.1532   21.4307 C   0  0  0  0  0  0  0  0  0  0  0  0
   10.5482  -19.2765   22.3364 N   0  0  0  0  0  0  0  0  0  0  0  0
    8.9029  -14.9906   24.1409 C   0  0  0  0  0  0  0  0  0  0  0  0
    9.8554  -14.1615   24.1576 O   0  0  0  0  0  0  0  0  0  0  0  0
    7.9488  -14.9131   25.1887 N   0  0  0  0  0  0  0  0  0  0  0  0
    8.0040  -13.8784   26.2248 C   0  0  1  0  0  0  0  0  0  0  0  0
    6.6136  -13.3067   26.3546 C   0  0  0  0  0  0  0  0  0  0  0  0
    6.6015  -11.6458   27.0215 S   0  0  0  0  0  0  0  0  0  0  0  0
    8.3615  -14.4875   27.5391 C   0  0  0  0  0  0  0  0  0  0  0  0
    8.8122  -13.7068   28.5837 O   0  0  0  0  0  0  0  0  0  0  0  0
    8.2638  -15.7188   27.7329 O   0  0  0  0  0  0  0  0  0  0  0  0
  1  5  1  0
  1  2  1  0
  2  3  1  0
  4  3  1  0
  5  4  1  0
  5  6  1  1
  6  8  1  0
  7  6  2  0
  9  8  1  0
  9 10  1  1
 10 11  1  0
 11 15  1  0
 11 12  2  0
 12 13  1  0
 14 13  1  0
 15 14  2  0
 16  9  1  0
 17 16  2  0
 18 16  1  0
 19 22  1  0
 19 18  1  0
 19 20  1  1
 21 20  1  0
 22 23  1  0
 24 22  2  0
M  END
$$$$
