PHC.pdb
     RDKit          3D

 24 25  0  0  1  0  0  0  0  0999 V2000
    9.0791  -14.8057   19.0185 N   0  0  0  0  0  0  0  0  0  0  0  0
    8.8864  -14.5051   17.6268 C   0  0  0  0  0  0  0  0  0  0  0  0
    8.0005  -13.2892   17.5452 C   0  0  0  0  0  0  0  0  0  0  0  0
    7.3262  -13.3248   18.9236 C   0  0  0  0  0  0  0  0  0  0  0  0
    8.4416  -13.7867   19.7949 C   0  0  1  0  0  0  0  0  0  0  0  0
    8.0097  -14.2593   21.1284 C   0  0  0  0  0  0  0  0  0  0  0  0
    7.4304  -13.4218   21.8690 O   0  0  0  0  0  0  0  0  0  0  0  0
    8.2020  -15.5614   21.6120 N   0  0  0  0  0  0  0  0  0  0  0  0
    7.7765  -16.0164   22.9180 C   0  0  1  0  0  0  0  0  0  0  0  0
    8.0174  -17.4754   23.1305 C   0  0  0  0  0  0  0  0  0  0  0  0
    7.6465  -17.9556   24.4616 C   0  0  0  0  0  0  0  0  0  0  0  0
    6.3912  -18.3854   24.8265 C   0  0  0  0  0  0  0  0  0  0  0  0
    6.4512  -18.7462   26.1299 N   0  0  0  0  0  0  0  0  0  0  0  0
    7.6905  -18.5556   26.5788 C   0  0  0  0  0  0  0  0  0  0  0  0
    8.4071  -18.0752   25.5563 N   0  0  0  0  0  0  0  0  0  0  0  0
    8.5289  -15.2874   24.0014 C   0  0  0  0  0  0  0  0  0  0  0  0
    9.7914  -15.2604   24.0211 O   0  0  0  0  0  0  0  0  0  0  0  0
    7.8431  -14.6045   25.0395 N   0  0  0  0  0  0  0  0  0  0  0  0
    8.5471  -13.8633   26.0893 C   0  0  1  0  0  0  0  0  0  0  0  0
    7.7580  -12.6032   26.3472 C   0  0  0  0  0  0  0  0  0  0  0  0
    6.0025  -12.9032   26.5245 S   0  0  0  0  0  0  0  0  0  0  0  0
    8.5563  -14.6522   27.3558 C   0  0  0  0  0  0  0  0  0  0  0  0
    9.2793  -14.2270   28.4512 O   0  0  0  0  0  0  0  0  0  0  0  0
    7.9115  -15.7181   27.4622 O   0  0  0  0  0  0  0  0  0  0  0  0
  1  5  1  0
  1  2  1  0
  2  3  1  0
  4  3  1  0
  5  4  1  0
  5  6  1  1
  6  8  1  0
  7  6  2  0
  9  8  1  0
  9 10  1  6
 10 11  1  0
 11 15  1  0
 11 12  2  0
 12 13  1  0
 14 13  1  0
 15 14  2  0
 16  9  1  0
 17 16  2  0
 18 16  1  0
 19 22  1  0
 19 18  1  0
 19 20  1  1
 21 20  1  0
 22 23  1  0
 24 22  2  0
M  END
$$$$
