PHC.pdb
     RDKit          3D

 24 25  0  0  1  0  0  0  0  0999 V2000
    8.7179  -14.9859   19.5190 N   0  0  0  0  0  0  0  0  0  0  0  0
    8.4471  -14.6034   18.1607 C   0  0  0  0  0  0  0  0  0  0  0  0
    7.6723  -13.3120   18.2005 C   0  0  0  0  0  0  0  0  0  0  0  0
    7.1053  -13.3541   19.6263 C   0  0  0  0  0  0  0  0  0  0  0  0
    8.2376  -13.9533   20.3852 C   0  0  1  0  0  0  0  0  0  0  0  0
    7.8680  -14.4493   21.7288 C   0  0  0  0  0  0  0  0  0  0  0  0
    7.3737  -13.6119   22.5287 O   0  0  0  0  0  0  0  0  0  0  0  0
    8.0310  -15.7733   22.1610 N   0  0  0  0  0  0  0  0  0  0  0  0
    7.7133  -16.2403   23.4931 C   0  0  1  0  0  0  0  0  0  0  0  0
    7.7904  -17.7269   23.6201 C   0  0  0  0  0  0  0  0  0  0  0  0
    7.4751  -18.2306   24.9568 C   0  0  0  0  0  0  0  0  0  0  0  0
    8.3586  -18.8841   25.7850 C   0  0  0  0  0  0  0  0  0  0  0  0
    7.6940  -19.1883   26.9245 N   0  0  0  0  0  0  0  0  0  0  0  0
    6.4405  -18.7486   26.8291 C   0  0  0  0  0  0  0  0  0  0  0  0
    6.3198  -18.1687   25.6295 N   0  0  0  0  0  0  0  0  0  0  0  0
    8.6788  -15.6658   24.4977 C   0  0  0  0  0  0  0  0  0  0  0  0
    9.9171  -15.6021   24.2576 O   0  0  0  0  0  0  0  0  0  0  0  0
    8.2287  -15.1753   25.7512 N   0  0  0  0  0  0  0  0  0  0  0  0
    9.1232  -14.5037   26.6976 C   0  0  1  0  0  0  0  0  0  0  0  0
    8.2937  -13.4926   27.4502 C   0  0  0  0  0  0  0  0  0  0  0  0
    7.3649  -12.4091   26.3699 S   0  0  0  0  0  0  0  0  0  0  0  0
    9.6452  -15.4842   27.6939 C   0  0  0  0  0  0  0  0  0  0  0  0
   10.5434  -15.0971   28.6669 O   0  0  0  0  0  0  0  0  0  0  0  0
    9.2857  -16.6816   27.6770 O   0  0  0  0  0  0  0  0  0  0  0  0
  1  5  1  0
  1  2  1  0
  2  3  1  0
  4  3  1  0
  5  4  1  0
  5  6  1  1
  6  8  1  0
  7  6  2  0
  9  8  1  0
  9 10  1  6
 10 11  1  0
 11 15  1  0
 11 12  2  0
 12 13  1  0
 14 13  1  0
 15 14  2  0
 16  9  1  0
 17 16  2  0
 18 16  1  0
 19 22  1  0
 19 18  1  0
 19 20  1  1
 21 20  1  0
 22 23  1  0
 24 22  2  0
M  END
$$$$
