PHC.pdb
     RDKit          3D

 24 25  0  0  1  0  0  0  0  0999 V2000
    8.8738  -14.9250   19.5145 N   0  0  0  0  0  0  0  0  0  0  0  0
    8.5601  -14.5575   18.1614 C   0  0  0  0  0  0  0  0  0  0  0  0
    7.8352  -13.2376   18.2078 C   0  0  0  0  0  0  0  0  0  0  0  0
    7.3277  -13.2326   19.6564 C   0  0  0  0  0  0  0  0  0  0  0  0
    8.4684  -13.8595   20.3793 C   0  0  1  0  0  0  0  0  0  0  0  0
    8.1380  -14.3169   21.7467 C   0  0  0  0  0  0  0  0  0  0  0  0
    7.5883  -13.4797   22.5097 O   0  0  0  0  0  0  0  0  0  0  0  0
    8.3948  -15.6045   22.2389 N   0  0  0  0  0  0  0  0  0  0  0  0
    7.9626  -16.0826   23.5344 C   0  0  1  0  0  0  0  0  0  0  0  0
    7.8871  -17.5729   23.6069 C   0  0  0  0  0  0  0  0  0  0  0  0
    6.8888  -18.1657   22.7171 C   0  0  0  0  0  0  0  0  0  0  0  0
    5.6972  -17.5770   22.3609 C   0  0  0  0  0  0  0  0  0  0  0  0
    5.0562  -18.4330   21.5309 N   0  0  0  0  0  0  0  0  0  0  0  0
    5.8051  -19.5215   21.3637 C   0  0  0  0  0  0  0  0  0  0  0  0
    6.9156  -19.3473   22.0892 N   0  0  0  0  0  0  0  0  0  0  0  0
    8.9250  -15.6417   24.6072 C   0  0  0  0  0  0  0  0  0  0  0  0
   10.1743  -15.7399   24.4505 O   0  0  0  0  0  0  0  0  0  0  0  0
    8.4594  -15.0995   25.8334 N   0  0  0  0  0  0  0  0  0  0  0  0
    9.3692  -14.5687   26.8520 C   0  0  1  0  0  0  0  0  0  0  0  0
    8.6252  -13.4811   27.5871 C   0  0  0  0  0  0  0  0  0  0  0  0
    7.8867  -12.2759   26.4891 S   0  0  0  0  0  0  0  0  0  0  0  0
    9.7036  -15.6313   27.8447 C   0  0  0  0  0  0  0  0  0  0  0  0
   10.6237  -15.4017   28.8468 O   0  0  0  0  0  0  0  0  0  0  0  0
    9.1622  -16.7573   27.7985 O   0  0  0  0  0  0  0  0  0  0  0  0
  1  5  1  0
  1  2  1  0
  2  3  1  0
  4  3  1  0
  5  4  1  0
  5  6  1  1
  6  8  1  0
  7  6  2  0
  9  8  1  0
  9 10  1  6
 10 11  1  0
 11 15  1  0
 11 12  2  0
 12 13  1  0
 14 13  1  0
 15 14  2  0
 16  9  1  0
 17 16  2  0
 18 16  1  0
 19 22  1  0
 19 18  1  0
 19 20  1  1
 21 20  1  0
 22 23  1  0
 24 22  2  0
M  END
$$$$
