PHC.pdb
     RDKit          3D

 24 25  0  0  1  0  0  0  0  0999 V2000
    9.1985  -14.6059   19.3838 N   0  0  0  0  0  0  0  0  0  0  0  0
    8.8514  -14.0903   18.0883 C   0  0  0  0  0  0  0  0  0  0  0  0
    7.7055  -13.1304   18.2758 C   0  0  0  0  0  0  0  0  0  0  0  0
    7.1488  -13.5989   19.6274 C   0  0  0  0  0  0  0  0  0  0  0  0
    8.3950  -13.9438   20.3654 C   0  0  1  0  0  0  0  0  0  0  0  0
    8.1716  -14.7607   21.5782 C   0  0  0  0  0  0  0  0  0  0  0  0
    7.1008  -15.4210   21.6305 O   0  0  0  0  0  0  0  0  0  0  0  0
    9.0639  -14.8445   22.6566 N   0  0  0  0  0  0  0  0  0  0  0  0
    9.5724  -16.0861   23.1985 C   0  0  1  0  0  0  0  0  0  0  0  0
   10.3483  -16.8803   22.1990 C   0  0  0  0  0  0  0  0  0  0  0  0
    9.5357  -17.8037   21.4073 C   0  0  0  0  0  0  0  0  0  0  0  0
    8.1710  -17.9457   21.5114 C   0  0  0  0  0  0  0  0  0  0  0  0
    7.7942  -18.8908   20.6184 N   0  0  0  0  0  0  0  0  0  0  0  0
    8.8708  -19.3336   19.9714 C   0  0  0  0  0  0  0  0  0  0  0  0
    9.9224  -18.6658   20.4594 N   0  0  0  0  0  0  0  0  0  0  0  0
   10.4994  -15.8159   24.3558 C   0  0  0  0  0  0  0  0  0  0  0  0
   11.5337  -15.1045   24.2175 O   0  0  0  0  0  0  0  0  0  0  0  0
   10.2413  -16.3528   25.6440 N   0  0  0  0  0  0  0  0  0  0  0  0
   10.2072  -15.5194   26.8486 C   0  0  1  0  0  0  0  0  0  0  0  0
    8.9645  -14.6679   26.7633 C   0  0  0  0  0  0  0  0  0  0  0  0
    8.8114  -13.5180   28.1263 S   0  0  0  0  0  0  0  0  0  0  0  0
   10.0787  -16.3776   28.0624 C   0  0  0  0  0  0  0  0  0  0  0  0
   10.7180  -16.0435   29.2385 O   0  0  0  0  0  0  0  0  0  0  0  0
    9.3904  -17.4214   28.0504 O   0  0  0  0  0  0  0  0  0  0  0  0
  1  5  1  0
  1  2  1  0
  2  3  1  0
  4  3  1  0
  5  4  1  0
  5  6  1  1
  6  8  1  0
  7  6  2  0
  9  8  1  0
  9 10  1  6
 10 11  1  0
 11 15  1  0
 11 12  2  0
 12 13  1  0
 14 13  1  0
 15 14  2  0
 16  9  1  0
 17 16  2  0
 18 16  1  0
 19 22  1  0
 19 18  1  0
 19 20  1  6
 21 20  1  0
 22 23  1  0
 24 22  2  0
M  END
$$$$
