PHC.pdb
     RDKit          3D

 24 25  0  0  1  0  0  0  0  0999 V2000
    8.0409  -18.8517   17.9347 N   0  0  0  0  0  0  0  0  0  0  0  0
    7.3797  -18.9774   16.6652 C   0  0  0  0  0  0  0  0  0  0  0  0
    8.3046  -18.4171   15.6163 C   0  0  0  0  0  0  0  0  0  0  0  0
    9.2115  -17.5226   16.4726 C   0  0  0  0  0  0  0  0  0  0  0  0
    9.3566  -18.3355   17.7115 C   0  0  1  0  0  0  0  0  0  0  0  0
    9.8877  -17.5825   18.8686 C   0  0  0  0  0  0  0  0  0  0  0  0
   11.0832  -17.1945   18.7951 O   0  0  0  0  0  0  0  0  0  0  0  0
    9.1544  -17.2784   20.0245 N   0  0  0  0  0  0  0  0  0  0  0  0
    9.6740  -16.5223   21.1434 C   0  0  1  0  0  0  0  0  0  0  0  0
    8.6514  -15.6265   21.7629 C   0  0  0  0  0  0  0  0  0  0  0  0
    8.0536  -14.6681   20.8334 C   0  0  0  0  0  0  0  0  0  0  0  0
    8.6213  -13.4732   20.4547 C   0  0  0  0  0  0  0  0  0  0  0  0
    7.7674  -12.8767   19.5900 N   0  0  0  0  0  0  0  0  0  0  0  0
    6.7004  -13.6560   19.4231 C   0  0  0  0  0  0  0  0  0  0  0  0
    6.8859  -14.7411   20.1835 N   0  0  0  0  0  0  0  0  0  0  0  0
   10.1559  -17.4505   22.2288 C   0  0  0  0  0  0  0  0  0  0  0  0
    9.7152  -18.6297   22.3290 O   0  0  0  0  0  0  0  0  0  0  0  0
   11.1240  -17.0303   23.1778 N   0  0  0  0  0  0  0  0  0  0  0  0
   11.7202  -17.9503   24.1499 C   0  0  1  0  0  0  0  0  0  0  0  0
   12.9346  -18.5610   23.4950 C   0  0  0  0  0  0  0  0  0  0  0  0
   13.8266  -19.6726   24.5777 S   0  0  0  0  0  0  0  0  0  0  0  0
   12.1903  -17.1959   25.3484 C   0  0  0  0  0  0  0  0  0  0  0  0
   12.5892  -17.8574   26.4916 O   0  0  0  0  0  0  0  0  0  0  0  0
   12.2367  -15.9465   25.3528 O   0  0  0  0  0  0  0  0  0  0  0  0
  1  5  1  0
  1  2  1  0
  2  3  1  0
  4  3  1  0
  5  4  1  0
  5  6  1  1
  6  8  1  0
  7  6  2  0
  9  8  1  0
  9 10  1  1
 10 11  1  0
 11 15  1  0
 11 12  2  0
 12 13  1  0
 14 13  1  0
 15 14  2  0
 16  9  1  0
 17 16  2  0
 18 16  1  0
 19 22  1  0
 19 18  1  0
 19 20  1  6
 21 20  1  0
 22 23  1  0
 24 22  2  0
M  END
$$$$
