CVK.pdb
     RDKit          3D

 23 22  0  0  1  0  0  0  0  0999 V2000
    8.6194  -14.9344   20.7600 N   0  0  0  0  0  0  0  0  0  0  0  0
    7.9032  -15.4424   21.9023 C   0  0  1  0  0  0  0  0  0  0  0  0
    8.0642  -16.9311   22.0896 C   0  0  0  0  0  0  0  0  0  0  0  0
    7.3384  -17.8639   20.7181 S   0  0  0  0  0  0  0  0  0  0  0  0
    8.3249  -14.7753   23.1635 C   0  0  0  0  0  0  0  0  0  0  0  0
    9.5514  -14.5031   23.2739 O   0  0  0  0  0  0  0  0  0  0  0  0
    6.2733  -11.9948   25.3017 C   0  0  0  0  0  0  0  0  0  0  0  0
    6.7911  -13.1470   26.1245 C   0  0  2  0  0  0  0  0  0  0  0  0
    7.3293  -12.5948   27.4230 C   0  0  0  0  0  0  0  0  0  0  0  0
    7.8690  -13.9153   25.4472 C   0  0  2  0  0  0  0  0  0  0  0  0
    7.4082  -14.4549   24.1988 N   0  0  0  0  0  0  0  0  0  0  0  0
    8.4239  -15.0068   26.2937 C   0  0  0  0  0  0  0  0  0  0  0  0
    7.6672  -15.9242   26.6719 O   0  0  0  0  0  0  0  0  0  0  0  0
    9.7781  -15.0767   26.7065 N   0  0  0  0  0  0  0  0  0  0  0  0
   10.2893  -16.1207   27.5723 C   0  0  1  0  0  0  0  0  0  0  0  0
   11.4849  -16.7927   26.9774 C   0  0  0  0  0  0  0  0  0  0  0  0
   11.2582  -17.5345   25.7186 C   0  0  0  0  0  0  0  0  0  0  0  0
   12.5724  -18.1074   25.1963 C   0  0  0  0  0  0  0  0  0  0  0  0
   12.4124  -18.7721   23.8576 C   0  0  0  0  0  0  0  0  0  0  0  0
   13.7404  -19.1651   23.4193 N   0  0  0  0  0  0  0  0  0  0  0  0
   10.4876  -15.6585   28.9598 C   0  0  0  0  0  0  0  0  0  0  0  0
   10.8355  -16.4589   29.8670 O   0  0  0  0  0  0  0  0  0  0  0  0
   10.3141  -14.3483   29.3700 O   0  0  0  0  0  0  0  0  0  0  0  0
  2  1  1  6
  3  2  1  0
  4  3  1  0
  5  2  1  0
  6  5  2  0
  8  7  1  6
  8 10  1  0
  9  8  1  0
 10 11  1  6
 10 12  1  0
 11  5  1  0
 12 14  1  0
 13 12  2  0
 14 15  1  0
 15 16  1  6
 15 21  1  0
 17 18  1  0
 17 16  1  0
 19 20  1  0
 19 18  1  0
 21 22  2  0
 21 23  1  0
M  END
$$$$
