CVK.pdb
     RDKit          3D

 23 22  0  0  1  0  0  0  0  0999 V2000
    6.8568  -16.8094   21.6322 N   0  0  0  0  0  0  0  0  0  0  0  0
    6.2158  -16.5365   22.8933 C   0  0  1  0  0  0  0  0  0  0  0  0
    5.8731  -17.7857   23.6675 C   0  0  0  0  0  0  0  0  0  0  0  0
    7.3469  -18.7647   24.0512 S   0  0  0  0  0  0  0  0  0  0  0  0
    7.0553  -15.6736   23.7674 C   0  0  0  0  0  0  0  0  0  0  0  0
    8.2954  -15.6766   23.5381 O   0  0  0  0  0  0  0  0  0  0  0  0
    5.8455  -12.0875   25.4742 C   0  0  0  0  0  0  0  0  0  0  0  0
    6.5579  -13.0581   26.3815 C   0  0  2  0  0  0  0  0  0  0  0  0
    7.4857  -12.2721   27.2771 C   0  0  0  0  0  0  0  0  0  0  0  0
    7.3521  -14.0767   25.6448 C   0  0  2  0  0  0  0  0  0  0  0  0
    6.5059  -14.8820   24.8097 N   0  0  0  0  0  0  0  0  0  0  0  0
    8.1517  -14.9520   26.5450 C   0  0  0  0  0  0  0  0  0  0  0  0
    7.5960  -15.9253   27.0937 O   0  0  0  0  0  0  0  0  0  0  0  0
    9.5264  -14.7518   26.8263 N   0  0  0  0  0  0  0  0  0  0  0  0
   10.3304  -15.7041   27.5662 C   0  0  1  0  0  0  0  0  0  0  0  0
   11.5365  -16.1264   26.7904 C   0  0  0  0  0  0  0  0  0  0  0  0
   12.3789  -17.1714   27.4106 C   0  0  0  0  0  0  0  0  0  0  0  0
   13.5492  -17.5213   26.4961 C   0  0  0  0  0  0  0  0  0  0  0  0
   14.4061  -18.6191   27.0620 C   0  0  0  0  0  0  0  0  0  0  0  0
   15.5305  -18.7864   26.1576 N   0  0  0  0  0  0  0  0  0  0  0  0
   10.6271  -15.2488   28.9384 C   0  0  0  0  0  0  0  0  0  0  0  0
   11.1662  -16.0190   29.7755 O   0  0  0  0  0  0  0  0  0  0  0  0
   10.3477  -13.9774   29.4079 O   0  0  0  0  0  0  0  0  0  0  0  0
  2  1  1  6
  3  2  1  0
  4  3  1  0
  5  2  1  0
  6  5  2  0
  8  7  1  6
  8 10  1  0
  9  8  1  0
 10 11  1  1
 10 12  1  0
 11  5  1  0
 12 14  1  0
 13 12  2  0
 14 15  1  0
 15 16  1  6
 15 21  1  0
 17 18  1  0
 17 16  1  0
 19 20  1  0
 19 18  1  0
 21 22  2  0
 21 23  1  0
M  END
$$$$
