CVK.pdb
     RDKit          3D

 23 22  0  0  1  0  0  0  0  0999 V2000
    7.3850  -16.8703   21.5408 N   0  0  0  0  0  0  0  0  0  0  0  0
    6.7652  -16.8525   22.8414 C   0  0  1  0  0  0  0  0  0  0  0  0
    6.7289  -18.2098   23.5000 C   0  0  0  0  0  0  0  0  0  0  0  0
    5.3114  -19.1893   22.9440 S   0  0  0  0  0  0  0  0  0  0  0  0
    7.4498  -15.9128   23.7697 C   0  0  0  0  0  0  0  0  0  0  0  0
    8.7108  -15.9339   23.7640 O   0  0  0  0  0  0  0  0  0  0  0  0
    6.0967  -12.1660   24.9073 C   0  0  0  0  0  0  0  0  0  0  0  0
    6.5550  -13.0763   26.0181 C   0  0  2  0  0  0  0  0  0  0  0  0
    7.3149  -12.2459   27.0249 C   0  0  0  0  0  0  0  0  0  0  0  0
    7.4324  -14.1811   25.5484 C   0  0  2  0  0  0  0  0  0  0  0  0
    6.7367  -15.0318   24.6241 N   0  0  0  0  0  0  0  0  0  0  0  0
    7.9873  -14.9962   26.6636 C   0  0  0  0  0  0  0  0  0  0  0  0
    7.2551  -15.8400   27.2196 O   0  0  0  0  0  0  0  0  0  0  0  0
    9.3149  -14.8772   27.1455 N   0  0  0  0  0  0  0  0  0  0  0  0
    9.8330  -15.6692   28.2433 C   0  0  1  0  0  0  0  0  0  0  0  0
   10.7044  -16.7819   27.7561 C   0  0  0  0  0  0  0  0  0  0  0  0
   11.1983  -17.7227   28.7843 C   0  0  0  0  0  0  0  0  0  0  0  0
   12.0708  -18.7983   28.1439 C   0  0  0  0  0  0  0  0  0  0  0  0
   12.5857  -19.7886   29.1509 C   0  0  0  0  0  0  0  0  0  0  0  0
   13.4039  -20.7438   28.4241 N   0  0  0  0  0  0  0  0  0  0  0  0
   10.4493  -14.8403   29.2976 C   0  0  0  0  0  0  0  0  0  0  0  0
   10.6745  -13.6158   29.1118 O   0  0  0  0  0  0  0  0  0  0  0  0
   10.8203  -15.3218   30.5408 O   0  0  0  0  0  0  0  0  0  0  0  0
  2  1  1  6
  3  2  1  0
  4  3  1  0
  5  2  1  0
  6  5  2  0
  8  7  1  6
  8 10  1  0
  9  8  1  0
 10 11  1  6
 10 12  1  0
 11  5  1  0
 12 14  1  0
 13 12  2  0
 14 15  1  0
 15 16  1  6
 15 21  1  0
 17 18  1  0
 17 16  1  0
 19 20  1  0
 19 18  1  0
 21 22  2  0
 21 23  1  0
M  END
$$$$
