CVK.pdb
     RDKit          3D

 23 22  0  0  1  0  0  0  0  0999 V2000
    8.4574  -14.7618   20.9834 N   0  0  0  0  0  0  0  0  0  0  0  0
    7.4703  -14.8140   22.0317 C   0  0  1  0  0  0  0  0  0  0  0  0
    6.8315  -16.1734   22.1780 C   0  0  0  0  0  0  0  0  0  0  0  0
    6.1431  -16.7652   20.6116 S   0  0  0  0  0  0  0  0  0  0  0  0
    8.0416  -14.4336   23.3516 C   0  0  0  0  0  0  0  0  0  0  0  0
    9.2540  -14.7222   23.5449 O   0  0  0  0  0  0  0  0  0  0  0  0
    5.6381  -12.6534   26.4286 C   0  0  0  0  0  0  0  0  0  0  0  0
    7.0853  -12.2817   26.2286 C   0  0  2  0  0  0  0  0  0  0  0  0
    7.1394  -11.0470   25.3608 C   0  0  0  0  0  0  0  0  0  0  0  0
    7.8844  -13.3567   25.5828 C   0  0  2  0  0  0  0  0  0  0  0  0
    7.2766  -13.7796   24.3525 N   0  0  0  0  0  0  0  0  0  0  0  0
    8.0989  -14.5331   26.4693 C   0  0  0  0  0  0  0  0  0  0  0  0
    8.5683  -14.3532   27.6115 O   0  0  0  0  0  0  0  0  0  0  0  0
    7.8004  -15.8680   26.0979 N   0  0  0  0  0  0  0  0  0  0  0  0
    8.0643  -17.0065   26.9552 C   0  0  1  0  0  0  0  0  0  0  0  0
    7.4518  -18.2577   26.4127 C   0  0  0  0  0  0  0  0  0  0  0  0
    7.6481  -19.4828   27.2170 C   0  0  0  0  0  0  0  0  0  0  0  0
    7.0581  -20.6911   26.4958 C   0  0  0  0  0  0  0  0  0  0  0  0
    7.2785  -21.9706   27.2534 C   0  0  0  0  0  0  0  0  0  0  0  0
    6.4406  -22.9805   26.6304 N   0  0  0  0  0  0  0  0  0  0  0  0
    9.4936  -17.1368   27.2990 C   0  0  0  0  0  0  0  0  0  0  0  0
    9.8653  -17.8432   28.2724 O   0  0  0  0  0  0  0  0  0  0  0  0
   10.5154  -16.5144   26.6036 O   0  0  0  0  0  0  0  0  0  0  0  0
  2  1  1  6
  3  2  1  0
  4  3  1  0
  5  2  1  0
  6  5  2  0
  8  7  1  6
  8 10  1  0
  9  8  1  0
 10 11  1  6
 10 12  1  0
 11  5  1  0
 12 14  1  0
 13 12  2  0
 14 15  1  0
 15 16  1  6
 15 21  1  0
 17 18  1  0
 17 16  1  0
 19 20  1  0
 19 18  1  0
 21 22  2  0
 21 23  1  0
M  END
$$$$
