CVK.pdb
     RDKit          3D

 23 22  0  0  1  0  0  0  0  0999 V2000
    5.0709  -13.1560   26.1421 N   0  0  0  0  0  0  0  0  0  0  0  0
    6.3398  -12.7943   25.5632 C   0  0  1  0  0  0  0  0  0  0  0  0
    7.3759  -12.4166   26.5934 C   0  0  0  0  0  0  0  0  0  0  0  0
    7.1998  -10.6948   27.1245 S   0  0  0  0  0  0  0  0  0  0  0  0
    6.9027  -13.8910   24.7303 C   0  0  0  0  0  0  0  0  0  0  0  0
    6.7123  -15.0671   25.1441 O   0  0  0  0  0  0  0  0  0  0  0  0
    6.9397  -13.8943   20.7584 C   0  0  0  0  0  0  0  0  0  0  0  0
    8.2495  -14.3801   21.3251 C   0  0  2  0  0  0  0  0  0  0  0  0
    8.6730  -15.6051   20.5502 C   0  0  0  0  0  0  0  0  0  0  0  0
    8.1719  -14.7293   22.7684 C   0  0  2  0  0  0  0  0  0  0  0  0
    7.6193  -13.6446   23.5301 N   0  0  0  0  0  0  0  0  0  0  0  0
    9.4869  -15.1283   23.3408 C   0  0  0  0  0  0  0  0  0  0  0  0
   10.1153  -14.3100   24.0428 O   0  0  0  0  0  0  0  0  0  0  0  0
   10.0846  -16.3976   23.1394 N   0  0  0  0  0  0  0  0  0  0  0  0
   11.1402  -16.9191   23.9846 C   0  0  1  0  0  0  0  0  0  0  0  0
   10.5894  -17.6032   25.1944 C   0  0  0  0  0  0  0  0  0  0  0  0
   11.5821  -18.1478   26.1453 C   0  0  0  0  0  0  0  0  0  0  0  0
   10.8814  -18.9209   27.2588 C   0  0  0  0  0  0  0  0  0  0  0  0
   11.8417  -19.4000   28.3114 C   0  0  0  0  0  0  0  0  0  0  0  0
   11.0715  -20.1849   29.2604 N   0  0  0  0  0  0  0  0  0  0  0  0
   12.1213  -17.7253   23.2324 C   0  0  0  0  0  0  0  0  0  0  0  0
   11.7887  -18.3430   22.1872 O   0  0  0  0  0  0  0  0  0  0  0  0
   13.4482  -17.8669   23.5988 O   0  0  0  0  0  0  0  0  0  0  0  0
  2  1  1  1
  3  2  1  0
  4  3  1  0
  5  2  1  0
  6  5  2  0
  8  7  1  6
  8 10  1  0
  9  8  1  0
 10 11  1  1
 10 12  1  0
 11  5  1  0
 12 14  1  0
 13 12  2  0
 14 15  1  0
 15 16  1  1
 15 21  1  0
 17 18  1  0
 17 16  1  0
 19 20  1  0
 19 18  1  0
 21 22  2  0
 21 23  1  0
M  END
$$$$
