CVK.pdb
     RDKit          3D

 23 22  0  0  1  0  0  0  0  0999 V2000
    4.7674  -18.6138   19.5108 N   0  0  0  0  0  0  0  0  0  0  0  0
    5.0452  -17.9440   20.7558 C   0  0  1  0  0  0  0  0  0  0  0  0
    5.1467  -18.8888   21.9282 C   0  0  0  0  0  0  0  0  0  0  0  0
    4.6624  -18.0904   23.4792 S   0  0  0  0  0  0  0  0  0  0  0  0
    6.3061  -17.1569   20.6933 C   0  0  0  0  0  0  0  0  0  0  0  0
    7.3078  -17.7366   20.1920 O   0  0  0  0  0  0  0  0  0  0  0  0
    6.5748  -13.1587   19.9867 C   0  0  0  0  0  0  0  0  0  0  0  0
    7.4151  -13.6408   21.1418 C   0  0  2  0  0  0  0  0  0  0  0  0
    8.7522  -12.9419   21.0761 C   0  0  0  0  0  0  0  0  0  0  0  0
    7.6416  -15.1104   21.1307 C   0  0  2  0  0  0  0  0  0  0  0  0
    6.3951  -15.8223   21.1684 N   0  0  0  0  0  0  0  0  0  0  0  0
    8.5188  -15.5712   22.2416 C   0  0  0  0  0  0  0  0  0  0  0  0
    8.0579  -15.6108   23.4006 O   0  0  0  0  0  0  0  0  0  0  0  0
    9.8662  -15.9757   22.0695 N   0  0  0  0  0  0  0  0  0  0  0  0
   10.6784  -16.5043   23.1473 C   0  0  1  0  0  0  0  0  0  0  0  0
   10.6181  -17.9971   23.2007 C   0  0  0  0  0  0  0  0  0  0  0  0
   11.4116  -18.6449   24.2671 C   0  0  0  0  0  0  0  0  0  0  0  0
   11.2726  -20.1622   24.1843 C   0  0  0  0  0  0  0  0  0  0  0  0
   11.9518  -20.8601   25.3295 C   0  0  0  0  0  0  0  0  0  0  0  0
   11.7946  -22.2870   25.1080 N   0  0  0  0  0  0  0  0  0  0  0  0
   12.0492  -15.9576   23.1436 C   0  0  0  0  0  0  0  0  0  0  0  0
   12.5802  -15.5443   22.0796 O   0  0  0  0  0  0  0  0  0  0  0  0
   12.8433  -15.8552   24.2723 O   0  0  0  0  0  0  0  0  0  0  0  0
  2  1  1  6
  3  2  1  0
  4  3  1  0
  5  2  1  0
  6  5  2  0
  8  7  1  6
  8 10  1  0
  9  8  1  0
 10 11  1  1
 10 12  1  0
 11  5  1  0
 12 14  1  0
 13 12  2  0
 14 15  1  0
 15 16  1  6
 15 21  1  0
 17 18  1  0
 17 16  1  0
 19 20  1  0
 19 18  1  0
 21 22  2  0
 21 23  1  0
M  END
$$$$
