CVK.pdb
     RDKit          3D

 23 22  0  0  1  0  0  0  0  0999 V2000
    5.3250  -19.9101   22.3943 N   0  0  0  0  0  0  0  0  0  0  0  0
    5.4340  -18.6756   23.1292 C   0  0  1  0  0  0  0  0  0  0  0  0
    5.5929  -18.8820   24.6157 C   0  0  0  0  0  0  0  0  0  0  0  0
    7.1826  -19.6469   25.0224 S   0  0  0  0  0  0  0  0  0  0  0  0
    6.5775  -17.8484   22.6584 C   0  0  0  0  0  0  0  0  0  0  0  0
    7.5108  -18.4600   22.0707 O   0  0  0  0  0  0  0  0  0  0  0  0
    6.3303  -14.1250   21.0718 C   0  0  0  0  0  0  0  0  0  0  0  0
    7.3844  -14.2695   22.1398 C   0  0  2  0  0  0  0  0  0  0  0  0
    8.6123  -13.5106   21.6960 C   0  0  0  0  0  0  0  0  0  0  0  0
    7.7640  -15.6828   22.4037 C   0  0  2  0  0  0  0  0  0  0  0  0
    6.6315  -16.4433   22.8522 N   0  0  0  0  0  0  0  0  0  0  0  0
    8.8775  -15.8118   23.3832 C   0  0  0  0  0  0  0  0  0  0  0  0
    8.6931  -15.4450   24.5616 O   0  0  0  0  0  0  0  0  0  0  0  0
   10.1561  -16.3329   23.0627 N   0  0  0  0  0  0  0  0  0  0  0  0
   11.2131  -16.4952   24.0411 C   0  0  1  0  0  0  0  0  0  0  0  0
   11.1145  -17.8104   24.7449 C   0  0  0  0  0  0  0  0  0  0  0  0
   11.3628  -17.7912   26.2024 C   0  0  0  0  0  0  0  0  0  0  0  0
   11.3276  -19.2091   26.7652 C   0  0  0  0  0  0  0  0  0  0  0  0
   11.5721  -19.2399   28.2481 C   0  0  0  0  0  0  0  0  0  0  0  0
   11.4110  -20.6191   28.6745 N   0  0  0  0  0  0  0  0  0  0  0  0
   12.5494  -16.2106   23.4829 C   0  0  0  0  0  0  0  0  0  0  0  0
   12.7679  -16.2965   22.2461 O   0  0  0  0  0  0  0  0  0  0  0  0
   13.6418  -15.8368   24.2457 O   0  0  0  0  0  0  0  0  0  0  0  0
  2  1  1  6
  3  2  1  0
  4  3  1  0
  5  2  1  0
  6  5  2  0
  8  7  1  6
  8 10  1  0
  9  8  1  0
 10 11  1  1
 10 12  1  0
 11  5  1  0
 12 14  1  0
 13 12  2  0
 14 15  1  0
 15 16  1  6
 15 21  1  0
 17 18  1  0
 17 16  1  0
 19 20  1  0
 19 18  1  0
 21 22  2  0
 21 23  1  0
M  END
$$$$
