CVK.pdb
     RDKit          3D

 23 22  0  0  1  0  0  0  0  0999 V2000
    4.8022  -18.8225   19.8910 N   0  0  0  0  0  0  0  0  0  0  0  0
    4.6244  -17.5051   20.4467 C   0  0  1  0  0  0  0  0  0  0  0  0
    3.7936  -17.4996   21.7065 C   0  0  0  0  0  0  0  0  0  0  0  0
    3.2991  -19.1718   22.1933 S   0  0  0  0  0  0  0  0  0  0  0  0
    5.9253  -16.8523   20.7548 C   0  0  0  0  0  0  0  0  0  0  0  0
    6.9331  -17.6077   20.8196 O   0  0  0  0  0  0  0  0  0  0  0  0
    6.8735  -13.0028   19.5945 C   0  0  0  0  0  0  0  0  0  0  0  0
    7.2753  -13.3844   20.9965 C   0  0  2  0  0  0  0  0  0  0  0  0
    8.6430  -12.8052   21.2691 C   0  0  0  0  0  0  0  0  0  0  0  0
    7.3255  -14.8546   21.2139 C   0  0  2  0  0  0  0  0  0  0  0  0
    6.0441  -15.4540   20.9677 N   0  0  0  0  0  0  0  0  0  0  0  0
    7.8016  -15.2243   22.5750 C   0  0  0  0  0  0  0  0  0  0  0  0
    7.0506  -15.0309   23.5527 O   0  0  0  0  0  0  0  0  0  0  0  0
    9.0729  -15.7917   22.8410 N   0  0  0  0  0  0  0  0  0  0  0  0
    9.5178  -16.1488   24.1734 C   0  0  1  0  0  0  0  0  0  0  0  0
    9.1364  -17.5513   24.5236 C   0  0  0  0  0  0  0  0  0  0  0  0
    9.5478  -18.0249   25.8625 C   0  0  0  0  0  0  0  0  0  0  0  0
    9.0298  -19.4391   26.1073 C   0  0  0  0  0  0  0  0  0  0  0  0
    9.4249  -19.9648   27.4590 C   0  0  0  0  0  0  0  0  0  0  0  0
    8.7074  -21.2128   27.6535 N   0  0  0  0  0  0  0  0  0  0  0  0
   10.9438  -15.8402   24.3956 C   0  0  0  0  0  0  0  0  0  0  0  0
   11.4802  -16.0238   25.5196 O   0  0  0  0  0  0  0  0  0  0  0  0
   11.7870  -15.3389   23.4196 O   0  0  0  0  0  0  0  0  0  0  0  0
  2  1  1  1
  3  2  1  0
  4  3  1  0
  5  2  1  0
  6  5  2  0
  8  7  1  6
  8 10  1  0
  9  8  1  0
 10 11  1  1
 10 12  1  0
 11  5  1  0
 12 14  1  0
 13 12  2  0
 14 15  1  0
 15 16  1  6
 15 21  1  0
 17 18  1  0
 17 16  1  0
 19 20  1  0
 19 18  1  0
 21 22  2  0
 21 23  1  0
M  END
$$$$
