CVK.pdb
     RDKit          3D

 23 22  0  0  1  0  0  0  0  0999 V2000
    9.1731  -17.6111   16.3931 N   0  0  0  0  0  0  0  0  0  0  0  0
    8.2326  -17.4504   17.4727 C   0  0  1  0  0  0  0  0  0  0  0  0
    7.8851  -18.7505   18.1555 C   0  0  0  0  0  0  0  0  0  0  0  0
    7.1809  -19.9510   16.9976 S   0  0  0  0  0  0  0  0  0  0  0  0
    8.7342  -16.5096   18.5104 C   0  0  0  0  0  0  0  0  0  0  0  0
    9.9864  -16.4077   18.6203 O   0  0  0  0  0  0  0  0  0  0  0  0
    7.1245  -12.9358   19.5335 C   0  0  0  0  0  0  0  0  0  0  0  0
    7.4352  -13.8239   20.7114 C   0  0  2  0  0  0  0  0  0  0  0  0
    8.0358  -12.9684   21.8014 C   0  0  0  0  0  0  0  0  0  0  0  0
    8.3844  -14.9213   20.3859 C   0  0  2  0  0  0  0  0  0  0  0  0
    7.8632  -15.7581   19.3419 N   0  0  0  0  0  0  0  0  0  0  0  0
    8.7384  -15.7528   21.5688 C   0  0  0  0  0  0  0  0  0  0  0  0
    7.9592  -16.6594   21.9268 O   0  0  0  0  0  0  0  0  0  0  0  0
    9.9219  -15.5821   22.3297 N   0  0  0  0  0  0  0  0  0  0  0  0
   10.5650  -16.6647   23.0475 C   0  0  1  0  0  0  0  0  0  0  0  0
   10.9360  -17.7877   22.1330 C   0  0  0  0  0  0  0  0  0  0  0  0
   11.5084  -18.9905   22.7747 C   0  0  0  0  0  0  0  0  0  0  0  0
   11.8467  -20.0428   21.7228 C   0  0  0  0  0  0  0  0  0  0  0  0
   13.0777  -20.8289   22.0784 C   0  0  0  0  0  0  0  0  0  0  0  0
   13.2211  -21.8674   21.0729 N   0  0  0  0  0  0  0  0  0  0  0  0
   11.6716  -16.1967   23.9046 C   0  0  0  0  0  0  0  0  0  0  0  0
   11.9980  -16.8263   24.9447 O   0  0  0  0  0  0  0  0  0  0  0  0
   12.4217  -15.0626   23.6473 O   0  0  0  0  0  0  0  0  0  0  0  0
  2  1  1  6
  3  2  1  0
  4  3  1  0
  5  2  1  0
  6  5  2  0
  8  7  1  6
  8 10  1  0
  9  8  1  0
 10 11  1  6
 10 12  1  0
 11  5  1  0
 12 14  1  0
 13 12  2  0
 14 15  1  0
 15 16  1  6
 15 21  1  0
 17 18  1  0
 17 16  1  0
 19 20  1  0
 19 18  1  0
 21 22  2  0
 21 23  1  0
M  END
$$$$
