CVK.pdb
     RDKit          3D

 23 22  0  0  1  0  0  0  0  0999 V2000
    6.7403  -16.8590   21.7139 N   0  0  0  0  0  0  0  0  0  0  0  0
    6.3241  -16.7632   23.0899 C   0  0  1  0  0  0  0  0  0  0  0  0
    6.3368  -18.0907   23.8076 C   0  0  0  0  0  0  0  0  0  0  0  0
    4.9126  -19.1131   23.3559 S   0  0  0  0  0  0  0  0  0  0  0  0
    7.1746  -15.8183   23.8626 C   0  0  0  0  0  0  0  0  0  0  0  0
    8.4164  -15.8754   23.6502 O   0  0  0  0  0  0  0  0  0  0  0  0
    6.1485  -12.0173   25.2198 C   0  0  0  0  0  0  0  0  0  0  0  0
    6.7407  -12.9649   26.2317 C   0  0  2  0  0  0  0  0  0  0  0  0
    7.6773  -12.1811   27.1200 C   0  0  0  0  0  0  0  0  0  0  0  0
    7.4939  -14.0885   25.6144 C   0  0  2  0  0  0  0  0  0  0  0  0
    6.6335  -14.8943   24.7944 N   0  0  0  0  0  0  0  0  0  0  0  0
    8.1824  -14.9465   26.6173 C   0  0  0  0  0  0  0  0  0  0  0  0
    7.5066  -15.7466   27.2958 O   0  0  0  0  0  0  0  0  0  0  0  0
    9.5788  -14.9162   26.8583 N   0  0  0  0  0  0  0  0  0  0  0  0
   10.2416  -15.8090   27.7880 C   0  0  1  0  0  0  0  0  0  0  0  0
   11.4873  -16.3901   27.2001 C   0  0  0  0  0  0  0  0  0  0  0  0
   11.3098  -17.2382   26.0019 C   0  0  0  0  0  0  0  0  0  0  0  0
   12.6582  -17.7668   25.5217 C   0  0  0  0  0  0  0  0  0  0  0  0
   12.5224  -18.6821   24.3370 C   0  0  0  0  0  0  0  0  0  0  0  0
   13.8680  -19.0403   23.9232 N   0  0  0  0  0  0  0  0  0  0  0  0
   10.4321  -15.2003   29.1189 C   0  0  0  0  0  0  0  0  0  0  0  0
   10.2899  -13.9616   29.2925 O   0  0  0  0  0  0  0  0  0  0  0  0
   10.7721  -15.9151   30.2540 O   0  0  0  0  0  0  0  0  0  0  0  0
  2  1  1  6
  3  2  1  0
  4  3  1  0
  5  2  1  0
  6  5  2  0
  8  7  1  6
  8 10  1  0
  9  8  1  0
 10 11  1  1
 10 12  1  0
 11  5  1  0
 12 14  1  0
 13 12  2  0
 14 15  1  0
 15 16  1  6
 15 21  1  0
 17 18  1  0
 17 16  1  0
 19 20  1  0
 19 18  1  0
 21 22  2  0
 21 23  1  0
M  END
$$$$
