CVK.pdb
     RDKit          3D

 23 22  0  0  1  0  0  0  0  0999 V2000
    5.0426  -13.3351   26.0418 N   0  0  0  0  0  0  0  0  0  0  0  0
    6.3064  -12.9283   25.4821 C   0  0  1  0  0  0  0  0  0  0  0  0
    7.2916  -12.4552   26.5228 C   0  0  0  0  0  0  0  0  0  0  0  0
    6.9670  -10.7476   27.0291 S   0  0  0  0  0  0  0  0  0  0  0  0
    6.9499  -14.0247   24.7093 C   0  0  0  0  0  0  0  0  0  0  0  0
    6.9211  -15.1730   25.2301 O   0  0  0  0  0  0  0  0  0  0  0  0
    7.0833  -13.9744   20.6219 C   0  0  0  0  0  0  0  0  0  0  0  0
    8.3234  -14.5251   21.2789 C   0  0  2  0  0  0  0  0  0  0  0  0
    8.7615  -15.7479   20.5087 C   0  0  0  0  0  0  0  0  0  0  0  0
    8.1158  -14.9039   22.7018 C   0  0  2  0  0  0  0  0  0  0  0  0
    7.5687  -13.8076   23.4505 N   0  0  0  0  0  0  0  0  0  0  0  0
    9.3584  -15.3931   23.3596 C   0  0  0  0  0  0  0  0  0  0  0  0
   10.1740  -14.5617   23.8079 O   0  0  0  0  0  0  0  0  0  0  0  0
    9.6840  -16.7638   23.5148 N   0  0  0  0  0  0  0  0  0  0  0  0
   10.9176  -17.2208   24.1232 C   0  0  1  0  0  0  0  0  0  0  0  0
   10.6666  -18.2810   25.1470 C   0  0  0  0  0  0  0  0  0  0  0  0
   11.8648  -18.9062   25.7468 C   0  0  0  0  0  0  0  0  0  0  0  0
   11.4563  -19.9546   26.7775 C   0  0  0  0  0  0  0  0  0  0  0  0
   12.6435  -20.6385   27.3960 C   0  0  0  0  0  0  0  0  0  0  0  0
   12.1249  -21.6529   28.2972 N   0  0  0  0  0  0  0  0  0  0  0  0
   11.9421  -17.5807   23.1237 C   0  0  0  0  0  0  0  0  0  0  0  0
   11.6177  -18.0539   22.0032 O   0  0  0  0  0  0  0  0  0  0  0  0
   13.3033  -17.4336   23.3251 O   0  0  0  0  0  0  0  0  0  0  0  0
  2  1  1  1
  3  2  1  0
  4  3  1  0
  5  2  1  0
  6  5  2  0
  8  7  1  6
  8 10  1  0
  9  8  1  0
 10 11  1  1
 10 12  1  0
 11  5  1  0
 12 14  1  0
 13 12  2  0
 14 15  1  0
 15 16  1  6
 15 21  1  0
 17 18  1  0
 17 16  1  0
 19 20  1  0
 19 18  1  0
 21 22  2  0
 21 23  1  0
M  END
$$$$
