YVV.pdb
     RDKit          3D

 27 27  0  0  1  0  0  0  0  0999 V2000
   16.1551  -14.8797   18.2901 O   0  0  0  0  0  0  0  0  0  0  0  0
   14.8781  -14.7480   18.8096 C   0  0  0  0  0  0  0  0  0  0  0  0
   14.6416  -15.3198   20.0423 C   0  0  0  0  0  0  0  0  0  0  0  0
   13.3842  -15.2147   20.6007 C   0  0  0  0  0  0  0  0  0  0  0  0
   12.3676  -14.5405   19.9291 C   0  0  0  0  0  0  0  0  0  0  0  0
   11.0509  -14.4576   20.5655 C   0  0  0  0  0  0  0  0  0  0  0  0
   10.2854  -15.7508   20.4916 C   0  0  2  0  0  0  0  0  0  0  0  0
    9.6716  -15.9515   19.1951 N   0  0  0  0  0  0  0  0  0  0  0  0
    9.2187  -15.8348   21.5124 C   0  0  0  0  0  0  0  0  0  0  0  0
    8.0528  -15.4863   21.1252 O   0  0  0  0  0  0  0  0  0  0  0  0
   12.5936  -13.9649   18.6957 C   0  0  0  0  0  0  0  0  0  0  0  0
   13.8606  -14.0877   18.1653 C   0  0  0  0  0  0  0  0  0  0  0  0
    7.6056  -18.6381   23.0761 C   0  0  0  0  0  0  0  0  0  0  0  0
    8.1133  -17.7568   24.2135 C   0  0  2  0  0  0  0  0  0  0  0  0
    7.1125  -17.8402   25.3348 C   0  0  0  0  0  0  0  0  0  0  0  0
    8.2363  -16.3152   23.7395 C   0  0  2  0  0  0  0  0  0  0  0  0
    9.3898  -16.2527   22.8207 N   0  0  0  0  0  0  0  0  0  0  0  0
    8.6238  -15.4282   24.8673 C   0  0  0  0  0  0  0  0  0  0  0  0
    9.8295  -15.3979   25.2818 O   0  0  0  0  0  0  0  0  0  0  0  0
    5.8600  -13.3039   27.3836 C   0  0  0  0  0  0  0  0  0  0  0  0
    7.1479  -12.6538   26.8928 C   0  0  2  0  0  0  0  0  0  0  0  0
    6.7969  -11.8471   25.6741 C   0  0  0  0  0  0  0  0  0  0  0  0
    8.1945  -13.7084   26.6023 C   0  0  2  0  0  0  0  0  0  0  0  0
    7.7124  -14.5839   25.5306 N   0  0  0  0  0  0  0  0  0  0  0  0
    8.4262  -14.4708   27.8473 C   0  0  0  0  0  0  0  0  0  0  0  0
    9.1778  -13.9102   28.8677 O   0  0  0  0  0  0  0  0  0  0  0  0
    7.9608  -15.6240   28.0169 O   0  0  0  0  0  0  0  0  0  0  0  0
  2 12  2  0
  2  1  1  0
  3  2  1  0
  4  3  2  0
  5  4  1  0
  5 11  2  0
  6  5  1  0
  7  9  1  0
  7  6  1  0
  7  8  1  6
  9 10  2  0
 11 12  1  0
 14 13  1  6
 15 14  1  0
 16 14  1  0
 16 17  1  6
 17  9  1  0
 18 24  1  0
 18 16  1  0
 19 18  2  0
 21 23  1  0
 21 20  1  6
 22 21  1  0
 23 24  1  6
 25 23  1  0
 25 26  1  0
 27 25  2  0
M  END
$$$$
