YVV.pdb
     RDKit          3D

 27 27  0  0  1  0  0  0  0  0999 V2000
    7.6439  -23.4296   29.6287 O   0  0  0  0  0  0  0  0  0  0  0  0
    7.8281  -22.2580   28.9135 C   0  0  0  0  0  0  0  0  0  0  0  0
    6.8353  -21.9051   28.0233 C   0  0  0  0  0  0  0  0  0  0  0  0
    6.9745  -20.7460   27.2879 C   0  0  0  0  0  0  0  0  0  0  0  0
    8.1017  -19.9431   27.4420 C   0  0  0  0  0  0  0  0  0  0  0  0
    8.2006  -18.7231   26.6374 C   0  0  0  0  0  0  0  0  0  0  0  0
    8.4121  -19.0053   25.1747 C   0  0  2  0  0  0  0  0  0  0  0  0
    9.5935  -19.8085   24.9362 N   0  0  0  0  0  0  0  0  0  0  0  0
    8.5394  -17.7687   24.3736 C   0  0  0  0  0  0  0  0  0  0  0  0
    9.7077  -17.2551   24.3296 O   0  0  0  0  0  0  0  0  0  0  0  0
    9.1005  -20.2869   28.3296 C   0  0  0  0  0  0  0  0  0  0  0  0
    8.9312  -21.4511   29.0492 C   0  0  0  0  0  0  0  0  0  0  0  0
    7.2757  -16.1231   20.9276 C   0  0  0  0  0  0  0  0  0  0  0  0
    6.6885  -15.4584   22.1691 C   0  0  2  0  0  0  0  0  0  0  0  0
    6.6014  -13.9808   21.8955 C   0  0  0  0  0  0  0  0  0  0  0  0
    7.5919  -15.7074   23.3690 C   0  0  2  0  0  0  0  0  0  0  0  0
    7.5109  -17.1464   23.6876 N   0  0  0  0  0  0  0  0  0  0  0  0
    7.0461  -15.0381   24.5786 C   0  0  0  0  0  0  0  0  0  0  0  0
    5.9258  -15.4003   25.0686 O   0  0  0  0  0  0  0  0  0  0  0  0
    7.5862  -11.9941   28.4529 C   0  0  0  0  0  0  0  0  0  0  0  0
    8.1411  -12.5324   27.1396 C   0  0  2  0  0  0  0  0  0  0  0  0
    8.5019  -11.3433   26.2941 C   0  0  0  0  0  0  0  0  0  0  0  0
    7.1254  -13.4301   26.4655 C   0  0  2  0  0  0  0  0  0  0  0  0
    7.7130  -13.9928   25.2466 N   0  0  0  0  0  0  0  0  0  0  0  0
    5.9352  -12.6114   26.1525 C   0  0  0  0  0  0  0  0  0  0  0  0
    5.0101  -12.3339   27.1463 O   0  0  0  0  0  0  0  0  0  0  0  0
    5.7283  -12.1514   25.0032 O   0  0  0  0  0  0  0  0  0  0  0  0
  2 12  2  0
  2  1  1  0
  3  2  1  0
  4  3  2  0
  5  4  1  0
  5 11  2  0
  6  5  1  0
  7  9  1  0
  7  6  1  0
  7  8  1  1
  9 10  2  0
 11 12  1  0
 14 13  1  6
 15 14  1  0
 16 14  1  0
 16 17  1  1
 17  9  1  0
 18 24  1  0
 18 16  1  0
 19 18  2  0
 21 23  1  0
 21 20  1  1
 22 21  1  0
 23 24  1  6
 25 23  1  0
 25 26  1  0
 27 25  2  0
M  END
$$$$
