YVV.pdb
     RDKit          3D

 27 27  0  0  1  0  0  0  0  0999 V2000
    5.1762   -9.6530   26.3771 O   0  0  0  0  0  0  0  0  0  0  0  0
    5.5218  -10.9932   26.3275 C   0  0  0  0  0  0  0  0  0  0  0  0
    6.8426  -11.2898   26.0633 C   0  0  0  0  0  0  0  0  0  0  0  0
    7.2346  -12.6114   26.0039 C   0  0  0  0  0  0  0  0  0  0  0  0
    6.3096  -13.6321   26.2079 C   0  0  0  0  0  0  0  0  0  0  0  0
    6.7774  -15.0182   26.1340 C   0  0  0  0  0  0  0  0  0  0  0  0
    6.5050  -15.6548   24.7982 C   0  0  2  0  0  0  0  0  0  0  0  0
    5.4123  -16.6039   24.8555 N   0  0  0  0  0  0  0  0  0  0  0  0
    7.6866  -16.3611   24.2578 C   0  0  0  0  0  0  0  0  0  0  0  0
    7.7834  -17.5961   24.5677 O   0  0  0  0  0  0  0  0  0  0  0  0
    4.9860  -13.3462   26.4727 C   0  0  0  0  0  0  0  0  0  0  0  0
    4.6267  -12.0159   26.5253 C   0  0  0  0  0  0  0  0  0  0  0  0
    9.5632  -15.9535   20.7813 C   0  0  0  0  0  0  0  0  0  0  0  0
   10.5451  -15.9003   21.9479 C   0  0  2  0  0  0  0  0  0  0  0  0
   11.7694  -16.6792   21.5476 C   0  0  0  0  0  0  0  0  0  0  0  0
    9.9176  -16.5277   23.1851 C   0  0  2  0  0  0  0  0  0  0  0  0
    8.6671  -15.7941   23.4623 N   0  0  0  0  0  0  0  0  0  0  0  0
   10.7602  -16.2714   24.3823 C   0  0  0  0  0  0  0  0  0  0  0  0
   11.9336  -15.7881   24.2563 O   0  0  0  0  0  0  0  0  0  0  0  0
   10.0644  -13.9938   27.1743 C   0  0  0  0  0  0  0  0  0  0  0  0
   10.4312  -15.3316   27.8052 C   0  0  2  0  0  0  0  0  0  0  0  0
   11.2260  -15.0302   29.0449 C   0  0  0  0  0  0  0  0  0  0  0  0
   11.2023  -16.1857   26.8215 C   0  0  2  0  0  0  0  0  0  0  0  0
   10.3291  -16.5338   25.6972 N   0  0  0  0  0  0  0  0  0  0  0  0
   11.6583  -17.3974   27.5348 C   0  0  0  0  0  0  0  0  0  0  0  0
   10.8595  -18.5297   27.5480 O   0  0  0  0  0  0  0  0  0  0  0  0
   12.7581  -17.4393   28.1379 O   0  0  0  0  0  0  0  0  0  0  0  0
  2 12  2  0
  2  1  1  0
  3  2  1  0
  4  3  2  0
  5  4  1  0
  5 11  2  0
  6  5  1  0
  7  9  1  0
  7  6  1  0
  7  8  1  1
  9 10  2  0
 11 12  1  0
 14 13  1  6
 15 14  1  0
 16 14  1  0
 16 17  1  1
 17  9  1  0
 18 24  1  0
 18 16  1  0
 19 18  2  0
 21 23  1  0
 21 20  1  6
 22 21  1  0
 23 24  1  6
 25 23  1  0
 25 26  1  0
 27 25  2  0
M  END
$$$$
