YVV.pdb
     RDKit          3D

 27 27  0  0  1  0  0  0  0  0999 V2000
    6.5293  -24.0089   29.4835 O   0  0  0  0  0  0  0  0  0  0  0  0
    6.7988  -22.8572   28.7630 C   0  0  0  0  0  0  0  0  0  0  0  0
    8.0734  -22.3396   28.8634 C   0  0  0  0  0  0  0  0  0  0  0  0
    8.3891  -21.1932   28.1635 C   0  0  0  0  0  0  0  0  0  0  0  0
    7.4342  -20.5669   27.3667 C   0  0  0  0  0  0  0  0  0  0  0  0
    7.8207  -19.3525   26.6446 C   0  0  0  0  0  0  0  0  0  0  0  0
    7.6761  -19.4902   25.1533 C   0  0  2  0  0  0  0  0  0  0  0  0
    8.4637  -20.5848   24.6247 N   0  0  0  0  0  0  0  0  0  0  0  0
    8.0717  -18.2616   24.4316 C   0  0  0  0  0  0  0  0  0  0  0  0
    9.3243  -18.1166   24.2300 O   0  0  0  0  0  0  0  0  0  0  0  0
    6.1565  -21.0763   27.2593 C   0  0  0  0  0  0  0  0  0  0  0  0
    5.8731  -22.2229   27.9711 C   0  0  0  0  0  0  0  0  0  0  0  0
    7.0751  -16.1093   21.2598 C   0  0  0  0  0  0  0  0  0  0  0  0
    6.8234  -15.3602   22.5650 C   0  0  2  0  0  0  0  0  0  0  0  0
    7.1694  -13.9138   22.3331 C   0  0  0  0  0  0  0  0  0  0  0  0
    7.7032  -15.9293   23.6695 C   0  0  2  0  0  0  0  0  0  0  0  0
    7.2048  -17.2853   23.9722 N   0  0  0  0  0  0  0  0  0  0  0  0
    7.4995  -15.1781   24.9357 C   0  0  0  0  0  0  0  0  0  0  0  0
    6.3224  -14.9076   25.3452 O   0  0  0  0  0  0  0  0  0  0  0  0
   10.6699  -13.2134   27.0837 C   0  0  0  0  0  0  0  0  0  0  0  0
    9.4874  -13.8448   27.8084 C   0  0  2  0  0  0  0  0  0  0  0  0
    9.9195  -15.2174   28.2425 C   0  0  0  0  0  0  0  0  0  0  0  0
    8.2735  -13.8833   26.9046 C   0  0  2  0  0  0  0  0  0  0  0  0
    8.5620  -14.7323   25.7454 N   0  0  0  0  0  0  0  0  0  0  0  0
    7.9763  -12.4969   26.4869 C   0  0  0  0  0  0  0  0  0  0  0  0
    8.1599  -12.1221   25.1654 O   0  0  0  0  0  0  0  0  0  0  0  0
    7.5579  -11.6340   27.2965 O   0  0  0  0  0  0  0  0  0  0  0  0
  2 12  2  0
  2  1  1  0
  3  2  1  0
  4  3  2  0
  5  4  1  0
  5 11  2  0
  6  5  1  0
  7  9  1  0
  7  6  1  0
  7  8  1  6
  9 10  2  0
 11 12  1  0
 14 13  1  6
 15 14  1  0
 16 14  1  0
 16 17  1  1
 17  9  1  0
 18 24  1  0
 18 16  1  0
 19 18  2  0
 21 23  1  0
 21 20  1  6
 22 21  1  0
 23 24  1  6
 25 23  1  0
 25 26  1  0
 27 25  2  0
M  END
$$$$
