YVV.pdb
     RDKit          3D

 27 27  0  0  1  0  0  0  0  0999 V2000
    4.2696  -24.1676   25.4401 O   0  0  0  0  0  0  0  0  0  0  0  0
    4.8402  -22.9057   25.4398 C   0  0  0  0  0  0  0  0  0  0  0  0
    6.0721  -22.7754   26.0463 C   0  0  0  0  0  0  0  0  0  0  0  0
    6.6804  -21.5371   26.0709 C   0  0  0  0  0  0  0  0  0  0  0  0
    6.0592  -20.4338   25.4913 C   0  0  0  0  0  0  0  0  0  0  0  0
    6.7474  -19.1419   25.5447 C   0  0  0  0  0  0  0  0  0  0  0  0
    6.7989  -18.4532   24.2079 C   0  0  2  0  0  0  0  0  0  0  0  0
    7.5062  -19.2353   23.2150 N   0  0  0  0  0  0  0  0  0  0  0  0
    7.4473  -17.1261   24.2809 C   0  0  0  0  0  0  0  0  0  0  0  0
    8.6527  -17.0747   23.8626 O   0  0  0  0  0  0  0  0  0  0  0  0
    4.8271  -20.5533   24.8821 C   0  0  0  0  0  0  0  0  0  0  0  0
    4.2461  -21.8039   24.8745 C   0  0  0  0  0  0  0  0  0  0  0  0
    7.5205  -12.3274   25.4963 C   0  0  0  0  0  0  0  0  0  0  0  0
    6.7282  -13.6038   25.2296 C   0  0  2  0  0  0  0  0  0  0  0  0
    5.8399  -13.8449   26.4207 C   0  0  0  0  0  0  0  0  0  0  0  0
    7.6796  -14.7789   25.0507 C   0  0  2  0  0  0  0  0  0  0  0  0
    6.8566  -15.9685   24.7571 N   0  0  0  0  0  0  0  0  0  0  0  0
    8.3461  -15.1090   26.3375 C   0  0  0  0  0  0  0  0  0  0  0  0
    7.6875  -15.6466   27.2880 O   0  0  0  0  0  0  0  0  0  0  0  0
   12.4383  -14.1541   27.2290 C   0  0  0  0  0  0  0  0  0  0  0  0
   11.7792  -15.4384   27.7173 C   0  0  2  0  0  0  0  0  0  0  0  0
   12.1083  -16.5100   26.7160 C   0  0  0  0  0  0  0  0  0  0  0  0
   10.2870  -15.2389   27.8764 C   0  0  2  0  0  0  0  0  0  0  0  0
    9.7105  -14.8608   26.5832 N   0  0  0  0  0  0  0  0  0  0  0  0
   10.0773  -14.1765   28.8825 C   0  0  0  0  0  0  0  0  0  0  0  0
    9.6184  -12.9314   28.4830 O   0  0  0  0  0  0  0  0  0  0  0  0
   10.3029  -14.3629   30.1029 O   0  0  0  0  0  0  0  0  0  0  0  0
  2 12  2  0
  2  1  1  0
  3  2  1  0
  4  3  2  0
  5  4  1  0
  5 11  2  0
  6  5  1  0
  7  9  1  0
  7  6  1  0
  7  8  1  6
  9 10  2  0
 11 12  1  0
 14 13  1  1
 15 14  1  0
 16 14  1  0
 16 17  1  1
 17  9  1  0
 18 24  1  0
 18 16  1  0
 19 18  2  0
 21 23  1  0
 21 20  1  6
 22 21  1  0
 23 24  1  6
 25 23  1  0
 25 26  1  0
 27 25  2  0
M  END
$$$$
