YVV.pdb
     RDKit          3D

 27 27  0  0  1  0  0  0  0  0999 V2000
    6.4140  -14.1793   15.8113 O   0  0  0  0  0  0  0  0  0  0  0  0
    6.6017  -14.2642   17.1809 C   0  0  0  0  0  0  0  0  0  0  0  0
    7.1041  -15.4514   17.6716 C   0  0  0  0  0  0  0  0  0  0  0  0
    7.3081  -15.5832   19.0299 C   0  0  0  0  0  0  0  0  0  0  0  0
    7.0111  -14.5322   19.8937 C   0  0  0  0  0  0  0  0  0  0  0  0
    7.2461  -14.7236   21.3268 C   0  0  0  0  0  0  0  0  0  0  0  0
    8.3035  -13.8026   21.8722 C   0  0  2  0  0  0  0  0  0  0  0  0
    9.5459  -13.8955   21.1335 N   0  0  0  0  0  0  0  0  0  0  0  0
    8.6050  -14.0687   23.2953 C   0  0  0  0  0  0  0  0  0  0  0  0
    9.7116  -14.6632   23.5252 O   0  0  0  0  0  0  0  0  0  0  0  0
    6.5083  -13.3406   19.4132 C   0  0  0  0  0  0  0  0  0  0  0  0
    6.3159  -13.2410   18.0513 C   0  0  0  0  0  0  0  0  0  0  0  0
    5.8757  -13.7115   26.3055 C   0  0  0  0  0  0  0  0  0  0  0  0
    7.2664  -13.1935   26.6598 C   0  0  2  0  0  0  0  0  0  0  0  0
    7.2594  -11.7011   26.4634 C   0  0  0  0  0  0  0  0  0  0  0  0
    8.3063  -13.8280   25.7466 C   0  0  2  0  0  0  0  0  0  0  0  0
    7.7955  -13.7288   24.3653 N   0  0  0  0  0  0  0  0  0  0  0  0
    8.3939  -15.2906   25.9955 C   0  0  0  0  0  0  0  0  0  0  0  0
    7.3706  -16.0357   25.8406 O   0  0  0  0  0  0  0  0  0  0  0  0
   10.4403  -18.0285   24.5390 C   0  0  0  0  0  0  0  0  0  0  0  0
   10.6552  -18.0806   26.0467 C   0  0  2  0  0  0  0  0  0  0  0  0
   10.7287  -19.5319   26.4308 C   0  0  0  0  0  0  0  0  0  0  0  0
    9.5394  -17.3517   26.7648 C   0  0  2  0  0  0  0  0  0  0  0  0
    9.5796  -15.9321   26.4030 N   0  0  0  0  0  0  0  0  0  0  0  0
    9.7406  -17.5354   28.2177 C   0  0  0  0  0  0  0  0  0  0  0  0
    9.5405  -18.7826   28.7877 O   0  0  0  0  0  0  0  0  0  0  0  0
   10.0910  -16.5900   28.9650 O   0  0  0  0  0  0  0  0  0  0  0  0
  2 12  2  0
  2  1  1  0
  3  2  1  0
  4  3  2  0
  5  4  1  0
  5 11  2  0
  6  5  1  0
  7  9  1  0
  7  6  1  0
  7  8  1  6
  9 10  2  0
 11 12  1  0
 14 13  1  6
 15 14  1  0
 16 14  1  0
 16 17  1  6
 17  9  1  0
 18 24  1  0
 18 16  1  0
 19 18  2  0
 21 23  1  0
 21 20  1  6
 22 21  1  0
 23 24  1  1
 25 23  1  0
 25 26  1  0
 27 25  2  0
M  END
$$$$
