YVV.pdb
     RDKit          3D

 27 27  0  0  1  0  0  0  0  0999 V2000
    8.6870  -12.8096   16.6084 O   0  0  0  0  0  0  0  0  0  0  0  0
    8.3199  -13.2730   17.8608 C   0  0  0  0  0  0  0  0  0  0  0  0
    7.0477  -12.9639   18.2948 C   0  0  0  0  0  0  0  0  0  0  0  0
    6.6368  -13.4040   19.5363 C   0  0  0  0  0  0  0  0  0  0  0  0
    7.4946  -14.1501   20.3405 C   0  0  0  0  0  0  0  0  0  0  0  0
    7.0094  -14.5929   21.6497 C   0  0  0  0  0  0  0  0  0  0  0  0
    6.9358  -16.0910   21.7678 C   0  0  2  0  0  0  0  0  0  0  0  0
    5.7937  -16.6410   21.0669 N   0  0  0  0  0  0  0  0  0  0  0  0
    6.8618  -16.5438   23.1736 C   0  0  0  0  0  0  0  0  0  0  0  0
    5.7097  -16.4701   23.7194 O   0  0  0  0  0  0  0  0  0  0  0  0
    8.7691  -14.4648   19.9158 C   0  0  0  0  0  0  0  0  0  0  0  0
    9.1490  -14.0101   18.6706 C   0  0  0  0  0  0  0  0  0  0  0  0
    7.9360  -19.1916   26.9973 C   0  0  0  0  0  0  0  0  0  0  0  0
    7.8087  -18.8320   25.5199 C   0  0  2  0  0  0  0  0  0  0  0  0
    9.0212  -19.3762   24.8133 C   0  0  0  0  0  0  0  0  0  0  0  0
    7.7527  -17.3194   25.3556 C   0  0  2  0  0  0  0  0  0  0  0  0
    7.9231  -17.0280   23.9186 N   0  0  0  0  0  0  0  0  0  0  0  0
    8.9330  -16.6827   25.9961 C   0  0  0  0  0  0  0  0  0  0  0  0
   10.0784  -16.7342   25.4378 O   0  0  0  0  0  0  0  0  0  0  0  0
    8.7056  -14.0465   29.3458 C   0  0  0  0  0  0  0  0  0  0  0  0
    9.8048  -14.0269   28.2906 C   0  0  2  0  0  0  0  0  0  0  0  0
    9.3397  -13.1178   27.1877 C   0  0  0  0  0  0  0  0  0  0  0  0
   10.0890  -15.4298   27.7978 C   0  0  2  0  0  0  0  0  0  0  0  0
    8.8654  -15.9966   27.2242 N   0  0  0  0  0  0  0  0  0  0  0  0
   10.5547  -16.2287   28.9510 C   0  0  0  0  0  0  0  0  0  0  0  0
   11.8119  -15.9970   29.4858 O   0  0  0  0  0  0  0  0  0  0  0  0
    9.8433  -17.1223   29.4712 O   0  0  0  0  0  0  0  0  0  0  0  0
  2 12  2  0
  2  1  1  0
  3  2  1  0
  4  3  2  0
  5  4  1  0
  5 11  2  0
  6  5  1  0
  7  9  1  0
  7  6  1  0
  7  8  1  6
  9 10  2  0
 11 12  1  0
 14 13  1  1
 15 14  1  0
 16 14  1  0
 16 17  1  6
 17  9  1  0
 18 24  1  0
 18 16  1  0
 19 18  2  0
 21 23  1  0
 21 20  1  1
 22 21  1  0
 23 24  1  1
 25 23  1  0
 25 26  1  0
 27 25  2  0
M  END
$$$$
