YVV.pdb
     RDKit          3D

 27 27  0  0  1  0  0  0  0  0999 V2000
    7.3388  -22.1659   30.0786 O   0  0  0  0  0  0  0  0  0  0  0  0
    7.6320  -21.2253   29.1053 C   0  0  0  0  0  0  0  0  0  0  0  0
    6.7763  -21.1536   28.0258 C   0  0  0  0  0  0  0  0  0  0  0  0
    7.0275  -20.2316   27.0305 C   0  0  0  0  0  0  0  0  0  0  0  0
    8.1298  -19.3848   27.1144 C   0  0  0  0  0  0  0  0  0  0  0  0
    8.3513  -18.4241   26.0311 C   0  0  0  0  0  0  0  0  0  0  0  0
    7.4888  -18.6932   24.8280 C   0  0  2  0  0  0  0  0  0  0  0  0
    7.6184  -20.0557   24.3539 N   0  0  0  0  0  0  0  0  0  0  0  0
    7.7993  -17.7919   23.6974 C   0  0  0  0  0  0  0  0  0  0  0  0
    8.7598  -18.1620   22.9416 O   0  0  0  0  0  0  0  0  0  0  0  0
    8.9918  -19.4483   28.1898 C   0  0  0  0  0  0  0  0  0  0  0  0
    8.7129  -20.3802   29.1672 C   0  0  0  0  0  0  0  0  0  0  0  0
    7.2351  -13.7478   20.9500 C   0  0  0  0  0  0  0  0  0  0  0  0
    6.6527  -14.8609   21.8160 C   0  0  2  0  0  0  0  0  0  0  0  0
    5.7350  -14.2207   22.8228 C   0  0  0  0  0  0  0  0  0  0  0  0
    7.7724  -15.5993   22.5365 C   0  0  2  0  0  0  0  0  0  0  0  0
    7.1412  -16.6090   23.4088 N   0  0  0  0  0  0  0  0  0  0  0  0
    8.4706  -14.6900   23.4823 C   0  0  0  0  0  0  0  0  0  0  0  0
    9.2551  -13.7832   23.0480 O   0  0  0  0  0  0  0  0  0  0  0  0
    7.4259  -13.6882   27.6818 C   0  0  0  0  0  0  0  0  0  0  0  0
    7.9311  -12.9499   26.4481 C   0  0  2  0  0  0  0  0  0  0  0  0
    6.7346  -12.6693   25.5827 C   0  0  0  0  0  0  0  0  0  0  0  0
    8.9786  -13.7748   25.7310 C   0  0  2  0  0  0  0  0  0  0  0  0
    8.3131  -14.7649   24.8798 N   0  0  0  0  0  0  0  0  0  0  0  0
    9.8161  -14.4326   26.7560 C   0  0  0  0  0  0  0  0  0  0  0  0
   10.6307  -13.6664   27.5744 O   0  0  0  0  0  0  0  0  0  0  0  0
    9.8170  -15.6776   26.9149 O   0  0  0  0  0  0  0  0  0  0  0  0
  2 12  2  0
  2  1  1  0
  3  2  1  0
  4  3  2  0
  5  4  1  0
  5 11  2  0
  6  5  1  0
  7  9  1  0
  7  6  1  0
  7  8  1  6
  9 10  2  0
 11 12  1  0
 14 13  1  6
 15 14  1  0
 16 14  1  0
 16 17  1  1
 17  9  1  0
 18 24  1  0
 18 16  1  0
 19 18  2  0
 21 23  1  0
 21 20  1  1
 22 21  1  0
 23 24  1  1
 25 23  1  0
 25 26  1  0
 27 25  2  0
M  END
$$$$
