YVV.pdb
     RDKit          3D

 27 27  0  0  1  0  0  0  0  0999 V2000
    5.9550  -10.2830   27.3890 O   0  0  0  0  0  0  0  0  0  0  0  0
    6.4066  -11.5651   27.1239 C   0  0  0  0  0  0  0  0  0  0  0  0
    5.4589  -12.5663   27.0801 C   0  0  0  0  0  0  0  0  0  0  0  0
    5.8612  -13.8601   26.8193 C   0  0  0  0  0  0  0  0  0  0  0  0
    7.2056  -14.1514   26.6031 C   0  0  0  0  0  0  0  0  0  0  0  0
    7.5798  -15.5411   26.3303 C   0  0  0  0  0  0  0  0  0  0  0  0
    6.6998  -16.1894   25.2963 C   0  0  2  0  0  0  0  0  0  0  0  0
    6.0724  -17.3979   25.7899 N   0  0  0  0  0  0  0  0  0  0  0  0
    7.4388  -16.5372   24.0635 C   0  0  0  0  0  0  0  0  0  0  0  0
    7.8904  -17.7303   24.0064 O   0  0  0  0  0  0  0  0  0  0  0  0
    8.1616  -13.1574   26.6447 C   0  0  0  0  0  0  0  0  0  0  0  0
    7.7270  -11.8754   26.9077 C   0  0  0  0  0  0  0  0  0  0  0  0
    8.6697  -13.7834   21.1334 C   0  0  0  0  0  0  0  0  0  0  0  0
    8.1405  -15.1445   20.6915 C   0  0  2  0  0  0  0  0  0  0  0  0
    6.6658  -14.9957   20.4292 C   0  0  0  0  0  0  0  0  0  0  0  0
    8.3665  -16.1727   21.7914 C   0  0  2  0  0  0  0  0  0  0  0  0
    7.6691  -15.6851   22.9974 N   0  0  0  0  0  0  0  0  0  0  0  0
    9.7983  -16.2029   22.1889 C   0  0  0  0  0  0  0  0  0  0  0  0
   10.3020  -15.2466   22.8658 O   0  0  0  0  0  0  0  0  0  0  0  0
   11.4523  -18.5256   24.3876 C   0  0  0  0  0  0  0  0  0  0  0  0
   12.3256  -18.4874   23.1394 C   0  0  2  0  0  0  0  0  0  0  0  0
   13.7543  -18.5694   23.5994 C   0  0  0  0  0  0  0  0  0  0  0  0
   12.0502  -17.2315   22.3403 C   0  0  2  0  0  0  0  0  0  0  0  0
   10.6668  -17.2608   21.8576 N   0  0  0  0  0  0  0  0  0  0  0  0
   13.0055  -17.1940   21.2130 C   0  0  0  0  0  0  0  0  0  0  0  0
   14.1565  -16.4285   21.3116 O   0  0  0  0  0  0  0  0  0  0  0  0
   12.8101  -17.8392   20.1543 O   0  0  0  0  0  0  0  0  0  0  0  0
  2 12  2  0
  2  1  1  0
  3  2  1  0
  4  3  2  0
  5  4  1  0
  5 11  2  0
  6  5  1  0
  7  9  1  0
  7  6  1  0
  7  8  1  1
  9 10  2  0
 11 12  1  0
 14 13  1  1
 15 14  1  0
 16 14  1  0
 16 17  1  1
 17  9  1  0
 18 24  1  0
 18 16  1  0
 19 18  2  0
 21 23  1  0
 21 20  1  1
 22 21  1  0
 23 24  1  6
 25 23  1  0
 25 26  1  0
 27 25  2  0
M  END
$$$$
