YVV.pdb
     RDKit          3D

 27 27  0  0  1  0  0  0  0  0999 V2000
    5.1453  -23.4669   27.7785 O   0  0  0  0  0  0  0  0  0  0  0  0
    5.7356  -22.3489   27.2131 C   0  0  0  0  0  0  0  0  0  0  0  0
    5.3051  -21.1182   27.6633 C   0  0  0  0  0  0  0  0  0  0  0  0
    5.8641  -19.9753   27.1294 C   0  0  0  0  0  0  0  0  0  0  0  0
    6.8496  -20.0628   26.1493 C   0  0  0  0  0  0  0  0  0  0  0  0
    7.4103  -18.8193   25.6156 C   0  0  0  0  0  0  0  0  0  0  0  0
    6.3881  -17.9796   24.8986 C   0  0  2  0  0  0  0  0  0  0  0  0
    5.9653  -18.5782   23.6493 N   0  0  0  0  0  0  0  0  0  0  0  0
    6.8840  -16.6187   24.6004 C   0  0  0  0  0  0  0  0  0  0  0  0
    7.5344  -16.4930   23.5087 O   0  0  0  0  0  0  0  0  0  0  0  0
    7.2872  -21.2887   25.6921 C   0  0  0  0  0  0  0  0  0  0  0  0
    6.7086  -22.4114   26.2458 C   0  0  0  0  0  0  0  0  0  0  0  0
    7.3271  -12.8793   27.3597 C   0  0  0  0  0  0  0  0  0  0  0  0
    7.0463  -13.1640   25.8872 C   0  0  2  0  0  0  0  0  0  0  0  0
    5.5564  -13.3067   25.7277 C   0  0  0  0  0  0  0  0  0  0  0  0
    7.7351  -14.4549   25.4663 C   0  0  2  0  0  0  0  0  0  0  0  0
    6.6981  -15.5031   25.3984 N   0  0  0  0  0  0  0  0  0  0  0  0
    8.6555  -14.9254   26.5343 C   0  0  0  0  0  0  0  0  0  0  0  0
    8.1991  -15.5205   27.5658 O   0  0  0  0  0  0  0  0  0  0  0  0
   12.9181  -14.2125   26.6032 C   0  0  0  0  0  0  0  0  0  0  0  0
   12.2889  -15.5417   27.0025 C   0  0  2  0  0  0  0  0  0  0  0  0
   12.3045  -16.4199   25.7828 C   0  0  0  0  0  0  0  0  0  0  0  0
   10.8890  -15.3242   27.5364 C   0  0  2  0  0  0  0  0  0  0  0  0
   10.0521  -14.7540   26.4771 N   0  0  0  0  0  0  0  0  0  0  0  0
   10.9828  -14.4064   28.6913 C   0  0  0  0  0  0  0  0  0  0  0  0
   11.5633  -14.8428   29.8715 O   0  0  0  0  0  0  0  0  0  0  0  0
   10.5499  -13.2295   28.6419 O   0  0  0  0  0  0  0  0  0  0  0  0
  2 12  2  0
  2  1  1  0
  3  2  1  0
  4  3  2  0
  5  4  1  0
  5 11  2  0
  6  5  1  0
  7  9  1  0
  7  6  1  0
  7  8  1  6
  9 10  2  0
 11 12  1  0
 14 13  1  1
 15 14  1  0
 16 14  1  0
 16 17  1  1
 17  9  1  0
 18 24  1  0
 18 16  1  0
 19 18  2  0
 21 23  1  0
 21 20  1  6
 22 21  1  0
 23 24  1  6
 25 23  1  0
 25 26  1  0
 27 25  2  0
M  END
$$$$
