YVV.pdb
     RDKit          3D

 27 27  0  0  1  0  0  0  0  0999 V2000
   11.2651  -18.6156   30.1986 O   0  0  0  0  0  0  0  0  0  0  0  0
   10.4350  -18.6698   29.0913 C   0  0  0  0  0  0  0  0  0  0  0  0
    9.4120  -19.5946   29.1203 C   0  0  0  0  0  0  0  0  0  0  0  0
    8.5589  -19.6857   28.0397 C   0  0  0  0  0  0  0  0  0  0  0  0
    8.7281  -18.8554   26.9347 C   0  0  0  0  0  0  0  0  0  0  0  0
    7.7952  -18.9924   25.8138 C   0  0  0  0  0  0  0  0  0  0  0  0
    6.4708  -18.3271   26.0731 C   0  0  2  0  0  0  0  0  0  0  0  0
    5.3569  -19.1137   25.5848 N   0  0  0  0  0  0  0  0  0  0  0  0
    6.3811  -16.9871   25.4540 C   0  0  0  0  0  0  0  0  0  0  0  0
    5.8365  -16.9456   24.2997 O   0  0  0  0  0  0  0  0  0  0  0  0
    9.7480  -17.9270   26.8955 C   0  0  0  0  0  0  0  0  0  0  0  0
   10.5830  -17.8612   27.9911 C   0  0  0  0  0  0  0  0  0  0  0  0
    5.8249  -13.1324   27.1369 C   0  0  0  0  0  0  0  0  0  0  0  0
    7.0408  -13.4141   26.2593 C   0  0  2  0  0  0  0  0  0  0  0  0
    7.3578  -12.1520   25.5028 C   0  0  0  0  0  0  0  0  0  0  0  0
    6.7266  -14.5363   25.2796 C   0  0  2  0  0  0  0  0  0  0  0  0
    6.8329  -15.8082   26.0211 N   0  0  0  0  0  0  0  0  0  0  0  0
    7.7864  -14.6329   24.2421 C   0  0  0  0  0  0  0  0  0  0  0  0
    8.8636  -15.2744   24.4754 O   0  0  0  0  0  0  0  0  0  0  0  0
    8.5523  -14.6455   19.3418 C   0  0  0  0  0  0  0  0  0  0  0  0
    7.9214  -13.9701   20.5533 C   0  0  2  0  0  0  0  0  0  0  0  0
    8.3312  -12.5244   20.5141 C   0  0  0  0  0  0  0  0  0  0  0  0
    8.3597  -14.6573   21.8291 C   0  0  2  0  0  0  0  0  0  0  0  0
    7.6722  -14.0432   22.9683 N   0  0  0  0  0  0  0  0  0  0  0  0
    9.8250  -14.5021   21.9462 C   0  0  0  0  0  0  0  0  0  0  0  0
   10.6637  -15.2695   21.1537 O   0  0  0  0  0  0  0  0  0  0  0  0
   10.3453  -13.6892   22.7485 O   0  0  0  0  0  0  0  0  0  0  0  0
  2 12  2  0
  2  1  1  0
  3  2  1  0
  4  3  2  0
  5  4  1  0
  5 11  2  0
  6  5  1  0
  7  9  1  0
  7  6  1  0
  7  8  1  6
  9 10  2  0
 11 12  1  0
 14 13  1  1
 15 14  1  0
 16 14  1  0
 16 17  1  1
 17  9  1  0
 18 24  1  0
 18 16  1  0
 19 18  2  0
 21 23  1  0
 21 20  1  6
 22 21  1  0
 23 24  1  1
 25 23  1  0
 25 26  1  0
 27 25  2  0
M  END
$$$$
