IIT.pdb
     RDKit          3D

 24 23  0  0  1  0  0  0  0  0999 V2000
    7.1000  -16.7097   18.1223 C   0  0  0  0  0  0  0  0  0  0  0  0
    6.9862  -15.3629   18.7907 C   0  0  0  0  0  0  0  0  0  0  0  0
    7.6081  -15.2858   20.1492 C   0  0  2  0  0  0  0  0  0  0  0  0
    7.4342  -16.5680   20.9368 C   0  0  0  0  0  0  0  0  0  0  0  0
    7.4632  -14.0354   20.9127 C   0  0  2  0  0  0  0  0  0  0  0  0
    7.9169  -12.9494   20.0229 N   0  0  0  0  0  0  0  0  0  0  0  0
    8.0790  -13.9359   22.2296 C   0  0  0  0  0  0  0  0  0  0  0  0
    9.3235  -13.7689   22.3339 O   0  0  0  0  0  0  0  0  0  0  0  0
    5.6742  -11.3229   26.2582 C   0  0  0  0  0  0  0  0  0  0  0  0
    6.7467  -11.9200   25.4016 C   0  0  0  0  0  0  0  0  0  0  0  0
    7.0363  -13.3676   25.7722 C   0  0  2  0  0  0  0  0  0  0  0  0
    7.5263  -13.4656   27.1931 C   0  0  0  0  0  0  0  0  0  0  0  0
    8.0353  -13.9675   24.7763 C   0  0  2  0  0  0  0  0  0  0  0  0
    7.3727  -14.0142   23.4559 N   0  0  0  0  0  0  0  0  0  0  0  0
    8.2906  -15.3774   25.1328 C   0  0  0  0  0  0  0  0  0  0  0  0
    7.2704  -16.1466   25.2478 O   0  0  0  0  0  0  0  0  0  0  0  0
    9.9492  -17.9405   23.2811 C   0  0  0  0  0  0  0  0  0  0  0  0
   10.5837  -18.0895   24.6603 C   0  0  1  0  0  0  0  0  0  0  0  0
   11.8318  -17.4874   24.6321 O   0  0  0  0  0  0  0  0  0  0  0  0
    9.6403  -17.4143   25.6389 C   0  0  2  0  0  0  0  0  0  0  0  0
    9.5379  -15.9857   25.3601 N   0  0  0  0  0  0  0  0  0  0  0  0
   10.2038  -17.5823   26.9911 C   0  0  0  0  0  0  0  0  0  0  0  0
   10.6362  -16.6058   27.6492 O   0  0  0  0  0  0  0  0  0  0  0  0
   10.2790  -18.8511   27.5998 O   0  0  0  0  0  0  0  0  0  0  0  0
  1  2  1  0
  3  2  1  0
  3  4  1  1
  5  6  1  6
  5  3  1  0
  7  8  2  0
  7  5  1  0
 10  9  1  0
 11 12  1  1
 11 10  1  0
 13 14  1  6
 13 11  1  0
 14  7  1  0
 15 13  1  0
 16 15  2  0
 18 17  1  6
 18 19  1  0
 20 18  1  0
 20 21  1  6
 21 15  1  0
 22 20  1  0
 23 22  2  0
 24 22  1  0
M  END
$$$$
