IIT.pdb
     RDKit          3D

 24 23  0  0  1  0  0  0  0  0999 V2000
    6.3247  -18.2198   19.0471 C   0  0  0  0  0  0  0  0  0  0  0  0
    6.4123  -16.7730   19.4628 C   0  0  0  0  0  0  0  0  0  0  0  0
    7.1014  -16.5398   20.7701 C   0  0  2  0  0  0  0  0  0  0  0  0
    6.7040  -17.5559   21.8209 C   0  0  0  0  0  0  0  0  0  0  0  0
    7.2552  -15.1530   21.2398 C   0  0  2  0  0  0  0  0  0  0  0  0
    7.8649  -14.4016   20.1260 N   0  0  0  0  0  0  0  0  0  0  0  0
    7.9544  -14.9051   22.4940 C   0  0  0  0  0  0  0  0  0  0  0  0
    9.2126  -14.9582   22.5369 O   0  0  0  0  0  0  0  0  0  0  0  0
    5.8863  -11.3523   25.9783 C   0  0  0  0  0  0  0  0  0  0  0  0
    6.8590  -12.1800   25.1977 C   0  0  0  0  0  0  0  0  0  0  0  0
    7.1664  -13.5029   25.8850 C   0  0  2  0  0  0  0  0  0  0  0  0
    7.7903  -13.2688   27.2357 C   0  0  0  0  0  0  0  0  0  0  0  0
    8.0574  -14.3618   24.9806 C   0  0  2  0  0  0  0  0  0  0  0  0
    7.3182  -14.5969   23.7224 N   0  0  0  0  0  0  0  0  0  0  0  0
    8.2241  -15.6971   25.5883 C   0  0  0  0  0  0  0  0  0  0  0  0
    7.1564  -16.3530   25.8633 O   0  0  0  0  0  0  0  0  0  0  0  0
    9.4415  -18.6687   24.1750 C   0  0  0  0  0  0  0  0  0  0  0  0
   10.2186  -18.6296   25.4871 C   0  0  1  0  0  0  0  0  0  0  0  0
   11.4942  -18.1564   25.2230 O   0  0  0  0  0  0  0  0  0  0  0  0
    9.4439  -17.7112   26.4143 C   0  0  2  0  0  0  0  0  0  0  0  0
    9.4321  -16.3451   25.9016 N   0  0  0  0  0  0  0  0  0  0  0  0
   10.1315  -17.7096   27.7187 C   0  0  0  0  0  0  0  0  0  0  0  0
   10.6820  -16.6768   28.1705 O   0  0  0  0  0  0  0  0  0  0  0  0
   10.1976  -18.8723   28.5122 O   0  0  0  0  0  0  0  0  0  0  0  0
  1  2  1  0
  3  2  1  0
  3  4  1  1
  5  6  1  6
  5  3  1  0
  7  8  2  0
  7  5  1  0
 10  9  1  0
 11 12  1  1
 11 10  1  0
 13 14  1  6
 13 11  1  0
 14  7  1  0
 15 13  1  0
 16 15  2  0
 18 17  1  6
 18 19  1  0
 20 18  1  0
 20 21  1  6
 21 15  1  0
 22 20  1  0
 23 22  2  0
 24 22  1  0
M  END
$$$$
