IIT.pdb
     RDKit          3D

 24 23  0  0  1  0  0  0  0  0999 V2000
    7.7789  -11.2817   27.2150 C   0  0  0  0  0  0  0  0  0  0  0  0
    8.0719  -12.7495   27.0324 C   0  0  0  0  0  0  0  0  0  0  0  0
    7.2986  -13.4084   25.9341 C   0  0  2  0  0  0  0  0  0  0  0  0
    5.8252  -13.0595   25.9765 C   0  0  0  0  0  0  0  0  0  0  0  0
    7.6212  -14.8041   25.5943 C   0  0  2  0  0  0  0  0  0  0  0  0
    9.0243  -15.0171   25.9978 N   0  0  0  0  0  0  0  0  0  0  0  0
    7.3814  -15.2743   24.2361 C   0  0  0  0  0  0  0  0  0  0  0  0
    6.3239  -15.9025   23.9627 O   0  0  0  0  0  0  0  0  0  0  0  0
    7.7511  -11.7879   20.5650 C   0  0  0  0  0  0  0  0  0  0  0  0
    7.4145  -13.0320   21.3262 C   0  0  0  0  0  0  0  0  0  0  0  0
    8.2508  -14.2220   20.8774 C   0  0  2  0  0  0  0  0  0  0  0  0
    8.0299  -14.5067   19.4150 C   0  0  0  0  0  0  0  0  0  0  0  0
    7.9338  -15.4383   21.7548 C   0  0  2  0  0  0  0  0  0  0  0  0
    8.2697  -15.0802   23.1490 N   0  0  0  0  0  0  0  0  0  0  0  0
    8.8502  -16.5421   21.4057 C   0  0  0  0  0  0  0  0  0  0  0  0
   10.0838  -16.4040   21.7296 O   0  0  0  0  0  0  0  0  0  0  0  0
    8.4029  -20.5209   21.7317 C   0  0  0  0  0  0  0  0  0  0  0  0
    8.9090  -20.1317   20.3463 C   0  0  1  0  0  0  0  0  0  0  0  0
    7.8307  -20.1243   19.4756 O   0  0  0  0  0  0  0  0  0  0  0  0
    9.5407  -18.7595   20.4929 C   0  0  2  0  0  0  0  0  0  0  0  0
    8.5247  -17.7453   20.7549 N   0  0  0  0  0  0  0  0  0  0  0  0
   10.2015  -18.4329   19.2159 C   0  0  0  0  0  0  0  0  0  0  0  0
    9.7013  -17.6147   18.4071 O   0  0  0  0  0  0  0  0  0  0  0  0
   11.4255  -19.0292   18.8521 O   0  0  0  0  0  0  0  0  0  0  0  0
  1  2  1  0
  3  2  1  0
  3  4  1  1
  5  6  1  6
  5  3  1  0
  7  8  2  0
  7  5  1  0
 10  9  1  0
 11 12  1  6
 11 10  1  0
 13 14  1  1
 13 11  1  0
 14  7  1  0
 15 13  1  0
 16 15  2  0
 18 17  1  1
 18 19  1  0
 20 18  1  0
 20 21  1  6
 21 15  1  0
 22 20  1  0
 23 22  2  0
 24 22  1  0
M  END
$$$$
