IIT.pdb
     RDKit          3D

 24 23  0  0  1  0  0  0  0  0999 V2000
    7.7197  -11.7210   19.5787 C   0  0  0  0  0  0  0  0  0  0  0  0
    7.6468  -12.7155   20.7097 C   0  0  0  0  0  0  0  0  0  0  0  0
    7.9727  -14.1240   20.3243 C   0  0  2  0  0  0  0  0  0  0  0  0
    7.3604  -14.5147   18.9950 C   0  0  0  0  0  0  0  0  0  0  0  0
    7.9503  -15.1570   21.3730 C   0  0  2  0  0  0  0  0  0  0  0  0
    6.5356  -15.5343   21.5553 N   0  0  0  0  0  0  0  0  0  0  0  0
    8.5959  -14.8818   22.6501 C   0  0  0  0  0  0  0  0  0  0  0  0
    9.8293  -14.6281   22.6925 O   0  0  0  0  0  0  0  0  0  0  0  0
    6.1109  -11.9743   26.3645 C   0  0  0  0  0  0  0  0  0  0  0  0
    7.1838  -12.6215   25.5456 C   0  0  0  0  0  0  0  0  0  0  0  0
    7.6228  -13.9570   26.1292 C   0  0  2  0  0  0  0  0  0  0  0  0
    8.1862  -13.7735   27.5139 C   0  0  0  0  0  0  0  0  0  0  0  0
    8.6247  -14.6308   25.1848 C   0  0  2  0  0  0  0  0  0  0  0  0
    7.9318  -14.8743   23.9021 N   0  0  0  0  0  0  0  0  0  0  0  0
    8.9591  -15.9711   25.7062 C   0  0  0  0  0  0  0  0  0  0  0  0
    7.9814  -16.7636   25.9552 O   0  0  0  0  0  0  0  0  0  0  0  0
   11.7645  -19.9139   26.1374 C   0  0  0  0  0  0  0  0  0  0  0  0
   11.6679  -18.4628   25.6770 C   0  0  1  0  0  0  0  0  0  0  0  0
   11.5826  -18.4504   24.2936 O   0  0  0  0  0  0  0  0  0  0  0  0
   10.4275  -17.8879   26.3359 C   0  0  2  0  0  0  0  0  0  0  0  0
   10.2409  -16.4900   25.9613 N   0  0  0  0  0  0  0  0  0  0  0  0
   10.6260  -17.9529   27.7956 C   0  0  0  0  0  0  0  0  0  0  0  0
   11.0650  -16.9726   28.4437 O   0  0  0  0  0  0  0  0  0  0  0  0
   10.3294  -19.1230   28.5228 O   0  0  0  0  0  0  0  0  0  0  0  0
  1  2  1  0
  3  2  1  0
  3  4  1  6
  5  6  1  1
  5  3  1  0
  7  8  2  0
  7  5  1  0
 10  9  1  0
 11 12  1  1
 11 10  1  0
 13 14  1  6
 13 11  1  0
 14  7  1  0
 15 13  1  0
 16 15  2  0
 18 17  1  1
 18 19  1  0
 20 18  1  0
 20 21  1  6
 21 15  1  0
 22 20  1  0
 23 22  2  0
 24 22  1  0
M  END
$$$$
