IIT.pdb
     RDKit          3D

 24 23  0  0  1  0  0  0  0  0999 V2000
    8.0003  -21.3879   28.2219 C   0  0  0  0  0  0  0  0  0  0  0  0
    6.9086  -20.3723   27.9971 C   0  0  0  0  0  0  0  0  0  0  0  0
    7.1776  -19.4013   26.8912 C   0  0  2  0  0  0  0  0  0  0  0  0
    8.6255  -18.9577   26.8524 C   0  0  0  0  0  0  0  0  0  0  0  0
    6.1758  -18.3567   26.6212 C   0  0  2  0  0  0  0  0  0  0  0  0
    4.9252  -19.0589   26.2753 N   0  0  0  0  0  0  0  0  0  0  0  0
    6.4857  -17.3140   25.6516 C   0  0  0  0  0  0  0  0  0  0  0  0
    6.3150  -17.5248   24.4211 O   0  0  0  0  0  0  0  0  0  0  0  0
    6.2829  -12.0651   27.1399 C   0  0  0  0  0  0  0  0  0  0  0  0
    6.1683  -13.2117   26.1845 C   0  0  0  0  0  0  0  0  0  0  0  0
    7.5281  -13.6813   25.6874 C   0  0  2  0  0  0  0  0  0  0  0  0
    8.1619  -12.6379   24.8053 C   0  0  0  0  0  0  0  0  0  0  0  0
    7.3809  -15.0283   24.9709 C   0  0  2  0  0  0  0  0  0  0  0  0
    6.9838  -16.0293   25.9834 N   0  0  0  0  0  0  0  0  0  0  0  0
    8.7044  -15.4693   24.4871 C   0  0  0  0  0  0  0  0  0  0  0  0
    9.6326  -15.6052   25.3622 O   0  0  0  0  0  0  0  0  0  0  0  0
    9.3322  -18.3346   21.8323 C   0  0  0  0  0  0  0  0  0  0  0  0
   10.2865  -17.1747   21.5662 C   0  0  1  0  0  0  0  0  0  0  0  0
    9.7801  -16.4275   20.5144 O   0  0  0  0  0  0  0  0  0  0  0  0
   10.3598  -16.3782   22.8560 C   0  0  2  0  0  0  0  0  0  0  0  0
    9.0711  -15.7660   23.1624 N   0  0  0  0  0  0  0  0  0  0  0  0
   11.3483  -15.3016   22.6609 C   0  0  0  0  0  0  0  0  0  0  0  0
   11.0027  -14.0985   22.5793 O   0  0  0  0  0  0  0  0  0  0  0  0
   12.7254  -15.5828   22.5581 O   0  0  0  0  0  0  0  0  0  0  0  0
  1  2  1  0
  3  2  1  0
  3  4  1  1
  5  6  1  6
  5  3  1  0
  7  8  2  0
  7  5  1  0
 10  9  1  0
 11 12  1  6
 11 10  1  0
 13 14  1  1
 13 11  1  0
 14  7  1  0
 15 13  1  0
 16 15  2  0
 18 17  1  1
 18 19  1  0
 20 18  1  0
 20 21  1  6
 21 15  1  0
 22 20  1  0
 23 22  2  0
 24 22  1  0
M  END
$$$$
