IIT.pdb
     RDKit          3D

 24 23  0  0  1  0  0  0  0  0999 V2000
    8.1962  -21.3418   25.0517 C   0  0  0  0  0  0  0  0  0  0  0  0
    7.5692  -20.2089   24.2792 C   0  0  0  0  0  0  0  0  0  0  0  0
    6.3027  -19.6757   24.8710 C   0  0  2  0  0  0  0  0  0  0  0  0
    5.3601  -20.7788   25.3060 C   0  0  0  0  0  0  0  0  0  0  0  0
    5.6755  -18.5045   24.2366 C   0  0  2  0  0  0  0  0  0  0  0  0
    5.0906  -18.9812   22.9687 N   0  0  0  0  0  0  0  0  0  0  0  0
    6.4699  -17.2995   24.0357 C   0  0  0  0  0  0  0  0  0  0  0  0
    7.0051  -17.0750   22.9173 O   0  0  0  0  0  0  0  0  0  0  0  0
    5.6799  -12.6936   27.0473 C   0  0  0  0  0  0  0  0  0  0  0  0
    6.0142  -13.5484   25.8649 C   0  0  0  0  0  0  0  0  0  0  0  0
    7.3861  -14.1948   25.9948 C   0  0  2  0  0  0  0  0  0  0  0  0
    8.4637  -13.1454   26.0734 C   0  0  0  0  0  0  0  0  0  0  0  0
    7.6131  -15.1667   24.8314 C   0  0  2  0  0  0  0  0  0  0  0  0
    6.7046  -16.3159   25.0287 N   0  0  0  0  0  0  0  0  0  0  0  0
    8.9755  -15.7281   24.9253 C   0  0  0  0  0  0  0  0  0  0  0  0
    9.2461  -16.4396   25.9580 O   0  0  0  0  0  0  0  0  0  0  0  0
   11.7336  -15.3562   21.8805 C   0  0  0  0  0  0  0  0  0  0  0  0
   11.4831  -16.7589   22.4254 C   0  0  1  0  0  0  0  0  0  0  0  0
   12.6526  -17.4912   22.2948 O   0  0  0  0  0  0  0  0  0  0  0  0
   11.0706  -16.5857   23.8756 C   0  0  2  0  0  0  0  0  0  0  0  0
   10.0244  -15.5762   24.0011 N   0  0  0  0  0  0  0  0  0  0  0  0
   12.2531  -16.1214   24.6242 C   0  0  0  0  0  0  0  0  0  0  0  0
   12.3082  -14.9695   25.1180 O   0  0  0  0  0  0  0  0  0  0  0  0
   13.3722  -16.9564   24.8151 O   0  0  0  0  0  0  0  0  0  0  0  0
  1  2  1  0
  3  2  1  0
  3  4  1  6
  5  6  1  6
  5  3  1  0
  7  8  2  0
  7  5  1  0
 10  9  1  0
 11 12  1  6
 11 10  1  0
 13 14  1  1
 13 11  1  0
 14  7  1  0
 15 13  1  0
 16 15  2  0
 18 17  1  1
 18 19  1  0
 20 18  1  0
 20 21  1  6
 21 15  1  0
 22 20  1  0
 23 22  2  0
 24 22  1  0
M  END
$$$$
