IIT.pdb
     RDKit          3D

 24 23  0  0  1  0  0  0  0  0999 V2000
    7.5096  -12.1670   18.6431 C   0  0  0  0  0  0  0  0  0  0  0  0
    7.0833  -13.1694   19.6858 C   0  0  0  0  0  0  0  0  0  0  0  0
    8.0966  -14.2289   19.9840 C   0  0  2  0  0  0  0  0  0  0  0  0
    8.6639  -14.8548   18.7266 C   0  0  0  0  0  0  0  0  0  0  0  0
    7.8333  -15.1512   21.1010 C   0  0  2  0  0  0  0  0  0  0  0  0
    6.3662  -15.2505   21.2217 N   0  0  0  0  0  0  0  0  0  0  0  0
    8.4567  -14.8931   22.3925 C   0  0  0  0  0  0  0  0  0  0  0  0
    9.7117  -14.8316   22.4870 O   0  0  0  0  0  0  0  0  0  0  0  0
    7.1974  -12.0401   27.7043 C   0  0  0  0  0  0  0  0  0  0  0  0
    8.0173  -13.0824   27.0100 C   0  0  0  0  0  0  0  0  0  0  0  0
    7.3792  -13.5382   25.7054 C   0  0  2  0  0  0  0  0  0  0  0  0
    6.1344  -14.3425   25.9742 C   0  0  0  0  0  0  0  0  0  0  0  0
    8.4019  -14.3209   24.8741 C   0  0  2  0  0  0  0  0  0  0  0  0
    7.7470  -14.6973   23.6036 N   0  0  0  0  0  0  0  0  0  0  0  0
    8.7022  -15.5989   25.5498 C   0  0  0  0  0  0  0  0  0  0  0  0
    7.7284  -16.4177   25.7141 O   0  0  0  0  0  0  0  0  0  0  0  0
   11.5655  -19.4109   26.2419 C   0  0  0  0  0  0  0  0  0  0  0  0
   11.4403  -17.9606   25.7862 C   0  0  1  0  0  0  0  0  0  0  0  0
   11.3912  -17.9427   24.4012 O   0  0  0  0  0  0  0  0  0  0  0  0
   10.1672  -17.4244   26.4148 C   0  0  2  0  0  0  0  0  0  0  0  0
    9.9481  -16.0319   26.0374 N   0  0  0  0  0  0  0  0  0  0  0  0
   10.3314  -17.4861   27.8789 C   0  0  0  0  0  0  0  0  0  0  0  0
   10.5952  -16.4628   28.5547 O   0  0  0  0  0  0  0  0  0  0  0  0
   10.1979  -18.7017   28.5793 O   0  0  0  0  0  0  0  0  0  0  0  0
  1  2  1  0
  3  2  1  0
  3  4  1  6
  5  6  1  1
  5  3  1  0
  7  8  2  0
  7  5  1  0
 10  9  1  0
 11 12  1  1
 11 10  1  0
 13 14  1  6
 13 11  1  0
 14  7  1  0
 15 13  1  0
 16 15  2  0
 18 17  1  1
 18 19  1  0
 20 18  1  0
 20 21  1  6
 21 15  1  0
 22 20  1  0
 23 22  2  0
 24 22  1  0
M  END
$$$$
