IIT.pdb
     RDKit          3D

 24 23  0  0  1  0  0  0  0  0999 V2000
    5.9861  -22.2063   25.5052 C   0  0  0  0  0  0  0  0  0  0  0  0
    5.2777  -20.9150   25.1822 C   0  0  0  0  0  0  0  0  0  0  0  0
    6.1818  -19.7859   24.7997 C   0  0  2  0  0  0  0  0  0  0  0  0
    7.4459  -19.7513   25.6335 C   0  0  0  0  0  0  0  0  0  0  0  0
    5.5753  -18.4798   24.4937 C   0  0  2  0  0  0  0  0  0  0  0  0
    4.5997  -18.7169   23.4125 N   0  0  0  0  0  0  0  0  0  0  0  0
    6.4447  -17.3512   24.1873 C   0  0  0  0  0  0  0  0  0  0  0  0
    6.9048  -17.2063   23.0233 O   0  0  0  0  0  0  0  0  0  0  0  0
    5.9101  -12.6942   26.9278 C   0  0  0  0  0  0  0  0  0  0  0  0
    6.2282  -13.5757   25.7606 C   0  0  0  0  0  0  0  0  0  0  0  0
    7.6190  -14.1850   25.8651 C   0  0  2  0  0  0  0  0  0  0  0  0
    8.6771  -13.1188   25.7546 C   0  0  0  0  0  0  0  0  0  0  0  0
    7.7880  -15.2759   24.8015 C   0  0  2  0  0  0  0  0  0  0  0  0
    6.8358  -16.3601   25.1219 N   0  0  0  0  0  0  0  0  0  0  0  0
    9.1272  -15.8829   24.9356 C   0  0  0  0  0  0  0  0  0  0  0  0
    9.4679  -16.2991   26.1004 O   0  0  0  0  0  0  0  0  0  0  0  0
   10.4742  -18.8921   23.2681 C   0  0  0  0  0  0  0  0  0  0  0  0
   11.5637  -17.8380   23.0985 C   0  0  1  0  0  0  0  0  0  0  0  0
   11.4609  -17.3079   21.8220 O   0  0  0  0  0  0  0  0  0  0  0  0
   11.3214  -16.7969   24.1759 C   0  0  2  0  0  0  0  0  0  0  0  0
   10.0849  -16.0648   23.9221 N   0  0  0  0  0  0  0  0  0  0  0  0
   12.4424  -15.8400   24.1330 C   0  0  0  0  0  0  0  0  0  0  0  0
   13.6063  -16.1758   24.4589 O   0  0  0  0  0  0  0  0  0  0  0  0
   12.2498  -14.5057   23.7227 O   0  0  0  0  0  0  0  0  0  0  0  0
  1  2  1  0
  3  2  1  0
  3  4  1  1
  5  6  1  6
  5  3  1  0
  7  8  2  0
  7  5  1  0
 10  9  1  0
 11 12  1  6
 11 10  1  0
 13 14  1  1
 13 11  1  0
 14  7  1  0
 15 13  1  0
 16 15  2  0
 18 17  1  6
 18 19  1  0
 20 18  1  0
 20 21  1  6
 21 15  1  0
 22 20  1  0
 23 22  2  0
 24 22  1  0
M  END
$$$$
