IIT.pdb
     RDKit          3D

 24 23  0  0  1  0  0  0  0  0999 V2000
    8.4835  -11.9457   19.5163 C   0  0  0  0  0  0  0  0  0  0  0  0
    8.1478  -12.8428   20.6808 C   0  0  0  0  0  0  0  0  0  0  0  0
    8.1149  -14.3026   20.3548 C   0  0  2  0  0  0  0  0  0  0  0  0
    7.3381  -14.5932   19.0874 C   0  0  0  0  0  0  0  0  0  0  0  0
    7.9299  -15.2595   21.4583 C   0  0  2  0  0  0  0  0  0  0  0  0
    6.4734  -15.4230   21.6277 N   0  0  0  0  0  0  0  0  0  0  0  0
    8.5880  -15.0042   22.7330 C   0  0  0  0  0  0  0  0  0  0  0  0
    9.8425  -14.8992   22.7863 O   0  0  0  0  0  0  0  0  0  0  0  0
    5.9799  -12.0285   26.4118 C   0  0  0  0  0  0  0  0  0  0  0  0
    7.0945  -12.6197   25.6064 C   0  0  0  0  0  0  0  0  0  0  0  0
    7.5914  -13.9332   26.1933 C   0  0  2  0  0  0  0  0  0  0  0  0
    8.1597  -13.7192   27.5716 C   0  0  0  0  0  0  0  0  0  0  0  0
    8.6105  -14.5725   25.2434 C   0  0  2  0  0  0  0  0  0  0  0  0
    7.9141  -14.8579   23.9712 N   0  0  0  0  0  0  0  0  0  0  0  0
    9.0081  -15.8921   25.7730 C   0  0  0  0  0  0  0  0  0  0  0  0
    8.0672  -16.6884   26.1286 O   0  0  0  0  0  0  0  0  0  0  0  0
   12.0460  -19.6970   26.2819 C   0  0  0  0  0  0  0  0  0  0  0  0
   11.8816  -18.2663   25.7787 C   0  0  1  0  0  0  0  0  0  0  0  0
   11.9080  -18.2871   24.3931 O   0  0  0  0  0  0  0  0  0  0  0  0
   10.5533  -17.7729   26.3224 C   0  0  2  0  0  0  0  0  0  0  0  0
   10.3146  -16.3874   25.9317 N   0  0  0  0  0  0  0  0  0  0  0  0
   10.6228  -17.8329   27.7940 C   0  0  0  0  0  0  0  0  0  0  0  0
   11.0548  -16.8697   28.4717 O   0  0  0  0  0  0  0  0  0  0  0  0
   10.2050  -18.9788   28.4999 O   0  0  0  0  0  0  0  0  0  0  0  0
  1  2  1  0
  3  2  1  0
  3  4  1  6
  5  6  1  1
  5  3  1  0
  7  8  2  0
  7  5  1  0
 10  9  1  0
 11 12  1  1
 11 10  1  0
 13 14  1  6
 13 11  1  0
 14  7  1  0
 15 13  1  0
 16 15  2  0
 18 17  1  1
 18 19  1  0
 20 18  1  0
 20 21  1  1
 21 15  1  0
 22 20  1  0
 23 22  2  0
 24 22  1  0
M  END
$$$$
