IIT.pdb
     RDKit          3D

 24 23  0  0  1  0  0  0  0  0999 V2000
    6.0916  -22.1839   25.2056 C   0  0  0  0  0  0  0  0  0  0  0  0
    5.3519  -20.8793   25.0487 C   0  0  0  0  0  0  0  0  0  0  0  0
    6.2146  -19.7129   24.6832 C   0  0  2  0  0  0  0  0  0  0  0  0
    7.5170  -19.6940   25.4563 C   0  0  0  0  0  0  0  0  0  0  0  0
    5.5691  -18.4061   24.4754 C   0  0  2  0  0  0  0  0  0  0  0  0
    4.5620  -18.6032   23.4152 N   0  0  0  0  0  0  0  0  0  0  0  0
    6.4022  -17.2410   24.2073 C   0  0  0  0  0  0  0  0  0  0  0  0
    6.8402  -17.0318   23.0446 O   0  0  0  0  0  0  0  0  0  0  0  0
    5.8281  -12.6095   27.1337 C   0  0  0  0  0  0  0  0  0  0  0  0
    6.0980  -13.5037   25.9641 C   0  0  0  0  0  0  0  0  0  0  0  0
    7.4899  -14.1170   26.0209 C   0  0  2  0  0  0  0  0  0  0  0  0
    8.5463  -13.0440   25.9832 C   0  0  0  0  0  0  0  0  0  0  0  0
    7.6570  -15.1293   24.8821 C   0  0  2  0  0  0  0  0  0  0  0  0
    6.7802  -16.2815   25.1796 N   0  0  0  0  0  0  0  0  0  0  0  0
    9.0308  -15.6696   24.9090 C   0  0  0  0  0  0  0  0  0  0  0  0
    9.3617  -16.3786   25.9257 O   0  0  0  0  0  0  0  0  0  0  0  0
   12.9571  -17.3555   22.4960 C   0  0  0  0  0  0  0  0  0  0  0  0
   11.7801  -16.3856   22.4637 C   0  0  1  0  0  0  0  0  0  0  0  0
   10.8956  -16.8078   21.4837 O   0  0  0  0  0  0  0  0  0  0  0  0
   11.1627  -16.4177   23.8497 C   0  0  2  0  0  0  0  0  0  0  0  0
   10.0316  -15.4998   23.9360 N   0  0  0  0  0  0  0  0  0  0  0  0
   12.1921  -15.9743   24.8079 C   0  0  0  0  0  0  0  0  0  0  0  0
   12.1605  -14.8318   25.3249 O   0  0  0  0  0  0  0  0  0  0  0  0
   13.2558  -16.8196   25.1820 O   0  0  0  0  0  0  0  0  0  0  0  0
  1  2  1  0
  3  2  1  0
  3  4  1  1
  5  6  1  6
  5  3  1  0
  7  8  2  0
  7  5  1  0
 10  9  1  0
 11 12  1  6
 11 10  1  0
 13 14  1  1
 13 11  1  0
 14  7  1  0
 15 13  1  0
 16 15  2  0
 18 17  1  1
 18 19  1  0
 20 18  1  0
 20 21  1  6
 21 15  1  0
 22 20  1  0
 23 22  2  0
 24 22  1  0
M  END
$$$$
