IIT.pdb
     RDKit          3D

 24 23  0  0  1  0  0  0  0  0999 V2000
    5.9525  -17.7972   18.9485 C   0  0  0  0  0  0  0  0  0  0  0  0
    6.0972  -16.3611   19.3847 C   0  0  0  0  0  0  0  0  0  0  0  0
    6.9226  -16.1632   20.6168 C   0  0  2  0  0  0  0  0  0  0  0  0
    6.7363  -17.2813   21.6216 C   0  0  0  0  0  0  0  0  0  0  0  0
    7.0273  -14.8051   21.1754 C   0  0  2  0  0  0  0  0  0  0  0  0
    7.4707  -13.9336   20.0705 N   0  0  0  0  0  0  0  0  0  0  0  0
    7.8289  -14.5936   22.3737 C   0  0  0  0  0  0  0  0  0  0  0  0
    9.0864  -14.5737   22.2970 O   0  0  0  0  0  0  0  0  0  0  0  0
    5.7964  -11.4309   26.1599 C   0  0  0  0  0  0  0  0  0  0  0  0
    6.8596  -12.0801   25.3301 C   0  0  0  0  0  0  0  0  0  0  0  0
    7.2870  -13.4262   25.8975 C   0  0  2  0  0  0  0  0  0  0  0  0
    8.0102  -13.2468   27.2065 C   0  0  0  0  0  0  0  0  0  0  0  0
    8.1393  -14.1757   24.8673 C   0  0  2  0  0  0  0  0  0  0  0  0
    7.2975  -14.4007   23.6734 N   0  0  0  0  0  0  0  0  0  0  0  0
    8.4513  -15.5238   25.3822 C   0  0  0  0  0  0  0  0  0  0  0  0
    7.4615  -16.2596   25.7356 O   0  0  0  0  0  0  0  0  0  0  0  0
    9.9717  -18.3559   23.6935 C   0  0  0  0  0  0  0  0  0  0  0  0
   10.7476  -18.2702   25.0040 C   0  0  1  0  0  0  0  0  0  0  0  0
   11.9533  -17.6336   24.7546 O   0  0  0  0  0  0  0  0  0  0  0  0
    9.8725  -17.4896   25.9676 C   0  0  2  0  0  0  0  0  0  0  0  0
    9.7229  -16.1060   25.5290 N   0  0  0  0  0  0  0  0  0  0  0  0
   10.5439  -17.4885   27.2803 C   0  0  0  0  0  0  0  0  0  0  0  0
   11.0119  -16.4367   27.7786 O   0  0  0  0  0  0  0  0  0  0  0  0
   10.6869  -18.6733   28.0299 O   0  0  0  0  0  0  0  0  0  0  0  0
  1  2  1  0
  3  2  1  0
  3  4  1  1
  5  6  1  6
  5  3  1  0
  7  8  2  0
  7  5  1  0
 10  9  1  0
 11 12  1  1
 11 10  1  0
 13 14  1  6
 13 11  1  0
 14  7  1  0
 15 13  1  0
 16 15  2  0
 18 17  1  6
 18 19  1  0
 20 18  1  0
 20 21  1  6
 21 15  1  0
 22 20  1  0
 23 22  2  0
 24 22  1  0
M  END
$$$$
