IIT.pdb
     RDKit          3D

 24 23  0  0  1  0  0  0  0  0999 V2000
    6.9368  -11.7291   28.1414 C   0  0  0  0  0  0  0  0  0  0  0  0
    6.2246  -12.8442   27.4183 C   0  0  0  0  0  0  0  0  0  0  0  0
    7.0258  -13.4990   26.3377 C   0  0  2  0  0  0  0  0  0  0  0  0
    7.9377  -12.5228   25.6236 C   0  0  0  0  0  0  0  0  0  0  0  0
    6.3623  -14.5014   25.4877 C   0  0  2  0  0  0  0  0  0  0  0  0
    5.9093  -15.5777   26.3896 N   0  0  0  0  0  0  0  0  0  0  0  0
    7.0782  -15.0379   24.3374 C   0  0  0  0  0  0  0  0  0  0  0  0
    7.7134  -16.1214   24.4380 O   0  0  0  0  0  0  0  0  0  0  0  0
    8.3692  -13.6718   18.3476 C   0  0  0  0  0  0  0  0  0  0  0  0
    8.3410  -14.6400   19.4888 C   0  0  0  0  0  0  0  0  0  0  0  0
    7.7166  -14.0351   20.7381 C   0  0  2  0  0  0  0  0  0  0  0  0
    8.4108  -12.7518   21.1123 C   0  0  0  0  0  0  0  0  0  0  0  0
    7.7449  -15.0584   21.8790 C   0  0  2  0  0  0  0  0  0  0  0  0
    7.1260  -14.4230   23.0614 N   0  0  0  0  0  0  0  0  0  0  0  0
    9.1461  -15.3172   22.2659 C   0  0  0  0  0  0  0  0  0  0  0  0
    9.7387  -14.4148   22.9590 O   0  0  0  0  0  0  0  0  0  0  0  0
   10.6872  -17.8273   24.5419 C   0  0  0  0  0  0  0  0  0  0  0  0
   11.4019  -17.9615   23.2009 C   0  0  1  0  0  0  0  0  0  0  0  0
   10.8013  -18.9879   22.4890 O   0  0  0  0  0  0  0  0  0  0  0  0
   11.2611  -16.6194   22.5064 C   0  0  2  0  0  0  0  0  0  0  0  0
    9.9167  -16.4539   21.9636 N   0  0  0  0  0  0  0  0  0  0  0  0
   12.2187  -16.5936   21.3855 C   0  0  0  0  0  0  0  0  0  0  0  0
   11.8370  -16.6670   20.1928 O   0  0  0  0  0  0  0  0  0  0  0  0
   13.6056  -16.4852   21.6106 O   0  0  0  0  0  0  0  0  0  0  0  0
  1  2  1  0
  3  2  1  0
  3  4  1  6
  5  6  1  1
  5  3  1  0
  7  8  2  0
  7  5  1  0
 10  9  1  0
 11 12  1  1
 11 10  1  0
 13 14  1  1
 13 11  1  0
 14  7  1  0
 15 13  1  0
 16 15  2  0
 18 17  1  1
 18 19  1  0
 20 18  1  0
 20 21  1  6
 21 15  1  0
 22 20  1  0
 23 22  2  0
 24 22  1  0
M  END
$$$$
