YYP.pdb
     RDKit          3D

 32 34  0  0  1  0  0  0  0  0999 V2000
   32.1966  -17.1263  -20.1474 O   0  0  0  0  0  0  0  0  0  0  0  0
   31.1560  -17.1271  -19.2179 C   0  0  0  0  0  0  0  0  0  0  0  0
   30.6770  -15.9147  -18.7357 C   0  0  0  0  0  0  0  0  0  0  0  0
   29.6431  -15.8999  -17.8143 C   0  0  0  0  0  0  0  0  0  0  0  0
   29.0663  -17.0708  -17.3542 C   0  0  0  0  0  0  0  0  0  0  0  0
   27.9597  -17.0365  -16.3684 C   0  0  0  0  0  0  0  0  0  0  0  0
   26.6357  -17.3948  -17.0319 C   0  0  2  0  0  0  0  0  0  0  0  0
   26.1844  -16.2005  -17.6851 N   0  0  0  0  0  0  0  0  0  0  0  0
   25.6457  -17.8129  -15.9757 C   0  0  0  0  0  0  0  0  0  0  0  0
   25.1844  -16.8730  -15.2947 O   0  0  0  0  0  0  0  0  0  0  0  0
   29.5720  -18.2629  -17.8586 C   0  0  0  0  0  0  0  0  0  0  0  0
   30.6098  -18.2981  -18.7831 C   0  0  0  0  0  0  0  0  0  0  0  0
   19.6072  -21.9717  -11.4707 O   0  0  0  0  0  0  0  0  0  0  0  0
   20.5000  -21.5307  -12.4735 C   0  0  0  0  0  0  0  0  0  0  0  0
   21.3680  -22.3997  -13.0880 C   0  0  0  0  0  0  0  0  0  0  0  0
   22.2255  -21.9165  -14.0663 C   0  0  0  0  0  0  0  0  0  0  0  0
   22.2489  -20.6100  -14.4505 C   0  0  0  0  0  0  0  0  0  0  0  0
   23.2243  -20.2108  -15.4829 C   0  0  0  0  0  0  0  0  0  0  0  0
   24.5192  -19.6706  -14.7745 C   0  0  2  0  0  0  0  0  0  0  0  0
   25.3177  -19.1714  -15.8288 N   0  0  0  0  0  0  0  0  0  0  0  0
   25.0597  -20.6969  -13.9488 C   0  0  0  0  0  0  0  0  0  0  0  0
   25.6245  -21.6959  -14.5694 O   0  0  0  0  0  0  0  0  0  0  0  0
   21.3914  -19.7403  -13.8434 C   0  0  0  0  0  0  0  0  0  0  0  0
   20.5138  -20.2109  -12.8495 C   0  0  0  0  0  0  0  0  0  0  0  0
   25.0808  -20.7855  -12.5460 N   0  0  0  0  0  0  0  0  0  0  0  0
   24.5015  -19.8923  -11.5513 C   0  0  0  0  0  0  0  0  0  0  0  0
   25.4677  -20.0201  -10.3638 C   0  0  0  0  0  0  0  0  0  0  0  0
   25.6872  -21.5169  -10.3679 C   0  0  0  0  0  0  0  0  0  0  0  0
   25.8111  -21.8221  -11.8009 C   0  0  1  0  0  0  0  0  0  0  0  0
   25.3387  -23.1872  -12.1591 C   0  0  0  0  0  0  0  0  0  0  0  0
   24.0117  -23.3098  -12.5461 O   0  0  0  0  0  0  0  0  0  0  0  0
   26.0413  -24.2194  -12.1347 O   0  0  0  0  0  0  0  0  0  0  0  0
  2  1  1  0
  3  2  2  0
  4  3  1  0
  5 11  1  0
  5  4  2  0
  6  5  1  0
  7  9  1  0
  7  6  1  0
  7  8  1  1
  9 20  1  0
  9 10  2  0
 11 12  2  0
 12  2  1  0
 13 14  1  0
 14 24  2  0
 15 16  2  0
 15 14  1  0
 16 17  1  0
 17 18  1  0
 17 23  2  0
 19 18  1  6
 20 19  1  0
 21 19  1  0
 22 21  2  0
 24 23  1  0
 25 21  1  0
 25 29  1  0
 26 25  1  0
 27 26  1  0
 27 28  1  0
 28 29  1  0
 29 30  1  1
 30 32  2  0
 30 31  1  0
M  END
$$$$
