YYP.pdb
     RDKit          3D

 32 34  0  0  1  0  0  0  0  0999 V2000
   17.8404  -24.4709   -9.3817 O   0  0  0  0  0  0  0  0  0  0  0  0
   18.7047  -23.9994  -10.3704 C   0  0  0  0  0  0  0  0  0  0  0  0
   19.7688  -23.1823  -10.0070 C   0  0  0  0  0  0  0  0  0  0  0  0
   20.6361  -22.7085  -10.9773 C   0  0  0  0  0  0  0  0  0  0  0  0
   20.4723  -23.0285  -12.3137 C   0  0  0  0  0  0  0  0  0  0  0  0
   21.4108  -22.5132  -13.3391 C   0  0  0  0  0  0  0  0  0  0  0  0
   21.3815  -20.9904  -13.3795 C   0  0  2  0  0  0  0  0  0  0  0  0
   20.0681  -20.6315  -13.8301 N   0  0  0  0  0  0  0  0  0  0  0  0
   22.4168  -20.4976  -14.3573 C   0  0  0  0  0  0  0  0  0  0  0  0
   22.0474  -20.4998  -15.5503 O   0  0  0  0  0  0  0  0  0  0  0  0
   19.3972  -23.8470  -12.6385 C   0  0  0  0  0  0  0  0  0  0  0  0
   18.5154  -24.3316  -11.6790 C   0  0  0  0  0  0  0  0  0  0  0  0
   29.8846  -16.6043  -16.8749 O   0  0  0  0  0  0  0  0  0  0  0  0
   28.8631  -17.2098  -16.1089 C   0  0  0  0  0  0  0  0  0  0  0  0
   27.6362  -16.6117  -15.9563 C   0  0  0  0  0  0  0  0  0  0  0  0
   26.6670  -17.2471  -15.1929 C   0  0  0  0  0  0  0  0  0  0  0  0
   26.8749  -18.4463  -14.5814 C   0  0  0  0  0  0  0  0  0  0  0  0
   25.7762  -19.0097  -13.7739 C   0  0  0  0  0  0  0  0  0  0  0  0
   24.7270  -19.6726  -14.7383 C   0  0  2  0  0  0  0  0  0  0  0  0
   23.6756  -20.0853  -13.8882 N   0  0  0  0  0  0  0  0  0  0  0  0
   25.3809  -20.6605  -15.5280 C   0  0  0  0  0  0  0  0  0  0  0  0
   25.7939  -21.7228  -14.8931 O   0  0  0  0  0  0  0  0  0  0  0  0
   28.0914  -19.0457  -14.7264 C   0  0  0  0  0  0  0  0  0  0  0  0
   29.0871  -18.4177  -15.4969 C   0  0  0  0  0  0  0  0  0  0  0  0
   25.6406  -20.6602  -16.9096 N   0  0  0  0  0  0  0  0  0  0  0  0
   25.2424  -19.6976  -17.9282 C   0  0  0  0  0  0  0  0  0  0  0  0
   25.0873  -20.5656  -19.1861 C   0  0  0  0  0  0  0  0  0  0  0  0
   26.3144  -21.4399  -19.0508 C   0  0  0  0  0  0  0  0  0  0  0  0
   26.3349  -21.7491  -17.6135 C   0  0  1  0  0  0  0  0  0  0  0  0
   27.7050  -21.9626  -17.0728 C   0  0  0  0  0  0  0  0  0  0  0  0
   28.4933  -20.8339  -16.8992 O   0  0  0  0  0  0  0  0  0  0  0  0
   28.1922  -23.0718  -16.7693 O   0  0  0  0  0  0  0  0  0  0  0  0
  2  1  1  0
  3  2  2  0
  4  3  1  0
  5 11  1  0
  5  4  2  0
  6  5  1  0
  7  9  1  0
  7  6  1  0
  7  8  1  6
  9 20  1  0
  9 10  2  0
 11 12  2  0
 12  2  1  0
 13 14  1  0
 14 24  2  0
 15 16  2  0
 15 14  1  0
 16 17  1  0
 17 18  1  0
 17 23  2  0
 19 18  1  1
 20 19  1  0
 21 19  1  0
 22 21  2  0
 24 23  1  0
 25 21  1  0
 25 29  1  0
 26 25  1  0
 27 26  1  0
 27 28  1  0
 28 29  1  0
 29 30  1  1
 30 32  2  0
 30 31  1  0
M  END
$$$$
