YYP.pdb
     RDKit          3D

 32 34  0  0  1  0  0  0  0  0999 V2000
   24.8487  -26.3820  -17.1259 O   0  0  0  0  0  0  0  0  0  0  0  0
   25.3300  -25.3497  -16.3199 C   0  0  0  0  0  0  0  0  0  0  0  0
   25.4603  -25.5620  -14.9525 C   0  0  0  0  0  0  0  0  0  0  0  0
   25.9386  -24.5473  -14.1403 C   0  0  0  0  0  0  0  0  0  0  0  0
   26.2948  -23.3136  -14.6565 C   0  0  0  0  0  0  0  0  0  0  0  0
   26.8059  -22.2388  -13.7727 C   0  0  0  0  0  0  0  0  0  0  0  0
   25.6633  -21.5787  -13.0109 C   0  0  2  0  0  0  0  0  0  0  0  0
   24.8608  -20.9158  -13.9975 N   0  0  0  0  0  0  0  0  0  0  0  0
   26.2265  -20.5728  -12.0406 C   0  0  0  0  0  0  0  0  0  0  0  0
   26.6559  -19.5255  -12.5685 O   0  0  0  0  0  0  0  0  0  0  0  0
   26.1503  -23.1388  -16.0276 C   0  0  0  0  0  0  0  0  0  0  0  0
   25.6711  -24.1449  -16.8589 C   0  0  0  0  0  0  0  0  0  0  0  0
   20.4319  -20.8854  -10.1739 O   0  0  0  0  0  0  0  0  0  0  0  0
   21.7361  -20.3559  -10.0488 C   0  0  0  0  0  0  0  0  0  0  0  0
   22.3303  -19.6719  -11.0810 C   0  0  0  0  0  0  0  0  0  0  0  0
   23.6134  -19.1725  -10.9082 C   0  0  0  0  0  0  0  0  0  0  0  0
   24.3195  -19.3291   -9.7540 C   0  0  0  0  0  0  0  0  0  0  0  0
   25.6861  -18.7760   -9.6996 C   0  0  0  0  0  0  0  0  0  0  0  0
   26.7136  -19.9653   -9.6834 C   0  0  2  0  0  0  0  0  0  0  0  0
   26.2336  -20.8617  -10.6654 N   0  0  0  0  0  0  0  0  0  0  0  0
   26.8528  -20.4409   -8.3487 C   0  0  0  0  0  0  0  0  0  0  0  0
   25.9996  -21.3530   -7.9717 O   0  0  0  0  0  0  0  0  0  0  0  0
   23.7371  -20.0091   -8.7250 C   0  0  0  0  0  0  0  0  0  0  0  0
   22.4366  -20.5227   -8.8805 C   0  0  0  0  0  0  0  0  0  0  0  0
   27.7930  -20.0718   -7.3708 N   0  0  0  0  0  0  0  0  0  0  0  0
   28.9035  -19.1329   -7.4591 C   0  0  0  0  0  0  0  0  0  0  0  0
   29.9411  -19.7289   -6.4958 C   0  0  0  0  0  0  0  0  0  0  0  0
   29.0364  -20.1143   -5.3462 C   0  0  0  0  0  0  0  0  0  0  0  0
   27.8631  -20.6760   -6.0316 C   0  0  1  0  0  0  0  0  0  0  0  0
   26.5919  -20.4883   -5.2806 C   0  0  0  0  0  0  0  0  0  0  0  0
   25.6845  -19.5772   -5.8020 O   0  0  0  0  0  0  0  0  0  0  0  0
   26.2869  -21.0831   -4.2257 O   0  0  0  0  0  0  0  0  0  0  0  0
  2  1  1  0
  3  2  2  0
  4  3  1  0
  5 11  1  0
  5  4  2  0
  6  5  1  0
  7  9  1  0
  7  6  1  0
  7  8  1  6
  9 20  1  0
  9 10  2  0
 11 12  2  0
 12  2  1  0
 13 14  1  0
 14 24  2  0
 15 16  2  0
 15 14  1  0
 16 17  1  0
 17 18  1  0
 17 23  2  0
 19 18  1  1
 20 19  1  0
 21 19  1  0
 22 21  2  0
 24 23  1  0
 25 21  1  0
 25 29  1  0
 26 25  1  0
 27 26  1  0
 27 28  1  0
 28 29  1  0
 29 30  1  1
 30 32  2  0
 30 31  1  0
M  END
$$$$
