YYP.pdb
     RDKit          3D

 32 34  0  0  1  0  0  0  0  0999 V2000
   29.2552  -15.7466  -19.9110 O   0  0  0  0  0  0  0  0  0  0  0  0
   27.9984  -16.1525  -19.4609 C   0  0  0  0  0  0  0  0  0  0  0  0
   27.3360  -15.3806  -18.5136 C   0  0  0  0  0  0  0  0  0  0  0  0
   26.0870  -15.7699  -18.0590 C   0  0  0  0  0  0  0  0  0  0  0  0
   25.4720  -16.9184  -18.5259 C   0  0  0  0  0  0  0  0  0  0  0  0
   24.1343  -17.3198  -18.0290 C   0  0  0  0  0  0  0  0  0  0  0  0
   24.2595  -18.1670  -16.7688 C   0  0  2  0  0  0  0  0  0  0  0  0
   24.9443  -19.3638  -17.1629 N   0  0  0  0  0  0  0  0  0  0  0  0
   22.8833  -18.5032  -16.2553 C   0  0  0  0  0  0  0  0  0  0  0  0
   22.5045  -19.6664  -16.5072 O   0  0  0  0  0  0  0  0  0  0  0  0
   26.1650  -17.6642  -19.4718 C   0  0  0  0  0  0  0  0  0  0  0  0
   27.4198  -17.2903  -19.9395 C   0  0  0  0  0  0  0  0  0  0  0  0
   16.2030  -19.2292  -10.9385 O   0  0  0  0  0  0  0  0  0  0  0  0
   17.4248  -18.8860  -11.5603 C   0  0  0  0  0  0  0  0  0  0  0  0
   17.8730  -17.5881  -11.5844 C   0  0  0  0  0  0  0  0  0  0  0  0
   19.0791  -17.3031  -12.2088 C   0  0  0  0  0  0  0  0  0  0  0  0
   19.8476  -18.2567  -12.8048 C   0  0  0  0  0  0  0  0  0  0  0  0
   21.0976  -17.8267  -13.4599 C   0  0  0  0  0  0  0  0  0  0  0  0
   20.8625  -17.7711  -15.0130 C   0  0  2  0  0  0  0  0  0  0  0  0
   22.1453  -17.5324  -15.5571 N   0  0  0  0  0  0  0  0  0  0  0  0
   19.8278  -16.8341  -15.2931 C   0  0  0  0  0  0  0  0  0  0  0  0
   20.1038  -15.5828  -15.0478 O   0  0  0  0  0  0  0  0  0  0  0  0
   19.4082  -19.5478  -12.7870 C   0  0  0  0  0  0  0  0  0  0  0  0
   18.1881  -19.8571  -12.1585 C   0  0  0  0  0  0  0  0  0  0  0  0
   18.5409  -17.0644  -15.8099 N   0  0  0  0  0  0  0  0  0  0  0  0
   17.9182  -18.3143  -16.2257 C   0  0  0  0  0  0  0  0  0  0  0  0
   16.9736  -17.8742  -17.3544 C   0  0  0  0  0  0  0  0  0  0  0  0
   16.3987  -16.6186  -16.7366 C   0  0  0  0  0  0  0  0  0  0  0  0
   17.5756  -15.9967  -16.1121 C   0  0  1  0  0  0  0  0  0  0  0  0
   17.2499  -15.1959  -14.9006 C   0  0  0  0  0  0  0  0  0  0  0  0
   17.0313  -15.8992  -13.7245 O   0  0  0  0  0  0  0  0  0  0  0  0
   17.1579  -13.9509  -14.8664 O   0  0  0  0  0  0  0  0  0  0  0  0
  2  1  1  0
  3  2  2  0
  4  3  1  0
  5 11  1  0
  5  4  2  0
  6  5  1  0
  7  9  1  0
  7  6  1  0
  7  8  1  6
  9 20  1  0
  9 10  2  0
 11 12  2  0
 12  2  1  0
 13 14  1  0
 14 24  2  0
 15 16  2  0
 15 14  1  0
 16 17  1  0
 17 18  1  0
 17 23  2  0
 19 18  1  1
 20 19  1  0
 21 19  1  0
 22 21  2  0
 24 23  1  0
 25 21  1  0
 25 29  1  0
 26 25  1  0
 27 26  1  0
 27 28  1  0
 28 29  1  0
 29 30  1  1
 30 32  2  0
 30 31  1  0
M  END
$$$$
