YYP.pdb
     RDKit          3D

 32 34  0  0  1  0  0  0  0  0999 V2000
   21.2841  -19.9910  -10.8532 O   0  0  0  0  0  0  0  0  0  0  0  0
   20.9002  -19.0626  -11.8213 C   0  0  0  0  0  0  0  0  0  0  0  0
   20.9866  -19.4091  -13.1647 C   0  0  0  0  0  0  0  0  0  0  0  0
   20.6071  -18.4985  -14.1368 C   0  0  0  0  0  0  0  0  0  0  0  0
   20.1389  -17.2389  -13.8058 C   0  0  0  0  0  0  0  0  0  0  0  0
   19.7361  -16.2769  -14.8593 C   0  0  0  0  0  0  0  0  0  0  0  0
   18.2209  -16.1201  -14.8950 C   0  0  2  0  0  0  0  0  0  0  0  0
   17.7016  -17.3886  -15.3168 N   0  0  0  0  0  0  0  0  0  0  0  0
   17.8535  -15.0526  -15.8929 C   0  0  0  0  0  0  0  0  0  0  0  0
   17.8822  -15.4237  -17.0851 O   0  0  0  0  0  0  0  0  0  0  0  0
   20.0670  -16.9286  -12.4531 C   0  0  0  0  0  0  0  0  0  0  0  0
   20.4443  -17.8288  -11.4629 C   0  0  0  0  0  0  0  0  0  0  0  0
   11.9538  -16.2823  -17.3741 O   0  0  0  0  0  0  0  0  0  0  0  0
   12.8932  -15.2955  -16.9989 C   0  0  0  0  0  0  0  0  0  0  0  0
   13.2858  -15.1450  -15.6914 C   0  0  0  0  0  0  0  0  0  0  0  0
   14.2106  -14.1599  -15.3746 C   0  0  0  0  0  0  0  0  0  0  0  0
   14.7530  -13.3268  -16.3057 C   0  0  0  0  0  0  0  0  0  0  0  0
   15.7065  -12.3007  -15.8426 C   0  0  0  0  0  0  0  0  0  0  0  0
   17.1525  -12.7071  -16.3055 C   0  0  2  0  0  0  0  0  0  0  0  0
   17.5167  -13.7651  -15.4416 N   0  0  0  0  0  0  0  0  0  0  0  0
   17.9757  -11.5458  -16.3314 C   0  0  0  0  0  0  0  0  0  0  0  0
   18.5122  -11.1962  -15.1946 O   0  0  0  0  0  0  0  0  0  0  0  0
   14.3665  -13.4686  -17.6060 C   0  0  0  0  0  0  0  0  0  0  0  0
   13.4303  -14.4618  -17.9475 C   0  0  0  0  0  0  0  0  0  0  0  0
   18.3046  -10.7177  -17.4188 N   0  0  0  0  0  0  0  0  0  0  0  0
   17.9897  -10.8743  -18.8326 C   0  0  0  0  0  0  0  0  0  0  0  0
   19.1905  -10.2192  -19.5316 C   0  0  0  0  0  0  0  0  0  0  0  0
   19.3551   -8.9894  -18.6661 C   0  0  0  0  0  0  0  0  0  0  0  0
   19.1481   -9.5177  -17.3097 C   0  0  1  0  0  0  0  0  0  0  0  0
   18.5640   -8.5232  -16.3691 C   0  0  0  0  0  0  0  0  0  0  0  0
   19.4556   -7.7161  -15.6770 O   0  0  0  0  0  0  0  0  0  0  0  0
   17.3432   -8.3657  -16.1579 O   0  0  0  0  0  0  0  0  0  0  0  0
  2  1  1  0
  3  2  2  0
  4  3  1  0
  5 11  1  0
  5  4  2  0
  6  5  1  0
  7  9  1  0
  7  6  1  0
  7  8  1  6
  9 20  1  0
  9 10  2  0
 11 12  2  0
 12  2  1  0
 13 14  1  0
 14 24  2  0
 15 16  2  0
 15 14  1  0
 16 17  1  0
 17 18  1  0
 17 23  2  0
 19 18  1  1
 20 19  1  0
 21 19  1  0
 22 21  2  0
 24 23  1  0
 25 21  1  0
 25 29  1  0
 26 25  1  0
 27 26  1  0
 27 28  1  0
 28 29  1  0
 29 30  1  1
 30 32  2  0
 30 31  1  0
M  END
$$$$
