YYP.pdb
     RDKit          3D

 32 34  0  0  1  0  0  0  0  0999 V2000
   17.2898  -21.5332  -18.1109 O   0  0  0  0  0  0  0  0  0  0  0  0
   18.5766  -21.3503  -17.6036 C   0  0  0  0  0  0  0  0  0  0  0  0
   18.7552  -21.2497  -16.2288 C   0  0  0  0  0  0  0  0  0  0  0  0
   20.0270  -21.0700  -15.7107 C   0  0  0  0  0  0  0  0  0  0  0  0
   21.1382  -20.9867  -16.5314 C   0  0  0  0  0  0  0  0  0  0  0  0
   22.4925  -20.7952  -15.9597 C   0  0  0  0  0  0  0  0  0  0  0  0
   22.6305  -19.4031  -15.3560 C   0  0  2  0  0  0  0  0  0  0  0  0
   22.8448  -18.5126  -16.4595 N   0  0  0  0  0  0  0  0  0  0  0  0
   23.8196  -19.3765  -14.4309 C   0  0  0  0  0  0  0  0  0  0  0  0
   24.8711  -18.9445  -14.9483 O   0  0  0  0  0  0  0  0  0  0  0  0
   20.9201  -21.0912  -17.8998 C   0  0  0  0  0  0  0  0  0  0  0  0
   19.6511  -21.2707  -18.4388 C   0  0  0  0  0  0  0  0  0  0  0  0
   27.9323  -19.4526   -6.6897 O   0  0  0  0  0  0  0  0  0  0  0  0
   26.9528  -19.5838   -7.6999 C   0  0  0  0  0  0  0  0  0  0  0  0
   26.6516  -20.8070   -8.2468 C   0  0  0  0  0  0  0  0  0  0  0  0
   25.6823  -20.8822   -9.2371 C   0  0  0  0  0  0  0  0  0  0  0  0
   25.0087  -19.7917   -9.6979 C   0  0  0  0  0  0  0  0  0  0  0  0
   24.0190  -19.9945  -10.7730 C   0  0  0  0  0  0  0  0  0  0  0  0
   24.7309  -19.7987  -12.1605 C   0  0  2  0  0  0  0  0  0  0  0  0
   23.6788  -19.8189  -13.1046 N   0  0  0  0  0  0  0  0  0  0  0  0
   25.7698  -20.7635  -12.2900 C   0  0  0  0  0  0  0  0  0  0  0  0
   25.3938  -22.0125  -12.3186 O   0  0  0  0  0  0  0  0  0  0  0  0
   25.3037  -18.5730   -9.1613 C   0  0  0  0  0  0  0  0  0  0  0  0
   26.2831  -18.4760   -8.1559 C   0  0  0  0  0  0  0  0  0  0  0  0
   27.1565  -20.5618  -12.4019 N   0  0  0  0  0  0  0  0  0  0  0  0
   27.9174  -19.3194  -12.3878 C   0  0  0  0  0  0  0  0  0  0  0  0
   29.1136  -19.6332  -13.2990 C   0  0  0  0  0  0  0  0  0  0  0  0
   29.4501  -21.0263  -12.8149 C   0  0  0  0  0  0  0  0  0  0  0  0
   28.1246  -21.6410  -12.6502 C   0  0  1  0  0  0  0  0  0  0  0  0
   28.0788  -22.6729  -11.5787 C   0  0  0  0  0  0  0  0  0  0  0  0
   28.7934  -23.8411  -11.8026 O   0  0  0  0  0  0  0  0  0  0  0  0
   27.4491  -22.5660  -10.5056 O   0  0  0  0  0  0  0  0  0  0  0  0
  2  1  1  0
  3  2  2  0
  4  3  1  0
  5 11  1  0
  5  4  2  0
  6  5  1  0
  7  9  1  0
  7  6  1  0
  7  8  1  6
  9 20  1  0
  9 10  2  0
 11 12  2  0
 12  2  1  0
 13 14  1  0
 14 24  2  0
 15 16  2  0
 15 14  1  0
 16 17  1  0
 17 18  1  0
 17 23  2  0
 19 18  1  1
 20 19  1  0
 21 19  1  0
 22 21  2  0
 24 23  1  0
 25 21  1  0
 25 29  1  0
 26 25  1  0
 27 26  1  0
 27 28  1  0
 28 29  1  0
 29 30  1  1
 30 32  2  0
 30 31  1  0
M  END
$$$$
