YYP.pdb
     RDKit          3D

 32 34  0  0  1  0  0  0  0  0999 V2000
   18.4068   -1.5357  -21.8210 O   0  0  0  0  0  0  0  0  0  0  0  0
   18.2212   -2.4395  -20.7743 C   0  0  0  0  0  0  0  0  0  0  0  0
   17.3429   -3.5032  -20.9451 C   0  0  0  0  0  0  0  0  0  0  0  0
   17.1501   -4.4095  -19.9156 C   0  0  0  0  0  0  0  0  0  0  0  0
   17.8141   -4.2854  -18.7078 C   0  0  0  0  0  0  0  0  0  0  0  0
   17.5965   -5.2652  -17.6168 C   0  0  0  0  0  0  0  0  0  0  0  0
   18.8938   -5.9875  -17.2746 C   0  0  2  0  0  0  0  0  0  0  0  0
   19.1291   -6.9085  -18.3485 N   0  0  0  0  0  0  0  0  0  0  0  0
   18.7205   -6.7366  -15.9787 C   0  0  0  0  0  0  0  0  0  0  0  0
   18.1151   -7.8239  -16.0840 O   0  0  0  0  0  0  0  0  0  0  0  0
   18.6834   -3.2094  -18.5742 C   0  0  0  0  0  0  0  0  0  0  0  0
   18.8894   -2.2888  -19.5956 C   0  0  0  0  0  0  0  0  0  0  0  0
   23.4803  -10.9881  -15.4539 O   0  0  0  0  0  0  0  0  0  0  0  0
   22.7611   -9.9455  -14.8272 C   0  0  0  0  0  0  0  0  0  0  0  0
   22.0409  -10.1658  -13.6787 C   0  0  0  0  0  0  0  0  0  0  0  0
   21.3507   -9.1085  -13.1028 C   0  0  0  0  0  0  0  0  0  0  0  0
   21.3524   -7.8509  -13.6257 C   0  0  0  0  0  0  0  0  0  0  0  0
   20.5582   -6.8154  -12.9375 C   0  0  0  0  0  0  0  0  0  0  0  0
   19.1012   -6.8193  -13.5270 C   0  0  2  0  0  0  0  0  0  0  0  0
   19.2272   -6.1909  -14.7870 N   0  0  0  0  0  0  0  0  0  0  0  0
   18.2129   -6.2446  -12.5742 C   0  0  0  0  0  0  0  0  0  0  0  0
   18.3538   -4.9661  -12.3554 O   0  0  0  0  0  0  0  0  0  0  0  0
   22.0635   -7.6245  -14.7673 C   0  0  0  0  0  0  0  0  0  0  0  0
   22.7704   -8.6834  -15.3663 C   0  0  0  0  0  0  0  0  0  0  0  0
   17.1890   -6.8609  -11.8340 N   0  0  0  0  0  0  0  0  0  0  0  0
   16.6747   -8.2216  -11.9165 C   0  0  0  0  0  0  0  0  0  0  0  0
   15.1961   -8.0589  -11.5334 C   0  0  0  0  0  0  0  0  0  0  0  0
   15.3334   -7.1025  -10.3694 C   0  0  0  0  0  0  0  0  0  0  0  0
   16.3576   -6.1601  -10.8436 C   0  0  1  0  0  0  0  0  0  0  0  0
   17.1833   -5.5818   -9.7487 C   0  0  0  0  0  0  0  0  0  0  0  0
   16.5320   -4.7609   -8.8390 O   0  0  0  0  0  0  0  0  0  0  0  0
   18.4067   -5.7777   -9.5921 O   0  0  0  0  0  0  0  0  0  0  0  0
  2  1  1  0
  3  2  2  0
  4  3  1  0
  5 11  1  0
  5  4  2  0
  6  5  1  0
  7  9  1  0
  7  6  1  0
  7  8  1  6
  9 20  1  0
  9 10  2  0
 11 12  2  0
 12  2  1  0
 13 14  1  0
 14 24  2  0
 15 16  2  0
 15 14  1  0
 16 17  1  0
 17 18  1  0
 17 23  2  0
 19 18  1  1
 20 19  1  0
 21 19  1  0
 22 21  2  0
 24 23  1  0
 25 21  1  0
 25 29  1  0
 26 25  1  0
 27 26  1  0
 27 28  1  0
 28 29  1  0
 29 30  1  1
 30 32  2  0
 30 31  1  0
M  END
$$$$
