YYP.pdb
     RDKit          3D

 32 34  0  0  1  0  0  0  0  0999 V2000
   26.3351  -20.0975   -5.8200 O   0  0  0  0  0  0  0  0  0  0  0  0
   26.4323  -20.1479   -7.2110 C   0  0  0  0  0  0  0  0  0  0  0  0
   25.3215  -20.5290   -7.9547 C   0  0  0  0  0  0  0  0  0  0  0  0
   25.4026  -20.5816   -9.3363 C   0  0  0  0  0  0  0  0  0  0  0  0
   26.5709  -20.2621  -10.0059 C   0  0  0  0  0  0  0  0  0  0  0  0
   26.6397  -20.3230  -11.4854 C   0  0  0  0  0  0  0  0  0  0  0  0
   25.8990  -21.5471  -12.0094 C   0  0  2  0  0  0  0  0  0  0  0  0
   26.9021  -22.5432  -12.2512 N   0  0  0  0  0  0  0  0  0  0  0  0
   25.1996  -21.1935  -13.2964 C   0  0  0  0  0  0  0  0  0  0  0  0
   25.9442  -20.7166  -14.1784 O   0  0  0  0  0  0  0  0  0  0  0  0
   27.6599  -19.8863   -9.2288 C   0  0  0  0  0  0  0  0  0  0  0  0
   27.5983  -19.8285   -7.8409 C   0  0  0  0  0  0  0  0  0  0  0  0
   26.5795  -26.0073  -16.9778 O   0  0  0  0  0  0  0  0  0  0  0  0
   25.5685  -25.1536  -16.4818 C   0  0  0  0  0  0  0  0  0  0  0  0
   25.1699  -25.2078  -15.1686 C   0  0  0  0  0  0  0  0  0  0  0  0
   24.1719  -24.3485  -14.7312 C   0  0  0  0  0  0  0  0  0  0  0  0
   23.5622  -23.4452  -15.5482 C   0  0  0  0  0  0  0  0  0  0  0  0
   22.4954  -22.6037  -14.9736 C   0  0  0  0  0  0  0  0  0  0  0  0
   23.0972  -21.1963  -14.6166 C   0  0  2  0  0  0  0  0  0  0  0  0
   23.8170  -21.4122  -13.4191 N   0  0  0  0  0  0  0  0  0  0  0  0
   22.0501  -20.2318  -14.6078 C   0  0  0  0  0  0  0  0  0  0  0  0
   21.3576  -20.1455  -13.5054 O   0  0  0  0  0  0  0  0  0  0  0  0
   23.9510  -23.3867  -16.8543 C   0  0  0  0  0  0  0  0  0  0  0  0
   24.9616  -24.2493  -17.3170 C   0  0  0  0  0  0  0  0  0  0  0  0
   21.6562  -19.3431  -15.6233 N   0  0  0  0  0  0  0  0  0  0  0  0
   22.2445  -19.1159  -16.9368 C   0  0  0  0  0  0  0  0  0  0  0  0
   21.9554  -17.6296  -17.1955 C   0  0  0  0  0  0  0  0  0  0  0  0
   20.5265  -17.5540  -16.7046 C   0  0  0  0  0  0  0  0  0  0  0  0
   20.5595  -18.3731  -15.4840 C   0  0  1  0  0  0  0  0  0  0  0  0
   19.2668  -19.0490  -15.1888 C   0  0  0  0  0  0  0  0  0  0  0  0
   18.3053  -18.3003  -14.5251 O   0  0  0  0  0  0  0  0  0  0  0  0
   18.9885  -20.2287  -15.4896 O   0  0  0  0  0  0  0  0  0  0  0  0
  2  1  1  0
  3  2  2  0
  4  3  1  0
  5 11  1  0
  5  4  2  0
  6  5  1  0
  7  9  1  0
  7  6  1  0
  7  8  1  6
  9 20  1  0
  9 10  2  0
 11 12  2  0
 12  2  1  0
 13 14  1  0
 14 24  2  0
 15 16  2  0
 15 14  1  0
 16 17  1  0
 17 18  1  0
 17 23  2  0
 19 18  1  1
 20 19  1  0
 21 19  1  0
 22 21  2  0
 24 23  1  0
 25 21  1  0
 25 29  1  0
 26 25  1  0
 27 26  1  0
 27 28  1  0
 28 29  1  0
 29 30  1  6
 30 32  2  0
 30 31  1  0
M  END
$$$$
