YYP.pdb
     RDKit          3D

 32 34  0  0  1  0  0  0  0  0999 V2000
   16.7572  -20.8989  -19.2136 O   0  0  0  0  0  0  0  0  0  0  0  0
   17.7794  -20.3857  -18.4145 C   0  0  0  0  0  0  0  0  0  0  0  0
   17.4685  -19.4516  -17.4333 C   0  0  0  0  0  0  0  0  0  0  0  0
   18.4724  -18.9348  -16.6312 C   0  0  0  0  0  0  0  0  0  0  0  0
   19.7916  -19.3259  -16.7800 C   0  0  0  0  0  0  0  0  0  0  0  0
   20.8535  -18.7632  -15.9121 C   0  0  0  0  0  0  0  0  0  0  0  0
   21.1716  -19.7139  -14.7646 C   0  0  2  0  0  0  0  0  0  0  0  0
   20.2993  -19.3417  -13.6889 N   0  0  0  0  0  0  0  0  0  0  0  0
   22.6094  -19.5332  -14.3515 C   0  0  0  0  0  0  0  0  0  0  0  0
   22.8522  -18.4528  -13.7737 O   0  0  0  0  0  0  0  0  0  0  0  0
   20.0637  -20.2609  -17.7715 C   0  0  0  0  0  0  0  0  0  0  0  0
   19.0698  -20.7902  -18.5870 C   0  0  0  0  0  0  0  0  0  0  0  0
   23.6630  -20.0935   -7.9491 O   0  0  0  0  0  0  0  0  0  0  0  0
   24.0076  -20.4874   -9.2618 C   0  0  0  0  0  0  0  0  0  0  0  0
   23.0893  -21.0813  -10.0926 C   0  0  0  0  0  0  0  0  0  0  0  0
   23.4782  -21.4506  -11.3725 C   0  0  0  0  0  0  0  0  0  0  0  0
   24.7382  -21.2513  -11.8498 C   0  0  0  0  0  0  0  0  0  0  0  0
   25.0392  -21.7113  -13.2189 C   0  0  0  0  0  0  0  0  0  0  0  0
   24.8928  -20.4963  -14.2052 C   0  0  2  0  0  0  0  0  0  0  0  0
   23.5449  -20.5444  -14.6288 N   0  0  0  0  0  0  0  0  0  0  0  0
   25.9126  -20.5761  -15.1955 C   0  0  0  0  0  0  0  0  0  0  0  0
   25.6897  -21.3967  -16.1851 O   0  0  0  0  0  0  0  0  0  0  0  0
   25.6566  -20.6641  -11.0300 C   0  0  0  0  0  0  0  0  0  0  0  0
   25.2817  -20.2819   -9.7290 C   0  0  0  0  0  0  0  0  0  0  0  0
   27.1342  -19.8841  -15.2661 N   0  0  0  0  0  0  0  0  0  0  0  0
   27.7044  -18.9119  -14.3429 C   0  0  0  0  0  0  0  0  0  0  0  0
   28.5199  -17.9928  -15.2648 C   0  0  0  0  0  0  0  0  0  0  0  0
   29.1623  -19.0284  -16.1611 C   0  0  0  0  0  0  0  0  0  0  0  0
   28.0628  -19.9741  -16.4031 C   0  0  1  0  0  0  0  0  0  0  0  0
   28.5218  -21.3726  -16.6240 C   0  0  0  0  0  0  0  0  0  0  0  0
   29.0235  -21.6764  -17.8816 O   0  0  0  0  0  0  0  0  0  0  0  0
   28.4866  -22.2830  -15.7698 O   0  0  0  0  0  0  0  0  0  0  0  0
  2  1  1  0
  3  2  2  0
  4  3  1  0
  5 11  1  0
  5  4  2  0
  6  5  1  0
  7  9  1  0
  7  6  1  0
  7  8  1  1
  9 20  1  0
  9 10  2  0
 11 12  2  0
 12  2  1  0
 13 14  1  0
 14 24  2  0
 15 16  2  0
 15 14  1  0
 16 17  1  0
 17 18  1  0
 17 23  2  0
 19 18  1  1
 20 19  1  0
 21 19  1  0
 22 21  2  0
 24 23  1  0
 25 21  1  0
 25 29  1  0
 26 25  1  0
 27 26  1  0
 27 28  1  0
 28 29  1  0
 29 30  1  1
 30 32  2  0
 30 31  1  0
M  END
$$$$
