YYP.pdb
     RDKit          3D

 32 34  0  0  1  0  0  0  0  0999 V2000
   23.0158  -20.1201  -19.7444 O   0  0  0  0  0  0  0  0  0  0  0  0
   22.2973  -20.1410  -18.5486 C   0  0  0  0  0  0  0  0  0  0  0  0
   22.4740  -19.1097  -17.6336 C   0  0  0  0  0  0  0  0  0  0  0  0
   21.7661  -19.1161  -16.4432 C   0  0  0  0  0  0  0  0  0  0  0  0
   20.8775  -20.1312  -16.1345 C   0  0  0  0  0  0  0  0  0  0  0  0
   20.1273  -20.1217  -14.8560 C   0  0  0  0  0  0  0  0  0  0  0  0
   20.7735  -21.0609  -13.8451 C   0  0  2  0  0  0  0  0  0  0  0  0
   19.9476  -21.0104  -12.6737 N   0  0  0  0  0  0  0  0  0  0  0  0
   22.1604  -20.5680  -13.5223 C   0  0  0  0  0  0  0  0  0  0  0  0
   22.2004  -19.4349  -12.9986 O   0  0  0  0  0  0  0  0  0  0  0  0
   20.7279  -21.1448  -17.0733 C   0  0  0  0  0  0  0  0  0  0  0  0
   21.4303  -21.1564  -18.2732 C   0  0  0  0  0  0  0  0  0  0  0  0
   25.8369  -19.5682   -7.5711 O   0  0  0  0  0  0  0  0  0  0  0  0
   25.6942  -20.1634   -8.8449 C   0  0  0  0  0  0  0  0  0  0  0  0
   24.4642  -20.5509   -9.3174 C   0  0  0  0  0  0  0  0  0  0  0  0
   24.3777  -21.1318  -10.5747 C   0  0  0  0  0  0  0  0  0  0  0  0
   25.4633  -21.3388  -11.3708 C   0  0  0  0  0  0  0  0  0  0  0  0
   25.2481  -21.9900  -12.6770 C   0  0  0  0  0  0  0  0  0  0  0  0
   24.6098  -20.9467  -13.6642 C   0  0  2  0  0  0  0  0  0  0  0  0
   23.2716  -21.3762  -13.8168 N   0  0  0  0  0  0  0  0  0  0  0  0
   25.4229  -20.8513  -14.8290 C   0  0  0  0  0  0  0  0  0  0  0  0
   25.1931  -21.7318  -15.7639 O   0  0  0  0  0  0  0  0  0  0  0  0
   26.6886  -20.9586  -10.9078 C   0  0  0  0  0  0  0  0  0  0  0  0
   26.7971  -20.3674   -9.6358 C   0  0  0  0  0  0  0  0  0  0  0  0
   26.4424  -19.9295  -15.1239 N   0  0  0  0  0  0  0  0  0  0  0  0
   26.8728  -18.7528  -14.3803 C   0  0  0  0  0  0  0  0  0  0  0  0
   27.3580  -17.8013  -15.4844 C   0  0  0  0  0  0  0  0  0  0  0  0
   28.1192  -18.7785  -16.3529 C   0  0  0  0  0  0  0  0  0  0  0  0
   27.2421  -19.9586  -16.3580 C   0  0  1  0  0  0  0  0  0  0  0  0
   27.9788  -21.2438  -16.5012 C   0  0  0  0  0  0  0  0  0  0  0  0
   28.1077  -22.0229  -15.3602 O   0  0  0  0  0  0  0  0  0  0  0  0
   28.4856  -21.6664  -17.5615 O   0  0  0  0  0  0  0  0  0  0  0  0
  2  1  1  0
  3  2  2  0
  4  3  1  0
  5 11  1  0
  5  4  2  0
  6  5  1  0
  7  9  1  0
  7  6  1  0
  7  8  1  1
  9 20  1  0
  9 10  2  0
 11 12  2  0
 12  2  1  0
 13 14  1  0
 14 24  2  0
 15 16  2  0
 15 14  1  0
 16 17  1  0
 17 18  1  0
 17 23  2  0
 19 18  1  1
 20 19  1  0
 21 19  1  0
 22 21  2  0
 24 23  1  0
 25 21  1  0
 25 29  1  0
 26 25  1  0
 27 26  1  0
 27 28  1  0
 28 29  1  0
 29 30  1  1
 30 32  2  0
 30 31  1  0
M  END
$$$$
