YYP.pdb
     RDKit          3D

 32 34  0  0  1  0  0  0  0  0999 V2000
   17.7034  -24.8631  -16.0520 O   0  0  0  0  0  0  0  0  0  0  0  0
   18.4206  -23.7821  -15.5386 C   0  0  0  0  0  0  0  0  0  0  0  0
   19.7920  -23.7144  -15.7549 C   0  0  0  0  0  0  0  0  0  0  0  0
   20.5167  -22.6462  -15.2530 C   0  0  0  0  0  0  0  0  0  0  0  0
   19.9082  -21.6323  -14.5339 C   0  0  0  0  0  0  0  0  0  0  0  0
   20.6992  -20.4957  -14.0047 C   0  0  0  0  0  0  0  0  0  0  0  0
   21.4433  -20.9006  -12.7382 C   0  0  2  0  0  0  0  0  0  0  0  0
   20.7219  -20.3091  -11.6490 N   0  0  0  0  0  0  0  0  0  0  0  0
   22.8463  -20.3531  -12.7878 C   0  0  0  0  0  0  0  0  0  0  0  0
   22.9324  -19.1245  -12.5806 O   0  0  0  0  0  0  0  0  0  0  0  0
   18.5363  -21.7348  -14.3377 C   0  0  0  0  0  0  0  0  0  0  0  0
   17.7920  -22.7997  -14.8328 C   0  0  0  0  0  0  0  0  0  0  0  0
   26.2016  -19.3131   -6.9538 O   0  0  0  0  0  0  0  0  0  0  0  0
   26.1480  -19.9377   -8.2204 C   0  0  0  0  0  0  0  0  0  0  0  0
   27.1635  -19.7883   -9.1329 C   0  0  0  0  0  0  0  0  0  0  0  0
   27.0622  -20.4216  -10.3636 C   0  0  0  0  0  0  0  0  0  0  0  0
   25.9947  -21.1914  -10.7143 C   0  0  0  0  0  0  0  0  0  0  0  0
   25.9889  -21.7917  -12.0620 C   0  0  0  0  0  0  0  0  0  0  0  0
   25.2731  -20.8041  -13.0534 C   0  0  2  0  0  0  0  0  0  0  0  0
   23.9215  -21.2185  -13.0518 N   0  0  0  0  0  0  0  0  0  0  0  0
   25.9743  -20.8001  -14.2924 C   0  0  0  0  0  0  0  0  0  0  0  0
   25.6315  -21.7220  -15.1497 O   0  0  0  0  0  0  0  0  0  0  0  0
   24.9811  -21.3428   -9.8144 C   0  0  0  0  0  0  0  0  0  0  0  0
   25.0652  -20.7092   -8.5610 C   0  0  0  0  0  0  0  0  0  0  0  0
   26.9874  -19.9311  -14.7336 N   0  0  0  0  0  0  0  0  0  0  0  0
   27.5488  -18.7547  -14.0829 C   0  0  0  0  0  0  0  0  0  0  0  0
   27.9372  -17.8545  -15.2656 C   0  0  0  0  0  0  0  0  0  0  0  0
   28.5510  -18.8862  -16.1861 C   0  0  0  0  0  0  0  0  0  0  0  0
   27.6336  -20.0272  -16.0514 C   0  0  1  0  0  0  0  0  0  0  0  0
   28.2967  -21.3463  -16.2394 C   0  0  0  0  0  0  0  0  0  0  0  0
   28.6495  -22.0400  -15.0906 O   0  0  0  0  0  0  0  0  0  0  0  0
   28.5580  -21.8674  -17.3439 O   0  0  0  0  0  0  0  0  0  0  0  0
  2  1  1  0
  3  2  2  0
  4  3  1  0
  5 11  1  0
  5  4  2  0
  6  5  1  0
  7  9  1  0
  7  6  1  0
  7  8  1  1
  9 20  1  0
  9 10  2  0
 11 12  2  0
 12  2  1  0
 13 14  1  0
 14 24  2  0
 15 16  2  0
 15 14  1  0
 16 17  1  0
 17 18  1  0
 17 23  2  0
 19 18  1  1
 20 19  1  0
 21 19  1  0
 22 21  2  0
 24 23  1  0
 25 21  1  0
 25 29  1  0
 26 25  1  0
 27 26  1  0
 27 28  1  0
 28 29  1  0
 29 30  1  1
 30 32  2  0
 30 31  1  0
M  END
$$$$
