QYS.pdb
     RDKit          3D

 28 28  0  0  1  0  0  0  0  0999 V2000
   27.4825  -20.5506  -17.2525 N   0  0  0  0  0  0  0  0  0  0  0  0
   28.1514  -20.4090  -18.5328 C   0  0  0  0  0  0  0  0  0  0  0  0
   28.9727  -19.4799  -18.6091 O   0  0  0  0  0  0  0  0  0  0  0  0
   27.8332  -21.3299  -19.6247 C   0  0  0  0  0  0  0  0  0  0  0  0
   26.9190  -22.4222  -19.2377 C   0  0  0  0  0  0  0  0  0  0  0  0
   27.3647  -23.3785  -18.1977 C   0  0  2  0  0  0  0  0  0  0  0  0
   28.4846  -24.1963  -18.4682 N   0  0  0  0  0  0  0  0  0  0  0  0
   26.1445  -24.1785  -17.8024 C   0  0  0  0  0  0  0  0  0  0  0  0
   25.6341  -24.9931  -18.6213 O   0  0  0  0  0  0  0  0  0  0  0  0
   27.8011  -30.3547  -16.9937 O   0  0  0  0  0  0  0  0  0  0  0  0
   27.0261  -29.2897  -16.5403 C   0  0  0  0  0  0  0  0  0  0  0  0
   25.6625  -29.3601  -16.4178 C   0  0  0  0  0  0  0  0  0  0  0  0
   24.9343  -28.2806  -15.9644 C   0  0  0  0  0  0  0  0  0  0  0  0
   25.5287  -27.0849  -15.6135 C   0  0  0  0  0  0  0  0  0  0  0  0
   24.7794  -25.9108  -15.1318 C   0  0  0  0  0  0  0  0  0  0  0  0
   24.4128  -24.9301  -16.2209 C   0  0  2  0  0  0  0  0  0  0  0  0
   25.5371  -24.0507  -16.5301 N   0  0  0  0  0  0  0  0  0  0  0  0
   23.2599  -24.0688  -15.8797 C   0  0  0  0  0  0  0  0  0  0  0  0
   23.4791  -23.0115  -15.2360 O   0  0  0  0  0  0  0  0  0  0  0  0
   26.9198  -27.0553  -15.7529 C   0  0  0  0  0  0  0  0  0  0  0  0
   27.6517  -28.1232  -16.2026 C   0  0  0  0  0  0  0  0  0  0  0  0
   20.3005  -23.1317  -18.2567 O   0  0  0  0  0  0  0  0  0  0  0  0
   19.7915  -23.5388  -17.0216 C   0  0  0  0  0  0  0  0  0  0  0  0
   20.8919  -23.4585  -15.9837 C   0  0  2  0  0  0  0  0  0  0  0  0
   21.9401  -24.4001  -16.2537 N   0  0  0  0  0  0  0  0  0  0  0  0
   20.2858  -23.7820  -14.6718 C   0  0  0  0  0  0  0  0  0  0  0  0
   19.2580  -22.9860  -14.1626 O   0  0  0  0  0  0  0  0  0  0  0  0
   20.6856  -24.7639  -14.0120 O   0  0  0  0  0  0  0  0  0  0  0  0
  2  1  1  0
  2  3  2  0
  4  5  1  0
  4  2  1  0
  5  6  1  0
  6  8  1  0
  6  7  1  6
  8  9  2  0
 10 11  1  0
 11 21  2  0
 11 12  1  0
 12 13  2  0
 13 14  1  0
 14 15  1  0
 16 15  1  1
 17 16  1  0
 17  8  1  0
 18 16  1  0
 19 18  2  0
 20 14  2  0
 21 20  1  0
 23 22  1  0
 24 23  1  6
 24 25  1  0
 25 18  1  0
 26 27  1  0
 26 24  1  0
 28 26  2  0
M  END
$$$$
