QYS.pdb
     RDKit          3D

 28 28  0  0  1  0  0  0  0  0999 V2000
   18.8203  -22.1792  -12.2614 N   0  0  0  0  0  0  0  0  0  0  0  0
   19.2546  -22.6927  -13.5477 C   0  0  0  0  0  0  0  0  0  0  0  0
   18.6795  -23.7232  -13.9359 O   0  0  0  0  0  0  0  0  0  0  0  0
   20.3083  -21.9984  -14.2889 C   0  0  0  0  0  0  0  0  0  0  0  0
   20.8346  -20.8033  -13.6010 C   0  0  0  0  0  0  0  0  0  0  0  0
   21.5072  -20.9825  -12.2932 C   0  0  2  0  0  0  0  0  0  0  0  0
   20.8571  -20.5131  -11.1300 N   0  0  0  0  0  0  0  0  0  0  0  0
   22.8998  -20.4151  -12.4482 C   0  0  0  0  0  0  0  0  0  0  0  0
   23.1033  -19.1847  -12.2499 O   0  0  0  0  0  0  0  0  0  0  0  0
   25.7802  -19.9601   -6.3757 O   0  0  0  0  0  0  0  0  0  0  0  0
   25.9227  -20.2749   -7.7251 C   0  0  0  0  0  0  0  0  0  0  0  0
   26.6732  -19.5215   -8.5904 C   0  0  0  0  0  0  0  0  0  0  0  0
   26.7867  -19.8704   -9.9195 C   0  0  0  0  0  0  0  0  0  0  0  0
   26.1600  -20.9819  -10.4465 C   0  0  0  0  0  0  0  0  0  0  0  0
   26.2556  -21.3788  -11.8627 C   0  0  0  0  0  0  0  0  0  0  0  0
   25.3327  -20.6083  -12.7776 C   0  0  2  0  0  0  0  0  0  0  0  0
   24.0064  -21.2187  -12.8140 N   0  0  0  0  0  0  0  0  0  0  0  0
   25.8170  -20.5218  -14.1724 C   0  0  0  0  0  0  0  0  0  0  0  0
   25.3342  -21.3164  -15.0184 O   0  0  0  0  0  0  0  0  0  0  0  0
   25.4053  -21.7222   -9.5312 C   0  0  0  0  0  0  0  0  0  0  0  0
   25.2868  -21.3831   -8.2086 C   0  0  0  0  0  0  0  0  0  0  0  0
   27.4159  -17.2120  -15.9592 O   0  0  0  0  0  0  0  0  0  0  0  0
   28.1156  -18.3888  -16.2351 C   0  0  0  0  0  0  0  0  0  0  0  0
   27.2215  -19.5753  -15.9393 C   0  0  2  0  0  0  0  0  0  0  0  0
   26.7929  -19.5832  -14.5702 N   0  0  0  0  0  0  0  0  0  0  0  0
   28.0128  -20.7998  -16.1989 C   0  0  0  0  0  0  0  0  0  0  0  0
   28.4444  -21.0902  -17.4945 O   0  0  0  0  0  0  0  0  0  0  0  0
   28.3001  -21.5801  -15.2673 O   0  0  0  0  0  0  0  0  0  0  0  0
  2  1  1  0
  2  3  2  0
  4  5  1  0
  4  2  1  0
  5  6  1  0
  6  8  1  0
  6  7  1  1
  8  9  2  0
 10 11  1  0
 11 21  2  0
 11 12  1  0
 12 13  2  0
 13 14  1  0
 14 15  1  0
 16 15  1  1
 17 16  1  0
 17  8  1  0
 18 16  1  0
 19 18  2  0
 20 14  2  0
 21 20  1  0
 23 22  1  0
 24 23  1  1
 24 25  1  0
 25 18  1  0
 26 27  1  0
 26 24  1  0
 28 26  2  0
M  END
$$$$
