QYS.pdb
     RDKit          3D

 28 28  0  0  1  0  0  0  0  0999 V2000
   19.7075  -23.5215  -13.9968 N   0  0  0  0  0  0  0  0  0  0  0  0
   19.9710  -22.2357  -14.6166 C   0  0  0  0  0  0  0  0  0  0  0  0
   19.2165  -21.9275  -15.5542 O   0  0  0  0  0  0  0  0  0  0  0  0
   21.0708  -21.4043  -14.1259 C   0  0  0  0  0  0  0  0  0  0  0  0
   21.7980  -21.9894  -12.9826 C   0  0  0  0  0  0  0  0  0  0  0  0
   21.9892  -21.1595  -11.7702 C   0  0  2  0  0  0  0  0  0  0  0  0
   21.0575  -20.1319  -11.5019 N   0  0  0  0  0  0  0  0  0  0  0  0
   23.4127  -20.6533  -11.8197 C   0  0  0  0  0  0  0  0  0  0  0  0
   23.6365  -19.4156  -11.9327 O   0  0  0  0  0  0  0  0  0  0  0  0
   27.8407  -19.3273   -5.8719 O   0  0  0  0  0  0  0  0  0  0  0  0
   27.6333  -19.9208   -7.1149 C   0  0  0  0  0  0  0  0  0  0  0  0
   28.6600  -20.3466   -7.9174 C   0  0  0  0  0  0  0  0  0  0  0  0
   28.4086  -20.9293   -9.1416 C   0  0  0  0  0  0  0  0  0  0  0  0
   27.1274  -21.1141   -9.6214 C   0  0  0  0  0  0  0  0  0  0  0  0
   26.8247  -21.7272  -10.9270 C   0  0  0  0  0  0  0  0  0  0  0  0
   25.8596  -20.9267  -11.7697 C   0  0  2  0  0  0  0  0  0  0  0  0
   24.5269  -21.5234  -11.7443 N   0  0  0  0  0  0  0  0  0  0  0  0
   26.2647  -20.8121  -13.1876 C   0  0  0  0  0  0  0  0  0  0  0  0
   25.8373  -21.6727  -13.9981 O   0  0  0  0  0  0  0  0  0  0  0  0
   26.1102  -20.6664   -8.7726 C   0  0  0  0  0  0  0  0  0  0  0  0
   26.3505  -20.0863   -7.5545 C   0  0  0  0  0  0  0  0  0  0  0  0
   28.5484  -18.4891  -16.7339 O   0  0  0  0  0  0  0  0  0  0  0  0
   28.2361  -18.4769  -15.3728 C   0  0  0  0  0  0  0  0  0  0  0  0
   27.4010  -19.6980  -15.0472 C   0  0  2  0  0  0  0  0  0  0  0  0
   27.1063  -19.7759  -13.6454 N   0  0  0  0  0  0  0  0  0  0  0  0
   28.1903  -20.8892  -15.4361 C   0  0  0  0  0  0  0  0  0  0  0  0
   28.1806  -21.3309  -16.7604 O   0  0  0  0  0  0  0  0  0  0  0  0
   28.8684  -21.5065  -14.5884 O   0  0  0  0  0  0  0  0  0  0  0  0
  2  1  1  0
  2  3  2  0
  4  5  1  0
  4  2  1  0
  5  6  1  0
  6  8  1  0
  6  7  1  6
  8  9  2  0
 10 11  1  0
 11 21  2  0
 11 12  1  0
 12 13  2  0
 13 14  1  0
 14 15  1  0
 16 15  1  1
 17 16  1  0
 17  8  1  0
 18 16  1  0
 19 18  2  0
 20 14  2  0
 21 20  1  0
 23 22  1  0
 24 23  1  1
 24 25  1  0
 25 18  1  0
 26 27  1  0
 26 24  1  0
 28 26  2  0
M  END
$$$$
