QYS.pdb
     RDKit          3D

 28 28  0  0  1  0  0  0  0  0999 V2000
   19.3390   -8.3877  -13.1701 N   0  0  0  0  0  0  0  0  0  0  0  0
   18.7483   -9.4689  -13.9375 C   0  0  0  0  0  0  0  0  0  0  0  0
   19.5534  -10.2468  -14.4759 O   0  0  0  0  0  0  0  0  0  0  0  0
   17.2923   -9.5793  -14.0355 C   0  0  0  0  0  0  0  0  0  0  0  0
   16.5617   -8.6033  -13.2036 C   0  0  0  0  0  0  0  0  0  0  0  0
   15.6171   -9.1149  -12.1834 C   0  0  2  0  0  0  0  0  0  0  0  0
   14.5145   -9.8875  -12.6115 N   0  0  0  0  0  0  0  0  0  0  0  0
   15.2021   -7.9235  -11.3506 C   0  0  0  0  0  0  0  0  0  0  0  0
   14.1430   -7.2967  -11.6335 O   0  0  0  0  0  0  0  0  0  0  0  0
   10.2888   -8.9094   -6.5947 O   0  0  0  0  0  0  0  0  0  0  0  0
   11.5096   -8.3287   -6.9308 C   0  0  0  0  0  0  0  0  0  0  0  0
   11.7465   -6.9822   -6.8300 C   0  0  0  0  0  0  0  0  0  0  0  0
   12.9711   -6.4497   -7.1739 C   0  0  0  0  0  0  0  0  0  0  0  0
   14.0125   -7.2312   -7.6328 C   0  0  0  0  0  0  0  0  0  0  0  0
   15.3306   -6.6933   -8.0145 C   0  0  0  0  0  0  0  0  0  0  0  0
   15.4468   -6.3416   -9.4792 C   0  0  2  0  0  0  0  0  0  0  0  0
   15.9643   -7.4711  -10.2467 N   0  0  0  0  0  0  0  0  0  0  0  0
   16.3320   -5.1864   -9.7430 C   0  0  0  0  0  0  0  0  0  0  0  0
   17.5681   -5.3952   -9.8362 O   0  0  0  0  0  0  0  0  0  0  0  0
   13.7294   -8.5978   -7.7205 C   0  0  0  0  0  0  0  0  0  0  0  0
   12.5156   -9.1358   -7.3809 C   0  0  0  0  0  0  0  0  0  0  0  0
   16.0218   -3.1605  -12.6132 O   0  0  0  0  0  0  0  0  0  0  0  0
   17.1510   -3.1115  -11.7929 C   0  0  0  0  0  0  0  0  0  0  0  0
   16.7136   -2.8505  -10.3663 C   0  0  2  0  0  0  0  0  0  0  0  0
   15.8300   -3.8757   -9.8905 N   0  0  0  0  0  0  0  0  0  0  0  0
   15.9933   -1.5566  -10.3552 C   0  0  0  0  0  0  0  0  0  0  0  0
   16.6868   -0.3697  -10.5991 O   0  0  0  0  0  0  0  0  0  0  0  0
   14.7659   -1.5146  -10.1290 O   0  0  0  0  0  0  0  0  0  0  0  0
  2  1  1  0
  2  3  2  0
  4  5  1  0
  4  2  1  0
  5  6  1  0
  6  8  1  0
  6  7  1  6
  8  9  2  0
 10 11  1  0
 11 21  2  0
 11 12  1  0
 12 13  2  0
 13 14  1  0
 14 15  1  0
 16 15  1  1
 17 16  1  0
 17  8  1  0
 18 16  1  0
 19 18  2  0
 20 14  2  0
 21 20  1  0
 23 22  1  0
 24 23  1  6
 24 25  1  0
 25 18  1  0
 26 27  1  0
 26 24  1  0
 28 26  2  0
M  END
$$$$
