QYS.pdb
     RDKit          3D

 28 28  0  0  1  0  0  0  0  0999 V2000
   20.3132  -14.8871  -16.9864 N   0  0  0  0  0  0  0  0  0  0  0  0
   19.2287  -13.9535  -17.2291 C   0  0  0  0  0  0  0  0  0  0  0  0
   18.5349  -14.1864  -18.2330 O   0  0  0  0  0  0  0  0  0  0  0  0
   19.0198  -12.8291  -16.3160 C   0  0  0  0  0  0  0  0  0  0  0  0
   19.5773  -11.5523  -16.8032 C   0  0  0  0  0  0  0  0  0  0  0  0
   18.8462  -10.8248  -17.8668 C   0  0  2  0  0  0  0  0  0  0  0  0
   18.6806  -11.4517  -19.1220 N   0  0  0  0  0  0  0  0  0  0  0  0
   19.4976   -9.4653  -17.9791 C   0  0  0  0  0  0  0  0  0  0  0  0
   20.6886   -9.3704  -18.3879 O   0  0  0  0  0  0  0  0  0  0  0  0
   19.3711   -6.8580  -24.1799 O   0  0  0  0  0  0  0  0  0  0  0  0
   19.2052   -6.6802  -22.8083 C   0  0  0  0  0  0  0  0  0  0  0  0
   18.2542   -7.3476  -22.0805 C   0  0  0  0  0  0  0  0  0  0  0  0
   18.1250   -7.1407  -20.7234 C   0  0  0  0  0  0  0  0  0  0  0  0
   18.9343   -6.2623  -20.0308 C   0  0  0  0  0  0  0  0  0  0  0  0
   18.8184   -6.0136  -18.5828 C   0  0  0  0  0  0  0  0  0  0  0  0
   19.5586   -7.0161  -17.7287 C   0  0  2  0  0  0  0  0  0  0  0  0
   18.8175   -8.2713  -17.6384 N   0  0  0  0  0  0  0  0  0  0  0  0
   19.8064   -6.5497  -16.3472 C   0  0  0  0  0  0  0  0  0  0  0  0
   18.8175   -6.3969  -15.5862 O   0  0  0  0  0  0  0  0  0  0  0  0
   19.8902   -5.6029  -20.8098 C   0  0  0  0  0  0  0  0  0  0  0  0
   20.0259   -5.8022  -22.1589 C   0  0  0  0  0  0  0  0  0  0  0  0
   22.2880   -6.5408  -12.4378 O   0  0  0  0  0  0  0  0  0  0  0  0
   22.0004   -7.0076  -13.7222 C   0  0  0  0  0  0  0  0  0  0  0  0
   21.2718   -5.9236  -14.4895 C   0  0  2  0  0  0  0  0  0  0  0  0
   21.1061   -6.2764  -15.8701 N   0  0  0  0  0  0  0  0  0  0  0  0
   22.0943   -4.6949  -14.4061 C   0  0  0  0  0  0  0  0  0  0  0  0
   22.1615   -3.9800  -13.2087 O   0  0  0  0  0  0  0  0  0  0  0  0
   22.7320   -4.2885  -15.3999 O   0  0  0  0  0  0  0  0  0  0  0  0
  2  1  1  0
  2  3  2  0
  4  5  1  0
  4  2  1  0
  5  6  1  0
  6  8  1  0
  6  7  1  6
  8  9  2  0
 10 11  1  0
 11 21  2  0
 11 12  1  0
 12 13  2  0
 13 14  1  0
 14 15  1  0
 16 15  1  6
 17 16  1  0
 17  8  1  0
 18 16  1  0
 19 18  2  0
 20 14  2  0
 21 20  1  0
 23 22  1  0
 24 23  1  1
 24 25  1  0
 25 18  1  0
 26 27  1  0
 26 24  1  0
 28 26  2  0
M  END
$$$$
