QYS.pdb
     RDKit          3D

 28 28  0  0  1  0  0  0  0  0999 V2000
   14.3333  -15.4654  -17.8873 N   0  0  0  0  0  0  0  0  0  0  0  0
   14.3396  -14.0166  -17.7991 C   0  0  0  0  0  0  0  0  0  0  0  0
   13.3023  -13.5020  -17.3490 O   0  0  0  0  0  0  0  0  0  0  0  0
   15.5202  -13.2675  -18.2313 C   0  0  0  0  0  0  0  0  0  0  0  0
   16.1235  -12.4385  -17.1696 C   0  0  0  0  0  0  0  0  0  0  0  0
   17.4959  -12.7639  -16.7163 C   0  0  2  0  0  0  0  0  0  0  0  0
   17.7107  -13.9833  -16.0360 N   0  0  0  0  0  0  0  0  0  0  0  0
   17.9802  -11.5676  -15.9293 C   0  0  0  0  0  0  0  0  0  0  0  0
   17.6502  -11.4364  -14.7174 O   0  0  0  0  0  0  0  0  0  0  0  0
   22.3969   -4.3074  -13.4320 O   0  0  0  0  0  0  0  0  0  0  0  0
   21.9576   -5.5448  -13.8970 C   0  0  0  0  0  0  0  0  0  0  0  0
   21.5166   -6.5398  -13.0634 C   0  0  0  0  0  0  0  0  0  0  0  0
   21.0905   -7.7505  -13.5674 C   0  0  0  0  0  0  0  0  0  0  0  0
   21.0841   -8.0251  -14.9203 C   0  0  0  0  0  0  0  0  0  0  0  0
   20.6413   -9.3099  -15.4908 C   0  0  0  0  0  0  0  0  0  0  0  0
   19.1459   -9.4127  -15.6790 C   0  0  2  0  0  0  0  0  0  0  0  0
   18.8027  -10.5684  -16.5033 N   0  0  0  0  0  0  0  0  0  0  0  0
   18.5453   -8.2215  -16.3176 C   0  0  0  0  0  0  0  0  0  0  0  0
   18.7283   -8.0532  -17.5499 O   0  0  0  0  0  0  0  0  0  0  0  0
   21.5411   -6.9844  -15.7349 C   0  0  0  0  0  0  0  0  0  0  0  0
   21.9664   -5.7780  -15.2430 C   0  0  0  0  0  0  0  0  0  0  0  0
   15.0144   -6.5043  -16.2020 O   0  0  0  0  0  0  0  0  0  0  0  0
   15.9986   -5.6287  -15.7382 C   0  0  0  0  0  0  0  0  0  0  0  0
   17.3483   -6.0876  -16.2502 C   0  0  2  0  0  0  0  0  0  0  0  0
   17.7836   -7.2837  -15.5883 N   0  0  0  0  0  0  0  0  0  0  0  0
   18.3189   -5.0054  -15.9676 C   0  0  0  0  0  0  0  0  0  0  0  0
   18.1216   -3.7327  -16.5066 O   0  0  0  0  0  0  0  0  0  0  0  0
   19.3174   -5.2191  -15.2487 O   0  0  0  0  0  0  0  0  0  0  0  0
  2  1  1  0
  2  3  2  0
  4  5  1  0
  4  2  1  0
  5  6  1  0
  6  8  1  0
  6  7  1  1
  8  9  2  0
 10 11  1  0
 11 21  2  0
 11 12  1  0
 12 13  2  0
 13 14  1  0
 14 15  1  0
 16 15  1  6
 17 16  1  0
 17  8  1  0
 18 16  1  0
 19 18  2  0
 20 14  2  0
 21 20  1  0
 23 22  1  0
 24 23  1  1
 24 25  1  0
 25 18  1  0
 26 27  1  0
 26 24  1  0
 28 26  2  0
M  END
$$$$
