QYS.pdb
     RDKit          3D

 28 28  0  0  1  0  0  0  0  0999 V2000
   13.7953   -8.3345  -19.0989 N   0  0  0  0  0  0  0  0  0  0  0  0
   13.6800   -9.7579  -18.8391 C   0  0  0  0  0  0  0  0  0  0  0  0
   12.8335  -10.3606  -19.5199 O   0  0  0  0  0  0  0  0  0  0  0  0
   14.5313  -10.3829  -17.8261 C   0  0  0  0  0  0  0  0  0  0  0  0
   15.4460   -9.4416  -17.1509 C   0  0  0  0  0  0  0  0  0  0  0  0
   16.8997   -9.5646  -17.4090 C   0  0  2  0  0  0  0  0  0  0  0  0
   17.5196  -10.8159  -17.1954 N   0  0  0  0  0  0  0  0  0  0  0  0
   17.5660   -8.4481  -16.6379 C   0  0  0  0  0  0  0  0  0  0  0  0
   17.8663   -8.6150  -15.4228 O   0  0  0  0  0  0  0  0  0  0  0  0
   23.1423   -2.1136  -14.4021 O   0  0  0  0  0  0  0  0  0  0  0  0
   22.3949   -3.1184  -15.0121 C   0  0  0  0  0  0  0  0  0  0  0  0
   21.9052   -3.0119  -16.2882 C   0  0  0  0  0  0  0  0  0  0  0  0
   21.1695   -4.0322  -16.8530 C   0  0  0  0  0  0  0  0  0  0  0  0
   20.8883   -5.2016  -16.1752 C   0  0  0  0  0  0  0  0  0  0  0  0
   20.1002   -6.3078  -16.7473 C   0  0  0  0  0  0  0  0  0  0  0  0
   18.6243   -6.2339  -16.4327 C   0  0  2  0  0  0  0  0  0  0  0  0
   17.8728   -7.1994  -17.2302 N   0  0  0  0  0  0  0  0  0  0  0  0
   18.0315   -4.9015  -16.6793 C   0  0  0  0  0  0  0  0  0  0  0  0
   17.6992   -4.6084  -17.8557 O   0  0  0  0  0  0  0  0  0  0  0  0
   21.4059   -5.2697  -14.8780 C   0  0  0  0  0  0  0  0  0  0  0  0
   22.1382   -4.2609  -14.3085 C   0  0  0  0  0  0  0  0  0  0  0  0
   15.5762   -1.1334  -15.2368 O   0  0  0  0  0  0  0  0  0  0  0  0
   16.1701   -2.3485  -14.8887 C   0  0  0  0  0  0  0  0  0  0  0  0
   17.1833   -2.7244  -15.9502 C   0  0  2  0  0  0  0  0  0  0  0  0
   17.8331   -3.9657  -15.6417 N   0  0  0  0  0  0  0  0  0  0  0  0
   18.2012   -1.6495  -15.9893 C   0  0  0  0  0  0  0  0  0  0  0  0
   18.1860   -0.7113  -17.0230 O   0  0  0  0  0  0  0  0  0  0  0  0
   19.0780   -1.5722  -15.1034 O   0  0  0  0  0  0  0  0  0  0  0  0
  2  1  1  0
  2  3  2  0
  4  5  1  0
  4  2  1  0
  5  6  1  0
  6  8  1  0
  6  7  1  1
  8  9  2  0
 10 11  1  0
 11 21  2  0
 11 12  1  0
 12 13  2  0
 13 14  1  0
 14 15  1  0
 16 15  1  6
 17 16  1  0
 17  8  1  0
 18 16  1  0
 19 18  2  0
 20 14  2  0
 21 20  1  0
 23 22  1  0
 24 23  1  1
 24 25  1  0
 25 18  1  0
 26 27  1  0
 26 24  1  0
 28 26  2  0
M  END
$$$$
