QYS.pdb
     RDKit          3D

 28 28  0  0  1  0  0  0  0  0999 V2000
   17.0535  -13.4187  -18.2503 N   0  0  0  0  0  0  0  0  0  0  0  0
   17.6413  -12.1066  -18.4494 C   0  0  0  0  0  0  0  0  0  0  0  0
   16.9198  -11.1432  -18.1417 O   0  0  0  0  0  0  0  0  0  0  0  0
   18.9986  -11.9921  -18.9844 C   0  0  0  0  0  0  0  0  0  0  0  0
   19.7978  -10.9188  -18.3615 C   0  0  0  0  0  0  0  0  0  0  0  0
   21.1897  -11.2225  -17.9549 C   0  0  2  0  0  0  0  0  0  0  0  0
   21.5748  -12.5756  -17.8248 N   0  0  0  0  0  0  0  0  0  0  0  0
   21.4522  -10.4215  -16.7001 C   0  0  0  0  0  0  0  0  0  0  0  0
   21.1981  -10.9229  -15.5693 O   0  0  0  0  0  0  0  0  0  0  0  0
   26.9947   -6.2512  -19.3233 O   0  0  0  0  0  0  0  0  0  0  0  0
   26.2053   -6.7721  -18.3006 C   0  0  0  0  0  0  0  0  0  0  0  0
   25.6287   -5.9904  -17.3331 C   0  0  0  0  0  0  0  0  0  0  0  0
   24.8541   -6.5488  -16.3384 C   0  0  0  0  0  0  0  0  0  0  0  0
   24.6190   -7.9070  -16.2615 C   0  0  0  0  0  0  0  0  0  0  0  0
   23.8019   -8.5361  -15.2085 C   0  0  0  0  0  0  0  0  0  0  0  0
   22.3149   -8.4717  -15.4678 C   0  0  2  0  0  0  0  0  0  0  0  0
   21.9797   -9.1084  -16.7387 N   0  0  0  0  0  0  0  0  0  0  0  0
   21.7795   -7.0937  -15.5100 C   0  0  0  0  0  0  0  0  0  0  0  0
   21.6608   -6.5373  -16.6310 O   0  0  0  0  0  0  0  0  0  0  0  0
   25.2247   -8.6676  -17.2665 C   0  0  0  0  0  0  0  0  0  0  0  0
   25.9960   -8.1214  -18.2590 C   0  0  0  0  0  0  0  0  0  0  0  0
   19.0459   -3.6288  -14.1455 O   0  0  0  0  0  0  0  0  0  0  0  0
   19.4952   -4.9351  -13.9408 C   0  0  0  0  0  0  0  0  0  0  0  0
   20.9111   -5.0578  -14.4652 C   0  0  2  0  0  0  0  0  0  0  0  0
   21.4046   -6.3990  -14.3402 N   0  0  0  0  0  0  0  0  0  0  0  0
   21.7621   -4.1583  -13.6529 C   0  0  0  0  0  0  0  0  0  0  0  0
   21.6501   -2.7741  -13.7961 O   0  0  0  0  0  0  0  0  0  0  0  0
   22.5833   -4.6262  -12.8369 O   0  0  0  0  0  0  0  0  0  0  0  0
  2  1  1  0
  2  3  2  0
  4  5  1  0
  4  2  1  0
  5  6  1  0
  6  8  1  0
  6  7  1  1
  8  9  2  0
 10 11  1  0
 11 21  2  0
 11 12  1  0
 12 13  2  0
 13 14  1  0
 14 15  1  0
 16 15  1  6
 17 16  1  0
 17  8  1  0
 18 16  1  0
 19 18  2  0
 20 14  2  0
 21 20  1  0
 23 22  1  0
 24 23  1  1
 24 25  1  0
 25 18  1  0
 26 27  1  0
 26 24  1  0
 28 26  2  0
M  END
$$$$
