QYS.pdb
     RDKit          3D

 28 28  0  0  1  0  0  0  0  0999 V2000
   25.5234  -12.5968  -19.3023 N   0  0  0  0  0  0  0  0  0  0  0  0
   25.5840  -13.6669  -18.3235 C   0  0  0  0  0  0  0  0  0  0  0  0
   25.6212  -14.8181  -18.7889 O   0  0  0  0  0  0  0  0  0  0  0  0
   25.5942  -13.3459  -16.8957 C   0  0  0  0  0  0  0  0  0  0  0  0
   25.4818  -11.9029  -16.6069 C   0  0  0  0  0  0  0  0  0  0  0  0
   26.6235  -11.0243  -16.9527 C   0  0  2  0  0  0  0  0  0  0  0  0
   27.8880  -11.3079  -16.3901 N   0  0  0  0  0  0  0  0  0  0  0  0
   26.1710   -9.6084  -16.6781 C   0  0  0  0  0  0  0  0  0  0  0  0
   26.3040   -9.1186  -15.5218 O   0  0  0  0  0  0  0  0  0  0  0  0
   24.0703   -1.0820  -17.5411 O   0  0  0  0  0  0  0  0  0  0  0  0
   24.3813   -2.4151  -17.7991 C   0  0  0  0  0  0  0  0  0  0  0  0
   23.4832   -3.2979  -18.3410 C   0  0  0  0  0  0  0  0  0  0  0  0
   23.8342   -4.6098  -18.5797 C   0  0  0  0  0  0  0  0  0  0  0  0
   25.0914   -5.1014  -18.2906 C   0  0  0  0  0  0  0  0  0  0  0  0
   25.4964   -6.4986  -18.5274 C   0  0  0  0  0  0  0  0  0  0  0  0
   25.2886   -7.4058  -17.3374 C   0  0  2  0  0  0  0  0  0  0  0  0
   25.5926   -8.7925  -17.6801 N   0  0  0  0  0  0  0  0  0  0  0  0
   23.9100   -7.3756  -16.8024 C   0  0  0  0  0  0  0  0  0  0  0  0
   23.0138   -7.9878  -17.4369 O   0  0  0  0  0  0  0  0  0  0  0  0
   25.9762   -4.1691  -17.7398 C   0  0  0  0  0  0  0  0  0  0  0  0
   25.6363   -2.8634  -17.4991 C   0  0  0  0  0  0  0  0  0  0  0  0
   20.8450   -7.7926  -13.4782 O   0  0  0  0  0  0  0  0  0  0  0  0
   22.1587   -7.7607  -13.9508 C   0  0  0  0  0  0  0  0  0  0  0  0
   22.2429   -6.7885  -15.1093 C   0  0  2  0  0  0  0  0  0  0  0  0
   23.5815   -6.6869  -15.6153 N   0  0  0  0  0  0  0  0  0  0  0  0
   21.8217   -5.4618  -14.6038 C   0  0  0  0  0  0  0  0  0  0  0  0
   20.5228   -5.0062  -14.8373 O   0  0  0  0  0  0  0  0  0  0  0  0
   22.6192   -4.7418  -13.9675 O   0  0  0  0  0  0  0  0  0  0  0  0
  2  1  1  0
  2  3  2  0
  4  5  1  0
  4  2  1  0
  5  6  1  0
  6  8  1  0
  6  7  1  1
  8  9  2  0
 10 11  1  0
 11 21  2  0
 11 12  1  0
 12 13  2  0
 13 14  1  0
 14 15  1  0
 16 15  1  6
 17 16  1  0
 17  8  1  0
 18 16  1  0
 19 18  2  0
 20 14  2  0
 21 20  1  0
 23 22  1  0
 24 23  1  1
 24 25  1  0
 25 18  1  0
 26 27  1  0
 26 24  1  0
 28 26  2  0
M  END
$$$$
