QYS.pdb
     RDKit          3D

 28 28  0  0  1  0  0  0  0  0999 V2000
   27.6924  -18.2173  -19.5168 N   0  0  0  0  0  0  0  0  0  0  0  0
   28.7407  -19.0419  -20.0894 C   0  0  0  0  0  0  0  0  0  0  0  0
   29.3193  -18.5633  -21.0791 O   0  0  0  0  0  0  0  0  0  0  0  0
   29.0465  -20.3441  -19.4960 C   0  0  0  0  0  0  0  0  0  0  0  0
   28.2662  -20.6445  -18.2796 C   0  0  0  0  0  0  0  0  0  0  0  0
   28.5751  -21.8866  -17.5336 C   0  0  2  0  0  0  0  0  0  0  0  0
   28.5828  -23.1120  -18.2366 N   0  0  0  0  0  0  0  0  0  0  0  0
   27.6484  -21.9089  -16.3395 C   0  0  0  0  0  0  0  0  0  0  0  0
   26.6152  -22.6347  -16.3586 O   0  0  0  0  0  0  0  0  0  0  0  0
   23.6998  -20.5061   -8.5812 O   0  0  0  0  0  0  0  0  0  0  0  0
   24.6473  -20.5171   -9.6023 C   0  0  0  0  0  0  0  0  0  0  0  0
   25.5187  -19.4815   -9.8207 C   0  0  0  0  0  0  0  0  0  0  0  0
   26.4412  -19.5347  -10.8442 C   0  0  0  0  0  0  0  0  0  0  0  0
   26.5378  -20.6180  -11.6946 C   0  0  0  0  0  0  0  0  0  0  0  0
   27.5075  -20.7036  -12.8012 C   0  0  0  0  0  0  0  0  0  0  0  0
   26.9136  -21.2025  -14.0976 C   0  0  2  0  0  0  0  0  0  0  0  0
   27.8929  -21.1358  -15.1790 N   0  0  0  0  0  0  0  0  0  0  0  0
   25.7216  -20.4437  -14.5345 C   0  0  0  0  0  0  0  0  0  0  0  0
   25.8933  -19.2970  -15.0201 O   0  0  0  0  0  0  0  0  0  0  0  0
   25.6317  -21.6516  -11.4374 C   0  0  0  0  0  0  0  0  0  0  0  0
   24.7116  -21.6075  -10.4226 C   0  0  0  0  0  0  0  0  0  0  0  0
   21.5639  -19.8186  -16.3763 O   0  0  0  0  0  0  0  0  0  0  0  0
   22.6273  -20.6632  -16.0505 C   0  0  0  0  0  0  0  0  0  0  0  0
   23.3076  -20.1408  -14.8019 C   0  0  2  0  0  0  0  0  0  0  0  0
   24.4162  -20.9679  -14.4211 N   0  0  0  0  0  0  0  0  0  0  0  0
   22.3040  -20.1566  -13.7130 C   0  0  0  0  0  0  0  0  0  0  0  0
   21.2911  -19.1963  -13.6835 O   0  0  0  0  0  0  0  0  0  0  0  0
   22.3536  -21.0238  -12.8158 O   0  0  0  0  0  0  0  0  0  0  0  0
  2  1  1  0
  2  3  2  0
  4  5  1  0
  4  2  1  0
  5  6  1  0
  6  8  1  0
  6  7  1  6
  8  9  2  0
 10 11  1  0
 11 21  2  0
 11 12  1  0
 12 13  2  0
 13 14  1  0
 14 15  1  0
 16 15  1  1
 17 16  1  0
 17  8  1  0
 18 16  1  0
 19 18  2  0
 20 14  2  0
 21 20  1  0
 23 22  1  0
 24 23  1  6
 24 25  1  0
 25 18  1  0
 26 27  1  0
 26 24  1  0
 28 26  2  0
M  END
$$$$
