QYS.pdb
     RDKit          3D

 28 28  0  0  1  0  0  0  0  0999 V2000
   21.9063  -23.1819  -14.4229 N   0  0  0  0  0  0  0  0  0  0  0  0
   20.5056  -22.8500  -14.6090 C   0  0  0  0  0  0  0  0  0  0  0  0
   19.7885  -23.7700  -15.0365 O   0  0  0  0  0  0  0  0  0  0  0  0
   20.0311  -21.5009  -14.2986 C   0  0  0  0  0  0  0  0  0  0  0  0
   21.0544  -20.6349  -13.6811 C   0  0  0  0  0  0  0  0  0  0  0  0
   21.3336  -20.7956  -12.2350 C   0  0  2  0  0  0  0  0  0  0  0  0
   20.4631  -20.1814  -11.3071 N   0  0  0  0  0  0  0  0  0  0  0  0
   22.7762  -20.3924  -12.0315 C   0  0  0  0  0  0  0  0  0  0  0  0
   23.0710  -19.1768  -11.8580 O   0  0  0  0  0  0  0  0  0  0  0  0
   28.3434  -19.2568   -6.3465 O   0  0  0  0  0  0  0  0  0  0  0  0
   27.7785  -19.9004   -7.4451 C   0  0  0  0  0  0  0  0  0  0  0  0
   28.5188  -20.6138   -8.3521 C   0  0  0  0  0  0  0  0  0  0  0  0
   27.9176  -21.2355   -9.4260 C   0  0  0  0  0  0  0  0  0  0  0  0
   26.5559  -21.1754   -9.6455 C   0  0  0  0  0  0  0  0  0  0  0  0
   25.8832  -21.8227  -10.7860 C   0  0  0  0  0  0  0  0  0  0  0  0
   25.1725  -20.8572  -11.7053 C   0  0  2  0  0  0  0  0  0  0  0  0
   23.8311  -21.3364  -12.0277 N   0  0  0  0  0  0  0  0  0  0  0  0
   25.8784  -20.6280  -12.9846 C   0  0  0  0  0  0  0  0  0  0  0  0
   25.5796  -21.3550  -13.9657 O   0  0  0  0  0  0  0  0  0  0  0  0
   25.8383  -20.4387   -8.6981 C   0  0  0  0  0  0  0  0  0  0  0  0
   26.4272  -19.8176   -7.6277 C   0  0  0  0  0  0  0  0  0  0  0  0
   28.9760  -18.1091  -15.6764 O   0  0  0  0  0  0  0  0  0  0  0  0
   28.3574  -18.2039  -14.4279 C   0  0  0  0  0  0  0  0  0  0  0  0
   27.4271  -19.3994  -14.4278 C   0  0  2  0  0  0  0  0  0  0  0  0
   26.8641  -19.6284  -13.1283 N   0  0  0  0  0  0  0  0  0  0  0  0
   28.2287  -20.5825  -14.8160 C   0  0  0  0  0  0  0  0  0  0  0  0
   28.3672  -20.9200  -16.1636 O   0  0  0  0  0  0  0  0  0  0  0  0
   28.7853  -21.2859  -13.9471 O   0  0  0  0  0  0  0  0  0  0  0  0
  2  1  1  0
  2  3  2  0
  4  5  1  0
  4  2  1  0
  5  6  1  0
  6  8  1  0
  6  7  1  1
  8  9  2  0
 10 11  1  0
 11 21  2  0
 11 12  1  0
 12 13  2  0
 13 14  1  0
 14 15  1  0
 16 15  1  1
 17 16  1  0
 17  8  1  0
 18 16  1  0
 19 18  2  0
 20 14  2  0
 21 20  1  0
 23 22  1  0
 24 23  1  1
 24 25  1  0
 25 18  1  0
 26 27  1  0
 26 24  1  0
 28 26  2  0
M  END
$$$$
