QYS.pdb
     RDKit          3D

 28 28  0  0  1  0  0  0  0  0999 V2000
   15.2017  -14.1074  -13.8859 N   0  0  0  0  0  0  0  0  0  0  0  0
   14.4272  -13.4217  -14.9042 C   0  0  0  0  0  0  0  0  0  0  0  0
   13.5847  -14.1169  -15.4962 O   0  0  0  0  0  0  0  0  0  0  0  0
   14.6722  -12.0040  -15.1717 C   0  0  0  0  0  0  0  0  0  0  0  0
   15.6690  -11.3900  -14.2730 C   0  0  0  0  0  0  0  0  0  0  0  0
   16.9052  -10.8315  -14.8688 C   0  0  2  0  0  0  0  0  0  0  0  0
   17.8498  -11.7237  -15.4235 N   0  0  0  0  0  0  0  0  0  0  0  0
   17.5101   -9.9227  -13.8232 C   0  0  0  0  0  0  0  0  0  0  0  0
   18.0648  -10.4192  -12.8032 O   0  0  0  0  0  0  0  0  0  0  0  0
   23.6041  -10.1313  -15.3821 O   0  0  0  0  0  0  0  0  0  0  0  0
   22.5645   -9.3517  -14.8800 C   0  0  0  0  0  0  0  0  0  0  0  0
   22.4195   -9.0741  -13.5453 C   0  0  0  0  0  0  0  0  0  0  0  0
   21.3744   -8.2972  -13.0919 C   0  0  0  0  0  0  0  0  0  0  0  0
   20.4286   -7.7630  -13.9440 C   0  0  0  0  0  0  0  0  0  0  0  0
   19.2967   -6.9346  -13.4916 C   0  0  0  0  0  0  0  0  0  0  0  0
   18.1526   -7.7291  -12.9066 C   0  0  2  0  0  0  0  0  0  0  0  0
   17.4802   -8.5121  -13.9399 N   0  0  0  0  0  0  0  0  0  0  0  0
   17.1254   -6.8929  -12.2485 C   0  0  0  0  0  0  0  0  0  0  0  0
   16.2153   -6.3999  -12.9619 O   0  0  0  0  0  0  0  0  0  0  0  0
   20.6131   -8.0699  -15.2958 C   0  0  0  0  0  0  0  0  0  0  0  0
   21.6487   -8.8409  -15.7555 C   0  0  0  0  0  0  0  0  0  0  0  0
   15.0837   -5.0516   -8.3066 O   0  0  0  0  0  0  0  0  0  0  0  0
   16.1024   -5.8750   -8.7908 C   0  0  0  0  0  0  0  0  0  0  0  0
   16.1245   -5.7951  -10.3033 C   0  0  2  0  0  0  0  0  0  0  0  0
   17.1422   -6.6389  -10.8604 N   0  0  0  0  0  0  0  0  0  0  0  0
   16.4178   -4.3897  -10.6669 C   0  0  0  0  0  0  0  0  0  0  0  0
   15.3967   -3.4377  -10.6532 O   0  0  0  0  0  0  0  0  0  0  0  0
   17.5743   -4.0444  -10.9872 O   0  0  0  0  0  0  0  0  0  0  0  0
  2  1  1  0
  2  3  2  0
  4  5  1  0
  4  2  1  0
  5  6  1  0
  6  8  1  0
  6  7  1  1
  8  9  2  0
 10 11  1  0
 11 21  2  0
 11 12  1  0
 12 13  2  0
 13 14  1  0
 14 15  1  0
 16 15  1  6
 17 16  1  0
 17  8  1  0
 18 16  1  0
 19 18  2  0
 20 14  2  0
 21 20  1  0
 23 22  1  0
 24 23  1  1
 24 25  1  0
 25 18  1  0
 26 27  1  0
 26 24  1  0
 28 26  2  0
M  END
$$$$
