VNV.pdb
     RDKit          3D

 23 22  0  0  1  0  0  0  0  0999 V2000
   17.6604  -12.5477  -15.2087 C   0  0  0  0  0  0  0  0  0  0  0  0
   17.8388  -12.0076  -16.6054 C   0  0  2  0  0  0  0  0  0  0  0  0
   18.3725  -13.1467  -17.4655 C   0  0  0  0  0  0  0  0  0  0  0  0
   18.8701  -10.9090  -16.6496 C   0  0  2  0  0  0  0  0  0  0  0  0
   20.1667  -11.3909  -16.2865 N   0  0  0  0  0  0  0  0  0  0  0  0
   18.5274   -9.7817  -15.7439 C   0  0  0  0  0  0  0  0  0  0  0  0
   17.4809   -9.0910  -15.8816 O   0  0  0  0  0  0  0  0  0  0  0  0
   18.5299   -6.2508  -12.0013 N   0  0  0  0  0  0  0  0  0  0  0  0
   18.4757   -7.5751  -11.5088 C   0  0  0  0  0  0  0  0  0  0  0  0
   18.2055   -7.7521  -10.3027 O   0  0  0  0  0  0  0  0  0  0  0  0
   18.7354   -8.6831  -12.4199 C   0  0  0  0  0  0  0  0  0  0  0  0
   19.1154   -8.2673  -13.8155 C   0  0  2  0  0  0  0  0  0  0  0  0
   19.3833   -9.4302  -14.6646 N   0  0  0  0  0  0  0  0  0  0  0  0
   20.3711   -7.4684  -13.7890 C   0  0  0  0  0  0  0  0  0  0  0  0
   21.4480   -7.8963  -13.2872 O   0  0  0  0  0  0  0  0  0  0  0  0
   20.7689   -4.2424  -16.4367 C   0  0  0  0  0  0  0  0  0  0  0  0
   21.9387   -5.0364  -15.9150 C   0  0  2  0  0  0  0  0  0  0  0  0
   22.0238   -6.3108  -16.7224 C   0  0  0  0  0  0  0  0  0  0  0  0
   21.6790   -5.4151  -14.4707 C   0  0  2  0  0  0  0  0  0  0  0  0
   20.4321   -6.1456  -14.3404 N   0  0  0  0  0  0  0  0  0  0  0  0
   21.6802   -4.2328  -13.5930 C   0  0  0  0  0  0  0  0  0  0  0  0
   20.5839   -3.8244  -13.1246 O   0  0  0  0  0  0  0  0  0  0  0  0
   22.8700   -3.6005  -13.3026 O   0  0  0  0  0  0  0  0  0  0  0  0
  2  1  1  1
  2  3  1  0
  4  2  1  0
  4  5  1  1
  6  4  1  0
  6 13  1  0
  7  6  2  0
  8  9  1  0
  9 11  1  0
  9 10  2  0
 12 11  1  1
 12 13  1  0
 12 14  1  0
 14 20  1  0
 15 14  2  0
 17 16  1  6
 18 17  1  0
 19 17  1  0
 19 21  1  0
 19 20  1  6
 21 23  1  0
 22 21  2  0
M  END
$$$$
