VNV.pdb
     RDKit          3D

 23 22  0  0  1  0  0  0  0  0999 V2000
   17.2584  -14.1901  -19.9587 C   0  0  0  0  0  0  0  0  0  0  0  0
   18.3255  -15.0240  -19.2951 C   0  0  2  0  0  0  0  0  0  0  0  0
   17.6822  -16.3463  -18.8956 C   0  0  0  0  0  0  0  0  0  0  0  0
   18.8244  -14.3818  -18.0257 C   0  0  2  0  0  0  0  0  0  0  0  0
   17.7939  -14.3027  -17.0372 N   0  0  0  0  0  0  0  0  0  0  0  0
   19.3454  -13.0097  -18.2589 C   0  0  0  0  0  0  0  0  0  0  0  0
   20.3483  -12.7764  -18.9875 O   0  0  0  0  0  0  0  0  0  0  0  0
   18.9913   -7.5184  -19.5091 N   0  0  0  0  0  0  0  0  0  0  0  0
   18.7040   -8.1686  -18.2868 C   0  0  0  0  0  0  0  0  0  0  0  0
   18.8308   -7.5245  -17.2246 O   0  0  0  0  0  0  0  0  0  0  0  0
   18.2719   -9.5608  -18.3070 C   0  0  0  0  0  0  0  0  0  0  0  0
   19.2853  -10.5363  -17.7722 C   0  0  2  0  0  0  0  0  0  0  0  0
   18.7210  -11.8830  -17.6574 N   0  0  0  0  0  0  0  0  0  0  0  0
   19.7062  -10.1391  -16.4008 C   0  0  0  0  0  0  0  0  0  0  0  0
   18.9622  -10.2678  -15.3886 O   0  0  0  0  0  0  0  0  0  0  0  0
   23.7875   -9.4715  -15.5691 C   0  0  0  0  0  0  0  0  0  0  0  0
   22.7967   -9.8936  -14.5149 C   0  0  2  0  0  0  0  0  0  0  0  0
   22.6275  -11.3915  -14.6187 C   0  0  0  0  0  0  0  0  0  0  0  0
   21.4555   -9.2508  -14.8063 C   0  0  2  0  0  0  0  0  0  0  0  0
   21.0014   -9.5782  -16.1449 N   0  0  0  0  0  0  0  0  0  0  0  0
   21.5031   -7.7911  -14.6186 C   0  0  0  0  0  0  0  0  0  0  0  0
   21.4775   -7.0479  -15.6360 O   0  0  0  0  0  0  0  0  0  0  0  0
   21.5742   -7.2695  -13.3448 O   0  0  0  0  0  0  0  0  0  0  0  0
  2  1  1  1
  2  3  1  0
  4  2  1  0
  4  5  1  1
  6  4  1  0
  6 13  1  0
  7  6  2  0
  8  9  1  0
  9 11  1  0
  9 10  2  0
 12 11  1  1
 12 13  1  0
 12 14  1  0
 14 20  1  0
 15 14  2  0
 17 16  1  6
 18 17  1  0
 19 17  1  0
 19 21  1  0
 19 20  1  6
 21 23  1  0
 22 21  2  0
M  END
$$$$
