VNV.pdb
     RDKit          3D

 23 22  0  0  1  0  0  0  0  0999 V2000
   22.0762  -16.8636  -17.5069 C   0  0  0  0  0  0  0  0  0  0  0  0
   23.1827  -17.0299  -16.4959 C   0  0  2  0  0  0  0  0  0  0  0  0
   24.1216  -15.8402  -16.6539 C   0  0  0  0  0  0  0  0  0  0  0  0
   24.0001  -18.2679  -16.7640 C   0  0  2  0  0  0  0  0  0  0  0  0
   24.6132  -18.2228  -18.0553 N   0  0  0  0  0  0  0  0  0  0  0  0
   23.1834  -19.5069  -16.6849 C   0  0  0  0  0  0  0  0  0  0  0  0
   22.6743  -20.0535  -17.7014 O   0  0  0  0  0  0  0  0  0  0  0  0
   23.7480  -22.4712  -17.2248 N   0  0  0  0  0  0  0  0  0  0  0  0
   23.7834  -23.0361  -15.9290 C   0  0  0  0  0  0  0  0  0  0  0  0
   24.5997  -23.9529  -15.7005 O   0  0  0  0  0  0  0  0  0  0  0  0
   22.8714  -22.5327  -14.9093 C   0  0  0  0  0  0  0  0  0  0  0  0
   22.0817  -21.3201  -15.3224 C   0  0  2  0  0  0  0  0  0  0  0  0
   22.9387  -20.1377  -15.4346 N   0  0  0  0  0  0  0  0  0  0  0  0
   21.0566  -20.9996  -14.2917 C   0  0  0  0  0  0  0  0  0  0  0  0
   21.3231  -20.3730  -13.2282 O   0  0  0  0  0  0  0  0  0  0  0  0
   16.9461  -21.1793  -15.2425 C   0  0  0  0  0  0  0  0  0  0  0  0
   17.5106  -20.3134  -14.1458 C   0  0  2  0  0  0  0  0  0  0  0  0
   18.0589  -19.0604  -14.7880 C   0  0  0  0  0  0  0  0  0  0  0  0
   18.6624  -21.0400  -13.4809 C   0  0  2  0  0  0  0  0  0  0  0  0
   19.6852  -21.3897  -14.4487 N   0  0  0  0  0  0  0  0  0  0  0  0
   18.2017  -22.2378  -12.7590 C   0  0  0  0  0  0  0  0  0  0  0  0
   18.5478  -23.3724  -13.1845 O   0  0  0  0  0  0  0  0  0  0  0  0
   17.4076  -22.0970  -11.6414 O   0  0  0  0  0  0  0  0  0  0  0  0
  2  1  1  6
  2  3  1  0
  4  2  1  0
  4  5  1  6
  6  4  1  0
  6 13  1  0
  7  6  2  0
  8  9  1  0
  9 11  1  0
  9 10  2  0
 12 11  1  1
 12 13  1  0
 12 14  1  0
 14 20  1  0
 15 14  2  0
 17 16  1  6
 18 17  1  0
 19 17  1  0
 19 21  1  0
 19 20  1  6
 21 23  1  0
 22 21  2  0
M  END
$$$$
