VNV.pdb
     RDKit          3D

 23 22  0  0  1  0  0  0  0  0999 V2000
   20.3595  -14.2511  -20.4752 C   0  0  0  0  0  0  0  0  0  0  0  0
   19.3809  -13.3654  -19.7456 C   0  0  2  0  0  0  0  0  0  0  0  0
   18.0992  -13.3340  -20.5692 C   0  0  0  0  0  0  0  0  0  0  0  0
   19.8758  -11.9442  -19.6566 C   0  0  2  0  0  0  0  0  0  0  0  0
   21.1386  -11.8687  -18.9896 N   0  0  0  0  0  0  0  0  0  0  0  0
   18.9209  -11.0622  -18.9364 C   0  0  0  0  0  0  0  0  0  0  0  0
   17.7591  -10.8220  -19.3650 O   0  0  0  0  0  0  0  0  0  0  0  0
   16.2701  -11.0140  -15.8763 N   0  0  0  0  0  0  0  0  0  0  0  0
   17.3034  -10.6261  -14.9924 C   0  0  0  0  0  0  0  0  0  0  0  0
   17.2303  -10.9810  -13.7974 O   0  0  0  0  0  0  0  0  0  0  0  0
   18.4128   -9.8296  -15.5022 C   0  0  0  0  0  0  0  0  0  0  0  0
   18.3638   -9.5678  -16.9834 C   0  0  2  0  0  0  0  0  0  0  0  0
   19.2869  -10.4419  -17.7107 N   0  0  0  0  0  0  0  0  0  0  0  0
   18.7920   -8.1717  -17.2722 C   0  0  0  0  0  0  0  0  0  0  0  0
   19.9992   -7.8024  -17.2425 O   0  0  0  0  0  0  0  0  0  0  0  0
   17.6261   -3.7763  -19.2391 C   0  0  0  0  0  0  0  0  0  0  0  0
   17.2805   -5.2246  -19.0065 C   0  0  2  0  0  0  0  0  0  0  0  0
   15.8957   -5.2740  -18.4040 C   0  0  0  0  0  0  0  0  0  0  0  0
   18.2491   -5.8121  -17.9997 C   0  0  2  0  0  0  0  0  0  0  0  0
   17.8437   -7.1486  -17.6062 N   0  0  0  0  0  0  0  0  0  0  0  0
   18.3924   -4.9458  -16.8178 C   0  0  0  0  0  0  0  0  0  0  0  0
   17.6225   -5.1267  -15.8367 O   0  0  0  0  0  0  0  0  0  0  0  0
   19.3575   -3.9618  -16.8068 O   0  0  0  0  0  0  0  0  0  0  0  0
  2  1  1  6
  2  3  1  0
  4  2  1  0
  4  5  1  1
  6  4  1  0
  6 13  1  0
  7  6  2  0
  8  9  1  0
  9 11  1  0
  9 10  2  0
 12 11  1  1
 12 13  1  0
 12 14  1  0
 14 20  1  0
 15 14  2  0
 17 16  1  1
 18 17  1  0
 19 17  1  0
 19 21  1  0
 19 20  1  1
 21 23  1  0
 22 21  2  0
M  END
$$$$
