VNV.pdb
     RDKit          3D

 23 22  0  0  1  0  0  0  0  0999 V2000
   15.7377  -14.7187  -15.5842 C   0  0  0  0  0  0  0  0  0  0  0  0
   16.1303  -14.6172  -17.0368 C   0  0  2  0  0  0  0  0  0  0  0  0
   16.7465  -15.9535  -17.4326 C   0  0  0  0  0  0  0  0  0  0  0  0
   17.1904  -13.5677  -17.2547 C   0  0  2  0  0  0  0  0  0  0  0  0
   18.4050  -13.8996  -16.5767 N   0  0  0  0  0  0  0  0  0  0  0  0
   16.7546  -12.2256  -16.7886 C   0  0  0  0  0  0  0  0  0  0  0  0
   15.7679  -11.6183  -17.2874 O   0  0  0  0  0  0  0  0  0  0  0  0
   16.5674   -7.6821  -14.2751 N   0  0  0  0  0  0  0  0  0  0  0  0
   16.8567   -8.7073  -13.3452 C   0  0  0  0  0  0  0  0  0  0  0  0
   16.7848   -8.4445  -12.1266 O   0  0  0  0  0  0  0  0  0  0  0  0
   17.2269  -10.0287  -13.8370 C   0  0  0  0  0  0  0  0  0  0  0  0
   17.0947  -10.1998  -15.3262 C   0  0  2  0  0  0  0  0  0  0  0  0
   17.4470  -11.5597  -15.7406 N   0  0  0  0  0  0  0  0  0  0  0  0
   18.0356   -9.2883  -16.0331 C   0  0  0  0  0  0  0  0  0  0  0  0
   19.2849   -9.4714  -16.0546 O   0  0  0  0  0  0  0  0  0  0  0  0
   16.5365   -6.1955  -18.5854 C   0  0  0  0  0  0  0  0  0  0  0  0
   17.8573   -6.8808  -18.8239 C   0  0  2  0  0  0  0  0  0  0  0  0
   17.5819   -8.1500  -19.5963 C   0  0  0  0  0  0  0  0  0  0  0  0
   18.4653   -7.2679  -17.4907 C   0  0  2  0  0  0  0  0  0  0  0  0
   17.5711   -8.1311  -16.7420 N   0  0  0  0  0  0  0  0  0  0  0  0
   18.8258   -6.0820  -16.6959 C   0  0  0  0  0  0  0  0  0  0  0  0
   19.7665   -5.3460  -17.0978 O   0  0  0  0  0  0  0  0  0  0  0  0
   18.1338   -5.8016  -15.5374 O   0  0  0  0  0  0  0  0  0  0  0  0
  2  1  1  1
  2  3  1  0
  4  2  1  0
  4  5  1  1
  6  4  1  0
  6 13  1  0
  7  6  2  0
  8  9  1  0
  9 11  1  0
  9 10  2  0
 12 11  1  1
 12 13  1  0
 12 14  1  0
 14 20  1  0
 15 14  2  0
 17 16  1  1
 18 17  1  0
 19 17  1  0
 19 21  1  0
 19 20  1  1
 21 23  1  0
 22 21  2  0
M  END
$$$$
