VNV.pdb
     RDKit          3D

 23 22  0  0  1  0  0  0  0  0999 V2000
   19.1739  -14.4820  -17.2967 C   0  0  0  0  0  0  0  0  0  0  0  0
   18.8905  -13.3234  -16.3737 C   0  0  2  0  0  0  0  0  0  0  0  0
   17.4212  -13.4094  -15.9789 C   0  0  0  0  0  0  0  0  0  0  0  0
   19.0773  -11.9991  -17.0694 C   0  0  2  0  0  0  0  0  0  0  0  0
   20.4141  -11.8442  -17.5534 N   0  0  0  0  0  0  0  0  0  0  0  0
   18.7743  -10.8498  -16.1774 C   0  0  0  0  0  0  0  0  0  0  0  0
   17.6451  -10.6832  -15.6405 O   0  0  0  0  0  0  0  0  0  0  0  0
   19.3271   -7.0110  -12.7841 N   0  0  0  0  0  0  0  0  0  0  0  0
   20.4699   -7.8437  -12.7973 C   0  0  0  0  0  0  0  0  0  0  0  0
   21.2395   -7.8154  -11.8144 O   0  0  0  0  0  0  0  0  0  0  0  0
   20.7102   -8.7022  -13.9507 C   0  0  0  0  0  0  0  0  0  0  0  0
   19.5438   -8.8201  -14.8944 C   0  0  2  0  0  0  0  0  0  0  0  0
   19.7657   -9.8728  -15.8883 N   0  0  0  0  0  0  0  0  0  0  0  0
   19.3700   -7.5532  -15.6562 C   0  0  0  0  0  0  0  0  0  0  0  0
   20.2134   -7.1356  -16.4981 O   0  0  0  0  0  0  0  0  0  0  0  0
   15.6100   -5.6448  -15.8843 C   0  0  0  0  0  0  0  0  0  0  0  0
   16.7098   -5.4096  -16.8874 C   0  0  2  0  0  0  0  0  0  0  0  0
   16.6670   -6.5413  -17.8878 C   0  0  0  0  0  0  0  0  0  0  0  0
   18.0489   -5.4622  -16.1796 C   0  0  2  0  0  0  0  0  0  0  0  0
   18.2164   -6.7198  -15.4758 N   0  0  0  0  0  0  0  0  0  0  0  0
   18.2183   -4.3266  -15.2577 C   0  0  0  0  0  0  0  0  0  0  0  0
   18.4219   -3.1800  -15.7393 O   0  0  0  0  0  0  0  0  0  0  0  0
   18.1516   -4.5371  -13.8972 O   0  0  0  0  0  0  0  0  0  0  0  0
  2  1  1  6
  2  3  1  0
  4  2  1  0
  4  5  1  1
  6  4  1  0
  6 13  1  0
  7  6  2  0
  8  9  1  0
  9 11  1  0
  9 10  2  0
 12 11  1  1
 12 13  1  0
 12 14  1  0
 14 20  1  0
 15 14  2  0
 17 16  1  1
 18 17  1  0
 19 17  1  0
 19 21  1  0
 19 20  1  1
 21 23  1  0
 22 21  2  0
M  END
$$$$
