VNV.pdb
     RDKit          3D

 23 22  0  0  1  0  0  0  0  0999 V2000
   25.0725  -13.9402  -16.6794 C   0  0  0  0  0  0  0  0  0  0  0  0
   23.7108  -13.3147  -16.8489 C   0  0  2  0  0  0  0  0  0  0  0  0
   23.3380  -13.4361  -18.3215 C   0  0  0  0  0  0  0  0  0  0  0  0
   23.7304  -11.8425  -16.5250 C   0  0  2  0  0  0  0  0  0  0  0  0
   24.2172  -11.6024  -15.2020 N   0  0  0  0  0  0  0  0  0  0  0  0
   22.3833  -11.2255  -16.6393 C   0  0  0  0  0  0  0  0  0  0  0  0
   21.7334  -11.2033  -17.7202 O   0  0  0  0  0  0  0  0  0  0  0  0
   17.9041  -11.6222  -16.1593 N   0  0  0  0  0  0  0  0  0  0  0  0
   18.7500  -11.7334  -15.0317 C   0  0  0  0  0  0  0  0  0  0  0  0
   18.8333  -12.8380  -14.4554 O   0  0  0  0  0  0  0  0  0  0  0  0
   19.4922  -10.5620  -14.5821 C   0  0  0  0  0  0  0  0  0  0  0  0
   20.4414   -9.9952  -15.6031 C   0  0  2  0  0  0  0  0  0  0  0  0
   21.7613  -10.6235  -15.5115 N   0  0  0  0  0  0  0  0  0  0  0  0
   20.6503   -8.5418  -15.3585 C   0  0  0  0  0  0  0  0  0  0  0  0
   21.2720   -8.0958  -14.3539 O   0  0  0  0  0  0  0  0  0  0  0  0
   19.5478   -5.6870  -18.3325 C   0  0  0  0  0  0  0  0  0  0  0  0
   20.6555   -5.4150  -17.3475 C   0  0  2  0  0  0  0  0  0  0  0  0
   21.9266   -6.0041  -17.9135 C   0  0  0  0  0  0  0  0  0  0  0  0
   20.3499   -6.1274  -16.0453 C   0  0  2  0  0  0  0  0  0  0  0  0
   20.1500   -7.5478  -16.2636 N   0  0  0  0  0  0  0  0  0  0  0  0
   19.1827   -5.5387  -15.3677 C   0  0  0  0  0  0  0  0  0  0  0  0
   18.0977   -6.1795  -15.3628 O   0  0  0  0  0  0  0  0  0  0  0  0
   19.2978   -4.3085  -14.7568 O   0  0  0  0  0  0  0  0  0  0  0  0
  2  1  1  6
  2  3  1  0
  4  2  1  0
  4  5  1  1
  6  4  1  0
  6 13  1  0
  7  6  2  0
  8  9  1  0
  9 11  1  0
  9 10  2  0
 12 11  1  1
 12 13  1  0
 12 14  1  0
 14 20  1  0
 15 14  2  0
 17 16  1  6
 18 17  1  0
 19 17  1  0
 19 21  1  0
 19 20  1  6
 21 23  1  0
 22 21  2  0
M  END
$$$$
