VNV.pdb
     RDKit          3D

 23 22  0  0  1  0  0  0  0  0999 V2000
   14.3033  -11.9308  -16.2327 C   0  0  0  0  0  0  0  0  0  0  0  0
   14.1968  -10.6061  -16.9456 C   0  0  2  0  0  0  0  0  0  0  0  0
   14.8057  -10.7882  -18.3306 C   0  0  0  0  0  0  0  0  0  0  0  0
   15.0017   -9.5355  -16.2538 C   0  0  2  0  0  0  0  0  0  0  0  0
   16.4009   -9.8298  -16.2822 N   0  0  0  0  0  0  0  0  0  0  0  0
   14.5968   -9.3588  -14.8349 C   0  0  0  0  0  0  0  0  0  0  0  0
   13.4363   -8.9976  -14.4974 O   0  0  0  0  0  0  0  0  0  0  0  0
   13.6206  -10.0608  -10.0941 N   0  0  0  0  0  0  0  0  0  0  0  0
   14.5286  -11.0690  -10.4922 C   0  0  0  0  0  0  0  0  0  0  0  0
   14.6140  -12.1027   -9.7970 O   0  0  0  0  0  0  0  0  0  0  0  0
   15.3298  -10.8695  -11.6936 C   0  0  0  0  0  0  0  0  0  0  0  0
   15.1146   -9.5446  -12.3741 C   0  0  2  0  0  0  0  0  0  0  0  0
   15.5207   -9.5948  -13.7804 N   0  0  0  0  0  0  0  0  0  0  0  0
   15.9530   -8.4956  -11.7320 C   0  0  0  0  0  0  0  0  0  0  0  0
   17.2020   -8.4149  -11.9002 O   0  0  0  0  0  0  0  0  0  0  0  0
   14.1139   -5.2146   -9.6603 C   0  0  0  0  0  0  0  0  0  0  0  0
   15.4122   -5.0975  -10.4164 C   0  0  2  0  0  0  0  0  0  0  0  0
   15.0758   -4.8595  -11.8702 C   0  0  0  0  0  0  0  0  0  0  0  0
   16.1648   -6.4094  -10.3198 C   0  0  2  0  0  0  0  0  0  0  0  0
   15.3826   -7.4998  -10.8714 N   0  0  0  0  0  0  0  0  0  0  0  0
   16.5594   -6.7057   -8.9325 C   0  0  0  0  0  0  0  0  0  0  0  0
   15.9969   -7.6608   -8.3331 O   0  0  0  0  0  0  0  0  0  0  0  0
   17.5282   -5.9395   -8.3209 O   0  0  0  0  0  0  0  0  0  0  0  0
  2  1  1  1
  2  3  1  0
  4  2  1  0
  4  5  1  1
  6  4  1  0
  6 13  1  0
  7  6  2  0
  8  9  1  0
  9 11  1  0
  9 10  2  0
 12 11  1  1
 12 13  1  0
 12 14  1  0
 14 20  1  0
 15 14  2  0
 17 16  1  1
 18 17  1  0
 19 17  1  0
 19 21  1  0
 19 20  1  1
 21 23  1  0
 22 21  2  0
M  END
$$$$
