VNV.pdb
     RDKit          3D

 23 22  0  0  1  0  0  0  0  0999 V2000
   26.7062  -17.5109  -18.7270 C   0  0  0  0  0  0  0  0  0  0  0  0
   27.7886  -18.0263  -17.8121 C   0  0  2  0  0  0  0  0  0  0  0  0
   28.9228  -18.5330  -18.6948 C   0  0  0  0  0  0  0  0  0  0  0  0
   27.3144  -19.2016  -16.9958 C   0  0  2  0  0  0  0  0  0  0  0  0
   26.8830  -20.2803  -17.8298 N   0  0  0  0  0  0  0  0  0  0  0  0
   26.1910  -18.8400  -16.0926 C   0  0  0  0  0  0  0  0  0  0  0  0
   26.2850  -17.9381  -15.2157 O   0  0  0  0  0  0  0  0  0  0  0  0
   23.5899  -16.6001  -16.4979 N   0  0  0  0  0  0  0  0  0  0  0  0
   22.5367  -17.5024  -16.7738 C   0  0  0  0  0  0  0  0  0  0  0  0
   21.5988  -17.1189  -17.5035 O   0  0  0  0  0  0  0  0  0  0  0  0
   22.5804  -18.8421  -16.2007 C   0  0  0  0  0  0  0  0  0  0  0  0
   23.7954  -19.1205  -15.3575 C   0  0  2  0  0  0  0  0  0  0  0  0
   24.9405  -19.5101  -16.1834 N   0  0  0  0  0  0  0  0  0  0  0  0
   23.5322  -20.2621  -14.4392 C   0  0  0  0  0  0  0  0  0  0  0  0
   23.2173  -21.4149  -14.8476 O   0  0  0  0  0  0  0  0  0  0  0  0
   24.0750  -19.9296  -10.1302 C   0  0  0  0  0  0  0  0  0  0  0  0
   24.3038  -21.1892  -10.9254 C   0  0  2  0  0  0  0  0  0  0  0  0
   25.7136  -21.1393  -11.4669 C   0  0  0  0  0  0  0  0  0  0  0  0
   23.3513  -21.2138  -12.1040 C   0  0  2  0  0  0  0  0  0  0  0  0
   23.6222  -20.1174  -13.0149 N   0  0  0  0  0  0  0  0  0  0  0  0
   21.9462  -21.1864  -11.6646 C   0  0  0  0  0  0  0  0  0  0  0  0
   21.2766  -20.1334  -11.8401 O   0  0  0  0  0  0  0  0  0  0  0  0
   21.3945  -22.3033  -11.0747 O   0  0  0  0  0  0  0  0  0  0  0  0
  2  1  1  6
  2  3  1  0
  4  2  1  0
  4  5  1  6
  6  4  1  0
  6 13  1  0
  7  6  2  0
  8  9  1  0
  9 11  1  0
  9 10  2  0
 12 11  1  6
 12 13  1  0
 12 14  1  0
 14 20  1  0
 15 14  2  0
 17 16  1  1
 18 17  1  0
 19 17  1  0
 19 21  1  0
 19 20  1  6
 21 23  1  0
 22 21  2  0
M  END
$$$$
