VNV.pdb
     RDKit          3D

 23 22  0  0  1  0  0  0  0  0999 V2000
   15.8811  -12.5107  -17.3735 C   0  0  0  0  0  0  0  0  0  0  0  0
   17.0932  -12.8462  -18.2057 C   0  0  2  0  0  0  0  0  0  0  0  0
   16.7676  -14.1127  -18.9881 C   0  0  0  0  0  0  0  0  0  0  0  0
   18.2895  -13.1622  -17.3445 C   0  0  2  0  0  0  0  0  0  0  0  0
   18.0831  -14.3495  -16.5744 N   0  0  0  0  0  0  0  0  0  0  0  0
   18.6133  -12.0556  -16.4070 C   0  0  0  0  0  0  0  0  0  0  0  0
   18.1198  -11.9775  -15.2487 O   0  0  0  0  0  0  0  0  0  0  0  0
   20.8328   -7.9881  -14.1418 N   0  0  0  0  0  0  0  0  0  0  0  0
   21.8000   -8.7053  -14.8833 C   0  0  0  0  0  0  0  0  0  0  0  0
   23.0018   -8.3910  -14.7567 O   0  0  0  0  0  0  0  0  0  0  0  0
   21.3646   -9.7811  -15.7654 C   0  0  0  0  0  0  0  0  0  0  0  0
   19.8714   -9.9379  -15.8682 C   0  0  2  0  0  0  0  0  0  0  0  0
   19.5104  -11.0202  -16.7866 N   0  0  0  0  0  0  0  0  0  0  0  0
   19.2620   -8.6973  -16.4208 C   0  0  0  0  0  0  0  0  0  0  0  0
   19.3893   -8.3469  -17.6273 O   0  0  0  0  0  0  0  0  0  0  0  0
   15.7860   -5.3976  -16.5874 C   0  0  0  0  0  0  0  0  0  0  0  0
   16.3831   -6.7389  -16.2475 C   0  0  2  0  0  0  0  0  0  0  0  0
   15.8402   -7.1536  -14.8997 C   0  0  0  0  0  0  0  0  0  0  0  0
   17.8867   -6.5971  -16.1220 C   0  0  2  0  0  0  0  0  0  0  0  0
   18.4825   -7.8139  -15.6026 N   0  0  0  0  0  0  0  0  0  0  0  0
   18.2531   -5.4430  -15.2843 C   0  0  0  0  0  0  0  0  0  0  0  0
   18.4359   -5.6232  -14.0505 O   0  0  0  0  0  0  0  0  0  0  0  0
   18.3881   -4.1981  -15.8602 O   0  0  0  0  0  0  0  0  0  0  0  0
  2  1  1  1
  2  3  1  0
  4  2  1  0
  4  5  1  1
  6  4  1  0
  6 13  1  0
  7  6  2  0
  8  9  1  0
  9 11  1  0
  9 10  2  0
 12 11  1  6
 12 13  1  0
 12 14  1  0
 14 20  1  0
 15 14  2  0
 17 16  1  1
 18 17  1  0
 19 17  1  0
 19 21  1  0
 19 20  1  1
 21 23  1  0
 22 21  2  0
M  END
$$$$
