WCQ.pdb
     RDKit          3D

 30 31  0  0  1  0  0  0  0  0999 V2000
    7.6860  -15.9318   21.5210 N   0  0  0  0  0  0  0  0  0  0  0  0
    8.4449  -15.8933   22.7226 C   0  0  1  0  0  0  0  0  0  0  0  0
    7.5654  -15.8645   23.9476 C   0  0  0  0  0  0  0  0  0  0  0  0
    7.0085  -14.5430   24.2509 C   0  0  0  0  0  0  0  0  0  0  0  0
    5.8302  -14.0103   23.7068 C   0  0  0  0  0  0  0  0  0  0  0  0
    5.5988  -12.8046   24.2048 N   0  0  0  0  0  0  0  0  0  0  0  0
    6.5745  -12.4837   25.0733 C   0  0  0  0  0  0  0  0  0  0  0  0
    6.8236  -11.3879   25.8442 C   0  0  0  0  0  0  0  0  0  0  0  0
    7.9408  -11.3402   26.6541 C   0  0  0  0  0  0  0  0  0  0  0  0
    8.8171  -12.4044   26.6900 C   0  0  0  0  0  0  0  0  0  0  0  0
    8.5713  -13.5080   25.9176 C   0  0  0  0  0  0  0  0  0  0  0  0
    7.4503  -13.5546   25.1066 C   0  0  0  0  0  0  0  0  0  0  0  0
    9.3897  -17.0601   22.8306 C   0  0  0  0  0  0  0  0  0  0  0  0
    8.9294  -18.2102   22.6255 O   0  0  0  0  0  0  0  0  0  0  0  0
   10.7447  -16.9306   23.1461 N   0  0  0  0  0  0  0  0  0  0  0  0
   11.6424  -18.0477   23.4653 C   0  0  1  0  0  0  0  0  0  0  0  0
   12.5887  -18.2719   22.3102 C   0  0  0  0  0  0  0  0  0  0  0  0
   13.7536  -19.5689   22.7479 S   0  0  0  0  0  0  0  0  0  0  0  0
   12.3707  -17.6651   24.6810 C   0  0  0  0  0  0  0  0  0  0  0  0
   13.1427  -16.6601   24.6551 O   0  0  0  0  0  0  0  0  0  0  0  0
   10.6138  -16.7307   30.2168 N   0  0  0  0  0  0  0  0  0  0  0  0
   10.3023  -16.2993   28.9016 C   0  0  0  0  0  0  0  0  0  0  0  0
    9.3354  -15.5183   28.7368 O   0  0  0  0  0  0  0  0  0  0  0  0
   11.0943  -16.7528   27.7283 C   0  0  0  0  0  0  0  0  0  0  0  0
   12.2316  -17.6316   28.1876 C   0  0  0  0  0  0  0  0  0  0  0  0
   13.0881  -18.1057   27.0452 C   0  0  2  0  0  0  0  0  0  0  0  0
   12.2458  -18.3676   25.8814 N   0  0  0  0  0  0  0  0  0  0  0  0
   13.8409  -19.3290   27.3943 C   0  0  0  0  0  0  0  0  0  0  0  0
   13.6347  -20.4230   26.8101 O   0  0  0  0  0  0  0  0  0  0  0  0
   14.8157  -19.3328   28.3866 O   0  0  0  0  0  0  0  0  0  0  0  0
  2  3  1  0
  2  1  1  6
  2 13  1  0
  3  4  1  0
  4 12  1  0
  4  5  2  0
  5  6  1  0
  7  6  1  0
  7  8  2  0
  9  8  1  0
 10  9  2  0
 11 12  2  0
 11 10  1  0
 12  7  1  0
 13 14  2  0
 15 13  1  0
 15 16  1  0
 16 19  1  0
 16 17  1  6
 18 17  1  0
 19 20  2  0
 21 22  1  0
 22 23  2  0
 24 22  1  0
 24 25  1  0
 26 25  1  1
 26 28  1  0
 27 26  1  0
 27 19  1  0
 28 29  2  0
 28 30  1  0
M  END
$$$$
