WCQ.pdb
     RDKit          3D

 30 31  0  0  1  0  0  0  0  0999 V2000
    6.8614  -17.8151   24.3029 N   0  0  0  0  0  0  0  0  0  0  0  0
    6.9827  -16.4868   23.8111 C   0  0  1  0  0  0  0  0  0  0  0  0
    7.8736  -15.6385   24.6839 C   0  0  0  0  0  0  0  0  0  0  0  0
    7.1460  -14.7873   25.6297 C   0  0  0  0  0  0  0  0  0  0  0  0
    6.0828  -15.1998   26.4467 C   0  0  0  0  0  0  0  0  0  0  0  0
    5.6632  -14.1922   27.1977 N   0  0  0  0  0  0  0  0  0  0  0  0
    6.3974  -13.0975   26.9296 C   0  0  0  0  0  0  0  0  0  0  0  0
    6.3849  -11.8189   27.4008 C   0  0  0  0  0  0  0  0  0  0  0  0
    7.2800  -10.8852   26.9176 C   0  0  0  0  0  0  0  0  0  0  0  0
    8.1973  -11.2397   25.9509 C   0  0  0  0  0  0  0  0  0  0  0  0
    8.2143  -12.5232   25.4741 C   0  0  0  0  0  0  0  0  0  0  0  0
    7.3165  -13.4583   25.9601 C   0  0  0  0  0  0  0  0  0  0  0  0
    7.5097  -16.4530   22.4015 C   0  0  0  0  0  0  0  0  0  0  0  0
    8.1210  -17.4647   21.9781 O   0  0  0  0  0  0  0  0  0  0  0  0
    7.3553  -15.3601   21.5448 N   0  0  0  0  0  0  0  0  0  0  0  0
    7.9834  -15.2343   20.2236 C   0  0  1  0  0  0  0  0  0  0  0  0
    7.7530  -13.8393   19.6936 C   0  0  0  0  0  0  0  0  0  0  0  0
    8.4844  -13.7040   18.0572 S   0  0  0  0  0  0  0  0  0  0  0  0
    9.4144  -15.4999   20.4135 C   0  0  0  0  0  0  0  0  0  0  0  0
   10.0387  -14.9143   21.3485 O   0  0  0  0  0  0  0  0  0  0  0  0
   10.3604  -19.4759   22.5413 N   0  0  0  0  0  0  0  0  0  0  0  0
   11.2314  -18.4680   23.0294 C   0  0  0  0  0  0  0  0  0  0  0  0
   11.3455  -18.3187   24.2690 O   0  0  0  0  0  0  0  0  0  0  0  0
   12.0027  -17.5953   22.1058 C   0  0  0  0  0  0  0  0  0  0  0  0
   11.6511  -17.9262   20.6763 C   0  0  0  0  0  0  0  0  0  0  0  0
   11.5365  -16.6984   19.8145 C   0  0  2  0  0  0  0  0  0  0  0  0
   10.1266  -16.3840   19.6003 N   0  0  0  0  0  0  0  0  0  0  0  0
   12.2051  -16.8798   18.5087 C   0  0  0  0  0  0  0  0  0  0  0  0
   11.6055  -17.3747   17.5206 O   0  0  0  0  0  0  0  0  0  0  0  0
   13.5313  -16.5124   18.3058 O   0  0  0  0  0  0  0  0  0  0  0  0
  2  3  1  0
  2  1  1  1
  2 13  1  0
  3  4  1  0
  4 12  1  0
  4  5  2  0
  5  6  1  0
  7  6  1  0
  7  8  2  0
  9  8  1  0
 10  9  2  0
 11 12  2  0
 11 10  1  0
 12  7  1  0
 13 14  2  0
 15 13  1  0
 15 16  1  0
 16 19  1  0
 16 17  1  1
 18 17  1  0
 19 20  2  0
 21 22  1  0
 22 23  2  0
 24 22  1  0
 24 25  1  0
 26 25  1  1
 26 28  1  0
 27 26  1  0
 27 19  1  0
 28 29  2  0
 28 30  1  0
M  END
$$$$
