WCQ.pdb
     RDKit          3D

 30 31  0  0  1  0  0  0  0  0999 V2000
    6.3429  -17.9235   24.0127 N   0  0  0  0  0  0  0  0  0  0  0  0
    6.8950  -16.6356   23.7729 C   0  0  1  0  0  0  0  0  0  0  0  0
    7.8195  -16.1999   24.8821 C   0  0  0  0  0  0  0  0  0  0  0  0
    7.2033  -15.2846   25.8471 C   0  0  0  0  0  0  0  0  0  0  0  0
    6.4146  -15.6653   26.9430 C   0  0  0  0  0  0  0  0  0  0  0  0
    6.0307  -14.5967   27.6256 N   0  0  0  0  0  0  0  0  0  0  0  0
    6.5249  -13.4905   27.0413 C   0  0  0  0  0  0  0  0  0  0  0  0
    6.4341  -12.1597   27.3204 C   0  0  0  0  0  0  0  0  0  0  0  0
    7.0595  -11.2303   26.5133 C   0  0  0  0  0  0  0  0  0  0  0  0
    7.7836  -11.6419   25.4143 C   0  0  0  0  0  0  0  0  0  0  0  0
    7.8782  -12.9779   25.1295 C   0  0  0  0  0  0  0  0  0  0  0  0
    7.2511  -13.9086   25.9401 C   0  0  0  0  0  0  0  0  0  0  0  0
    7.6416  -16.5761   22.4672 C   0  0  0  0  0  0  0  0  0  0  0  0
    8.3869  -17.5424   22.1715 O   0  0  0  0  0  0  0  0  0  0  0  0
    7.5493  -15.5070   21.5723 N   0  0  0  0  0  0  0  0  0  0  0  0
    8.3499  -15.3645   20.3498 C   0  0  1  0  0  0  0  0  0  0  0  0
    7.9685  -14.0811   19.6515 C   0  0  0  0  0  0  0  0  0  0  0  0
    6.2557  -14.1892   19.1173 S   0  0  0  0  0  0  0  0  0  0  0  0
    9.7560  -15.3417   20.7707 C   0  0  0  0  0  0  0  0  0  0  0  0
   10.1188  -14.5484   21.6903 O   0  0  0  0  0  0  0  0  0  0  0  0
   12.3229  -17.5874   25.3486 N   0  0  0  0  0  0  0  0  0  0  0  0
   12.5087  -18.3454   24.1638 C   0  0  0  0  0  0  0  0  0  0  0  0
   12.3461  -19.5877   24.2115 O   0  0  0  0  0  0  0  0  0  0  0  0
   12.8887  -17.6986   22.8806 C   0  0  0  0  0  0  0  0  0  0  0  0
   11.6611  -17.1339   22.2092 C   0  0  0  0  0  0  0  0  0  0  0  0
   11.9702  -16.5186   20.8715 C   0  0  2  0  0  0  0  0  0  0  0  0
   10.7233  -16.1693   20.1966 N   0  0  0  0  0  0  0  0  0  0  0  0
   12.7551  -17.4326   20.0150 C   0  0  0  0  0  0  0  0  0  0  0  0
   13.9816  -17.6311   20.2076 O   0  0  0  0  0  0  0  0  0  0  0  0
   12.1776  -18.1198   18.9524 O   0  0  0  0  0  0  0  0  0  0  0  0
  2  3  1  0
  2  1  1  1
  2 13  1  0
  3  4  1  0
  4 12  1  0
  4  5  2  0
  5  6  1  0
  7  6  1  0
  7  8  2  0
  9  8  1  0
 10  9  2  0
 11 12  2  0
 11 10  1  0
 12  7  1  0
 13 14  2  0
 15 13  1  0
 15 16  1  0
 16 19  1  0
 16 17  1  1
 18 17  1  0
 19 20  2  0
 21 22  1  0
 22 23  2  0
 24 22  1  0
 24 25  1  0
 26 25  1  1
 26 28  1  0
 27 26  1  0
 27 19  1  0
 28 29  2  0
 28 30  1  0
M  END
$$$$
