WCQ.pdb
     RDKit          3D

 30 31  0  0  1  0  0  0  0  0999 V2000
    6.5874  -17.9773   24.1352 N   0  0  0  0  0  0  0  0  0  0  0  0
    7.6297  -17.0386   23.9040 C   0  0  1  0  0  0  0  0  0  0  0  0
    8.0736  -16.3602   25.1759 C   0  0  0  0  0  0  0  0  0  0  0  0
    7.1302  -15.3564   25.6770 C   0  0  0  0  0  0  0  0  0  0  0  0
    5.9057  -15.6299   26.3046 C   0  0  0  0  0  0  0  0  0  0  0  0
    5.3065  -14.5011   26.6537 N   0  0  0  0  0  0  0  0  0  0  0  0
    6.0719  -13.4565   26.2899 C   0  0  0  0  0  0  0  0  0  0  0  0
    5.9323  -12.1054   26.4005 C   0  0  0  0  0  0  0  0  0  0  0  0
    6.9075  -11.2580   25.9134 C   0  0  0  0  0  0  0  0  0  0  0  0
    8.0347  -11.7731   25.3087 C   0  0  0  0  0  0  0  0  0  0  0  0
    8.1800  -13.1300   25.1952 C   0  0  0  0  0  0  0  0  0  0  0  0
    7.2017  -13.9783   25.6847 C   0  0  0  0  0  0  0  0  0  0  0  0
    8.8268  -17.6746   23.2498 C   0  0  0  0  0  0  0  0  0  0  0  0
    8.6266  -18.6278   22.4574 O   0  0  0  0  0  0  0  0  0  0  0  0
   10.1422  -17.2619   23.4776 N   0  0  0  0  0  0  0  0  0  0  0  0
   11.2033  -17.2430   22.4630 C   0  0  1  0  0  0  0  0  0  0  0  0
   10.7563  -16.4028   21.2906 C   0  0  0  0  0  0  0  0  0  0  0  0
   10.4411  -14.7258   21.8554 S   0  0  0  0  0  0  0  0  0  0  0  0
   12.3888  -16.6656   23.1078 C   0  0  0  0  0  0  0  0  0  0  0  0
   13.4456  -16.4927   22.4296 O   0  0  0  0  0  0  0  0  0  0  0  0
   11.8159  -16.4604   28.6661 N   0  0  0  0  0  0  0  0  0  0  0  0
   11.1915  -15.4986   27.8307 C   0  0  0  0  0  0  0  0  0  0  0  0
   10.0273  -15.1248   28.1079 O   0  0  0  0  0  0  0  0  0  0  0  0
   11.8868  -14.9326   26.6450 C   0  0  0  0  0  0  0  0  0  0  0  0
   13.2866  -15.4892   26.5590 C   0  0  0  0  0  0  0  0  0  0  0  0
   13.6297  -15.9683   25.1747 C   0  0  2  0  0  0  0  0  0  0  0  0
   12.4018  -16.2903   24.4529 N   0  0  0  0  0  0  0  0  0  0  0  0
   14.5085  -17.1564   25.2071 C   0  0  0  0  0  0  0  0  0  0  0  0
   14.1178  -18.2807   24.8021 O   0  0  0  0  0  0  0  0  0  0  0  0
   15.8126  -17.0919   25.6871 O   0  0  0  0  0  0  0  0  0  0  0  0
  2  3  1  0
  2  1  1  1
  2 13  1  0
  3  4  1  0
  4 12  1  0
  4  5  2  0
  5  6  1  0
  7  6  1  0
  7  8  2  0
  9  8  1  0
 10  9  2  0
 11 12  2  0
 11 10  1  0
 12  7  1  0
 13 14  2  0
 15 13  1  0
 15 16  1  0
 16 19  1  0
 16 17  1  6
 18 17  1  0
 19 20  2  0
 21 22  1  0
 22 23  2  0
 24 22  1  0
 24 25  1  0
 26 25  1  1
 26 28  1  0
 27 26  1  0
 27 19  1  0
 28 29  2  0
 28 30  1  0
M  END
$$$$
