WCQ.pdb
     RDKit          3D

 30 31  0  0  1  0  0  0  0  0999 V2000
    7.4348  -17.6133   24.8487 N   0  0  0  0  0  0  0  0  0  0  0  0
    7.3829  -17.1001   23.5239 C   0  0  1  0  0  0  0  0  0  0  0  0
    7.4883  -15.5958   23.4945 C   0  0  0  0  0  0  0  0  0  0  0  0
    6.9058  -14.9341   24.6656 C   0  0  0  0  0  0  0  0  0  0  0  0
    5.7411  -15.3383   25.3352 C   0  0  0  0  0  0  0  0  0  0  0  0
    5.5015  -14.5380   26.3633 N   0  0  0  0  0  0  0  0  0  0  0  0
    6.4580  -13.5945   26.4291 C   0  0  0  0  0  0  0  0  0  0  0  0
    6.6859  -12.5440   27.2668 C   0  0  0  0  0  0  0  0  0  0  0  0
    7.7771  -11.7198   27.0763 C   0  0  0  0  0  0  0  0  0  0  0  0
    8.6485  -11.9532   26.0333 C   0  0  0  0  0  0  0  0  0  0  0  0
    8.4242  -13.0075   25.1888 C   0  0  0  0  0  0  0  0  0  0  0  0
    7.3300  -13.8333   25.3816 C   0  0  0  0  0  0  0  0  0  0  0  0
    8.4642  -17.6796   22.6518 C   0  0  0  0  0  0  0  0  0  0  0  0
    9.2102  -18.5599   23.1469 O   0  0  0  0  0  0  0  0  0  0  0  0
    8.6800  -17.2906   21.3272 N   0  0  0  0  0  0  0  0  0  0  0  0
    9.7437  -17.8148   20.4614 C   0  0  1  0  0  0  0  0  0  0  0  0
    9.4957  -17.3666   19.0409 C   0  0  0  0  0  0  0  0  0  0  0  0
    8.8520  -15.6885   19.0579 S   0  0  0  0  0  0  0  0  0  0  0  0
   11.0071  -17.2726   20.9756 C   0  0  0  0  0  0  0  0  0  0  0  0
   11.4792  -16.2086   20.4739 O   0  0  0  0  0  0  0  0  0  0  0  0
   11.5581  -17.8797   27.2279 N   0  0  0  0  0  0  0  0  0  0  0  0
   11.8231  -16.5887   26.7026 C   0  0  0  0  0  0  0  0  0  0  0  0
   11.4669  -15.5845   27.3635 O   0  0  0  0  0  0  0  0  0  0  0  0
   12.5086  -16.4083   25.3960 C   0  0  0  0  0  0  0  0  0  0  0  0
   11.7742  -17.1741   24.3232 C   0  0  0  0  0  0  0  0  0  0  0  0
   12.4860  -17.1316   22.9984 C   0  0  2  0  0  0  0  0  0  0  0  0
   11.7191  -17.8844   22.0096 N   0  0  0  0  0  0  0  0  0  0  0  0
   13.8521  -17.6884   23.0910 C   0  0  0  0  0  0  0  0  0  0  0  0
   14.7762  -17.0803   23.6884 O   0  0  0  0  0  0  0  0  0  0  0  0
   14.1856  -18.9132   22.5222 O   0  0  0  0  0  0  0  0  0  0  0  0
  2  3  1  0
  2  1  1  1
  2 13  1  0
  3  4  1  0
  4 12  1  0
  4  5  2  0
  5  6  1  0
  7  6  1  0
  7  8  2  0
  9  8  1  0
 10  9  2  0
 11 12  2  0
 11 10  1  0
 12  7  1  0
 13 14  2  0
 15 13  1  0
 15 16  1  0
 16 19  1  0
 16 17  1  6
 18 17  1  0
 19 20  2  0
 21 22  1  0
 22 23  2  0
 24 22  1  0
 24 25  1  0
 26 25  1  1
 26 28  1  0
 27 26  1  0
 27 19  1  0
 28 29  2  0
 28 30  1  0
M  END
$$$$
