WCQ.pdb
     RDKit          3D

 30 31  0  0  1  0  0  0  0  0999 V2000
    8.5018  -15.6815   21.3021 N   0  0  0  0  0  0  0  0  0  0  0  0
    8.9680  -15.6641   22.6450 C   0  0  1  0  0  0  0  0  0  0  0  0
    7.8564  -15.9112   23.6340 C   0  0  0  0  0  0  0  0  0  0  0  0
    7.0837  -14.7130   23.9743 C   0  0  0  0  0  0  0  0  0  0  0  0
    5.9211  -14.2794   23.3198 C   0  0  0  0  0  0  0  0  0  0  0  0
    5.4595  -13.1749   23.8875 N   0  0  0  0  0  0  0  0  0  0  0  0
    6.2609  -12.8285   24.9108 C   0  0  0  0  0  0  0  0  0  0  0  0
    6.2517  -11.8005   25.8054 C   0  0  0  0  0  0  0  0  0  0  0  0
    7.2382  -11.6988   26.7660 C   0  0  0  0  0  0  0  0  0  0  0  0
    8.2445  -12.6395   26.8287 C   0  0  0  0  0  0  0  0  0  0  0  0
    8.2583  -13.6746   25.9322 C   0  0  0  0  0  0  0  0  0  0  0  0
    7.2681  -13.7755   24.9701 C   0  0  0  0  0  0  0  0  0  0  0  0
   10.0579  -16.6761   22.8768 C   0  0  0  0  0  0  0  0  0  0  0  0
   10.1895  -17.6011   22.0380 O   0  0  0  0  0  0  0  0  0  0  0  0
   10.9257  -16.6401   23.9714 N   0  0  0  0  0  0  0  0  0  0  0  0
   11.9783  -17.6277   24.2405 C   0  0  1  0  0  0  0  0  0  0  0  0
   13.3206  -17.0340   23.8857 C   0  0  0  0  0  0  0  0  0  0  0  0
   13.4888  -15.4369   24.6930 S   0  0  0  0  0  0  0  0  0  0  0  0
   11.8998  -17.9437   25.6717 C   0  0  0  0  0  0  0  0  0  0  0  0
   12.1315  -17.0350   26.5246 O   0  0  0  0  0  0  0  0  0  0  0  0
    7.9285  -18.4887   27.3485 N   0  0  0  0  0  0  0  0  0  0  0  0
    8.4896  -19.6513   27.9368 C   0  0  0  0  0  0  0  0  0  0  0  0
    8.2908  -19.8655   29.1561 O   0  0  0  0  0  0  0  0  0  0  0  0
    9.3006  -20.6095   27.1408 C   0  0  0  0  0  0  0  0  0  0  0  0
   10.6653  -20.7665   27.7649 C   0  0  0  0  0  0  0  0  0  0  0  0
   11.5325  -19.5541   27.5612 C   0  0  2  0  0  0  0  0  0  0  0  0
   11.5733  -19.2179   26.1407 N   0  0  0  0  0  0  0  0  0  0  0  0
   12.9081  -19.7737   28.0555 C   0  0  0  0  0  0  0  0  0  0  0  0
   13.1385  -20.1162   29.2431 O   0  0  0  0  0  0  0  0  0  0  0  0
   14.0182  -19.6130   27.2327 O   0  0  0  0  0  0  0  0  0  0  0  0
  2  3  1  0
  2  1  1  6
  2 13  1  0
  3  4  1  0
  4 12  1  0
  4  5  2  0
  5  6  1  0
  7  6  1  0
  7  8  2  0
  9  8  1  0
 10  9  2  0
 11 12  2  0
 11 10  1  0
 12  7  1  0
 13 14  2  0
 15 13  1  0
 15 16  1  0
 16 19  1  0
 16 17  1  1
 18 17  1  0
 19 20  2  0
 21 22  1  0
 22 23  2  0
 24 22  1  0
 24 25  1  0
 26 25  1  6
 26 28  1  0
 27 26  1  0
 27 19  1  0
 28 29  2  0
 28 30  1  0
M  END
$$$$
