WCQ.pdb
     RDKit          3D

 30 31  0  0  1  0  0  0  0  0999 V2000
    6.6087  -18.3691   24.7930 N   0  0  0  0  0  0  0  0  0  0  0  0
    7.0290  -17.1052   24.2961 C   0  0  1  0  0  0  0  0  0  0  0  0
    7.8046  -16.3212   25.3251 C   0  0  0  0  0  0  0  0  0  0  0  0
    7.0360  -15.2461   25.9593 C   0  0  0  0  0  0  0  0  0  0  0  0
    5.7526  -15.3770   26.5105 C   0  0  0  0  0  0  0  0  0  0  0  0
    5.3525  -14.2220   27.0214 N   0  0  0  0  0  0  0  0  0  0  0  0
    6.3124  -13.2967   26.8433 C   0  0  0  0  0  0  0  0  0  0  0  0
    6.4158  -11.9761   27.1635 C   0  0  0  0  0  0  0  0  0  0  0  0
    7.5520  -11.2628   26.8368 C   0  0  0  0  0  0  0  0  0  0  0  0
    8.5951  -11.8825   26.1814 C   0  0  0  0  0  0  0  0  0  0  0  0
    8.4964  -13.2093   25.8576 C   0  0  0  0  0  0  0  0  0  0  0  0
    7.3568  -13.9232   26.1864 C   0  0  0  0  0  0  0  0  0  0  0  0
    7.8681  -17.2382   23.0536 C   0  0  0  0  0  0  0  0  0  0  0  0
    8.5507  -18.2828   22.9142 O   0  0  0  0  0  0  0  0  0  0  0  0
    7.9269  -16.2647   22.0529 N   0  0  0  0  0  0  0  0  0  0  0  0
    8.8481  -16.2909   20.9099 C   0  0  1  0  0  0  0  0  0  0  0  0
    8.3301  -15.3694   19.8317 C   0  0  0  0  0  0  0  0  0  0  0  0
    7.2803  -14.1182   20.5821 S   0  0  0  0  0  0  0  0  0  0  0  0
   10.1514  -15.8395   21.4123 C   0  0  0  0  0  0  0  0  0  0  0  0
   10.2249  -14.7614   22.0748 O   0  0  0  0  0  0  0  0  0  0  0  0
   12.0253  -17.0787   26.0975 N   0  0  0  0  0  0  0  0  0  0  0  0
   11.9918  -18.1898   25.2160 C   0  0  0  0  0  0  0  0  0  0  0  0
   11.8099  -19.3340   25.6954 O   0  0  0  0  0  0  0  0  0  0  0  0
   12.1666  -18.0222   23.7494 C   0  0  0  0  0  0  0  0  0  0  0  0
   12.2908  -16.5565   23.4133 C   0  0  0  0  0  0  0  0  0  0  0  0
   12.5544  -16.3235   21.9505 C   0  0  2  0  0  0  0  0  0  0  0  0
   11.3287  -16.5574   21.1918 N   0  0  0  0  0  0  0  0  0  0  0  0
   13.6264  -17.2032   21.4388 C   0  0  0  0  0  0  0  0  0  0  0  0
   14.8263  -17.0545   21.7835 O   0  0  0  0  0  0  0  0  0  0  0  0
   13.3631  -18.2403   20.5499 O   0  0  0  0  0  0  0  0  0  0  0  0
  2  3  1  0
  2  1  1  1
  2 13  1  0
  3  4  1  0
  4 12  1  0
  4  5  2  0
  5  6  1  0
  7  6  1  0
  7  8  2  0
  9  8  1  0
 10  9  2  0
 11 12  2  0
 11 10  1  0
 12  7  1  0
 13 14  2  0
 15 13  1  0
 15 16  1  0
 16 19  1  0
 16 17  1  6
 18 17  1  0
 19 20  2  0
 21 22  1  0
 22 23  2  0
 24 22  1  0
 24 25  1  0
 26 25  1  1
 26 28  1  0
 27 26  1  0
 27 19  1  0
 28 29  2  0
 28 30  1  0
M  END
$$$$
