WCQ.pdb
     RDKit          3D

 30 31  0  0  1  0  0  0  0  0999 V2000
    8.7282  -16.8595   23.9368 N   0  0  0  0  0  0  0  0  0  0  0  0
    9.5020  -15.7937   24.4721 C   0  0  1  0  0  0  0  0  0  0  0  0
    9.1308  -15.4862   25.9013 C   0  0  0  0  0  0  0  0  0  0  0  0
    7.7609  -14.9923   26.0686 C   0  0  0  0  0  0  0  0  0  0  0  0
    6.6045  -15.7864   26.0871 C   0  0  0  0  0  0  0  0  0  0  0  0
    5.5323  -15.0316   26.2766 N   0  0  0  0  0  0  0  0  0  0  0  0
    5.9050  -13.7441   26.3895 C   0  0  0  0  0  0  0  0  0  0  0  0
    5.2213  -12.5812   26.5830 C   0  0  0  0  0  0  0  0  0  0  0  0
    5.8927  -11.3767   26.6510 C   0  0  0  0  0  0  0  0  0  0  0  0
    7.2652  -11.3397   26.5231 C   0  0  0  0  0  0  0  0  0  0  0  0
    7.9570  -12.5053   26.3286 C   0  0  0  0  0  0  0  0  0  0  0  0
    7.2825  -13.7123   26.2614 C   0  0  0  0  0  0  0  0  0  0  0  0
   10.9783  -16.0792   24.4046 C   0  0  0  0  0  0  0  0  0  0  0  0
   11.7533  -15.3206   25.0375 O   0  0  0  0  0  0  0  0  0  0  0  0
   11.5282  -17.1384   23.6778 N   0  0  0  0  0  0  0  0  0  0  0  0
   12.6596  -17.9623   24.1213 C   0  0  1  0  0  0  0  0  0  0  0  0
   12.2921  -18.6614   25.4083 C   0  0  0  0  0  0  0  0  0  0  0  0
   13.7546  -19.4608   26.0813 S   0  0  0  0  0  0  0  0  0  0  0  0
   12.9193  -18.9293   23.0480 C   0  0  0  0  0  0  0  0  0  0  0  0
   12.0255  -19.7736   22.7396 O   0  0  0  0  0  0  0  0  0  0  0  0
   16.3146  -16.7836   20.7355 N   0  0  0  0  0  0  0  0  0  0  0  0
   15.1775  -16.7952   19.8873 C   0  0  0  0  0  0  0  0  0  0  0  0
   14.7812  -15.7120   19.3960 O   0  0  0  0  0  0  0  0  0  0  0  0
   14.4558  -18.0565   19.5744 C   0  0  0  0  0  0  0  0  0  0  0  0
   15.1865  -19.2282   20.1825 C   0  0  0  0  0  0  0  0  0  0  0  0
   14.3868  -19.9060   21.2617 C   0  0  2  0  0  0  0  0  0  0  0  0
   14.1229  -18.9577   22.3403 N   0  0  0  0  0  0  0  0  0  0  0  0
   15.0888  -21.0879   21.8051 C   0  0  0  0  0  0  0  0  0  0  0  0
   15.4896  -21.1307   22.9960 O   0  0  0  0  0  0  0  0  0  0  0  0
   15.3423  -22.2130   21.0273 O   0  0  0  0  0  0  0  0  0  0  0  0
  2  3  1  0
  2  1  1  1
  2 13  1  0
  3  4  1  0
  4 12  1  0
  4  5  2  0
  5  6  1  0
  7  6  1  0
  7  8  2  0
  9  8  1  0
 10  9  2  0
 11 12  2  0
 11 10  1  0
 12  7  1  0
 13 14  2  0
 15 13  1  0
 15 16  1  0
 16 19  1  0
 16 17  1  1
 18 17  1  0
 19 20  2  0
 21 22  1  0
 22 23  2  0
 24 22  1  0
 24 25  1  0
 26 25  1  6
 26 28  1  0
 27 26  1  0
 27 19  1  0
 28 29  2  0
 28 30  1  0
M  END
$$$$
