WCQ.pdb
     RDKit          3D

 30 31  0  0  1  0  0  0  0  0999 V2000
    6.3167  -18.3619   24.6317 N   0  0  0  0  0  0  0  0  0  0  0  0
    6.8097  -17.0666   24.3151 C   0  0  1  0  0  0  0  0  0  0  0  0
    7.5511  -16.4442   25.4718 C   0  0  0  0  0  0  0  0  0  0  0  0
    6.9033  -15.2499   26.0219 C   0  0  0  0  0  0  0  0  0  0  0  0
    5.6166  -15.2037   26.5791 C   0  0  0  0  0  0  0  0  0  0  0  0
    5.3428  -13.9781   27.0010 N   0  0  0  0  0  0  0  0  0  0  0  0
    6.3932  -13.1746   26.7556 C   0  0  0  0  0  0  0  0  0  0  0  0
    6.6364  -11.8519   26.9758 C   0  0  0  0  0  0  0  0  0  0  0  0
    7.8391  -11.2883   26.5985 C   0  0  0  0  0  0  0  0  0  0  0  0
    8.8076  -12.0614   25.9935 C   0  0  0  0  0  0  0  0  0  0  0  0
    8.5683  -13.3910   25.7701 C   0  0  0  0  0  0  0  0  0  0  0  0
    7.3623  -13.9548   26.1496 C   0  0  0  0  0  0  0  0  0  0  0  0
    7.7146  -17.0858   23.1124 C   0  0  0  0  0  0  0  0  0  0  0  0
    8.5043  -18.0538   22.9862 O   0  0  0  0  0  0  0  0  0  0  0  0
    7.7217  -16.0875   22.1348 N   0  0  0  0  0  0  0  0  0  0  0  0
    8.7333  -15.9542   21.0790 C   0  0  1  0  0  0  0  0  0  0  0  0
    8.3593  -14.8055   20.1731 C   0  0  0  0  0  0  0  0  0  0  0  0
    6.7065  -15.0834   19.5234 S   0  0  0  0  0  0  0  0  0  0  0  0
   10.0122  -15.7024   21.7542 C   0  0  0  0  0  0  0  0  0  0  0  0
   10.1636  -14.6383   22.4262 O   0  0  0  0  0  0  0  0  0  0  0  0
   11.6919  -19.4973   25.6664 N   0  0  0  0  0  0  0  0  0  0  0  0
   12.9320  -18.8104   25.6116 C   0  0  0  0  0  0  0  0  0  0  0  0
   13.8012  -19.0660   26.4783 O   0  0  0  0  0  0  0  0  0  0  0  0
   13.2152  -17.8036   24.5554 C   0  0  0  0  0  0  0  0  0  0  0  0
   11.9951  -17.6151   23.6880 C   0  0  0  0  0  0  0  0  0  0  0  0
   12.2000  -16.5662   22.6291 C   0  0  2  0  0  0  0  0  0  0  0  0
   11.0821  -16.5976   21.6901 N   0  0  0  0  0  0  0  0  0  0  0  0
   13.4667  -16.7678   21.8945 C   0  0  0  0  0  0  0  0  0  0  0  0
   13.4911  -17.2659   20.7404 O   0  0  0  0  0  0  0  0  0  0  0  0
   14.6965  -16.4171   22.4419 O   0  0  0  0  0  0  0  0  0  0  0  0
  2  3  1  0
  2  1  1  1
  2 13  1  0
  3  4  1  0
  4 12  1  0
  4  5  2  0
  5  6  1  0
  7  6  1  0
  7  8  2  0
  9  8  1  0
 10  9  2  0
 11 12  2  0
 11 10  1  0
 12  7  1  0
 13 14  2  0
 15 13  1  0
 15 16  1  0
 16 19  1  0
 16 17  1  6
 18 17  1  0
 19 20  2  0
 21 22  1  0
 22 23  2  0
 24 22  1  0
 24 25  1  0
 26 25  1  1
 26 28  1  0
 27 26  1  0
 27 19  1  0
 28 29  2  0
 28 30  1  0
M  END
$$$$
