WCQ.pdb
     RDKit          3D

 30 31  0  0  1  0  0  0  0  0999 V2000
    9.8199  -17.0712   22.0370 N   0  0  0  0  0  0  0  0  0  0  0  0
    9.8897  -16.0521   23.0258 C   0  0  1  0  0  0  0  0  0  0  0  0
    8.5227  -15.5544   23.4239 C   0  0  0  0  0  0  0  0  0  0  0  0
    7.7048  -15.0930   22.2984 C   0  0  0  0  0  0  0  0  0  0  0  0
    6.5040  -15.6779   21.8694 C   0  0  0  0  0  0  0  0  0  0  0  0
    6.0080  -15.0061   20.8409 N   0  0  0  0  0  0  0  0  0  0  0  0
    6.8223  -13.9779   20.5426 C   0  0  0  0  0  0  0  0  0  0  0  0
    6.7914  -12.9987   19.5953 C   0  0  0  0  0  0  0  0  0  0  0  0
    7.8002  -12.0586   19.5261 C   0  0  0  0  0  0  0  0  0  0  0  0
    8.8513  -12.1026   20.4177 C   0  0  0  0  0  0  0  0  0  0  0  0
    8.8871  -13.0844   21.3716 C   0  0  0  0  0  0  0  0  0  0  0  0
    7.8744  -14.0258   21.4401 C   0  0  0  0  0  0  0  0  0  0  0  0
   10.6172  -16.5128   24.2603 C   0  0  0  0  0  0  0  0  0  0  0  0
   10.4611  -15.8511   25.3160 O   0  0  0  0  0  0  0  0  0  0  0  0
   11.4531  -17.6320   24.2923 N   0  0  0  0  0  0  0  0  0  0  0  0
   12.1238  -18.1443   25.4937 C   0  0  1  0  0  0  0  0  0  0  0  0
   11.0859  -18.4885   26.5350 C   0  0  0  0  0  0  0  0  0  0  0  0
   11.8794  -19.3656   27.8884 S   0  0  0  0  0  0  0  0  0  0  0  0
   12.8738  -19.3358   25.0784 C   0  0  0  0  0  0  0  0  0  0  0  0
   12.3355  -20.1671   24.2872 O   0  0  0  0  0  0  0  0  0  0  0  0
   18.0280  -16.5491   21.7307 N   0  0  0  0  0  0  0  0  0  0  0  0
   17.0076  -16.8526   22.6684 C   0  0  0  0  0  0  0  0  0  0  0  0
   16.3006  -15.9176   23.1133 O   0  0  0  0  0  0  0  0  0  0  0  0
   16.7649  -18.2454   23.1274 C   0  0  0  0  0  0  0  0  0  0  0  0
   15.5479  -18.2856   24.0184 C   0  0  0  0  0  0  0  0  0  0  0  0
   15.3217  -19.6458   24.6201 C   0  0  2  0  0  0  0  0  0  0  0  0
   14.1730  -19.5949   25.5203 N   0  0  0  0  0  0  0  0  0  0  0  0
   16.5083  -20.1223   25.3616 C   0  0  0  0  0  0  0  0  0  0  0  0
   16.5603  -20.0936   26.6175 O   0  0  0  0  0  0  0  0  0  0  0  0
   17.6281  -20.6269   24.7085 O   0  0  0  0  0  0  0  0  0  0  0  0
  2  3  1  0
  2  1  1  6
  2 13  1  0
  3  4  1  0
  4 12  1  0
  4  5  2  0
  5  6  1  0
  7  6  1  0
  7  8  2  0
  9  8  1  0
 10  9  2  0
 11 12  2  0
 11 10  1  0
 12  7  1  0
 13 14  2  0
 15 13  1  0
 15 16  1  0
 16 19  1  0
 16 17  1  1
 18 17  1  0
 19 20  2  0
 21 22  1  0
 22 23  2  0
 24 22  1  0
 24 25  1  0
 26 25  1  1
 26 28  1  0
 27 26  1  0
 27 19  1  0
 28 29  2  0
 28 30  1  0
M  END
$$$$
