WCQ.pdb
     RDKit          3D

 30 31  0  0  1  0  0  0  0  0999 V2000
    7.7747  -16.7881   20.9348 N   0  0  0  0  0  0  0  0  0  0  0  0
    8.4510  -16.2799   22.0774 C   0  0  1  0  0  0  0  0  0  0  0  0
    7.5032  -15.9893   23.2141 C   0  0  0  0  0  0  0  0  0  0  0  0
    7.2103  -14.5647   23.3970 C   0  0  0  0  0  0  0  0  0  0  0  0
    6.9459  -13.6481   22.3684 C   0  0  0  0  0  0  0  0  0  0  0  0
    6.7009  -12.4484   22.8743 N   0  0  0  0  0  0  0  0  0  0  0  0
    6.7867  -12.5018   24.2156 C   0  0  0  0  0  0  0  0  0  0  0  0
    6.6365  -11.5762   25.2045 C   0  0  0  0  0  0  0  0  0  0  0  0
    6.7972  -11.9332   26.5286 C   0  0  0  0  0  0  0  0  0  0  0  0
    7.1122  -13.2334   26.8628 C   0  0  0  0  0  0  0  0  0  0  0  0
    7.2640  -14.1674   25.8730 C   0  0  0  0  0  0  0  0  0  0  0  0
    7.1019  -13.8081   24.5459 C   0  0  0  0  0  0  0  0  0  0  0  0
    9.5200  -17.2207   22.5650 C   0  0  0  0  0  0  0  0  0  0  0  0
    9.7171  -18.2753   21.9128 O   0  0  0  0  0  0  0  0  0  0  0  0
   10.2996  -16.9829   23.7000 N   0  0  0  0  0  0  0  0  0  0  0  0
   11.4250  -17.8195   24.1352 C   0  0  1  0  0  0  0  0  0  0  0  0
   12.5048  -17.7899   23.0801 C   0  0  0  0  0  0  0  0  0  0  0  0
   12.9925  -16.0851   22.7859 S   0  0  0  0  0  0  0  0  0  0  0  0
   11.9043  -17.2508   25.4007 C   0  0  0  0  0  0  0  0  0  0  0  0
   12.1152  -16.0037   25.4838 O   0  0  0  0  0  0  0  0  0  0  0  0
    7.4669  -19.6181   26.3255 N   0  0  0  0  0  0  0  0  0  0  0  0
    7.6387  -19.4218   27.7199 C   0  0  0  0  0  0  0  0  0  0  0  0
    6.6917  -19.7086   28.4900 O   0  0  0  0  0  0  0  0  0  0  0  0
    8.9088  -18.8877   28.2776 C   0  0  0  0  0  0  0  0  0  0  0  0
    9.8525  -18.5354   27.1543 C   0  0  0  0  0  0  0  0  0  0  0  0
   11.2050  -18.1060   27.6542 C   0  0  2  0  0  0  0  0  0  0  0  0
   12.1379  -18.0341   26.5331 N   0  0  0  0  0  0  0  0  0  0  0  0
   11.7328  -19.0345   28.6760 C   0  0  0  0  0  0  0  0  0  0  0  0
   11.1854  -19.1628   29.8005 O   0  0  0  0  0  0  0  0  0  0  0  0
   12.8619  -19.8138   28.4464 O   0  0  0  0  0  0  0  0  0  0  0  0
  2  3  1  0
  2  1  1  6
  2 13  1  0
  3  4  1  0
  4 12  1  0
  4  5  2  0
  5  6  1  0
  7  6  1  0
  7  8  2  0
  9  8  1  0
 10  9  2  0
 11 12  2  0
 11 10  1  0
 12  7  1  0
 13 14  2  0
 15 13  1  0
 15 16  1  0
 16 19  1  0
 16 17  1  6
 18 17  1  0
 19 20  2  0
 21 22  1  0
 22 23  2  0
 24 22  1  0
 24 25  1  0
 26 25  1  6
 26 28  1  0
 27 26  1  0
 27 19  1  0
 28 29  2  0
 28 30  1  0
M  END
$$$$
