WCQ.pdb
     RDKit          3D

 30 31  0  0  1  0  0  0  0  0999 V2000
    6.7361  -17.2199   25.5285 N   0  0  0  0  0  0  0  0  0  0  0  0
    7.1115  -16.2104   24.6006 C   0  0  1  0  0  0  0  0  0  0  0  0
    8.3214  -15.4375   25.0628 C   0  0  0  0  0  0  0  0  0  0  0  0
    8.0889  -14.6266   26.2616 C   0  0  0  0  0  0  0  0  0  0  0  0
    8.6016  -14.8950   27.5395 C   0  0  0  0  0  0  0  0  0  0  0  0
    8.2199  -13.9569   28.3936 N   0  0  0  0  0  0  0  0  0  0  0  0
    7.4615  -13.0494   27.7528 C   0  0  0  0  0  0  0  0  0  0  0  0
    6.8218  -11.9125   28.1472 C   0  0  0  0  0  0  0  0  0  0  0  0
    6.0914  -11.1694   27.2413 C   0  0  0  0  0  0  0  0  0  0  0  0
    6.0024  -11.5725   25.9256 C   0  0  0  0  0  0  0  0  0  0  0  0
    6.6434  -12.7140   25.5241 C   0  0  0  0  0  0  0  0  0  0  0  0
    7.3759  -13.4576   26.4334 C   0  0  0  0  0  0  0  0  0  0  0  0
    7.3897  -16.7758   23.2337 C   0  0  0  0  0  0  0  0  0  0  0  0
    7.3801  -18.0244   23.1008 O   0  0  0  0  0  0  0  0  0  0  0  0
    7.6572  -15.9878   22.1112 N   0  0  0  0  0  0  0  0  0  0  0  0
    7.9949  -16.5095   20.7809 C   0  0  1  0  0  0  0  0  0  0  0  0
    7.0700  -15.8970   19.7564 C   0  0  0  0  0  0  0  0  0  0  0  0
    6.6469  -14.2273   20.2701 S   0  0  0  0  0  0  0  0  0  0  0  0
    9.3910  -16.1345   20.5263 C   0  0  0  0  0  0  0  0  0  0  0  0
    9.7566  -14.9339   20.7039 O   0  0  0  0  0  0  0  0  0  0  0  0
   12.2777  -15.9410   24.1820 N   0  0  0  0  0  0  0  0  0  0  0  0
   13.1006  -16.9699   23.6558 C   0  0  0  0  0  0  0  0  0  0  0  0
   14.3447  -16.8639   23.7698 O   0  0  0  0  0  0  0  0  0  0  0  0
   12.5192  -18.1586   22.9789 C   0  0  0  0  0  0  0  0  0  0  0  0
   11.2814  -17.7577   22.2147 C   0  0  0  0  0  0  0  0  0  0  0  0
   11.5933  -17.3029   20.8149 C   0  0  2  0  0  0  0  0  0  0  0  0
   10.3473  -17.0561   20.0944 N   0  0  0  0  0  0  0  0  0  0  0  0
   12.3984  -18.3011   20.0799 C   0  0  0  0  0  0  0  0  0  0  0  0
   13.6537  -18.2419   20.0422 O   0  0  0  0  0  0  0  0  0  0  0  0
   11.8090  -19.3570   19.3923 O   0  0  0  0  0  0  0  0  0  0  0  0
  2  3  1  0
  2  1  1  1
  2 13  1  0
  3  4  1  0
  4 12  1  0
  4  5  2  0
  5  6  1  0
  7  6  1  0
  7  8  2  0
  9  8  1  0
 10  9  2  0
 11 12  2  0
 11 10  1  0
 12  7  1  0
 13 14  2  0
 15 13  1  0
 15 16  1  0
 16 19  1  0
 16 17  1  6
 18 17  1  0
 19 20  2  0
 21 22  1  0
 22 23  2  0
 24 22  1  0
 24 25  1  0
 26 25  1  1
 26 28  1  0
 27 26  1  0
 27 19  1  0
 28 29  2  0
 28 30  1  0
M  END
$$$$
