WCQ.pdb
     RDKit          3D

 30 31  0  0  1  0  0  0  0  0999 V2000
    7.7435  -17.5433   22.4784 N   0  0  0  0  0  0  0  0  0  0  0  0
    8.9833  -16.8609   22.6137 C   0  0  1  0  0  0  0  0  0  0  0  0
    8.7970  -15.4271   23.0431 C   0  0  0  0  0  0  0  0  0  0  0  0
    7.9713  -14.6331   22.1285 C   0  0  0  0  0  0  0  0  0  0  0  0
    6.6275  -14.2875   22.3350 C   0  0  0  0  0  0  0  0  0  0  0  0
    6.1838  -13.5484   21.3290 N   0  0  0  0  0  0  0  0  0  0  0  0
    7.1719  -13.3705   20.4338 C   0  0  0  0  0  0  0  0  0  0  0  0
    7.2540  -12.7132   19.2429 C   0  0  0  0  0  0  0  0  0  0  0  0
    8.4323  -12.7116   18.5233 C   0  0  0  0  0  0  0  0  0  0  0  0
    9.5398  -13.3773   19.0049 C   0  0  0  0  0  0  0  0  0  0  0  0
    9.4627  -14.0391   20.2013 C   0  0  0  0  0  0  0  0  0  0  0  0
    8.2807  -14.0392   20.9219 C   0  0  0  0  0  0  0  0  0  0  0  0
    9.9001  -17.5453   23.5918 C   0  0  0  0  0  0  0  0  0  0  0  0
    9.3817  -18.2782   24.4697 O   0  0  0  0  0  0  0  0  0  0  0  0
   11.2905  -17.4078   23.5739 N   0  0  0  0  0  0  0  0  0  0  0  0
   12.2051  -18.0007   24.5577 C   0  0  1  0  0  0  0  0  0  0  0  0
   13.6295  -17.7936   24.1016 C   0  0  0  0  0  0  0  0  0  0  0  0
   13.8920  -16.0469   23.7685 S   0  0  0  0  0  0  0  0  0  0  0  0
   11.9511  -17.3160   25.8310 C   0  0  0  0  0  0  0  0  0  0  0  0
   12.0231  -16.0516   25.8844 O   0  0  0  0  0  0  0  0  0  0  0  0
    9.5752  -14.9626   26.3920 N   0  0  0  0  0  0  0  0  0  0  0  0
    9.8870  -14.4265   27.6679 C   0  0  0  0  0  0  0  0  0  0  0  0
    9.9496  -13.1812   27.7994 O   0  0  0  0  0  0  0  0  0  0  0  0
   10.1380  -15.3068   28.8391 C   0  0  0  0  0  0  0  0  0  0  0  0
   10.1068  -16.7525   28.4083 C   0  0  0  0  0  0  0  0  0  0  0  0
   11.4839  -17.3480   28.2966 C   0  0  2  0  0  0  0  0  0  0  0  0
   11.6259  -18.0061   27.0008 N   0  0  0  0  0  0  0  0  0  0  0  0
   11.7501  -18.3221   29.3760 C   0  0  0  0  0  0  0  0  0  0  0  0
   11.7662  -19.5608   29.1614 O   0  0  0  0  0  0  0  0  0  0  0  0
   11.9964  -17.9188   30.6844 O   0  0  0  0  0  0  0  0  0  0  0  0
  2  3  1  0
  2  1  1  1
  2 13  1  0
  3  4  1  0
  4 12  1  0
  4  5  2  0
  5  6  1  0
  7  6  1  0
  7  8  2  0
  9  8  1  0
 10  9  2  0
 11 12  2  0
 11 10  1  0
 12  7  1  0
 13 14  2  0
 15 13  1  0
 15 16  1  0
 16 19  1  0
 16 17  1  6
 18 17  1  0
 19 20  2  0
 21 22  1  0
 22 23  2  0
 24 22  1  0
 24 25  1  0
 26 25  1  1
 26 28  1  0
 27 26  1  0
 27 19  1  0
 28 29  2  0
 28 30  1  0
M  END
$$$$
