IHF.pdb
     RDKit          3D

 30 31  0  0  1  0  0  0  0  0999 V2000
   24.0128  -27.0586  -19.3132 C   0  0  0  0  0  0  0  0  0  0  0  0
   25.5137  -27.1136  -19.3372 C   0  0  0  0  0  0  0  0  0  0  0  0
   25.9221  -28.5396  -19.0412 C   0  0  2  0  0  0  0  0  0  0  0  0
   25.3374  -29.0320  -17.7397 C   0  0  0  0  0  0  0  0  0  0  0  0
   27.3983  -28.7302  -19.0150 C   0  0  2  0  0  0  0  0  0  0  0  0
   28.0851  -28.3495  -20.2055 N   0  0  0  0  0  0  0  0  0  0  0  0
   27.7296  -30.1725  -18.6622 C   0  0  0  0  0  0  0  0  0  0  0  0
   27.5792  -31.0678  -19.5229 O   0  0  0  0  0  0  0  0  0  0  0  0
   28.2008  -30.5100  -17.3857 N   0  0  0  0  0  0  0  0  0  0  0  0
   28.5611  -31.7862  -16.8477 C   0  0  1  0  0  0  0  0  0  0  0  0
   30.0088  -31.9749  -16.4669 C   0  0  0  0  0  0  0  0  0  0  0  0
   30.9706  -31.7628  -17.5443 C   0  0  0  0  0  0  0  0  0  0  0  0
   30.7731  -31.6420  -18.8871 C   0  0  0  0  0  0  0  0  0  0  0  0
   31.9588  -31.5154  -19.5387 N   0  0  0  0  0  0  0  0  0  0  0  0
   32.8931  -31.5593  -18.5823 C   0  0  0  0  0  0  0  0  0  0  0  0
   32.2945  -31.7101  -17.3641 N   0  0  0  0  0  0  0  0  0  0  0  0
   27.6280  -32.3841  -15.9068 C   0  0  0  0  0  0  0  0  0  0  0  0
   27.3184  -31.7996  -14.8354 O   0  0  0  0  0  0  0  0  0  0  0  0
   26.9960  -33.6596  -16.1137 N   0  0  0  0  0  0  0  0  0  0  0  0
   26.0223  -34.1748  -15.1715 C   0  0  1  0  0  0  0  0  0  0  0  0
   24.7731  -33.3161  -15.1228 C   0  0  0  0  0  0  0  0  0  0  0  0
   24.1076  -33.3506  -16.4441 C   0  0  0  0  0  0  0  0  0  0  0  0
   24.2919  -32.3224  -17.3146 C   0  0  0  0  0  0  0  0  0  0  0  0
   23.6904  -32.3195  -18.5496 C   0  0  0  0  0  0  0  0  0  0  0  0
   22.8912  -33.3850  -18.8927 C   0  0  0  0  0  0  0  0  0  0  0  0
   22.6942  -34.4392  -18.0165 C   0  0  0  0  0  0  0  0  0  0  0  0
   23.3129  -34.4081  -16.7876 C   0  0  0  0  0  0  0  0  0  0  0  0
   25.6161  -35.5207  -15.6350 C   0  0  0  0  0  0  0  0  0  0  0  0
   26.0681  -36.0011  -16.6989 O   0  0  0  0  0  0  0  0  0  0  0  0
   24.7229  -36.2877  -14.9031 O   0  0  0  0  0  0  0  0  0  0  0  0
  1  2  1  0
  3  4  1  1
  3  2  1  0
  5  6  1  6
  5  3  1  0
  7  8  2  0
  7  5  1  0
  9  7  1  0
 10 17  1  0
 10  9  1  0
 10 11  1  1
 12 16  1  0
 12 11  1  0
 13 12  2  0
 14 13  1  0
 14 15  1  0
 15 16  2  0
 17 19  1  0
 18 17  2  0
 19 20  1  0
 20 28  1  0
 20 21  1  6
 22 21  1  0
 23 22  2  0
 24 23  1  0
 25 24  2  0
 25 26  1  0
 26 27  2  0
 27 22  1  0
 28 29  2  0
 28 30  1  0
M  END
$$$$
