IHF.pdb
     RDKit          3D

 30 31  0  0  1  0  0  0  0  0999 V2000
   32.0322  -23.2079  -10.4767 C   0  0  0  0  0  0  0  0  0  0  0  0
   32.4097  -21.8798  -11.0684 C   0  0  0  0  0  0  0  0  0  0  0  0
   31.1549  -21.2666  -11.6491 C   0  0  2  0  0  0  0  0  0  0  0  0
   29.9547  -21.5006  -10.7642 C   0  0  0  0  0  0  0  0  0  0  0  0
   30.8497  -21.7527  -13.0226 C   0  0  2  0  0  0  0  0  0  0  0  0
   31.9798  -21.9270  -13.8748 N   0  0  0  0  0  0  0  0  0  0  0  0
   29.8355  -20.8329  -13.6857 C   0  0  0  0  0  0  0  0  0  0  0  0
   29.9363  -19.5949  -13.5372 O   0  0  0  0  0  0  0  0  0  0  0  0
   28.7903  -21.3554  -14.4604 N   0  0  0  0  0  0  0  0  0  0  0  0
   27.5129  -20.7934  -14.7777 C   0  0  1  0  0  0  0  0  0  0  0  0
   27.2406  -20.5144  -16.2353 C   0  0  0  0  0  0  0  0  0  0  0  0
   25.9373  -19.9242  -16.5252 C   0  0  0  0  0  0  0  0  0  0  0  0
   24.9276  -19.5671  -15.6828 C   0  0  0  0  0  0  0  0  0  0  0  0
   23.8568  -19.1080  -16.3820 N   0  0  0  0  0  0  0  0  0  0  0  0
   24.2162  -19.1853  -17.6683 C   0  0  0  0  0  0  0  0  0  0  0  0
   25.4847  -19.6827  -17.7600 N   0  0  0  0  0  0  0  0  0  0  0  0
   26.3676  -21.3331  -14.0635 C   0  0  0  0  0  0  0  0  0  0  0  0
   25.9937  -22.5230  -14.2354 O   0  0  0  0  0  0  0  0  0  0  0  0
   25.5847  -20.5745  -13.1249 N   0  0  0  0  0  0  0  0  0  0  0  0
   24.5082  -21.1917  -12.3757 C   0  0  1  0  0  0  0  0  0  0  0  0
   25.0144  -21.8858  -11.1259 C   0  0  0  0  0  0  0  0  0  0  0  0
   25.5106  -20.8688  -10.1721 C   0  0  0  0  0  0  0  0  0  0  0  0
   26.2560  -19.8277  -10.6299 C   0  0  0  0  0  0  0  0  0  0  0  0
   26.7339  -18.8648   -9.7747 C   0  0  0  0  0  0  0  0  0  0  0  0
   26.4423  -18.9739   -8.4349 C   0  0  0  0  0  0  0  0  0  0  0  0
   25.6843  -20.0286   -7.9543 C   0  0  0  0  0  0  0  0  0  0  0  0
   25.2223  -20.9747   -8.8404 C   0  0  0  0  0  0  0  0  0  0  0  0
   23.5873  -20.1166  -11.9426 C   0  0  0  0  0  0  0  0  0  0  0  0
   22.5367  -20.3801  -11.3151 O   0  0  0  0  0  0  0  0  0  0  0  0
   23.8630  -18.7867  -12.2200 O   0  0  0  0  0  0  0  0  0  0  0  0
  1  2  1  0
  3  4  1  1
  3  2  1  0
  5  6  1  6
  5  3  1  0
  7  8  2  0
  7  5  1  0
  9  7  1  0
 10 17  1  0
 10  9  1  0
 10 11  1  6
 12 16  1  0
 12 11  1  0
 13 12  2  0
 14 13  1  0
 14 15  1  0
 15 16  2  0
 17 19  1  0
 18 17  2  0
 19 20  1  0
 20 28  1  0
 20 21  1  1
 22 21  1  0
 23 22  2  0
 24 23  1  0
 25 24  2  0
 25 26  1  0
 26 27  2  0
 27 22  1  0
 28 29  2  0
 28 30  1  0
M  END
$$$$
