IHF.pdb
     RDKit          3D

 30 31  0  0  1  0  0  0  0  0999 V2000
   28.0915  -14.2845  -16.0857 C   0  0  0  0  0  0  0  0  0  0  0  0
   27.2695  -15.2877  -16.8436 C   0  0  0  0  0  0  0  0  0  0  0  0
   26.7747  -16.3151  -15.8499 C   0  0  2  0  0  0  0  0  0  0  0  0
   27.9149  -17.0028  -15.1391 C   0  0  0  0  0  0  0  0  0  0  0  0
   25.8927  -17.3444  -16.4652 C   0  0  2  0  0  0  0  0  0  0  0  0
   24.7916  -16.8364  -17.2158 N   0  0  0  0  0  0  0  0  0  0  0  0
   25.3944  -18.3068  -15.3977 C   0  0  0  0  0  0  0  0  0  0  0  0
   24.4790  -17.9490  -14.6237 O   0  0  0  0  0  0  0  0  0  0  0  0
   25.9481  -19.5886  -15.2708 N   0  0  0  0  0  0  0  0  0  0  0  0
   25.5556  -20.6794  -14.4316 C   0  0  1  0  0  0  0  0  0  0  0  0
   25.3980  -22.0231  -15.0993 C   0  0  0  0  0  0  0  0  0  0  0  0
   24.7969  -23.0649  -14.2721 C   0  0  0  0  0  0  0  0  0  0  0  0
   24.4382  -23.0452  -12.9577 C   0  0  0  0  0  0  0  0  0  0  0  0
   23.9671  -24.2589  -12.5689 N   0  0  0  0  0  0  0  0  0  0  0  0
   24.0386  -25.0307  -13.6594 C   0  0  0  0  0  0  0  0  0  0  0  0
   24.5443  -24.3060  -14.7006 N   0  0  0  0  0  0  0  0  0  0  0  0
   26.1782  -20.7496  -13.1198 C   0  0  0  0  0  0  0  0  0  0  0  0
   27.4228  -20.8939  -12.9959 O   0  0  0  0  0  0  0  0  0  0  0  0
   25.4455  -20.6625  -11.8850 N   0  0  0  0  0  0  0  0  0  0  0  0
   26.1225  -20.7360  -10.6053 C   0  0  1  0  0  0  0  0  0  0  0  0
   26.8481  -19.4460  -10.2744 C   0  0  0  0  0  0  0  0  0  0  0  0
   27.4546  -19.5606   -8.9294 C   0  0  0  0  0  0  0  0  0  0  0  0
   26.7651  -19.1202   -7.8433 C   0  0  0  0  0  0  0  0  0  0  0  0
   27.2956  -19.2100   -6.5794 C   0  0  0  0  0  0  0  0  0  0  0  0
   28.5484  -19.7583   -6.4312 C   0  0  0  0  0  0  0  0  0  0  0  0
   29.2624  -20.2110   -7.5280 C   0  0  0  0  0  0  0  0  0  0  0  0
   28.6992  -20.1049   -8.7791 C   0  0  0  0  0  0  0  0  0  0  0  0
   25.0926  -20.9443   -9.5626 C   0  0  0  0  0  0  0  0  0  0  0  0
   23.9884  -20.3575   -9.6192 O   0  0  0  0  0  0  0  0  0  0  0  0
   25.3225  -21.7960   -8.4933 O   0  0  0  0  0  0  0  0  0  0  0  0
  1  2  1  0
  3  4  1  6
  3  2  1  0
  5  6  1  1
  5  3  1  0
  7  8  2  0
  7  5  1  0
  9  7  1  0
 10 17  1  0
 10  9  1  0
 10 11  1  6
 12 16  1  0
 12 11  1  0
 13 12  2  0
 14 13  1  0
 14 15  1  0
 15 16  2  0
 17 19  1  0
 18 17  2  0
 19 20  1  0
 20 28  1  0
 20 21  1  1
 22 21  1  0
 23 22  2  0
 24 23  1  0
 25 24  2  0
 25 26  1  0
 26 27  2  0
 27 22  1  0
 28 29  2  0
 28 30  1  0
M  END
$$$$
