IHF.pdb
     RDKit          3D

 30 31  0  0  1  0  0  0  0  0999 V2000
   20.3211  -13.2560  -18.2454 C   0  0  0  0  0  0  0  0  0  0  0  0
   21.6896  -13.6106  -18.7531 C   0  0  0  0  0  0  0  0  0  0  0  0
   22.0666  -14.9464  -18.1519 C   0  0  2  0  0  0  0  0  0  0  0  0
   22.0983  -14.8940  -16.6438 C   0  0  0  0  0  0  0  0  0  0  0  0
   23.3715  -15.4624  -18.6489 C   0  0  2  0  0  0  0  0  0  0  0  0
   23.4697  -15.6158  -20.0634 N   0  0  0  0  0  0  0  0  0  0  0  0
   23.7073  -16.7761  -17.9590 C   0  0  0  0  0  0  0  0  0  0  0  0
   23.0810  -17.8134  -18.2697 O   0  0  0  0  0  0  0  0  0  0  0  0
   24.7091  -16.8381  -16.9802 N   0  0  0  0  0  0  0  0  0  0  0  0
   25.1572  -17.9467  -16.1938 C   0  0  1  0  0  0  0  0  0  0  0  0
   26.6459  -18.0655  -15.9795 C   0  0  0  0  0  0  0  0  0  0  0  0
   27.4282  -18.3545  -17.1775 C   0  0  0  0  0  0  0  0  0  0  0  0
   27.0380  -18.4508  -18.4795 C   0  0  0  0  0  0  0  0  0  0  0  0
   28.0855  -18.7996  -19.2717 N   0  0  0  0  0  0  0  0  0  0  0  0
   29.1295  -18.9181  -18.4436 C   0  0  0  0  0  0  0  0  0  0  0  0
   28.7328  -18.6474  -17.1652 N   0  0  0  0  0  0  0  0  0  0  0  0
   24.3707  -18.2698  -15.0147 C   0  0  0  0  0  0  0  0  0  0  0  0
   24.2586  -17.4539  -14.0623 O   0  0  0  0  0  0  0  0  0  0  0  0
   23.6725  -19.5153  -14.8399 N   0  0  0  0  0  0  0  0  0  0  0  0
   22.6767  -19.6763  -13.7989 C   0  0  1  0  0  0  0  0  0  0  0  0
   21.5538  -18.6652  -13.9291 C   0  0  0  0  0  0  0  0  0  0  0  0
   20.5670  -18.8930  -12.8501 C   0  0  0  0  0  0  0  0  0  0  0  0
   19.6442  -17.9338  -12.5722 C   0  0  0  0  0  0  0  0  0  0  0  0
   18.7127  -18.1096  -11.5779 C   0  0  0  0  0  0  0  0  0  0  0  0
   18.7306  -19.2841  -10.8623 C   0  0  0  0  0  0  0  0  0  0  0  0
   19.6644  -20.2700  -11.1342 C   0  0  0  0  0  0  0  0  0  0  0  0
   20.5824  -20.0591  -12.1375 C   0  0  0  0  0  0  0  0  0  0  0  0
   22.0799  -21.0224  -13.9513 C   0  0  0  0  0  0  0  0  0  0  0  0
   21.1835  -21.4231  -13.1750 O   0  0  0  0  0  0  0  0  0  0  0  0
   22.4975  -21.8777  -14.9592 O   0  0  0  0  0  0  0  0  0  0  0  0
  1  2  1  0
  3  4  1  1
  3  2  1  0
  5  6  1  6
  5  3  1  0
  7  8  2  0
  7  5  1  0
  9  7  1  0
 10 17  1  0
 10  9  1  0
 10 11  1  1
 12 16  1  0
 12 11  1  0
 13 12  2  0
 14 13  1  0
 14 15  1  0
 15 16  2  0
 17 19  1  0
 18 17  2  0
 19 20  1  0
 20 28  1  0
 20 21  1  6
 22 21  1  0
 23 22  2  0
 24 23  1  0
 25 24  2  0
 25 26  1  0
 26 27  2  0
 27 22  1  0
 28 29  2  0
 28 30  1  0
M  END
$$$$
