IHF.pdb
     RDKit          3D

 30 31  0  0  1  0  0  0  0  0999 V2000
   19.8152  -21.4818  -19.9135 C   0  0  0  0  0  0  0  0  0  0  0  0
   20.0849  -22.9178  -19.5650 C   0  0  0  0  0  0  0  0  0  0  0  0
   21.1490  -22.9336  -18.4902 C   0  0  2  0  0  0  0  0  0  0  0  0
   20.6607  -22.3050  -17.2078 C   0  0  0  0  0  0  0  0  0  0  0  0
   22.4118  -22.2663  -18.9097 C   0  0  2  0  0  0  0  0  0  0  0  0
   23.0740  -22.8572  -20.0261 N   0  0  0  0  0  0  0  0  0  0  0  0
   23.3667  -22.1722  -17.7291 C   0  0  0  0  0  0  0  0  0  0  0  0
   23.7745  -23.2202  -17.1810 O   0  0  0  0  0  0  0  0  0  0  0  0
   23.7945  -20.9267  -17.2483 N   0  0  0  0  0  0  0  0  0  0  0  0
   24.6281  -20.6117  -16.1285 C   0  0  1  0  0  0  0  0  0  0  0  0
   25.5995  -19.4714  -16.3088 C   0  0  0  0  0  0  0  0  0  0  0  0
   26.4887  -19.2239  -15.1779 C   0  0  0  0  0  0  0  0  0  0  0  0
   26.4370  -18.2626  -14.2136 C   0  0  0  0  0  0  0  0  0  0  0  0
   27.5059  -18.3585  -13.3801 N   0  0  0  0  0  0  0  0  0  0  0  0
   28.2204  -19.3915  -13.8406 C   0  0  0  0  0  0  0  0  0  0  0  0
   27.6033  -19.9223  -14.9372 N   0  0  0  0  0  0  0  0  0  0  0  0
   23.9984  -20.6397  -14.8186 C   0  0  0  0  0  0  0  0  0  0  0  0
   22.8670  -20.1211  -14.6281 O   0  0  0  0  0  0  0  0  0  0  0  0
   24.5977  -21.2456  -13.6597 N   0  0  0  0  0  0  0  0  0  0  0  0
   23.8693  -21.3572  -12.4115 C   0  0  1  0  0  0  0  0  0  0  0  0
   24.6998  -22.0199  -11.3293 C   0  0  0  0  0  0  0  0  0  0  0  0
   25.9056  -21.2013  -11.0720 C   0  0  0  0  0  0  0  0  0  0  0  0
   27.0356  -21.4270  -11.7938 C   0  0  0  0  0  0  0  0  0  0  0  0
   28.1739  -20.6875  -11.5830 C   0  0  0  0  0  0  0  0  0  0  0  0
   28.1496  -19.7059  -10.6199 C   0  0  0  0  0  0  0  0  0  0  0  0
   27.0060  -19.4647   -9.8770 C   0  0  0  0  0  0  0  0  0  0  0  0
   25.8842  -20.2253  -10.1156 C   0  0  0  0  0  0  0  0  0  0  0  0
   23.5542  -19.9863  -11.9502 C   0  0  0  0  0  0  0  0  0  0  0  0
   22.7823  -19.7914  -10.9842 O   0  0  0  0  0  0  0  0  0  0  0  0
   24.1059  -18.8790  -12.5756 O   0  0  0  0  0  0  0  0  0  0  0  0
  1  2  1  0
  3  4  1  1
  3  2  1  0
  5  6  1  6
  5  3  1  0
  7  8  2  0
  7  5  1  0
  9  7  1  0
 10 17  1  0
 10  9  1  0
 10 11  1  6
 12 16  1  0
 12 11  1  0
 13 12  2  0
 14 13  1  0
 14 15  1  0
 15 16  2  0
 17 19  1  0
 18 17  2  0
 19 20  1  0
 20 28  1  0
 20 21  1  1
 22 21  1  0
 23 22  2  0
 24 23  1  0
 25 24  2  0
 25 26  1  0
 26 27  2  0
 27 22  1  0
 28 29  2  0
 28 30  1  0
M  END
$$$$
