IHF.pdb
     RDKit          3D

 30 31  0  0  1  0  0  0  0  0999 V2000
   34.3306  -27.7295  -18.4433 C   0  0  0  0  0  0  0  0  0  0  0  0
   34.2853  -28.7531  -17.3449 C   0  0  0  0  0  0  0  0  0  0  0  0
   33.5351  -29.9555  -17.8733 C   0  0  2  0  0  0  0  0  0  0  0  0
   32.1443  -29.5915  -18.3329 C   0  0  0  0  0  0  0  0  0  0  0  0
   33.4470  -31.0676  -16.8877 C   0  0  2  0  0  0  0  0  0  0  0  0
   34.6788  -31.4379  -16.2718 N   0  0  0  0  0  0  0  0  0  0  0  0
   32.8024  -32.2846  -17.5340 C   0  0  0  0  0  0  0  0  0  0  0  0
   33.1646  -32.6400  -18.6774 O   0  0  0  0  0  0  0  0  0  0  0  0
   31.8083  -33.0119  -16.8644 N   0  0  0  0  0  0  0  0  0  0  0  0
   31.0810  -34.1718  -17.2814 C   0  0  1  0  0  0  0  0  0  0  0  0
   30.7658  -35.1914  -16.2149 C   0  0  0  0  0  0  0  0  0  0  0  0
   31.8362  -36.1397  -15.9217 C   0  0  0  0  0  0  0  0  0  0  0  0
   33.0579  -36.2934  -16.5052 C   0  0  0  0  0  0  0  0  0  0  0  0
   33.7225  -37.3462  -15.9609 N   0  0  0  0  0  0  0  0  0  0  0  0
   32.8968  -37.8426  -15.0327 C   0  0  0  0  0  0  0  0  0  0  0  0
   31.7449  -37.1094  -15.0056 N   0  0  0  0  0  0  0  0  0  0  0  0
   29.9936  -33.9564  -18.2217 C   0  0  0  0  0  0  0  0  0  0  0  0
   29.0212  -33.2101  -17.9339 O   0  0  0  0  0  0  0  0  0  0  0  0
   29.9369  -34.5610  -19.5257 N   0  0  0  0  0  0  0  0  0  0  0  0
   28.8212  -34.3149  -20.4178 C   0  0  1  0  0  0  0  0  0  0  0  0
   29.2278  -34.4219  -21.8750 C   0  0  0  0  0  0  0  0  0  0  0  0
   28.0419  -34.1887  -22.7290 C   0  0  0  0  0  0  0  0  0  0  0  0
   27.2526  -35.2384  -23.0812 C   0  0  0  0  0  0  0  0  0  0  0  0
   26.1440  -35.0607  -23.8726 C   0  0  0  0  0  0  0  0  0  0  0  0
   25.8442  -33.7903  -24.3062 C   0  0  0  0  0  0  0  0  0  0  0  0
   26.6388  -32.7116  -23.9556 C   0  0  0  0  0  0  0  0  0  0  0  0
   27.7417  -32.9274  -23.1613 C   0  0  0  0  0  0  0  0  0  0  0  0
   27.8036  -35.3597  -20.1646 C   0  0  0  0  0  0  0  0  0  0  0  0
   28.1346  -36.5535  -19.9849 O   0  0  0  0  0  0  0  0  0  0  0  0
   26.4543  -35.0451  -20.1192 O   0  0  0  0  0  0  0  0  0  0  0  0
  1  2  1  0
  3  4  1  1
  3  2  1  0
  5  6  1  6
  5  3  1  0
  7  8  2  0
  7  5  1  0
  9  7  1  0
 10 17  1  0
 10  9  1  0
 10 11  1  1
 12 16  1  0
 12 11  1  0
 13 12  2  0
 14 13  1  0
 14 15  1  0
 15 16  2  0
 17 19  1  0
 18 17  2  0
 19 20  1  0
 20 28  1  0
 20 21  1  6
 22 21  1  0
 23 22  2  0
 24 23  1  0
 25 24  2  0
 25 26  1  0
 26 27  2  0
 27 22  1  0
 28 29  2  0
 28 30  1  0
M  END
$$$$
