IHF.pdb
     RDKit          3D

 30 31  0  0  1  0  0  0  0  0999 V2000
   30.6115  -24.0242  -17.5813 C   0  0  0  0  0  0  0  0  0  0  0  0
   29.9626  -22.8952  -18.3301 C   0  0  0  0  0  0  0  0  0  0  0  0
   29.0769  -22.1516  -17.3552 C   0  0  2  0  0  0  0  0  0  0  0  0
   28.0031  -23.0430  -16.7802 C   0  0  0  0  0  0  0  0  0  0  0  0
   28.4409  -20.9438  -17.9490 C   0  0  2  0  0  0  0  0  0  0  0  0
   29.3431  -19.9254  -18.3768 N   0  0  0  0  0  0  0  0  0  0  0  0
   27.4230  -20.3627  -16.9792 C   0  0  0  0  0  0  0  0  0  0  0  0
   27.8182  -19.7029  -15.9926 O   0  0  0  0  0  0  0  0  0  0  0  0
   26.0489  -20.5575  -17.1776 N   0  0  0  0  0  0  0  0  0  0  0  0
   24.9388  -20.1628  -16.3651 C   0  0  1  0  0  0  0  0  0  0  0  0
   23.7972  -19.4725  -17.0698 C   0  0  0  0  0  0  0  0  0  0  0  0
   22.6659  -19.1119  -16.2207 C   0  0  0  0  0  0  0  0  0  0  0  0
   22.4615  -19.3279  -14.8909 C   0  0  0  0  0  0  0  0  0  0  0  0
   21.2356  -18.8796  -14.5131 N   0  0  0  0  0  0  0  0  0  0  0  0
   20.6834  -18.3832  -15.6260 C   0  0  0  0  0  0  0  0  0  0  0  0
   21.5527  -18.5230  -16.6699 N   0  0  0  0  0  0  0  0  0  0  0  0
   24.5098  -21.1054  -15.3450 C   0  0  0  0  0  0  0  0  0  0  0  0
   24.3996  -22.3339  -15.5976 O   0  0  0  0  0  0  0  0  0  0  0  0
   24.1832  -20.7255  -13.9965 N   0  0  0  0  0  0  0  0  0  0  0  0
   23.9198  -21.7244  -12.9796 C   0  0  1  0  0  0  0  0  0  0  0  0
   25.1769  -22.1048  -12.2214 C   0  0  0  0  0  0  0  0  0  0  0  0
   25.5248  -21.0173  -11.2800 C   0  0  0  0  0  0  0  0  0  0  0  0
   26.4751  -20.1087  -11.6269 C   0  0  0  0  0  0  0  0  0  0  0  0
   26.8245  -19.0858  -10.7793 C   0  0  0  0  0  0  0  0  0  0  0  0
   26.1899  -18.9965   -9.5623 C   0  0  0  0  0  0  0  0  0  0  0  0
   25.2201  -19.9145   -9.1953 C   0  0  0  0  0  0  0  0  0  0  0  0
   24.8958  -20.9261  -10.0701 C   0  0  0  0  0  0  0  0  0  0  0  0
   22.9758  -21.1348  -12.0036 C   0  0  0  0  0  0  0  0  0  0  0  0
   22.7641  -19.9014  -11.9739 O   0  0  0  0  0  0  0  0  0  0  0  0
   22.2991  -21.9330  -11.0944 O   0  0  0  0  0  0  0  0  0  0  0  0
  1  2  1  0
  3  4  1  6
  3  2  1  0
  5  6  1  1
  5  3  1  0
  7  8  2  0
  7  5  1  0
  9  7  1  0
 10 17  1  0
 10  9  1  0
 10 11  1  6
 12 16  1  0
 12 11  1  0
 13 12  2  0
 14 13  1  0
 14 15  1  0
 15 16  2  0
 17 19  1  0
 18 17  2  0
 19 20  1  0
 20 28  1  0
 20 21  1  1
 22 21  1  0
 23 22  2  0
 24 23  1  0
 25 24  2  0
 25 26  1  0
 26 27  2  0
 27 22  1  0
 28 29  2  0
 28 30  1  0
M  END
$$$$
