IHF.pdb
     RDKit          3D

 30 31  0  0  1  0  0  0  0  0999 V2000
   24.6892  -13.0190  -19.4809 C   0  0  0  0  0  0  0  0  0  0  0  0
   25.8583  -13.9009  -19.1463 C   0  0  0  0  0  0  0  0  0  0  0  0
   25.3312  -15.0729  -18.3487 C   0  0  2  0  0  0  0  0  0  0  0  0
   24.7539  -14.6361  -17.0243 C   0  0  0  0  0  0  0  0  0  0  0  0
   26.3572  -16.1246  -18.1097 C   0  0  2  0  0  0  0  0  0  0  0  0
   26.9759  -16.6528  -19.2811 N   0  0  0  0  0  0  0  0  0  0  0  0
   25.7610  -17.2537  -17.2826 C   0  0  0  0  0  0  0  0  0  0  0  0
   24.8694  -17.9772  -17.7791 O   0  0  0  0  0  0  0  0  0  0  0  0
   26.1981  -17.4928  -15.9722 N   0  0  0  0  0  0  0  0  0  0  0  0
   25.7286  -18.4382  -15.0057 C   0  0  1  0  0  0  0  0  0  0  0  0
   26.6945  -18.8234  -13.9126 C   0  0  0  0  0  0  0  0  0  0  0  0
   26.1742  -19.7597  -12.9209 C   0  0  0  0  0  0  0  0  0  0  0  0
   24.9150  -20.2529  -12.7541 C   0  0  0  0  0  0  0  0  0  0  0  0
   24.8535  -21.0564  -11.6600 N   0  0  0  0  0  0  0  0  0  0  0  0
   26.0908  -21.0545  -11.1513 C   0  0  0  0  0  0  0  0  0  0  0  0
   26.8996  -20.2647  -11.9175 N   0  0  0  0  0  0  0  0  0  0  0  0
   24.3604  -18.2730  -14.5433 C   0  0  0  0  0  0  0  0  0  0  0  0
   24.0186  -17.2695  -13.8639 O   0  0  0  0  0  0  0  0  0  0  0  0
   23.3087  -19.2161  -14.8148 N   0  0  0  0  0  0  0  0  0  0  0  0
   21.9399  -18.9457  -14.4215 C   0  0  1  0  0  0  0  0  0  0  0  0
   21.3210  -17.8381  -15.2522 C   0  0  0  0  0  0  0  0  0  0  0  0
   20.7627  -18.4163  -16.4948 C   0  0  0  0  0  0  0  0  0  0  0  0
   19.5399  -19.0103  -16.4674 C   0  0  0  0  0  0  0  0  0  0  0  0
   18.9895  -19.5581  -17.6005 C   0  0  0  0  0  0  0  0  0  0  0  0
   19.7043  -19.4942  -18.7739 C   0  0  0  0  0  0  0  0  0  0  0  0
   20.9508  -18.8923  -18.8171 C   0  0  0  0  0  0  0  0  0  0  0  0
   21.4707  -18.3542  -17.6622 C   0  0  0  0  0  0  0  0  0  0  0  0
   21.1509  -20.1744  -14.6642 C   0  0  0  0  0  0  0  0  0  0  0  0
   21.6728  -21.1840  -15.1890 O   0  0  0  0  0  0  0  0  0  0  0  0
   19.8106  -20.2416  -14.3169 O   0  0  0  0  0  0  0  0  0  0  0  0
  1  2  1  0
  3  4  1  1
  3  2  1  0
  5  6  1  6
  5  3  1  0
  7  8  2  0
  7  5  1  0
  9  7  1  0
 10 17  1  0
 10  9  1  0
 10 11  1  1
 12 16  1  0
 12 11  1  0
 13 12  2  0
 14 13  1  0
 14 15  1  0
 15 16  2  0
 17 19  1  0
 18 17  2  0
 19 20  1  0
 20 28  1  0
 20 21  1  6
 22 21  1  0
 23 22  2  0
 24 23  1  0
 25 24  2  0
 25 26  1  0
 26 27  2  0
 27 22  1  0
 28 29  2  0
 28 30  1  0
M  END
$$$$
