IHF.pdb
     RDKit          3D

 30 31  0  0  1  0  0  0  0  0999 V2000
   15.6521  -18.5377  -19.2828 C   0  0  0  0  0  0  0  0  0  0  0  0
   15.6105  -19.8329  -18.5232 C   0  0  0  0  0  0  0  0  0  0  0  0
   16.8629  -19.9060  -17.6783 C   0  0  2  0  0  0  0  0  0  0  0  0
   18.1129  -19.8059  -18.5183 C   0  0  0  0  0  0  0  0  0  0  0  0
   16.9335  -21.1375  -16.8450 C   0  0  2  0  0  0  0  0  0  0  0  0
   15.8322  -21.3424  -15.9622 N   0  0  0  0  0  0  0  0  0  0  0  0
   18.2381  -21.1615  -16.0629 C   0  0  0  0  0  0  0  0  0  0  0  0
   18.4409  -20.3032  -15.1757 O   0  0  0  0  0  0  0  0  0  0  0  0
   19.2149  -22.1326  -16.3243 N   0  0  0  0  0  0  0  0  0  0  0  0
   20.5139  -22.3064  -15.7494 C   0  0  1  0  0  0  0  0  0  0  0  0
   21.1522  -23.6629  -15.9194 C   0  0  0  0  0  0  0  0  0  0  0  0
   22.4301  -23.8417  -15.2368 C   0  0  0  0  0  0  0  0  0  0  0  0
   23.1981  -22.9421  -14.5602 C   0  0  0  0  0  0  0  0  0  0  0  0
   24.3501  -23.5200  -14.1298 N   0  0  0  0  0  0  0  0  0  0  0  0
   24.2858  -24.7890  -14.5484 C   0  0  0  0  0  0  0  0  0  0  0  0
   23.1161  -24.9893  -15.2242 N   0  0  0  0  0  0  0  0  0  0  0  0
   21.4459  -21.2007  -15.8980 C   0  0  0  0  0  0  0  0  0  0  0  0
   21.6533  -20.6694  -17.0205 O   0  0  0  0  0  0  0  0  0  0  0  0
   22.1905  -20.6345  -14.8052 N   0  0  0  0  0  0  0  0  0  0  0  0
   22.9728  -19.4264  -14.9780 C   0  0  1  0  0  0  0  0  0  0  0  0
   23.3160  -18.7801  -13.6496 C   0  0  0  0  0  0  0  0  0  0  0  0
   23.9352  -19.7904  -12.7630 C   0  0  0  0  0  0  0  0  0  0  0  0
   25.2772  -20.0009  -12.8212 C   0  0  0  0  0  0  0  0  0  0  0  0
   25.8872  -20.9301  -12.0140 C   0  0  0  0  0  0  0  0  0  0  0  0
   25.1087  -21.6502  -11.1381 C   0  0  0  0  0  0  0  0  0  0  0  0
   23.7407  -21.4466  -11.0677 C   0  0  0  0  0  0  0  0  0  0  0  0
   23.1640  -20.5073  -11.8916 C   0  0  0  0  0  0  0  0  0  0  0  0
   24.2475  -19.8049  -15.6283 C   0  0  0  0  0  0  0  0  0  0  0  0
   24.5912  -21.0045  -15.7266 O   0  0  0  0  0  0  0  0  0  0  0  0
   25.0972  -18.8403  -16.1474 O   0  0  0  0  0  0  0  0  0  0  0  0
  1  2  1  0
  3  4  1  6
  3  2  1  0
  5  6  1  1
  5  3  1  0
  7  8  2  0
  7  5  1  0
  9  7  1  0
 10 17  1  0
 10  9  1  0
 10 11  1  6
 12 16  1  0
 12 11  1  0
 13 12  2  0
 14 13  1  0
 14 15  1  0
 15 16  2  0
 17 19  1  0
 18 17  2  0
 19 20  1  0
 20 28  1  0
 20 21  1  1
 22 21  1  0
 23 22  2  0
 24 23  1  0
 25 24  2  0
 25 26  1  0
 26 27  2  0
 27 22  1  0
 28 29  2  0
 28 30  1  0
M  END
$$$$
