IHF.pdb
     RDKit          3D

 30 31  0  0  1  0  0  0  0  0999 V2000
   28.5883  -18.2639  -16.7808 C   0  0  0  0  0  0  0  0  0  0  0  0
   28.0295  -17.1445  -15.9495 C   0  0  0  0  0  0  0  0  0  0  0  0
   27.4956  -17.7498  -14.6703 C   0  0  2  0  0  0  0  0  0  0  0  0
   28.5956  -18.3619  -13.8374 C   0  0  0  0  0  0  0  0  0  0  0  0
   26.4371  -18.7698  -14.9048 C   0  0  2  0  0  0  0  0  0  0  0  0
   25.3596  -18.3519  -15.7404 N   0  0  0  0  0  0  0  0  0  0  0  0
   25.8981  -19.2743  -13.5746 C   0  0  0  0  0  0  0  0  0  0  0  0
   25.2232  -18.5077  -12.8522 O   0  0  0  0  0  0  0  0  0  0  0  0
   26.1482  -20.5865  -13.1491 N   0  0  0  0  0  0  0  0  0  0  0  0
   25.6809  -21.2799  -11.9876 C   0  0  1  0  0  0  0  0  0  0  0  0
   25.1142  -22.6608  -12.2074 C   0  0  0  0  0  0  0  0  0  0  0  0
   23.9979  -22.7357  -13.1450 C   0  0  0  0  0  0  0  0  0  0  0  0
   22.7466  -22.2021  -13.0657 C   0  0  0  0  0  0  0  0  0  0  0  0
   21.9972  -22.5703  -14.1377 N   0  0  0  0  0  0  0  0  0  0  0  0
   22.8003  -23.3388  -14.8820 C   0  0  0  0  0  0  0  0  0  0  0  0
   24.0217  -23.4423  -14.2799 N   0  0  0  0  0  0  0  0  0  0  0  0
   26.4964  -21.1683  -10.7894 C   0  0  0  0  0  0  0  0  0  0  0  0
   27.6338  -21.7042  -10.7228 O   0  0  0  0  0  0  0  0  0  0  0  0
   26.0850  -20.4555   -9.6097 N   0  0  0  0  0  0  0  0  0  0  0  0
   26.8250  -20.5705   -8.3686 C   0  0  1  0  0  0  0  0  0  0  0  0
   27.4285  -19.2452   -7.9450 C   0  0  0  0  0  0  0  0  0  0  0  0
   28.0443  -19.3966   -6.6079 C   0  0  0  0  0  0  0  0  0  0  0  0
   29.1385  -20.1900   -6.4597 C   0  0  0  0  0  0  0  0  0  0  0  0
   29.7370  -20.3549   -5.2343 C   0  0  0  0  0  0  0  0  0  0  0  0
   29.2045  -19.6968   -4.1502 C   0  0  0  0  0  0  0  0  0  0  0  0
   28.0904  -18.8854   -4.2859 C   0  0  0  0  0  0  0  0  0  0  0  0
   27.5172  -18.7439   -5.5289 C   0  0  0  0  0  0  0  0  0  0  0  0
   25.8719  -20.9802   -7.3127 C   0  0  0  0  0  0  0  0  0  0  0  0
   24.6475  -20.7428   -7.4203 O   0  0  0  0  0  0  0  0  0  0  0  0
   26.3090  -21.6391   -6.1740 O   0  0  0  0  0  0  0  0  0  0  0  0
  1  2  1  0
  3  4  1  6
  3  2  1  0
  5  6  1  6
  5  3  1  0
  7  8  2  0
  7  5  1  0
  9  7  1  0
 10 17  1  0
 10  9  1  0
 10 11  1  6
 12 16  1  0
 12 11  1  0
 13 12  2  0
 14 13  1  0
 14 15  1  0
 15 16  2  0
 17 19  1  0
 18 17  2  0
 19 20  1  0
 20 28  1  0
 20 21  1  1
 22 21  1  0
 23 22  2  0
 24 23  1  0
 25 24  2  0
 25 26  1  0
 26 27  2  0
 27 22  1  0
 28 29  2  0
 28 30  1  0
M  END
$$$$
