LHW.pdb
     RDKit          3D

 33 35  0  0  1  0  0  0  0  0999 V2000
    7.8280  -11.6201   19.4924 C   0  0  0  0  0  0  0  0  0  0  0  0
    8.0708  -13.0568   19.0866 C   0  0  1  0  0  0  0  0  0  0  0  0
    9.4652  -13.1717   18.5584 C   0  0  0  0  0  0  0  0  0  0  0  0
    7.8777  -14.0127   20.2412 C   0  0  0  0  0  0  0  0  0  0  0  0
    8.0335  -15.4523   19.8099 C   0  0  2  0  0  0  0  0  0  0  0  0
    7.0534  -15.8624   18.8613 N   0  0  0  0  0  0  0  0  0  0  0  0
    8.1574  -16.3035   20.9984 C   0  0  0  0  0  0  0  0  0  0  0  0
    7.2414  -16.3232   21.8610 O   0  0  0  0  0  0  0  0  0  0  0  0
    9.2881  -17.1563   21.2741 N   0  0  0  0  0  0  0  0  0  0  0  0
    9.3457  -17.9769   22.4390 C   0  0  1  0  0  0  0  0  0  0  0  0
    9.8792  -19.3426   22.2585 C   0  0  0  0  0  0  0  0  0  0  0  0
    9.9445  -20.2086   23.4384 C   0  0  0  0  0  0  0  0  0  0  0  0
    9.3840  -20.0283   24.6688 C   0  0  0  0  0  0  0  0  0  0  0  0
    9.6667  -21.0950   25.4728 N   0  0  0  0  0  0  0  0  0  0  0  0
   10.4010  -21.9223   24.7215 C   0  0  0  0  0  0  0  0  0  0  0  0
   10.5817  -21.4179   23.5029 N   0  0  0  0  0  0  0  0  0  0  0  0
   10.0535  -17.2246   23.5335 C   0  0  0  0  0  0  0  0  0  0  0  0
   11.1933  -16.7592   23.3235 O   0  0  0  0  0  0  0  0  0  0  0  0
    9.4496  -17.0372   24.7904 N   0  0  0  0  0  0  0  0  0  0  0  0
   10.2451  -16.5423   25.9343 C   0  0  1  0  0  0  0  0  0  0  0  0
    9.8977  -15.1048   26.1842 C   0  0  0  0  0  0  0  0  0  0  0  0
    8.4569  -14.8555   26.0941 C   0  0  0  0  0  0  0  0  0  0  0  0
    7.4614  -15.8330   25.9555 C   0  0  0  0  0  0  0  0  0  0  0  0
    6.2642  -15.2441   25.8593 N   0  0  0  0  0  0  0  0  0  0  0  0
    6.4175  -13.9150   25.9288 C   0  0  0  0  0  0  0  0  0  0  0  0
    5.5139  -12.8662   25.9008 C   0  0  0  0  0  0  0  0  0  0  0  0
    5.9417  -11.5828   26.0172 C   0  0  0  0  0  0  0  0  0  0  0  0
    7.2844  -11.3174   26.1643 C   0  0  0  0  0  0  0  0  0  0  0  0
    8.1838  -12.3310   26.1928 C   0  0  0  0  0  0  0  0  0  0  0  0
    7.7536  -13.6459   26.0734 C   0  0  0  0  0  0  0  0  0  0  0  0
   10.0977  -17.3684   27.1128 C   0  0  0  0  0  0  0  0  0  0  0  0
   10.9871  -17.1394   28.1816 O   0  0  0  0  0  0  0  0  0  0  0  0
    9.2298  -18.2454   27.1946 O   0  0  0  0  0  0  0  0  0  0  0  0
  2  3  1  1
  2  1  1  0
  4  5  1  0
  4  2  1  0
  5  6  1  1
  7  5  1  0
  8  7  2  0
  9  7  1  0
 10  9  1  0
 11 12  1  0
 10 11  1  6
 12 16  1  0
 13 12  2  0
 13 14  1  0
 14 15  1  0
 16 15  2  0
 17 19  1  0
 17 10  1  0
 18 17  2  0
 20 31  1  0
 20 19  1  0
 20 21  1  1
 21 22  1  0
 22 23  2  0
 22 30  1  0
 23 24  1  0
 24 25  1  0
 25 26  2  0
 27 26  1  0
 28 27  2  0
 29 30  2  0
 29 28  1  0
 30 25  1  0
 31 32  1  0
 33 31  2  0
M  END
$$$$
