LHW.pdb
     RDKit          3D

 33 35  0  0  1  0  0  0  0  0999 V2000
    7.0314  -12.0722   19.2339 C   0  0  0  0  0  0  0  0  0  0  0  0
    7.8299  -13.3153   18.9100 C   0  0  1  0  0  0  0  0  0  0  0  0
    9.2306  -12.9073   18.5811 C   0  0  0  0  0  0  0  0  0  0  0  0
    7.8367  -14.2999   20.0565 C   0  0  0  0  0  0  0  0  0  0  0  0
    8.7007  -15.5028   19.7580 C   0  0  2  0  0  0  0  0  0  0  0  0
    8.3103  -16.1937   18.5753 N   0  0  0  0  0  0  0  0  0  0  0  0
    8.8135  -16.3299   20.9646 C   0  0  0  0  0  0  0  0  0  0  0  0
    7.8303  -16.4553   21.7399 O   0  0  0  0  0  0  0  0  0  0  0  0
   10.0062  -17.0418   21.3544 N   0  0  0  0  0  0  0  0  0  0  0  0
   10.0294  -17.9087   22.4866 C   0  0  1  0  0  0  0  0  0  0  0  0
   10.8453  -19.1339   22.3631 C   0  0  0  0  0  0  0  0  0  0  0  0
   10.4324  -20.1287   21.3701 C   0  0  0  0  0  0  0  0  0  0  0  0
    9.3540  -20.1130   20.5349 C   0  0  0  0  0  0  0  0  0  0  0  0
    9.3582  -21.2261   19.7441 N   0  0  0  0  0  0  0  0  0  0  0  0
   10.4459  -21.9152   20.1051 C   0  0  0  0  0  0  0  0  0  0  0  0
   11.1051  -21.2829   21.0734 N   0  0  0  0  0  0  0  0  0  0  0  0
   10.3807  -17.1064   23.7104 C   0  0  0  0  0  0  0  0  0  0  0  0
   11.2661  -16.2285   23.6383 O   0  0  0  0  0  0  0  0  0  0  0  0
    9.7256  -17.3305   24.9354 N   0  0  0  0  0  0  0  0  0  0  0  0
   10.1514  -16.6072   26.1526 C   0  0  1  0  0  0  0  0  0  0  0  0
    9.9848  -15.1337   25.9277 C   0  0  0  0  0  0  0  0  0  0  0  0
    8.5768  -14.7315   25.8863 C   0  0  0  0  0  0  0  0  0  0  0  0
    7.5019  -15.5433   25.4970 C   0  0  0  0  0  0  0  0  0  0  0  0
    6.3674  -14.8358   25.5373 N   0  0  0  0  0  0  0  0  0  0  0  0
    6.6385  -13.5865   25.9379 C   0  0  0  0  0  0  0  0  0  0  0  0
    5.8356  -12.4808   26.1622 C   0  0  0  0  0  0  0  0  0  0  0  0
    6.3740  -11.3138   26.5999 C   0  0  0  0  0  0  0  0  0  0  0  0
    7.7293  -11.2243   26.8238 C   0  0  0  0  0  0  0  0  0  0  0  0
    8.5312  -12.2956   26.6087 C   0  0  0  0  0  0  0  0  0  0  0  0
    7.9876  -13.4922   26.1602 C   0  0  0  0  0  0  0  0  0  0  0  0
    9.4729  -17.0735   27.3423 C   0  0  0  0  0  0  0  0  0  0  0  0
    8.5146  -18.0946   27.1851 O   0  0  0  0  0  0  0  0  0  0  0  0
    9.7135  -16.6045   28.4610 O   0  0  0  0  0  0  0  0  0  0  0  0
  2  3  1  1
  2  1  1  0
  4  5  1  0
  4  2  1  0
  5  6  1  6
  7  5  1  0
  8  7  2  0
  9  7  1  0
 10  9  1  0
 11 12  1  0
 10 11  1  6
 12 16  1  0
 13 12  2  0
 13 14  1  0
 14 15  1  0
 16 15  2  0
 17 19  1  0
 17 10  1  0
 18 17  2  0
 20 31  1  0
 20 19  1  0
 20 21  1  6
 21 22  1  0
 22 23  2  0
 22 30  1  0
 23 24  1  0
 24 25  1  0
 25 26  2  0
 27 26  1  0
 28 27  2  0
 29 30  2  0
 29 28  1  0
 30 25  1  0
 31 32  1  0
 33 31  2  0
M  END
$$$$
