LHW.pdb
     RDKit          3D

 33 35  0  0  1  0  0  0  0  0999 V2000
    8.2978  -13.2655   20.1252 C   0  0  0  0  0  0  0  0  0  0  0  0
    7.6946  -13.8253   21.3943 C   0  0  1  0  0  0  0  0  0  0  0  0
    6.9049  -12.7445   22.0614 C   0  0  0  0  0  0  0  0  0  0  0  0
    6.8069  -15.0178   21.1224 C   0  0  0  0  0  0  0  0  0  0  0  0
    7.6037  -16.2186   20.6687 C   0  0  2  0  0  0  0  0  0  0  0  0
    6.8114  -17.1994   20.0063 N   0  0  0  0  0  0  0  0  0  0  0  0
    8.4153  -16.7122   21.7869 C   0  0  0  0  0  0  0  0  0  0  0  0
    7.8908  -17.4202   22.6853 O   0  0  0  0  0  0  0  0  0  0  0  0
    9.8233  -16.4436   21.9511 N   0  0  0  0  0  0  0  0  0  0  0  0
   10.6128  -17.1309   22.9196 C   0  0  1  0  0  0  0  0  0  0  0  0
   11.9875  -17.4904   22.5155 C   0  0  0  0  0  0  0  0  0  0  0  0
   12.1467  -18.3810   21.3632 C   0  0  0  0  0  0  0  0  0  0  0  0
   11.4581  -19.5171   21.0535 C   0  0  0  0  0  0  0  0  0  0  0  0
   11.9053  -20.0272   19.8686 N   0  0  0  0  0  0  0  0  0  0  0  0
   12.8682  -19.1928   19.4626 C   0  0  0  0  0  0  0  0  0  0  0  0
   13.0326  -18.2016   20.3359 N   0  0  0  0  0  0  0  0  0  0  0  0
   10.5774  -16.3638   24.2139 C   0  0  0  0  0  0  0  0  0  0  0  0
   11.0893  -15.2260   24.2697 O   0  0  0  0  0  0  0  0  0  0  0  0
    9.9755  -16.9097   25.3625 N   0  0  0  0  0  0  0  0  0  0  0  0
   10.2628  -16.3419   26.6972 C   0  0  1  0  0  0  0  0  0  0  0  0
    8.9811  -16.2378   27.4690 C   0  0  0  0  0  0  0  0  0  0  0  0
    7.9741  -15.4338   26.7722 C   0  0  0  0  0  0  0  0  0  0  0  0
    6.9341  -15.9314   25.9743 C   0  0  0  0  0  0  0  0  0  0  0  0
    6.2357  -14.9128   25.4604 N   0  0  0  0  0  0  0  0  0  0  0  0
    6.7642  -13.7562   25.8818 C   0  0  0  0  0  0  0  0  0  0  0  0
    6.4156  -12.4339   25.6641 C   0  0  0  0  0  0  0  0  0  0  0  0
    7.1212  -11.4292   26.2441 C   0  0  0  0  0  0  0  0  0  0  0  0
    8.1931  -11.7231   27.0563 C   0  0  0  0  0  0  0  0  0  0  0  0
    8.5498  -13.0113   27.2802 C   0  0  0  0  0  0  0  0  0  0  0  0
    7.8334  -14.0439   26.6896 C   0  0  0  0  0  0  0  0  0  0  0  0
   11.2866  -17.0785   27.4060 C   0  0  0  0  0  0  0  0  0  0  0  0
   11.7468  -16.5413   28.6248 O   0  0  0  0  0  0  0  0  0  0  0  0
   11.7499  -18.1399   26.9724 O   0  0  0  0  0  0  0  0  0  0  0  0
  2  3  1  6
  2  1  1  0
  4  5  1  0
  4  2  1  0
  5  6  1  1
  7  5  1  0
  8  7  2  0
  9  7  1  0
 10  9  1  0
 11 12  1  0
 10 11  1  6
 12 16  1  0
 13 12  2  0
 13 14  1  0
 14 15  1  0
 16 15  2  0
 17 19  1  0
 17 10  1  0
 18 17  2  0
 20 31  1  0
 20 19  1  0
 20 21  1  1
 21 22  1  0
 22 23  2  0
 22 30  1  0
 23 24  1  0
 24 25  1  0
 25 26  2  0
 27 26  1  0
 28 27  2  0
 29 30  2  0
 29 28  1  0
 30 25  1  0
 31 32  1  0
 33 31  2  0
M  END
$$$$
