LHW.pdb
     RDKit          3D

 33 35  0  0  1  0  0  0  0  0999 V2000
    7.1375  -12.0585   20.2382 C   0  0  0  0  0  0  0  0  0  0  0  0
    7.4610  -13.4457   19.7296 C   0  0  1  0  0  0  0  0  0  0  0  0
    8.7247  -13.3765   18.9328 C   0  0  0  0  0  0  0  0  0  0  0  0
    7.6174  -14.4407   20.8564 C   0  0  0  0  0  0  0  0  0  0  0  0
    8.0321  -15.8021   20.3492 C   0  0  2  0  0  0  0  0  0  0  0  0
    6.9928  -16.4806   19.6506 N   0  0  0  0  0  0  0  0  0  0  0  0
    8.6560  -16.5569   21.4418 C   0  0  0  0  0  0  0  0  0  0  0  0
    7.9742  -17.3686   22.1200 O   0  0  0  0  0  0  0  0  0  0  0  0
   10.0433  -16.4430   21.8209 N   0  0  0  0  0  0  0  0  0  0  0  0
   10.6172  -17.2672   22.8334 C   0  0  1  0  0  0  0  0  0  0  0  0
   12.0334  -17.6461   22.6518 C   0  0  0  0  0  0  0  0  0  0  0  0
   12.6165  -18.5808   23.6176 C   0  0  0  0  0  0  0  0  0  0  0  0
   13.5886  -18.3594   24.5486 C   0  0  0  0  0  0  0  0  0  0  0  0
   13.8160  -19.4976   25.2677 N   0  0  0  0  0  0  0  0  0  0  0  0
   12.9753  -20.4090   24.7669 C   0  0  0  0  0  0  0  0  0  0  0  0
   12.2477  -19.8884   23.7812 N   0  0  0  0  0  0  0  0  0  0  0  0
   10.3583  -16.6428   24.1781 C   0  0  0  0  0  0  0  0  0  0  0  0
   10.6497  -15.4431   24.3665 O   0  0  0  0  0  0  0  0  0  0  0  0
    9.7922  -17.3911   25.2265 N   0  0  0  0  0  0  0  0  0  0  0  0
    9.8657  -16.8990   26.6189 C   0  0  1  0  0  0  0  0  0  0  0  0
    8.4770  -16.8076   27.1778 C   0  0  0  0  0  0  0  0  0  0  0  0
    7.6550  -15.8225   26.4706 C   0  0  0  0  0  0  0  0  0  0  0  0
    6.6948  -16.1070   25.4893 C   0  0  0  0  0  0  0  0  0  0  0  0
    6.1713  -14.9652   25.0291 N   0  0  0  0  0  0  0  0  0  0  0  0
    6.7401  -13.9304   25.6619 C   0  0  0  0  0  0  0  0  0  0  0  0
    6.5483  -12.5617   25.5770 C   0  0  0  0  0  0  0  0  0  0  0  0
    7.2557  -11.7149   26.3682 C   0  0  0  0  0  0  0  0  0  0  0  0
    8.1726  -12.2169   27.2639 C   0  0  0  0  0  0  0  0  0  0  0  0
    8.3747  -13.5536   27.3603 C   0  0  0  0  0  0  0  0  0  0  0  0
    7.6555  -14.4256   26.5536 C   0  0  0  0  0  0  0  0  0  0  0  0
   10.7511  -17.6929   27.4430 C   0  0  0  0  0  0  0  0  0  0  0  0
   11.3252  -18.8405   26.8605 O   0  0  0  0  0  0  0  0  0  0  0  0
   11.0045  -17.3893   28.6147 O   0  0  0  0  0  0  0  0  0  0  0  0
  2  3  1  1
  2  1  1  0
  4  5  1  0
  4  2  1  0
  5  6  1  1
  7  5  1  0
  8  7  2  0
  9  7  1  0
 10  9  1  0
 11 12  1  0
 10 11  1  6
 12 16  1  0
 13 12  2  0
 13 14  1  0
 14 15  1  0
 16 15  2  0
 17 19  1  0
 17 10  1  0
 18 17  2  0
 20 31  1  0
 20 19  1  0
 20 21  1  1
 21 22  1  0
 22 23  2  0
 22 30  1  0
 23 24  1  0
 24 25  1  0
 25 26  2  0
 27 26  1  0
 28 27  2  0
 29 30  2  0
 29 28  1  0
 30 25  1  0
 31 32  1  0
 33 31  2  0
M  END
$$$$
