LHW.pdb
     RDKit          3D

 33 35  0  0  1  0  0  0  0  0999 V2000
    6.8949  -12.4302   18.5502 C   0  0  0  0  0  0  0  0  0  0  0  0
    8.1193  -13.3120   18.6543 C   0  0  1  0  0  0  0  0  0  0  0  0
    9.3033  -12.4475   18.9500 C   0  0  0  0  0  0  0  0  0  0  0  0
    7.9703  -14.3651   19.7280 C   0  0  0  0  0  0  0  0  0  0  0  0
    9.3059  -14.9382   20.1410 C   0  0  2  0  0  0  0  0  0  0  0  0
   10.0708  -15.4249   19.0426 N   0  0  0  0  0  0  0  0  0  0  0  0
    9.1063  -15.8876   21.2417 C   0  0  0  0  0  0  0  0  0  0  0  0
    8.2770  -15.6340   22.1536 O   0  0  0  0  0  0  0  0  0  0  0  0
    9.8098  -17.1403   21.3733 N   0  0  0  0  0  0  0  0  0  0  0  0
    9.6026  -18.0067   22.4868 C   0  0  1  0  0  0  0  0  0  0  0  0
    9.9474  -19.4295   22.2892 C   0  0  0  0  0  0  0  0  0  0  0  0
    9.2151  -20.1699   21.2588 C   0  0  0  0  0  0  0  0  0  0  0  0
    8.0832  -19.8142   20.5857 C   0  0  0  0  0  0  0  0  0  0  0  0
    7.7502  -20.7842   19.6844 N   0  0  0  0  0  0  0  0  0  0  0  0
    8.6876  -21.7288   19.8154 C   0  0  0  0  0  0  0  0  0  0  0  0
    9.5741  -21.3876   20.7480 N   0  0  0  0  0  0  0  0  0  0  0  0
   10.2735  -17.4167   23.6979 C   0  0  0  0  0  0  0  0  0  0  0  0
   11.3415  -16.7835   23.5632 O   0  0  0  0  0  0  0  0  0  0  0  0
    9.7148  -17.5677   24.9804 N   0  0  0  0  0  0  0  0  0  0  0  0
   10.2541  -16.8016   26.1243 C   0  0  1  0  0  0  0  0  0  0  0  0
   10.0116  -15.3402   25.8901 C   0  0  0  0  0  0  0  0  0  0  0  0
    8.6127  -14.9648   26.1094 C   0  0  0  0  0  0  0  0  0  0  0  0
    7.5133  -15.8342   26.0707 C   0  0  0  0  0  0  0  0  0  0  0  0
    6.3862  -15.1420   26.2706 N   0  0  0  0  0  0  0  0  0  0  0  0
    6.6860  -13.8476   26.4422 C   0  0  0  0  0  0  0  0  0  0  0  0
    5.9058  -12.7324   26.6974 C   0  0  0  0  0  0  0  0  0  0  0  0
    6.4777  -11.5112   26.8563 C   0  0  0  0  0  0  0  0  0  0  0  0
    7.8445  -11.3760   26.7637 C   0  0  0  0  0  0  0  0  0  0  0  0
    8.6242  -12.4560   26.5134 C   0  0  0  0  0  0  0  0  0  0  0  0
    8.0461  -13.7078   26.3488 C   0  0  0  0  0  0  0  0  0  0  0  0
    9.7352  -17.2601   27.3946 C   0  0  0  0  0  0  0  0  0  0  0  0
    8.7387  -18.2562   27.3675 O   0  0  0  0  0  0  0  0  0  0  0  0
   10.1401  -16.8056   28.4710 O   0  0  0  0  0  0  0  0  0  0  0  0
  2  3  1  1
  2  1  1  0
  4  5  1  0
  4  2  1  0
  5  6  1  6
  7  5  1  0
  8  7  2  0
  9  7  1  0
 10  9  1  0
 11 12  1  0
 10 11  1  6
 12 16  1  0
 13 12  2  0
 13 14  1  0
 14 15  1  0
 16 15  2  0
 17 19  1  0
 17 10  1  0
 18 17  2  0
 20 31  1  0
 20 19  1  0
 20 21  1  6
 21 22  1  0
 22 23  2  0
 22 30  1  0
 23 24  1  0
 24 25  1  0
 25 26  2  0
 27 26  1  0
 28 27  2  0
 29 30  2  0
 29 28  1  0
 30 25  1  0
 31 32  1  0
 33 31  2  0
M  END
$$$$
