LHW.pdb
     RDKit          3D

 33 35  0  0  1  0  0  0  0  0999 V2000
    7.1705  -11.9888   19.8162 C   0  0  0  0  0  0  0  0  0  0  0  0
    7.8925  -13.1978   19.2644 C   0  0  1  0  0  0  0  0  0  0  0  0
    9.3037  -12.8091   18.9581 C   0  0  0  0  0  0  0  0  0  0  0  0
    7.8771  -14.3584   20.2323 C   0  0  0  0  0  0  0  0  0  0  0  0
    8.6832  -15.5283   19.7184 C   0  0  2  0  0  0  0  0  0  0  0  0
    8.1171  -16.1335   18.5601 N   0  0  0  0  0  0  0  0  0  0  0  0
    8.9748  -16.4412   20.8294 C   0  0  0  0  0  0  0  0  0  0  0  0
    8.1227  -17.2954   21.1869 O   0  0  0  0  0  0  0  0  0  0  0  0
   10.2077  -16.4430   21.5788 N   0  0  0  0  0  0  0  0  0  0  0  0
   10.5059  -17.4580   22.5351 C   0  0  1  0  0  0  0  0  0  0  0  0
   11.6994  -18.2865   22.2677 C   0  0  0  0  0  0  0  0  0  0  0  0
   12.0436  -19.3195   23.2479 C   0  0  0  0  0  0  0  0  0  0  0  0
   13.0947  -19.3641   24.1163 C   0  0  0  0  0  0  0  0  0  0  0  0
   13.0245  -20.4947   24.8785 N   0  0  0  0  0  0  0  0  0  0  0  0
   11.9244  -21.1338   24.4668 C   0  0  0  0  0  0  0  0  0  0  0  0
   11.3200  -20.4544   23.4946 N   0  0  0  0  0  0  0  0  0  0  0  0
   10.5296  -16.8446   23.9091 C   0  0  0  0  0  0  0  0  0  0  0  0
   11.3293  -15.9176   24.1561 O   0  0  0  0  0  0  0  0  0  0  0  0
    9.6632  -17.2998   24.9200 N   0  0  0  0  0  0  0  0  0  0  0  0
    9.9011  -16.9264   26.3308 C   0  0  1  0  0  0  0  0  0  0  0  0
    8.5886  -16.9000   27.0561 C   0  0  0  0  0  0  0  0  0  0  0  0
    7.6544  -15.9277   26.4834 C   0  0  0  0  0  0  0  0  0  0  0  0
    6.5715  -16.2254   25.6439 C   0  0  0  0  0  0  0  0  0  0  0  0
    5.9642  -15.0918   25.2755 N   0  0  0  0  0  0  0  0  0  0  0  0
    6.5947  -14.0499   25.8339 C   0  0  0  0  0  0  0  0  0  0  0  0
    6.3639  -12.6852   25.7929 C   0  0  0  0  0  0  0  0  0  0  0  0
    7.1578  -11.8294   26.4863 C   0  0  0  0  0  0  0  0  0  0  0  0
    8.2024  -12.3183   27.2379 C   0  0  0  0  0  0  0  0  0  0  0  0
    8.4443  -13.6509   27.2893 C   0  0  0  0  0  0  0  0  0  0  0  0
    7.6370  -14.5319   26.5819 C   0  0  0  0  0  0  0  0  0  0  0  0
   10.8803  -17.7759   26.9731 C   0  0  0  0  0  0  0  0  0  0  0  0
   11.3344  -17.3922   28.2507 O   0  0  0  0  0  0  0  0  0  0  0  0
   11.3118  -18.8023   26.4351 O   0  0  0  0  0  0  0  0  0  0  0  0
  2  3  1  1
  2  1  1  0
  4  5  1  0
  4  2  1  0
  5  6  1  6
  7  5  1  0
  8  7  2  0
  9  7  1  0
 10  9  1  0
 11 12  1  0
 10 11  1  6
 12 16  1  0
 13 12  2  0
 13 14  1  0
 14 15  1  0
 16 15  2  0
 17 19  1  0
 17 10  1  0
 18 17  2  0
 20 31  1  0
 20 19  1  0
 20 21  1  1
 21 22  1  0
 22 23  2  0
 22 30  1  0
 23 24  1  0
 24 25  1  0
 25 26  2  0
 27 26  1  0
 28 27  2  0
 29 30  2  0
 29 28  1  0
 30 25  1  0
 31 32  1  0
 33 31  2  0
M  END
$$$$
