LHW.pdb
     RDKit          3D

 33 35  0  0  1  0  0  0  0  0999 V2000
    7.5663  -12.0314   20.7143 C   0  0  0  0  0  0  0  0  0  0  0  0
    7.5478  -13.3596   19.9910 C   0  0  1  0  0  0  0  0  0  0  0  0
    8.5175  -13.2946   18.8542 C   0  0  0  0  0  0  0  0  0  0  0  0
    7.9040  -14.5086   20.9058 C   0  0  0  0  0  0  0  0  0  0  0  0
    7.9305  -15.8264   20.1673 C   0  0  2  0  0  0  0  0  0  0  0  0
    6.6314  -16.3244   19.8625 N   0  0  0  0  0  0  0  0  0  0  0  0
    8.8152  -16.7600   20.8733 C   0  0  0  0  0  0  0  0  0  0  0  0
    8.3626  -17.4845   21.7973 O   0  0  0  0  0  0  0  0  0  0  0  0
   10.2194  -16.9250   20.5864 N   0  0  0  0  0  0  0  0  0  0  0  0
   11.0291  -17.8572   21.2999 C   0  0  1  0  0  0  0  0  0  0  0  0
   12.1634  -18.4476   20.5604 C   0  0  0  0  0  0  0  0  0  0  0  0
   11.8549  -19.3025   19.4113 C   0  0  0  0  0  0  0  0  0  0  0  0
   11.0569  -20.4072   19.3517 C   0  0  0  0  0  0  0  0  0  0  0  0
   11.0192  -20.8890   18.0747 N   0  0  0  0  0  0  0  0  0  0  0  0
   11.7985  -20.0691   17.3617 C   0  0  0  0  0  0  0  0  0  0  0  0
   12.3098  -19.1134   18.1346 N   0  0  0  0  0  0  0  0  0  0  0  0
   11.4545  -17.2385   22.6042 C   0  0  0  0  0  0  0  0  0  0  0  0
   11.4423  -15.9960   22.7295 O   0  0  0  0  0  0  0  0  0  0  0  0
   11.8654  -18.0397   23.6853 N   0  0  0  0  0  0  0  0  0  0  0  0
   11.8955  -17.4856   25.0559 C   0  0  1  0  0  0  0  0  0  0  0  0
   10.5130  -17.0432   25.4333 C   0  0  0  0  0  0  0  0  0  0  0  0
   10.4404  -16.5566   26.8131 C   0  0  0  0  0  0  0  0  0  0  0  0
   10.7062  -17.3107   27.9650 C   0  0  0  0  0  0  0  0  0  0  0  0
   10.4971  -16.5592   29.0517 N   0  0  0  0  0  0  0  0  0  0  0  0
   10.1041  -15.3351   28.6749 C   0  0  0  0  0  0  0  0  0  0  0  0
    9.7844  -14.1935   29.3903 C   0  0  0  0  0  0  0  0  0  0  0  0
    9.4325  -13.0510   28.7465 C   0  0  0  0  0  0  0  0  0  0  0  0
    9.3917  -13.0229   27.3708 C   0  0  0  0  0  0  0  0  0  0  0  0
    9.7002  -14.1308   26.6537 C   0  0  0  0  0  0  0  0  0  0  0  0
   10.0601  -15.3031   27.3054 C   0  0  0  0  0  0  0  0  0  0  0  0
   12.4722  -18.4034   26.0140 C   0  0  0  0  0  0  0  0  0  0  0  0
   13.4587  -17.8983   26.8844 O   0  0  0  0  0  0  0  0  0  0  0  0
   12.1236  -19.5881   26.0794 O   0  0  0  0  0  0  0  0  0  0  0  0
  2  3  1  6
  2  1  1  0
  4  5  1  0
  4  2  1  0
  5  6  1  1
  7  5  1  0
  8  7  2  0
  9  7  1  0
 10  9  1  0
 11 12  1  0
 10 11  1  6
 12 16  1  0
 13 12  2  0
 13 14  1  0
 14 15  1  0
 16 15  2  0
 17 19  1  0
 17 10  1  0
 18 17  2  0
 20 31  1  0
 20 19  1  0
 20 21  1  1
 21 22  1  0
 22 23  2  0
 22 30  1  0
 23 24  1  0
 24 25  1  0
 25 26  2  0
 27 26  1  0
 28 27  2  0
 29 30  2  0
 29 28  1  0
 30 25  1  0
 31 32  1  0
 33 31  2  0
M  END
$$$$
