LHW.pdb
     RDKit          3D

 33 35  0  0  1  0  0  0  0  0999 V2000
    6.8956  -12.3987   18.4310 C   0  0  0  0  0  0  0  0  0  0  0  0
    8.0052  -13.2879   18.9465 C   0  0  1  0  0  0  0  0  0  0  0  0
    9.2392  -12.4594   19.1120 C   0  0  0  0  0  0  0  0  0  0  0  0
    7.6442  -13.9412   20.2607 C   0  0  0  0  0  0  0  0  0  0  0  0
    8.7490  -14.8417   20.7618 C   0  0  2  0  0  0  0  0  0  0  0  0
    9.0930  -15.8725   19.8411 N   0  0  0  0  0  0  0  0  0  0  0  0
    8.4294  -15.2902   22.1217 C   0  0  0  0  0  0  0  0  0  0  0  0
    7.4398  -14.8075   22.7310 O   0  0  0  0  0  0  0  0  0  0  0  0
    9.1852  -16.2795   22.8508 N   0  0  0  0  0  0  0  0  0  0  0  0
    8.5505  -17.3571   23.5362 C   0  0  1  0  0  0  0  0  0  0  0  0
    8.4540  -18.6378   22.8065 C   0  0  0  0  0  0  0  0  0  0  0  0
    7.7626  -19.7471   23.4681 C   0  0  0  0  0  0  0  0  0  0  0  0
    6.4759  -20.1728   23.3129 C   0  0  0  0  0  0  0  0  0  0  0  0
    6.2456  -21.2639   24.1006 N   0  0  0  0  0  0  0  0  0  0  0  0
    7.4006  -21.4965   24.7331 C   0  0  0  0  0  0  0  0  0  0  0  0
    8.3228  -20.6063   24.3740 N   0  0  0  0  0  0  0  0  0  0  0  0
    9.1839  -17.5157   24.8921 C   0  0  0  0  0  0  0  0  0  0  0  0
    8.8183  -18.4488   25.6374 O   0  0  0  0  0  0  0  0  0  0  0  0
   10.1827  -16.6281   25.3327 N   0  0  0  0  0  0  0  0  0  0  0  0
   10.1916  -16.1493   26.7316 C   0  0  1  0  0  0  0  0  0  0  0  0
    8.8119  -16.2882   27.3032 C   0  0  0  0  0  0  0  0  0  0  0  0
    7.8737  -15.3153   26.7383 C   0  0  0  0  0  0  0  0  0  0  0  0
    6.6542  -15.6164   26.1154 C   0  0  0  0  0  0  0  0  0  0  0  0
    6.0817  -14.4884   25.6802 N   0  0  0  0  0  0  0  0  0  0  0  0
    6.8663  -13.4467   25.9868 C   0  0  0  0  0  0  0  0  0  0  0  0
    6.7328  -12.0834   25.7847 C   0  0  0  0  0  0  0  0  0  0  0  0
    7.6858  -11.2231   26.2266 C   0  0  0  0  0  0  0  0  0  0  0  0
    8.7961  -11.7061   26.8815 C   0  0  0  0  0  0  0  0  0  0  0  0
    8.9447  -13.0374   27.0875 C   0  0  0  0  0  0  0  0  0  0  0  0
    7.9744  -13.9232   26.6375 C   0  0  0  0  0  0  0  0  0  0  0  0
   11.2008  -16.8027   27.5364 C   0  0  0  0  0  0  0  0  0  0  0  0
   11.9929  -17.7866   26.9116 O   0  0  0  0  0  0  0  0  0  0  0  0
   11.3743  -16.5197   28.7276 O   0  0  0  0  0  0  0  0  0  0  0  0
  2  3  1  1
  2  1  1  0
  4  5  1  0
  4  2  1  0
  5  6  1  6
  7  5  1  0
  8  7  2  0
  9  7  1  0
 10  9  1  0
 11 12  1  0
 10 11  1  6
 12 16  1  0
 13 12  2  0
 13 14  1  0
 14 15  1  0
 16 15  2  0
 17 19  1  0
 17 10  1  0
 18 17  2  0
 20 31  1  0
 20 19  1  0
 20 21  1  1
 21 22  1  0
 22 23  2  0
 22 30  1  0
 23 24  1  0
 24 25  1  0
 25 26  2  0
 27 26  1  0
 28 27  2  0
 29 30  2  0
 29 28  1  0
 30 25  1  0
 31 32  1  0
 33 31  2  0
M  END
$$$$
