LHW.pdb
     RDKit          3D

 33 35  0  0  1  0  0  0  0  0999 V2000
    6.5339  -13.0836   18.5731 C   0  0  0  0  0  0  0  0  0  0  0  0
    7.9371  -13.6225   18.7411 C   0  0  1  0  0  0  0  0  0  0  0  0
    8.8798  -12.4665   18.8488 C   0  0  0  0  0  0  0  0  0  0  0  0
    8.0635  -14.5048   19.9616 C   0  0  0  0  0  0  0  0  0  0  0  0
    9.4947  -14.9228   20.2059 C   0  0  2  0  0  0  0  0  0  0  0  0
   10.2093  -15.2033   19.0063 N   0  0  0  0  0  0  0  0  0  0  0  0
    9.5236  -15.9821   21.2207 C   0  0  0  0  0  0  0  0  0  0  0  0
    8.7433  -15.9351   22.2069 O   0  0  0  0  0  0  0  0  0  0  0  0
   10.4081  -17.1213   21.1827 N   0  0  0  0  0  0  0  0  0  0  0  0
   10.4464  -18.0801   22.2377 C   0  0  1  0  0  0  0  0  0  0  0  0
   10.9707  -19.4179   21.8949 C   0  0  0  0  0  0  0  0  0  0  0  0
   10.3890  -20.0999   20.7360 C   0  0  0  0  0  0  0  0  0  0  0  0
    9.3931  -19.6812   19.9031 C   0  0  0  0  0  0  0  0  0  0  0  0
    9.1766  -20.6118   18.9277 N   0  0  0  0  0  0  0  0  0  0  0  0
   10.0477  -21.5957   19.1747 C   0  0  0  0  0  0  0  0  0  0  0  0
   10.7837  -21.3158   20.2481 N   0  0  0  0  0  0  0  0  0  0  0  0
   11.1484  -17.4755   23.4236 C   0  0  0  0  0  0  0  0  0  0  0  0
   12.1063  -16.6953   23.2405 O   0  0  0  0  0  0  0  0  0  0  0  0
   10.7410  -17.7759   24.7364 N   0  0  0  0  0  0  0  0  0  0  0  0
    9.9466  -16.8002   25.5131 C   0  0  1  0  0  0  0  0  0  0  0  0
    8.7623  -16.3757   24.6966 C   0  0  0  0  0  0  0  0  0  0  0  0
    7.9446  -15.3709   25.3806 C   0  0  0  0  0  0  0  0  0  0  0  0
    6.5537  -15.4208   25.5501 C   0  0  0  0  0  0  0  0  0  0  0  0
    6.1382  -14.3161   26.1796 N   0  0  0  0  0  0  0  0  0  0  0  0
    7.1923  -13.5310   26.4388 C   0  0  0  0  0  0  0  0  0  0  0  0
    7.3137  -12.3082   27.0771 C   0  0  0  0  0  0  0  0  0  0  0  0
    8.5314  -11.7277   27.2315 C   0  0  0  0  0  0  0  0  0  0  0  0
    9.6577  -12.3566   26.7508 C   0  0  0  0  0  0  0  0  0  0  0  0
    9.5583  -13.5533   26.1223 C   0  0  0  0  0  0  0  0  0  0  0  0
    8.3161  -14.1525   25.9600 C   0  0  0  0  0  0  0  0  0  0  0  0
    9.5775  -17.2988   26.8201 C   0  0  0  0  0  0  0  0  0  0  0  0
    8.8145  -18.4824   26.8719 O   0  0  0  0  0  0  0  0  0  0  0  0
    9.9110  -16.7203   27.8609 O   0  0  0  0  0  0  0  0  0  0  0  0
  2  3  1  1
  2  1  1  0
  4  5  1  0
  4  2  1  0
  5  6  1  6
  7  5  1  0
  8  7  2  0
  9  7  1  0
 10  9  1  0
 11 12  1  0
 10 11  1  6
 12 16  1  0
 13 12  2  0
 13 14  1  0
 14 15  1  0
 16 15  2  0
 17 19  1  0
 17 10  1  0
 18 17  2  0
 20 31  1  0
 20 19  1  0
 20 21  1  6
 21 22  1  0
 22 23  2  0
 22 30  1  0
 23 24  1  0
 24 25  1  0
 25 26  2  0
 27 26  1  0
 28 27  2  0
 29 30  2  0
 29 28  1  0
 30 25  1  0
 31 32  1  0
 33 31  2  0
M  END
$$$$
