LHW.pdb
     RDKit          3D

 33 35  0  0  1  0  0  0  0  0999 V2000
    7.8893  -11.7507   19.0775 C   0  0  0  0  0  0  0  0  0  0  0  0
    8.5676  -13.0732   18.7973 C   0  0  1  0  0  0  0  0  0  0  0  0
   10.0438  -12.8442   18.7272 C   0  0  0  0  0  0  0  0  0  0  0  0
    8.2569  -14.1056   19.8564 C   0  0  0  0  0  0  0  0  0  0  0  0
    9.1159  -15.3394   19.7063 C   0  0  2  0  0  0  0  0  0  0  0  0
    8.8504  -16.0652   18.5099 N   0  0  0  0  0  0  0  0  0  0  0  0
    9.0600  -16.1226   20.9457 C   0  0  0  0  0  0  0  0  0  0  0  0
    7.9699  -16.2589   21.5595 O   0  0  0  0  0  0  0  0  0  0  0  0
   10.1966  -16.7774   21.5463 N   0  0  0  0  0  0  0  0  0  0  0  0
   10.0597  -17.6391   22.6744 C   0  0  1  0  0  0  0  0  0  0  0  0
   10.6051  -19.0045   22.5320 C   0  0  0  0  0  0  0  0  0  0  0  0
    9.9758  -19.8890   21.5481 C   0  0  0  0  0  0  0  0  0  0  0  0
    8.6540  -20.1768   21.3725 C   0  0  0  0  0  0  0  0  0  0  0  0
    8.4966  -21.0287   20.3172 N   0  0  0  0  0  0  0  0  0  0  0  0
    9.7309  -21.2542   19.8547 C   0  0  0  0  0  0  0  0  0  0  0  0
   10.6325  -20.5863   20.5709 N   0  0  0  0  0  0  0  0  0  0  0  0
   10.5875  -16.9350   23.8953 C   0  0  0  0  0  0  0  0  0  0  0  0
   11.7038  -16.3769   23.8501 O   0  0  0  0  0  0  0  0  0  0  0  0
    9.8412  -16.8957   25.0875 N   0  0  0  0  0  0  0  0  0  0  0  0
   10.4681  -16.4374   26.3457 C   0  0  1  0  0  0  0  0  0  0  0  0
    9.9585  -15.0653   26.6729 C   0  0  0  0  0  0  0  0  0  0  0  0
    8.4954  -14.9947   26.6543 C   0  0  0  0  0  0  0  0  0  0  0  0
    7.6214  -16.0880   26.5706 C   0  0  0  0  0  0  0  0  0  0  0  0
    6.3578  -15.6506   26.5321 N   0  0  0  0  0  0  0  0  0  0  0  0
    6.3505  -14.3121   26.5876 C   0  0  0  0  0  0  0  0  0  0  0  0
    5.3249  -13.3818   26.6003 C   0  0  0  0  0  0  0  0  0  0  0  0
    5.5976  -12.0547   26.6890 C   0  0  0  0  0  0  0  0  0  0  0  0
    6.9033  -11.6257   26.7671 C   0  0  0  0  0  0  0  0  0  0  0  0
    7.9203  -12.5215   26.7550 C   0  0  0  0  0  0  0  0  0  0  0  0
    7.6490  -13.8804   26.6635 C   0  0  0  0  0  0  0  0  0  0  0  0
   10.2875  -17.3768   27.4311 C   0  0  0  0  0  0  0  0  0  0  0  0
   11.0302  -17.1589   28.6087 O   0  0  0  0  0  0  0  0  0  0  0  0
    9.5150  -18.3385   27.3444 O   0  0  0  0  0  0  0  0  0  0  0  0
  2  3  1  1
  2  1  1  0
  4  5  1  0
  4  2  1  0
  5  6  1  6
  7  5  1  0
  8  7  2  0
  9  7  1  0
 10  9  1  0
 11 12  1  0
 10 11  1  6
 12 16  1  0
 13 12  2  0
 13 14  1  0
 14 15  1  0
 16 15  2  0
 17 19  1  0
 17 10  1  0
 18 17  2  0
 20 31  1  0
 20 19  1  0
 20 21  1  1
 21 22  1  0
 22 23  2  0
 22 30  1  0
 23 24  1  0
 24 25  1  0
 25 26  2  0
 27 26  1  0
 28 27  2  0
 29 30  2  0
 29 28  1  0
 30 25  1  0
 31 32  1  0
 33 31  2  0
M  END
$$$$
