LHW.pdb
     RDKit          3D

 33 35  0  0  1  0  0  0  0  0999 V2000
    7.0097  -11.9394   20.3902 C   0  0  0  0  0  0  0  0  0  0  0  0
    7.5730  -13.2267   19.8305 C   0  0  1  0  0  0  0  0  0  0  0  0
    8.8000  -12.9034   19.0389 C   0  0  0  0  0  0  0  0  0  0  0  0
    7.9101  -14.2190   20.9195 C   0  0  0  0  0  0  0  0  0  0  0  0
    8.4515  -15.5110   20.3533 C   0  0  2  0  0  0  0  0  0  0  0  0
    7.5763  -16.1192   19.4085 N   0  0  0  0  0  0  0  0  0  0  0  0
    8.8920  -16.3754   21.4539 C   0  0  0  0  0  0  0  0  0  0  0  0
    8.0587  -17.0881   22.0713 O   0  0  0  0  0  0  0  0  0  0  0  0
   10.2573  -16.4824   21.9079 N   0  0  0  0  0  0  0  0  0  0  0  0
   10.6381  -17.3881   22.9416 C   0  0  1  0  0  0  0  0  0  0  0  0
   11.8756  -18.1630   22.7173 C   0  0  0  0  0  0  0  0  0  0  0  0
   11.9212  -19.0491   21.5515 C   0  0  0  0  0  0  0  0  0  0  0  0
   11.4142  -20.3073   21.4080 C   0  0  0  0  0  0  0  0  0  0  0  0
   11.6511  -20.7662   20.1441 N   0  0  0  0  0  0  0  0  0  0  0  0
   12.3039  -19.7780   19.5232 C   0  0  0  0  0  0  0  0  0  0  0  0
   12.4782  -18.7415   20.3401 N   0  0  0  0  0  0  0  0  0  0  0  0
   10.6509  -16.6543   24.2554 C   0  0  0  0  0  0  0  0  0  0  0  0
   11.3421  -15.6212   24.3772 O   0  0  0  0  0  0  0  0  0  0  0  0
    9.8950  -17.1148   25.3491 N   0  0  0  0  0  0  0  0  0  0  0  0
   10.0676  -16.5054   26.6852 C   0  0  1  0  0  0  0  0  0  0  0  0
    8.7256  -16.3873   27.3443 C   0  0  0  0  0  0  0  0  0  0  0  0
    7.8165  -15.5083   26.6047 C   0  0  0  0  0  0  0  0  0  0  0  0
    6.7798  -15.9248   25.7574 C   0  0  0  0  0  0  0  0  0  0  0  0
    6.1859  -14.8556   25.2157 N   0  0  0  0  0  0  0  0  0  0  0  0
    6.7808  -13.7428   25.6659 C   0  0  0  0  0  0  0  0  0  0  0  0
    6.5446  -12.3977   25.4375 C   0  0  0  0  0  0  0  0  0  0  0  0
    7.2970  -11.4501   26.0537 C   0  0  0  0  0  0  0  0  0  0  0  0
    8.3043  -11.8253   26.9136 C   0  0  0  0  0  0  0  0  0  0  0  0
    8.5509  -13.1372   27.1486 C   0  0  0  0  0  0  0  0  0  0  0  0
    7.7861  -14.1118   26.5212 C   0  0  0  0  0  0  0  0  0  0  0  0
   11.0320  -17.2134   27.4987 C   0  0  0  0  0  0  0  0  0  0  0  0
   11.5828  -18.3977   26.9698 O   0  0  0  0  0  0  0  0  0  0  0  0
   11.3705  -16.8078   28.6168 O   0  0  0  0  0  0  0  0  0  0  0  0
  2  3  1  1
  2  1  1  0
  4  5  1  0
  4  2  1  0
  5  6  1  1
  7  5  1  0
  8  7  2  0
  9  7  1  0
 10  9  1  0
 11 12  1  0
 10 11  1  6
 12 16  1  0
 13 12  2  0
 13 14  1  0
 14 15  1  0
 16 15  2  0
 17 19  1  0
 17 10  1  0
 18 17  2  0
 20 31  1  0
 20 19  1  0
 20 21  1  1
 21 22  1  0
 22 23  2  0
 22 30  1  0
 23 24  1  0
 24 25  1  0
 25 26  2  0
 27 26  1  0
 28 27  2  0
 29 30  2  0
 29 28  1  0
 30 25  1  0
 31 32  1  0
 33 31  2  0
M  END
$$$$
