LHW.pdb
     RDKit          3D

 33 35  0  0  1  0  0  0  0  0999 V2000
    7.2524  -11.7140   20.7311 C   0  0  0  0  0  0  0  0  0  0  0  0
    7.5299  -13.0627   20.1053 C   0  0  1  0  0  0  0  0  0  0  0  0
    8.6481  -12.9096   19.1240 C   0  0  0  0  0  0  0  0  0  0  0  0
    7.8918  -14.1041   21.1390 C   0  0  0  0  0  0  0  0  0  0  0  0
    8.0753  -15.4697   20.5194 C   0  0  2  0  0  0  0  0  0  0  0  0
    6.9074  -15.9468   19.8583 N   0  0  0  0  0  0  0  0  0  0  0  0
    8.6540  -16.3795   21.5143 C   0  0  0  0  0  0  0  0  0  0  0  0
    7.9092  -17.1401   22.1853 O   0  0  0  0  0  0  0  0  0  0  0  0
   10.0644  -16.4807   21.8012 N   0  0  0  0  0  0  0  0  0  0  0  0
   10.5680  -17.3666   22.7988 C   0  0  1  0  0  0  0  0  0  0  0  0
   11.8769  -17.9940   22.5243 C   0  0  0  0  0  0  0  0  0  0  0  0
   12.3421  -19.0297   23.4502 C   0  0  0  0  0  0  0  0  0  0  0  0
   11.6421  -20.0558   24.0140 C   0  0  0  0  0  0  0  0  0  0  0  0
   12.4675  -20.8112   24.7966 N   0  0  0  0  0  0  0  0  0  0  0  0
   13.6713  -20.2366   24.7026 C   0  0  0  0  0  0  0  0  0  0  0  0
   13.6248  -19.1716   23.9053 N   0  0  0  0  0  0  0  0  0  0  0  0
   10.5337  -16.6716   24.1332 C   0  0  0  0  0  0  0  0  0  0  0  0
   11.0023  -15.5188   24.2396 O   0  0  0  0  0  0  0  0  0  0  0  0
    9.9807  -17.3015   25.2633 N   0  0  0  0  0  0  0  0  0  0  0  0
   10.0978  -16.6765   26.5982 C   0  0  1  0  0  0  0  0  0  0  0  0
    8.7434  -16.6427   27.2414 C   0  0  0  0  0  0  0  0  0  0  0  0
    7.7814  -15.8476   26.4744 C   0  0  0  0  0  0  0  0  0  0  0  0
    6.7857  -16.3557   25.6279 C   0  0  0  0  0  0  0  0  0  0  0  0
    6.1225  -15.3439   25.0571 N   0  0  0  0  0  0  0  0  0  0  0  0
    6.6320  -14.1818   25.4870 C   0  0  0  0  0  0  0  0  0  0  0  0
    6.3028  -12.8624   25.2262 C   0  0  0  0  0  0  0  0  0  0  0  0
    6.9793  -11.8501   25.8271 C   0  0  0  0  0  0  0  0  0  0  0  0
    8.0021  -12.1333   26.7038 C   0  0  0  0  0  0  0  0  0  0  0  0
    8.3393  -13.4186   26.9706 C   0  0  0  0  0  0  0  0  0  0  0  0
    7.6523  -14.4590   26.3590 C   0  0  0  0  0  0  0  0  0  0  0  0
   11.0965  -17.3170   27.4262 C   0  0  0  0  0  0  0  0  0  0  0  0
   11.7292  -18.4652   26.9093 O   0  0  0  0  0  0  0  0  0  0  0  0
   11.3947  -16.8858   28.5462 O   0  0  0  0  0  0  0  0  0  0  0  0
  2  3  1  6
  2  1  1  0
  4  5  1  0
  4  2  1  0
  5  6  1  1
  7  5  1  0
  8  7  2  0
  9  7  1  0
 10  9  1  0
 11 12  1  0
 10 11  1  6
 12 16  1  0
 13 12  2  0
 13 14  1  0
 14 15  1  0
 16 15  2  0
 17 19  1  0
 17 10  1  0
 18 17  2  0
 20 31  1  0
 20 19  1  0
 20 21  1  1
 21 22  1  0
 22 23  2  0
 22 30  1  0
 23 24  1  0
 24 25  1  0
 25 26  2  0
 27 26  1  0
 28 27  2  0
 29 30  2  0
 29 28  1  0
 30 25  1  0
 31 32  1  0
 33 31  2  0
M  END
$$$$
