LHW.pdb
     RDKit          3D

 33 35  0  0  1  0  0  0  0  0999 V2000
   15.6822  -13.6454   17.2052 C   0  0  0  0  0  0  0  0  0  0  0  0
   15.1755  -14.8616   17.9480 C   0  0  1  0  0  0  0  0  0  0  0  0
   16.3388  -15.5382   18.6003 C   0  0  0  0  0  0  0  0  0  0  0  0
   14.1409  -14.5003   18.9888 C   0  0  0  0  0  0  0  0  0  0  0  0
   13.5555  -15.7274   19.6477 C   0  0  2  0  0  0  0  0  0  0  0  0
   13.1594  -16.7290   18.7158 N   0  0  0  0  0  0  0  0  0  0  0  0
   12.5262  -15.3167   20.6092 C   0  0  0  0  0  0  0  0  0  0  0  0
   12.7694  -14.4112   21.4484 O   0  0  0  0  0  0  0  0  0  0  0  0
   11.2027  -15.8870   20.6773 N   0  0  0  0  0  0  0  0  0  0  0  0
   10.2055  -15.3720   21.5572 C   0  0  1  0  0  0  0  0  0  0  0  0
    8.8207  -15.3484   21.0436 C   0  0  0  0  0  0  0  0  0  0  0  0
    8.5665  -14.6050   19.8070 C   0  0  0  0  0  0  0  0  0  0  0  0
    9.1335  -13.4436   19.3705 C   0  0  0  0  0  0  0  0  0  0  0  0
    8.6319  -13.1094   18.1453 N   0  0  0  0  0  0  0  0  0  0  0  0
    7.7586  -14.0757   17.8426 C   0  0  0  0  0  0  0  0  0  0  0  0
    7.7001  -14.9810   18.8168 N   0  0  0  0  0  0  0  0  0  0  0  0
   10.3133  -16.0741   22.8840 C   0  0  0  0  0  0  0  0  0  0  0  0
   10.9698  -17.1332   22.9689 O   0  0  0  0  0  0  0  0  0  0  0  0
    9.6854  -15.5545   24.0309 N   0  0  0  0  0  0  0  0  0  0  0  0
    9.8741  -16.2060   25.3448 C   0  0  1  0  0  0  0  0  0  0  0  0
    9.4706  -15.2483   26.4263 C   0  0  0  0  0  0  0  0  0  0  0  0
    8.0869  -14.7907   26.2782 C   0  0  0  0  0  0  0  0  0  0  0  0
    6.9808  -15.6009   25.9848 C   0  0  0  0  0  0  0  0  0  0  0  0
    5.8841  -14.8423   25.8789 N   0  0  0  0  0  0  0  0  0  0  0  0
    6.2102  -13.5603   26.0901 C   0  0  0  0  0  0  0  0  0  0  0  0
    5.4610  -12.3961   26.1151 C   0  0  0  0  0  0  0  0  0  0  0  0
    6.0488  -11.2021   26.3842 C   0  0  0  0  0  0  0  0  0  0  0  0
    7.4011  -11.1437   26.6348 C   0  0  0  0  0  0  0  0  0  0  0  0
    8.1510  -12.2726   26.6137 C   0  0  0  0  0  0  0  0  0  0  0  0
    7.5567  -13.4970   26.3382 C   0  0  0  0  0  0  0  0  0  0  0  0
    9.1908  -17.4779   25.4379 C   0  0  0  0  0  0  0  0  0  0  0  0
    8.3296  -17.8312   24.3799 O   0  0  0  0  0  0  0  0  0  0  0  0
    9.3462  -18.2368   26.4018 O   0  0  0  0  0  0  0  0  0  0  0  0
  2  3  1  1
  2  1  1  0
  4  5  1  0
  4  2  1  0
  5  6  1  6
  7  5  1  0
  8  7  2  0
  9  7  1  0
 10  9  1  0
 11 12  1  0
 10 11  1  6
 12 16  1  0
 13 12  2  0
 13 14  1  0
 14 15  1  0
 16 15  2  0
 17 19  1  0
 17 10  1  0
 18 17  2  0
 20 31  1  0
 20 19  1  0
 20 21  1  1
 21 22  1  0
 22 23  2  0
 22 30  1  0
 23 24  1  0
 24 25  1  0
 25 26  2  0
 27 26  1  0
 28 27  2  0
 29 30  2  0
 29 28  1  0
 30 25  1  0
 31 32  1  0
 33 31  2  0
M  END
$$$$
