LHW.pdb
     RDKit          3D

 33 35  0  0  1  0  0  0  0  0999 V2000
    7.3042  -12.9941   17.7642 C   0  0  0  0  0  0  0  0  0  0  0  0
    8.3643  -13.7659   18.5181 C   0  0  1  0  0  0  0  0  0  0  0  0
    9.4451  -12.8152   18.9238 C   0  0  0  0  0  0  0  0  0  0  0  0
    7.8023  -14.4571   19.7389 C   0  0  0  0  0  0  0  0  0  0  0  0
    8.8820  -15.1454   20.5408 C   0  0  2  0  0  0  0  0  0  0  0  0
    9.7763  -15.9090   19.7373 N   0  0  0  0  0  0  0  0  0  0  0  0
    8.2682  -15.8659   21.6619 C   0  0  0  0  0  0  0  0  0  0  0  0
    7.2852  -15.3695   22.2708 O   0  0  0  0  0  0  0  0  0  0  0  0
    8.7146  -17.1495   22.1461 N   0  0  0  0  0  0  0  0  0  0  0  0
    8.0175  -17.8503   23.1742 C   0  0  1  0  0  0  0  0  0  0  0  0
    7.8704  -19.3092   22.9955 C   0  0  0  0  0  0  0  0  0  0  0  0
    7.1661  -20.0549   24.0417 C   0  0  0  0  0  0  0  0  0  0  0  0
    5.8650  -20.4629   24.0785 C   0  0  0  0  0  0  0  0  0  0  0  0
    5.6251  -21.1592   25.2282 N   0  0  0  0  0  0  0  0  0  0  0  0
    6.7889  -21.1708   25.8867 C   0  0  0  0  0  0  0  0  0  0  0  0
    7.7255  -20.5191   25.2011 N   0  0  0  0  0  0  0  0  0  0  0  0
    8.6210  -17.4934   24.5059 C   0  0  0  0  0  0  0  0  0  0  0  0
    8.1772  -18.0245   25.5455 O   0  0  0  0  0  0  0  0  0  0  0  0
    9.6788  -16.5701   24.5970 N   0  0  0  0  0  0  0  0  0  0  0  0
   10.3163  -16.2919   25.9018 C   0  0  1  0  0  0  0  0  0  0  0  0
    9.8737  -14.9421   26.3829 C   0  0  0  0  0  0  0  0  0  0  0  0
    8.4151  -14.8064   26.3987 C   0  0  0  0  0  0  0  0  0  0  0  0
    7.4915  -15.8500   26.2445 C   0  0  0  0  0  0  0  0  0  0  0  0
    6.2484  -15.3562   26.2661 N   0  0  0  0  0  0  0  0  0  0  0  0
    6.3024  -14.0276   26.4292 C   0  0  0  0  0  0  0  0  0  0  0  0
    5.3202  -13.0575   26.5367 C   0  0  0  0  0  0  0  0  0  0  0  0
    5.6538  -11.7551   26.7265 C   0  0  0  0  0  0  0  0  0  0  0  0
    6.9787  -11.3914   26.8132 C   0  0  0  0  0  0  0  0  0  0  0  0
    7.9539  -12.3268   26.7092 C   0  0  0  0  0  0  0  0  0  0  0  0
    7.6201  -13.6606   26.5141 C   0  0  0  0  0  0  0  0  0  0  0  0
   10.0783  -17.3391   26.8713 C   0  0  0  0  0  0  0  0  0  0  0  0
   10.8684  -17.3355   28.0381 O   0  0  0  0  0  0  0  0  0  0  0  0
    9.2184  -18.2107   26.6974 O   0  0  0  0  0  0  0  0  0  0  0  0
  2  3  1  1
  2  1  1  0
  4  5  1  0
  4  2  1  0
  5  6  1  6
  7  5  1  0
  8  7  2  0
  9  7  1  0
 10  9  1  0
 11 12  1  0
 10 11  1  6
 12 16  1  0
 13 12  2  0
 13 14  1  0
 14 15  1  0
 16 15  2  0
 17 19  1  0
 17 10  1  0
 18 17  2  0
 20 31  1  0
 20 19  1  0
 20 21  1  1
 21 22  1  0
 22 23  2  0
 22 30  1  0
 23 24  1  0
 24 25  1  0
 25 26  2  0
 27 26  1  0
 28 27  2  0
 29 30  2  0
 29 28  1  0
 30 25  1  0
 31 32  1  0
 33 31  2  0
M  END
$$$$
