LHW.pdb
     RDKit          3D

 33 35  0  0  1  0  0  0  0  0999 V2000
    7.1152  -12.2331   19.5640 C   0  0  0  0  0  0  0  0  0  0  0  0
    7.7982  -13.5205   19.1594 C   0  0  1  0  0  0  0  0  0  0  0  0
    9.1039  -13.1824   18.5132 C   0  0  0  0  0  0  0  0  0  0  0  0
    8.0302  -14.4349   20.3402 C   0  0  0  0  0  0  0  0  0  0  0  0
    8.8242  -15.6606   19.9531 C   0  0  2  0  0  0  0  0  0  0  0  0
    8.2060  -16.4270   18.9240 N   0  0  0  0  0  0  0  0  0  0  0  0
    9.1868  -16.4054   21.1641 C   0  0  0  0  0  0  0  0  0  0  0  0
    8.3632  -17.1985   21.6897 O   0  0  0  0  0  0  0  0  0  0  0  0
   10.4614  -16.3015   21.8321 N   0  0  0  0  0  0  0  0  0  0  0  0
   10.8450  -17.2049   22.8667 C   0  0  1  0  0  0  0  0  0  0  0  0
   12.1988  -17.7872   22.7661 C   0  0  0  0  0  0  0  0  0  0  0  0
   12.4773  -18.6683   21.6292 C   0  0  0  0  0  0  0  0  0  0  0  0
   11.6016  -19.3450   20.8316 C   0  0  0  0  0  0  0  0  0  0  0  0
   12.2814  -20.0294   19.8654 N   0  0  0  0  0  0  0  0  0  0  0  0
   13.5736  -19.7624   20.0824 C   0  0  0  0  0  0  0  0  0  0  0  0
   13.7188  -18.9525   21.1288 N   0  0  0  0  0  0  0  0  0  0  0  0
   10.5981  -16.5543   24.2012 C   0  0  0  0  0  0  0  0  0  0  0  0
   11.1381  -15.4587   24.4616 O   0  0  0  0  0  0  0  0  0  0  0  0
    9.7672  -17.1623   25.1601 N   0  0  0  0  0  0  0  0  0  0  0  0
    9.8850  -16.7978   26.5883 C   0  0  1  0  0  0  0  0  0  0  0  0
    8.5234  -16.8388   27.2158 C   0  0  0  0  0  0  0  0  0  0  0  0
    7.6040  -15.8678   26.6175 C   0  0  0  0  0  0  0  0  0  0  0  0
    6.5342  -16.1685   25.7626 C   0  0  0  0  0  0  0  0  0  0  0  0
    5.9391  -15.0358   25.3725 N   0  0  0  0  0  0  0  0  0  0  0  0
    6.5652  -13.9914   25.9312 C   0  0  0  0  0  0  0  0  0  0  0  0
    6.3421  -12.6261   25.8727 C   0  0  0  0  0  0  0  0  0  0  0  0
    7.1283  -11.7673   26.5711 C   0  0  0  0  0  0  0  0  0  0  0  0
    8.1574  -12.2537   27.3454 C   0  0  0  0  0  0  0  0  0  0  0  0
    8.3916  -13.5869   27.4142 C   0  0  0  0  0  0  0  0  0  0  0  0
    7.5921  -14.4710   26.7018 C   0  0  0  0  0  0  0  0  0  0  0  0
   10.8520  -17.6121   27.2919 C   0  0  0  0  0  0  0  0  0  0  0  0
   11.1491  -17.2618   28.6241 O   0  0  0  0  0  0  0  0  0  0  0  0
   11.4049  -18.5813   26.7588 O   0  0  0  0  0  0  0  0  0  0  0  0
  2  3  1  1
  2  1  1  0
  4  5  1  0
  4  2  1  0
  5  6  1  6
  7  5  1  0
  8  7  2  0
  9  7  1  0
 10  9  1  0
 11 12  1  0
 10 11  1  6
 12 16  1  0
 13 12  2  0
 13 14  1  0
 14 15  1  0
 16 15  2  0
 17 19  1  0
 17 10  1  0
 18 17  2  0
 20 31  1  0
 20 19  1  0
 20 21  1  1
 21 22  1  0
 22 23  2  0
 22 30  1  0
 23 24  1  0
 24 25  1  0
 25 26  2  0
 27 26  1  0
 28 27  2  0
 29 30  2  0
 29 28  1  0
 30 25  1  0
 31 32  1  0
 33 31  2  0
M  END
$$$$
