LHW.pdb
     RDKit          3D

 33 35  0  0  1  0  0  0  0  0999 V2000
    7.1880  -12.3853   19.4015 C   0  0  0  0  0  0  0  0  0  0  0  0
    7.7434  -13.6947   18.8869 C   0  0  1  0  0  0  0  0  0  0  0  0
    8.7570  -13.3970   17.8283 C   0  0  0  0  0  0  0  0  0  0  0  0
    8.3753  -14.5146   19.9880 C   0  0  0  0  0  0  0  0  0  0  0  0
    8.8918  -15.8388   19.4757 C   0  0  2  0  0  0  0  0  0  0  0  0
    7.9110  -16.5845   18.7612 N   0  0  0  0  0  0  0  0  0  0  0  0
    9.5570  -16.5555   20.5695 C   0  0  0  0  0  0  0  0  0  0  0  0
    8.9333  -17.4308   21.2241 O   0  0  0  0  0  0  0  0  0  0  0  0
   10.9233  -16.3326   20.9759 N   0  0  0  0  0  0  0  0  0  0  0  0
   11.4999  -17.0179   22.0857 C   0  0  1  0  0  0  0  0  0  0  0  0
   12.8858  -17.5000   21.9160 C   0  0  0  0  0  0  0  0  0  0  0  0
   13.1454  -18.4583   20.8386 C   0  0  0  0  0  0  0  0  0  0  0  0
   12.2562  -19.1079   20.0335 C   0  0  0  0  0  0  0  0  0  0  0  0
   12.9231  -19.8917   19.1363 N   0  0  0  0  0  0  0  0  0  0  0  0
   14.2212  -19.7121   19.4026 C   0  0  0  0  0  0  0  0  0  0  0  0
   14.3821  -18.8615   20.4138 N   0  0  0  0  0  0  0  0  0  0  0  0
   11.3328  -16.1758   23.3218 C   0  0  0  0  0  0  0  0  0  0  0  0
   11.4774  -14.9375   23.2477 O   0  0  0  0  0  0  0  0  0  0  0  0
   11.0154  -16.7632   24.5603 N   0  0  0  0  0  0  0  0  0  0  0  0
    9.9377  -16.1979   25.4001 C   0  0  1  0  0  0  0  0  0  0  0  0
    8.7370  -15.9351   24.5407 C   0  0  0  0  0  0  0  0  0  0  0  0
    7.6532  -15.2841   25.2808 C   0  0  0  0  0  0  0  0  0  0  0  0
    6.4061  -15.8513   25.5791 C   0  0  0  0  0  0  0  0  0  0  0  0
    5.6497  -14.9576   26.2261 N   0  0  0  0  0  0  0  0  0  0  0  0
    6.3387  -13.8182   26.3735 C   0  0  0  0  0  0  0  0  0  0  0  0
    6.0316  -12.6106   26.9775 C   0  0  0  0  0  0  0  0  0  0  0  0
    6.9413  -11.6031   27.0088 C   0  0  0  0  0  0  0  0  0  0  0  0
    8.1807  -11.7792   26.4364 C   0  0  0  0  0  0  0  0  0  0  0  0
    8.4989  -12.9538   25.8397 C   0  0  0  0  0  0  0  0  0  0  0  0
    7.5732  -13.9883   25.8031 C   0  0  0  0  0  0  0  0  0  0  0  0
    9.6360  -17.0248   26.5483 C   0  0  0  0  0  0  0  0  0  0  0  0
    9.6898  -18.4221   26.3742 O   0  0  0  0  0  0  0  0  0  0  0  0
    9.3408  -16.5394   27.6467 O   0  0  0  0  0  0  0  0  0  0  0  0
  2  3  1  6
  2  1  1  0
  4  5  1  0
  4  2  1  0
  5  6  1  1
  7  5  1  0
  8  7  2  0
  9  7  1  0
 10  9  1  0
 11 12  1  0
 10 11  1  6
 12 16  1  0
 13 12  2  0
 13 14  1  0
 14 15  1  0
 16 15  2  0
 17 19  1  0
 17 10  1  0
 18 17  2  0
 20 31  1  0
 20 19  1  0
 20 21  1  6
 21 22  1  0
 22 23  2  0
 22 30  1  0
 23 24  1  0
 24 25  1  0
 25 26  2  0
 27 26  1  0
 28 27  2  0
 29 30  2  0
 29 28  1  0
 30 25  1  0
 31 32  1  0
 33 31  2  0
M  END
$$$$
