LHW.pdb
     RDKit          3D

 33 35  0  0  1  0  0  0  0  0999 V2000
    9.4339  -12.1699   18.8980 C   0  0  0  0  0  0  0  0  0  0  0  0
    8.2937  -12.9934   19.4542 C   0  0  1  0  0  0  0  0  0  0  0  0
    7.0200  -12.5273   18.8240 C   0  0  0  0  0  0  0  0  0  0  0  0
    8.4835  -14.4708   19.1985 C   0  0  0  0  0  0  0  0  0  0  0  0
    9.7008  -15.0117   19.9113 C   0  0  2  0  0  0  0  0  0  0  0  0
   10.6003  -15.6955   19.0442 N   0  0  0  0  0  0  0  0  0  0  0  0
    9.2741  -15.7620   21.0978 C   0  0  0  0  0  0  0  0  0  0  0  0
    8.5003  -15.2323   21.9370 O   0  0  0  0  0  0  0  0  0  0  0  0
    9.6836  -17.1126   21.3970 N   0  0  0  0  0  0  0  0  0  0  0  0
    9.1753  -17.8208   22.5257 C   0  0  1  0  0  0  0  0  0  0  0  0
    9.0424  -19.2849   22.3811 C   0  0  0  0  0  0  0  0  0  0  0  0
    8.1007  -19.7864   21.3771 C   0  0  0  0  0  0  0  0  0  0  0  0
    7.2804  -19.0856   20.5424 C   0  0  0  0  0  0  0  0  0  0  0  0
    6.5859  -19.9439   19.7392 N   0  0  0  0  0  0  0  0  0  0  0  0
    6.9913  -21.1684   20.0921 C   0  0  0  0  0  0  0  0  0  0  0  0
    7.8951  -21.1033   21.0673 N   0  0  0  0  0  0  0  0  0  0  0  0
    9.9693  -17.4345   23.7444 C   0  0  0  0  0  0  0  0  0  0  0  0
   11.2155  -17.3860   23.6778 O   0  0  0  0  0  0  0  0  0  0  0  0
    9.3280  -17.1265   24.9583 N   0  0  0  0  0  0  0  0  0  0  0  0
   10.1233  -16.7760   26.1546 C   0  0  1  0  0  0  0  0  0  0  0  0
    9.8707  -15.3396   26.5044 C   0  0  0  0  0  0  0  0  0  0  0  0
    8.4545  -14.9805   26.3981 C   0  0  0  0  0  0  0  0  0  0  0  0
    7.3861  -15.8801   26.2753 C   0  0  0  0  0  0  0  0  0  0  0  0
    6.2393  -15.2017   26.1567 N   0  0  0  0  0  0  0  0  0  0  0  0
    6.4960  -13.8875   26.1962 C   0  0  0  0  0  0  0  0  0  0  0  0
    5.6776  -12.7721   26.1372 C   0  0  0  0  0  0  0  0  0  0  0  0
    6.2041  -11.5237   26.2266 C   0  0  0  0  0  0  0  0  0  0  0  0
    7.5627  -11.3608   26.3771 C   0  0  0  0  0  0  0  0  0  0  0  0
    8.3796  -12.4407   26.4358 C   0  0  0  0  0  0  0  0  0  0  0  0
    7.8483  -13.7204   26.3441 C   0  0  0  0  0  0  0  0  0  0  0  0
    9.8846  -17.6740   27.2635 C   0  0  0  0  0  0  0  0  0  0  0  0
   10.7554  -17.5876   28.3680 O   0  0  0  0  0  0  0  0  0  0  0  0
    8.9566  -18.4913   27.2575 O   0  0  0  0  0  0  0  0  0  0  0  0
  2  3  1  6
  2  1  1  0
  4  5  1  0
  4  2  1  0
  5  6  1  6
  7  5  1  0
  8  7  2  0
  9  7  1  0
 10  9  1  0
 11 12  1  0
 10 11  1  6
 12 16  1  0
 13 12  2  0
 13 14  1  0
 14 15  1  0
 16 15  2  0
 17 19  1  0
 17 10  1  0
 18 17  2  0
 20 31  1  0
 20 19  1  0
 20 21  1  1
 21 22  1  0
 22 23  2  0
 22 30  1  0
 23 24  1  0
 24 25  1  0
 25 26  2  0
 27 26  1  0
 28 27  2  0
 29 30  2  0
 29 28  1  0
 30 25  1  0
 31 32  1  0
 33 31  2  0
M  END
$$$$
