LHW.pdb
     RDKit          3D

 33 35  0  0  1  0  0  0  0  0999 V2000
    7.0132  -12.3899   18.2929 C   0  0  0  0  0  0  0  0  0  0  0  0
    8.2251  -13.1925   18.7113 C   0  0  1  0  0  0  0  0  0  0  0  0
    9.2675  -12.2481   19.2193 C   0  0  0  0  0  0  0  0  0  0  0  0
    7.8907  -14.2109   19.7766 C   0  0  0  0  0  0  0  0  0  0  0  0
    9.1309  -14.8767   20.3254 C   0  0  2  0  0  0  0  0  0  0  0  0
   10.0555  -15.2613   19.3125 N   0  0  0  0  0  0  0  0  0  0  0  0
    8.7383  -15.9388   21.2584 C   0  0  0  0  0  0  0  0  0  0  0  0
    7.5746  -15.9626   21.7367 O   0  0  0  0  0  0  0  0  0  0  0  0
    9.6098  -17.0034   21.6927 N   0  0  0  0  0  0  0  0  0  0  0  0
    9.1137  -18.1477   22.3842 C   0  0  1  0  0  0  0  0  0  0  0  0
    9.6194  -19.4609   21.9351 C   0  0  0  0  0  0  0  0  0  0  0  0
    9.2209  -19.9240   20.6035 C   0  0  0  0  0  0  0  0  0  0  0  0
    8.4458  -19.2975   19.6721 C   0  0  0  0  0  0  0  0  0  0  0  0
    8.3474  -20.0687   18.5497 N   0  0  0  0  0  0  0  0  0  0  0  0
    9.0680  -21.1653   18.8070 C   0  0  0  0  0  0  0  0  0  0  0  0
    9.6004  -21.1049   20.0256 N   0  0  0  0  0  0  0  0  0  0  0  0
    9.2909  -17.9403   23.8642 C   0  0  0  0  0  0  0  0  0  0  0  0
    8.4107  -18.3445   24.6526 O   0  0  0  0  0  0  0  0  0  0  0  0
   10.4346  -17.2979   24.3732 N   0  0  0  0  0  0  0  0  0  0  0  0
   10.3082  -16.2886   25.4464 C   0  0  1  0  0  0  0  0  0  0  0  0
    9.4990  -15.1334   24.9364 C   0  0  0  0  0  0  0  0  0  0  0  0
    8.2662  -14.9347   25.7024 C   0  0  0  0  0  0  0  0  0  0  0  0
    7.2872  -15.9076   25.9496 C   0  0  0  0  0  0  0  0  0  0  0  0
    6.2795  -15.3646   26.6418 N   0  0  0  0  0  0  0  0  0  0  0  0
    6.5441  -14.0710   26.8683 C   0  0  0  0  0  0  0  0  0  0  0  0
    5.8528  -13.0786   27.5426 C   0  0  0  0  0  0  0  0  0  0  0  0
    6.3686  -11.8271   27.6477 C   0  0  0  0  0  0  0  0  0  0  0  0
    7.5891  -11.5377   27.0805 C   0  0  0  0  0  0  0  0  0  0  0  0
    8.2798  -12.4958   26.4157 C   0  0  0  0  0  0  0  0  0  0  0  0
    7.7579  -13.7777   26.3034 C   0  0  0  0  0  0  0  0  0  0  0  0
    9.7809  -16.8450   26.6734 C   0  0  0  0  0  0  0  0  0  0  0  0
   10.6351  -16.8720   27.7938 O   0  0  0  0  0  0  0  0  0  0  0  0
    8.6273  -17.2836   26.7521 O   0  0  0  0  0  0  0  0  0  0  0  0
  2  3  1  1
  2  1  1  0
  4  5  1  0
  4  2  1  0
  5  6  1  6
  7  5  1  0
  8  7  2  0
  9  7  1  0
 10  9  1  0
 11 12  1  0
 10 11  1  6
 12 16  1  0
 13 12  2  0
 13 14  1  0
 14 15  1  0
 16 15  2  0
 17 19  1  0
 17 10  1  0
 18 17  2  0
 20 31  1  0
 20 19  1  0
 20 21  1  6
 21 22  1  0
 22 23  2  0
 22 30  1  0
 23 24  1  0
 24 25  1  0
 25 26  2  0
 27 26  1  0
 28 27  2  0
 29 30  2  0
 29 28  1  0
 30 25  1  0
 31 32  1  0
 33 31  2  0
M  END
$$$$
