TAR.pdb
     RDKit          3D

 24 23  0  0  1  0  0  0  0  0999 V2000
    7.0214  -17.2919   18.1582 C   0  0  0  0  0  0  0  0  0  0  0  0
    8.1691  -16.8512   17.3148 C   0  0  1  0  0  0  0  0  0  0  0  0
    7.9016  -17.2379   15.9934 O   0  0  0  0  0  0  0  0  0  0  0  0
    8.4520  -15.3750   17.4106 C   0  0  2  0  0  0  0  0  0  0  0  0
    9.4447  -15.0392   16.4081 N   0  0  0  0  0  0  0  0  0  0  0  0
    8.8747  -14.9675   18.7676 C   0  0  0  0  0  0  0  0  0  0  0  0
    9.8946  -15.4744   19.2952 O   0  0  0  0  0  0  0  0  0  0  0  0
    7.4474  -12.5134   21.2298 C   0  0  0  0  0  0  0  0  0  0  0  0
    8.4043  -13.6362   20.8807 C   0  0  2  0  0  0  0  0  0  0  0  0
    8.1514  -14.0011   19.5125 N   0  0  0  0  0  0  0  0  0  0  0  0
    8.3238  -14.7609   21.8134 C   0  0  0  0  0  0  0  0  0  0  0  0
    7.3994  -15.5962   21.6808 O   0  0  0  0  0  0  0  0  0  0  0  0
   14.9568  -19.0065   21.7847 N   0  0  0  0  0  0  0  0  0  0  0  0
   13.8591  -19.0238   20.8940 C   0  0  0  0  0  0  0  0  0  0  0  0
   14.0500  -19.5441   19.7139 N   0  0  0  0  0  0  0  0  0  0  0  0
   12.5917  -18.5124   21.2140 N   0  0  0  0  0  0  0  0  0  0  0  0
   12.2935  -17.9719   22.5156 C   0  0  0  0  0  0  0  0  0  0  0  0
   10.8724  -17.3976   22.4503 C   0  0  0  0  0  0  0  0  0  0  0  0
   10.4998  -16.7571   23.7532 C   0  0  0  0  0  0  0  0  0  0  0  0
    9.1547  -16.1042   23.7820 C   0  0  2  0  0  0  0  0  0  0  0  0
    9.2500  -14.9509   22.8681 N   0  0  0  0  0  0  0  0  0  0  0  0
    8.8829  -15.6232   25.1646 C   0  0  0  0  0  0  0  0  0  0  0  0
    8.9786  -14.3880   25.3784 O   0  0  0  0  0  0  0  0  0  0  0  0
    8.5370  -16.4150   26.2257 O   0  0  0  0  0  0  0  0  0  0  0  0
  2  1  1  1
  2  3  1  0
  4  5  1  6
  4  2  1  0
  6  7  2  0
  6  4  1  0
  9  8  1  1
  9 11  1  0
  9 10  1  0
 10  6  1  0
 11 21  1  0
 12 11  2  0
 13 14  1  0
 14 15  2  0
 16 14  1  0
 16 17  1  0
 18 17  1  0
 19 18  1  0
 20 19  1  1
 21 20  1  0
 22 24  1  0
 22 20  1  0
 23 22  2  0
M  END
$$$$
