TAR.pdb
     RDKit          3D

 24 23  0  0  1  0  0  0  0  0999 V2000
    6.7738  -16.8554   13.9338 C   0  0  0  0  0  0  0  0  0  0  0  0
    7.3715  -16.4897   15.2498 C   0  0  1  0  0  0  0  0  0  0  0  0
    8.3179  -17.4717   15.5770 O   0  0  0  0  0  0  0  0  0  0  0  0
    7.9778  -15.1111   15.2708 C   0  0  2  0  0  0  0  0  0  0  0  0
    8.9460  -15.0269   14.1944 N   0  0  0  0  0  0  0  0  0  0  0  0
    8.5754  -14.7766   16.5813 C   0  0  0  0  0  0  0  0  0  0  0  0
    9.7608  -15.0976   16.8403 O   0  0  0  0  0  0  0  0  0  0  0  0
    7.2754  -12.8574   19.5351 C   0  0  0  0  0  0  0  0  0  0  0  0
    8.3259  -13.7376   18.8871 C   0  0  2  0  0  0  0  0  0  0  0  0
    7.8391  -14.0895   17.5801 N   0  0  0  0  0  0  0  0  0  0  0  0
    8.6855  -14.8923   19.7110 C   0  0  0  0  0  0  0  0  0  0  0  0
    7.9766  -15.9238   19.6549 O   0  0  0  0  0  0  0  0  0  0  0  0
   13.3789  -19.2586   24.5705 N   0  0  0  0  0  0  0  0  0  0  0  0
   13.1766  -19.9728   23.3673 C   0  0  0  0  0  0  0  0  0  0  0  0
   13.2039  -21.2747   23.4286 N   0  0  0  0  0  0  0  0  0  0  0  0
   12.9533  -19.3556   22.1265 N   0  0  0  0  0  0  0  0  0  0  0  0
   11.8166  -18.5023   21.8924 C   0  0  0  0  0  0  0  0  0  0  0  0
   12.1550  -17.1280   22.4843 C   0  0  0  0  0  0  0  0  0  0  0  0
   11.6023  -16.0310   21.6255 C   0  0  0  0  0  0  0  0  0  0  0  0
   10.1203  -16.0607   21.4273 C   0  0  2  0  0  0  0  0  0  0  0  0
    9.8070  -14.8982   20.5760 N   0  0  0  0  0  0  0  0  0  0  0  0
    9.4547  -15.9037   22.7500 C   0  0  0  0  0  0  0  0  0  0  0  0
    9.1365  -14.7403   23.1046 O   0  0  0  0  0  0  0  0  0  0  0  0
    9.1598  -16.9222   23.6148 O   0  0  0  0  0  0  0  0  0  0  0  0
  2  1  1  6
  2  3  1  0
  4  5  1  6
  4  2  1  0
  6  7  2  0
  6  4  1  0
  9  8  1  1
  9 11  1  0
  9 10  1  0
 10  6  1  0
 11 21  1  0
 12 11  2  0
 13 14  1  0
 14 15  2  0
 16 14  1  0
 16 17  1  0
 18 17  1  0
 19 18  1  0
 20 19  1  1
 21 20  1  0
 22 24  1  0
 22 20  1  0
 23 22  2  0
M  END
$$$$
