TAR.pdb
     RDKit          3D

 24 23  0  0  1  0  0  0  0  0999 V2000
    6.4329  -15.5580   20.0510 C   0  0  0  0  0  0  0  0  0  0  0  0
    7.4441  -14.6432   19.4484 C   0  0  1  0  0  0  0  0  0  0  0  0
    7.1363  -14.5031   18.0872 O   0  0  0  0  0  0  0  0  0  0  0  0
    7.5275  -13.3053   20.1351 C   0  0  2  0  0  0  0  0  0  0  0  0
    8.2955  -12.4109   19.2905 N   0  0  0  0  0  0  0  0  0  0  0  0
    8.0936  -13.4037   21.4975 C   0  0  0  0  0  0  0  0  0  0  0  0
    9.3130  -13.6509   21.6632 O   0  0  0  0  0  0  0  0  0  0  0  0
    6.5927  -12.9826   24.9131 C   0  0  0  0  0  0  0  0  0  0  0  0
    7.6908  -13.4998   24.0048 C   0  0  2  0  0  0  0  0  0  0  0  0
    7.2887  -13.2245   22.6515 N   0  0  0  0  0  0  0  0  0  0  0  0
    8.0125  -14.9065   24.2479 C   0  0  0  0  0  0  0  0  0  0  0  0
    7.2735  -15.7926   23.7596 O   0  0  0  0  0  0  0  0  0  0  0  0
   14.5340  -18.2802   22.2459 N   0  0  0  0  0  0  0  0  0  0  0  0
   14.1227  -19.4760   22.8781 C   0  0  0  0  0  0  0  0  0  0  0  0
   15.0446  -20.3507   23.1687 N   0  0  0  0  0  0  0  0  0  0  0  0
   12.7873  -19.7635   23.2012 N   0  0  0  0  0  0  0  0  0  0  0  0
   11.7345  -18.7961   23.0253 C   0  0  0  0  0  0  0  0  0  0  0  0
   11.3556  -18.2835   24.4207 C   0  0  0  0  0  0  0  0  0  0  0  0
   10.7280  -16.9252   24.3335 C   0  0  0  0  0  0  0  0  0  0  0  0
    9.4921  -16.7391   25.1546 C   0  0  2  0  0  0  0  0  0  0  0  0
    9.1298  -15.3165   25.0158 N   0  0  0  0  0  0  0  0  0  0  0  0
    9.8113  -17.0354   26.5785 C   0  0  0  0  0  0  0  0  0  0  0  0
    9.9961  -16.0578   27.3470 O   0  0  0  0  0  0  0  0  0  0  0  0
    9.9213  -18.2861   27.1225 O   0  0  0  0  0  0  0  0  0  0  0  0
  2  1  1  1
  2  3  1  0
  4  5  1  6
  4  2  1  0
  6  7  2  0
  6  4  1  0
  9  8  1  1
  9 11  1  0
  9 10  1  0
 10  6  1  0
 11 21  1  0
 12 11  2  0
 13 14  1  0
 14 15  2  0
 16 14  1  0
 16 17  1  0
 18 17  1  0
 19 18  1  0
 20 19  1  6
 21 20  1  0
 22 24  1  0
 22 20  1  0
 23 22  2  0
M  END
$$$$
