TAR.pdb
     RDKit          3D

 24 23  0  0  1  0  0  0  0  0999 V2000
    5.9603  -17.7006   23.3752 C   0  0  0  0  0  0  0  0  0  0  0  0
    6.9990  -17.7946   22.3099 C   0  0  1  0  0  0  0  0  0  0  0  0
    6.5024  -18.6336   21.3017 O   0  0  0  0  0  0  0  0  0  0  0  0
    7.4150  -16.4563   21.7579 C   0  0  2  0  0  0  0  0  0  0  0  0
    8.2835  -16.6872   20.6197 N   0  0  0  0  0  0  0  0  0  0  0  0
    8.0545  -15.5983   22.7782 C   0  0  0  0  0  0  0  0  0  0  0  0
    9.2349  -15.8175   23.1445 O   0  0  0  0  0  0  0  0  0  0  0  0
    6.8538  -12.5794   24.6639 C   0  0  0  0  0  0  0  0  0  0  0  0
    7.8529  -13.7007   24.4566 C   0  0  2  0  0  0  0  0  0  0  0  0
    7.3652  -14.5102   23.3723 N   0  0  0  0  0  0  0  0  0  0  0  0
    8.1195  -14.4567   25.6809 C   0  0  0  0  0  0  0  0  0  0  0  0
    7.2395  -15.2329   26.1202 O   0  0  0  0  0  0  0  0  0  0  0  0
   12.1528  -20.8252   28.8755 N   0  0  0  0  0  0  0  0  0  0  0  0
   12.0483  -19.9519   29.9823 C   0  0  0  0  0  0  0  0  0  0  0  0
   12.2601  -20.4538   31.1667 N   0  0  0  0  0  0  0  0  0  0  0  0
   11.7292  -18.5897   29.8688 N   0  0  0  0  0  0  0  0  0  0  0  0
   11.4028  -17.9855   28.6025 C   0  0  0  0  0  0  0  0  0  0  0  0
   11.2190  -16.4833   28.8539 C   0  0  0  0  0  0  0  0  0  0  0  0
   10.7878  -15.7855   27.5995 C   0  0  0  0  0  0  0  0  0  0  0  0
    9.5193  -15.0011   27.7092 C   0  0  2  0  0  0  0  0  0  0  0  0
    9.3361  -14.3510   26.3984 N   0  0  0  0  0  0  0  0  0  0  0  0
    9.6860  -13.9615   28.7620 C   0  0  0  0  0  0  0  0  0  0  0  0
    9.5817  -14.3275   29.9602 O   0  0  0  0  0  0  0  0  0  0  0  0
    9.9433  -12.6370   28.5345 O   0  0  0  0  0  0  0  0  0  0  0  0
  2  1  1  1
  2  3  1  0
  4  5  1  6
  4  2  1  0
  6  7  2  0
  6  4  1  0
  9  8  1  1
  9 11  1  0
  9 10  1  0
 10  6  1  0
 11 21  1  0
 12 11  2  0
 13 14  1  0
 14 15  2  0
 16 14  1  0
 16 17  1  0
 18 17  1  0
 19 18  1  0
 20 19  1  6
 21 20  1  0
 22 24  1  0
 22 20  1  0
 23 22  2  0
M  END
$$$$
