TAR.pdb
     RDKit          3D

 24 23  0  0  1  0  0  0  0  0999 V2000
   10.2273  -12.7812   19.9132 C   0  0  0  0  0  0  0  0  0  0  0  0
    8.8983  -12.9330   19.2548 C   0  0  1  0  0  0  0  0  0  0  0  0
    8.7761  -11.9138   18.2990 O   0  0  0  0  0  0  0  0  0  0  0  0
    8.6841  -14.2920   18.6419 C   0  0  2  0  0  0  0  0  0  0  0  0
    7.3940  -14.2907   17.9795 N   0  0  0  0  0  0  0  0  0  0  0  0
    8.7972  -15.3832   19.6333 C   0  0  0  0  0  0  0  0  0  0  0  0
    7.9225  -15.5285   20.5217 O   0  0  0  0  0  0  0  0  0  0  0  0
   11.2754  -18.1649   20.0866 C   0  0  0  0  0  0  0  0  0  0  0  0
   10.1703  -17.2777   20.6250 C   0  0  2  0  0  0  0  0  0  0  0  0
    9.8849  -16.2934   19.6158 N   0  0  0  0  0  0  0  0  0  0  0  0
   10.4899  -16.7035   21.9325 C   0  0  0  0  0  0  0  0  0  0  0  0
   11.2345  -15.6974   21.9894 O   0  0  0  0  0  0  0  0  0  0  0  0
    4.9665  -12.9712   26.6575 N   0  0  0  0  0  0  0  0  0  0  0  0
    6.1027  -12.2797   26.1783 C   0  0  0  0  0  0  0  0  0  0  0  0
    6.0690  -10.9767   26.2037 N   0  0  0  0  0  0  0  0  0  0  0  0
    7.2486  -12.9201   25.6810 N   0  0  0  0  0  0  0  0  0  0  0  0
    7.3540  -14.3554   25.6187 C   0  0  0  0  0  0  0  0  0  0  0  0
    8.7465  -14.6814   25.0635 C   0  0  0  0  0  0  0  0  0  0  0  0
    8.9507  -16.1641   24.9833 C   0  0  0  0  0  0  0  0  0  0  0  0
   10.2770  -16.5976   24.4452 C   0  0  2  0  0  0  0  0  0  0  0  0
    9.9927  -17.2365   23.1469 N   0  0  0  0  0  0  0  0  0  0  0  0
   10.8692  -17.5991   25.3744 C   0  0  0  0  0  0  0  0  0  0  0  0
   10.7378  -18.8138   25.0782 O   0  0  0  0  0  0  0  0  0  0  0  0
   11.5459  -17.3076   26.5273 O   0  0  0  0  0  0  0  0  0  0  0  0
  2  1  1  6
  2  3  1  0
  4  5  1  1
  4  2  1  0
  6  7  2  0
  6  4  1  0
  9  8  1  6
  9 11  1  0
  9 10  1  0
 10  6  1  0
 11 21  1  0
 12 11  2  0
 13 14  1  0
 14 15  2  0
 16 14  1  0
 16 17  1  0
 18 17  1  0
 19 18  1  0
 20 19  1  1
 21 20  1  0
 22 24  1  0
 22 20  1  0
 23 22  2  0
M  END
$$$$
