TAR.pdb
     RDKit          3D

 24 23  0  0  1  0  0  0  0  0999 V2000
    5.6762  -15.7162   20.6889 C   0  0  0  0  0  0  0  0  0  0  0  0
    6.9349  -15.3438   19.9821 C   0  0  1  0  0  0  0  0  0  0  0  0
    6.6598  -15.3129   18.6071 O   0  0  0  0  0  0  0  0  0  0  0  0
    7.5260  -14.0418   20.4554 C   0  0  2  0  0  0  0  0  0  0  0  0
    8.5671  -13.6531   19.5236 N   0  0  0  0  0  0  0  0  0  0  0  0
    8.0263  -14.1202   21.8445 C   0  0  0  0  0  0  0  0  0  0  0  0
    9.0438  -14.8029   22.1165 O   0  0  0  0  0  0  0  0  0  0  0  0
    7.1478  -12.2995   24.9832 C   0  0  0  0  0  0  0  0  0  0  0  0
    7.7455  -13.5113   24.2958 C   0  0  2  0  0  0  0  0  0  0  0  0
    7.3820  -13.4350   22.9063 N   0  0  0  0  0  0  0  0  0  0  0  0
    7.3644  -14.7715   24.9348 C   0  0  0  0  0  0  0  0  0  0  0  0
    6.3360  -15.3677   24.5386 O   0  0  0  0  0  0  0  0  0  0  0  0
    7.4952  -21.5298   26.4483 N   0  0  0  0  0  0  0  0  0  0  0  0
    6.9876  -21.7454   25.1465 C   0  0  0  0  0  0  0  0  0  0  0  0
    6.1166  -22.7030   24.9914 N   0  0  0  0  0  0  0  0  0  0  0  0
    7.3732  -20.9900   24.0280 N   0  0  0  0  0  0  0  0  0  0  0  0
    8.2330  -19.8400   24.1437 C   0  0  0  0  0  0  0  0  0  0  0  0
    7.3930  -18.7084   24.7499 C   0  0  0  0  0  0  0  0  0  0  0  0
    8.2282  -17.4809   24.9554 C   0  0  0  0  0  0  0  0  0  0  0  0
    8.0470  -16.7989   26.2739 C   0  0  2  0  0  0  0  0  0  0  0  0
    8.1100  -15.3535   25.9890 N   0  0  0  0  0  0  0  0  0  0  0  0
    9.1727  -17.1795   27.1712 C   0  0  0  0  0  0  0  0  0  0  0  0
   10.3241  -16.7851   26.8564 O   0  0  0  0  0  0  0  0  0  0  0  0
    9.0591  -17.9253   28.3127 O   0  0  0  0  0  0  0  0  0  0  0  0
  2  1  1  1
  2  3  1  0
  4  5  1  6
  4  2  1  0
  6  7  2  0
  6  4  1  0
  9  8  1  1
  9 11  1  0
  9 10  1  0
 10  6  1  0
 11 21  1  0
 12 11  2  0
 13 14  1  0
 14 15  2  0
 16 14  1  0
 16 17  1  0
 18 17  1  0
 19 18  1  0
 20 19  1  6
 21 20  1  0
 22 24  1  0
 22 20  1  0
 23 22  2  0
M  END
$$$$
