TAR.pdb
     RDKit          3D

 24 23  0  0  1  0  0  0  0  0999 V2000
    6.3418  -13.1536   18.7634 C   0  0  0  0  0  0  0  0  0  0  0  0
    7.5170  -14.0662   18.6708 C   0  0  1  0  0  0  0  0  0  0  0  0
    7.9379  -14.0865   17.3330 O   0  0  0  0  0  0  0  0  0  0  0  0
    8.6433  -13.6897   19.5973 C   0  0  2  0  0  0  0  0  0  0  0  0
    9.1284  -12.3792   19.2095 N   0  0  0  0  0  0  0  0  0  0  0  0
    9.7240  -14.6987   19.6123 C   0  0  0  0  0  0  0  0  0  0  0  0
    9.4689  -15.9001   19.8716 O   0  0  0  0  0  0  0  0  0  0  0  0
   13.3951  -14.5095   18.8576 C   0  0  0  0  0  0  0  0  0  0  0  0
   12.2079  -15.2188   19.4788 C   0  0  2  0  0  0  0  0  0  0  0  0
   11.0710  -14.3492   19.3378 N   0  0  0  0  0  0  0  0  0  0  0  0
   12.4573  -15.6415   20.8574 C   0  0  0  0  0  0  0  0  0  0  0  0
   12.4561  -14.7801   21.7673 O   0  0  0  0  0  0  0  0  0  0  0  0
   11.6793  -23.8043   24.6033 N   0  0  0  0  0  0  0  0  0  0  0  0
   12.0456  -22.8448   25.5748 C   0  0  0  0  0  0  0  0  0  0  0  0
   12.0431  -23.2212   26.8230 N   0  0  0  0  0  0  0  0  0  0  0  0
   12.4047  -21.5238   25.2643 N   0  0  0  0  0  0  0  0  0  0  0  0
   12.1959  -20.9646   23.9533 C   0  0  0  0  0  0  0  0  0  0  0  0
   12.6316  -19.4949   24.0156 C   0  0  0  0  0  0  0  0  0  0  0  0
   12.5128  -18.8499   22.6679 C   0  0  0  0  0  0  0  0  0  0  0  0
   12.8720  -17.3990   22.6207 C   0  0  2  0  0  0  0  0  0  0  0  0
   12.7021  -16.9901   21.2141 N   0  0  0  0  0  0  0  0  0  0  0  0
   14.2991  -17.2435   23.0159 C   0  0  0  0  0  0  0  0  0  0  0  0
   15.1582  -17.2416   22.0981 O   0  0  0  0  0  0  0  0  0  0  0  0
   14.7557  -17.1025   24.2981 O   0  0  0  0  0  0  0  0  0  0  0  0
  2  1  1  6
  2  3  1  0
  4  5  1  6
  4  2  1  0
  6  7  2  0
  6  4  1  0
  9  8  1  1
  9 11  1  0
  9 10  1  0
 10  6  1  0
 11 21  1  0
 12 11  2  0
 13 14  1  0
 14 15  2  0
 16 14  1  0
 16 17  1  0
 18 17  1  0
 19 18  1  0
 20 19  1  6
 21 20  1  0
 22 24  1  0
 22 20  1  0
 23 22  2  0
M  END
$$$$
