TAR.pdb
     RDKit          3D

 24 23  0  0  1  0  0  0  0  0999 V2000
    7.5668  -14.1500   16.8763 C   0  0  0  0  0  0  0  0  0  0  0  0
    8.1078  -14.4995   18.2209 C   0  0  1  0  0  0  0  0  0  0  0  0
    9.4347  -14.9212   18.0511 O   0  0  0  0  0  0  0  0  0  0  0  0
    8.0103  -13.3746   19.2176 C   0  0  2  0  0  0  0  0  0  0  0  0
    8.6749  -12.2144   18.6561 N   0  0  0  0  0  0  0  0  0  0  0  0
    8.5598  -13.7422   20.5402 C   0  0  0  0  0  0  0  0  0  0  0  0
    9.7972  -13.7049   20.7474 O   0  0  0  0  0  0  0  0  0  0  0  0
    6.9373  -14.8187   23.7520 C   0  0  0  0  0  0  0  0  0  0  0  0
    8.1614  -14.6788   22.8688 C   0  0  2  0  0  0  0  0  0  0  0  0
    7.7185  -14.1452   21.6087 N   0  0  0  0  0  0  0  0  0  0  0  0
    8.9179  -15.9255   22.7459 C   0  0  0  0  0  0  0  0  0  0  0  0
    8.7828  -16.6195   21.7115 O   0  0  0  0  0  0  0  0  0  0  0  0
   13.4841  -18.9679   18.5609 N   0  0  0  0  0  0  0  0  0  0  0  0
   14.4957  -19.1778   19.5259 C   0  0  0  0  0  0  0  0  0  0  0  0
   15.3129  -20.1753   19.3337 N   0  0  0  0  0  0  0  0  0  0  0  0
   14.6587  -18.3763   20.6666 N   0  0  0  0  0  0  0  0  0  0  0  0
   13.7021  -17.3621   21.0294 C   0  0  0  0  0  0  0  0  0  0  0  0
   12.7964  -17.9634   22.1119 C   0  0  0  0  0  0  0  0  0  0  0  0
   11.7208  -16.9947   22.5005 C   0  0  0  0  0  0  0  0  0  0  0  0
   10.7359  -17.5032   23.5043 C   0  0  2  0  0  0  0  0  0  0  0  0
    9.8030  -16.3881   23.7502 N   0  0  0  0  0  0  0  0  0  0  0  0
   11.4593  -17.8345   24.7629 C   0  0  0  0  0  0  0  0  0  0  0  0
   11.2993  -17.0645   25.7437 O   0  0  0  0  0  0  0  0  0  0  0  0
   12.2865  -18.9096   24.9422 O   0  0  0  0  0  0  0  0  0  0  0  0
  2  1  1  6
  2  3  1  0
  4  5  1  6
  4  2  1  0
  6  7  2  0
  6  4  1  0
  9  8  1  1
  9 11  1  0
  9 10  1  0
 10  6  1  0
 11 21  1  0
 12 11  2  0
 13 14  1  0
 14 15  2  0
 16 14  1  0
 16 17  1  0
 18 17  1  0
 19 18  1  0
 20 19  1  6
 21 20  1  0
 22 24  1  0
 22 20  1  0
 23 22  2  0
M  END
$$$$
