TAR.pdb
     RDKit          3D

 24 23  0  0  1  0  0  0  0  0999 V2000
    4.8804  -17.5156   20.2068 C   0  0  0  0  0  0  0  0  0  0  0  0
    6.0147  -18.1876   19.5109 C   0  0  1  0  0  0  0  0  0  0  0  0
    5.4735  -19.0562   18.5519 O   0  0  0  0  0  0  0  0  0  0  0  0
    6.9941  -17.2249   18.8924 C   0  0  2  0  0  0  0  0  0  0  0  0
    7.9135  -17.9838   18.0666 N   0  0  0  0  0  0  0  0  0  0  0  0
    7.7007  -16.4099   19.9036 C   0  0  0  0  0  0  0  0  0  0  0  0
    8.5181  -16.9436   20.6926 O   0  0  0  0  0  0  0  0  0  0  0  0
    7.6148  -12.7379   20.6987 C   0  0  0  0  0  0  0  0  0  0  0  0
    8.0644  -14.1516   21.0111 C   0  0  2  0  0  0  0  0  0  0  0  0
    7.4826  -15.0129   20.0168 N   0  0  0  0  0  0  0  0  0  0  0  0
    7.7620  -14.5524   22.3856 C   0  0  0  0  0  0  0  0  0  0  0  0
    6.5806  -14.8381   22.6899 O   0  0  0  0  0  0  0  0  0  0  0  0
    7.3470  -21.9780   25.5195 N   0  0  0  0  0  0  0  0  0  0  0  0
    6.8937  -21.0247   26.4599 C   0  0  0  0  0  0  0  0  0  0  0  0
    6.0404  -21.4262   27.3601 N   0  0  0  0  0  0  0  0  0  0  0  0
    7.3108  -19.6844   26.4692 N   0  0  0  0  0  0  0  0  0  0  0  0
    7.5033  -18.9369   25.2530 C   0  0  0  0  0  0  0  0  0  0  0  0
    7.9895  -17.5386   25.6555 C   0  0  0  0  0  0  0  0  0  0  0  0
    8.2440  -16.6968   24.4418 C   0  0  0  0  0  0  0  0  0  0  0  0
    8.4663  -15.2423   24.7090 C   0  0  2  0  0  0  0  0  0  0  0  0
    8.7507  -14.6332   23.3965 N   0  0  0  0  0  0  0  0  0  0  0  0
    9.6528  -15.0917   25.5959 C   0  0  0  0  0  0  0  0  0  0  0  0
   10.7835  -15.0428   25.0486 O   0  0  0  0  0  0  0  0  0  0  0  0
    9.6159  -15.0024   26.9608 O   0  0  0  0  0  0  0  0  0  0  0  0
  2  1  1  6
  2  3  1  0
  4  5  1  1
  4  2  1  0
  6  7  2  0
  6  4  1  0
  9  8  1  6
  9 11  1  0
  9 10  1  0
 10  6  1  0
 11 21  1  0
 12 11  2  0
 13 14  1  0
 14 15  2  0
 16 14  1  0
 16 17  1  0
 18 17  1  0
 19 18  1  0
 20 19  1  6
 21 20  1  0
 22 24  1  0
 22 20  1  0
 23 22  2  0
M  END
$$$$
