TAR.pdb
     RDKit          3D

 24 23  0  0  1  0  0  0  0  0999 V2000
    6.3657  -14.2991   18.5875 C   0  0  0  0  0  0  0  0  0  0  0  0
    6.9798  -14.5227   19.9274 C   0  0  1  0  0  0  0  0  0  0  0  0
    8.0181  -15.4528   19.7718 O   0  0  0  0  0  0  0  0  0  0  0  0
    7.4671  -13.2572   20.5827 C   0  0  2  0  0  0  0  0  0  0  0  0
    8.4106  -12.6183   19.6856 N   0  0  0  0  0  0  0  0  0  0  0  0
    8.0510  -13.5014   21.9190 C   0  0  0  0  0  0  0  0  0  0  0  0
    9.2391  -13.8901   22.0327 O   0  0  0  0  0  0  0  0  0  0  0  0
    6.7155  -13.0415   25.3963 C   0  0  0  0  0  0  0  0  0  0  0  0
    7.7423  -13.6138   24.4390 C   0  0  2  0  0  0  0  0  0  0  0  0
    7.2984  -13.3076   23.1056 N   0  0  0  0  0  0  0  0  0  0  0  0
    7.9943  -15.0379   24.6622 C   0  0  0  0  0  0  0  0  0  0  0  0
    7.1258  -15.8712   24.3139 O   0  0  0  0  0  0  0  0  0  0  0  0
   11.2893  -20.2599   21.5241 N   0  0  0  0  0  0  0  0  0  0  0  0
   11.6245  -19.0473   20.8791 C   0  0  0  0  0  0  0  0  0  0  0  0
   11.4665  -18.9899   19.5863 N   0  0  0  0  0  0  0  0  0  0  0  0
   12.1149  -17.9186   21.5545 N   0  0  0  0  0  0  0  0  0  0  0  0
   12.1631  -17.8513   22.9926 C   0  0  0  0  0  0  0  0  0  0  0  0
   10.7362  -17.5660   23.4785 C   0  0  0  0  0  0  0  0  0  0  0  0
   10.7229  -17.2963   24.9528 C   0  0  0  0  0  0  0  0  0  0  0  0
    9.3845  -16.9583   25.5279 C   0  0  2  0  0  0  0  0  0  0  0  0
    9.1841  -15.5225   25.2586 N   0  0  0  0  0  0  0  0  0  0  0  0
    9.4204  -17.1892   26.9984 C   0  0  0  0  0  0  0  0  0  0  0  0
    9.5942  -16.1881   27.7387 O   0  0  0  0  0  0  0  0  0  0  0  0
    9.2804  -18.4033   27.6138 O   0  0  0  0  0  0  0  0  0  0  0  0
  2  1  1  6
  2  3  1  0
  4  5  1  6
  4  2  1  0
  6  7  2  0
  6  4  1  0
  9  8  1  1
  9 11  1  0
  9 10  1  0
 10  6  1  0
 11 21  1  0
 12 11  2  0
 13 14  1  0
 14 15  2  0
 16 14  1  0
 16 17  1  0
 18 17  1  0
 19 18  1  0
 20 19  1  6
 21 20  1  0
 22 24  1  0
 22 20  1  0
 23 22  2  0
M  END
$$$$
