YFP.pdb
     RDKit          3D

 31 33  0  0  1  0  0  0  0  0999 V2000
   16.8835  -19.7922  -15.4128 O   0  0  0  0  0  0  0  0  0  0  0  0
   18.1825  -20.2105  -15.1113 C   0  0  0  0  0  0  0  0  0  0  0  0
   19.0478  -19.4263  -14.3786 C   0  0  0  0  0  0  0  0  0  0  0  0
   20.3275  -19.8513  -14.0881 C   0  0  0  0  0  0  0  0  0  0  0  0
   20.8026  -21.0834  -14.5178 C   0  0  0  0  0  0  0  0  0  0  0  0
   22.1827  -21.5452  -14.2062 C   0  0  0  0  0  0  0  0  0  0  0  0
   23.1338  -20.6625  -14.9747 C   0  0  2  0  0  0  0  0  0  0  0  0
   23.0327  -21.0478  -16.3787 N   0  0  0  0  0  0  0  0  0  0  0  0
   24.5260  -20.7755  -14.4933 C   0  0  0  0  0  0  0  0  0  0  0  0
   25.2026  -21.7479  -14.8629 O   0  0  0  0  0  0  0  0  0  0  0  0
   19.9246  -21.8557  -15.2495 C   0  0  0  0  0  0  0  0  0  0  0  0
   18.6439  -21.4365  -15.5434 C   0  0  0  0  0  0  0  0  0  0  0  0
   25.0347  -19.7828  -13.6374 N   0  0  0  0  0  0  0  0  0  0  0  0
   26.3309  -19.9058  -13.0076 C   0  0  1  0  0  0  0  0  0  0  0  0
   27.0345  -18.5554  -13.0446 C   0  0  0  0  0  0  0  0  0  0  0  0
   27.4414  -18.1776  -14.4129 C   0  0  0  0  0  0  0  0  0  0  0  0
   28.5294  -18.7616  -15.0068 C   0  0  0  0  0  0  0  0  0  0  0  0
   28.8902  -18.3683  -16.3044 C   0  0  0  0  0  0  0  0  0  0  0  0
   28.1420  -17.4011  -16.9577 C   0  0  0  0  0  0  0  0  0  0  0  0
   27.0524  -16.8160  -16.3641 C   0  0  0  0  0  0  0  0  0  0  0  0
   26.7096  -17.2101  -15.0924 C   0  0  0  0  0  0  0  0  0  0  0  0
   26.1525  -20.3744  -11.6273 C   0  0  0  0  0  0  0  0  0  0  0  0
   24.9473  -20.5245  -11.1718 O   0  0  0  0  0  0  0  0  0  0  0  0
   27.1494  -20.6958  -10.7011 N   0  0  0  0  0  0  0  0  0  0  0  0
   28.5706  -20.4939  -10.8695 C   0  0  0  0  0  0  0  0  0  0  0  0
   29.1161  -21.8460  -10.4250 C   0  0  0  0  0  0  0  0  0  0  0  0
   28.2399  -22.1651   -9.2328 C   0  0  0  0  0  0  0  0  0  0  0  0
   27.0128  -21.2448   -9.3833 C   0  0  1  0  0  0  0  0  0  0  0  0
   27.2083  -20.1539   -8.3554 C   0  0  0  0  0  0  0  0  0  0  0  0
   27.6695  -19.0700   -8.7686 O   0  0  0  0  0  0  0  0  0  0  0  0
   26.9067  -20.3125   -7.0353 O   0  0  0  0  0  0  0  0  0  0  0  0
  2  1  1  0
  3  2  2  0
  4  3  1  0
  5  4  2  0
  5 11  1  0
  6  5  1  0
  7  6  1  0
  7  8  1  6
  9 10  2  0
  9  7  1  0
 11 12  2  0
 12  2  1  0
 13  9  1  0
 14 15  1  1
 14 13  1  0
 16 15  1  0
 16 17  2  0
 18 17  1  0
 19 18  2  0
 20 21  2  0
 20 19  1  0
 21 16  1  0
 22 14  1  0
 23 22  2  0
 24 25  1  0
 24 22  1  0
 26 25  1  0
 27 28  1  0
 27 26  1  0
 28 24  1  0
 28 29  1  1
 29 31  1  0
 30 29  2  0
M  END
$$$$
