YFP.pdb
     RDKit          3D

 31 33  0  0  1  0  0  0  0  0999 V2000
   16.1553  -23.5068  -14.6210 O   0  0  0  0  0  0  0  0  0  0  0  0
   17.3562  -22.7932  -14.5782 C   0  0  0  0  0  0  0  0  0  0  0  0
   17.3865  -21.4161  -14.6340 C   0  0  0  0  0  0  0  0  0  0  0  0
   18.5789  -20.7239  -14.5908 C   0  0  0  0  0  0  0  0  0  0  0  0
   19.7995  -21.3785  -14.4895 C   0  0  0  0  0  0  0  0  0  0  0  0
   21.0880  -20.6350  -14.4427 C   0  0  0  0  0  0  0  0  0  0  0  0
   21.5738  -20.6719  -13.0154 C   0  0  2  0  0  0  0  0  0  0  0  0
   20.7011  -19.7915  -12.2453 N   0  0  0  0  0  0  0  0  0  0  0  0
   22.9872  -20.2611  -12.8872 C   0  0  0  0  0  0  0  0  0  0  0  0
   23.2658  -19.0572  -13.0006 O   0  0  0  0  0  0  0  0  0  0  0  0
   19.7518  -22.7560  -14.4347 C   0  0  0  0  0  0  0  0  0  0  0  0
   18.5629  -23.4538  -14.4775 C   0  0  0  0  0  0  0  0  0  0  0  0
   23.9636  -21.2428  -12.6424 N   0  0  0  0  0  0  0  0  0  0  0  0
   25.3716  -20.9204  -12.5690 C   0  0  1  0  0  0  0  0  0  0  0  0
   26.0420  -21.8383  -11.5551 C   0  0  0  0  0  0  0  0  0  0  0  0
   26.1015  -21.2320  -10.2100 C   0  0  0  0  0  0  0  0  0  0  0  0
   24.9543  -20.8774   -9.5499 C   0  0  0  0  0  0  0  0  0  0  0  0
   25.0529  -20.2945   -8.2774 C   0  0  0  0  0  0  0  0  0  0  0  0
   26.3035  -20.0901   -7.7150 C   0  0  0  0  0  0  0  0  0  0  0  0
   27.4527  -20.4451   -8.3748 C   0  0  0  0  0  0  0  0  0  0  0  0
   27.3422  -21.0151   -9.6211 C   0  0  0  0  0  0  0  0  0  0  0  0
   25.9701  -21.0732  -13.9014 C   0  0  0  0  0  0  0  0  0  0  0  0
   25.4078  -21.8796  -14.7476 O   0  0  0  0  0  0  0  0  0  0  0  0
   27.1108  -20.4375  -14.4010 N   0  0  0  0  0  0  0  0  0  0  0  0
   28.1070  -19.7341  -13.6251 C   0  0  0  0  0  0  0  0  0  0  0  0
   28.2564  -18.4491  -14.4313 C   0  0  0  0  0  0  0  0  0  0  0  0
   28.2102  -18.9607  -15.8551 C   0  0  0  0  0  0  0  0  0  0  0  0
   27.5836  -20.3651  -15.7529 C   0  0  1  0  0  0  0  0  0  0  0  0
   28.7351  -21.3263  -15.9409 C   0  0  0  0  0  0  0  0  0  0  0  0
   29.1588  -21.9010  -14.9169 O   0  0  0  0  0  0  0  0  0  0  0  0
   29.3057  -21.5760  -17.1536 O   0  0  0  0  0  0  0  0  0  0  0  0
  2  1  1  0
  3  2  2  0
  4  3  1  0
  5  4  2  0
  5 11  1  0
  6  5  1  0
  7  6  1  0
  7  8  1  1
  9 10  2  0
  9  7  1  0
 11 12  2  0
 12  2  1  0
 13  9  1  0
 14 15  1  1
 14 13  1  0
 16 15  1  0
 16 17  2  0
 18 17  1  0
 19 18  2  0
 20 21  2  0
 20 19  1  0
 21 16  1  0
 22 14  1  0
 23 22  2  0
 24 25  1  0
 24 22  1  0
 26 25  1  0
 27 28  1  0
 27 26  1  0
 28 24  1  0
 28 29  1  1
 29 31  1  0
 30 29  2  0
M  END
$$$$
