YFP.pdb
     RDKit          3D

 31 33  0  0  1  0  0  0  0  0999 V2000
   19.7660  -18.3398  -12.2962 O   0  0  0  0  0  0  0  0  0  0  0  0
   19.6677  -17.2683  -13.1881 C   0  0  0  0  0  0  0  0  0  0  0  0
   19.6951  -17.4535  -14.5539 C   0  0  0  0  0  0  0  0  0  0  0  0
   19.5971  -16.3869  -15.4231 C   0  0  0  0  0  0  0  0  0  0  0  0
   19.4669  -15.0822  -14.9657 C   0  0  0  0  0  0  0  0  0  0  0  0
   19.3610  -13.9290  -15.9006 C   0  0  0  0  0  0  0  0  0  0  0  0
   17.8925  -13.6695  -16.1259 C   0  0  2  0  0  0  0  0  0  0  0  0
   17.3521  -14.8417  -16.8067 N   0  0  0  0  0  0  0  0  0  0  0  0
   17.6480  -12.4416  -16.9103 C   0  0  0  0  0  0  0  0  0  0  0  0
   17.5499  -12.5374  -18.1436 O   0  0  0  0  0  0  0  0  0  0  0  0
   19.4413  -14.9140  -13.5969 C   0  0  0  0  0  0  0  0  0  0  0  0
   19.5388  -15.9762  -12.7225 C   0  0  0  0  0  0  0  0  0  0  0  0
   17.5352  -11.2126  -16.2367 N   0  0  0  0  0  0  0  0  0  0  0  0
   17.2331   -9.9822  -16.9344 C   0  0  1  0  0  0  0  0  0  0  0  0
   15.8853  -10.1206  -17.6304 C   0  0  0  0  0  0  0  0  0  0  0  0
   14.7821  -10.3253  -16.6705 C   0  0  0  0  0  0  0  0  0  0  0  0
   14.5336  -11.5650  -16.1425 C   0  0  0  0  0  0  0  0  0  0  0  0
   13.4696  -11.7209  -15.2411 C   0  0  0  0  0  0  0  0  0  0  0  0
   12.6942  -10.6224  -14.9035 C   0  0  0  0  0  0  0  0  0  0  0  0
   12.9423   -9.3807  -15.4312 C   0  0  0  0  0  0  0  0  0  0  0  0
   13.9876   -9.2416  -16.3134 C   0  0  0  0  0  0  0  0  0  0  0  0
   17.2225   -8.8734  -15.9715 C   0  0  0  0  0  0  0  0  0  0  0  0
   17.0499   -9.1424  -14.7144 O   0  0  0  0  0  0  0  0  0  0  0  0
   17.3827   -7.5106  -16.2397 N   0  0  0  0  0  0  0  0  0  0  0  0
   17.4770   -6.9015  -17.5471 C   0  0  0  0  0  0  0  0  0  0  0  0
   18.6817   -5.9863  -17.3606 C   0  0  0  0  0  0  0  0  0  0  0  0
   18.4530   -5.4407  -15.9675 C   0  0  0  0  0  0  0  0  0  0  0  0
   17.4465   -6.4120  -15.3201 C   0  0  1  0  0  0  0  0  0  0  0  0
   16.1281   -5.6726  -15.3194 C   0  0  0  0  0  0  0  0  0  0  0  0
   15.2963   -6.0082  -16.1875 O   0  0  0  0  0  0  0  0  0  0  0  0
   15.8301   -4.6836  -14.4295 O   0  0  0  0  0  0  0  0  0  0  0  0
  2  1  1  0
  3  2  2  0
  4  3  1  0
  5  4  2  0
  5 11  1  0
  6  5  1  0
  7  6  1  0
  7  8  1  6
  9 10  2  0
  9  7  1  0
 11 12  2  0
 12  2  1  0
 13  9  1  0
 14 15  1  1
 14 13  1  0
 16 15  1  0
 16 17  2  0
 18 17  1  0
 19 18  2  0
 20 21  2  0
 20 19  1  0
 21 16  1  0
 22 14  1  0
 23 22  2  0
 24 25  1  0
 24 22  1  0
 26 25  1  0
 27 28  1  0
 27 26  1  0
 28 24  1  0
 28 29  1  6
 29 31  1  0
 30 29  2  0
M  END
$$$$
