YFP.pdb
     RDKit          3D

 31 33  0  0  1  0  0  0  0  0999 V2000
   15.9095  -19.6301  -20.1067 O   0  0  0  0  0  0  0  0  0  0  0  0
   17.1753  -19.5289  -19.5231 C   0  0  0  0  0  0  0  0  0  0  0  0
   17.5550  -20.3277  -18.4657 C   0  0  0  0  0  0  0  0  0  0  0  0
   18.8078  -20.2174  -17.8989 C   0  0  0  0  0  0  0  0  0  0  0  0
   19.7414  -19.3008  -18.3644 C   0  0  0  0  0  0  0  0  0  0  0  0
   21.0939  -19.1790  -17.7554 C   0  0  0  0  0  0  0  0  0  0  0  0
   20.9209  -18.5185  -16.4107 C   0  0  2  0  0  0  0  0  0  0  0  0
   20.5006  -17.1438  -16.6621 N   0  0  0  0  0  0  0  0  0  0  0  0
   22.1545  -18.5552  -15.5985 C   0  0  0  0  0  0  0  0  0  0  0  0
   23.0160  -17.6831  -15.7916 O   0  0  0  0  0  0  0  0  0  0  0  0
   19.3459  -18.5093  -19.4227 C   0  0  0  0  0  0  0  0  0  0  0  0
   18.0949  -18.6147  -19.9938 C   0  0  0  0  0  0  0  0  0  0  0  0
   22.3101  -19.5715  -14.6394 N   0  0  0  0  0  0  0  0  0  0  0  0
   23.5216  -19.7113  -13.8619 C   0  0  1  0  0  0  0  0  0  0  0  0
   23.2232  -20.5351  -12.6159 C   0  0  0  0  0  0  0  0  0  0  0  0
   24.4349  -20.7815  -11.8087 C   0  0  0  0  0  0  0  0  0  0  0  0
   24.6885  -20.0436  -10.6824 C   0  0  0  0  0  0  0  0  0  0  0  0
   25.8559  -20.3011   -9.9477 C   0  0  0  0  0  0  0  0  0  0  0  0
   26.7260  -21.2928  -10.3736 C   0  0  0  0  0  0  0  0  0  0  0  0
   26.4729  -22.0325  -11.5010 C   0  0  0  0  0  0  0  0  0  0  0  0
   25.3257  -21.7701  -12.2118 C   0  0  0  0  0  0  0  0  0  0  0  0
   24.5523  -20.3524  -14.6885 C   0  0  0  0  0  0  0  0  0  0  0  0
   24.2110  -21.3460  -15.4493 O   0  0  0  0  0  0  0  0  0  0  0  0
   25.9078  -20.0195  -14.7701 N   0  0  0  0  0  0  0  0  0  0  0  0
   26.6415  -19.1873  -13.8437 C   0  0  0  0  0  0  0  0  0  0  0  0
   27.3818  -18.2607  -14.8012 C   0  0  0  0  0  0  0  0  0  0  0  0
   27.7943  -19.2097  -15.9057 C   0  0  0  0  0  0  0  0  0  0  0  0
   26.8835  -20.4410  -15.7330 C   0  0  1  0  0  0  0  0  0  0  0  0
   27.7689  -21.5057  -15.1268 C   0  0  0  0  0  0  0  0  0  0  0  0
   27.6675  -21.6855  -13.8957 O   0  0  0  0  0  0  0  0  0  0  0  0
   28.6454  -22.2503  -15.8591 O   0  0  0  0  0  0  0  0  0  0  0  0
  2  1  1  0
  3  2  2  0
  4  3  1  0
  5  4  2  0
  5 11  1  0
  6  5  1  0
  7  6  1  0
  7  8  1  6
  9 10  2  0
  9  7  1  0
 11 12  2  0
 12  2  1  0
 13  9  1  0
 14 15  1  1
 14 13  1  0
 16 15  1  0
 16 17  2  0
 18 17  1  0
 19 18  2  0
 20 21  2  0
 20 19  1  0
 21 16  1  0
 22 14  1  0
 23 22  2  0
 24 25  1  0
 24 22  1  0
 26 25  1  0
 27 28  1  0
 27 26  1  0
 28 24  1  0
 28 29  1  1
 29 31  1  0
 30 29  2  0
M  END
$$$$
