YFP.pdb
     RDKit          3D

 31 33  0  0  1  0  0  0  0  0999 V2000
   18.7639  -13.0698  -17.0301 O   0  0  0  0  0  0  0  0  0  0  0  0
   19.4444  -14.2618  -16.7670 C   0  0  0  0  0  0  0  0  0  0  0  0
   19.0380  -15.4652  -17.3028 C   0  0  0  0  0  0  0  0  0  0  0  0
   19.7189  -16.6345  -17.0349 C   0  0  0  0  0  0  0  0  0  0  0  0
   20.8407  -16.6548  -16.2166 C   0  0  0  0  0  0  0  0  0  0  0  0
   21.5779  -17.9146  -15.9253 C   0  0  0  0  0  0  0  0  0  0  0  0
   22.8405  -17.8946  -16.7498 C   0  0  2  0  0  0  0  0  0  0  0  0
   22.4614  -18.2315  -18.1182 N   0  0  0  0  0  0  0  0  0  0  0  0
   23.8656  -18.8279  -16.2390 C   0  0  0  0  0  0  0  0  0  0  0  0
   23.7692  -20.0300  -16.5313 O   0  0  0  0  0  0  0  0  0  0  0  0
   21.2342  -15.4427  -15.6886 C   0  0  0  0  0  0  0  0  0  0  0  0
   20.5578  -14.2701  -15.9525 C   0  0  0  0  0  0  0  0  0  0  0  0
   24.9102  -18.3253  -15.4432 N   0  0  0  0  0  0  0  0  0  0  0  0
   25.7980  -19.1969  -14.7056 C   0  0  1  0  0  0  0  0  0  0  0  0
   27.0104  -18.3993  -14.2431 C   0  0  0  0  0  0  0  0  0  0  0  0
   27.9120  -19.2013  -13.3920 C   0  0  0  0  0  0  0  0  0  0  0  0
   27.7836  -19.1882  -12.0279 C   0  0  0  0  0  0  0  0  0  0  0  0
   28.6661  -19.9560  -11.2530 C   0  0  0  0  0  0  0  0  0  0  0  0
   29.6463  -20.7099  -11.8798 C   0  0  0  0  0  0  0  0  0  0  0  0
   29.7756  -20.7240  -13.2456 C   0  0  0  0  0  0  0  0  0  0  0  0
   28.9046  -19.9672  -13.9931 C   0  0  0  0  0  0  0  0  0  0  0  0
   25.0718  -19.7693  -13.5647 C   0  0  0  0  0  0  0  0  0  0  0  0
   24.2329  -19.0183  -12.9207 O   0  0  0  0  0  0  0  0  0  0  0  0
   25.1660  -21.0701  -13.0607 N   0  0  0  0  0  0  0  0  0  0  0  0
   26.0974  -22.0884  -13.4903 C   0  0  0  0  0  0  0  0  0  0  0  0
   25.1703  -23.2874  -13.6531 C   0  0  0  0  0  0  0  0  0  0  0  0
   24.2555  -23.1459  -12.4555 C   0  0  0  0  0  0  0  0  0  0  0  0
   24.4196  -21.6826  -12.0003 C   0  0  1  0  0  0  0  0  0  0  0  0
   25.2706  -21.7498  -10.7528 C   0  0  0  0  0  0  0  0  0  0  0  0
   26.5071  -21.6902  -10.9134 O   0  0  0  0  0  0  0  0  0  0  0  0
   24.7464  -21.8695   -9.4999 O   0  0  0  0  0  0  0  0  0  0  0  0
  2  1  1  0
  3  2  2  0
  4  3  1  0
  5  4  2  0
  5 11  1  0
  6  5  1  0
  7  6  1  0
  7  8  1  6
  9 10  2  0
  9  7  1  0
 11 12  2  0
 12  2  1  0
 13  9  1  0
 14 15  1  1
 14 13  1  0
 16 15  1  0
 16 17  2  0
 18 17  1  0
 19 18  2  0
 20 21  2  0
 20 19  1  0
 21 16  1  0
 22 14  1  0
 23 22  2  0
 24 25  1  0
 24 22  1  0
 26 25  1  0
 27 28  1  0
 27 26  1  0
 28 24  1  0
 28 29  1  1
 29 31  1  0
 30 29  2  0
M  END
$$$$
