YFP.pdb
     RDKit          3D

 31 33  0  0  1  0  0  0  0  0999 V2000
   36.7926  -29.8374    1.2378 O   0  0  0  0  0  0  0  0  0  0  0  0
   36.8246  -28.9407    2.3093 C   0  0  0  0  0  0  0  0  0  0  0  0
   37.9842  -28.6852    3.0097 C   0  0  0  0  0  0  0  0  0  0  0  0
   38.0020  -27.7976    4.0655 C   0  0  0  0  0  0  0  0  0  0  0  0
   36.8581  -27.1227    4.4709 C   0  0  0  0  0  0  0  0  0  0  0  0
   36.8734  -26.1644    5.6096 C   0  0  0  0  0  0  0  0  0  0  0  0
   37.0783  -24.7865    5.0316 C   0  0  2  0  0  0  0  0  0  0  0  0
   38.5189  -24.5682    4.9506 N   0  0  0  0  0  0  0  0  0  0  0  0
   36.4271  -23.7321    5.8360 C   0  0  0  0  0  0  0  0  0  0  0  0
   37.0023  -23.3283    6.8587 O   0  0  0  0  0  0  0  0  0  0  0  0
   35.7065  -27.3895    3.7600 C   0  0  0  0  0  0  0  0  0  0  0  0
   35.6821  -28.2758    2.7034 C   0  0  0  0  0  0  0  0  0  0  0  0
   35.1843  -23.2246    5.4179 N   0  0  0  0  0  0  0  0  0  0  0  0
   34.5563  -22.0999    6.0757 C   0  0  1  0  0  0  0  0  0  0  0  0
   33.4798  -21.5255    5.1641 C   0  0  0  0  0  0  0  0  0  0  0  0
   32.7609  -20.3994    5.7932 C   0  0  0  0  0  0  0  0  0  0  0  0
   33.2836  -19.1331    5.7685 C   0  0  0  0  0  0  0  0  0  0  0  0
   32.5751  -18.0914    6.3863 C   0  0  0  0  0  0  0  0  0  0  0  0
   31.3652  -18.3624    7.0066 C   0  0  0  0  0  0  0  0  0  0  0  0
   30.8409  -19.6299    7.0317 C   0  0  0  0  0  0  0  0  0  0  0  0
   31.5451  -20.6415    6.4228 C   0  0  0  0  0  0  0  0  0  0  0  0
   33.9875  -22.5465    7.3538 C   0  0  0  0  0  0  0  0  0  0  0  0
   33.4323  -23.7173    7.4128 O   0  0  0  0  0  0  0  0  0  0  0  0
   33.9657  -21.8504    8.5662 N   0  0  0  0  0  0  0  0  0  0  0  0
   34.3347  -20.4672    8.7651 C   0  0  0  0  0  0  0  0  0  0  0  0
   35.2360  -20.5748    9.9897 C   0  0  0  0  0  0  0  0  0  0  0  0
   34.5015  -21.5925   10.8357 C   0  0  0  0  0  0  0  0  0  0  0  0
   33.5449  -22.3051    9.8596 C   0  0  1  0  0  0  0  0  0  0  0  0
   32.1745  -21.7495   10.1728 C   0  0  0  0  0  0  0  0  0  0  0  0
   31.9303  -20.5955    9.7641 O   0  0  0  0  0  0  0  0  0  0  0  0
   31.2290  -22.4467   10.8646 O   0  0  0  0  0  0  0  0  0  0  0  0
  2  1  1  0
  3  2  2  0
  4  3  1  0
  5  4  2  0
  5 11  1  0
  6  5  1  0
  7  6  1  0
  7  8  1  1
  9 10  2  0
  9  7  1  0
 11 12  2  0
 12  2  1  0
 13  9  1  0
 14 15  1  6
 14 13  1  0
 16 15  1  0
 16 17  2  0
 18 17  1  0
 19 18  2  0
 20 21  2  0
 20 19  1  0
 21 16  1  0
 22 14  1  0
 23 22  2  0
 24 25  1  0
 24 22  1  0
 26 25  1  0
 27 28  1  0
 27 26  1  0
 28 24  1  0
 28 29  1  1
 29 31  1  0
 30 29  2  0
M  END
$$$$
