YFP.pdb
     RDKit          3D

 31 33  0  0  1  0  0  0  0  0999 V2000
   28.1369  -14.9159  -22.5645 O   0  0  0  0  0  0  0  0  0  0  0  0
   27.7400  -15.9728  -21.7407 C   0  0  0  0  0  0  0  0  0  0  0  0
   27.7147  -17.2758  -22.1902 C   0  0  0  0  0  0  0  0  0  0  0  0
   27.3209  -18.3097  -21.3664 C   0  0  0  0  0  0  0  0  0  0  0  0
   26.9329  -18.0881  -20.0515 C   0  0  0  0  0  0  0  0  0  0  0  0
   26.5073  -19.2012  -19.1598 C   0  0  0  0  0  0  0  0  0  0  0  0
   27.7136  -19.6153  -18.3549 C   0  0  2  0  0  0  0  0  0  0  0  0
   28.5394  -20.4488  -19.2226 N   0  0  0  0  0  0  0  0  0  0  0  0
   27.3489  -20.3367  -17.1181 C   0  0  0  0  0  0  0  0  0  0  0  0
   27.1256  -21.5553  -17.1883 O   0  0  0  0  0  0  0  0  0  0  0  0
   26.9638  -16.7791  -19.6174 C   0  0  0  0  0  0  0  0  0  0  0  0
   27.3566  -15.7410  -20.4360 C   0  0  0  0  0  0  0  0  0  0  0  0
   27.2677  -19.6221  -15.9100 N   0  0  0  0  0  0  0  0  0  0  0  0
   26.8219  -20.2427  -14.6820 C   0  0  1  0  0  0  0  0  0  0  0  0
   27.4628  -19.5275  -13.4997 C   0  0  0  0  0  0  0  0  0  0  0  0
   26.9398  -20.0121  -12.2066 C   0  0  0  0  0  0  0  0  0  0  0  0
   27.5242  -21.0743  -11.5681 C   0  0  0  0  0  0  0  0  0  0  0  0
   26.9916  -21.5114  -10.3457 C   0  0  0  0  0  0  0  0  0  0  0  0
   25.8896  -20.8629   -9.8100 C   0  0  0  0  0  0  0  0  0  0  0  0
   25.3039  -19.7991  -10.4483 C   0  0  0  0  0  0  0  0  0  0  0  0
   25.8354  -19.3808  -11.6453 C   0  0  0  0  0  0  0  0  0  0  0  0
   25.3566  -20.1750  -14.6132 C   0  0  0  0  0  0  0  0  0  0  0  0
   24.7684  -19.0670  -14.9436 O   0  0  0  0  0  0  0  0  0  0  0  0
   24.4741  -21.1878  -14.2254 N   0  0  0  0  0  0  0  0  0  0  0  0
   24.8362  -22.4656  -13.6550 C   0  0  0  0  0  0  0  0  0  0  0  0
   23.9830  -23.4141  -14.4892 C   0  0  0  0  0  0  0  0  0  0  0  0
   22.6804  -22.6520  -14.6032 C   0  0  0  0  0  0  0  0  0  0  0  0
   23.0404  -21.1945  -14.2543 C   0  0  1  0  0  0  0  0  0  0  0  0
   22.5029  -20.9780  -12.8581 C   0  0  0  0  0  0  0  0  0  0  0  0
   23.2595  -21.2809  -11.9126 O   0  0  0  0  0  0  0  0  0  0  0  0
   21.2589  -20.4789  -12.6087 O   0  0  0  0  0  0  0  0  0  0  0  0
  2  1  1  0
  3  2  2  0
  4  3  1  0
  5  4  2  0
  5 11  1  0
  6  5  1  0
  7  6  1  0
  7  8  1  6
  9 10  2  0
  9  7  1  0
 11 12  2  0
 12  2  1  0
 13  9  1  0
 14 15  1  1
 14 13  1  0
 16 15  1  0
 16 17  2  0
 18 17  1  0
 19 18  2  0
 20 21  2  0
 20 19  1  0
 21 16  1  0
 22 14  1  0
 23 22  2  0
 24 25  1  0
 24 22  1  0
 26 25  1  0
 27 28  1  0
 27 26  1  0
 28 24  1  0
 28 29  1  1
 29 31  1  0
 30 29  2  0
M  END
$$$$
