YFP.pdb
     RDKit          3D

 31 33  0  0  1  0  0  0  0  0999 V2000
   10.0567   -9.1157    0.9694 O   0  0  0  0  0  0  0  0  0  0  0  0
   10.6712  -10.0444    1.8139 C   0  0  0  0  0  0  0  0  0  0  0  0
   12.0328  -10.0425    2.0292 C   0  0  0  0  0  0  0  0  0  0  0  0
   12.6266  -10.9650    2.8654 C   0  0  0  0  0  0  0  0  0  0  0  0
   11.8844  -11.9346    3.5268 C   0  0  0  0  0  0  0  0  0  0  0  0
   12.5216  -12.9315    4.4298 C   0  0  0  0  0  0  0  0  0  0  0  0
   13.2598  -13.9165    3.5584 C   0  0  2  0  0  0  0  0  0  0  0  0
   12.2535  -14.7602    2.9219 N   0  0  0  0  0  0  0  0  0  0  0  0
   14.2294  -14.7308    4.3196 C   0  0  0  0  0  0  0  0  0  0  0  0
   14.0445  -15.9557    4.3926 O   0  0  0  0  0  0  0  0  0  0  0  0
   10.5237  -11.9228    3.3007 C   0  0  0  0  0  0  0  0  0  0  0  0
    9.9240  -11.0033    2.4658 C   0  0  0  0  0  0  0  0  0  0  0  0
   15.3230  -14.0940    4.9324 N   0  0  0  0  0  0  0  0  0  0  0  0
   16.3365  -14.8351    5.6503 C   0  0  1  0  0  0  0  0  0  0  0  0
   17.7128  -14.3441    5.2206 C   0  0  0  0  0  0  0  0  0  0  0  0
   18.1079  -14.8799    3.9026 C   0  0  0  0  0  0  0  0  0  0  0  0
   18.1345  -14.0713    2.7967 C   0  0  0  0  0  0  0  0  0  0  0  0
   18.5058  -14.6203    1.5600 C   0  0  0  0  0  0  0  0  0  0  0  0
   18.8373  -15.9642    1.4813 C   0  0  0  0  0  0  0  0  0  0  0  0
   18.8114  -16.7746    2.5880 C   0  0  0  0  0  0  0  0  0  0  0  0
   18.4457  -16.2243    3.7936 C   0  0  0  0  0  0  0  0  0  0  0  0
   16.1339  -14.6528    7.0934 C   0  0  0  0  0  0  0  0  0  0  0  0
   15.5954  -13.5495    7.5119 O   0  0  0  0  0  0  0  0  0  0  0  0
   16.4551  -15.5477    8.1186 N   0  0  0  0  0  0  0  0  0  0  0  0
   17.0579  -16.8515    7.9581 C   0  0  0  0  0  0  0  0  0  0  0  0
   16.1630  -17.7028    8.8514 C   0  0  0  0  0  0  0  0  0  0  0  0
   15.9433  -16.7923   10.0403 C   0  0  0  0  0  0  0  0  0  0  0  0
   16.3132  -15.3835    9.5361 C   0  0  1  0  0  0  0  0  0  0  0  0
   17.6616  -15.0852   10.1508 C   0  0  0  0  0  0  0  0  0  0  0  0
   17.6804  -14.8557   11.3777 O   0  0  0  0  0  0  0  0  0  0  0  0
   18.8188  -15.0600    9.4303 O   0  0  0  0  0  0  0  0  0  0  0  0
  2  1  1  0
  3  2  2  0
  4  3  1  0
  5  4  2  0
  5 11  1  0
  6  5  1  0
  7  6  1  0
  7  8  1  1
  9 10  2  0
  9  7  1  0
 11 12  2  0
 12  2  1  0
 13  9  1  0
 14 15  1  6
 14 13  1  0
 16 15  1  0
 16 17  2  0
 18 17  1  0
 19 18  2  0
 20 21  2  0
 20 19  1  0
 21 16  1  0
 22 14  1  0
 23 22  2  0
 24 25  1  0
 24 22  1  0
 26 25  1  0
 27 28  1  0
 27 26  1  0
 28 24  1  0
 28 29  1  1
 29 31  1  0
 30 29  2  0
M  END
$$$$
