YFP.pdb
     RDKit          3D

 31 33  0  0  1  0  0  0  0  0999 V2000
   26.6894  -12.1637  -16.4270 O   0  0  0  0  0  0  0  0  0  0  0  0
   26.4708  -13.5065  -16.1071 C   0  0  0  0  0  0  0  0  0  0  0  0
   26.1773  -13.9098  -14.8219 C   0  0  0  0  0  0  0  0  0  0  0  0
   25.9637  -15.2387  -14.5198 C   0  0  0  0  0  0  0  0  0  0  0  0
   26.0338  -16.2284  -15.4913 C   0  0  0  0  0  0  0  0  0  0  0  0
   25.8039  -17.6632  -15.1690 C   0  0  0  0  0  0  0  0  0  0  0  0
   26.9106  -18.0956  -14.2401 C   0  0  2  0  0  0  0  0  0  0  0  0
   28.1539  -18.0367  -15.0019 N   0  0  0  0  0  0  0  0  0  0  0  0
   26.6910  -19.4485  -13.6884 C   0  0  0  0  0  0  0  0  0  0  0  0
   27.1250  -20.4232  -14.3219 O   0  0  0  0  0  0  0  0  0  0  0  0
   26.3283  -15.8085  -16.7718 C   0  0  0  0  0  0  0  0  0  0  0  0
   26.5430  -14.4814  -17.0804 C   0  0  0  0  0  0  0  0  0  0  0  0
   26.0013  -19.5851  -12.4707 N   0  0  0  0  0  0  0  0  0  0  0  0
   25.4081  -20.8398  -12.0637 C   0  0  1  0  0  0  0  0  0  0  0  0
   25.0912  -20.7827  -10.5749 C   0  0  0  0  0  0  0  0  0  0  0  0
   26.3126  -20.7005   -9.7491 C   0  0  0  0  0  0  0  0  0  0  0  0
   27.3099  -21.6311   -9.8785 C   0  0  0  0  0  0  0  0  0  0  0  0
   28.4506  -21.5244   -9.0684 C   0  0  0  0  0  0  0  0  0  0  0  0
   28.5462  -20.4839   -8.1572 C   0  0  0  0  0  0  0  0  0  0  0  0
   27.5484  -19.5515   -8.0270 C   0  0  0  0  0  0  0  0  0  0  0  0
   26.4359  -19.6676   -8.8265 C   0  0  0  0  0  0  0  0  0  0  0  0
   24.1951  -21.0780  -12.8564 C   0  0  0  0  0  0  0  0  0  0  0  0
   23.5576  -20.0574  -13.3406 O   0  0  0  0  0  0  0  0  0  0  0  0
   23.6129  -22.3089  -13.1740 N   0  0  0  0  0  0  0  0  0  0  0  0
   24.0303  -23.6038  -12.6861 C   0  0  0  0  0  0  0  0  0  0  0  0
   24.0564  -24.4121  -13.9782 C   0  0  0  0  0  0  0  0  0  0  0  0
   22.8172  -23.9132  -14.6897 C   0  0  0  0  0  0  0  0  0  0  0  0
   22.4706  -22.5804  -13.9975 C   0  0  1  0  0  0  0  0  0  0  0  0
   21.2758  -22.8876  -13.1241 C   0  0  0  0  0  0  0  0  0  0  0  0
   21.5078  -23.1339  -11.9226 O   0  0  0  0  0  0  0  0  0  0  0  0
   19.9956  -22.9033  -13.5930 O   0  0  0  0  0  0  0  0  0  0  0  0
  2  1  1  0
  3  2  2  0
  4  3  1  0
  5  4  2  0
  5 11  1  0
  6  5  1  0
  7  6  1  0
  7  8  1  6
  9 10  2  0
  9  7  1  0
 11 12  2  0
 12  2  1  0
 13  9  1  0
 14 15  1  1
 14 13  1  0
 16 15  1  0
 16 17  2  0
 18 17  1  0
 19 18  2  0
 20 21  2  0
 20 19  1  0
 21 16  1  0
 22 14  1  0
 23 22  2  0
 24 25  1  0
 24 22  1  0
 26 25  1  0
 27 28  1  0
 27 26  1  0
 28 24  1  0
 28 29  1  1
 29 31  1  0
 30 29  2  0
M  END
$$$$
