YFP.pdb
     RDKit          3D

 31 33  0  0  1  0  0  0  0  0999 V2000
   26.7711  -15.5242  -22.4742 O   0  0  0  0  0  0  0  0  0  0  0  0
   26.4780  -16.4435  -21.4632 C   0  0  0  0  0  0  0  0  0  0  0  0
   26.4989  -16.0909  -20.1307 C   0  0  0  0  0  0  0  0  0  0  0  0
   26.2074  -17.0084  -19.1427 C   0  0  0  0  0  0  0  0  0  0  0  0
   25.8808  -18.3244  -19.4422 C   0  0  0  0  0  0  0  0  0  0  0  0
   25.5658  -19.3171  -18.3788 C   0  0  0  0  0  0  0  0  0  0  0  0
   26.8789  -19.8175  -17.8312 C   0  0  2  0  0  0  0  0  0  0  0  0
   27.4574  -20.6934  -18.8449 N   0  0  0  0  0  0  0  0  0  0  0  0
   26.7227  -20.5268  -16.5446 C   0  0  0  0  0  0  0  0  0  0  0  0
   26.3446  -21.7086  -16.5630 O   0  0  0  0  0  0  0  0  0  0  0  0
   25.8644  -18.6610  -20.7798 C   0  0  0  0  0  0  0  0  0  0  0  0
   26.1547  -17.7484  -21.7723 C   0  0  0  0  0  0  0  0  0  0  0  0
   27.0062  -19.8428  -15.3494 N   0  0  0  0  0  0  0  0  0  0  0  0
   26.6425  -20.3785  -14.0561 C   0  0  1  0  0  0  0  0  0  0  0  0
   27.4122  -19.6342  -12.9728 C   0  0  0  0  0  0  0  0  0  0  0  0
   26.9994  -20.0444  -11.6156 C   0  0  0  0  0  0  0  0  0  0  0  0
   26.0073  -19.3719  -10.9517 C   0  0  0  0  0  0  0  0  0  0  0  0
   25.6505  -19.7860   -9.6594 C   0  0  0  0  0  0  0  0  0  0  0  0
   26.3055  -20.8629   -9.0821 C   0  0  0  0  0  0  0  0  0  0  0  0
   27.2987  -21.5371   -9.7461 C   0  0  0  0  0  0  0  0  0  0  0  0
   27.6389  -21.1212  -11.0116 C   0  0  0  0  0  0  0  0  0  0  0  0
   25.1926  -20.2398  -13.8684 C   0  0  0  0  0  0  0  0  0  0  0  0
   24.6315  -19.1095  -14.1686 O   0  0  0  0  0  0  0  0  0  0  0  0
   24.2991  -21.2038  -13.3919 N   0  0  0  0  0  0  0  0  0  0  0  0
   24.6451  -22.5043  -12.8645 C   0  0  0  0  0  0  0  0  0  0  0  0
   23.6565  -23.3966  -13.6062 C   0  0  0  0  0  0  0  0  0  0  0  0
   22.3948  -22.5610  -13.5818 C   0  0  0  0  0  0  0  0  0  0  0  0
   22.8722  -21.1290  -13.2703 C   0  0  1  0  0  0  0  0  0  0  0  0
   22.4969  -20.8929  -11.8251 C   0  0  0  0  0  0  0  0  0  0  0  0
   23.3608  -21.1720  -10.9684 O   0  0  0  0  0  0  0  0  0  0  0  0
   21.2844  -20.4010  -11.4419 O   0  0  0  0  0  0  0  0  0  0  0  0
  2  1  1  0
  3  2  2  0
  4  3  1  0
  5  4  2  0
  5 11  1  0
  6  5  1  0
  7  6  1  0
  7  8  1  6
  9 10  2  0
  9  7  1  0
 11 12  2  0
 12  2  1  0
 13  9  1  0
 14 15  1  1
 14 13  1  0
 16 15  1  0
 16 17  2  0
 18 17  1  0
 19 18  2  0
 20 21  2  0
 20 19  1  0
 21 16  1  0
 22 14  1  0
 23 22  2  0
 24 25  1  0
 24 22  1  0
 26 25  1  0
 27 28  1  0
 27 26  1  0
 28 24  1  0
 28 29  1  1
 29 31  1  0
 30 29  2  0
M  END
$$$$
