FRH.pdb
     RDKit          3D

 33 34  0  0  1  0  0  0  0  0999 V2000
   26.7105  -28.5045  -19.2640 N   0  0  0  0  0  0  0  0  0  0  0  0
   27.1851  -28.7287  -17.9209 C   0  0  1  0  0  0  0  0  0  0  0  0
   26.2134  -28.3405  -16.8486 C   0  0  0  0  0  0  0  0  0  0  0  0
   25.7695  -26.9320  -16.8965 C   0  0  0  0  0  0  0  0  0  0  0  0
   26.5887  -25.8483  -16.6668 C   0  0  0  0  0  0  0  0  0  0  0  0
   26.1183  -24.5418  -16.7259 C   0  0  0  0  0  0  0  0  0  0  0  0
   24.7905  -24.2944  -17.0220 C   0  0  0  0  0  0  0  0  0  0  0  0
   23.9618  -25.3658  -17.2522 C   0  0  0  0  0  0  0  0  0  0  0  0
   24.4340  -26.6578  -17.1931 C   0  0  0  0  0  0  0  0  0  0  0  0
   27.4562  -30.1801  -17.7710 C   0  0  0  0  0  0  0  0  0  0  0  0
   26.9292  -30.9930  -18.5735 O   0  0  0  0  0  0  0  0  0  0  0  0
   34.3459  -29.8318  -16.6217 N   0  0  0  0  0  0  0  0  0  0  0  0
   33.9556  -29.8396  -17.9864 C   0  0  0  0  0  0  0  0  0  0  0  0
   34.7240  -29.2297  -18.8486 N   0  0  0  0  0  0  0  0  0  0  0  0
   32.7699  -30.4933  -18.3636 N   0  0  0  0  0  0  0  0  0  0  0  0
   31.9456  -31.0912  -17.3595 C   0  0  0  0  0  0  0  0  0  0  0  0
   30.8676  -31.9870  -17.9750 C   0  0  0  0  0  0  0  0  0  0  0  0
   30.0508  -32.4974  -16.8614 C   0  0  0  0  0  0  0  0  0  0  0  0
   28.6726  -32.1115  -16.6690 C   0  0  2  0  0  0  0  0  0  0  0  0
   28.2851  -30.7283  -16.7587 N   0  0  0  0  0  0  0  0  0  0  0  0
   27.8613  -32.8396  -15.6341 C   0  0  0  0  0  0  0  0  0  0  0  0
   27.9780  -34.0854  -15.4745 O   0  0  0  0  0  0  0  0  0  0  0  0
   34.5175  -29.2787  -19.8639 N   0  0  0  0  0  0  0  0  0  0  0  0
   26.9417  -32.1929  -14.7937 C   0  0  2  0  0  0  0  0  0  0  0  0
   25.6227  -32.7953  -14.4429 C   0  0  0  0  0  0  0  0  0  0  0  0
   24.5991  -32.3185  -15.4087 C   0  0  0  0  0  0  0  0  0  0  0  0
   23.2630  -32.8537  -15.1003 C   0  0  0  0  0  0  0  0  0  0  0  0
   22.9311  -33.3575  -13.8278 N   0  0  0  0  0  0  0  0  0  0  0  0
   21.6594  -33.7720  -13.8809 C   0  0  0  0  0  0  0  0  0  0  0  0
   21.1595  -33.5629  -15.1126 N   0  0  0  0  0  0  0  0  0  0  0  0
   22.1602  -33.0086  -15.8119 C   0  0  0  0  0  0  0  0  0  0  0  0
   25.7899  -34.2427  -14.3088 O   0  0  0  0  0  0  0  0  0  0  0  0
   25.3313  -34.8291  -13.2702 O   0  0  0  0  0  0  0  0  0  0  0  0
  2  1  1  6
  2 10  1  0
  2  3  1  0
  3  4  1  0
  4  5  2  0
  5  6  1  0
  7  6  2  0
  8  7  1  0
  9  4  1  0
  9  8  2  0
 10 11  2  0
 13 15  1  0
 13 12  1  0
 14 13  2  0
 16 15  1  0
 16 17  1  0
 18 17  1  0
 19 18  1  1
 20 19  1  0
 20 10  1  0
 21 19  1  0
 22 21  2  0
 23 21  1  0
 24 31  1  0
 24 23  1  0
 24 25  1  1
 25 26  1  0
 26 30  1  0
 26 27  2  0
 27 28  1  0
 29 28  1  0
 30 29  2  0
 31 33  1  0
 32 31  2  0
M  END
$$$$
