FRH.pdb
     RDKit          3D

 33 34  0  0  1  0  0  0  0  0999 V2000
   19.3048  -10.6024    8.5434 N   0  0  0  0  0  0  0  0  0  0  0  0
   20.0044  -11.6136    7.7903 C   0  0  1  0  0  0  0  0  0  0  0  0
   21.3865  -11.9095    8.2871 C   0  0  0  0  0  0  0  0  0  0  0  0
   22.3745  -10.8388    8.0412 C   0  0  0  0  0  0  0  0  0  0  0  0
   22.6576  -10.3091    6.8012 C   0  0  0  0  0  0  0  0  0  0  0  0
   23.5975   -9.3003    6.6264 C   0  0  0  0  0  0  0  0  0  0  0  0
   24.2845   -8.7951    7.7148 C   0  0  0  0  0  0  0  0  0  0  0  0
   24.0133   -9.3148    8.9575 C   0  0  0  0  0  0  0  0  0  0  0  0
   23.0803  -10.3135    9.1241 C   0  0  0  0  0  0  0  0  0  0  0  0
   19.2209  -12.8709    7.8806 C   0  0  0  0  0  0  0  0  0  0  0  0
   18.6829  -13.1863    8.9731 O   0  0  0  0  0  0  0  0  0  0  0  0
   16.3668  -18.8622    2.1700 N   0  0  0  0  0  0  0  0  0  0  0  0
   16.2435  -19.5792    3.3889 C   0  0  0  0  0  0  0  0  0  0  0  0
   15.9044  -20.8390    3.3289 N   0  0  0  0  0  0  0  0  0  0  0  0
   16.4855  -18.9207    4.6068 N   0  0  0  0  0  0  0  0  0  0  0  0
   17.0280  -17.5975    4.5961 C   0  0  0  0  0  0  0  0  0  0  0  0
   17.0583  -16.9894    6.0007 C   0  0  0  0  0  0  0  0  0  0  0  0
   17.6915  -15.6657    5.8783 C   0  0  0  0  0  0  0  0  0  0  0  0
   18.5341  -15.1097    6.9109 C   0  0  2  0  0  0  0  0  0  0  0  0
   19.0354  -13.7656    6.7955 N   0  0  0  0  0  0  0  0  0  0  0  0
   19.5332  -16.0090    7.5833 C   0  0  0  0  0  0  0  0  0  0  0  0
   20.7002  -16.1430    7.1237 O   0  0  0  0  0  0  0  0  0  0  0  0
   15.8016  -21.3978    4.1967 N   0  0  0  0  0  0  0  0  0  0  0  0
   19.2389  -16.7412    8.7441 C   0  0  2  0  0  0  0  0  0  0  0  0
   20.2210  -17.6757    9.3670 C   0  0  0  0  0  0  0  0  0  0  0  0
   20.7433  -17.0677   10.6182 C   0  0  0  0  0  0  0  0  0  0  0  0
   21.6234  -17.9923   11.3510 C   0  0  0  0  0  0  0  0  0  0  0  0
   22.9953  -18.1147   11.0575 N   0  0  0  0  0  0  0  0  0  0  0  0
   23.5010  -19.0363   11.8862 C   0  0  0  0  0  0  0  0  0  0  0  0
   22.5328  -19.5101   12.6918 N   0  0  0  0  0  0  0  0  0  0  0  0
   21.4205  -18.8527   12.3334 C   0  0  0  0  0  0  0  0  0  0  0  0
   19.6049  -18.9984    9.4750 O   0  0  0  0  0  0  0  0  0  0  0  0
   18.3515  -19.0845    9.7083 O   0  0  0  0  0  0  0  0  0  0  0  0
  2  1  1  1
  2 10  1  0
  2  3  1  0
  3  4  1  0
  4  5  2  0
  5  6  1  0
  7  6  2  0
  8  7  1  0
  9  4  1  0
  9  8  2  0
 10 11  2  0
 13 15  1  0
 13 12  1  0
 14 13  2  0
 16 15  1  0
 16 17  1  0
 18 17  1  0
 19 18  1  6
 20 19  1  0
 20 10  1  0
 21 19  1  0
 22 21  2  0
 23 21  1  0
 24 31  1  0
 24 23  1  0
 24 25  1  1
 25 26  1  0
 26 30  1  0
 26 27  2  0
 27 28  1  0
 29 28  1  0
 30 29  2  0
 31 33  1  0
 32 31  2  0
M  END
$$$$
