FRH.pdb
     RDKit          3D

 33 34  0  0  1  0  0  0  0  0999 V2000
   27.7849  -21.6842   -7.9803 N   0  0  0  0  0  0  0  0  0  0  0  0
   26.6972  -20.7376   -7.9806 C   0  0  1  0  0  0  0  0  0  0  0  0
   26.9861  -19.4632   -7.2477 C   0  0  0  0  0  0  0  0  0  0  0  0
   27.8056  -19.6230   -6.0287 C   0  0  0  0  0  0  0  0  0  0  0  0
   29.0811  -19.1248   -5.8760 C   0  0  0  0  0  0  0  0  0  0  0  0
   29.8082  -19.3036   -4.7051 C   0  0  0  0  0  0  0  0  0  0  0  0
   29.2575  -20.0002   -3.6452 C   0  0  0  0  0  0  0  0  0  0  0  0
   27.9867  -20.5038   -3.7839 C   0  0  0  0  0  0  0  0  0  0  0  0
   27.2711  -20.3224   -4.9461 C   0  0  0  0  0  0  0  0  0  0  0  0
   26.4043  -20.3823   -9.3916 C   0  0  0  0  0  0  0  0  0  0  0  0
   26.1058  -19.1949   -9.6803 O   0  0  0  0  0  0  0  0  0  0  0  0
   30.3099  -21.6479   -9.7725 N   0  0  0  0  0  0  0  0  0  0  0  0
   31.0687  -22.0128  -10.9153 C   0  0  0  0  0  0  0  0  0  0  0  0
   31.9637  -22.9547  -10.7834 N   0  0  0  0  0  0  0  0  0  0  0  0
   30.8380  -21.3578  -12.1374 N   0  0  0  0  0  0  0  0  0  0  0  0
   29.5747  -20.7299  -12.3722 C   0  0  0  0  0  0  0  0  0  0  0  0
   28.4704  -21.7606  -12.6198 C   0  0  0  0  0  0  0  0  0  0  0  0
   27.2209  -21.0072  -12.8177 C   0  0  0  0  0  0  0  0  0  0  0  0
   26.1591  -20.9938  -11.8391 C   0  0  2  0  0  0  0  0  0  0  0  0
   26.4343  -21.3119  -10.4627 N   0  0  0  0  0  0  0  0  0  0  0  0
   24.7981  -21.4812  -12.2503 C   0  0  0  0  0  0  0  0  0  0  0  0
   24.1189  -22.2282  -11.4941 O   0  0  0  0  0  0  0  0  0  0  0  0
   32.5566  -23.2331  -11.5877 N   0  0  0  0  0  0  0  0  0  0  0  0
   24.2057  -21.1415  -13.4766 C   0  0  1  0  0  0  0  0  0  0  0  0
   22.7411  -20.8913  -13.6117 C   0  0  0  0  0  0  0  0  0  0  0  0
   22.3188  -19.9112  -12.5779 C   0  0  0  0  0  0  0  0  0  0  0  0
   20.8837  -19.5981  -12.6731 C   0  0  0  0  0  0  0  0  0  0  0  0
   20.0463  -20.1975  -13.6336 N   0  0  0  0  0  0  0  0  0  0  0  0
   18.8174  -19.6953  -13.4622 C   0  0  0  0  0  0  0  0  0  0  0  0
   18.8205  -18.8100  -12.4487 N   0  0  0  0  0  0  0  0  0  0  0  0
   20.0853  -18.7846  -12.0043 C   0  0  0  0  0  0  0  0  0  0  0  0
   22.4501  -20.5569  -15.0061 O   0  0  0  0  0  0  0  0  0  0  0  0
   21.3640  -20.9757  -15.5334 O   0  0  0  0  0  0  0  0  0  0  0  0
  2  1  1  6
  2 10  1  0
  2  3  1  0
  3  4  1  0
  4  5  2  0
  5  6  1  0
  7  6  2  0
  8  7  1  0
  9  4  1  0
  9  8  2  0
 10 11  2  0
 13 15  1  0
 13 12  1  0
 14 13  2  0
 16 15  1  0
 16 17  1  0
 18 17  1  0
 19 18  1  6
 20 19  1  0
 20 10  1  0
 21 19  1  0
 22 21  2  0
 23 21  1  0
 24 31  1  0
 24 23  1  0
 24 25  1  1
 25 26  1  0
 26 30  1  0
 26 27  2  0
 27 28  1  0
 29 28  1  0
 30 29  2  0
 31 33  1  0
 32 31  2  0
M  END
$$$$
