FRH.pdb
     RDKit          3D

 33 34  0  0  1  0  0  0  0  0999 V2000
   28.3933  -20.7029   -8.8699 N   0  0  0  0  0  0  0  0  0  0  0  0
   26.9644  -20.7239   -8.6773 C   0  0  1  0  0  0  0  0  0  0  0  0
   26.4634  -19.7487   -7.6561 C   0  0  0  0  0  0  0  0  0  0  0  0
   27.1576  -19.8065   -6.3530 C   0  0  0  0  0  0  0  0  0  0  0  0
   27.0859  -20.8683   -5.4780 C   0  0  0  0  0  0  0  0  0  0  0  0
   27.7614  -20.8707   -4.2633 C   0  0  0  0  0  0  0  0  0  0  0  0
   28.5361  -19.7855   -3.8973 C   0  0  0  0  0  0  0  0  0  0  0  0
   28.6158  -18.7189   -4.7598 C   0  0  0  0  0  0  0  0  0  0  0  0
   27.9450  -18.7230   -5.9622 C   0  0  0  0  0  0  0  0  0  0  0  0
   26.3261  -20.3790   -9.9720 C   0  0  0  0  0  0  0  0  0  0  0  0
   26.2236  -19.1709  -10.3076 O   0  0  0  0  0  0  0  0  0  0  0  0
   26.9769  -24.5741  -15.6225 N   0  0  0  0  0  0  0  0  0  0  0  0
   26.5224  -23.8550  -16.7588 C   0  0  0  0  0  0  0  0  0  0  0  0
   26.1127  -24.5375  -17.7942 N   0  0  0  0  0  0  0  0  0  0  0  0
   26.5280  -22.4496  -16.7363 N   0  0  0  0  0  0  0  0  0  0  0  0
   26.8170  -21.7662  -15.5138 C   0  0  0  0  0  0  0  0  0  0  0  0
   25.7029  -21.9610  -14.4822 C   0  0  0  0  0  0  0  0  0  0  0  0
   26.0032  -21.0614  -13.3559 C   0  0  0  0  0  0  0  0  0  0  0  0
   25.2085  -21.0349  -12.1504 C   0  0  2  0  0  0  0  0  0  0  0  0
   25.8072  -21.3398  -10.8775 N   0  0  0  0  0  0  0  0  0  0  0  0
   23.7883  -21.5224  -12.2162 C   0  0  0  0  0  0  0  0  0  0  0  0
   23.3230  -22.2914  -11.3312 O   0  0  0  0  0  0  0  0  0  0  0  0
   25.7835  -24.0500  -18.6485 N   0  0  0  0  0  0  0  0  0  0  0  0
   22.9050  -21.1588  -13.2448 C   0  0  2  0  0  0  0  0  0  0  0  0
   21.4236  -21.1890  -13.0705 C   0  0  0  0  0  0  0  0  0  0  0  0
   21.0595  -20.3893  -11.8723 C   0  0  0  0  0  0  0  0  0  0  0  0
   19.6012  -20.3113  -11.6878 C   0  0  0  0  0  0  0  0  0  0  0  0
   18.6973  -20.9100  -12.5866 N   0  0  0  0  0  0  0  0  0  0  0  0
   17.4612  -20.6479  -12.1448 C   0  0  0  0  0  0  0  0  0  0  0  0
   17.5223  -19.9168  -11.0167 N   0  0  0  0  0  0  0  0  0  0  0  0
   18.8300  -19.7389  -10.7800 C   0  0  0  0  0  0  0  0  0  0  0  0
   20.7956  -20.8150  -14.3380 O   0  0  0  0  0  0  0  0  0  0  0  0
   21.2956  -19.8588  -15.0226 O   0  0  0  0  0  0  0  0  0  0  0  0
  2  1  1  6
  2 10  1  0
  2  3  1  0
  3  4  1  0
  4  5  2  0
  5  6  1  0
  7  6  2  0
  8  7  1  0
  9  4  1  0
  9  8  2  0
 10 11  2  0
 13 15  1  0
 13 12  1  0
 14 13  2  0
 16 15  1  0
 16 17  1  0
 18 17  1  0
 19 18  1  6
 20 19  1  0
 20 10  1  0
 21 19  1  0
 22 21  2  0
 23 21  1  0
 24 31  1  0
 24 23  1  0
 24 25  1  6
 25 26  1  0
 26 30  1  0
 26 27  2  0
 27 28  1  0
 29 28  1  0
 30 29  2  0
 31 33  1  0
 32 31  2  0
M  END
$$$$
