FRH.pdb
     RDKit          3D

 33 34  0  0  1  0  0  0  0  0999 V2000
   25.8148  -22.3204  -10.3378 N   0  0  0  0  0  0  0  0  0  0  0  0
   25.7630  -20.8973  -10.5646 C   0  0  1  0  0  0  0  0  0  0  0  0
   27.0436  -20.1771  -10.2708 C   0  0  0  0  0  0  0  0  0  0  0  0
   27.3871  -20.0863   -8.8366 C   0  0  0  0  0  0  0  0  0  0  0  0
   26.6244  -19.4349   -7.8921 C   0  0  0  0  0  0  0  0  0  0  0  0
   26.9945  -19.3811   -6.5535 C   0  0  0  0  0  0  0  0  0  0  0  0
   28.1606  -19.9919   -6.1303 C   0  0  0  0  0  0  0  0  0  0  0  0
   28.9319  -20.6442   -7.0617 C   0  0  0  0  0  0  0  0  0  0  0  0
   28.5592  -20.6947   -8.3862 C   0  0  0  0  0  0  0  0  0  0  0  0
   25.4476  -20.6766  -11.9979 C   0  0  0  0  0  0  0  0  0  0  0  0
   25.8703  -21.4935  -12.8562 O   0  0  0  0  0  0  0  0  0  0  0  0
   20.3439  -22.5954  -16.9600 N   0  0  0  0  0  0  0  0  0  0  0  0
   21.7324  -22.4015  -17.1819 C   0  0  0  0  0  0  0  0  0  0  0  0
   22.3831  -23.3206  -17.8434 N   0  0  0  0  0  0  0  0  0  0  0  0
   22.3570  -21.2429  -16.6888 N   0  0  0  0  0  0  0  0  0  0  0  0
   21.5829  -20.2751  -15.9751 C   0  0  0  0  0  0  0  0  0  0  0  0
   22.4273  -19.0633  -15.5730 C   0  0  0  0  0  0  0  0  0  0  0  0
   22.8884  -19.3035  -14.1954 C   0  0  0  0  0  0  0  0  0  0  0  0
   24.2876  -19.3916  -13.8493 C   0  0  2  0  0  0  0  0  0  0  0  0
   24.6878  -19.5798  -12.4797 N   0  0  0  0  0  0  0  0  0  0  0  0
   25.2659  -18.5230  -14.5893 C   0  0  0  0  0  0  0  0  0  0  0  0
   25.4340  -17.3145  -14.2694 O   0  0  0  0  0  0  0  0  0  0  0  0
   23.4056  -23.2349  -17.9949 N   0  0  0  0  0  0  0  0  0  0  0  0
   26.0418  -18.9918  -15.6610 C   0  0  2  0  0  0  0  0  0  0  0  0
   26.9932  -18.1121  -16.4004 C   0  0  0  0  0  0  0  0  0  0  0  0
   28.3200  -18.7779  -16.4647 C   0  0  0  0  0  0  0  0  0  0  0  0
   29.2831  -18.0047  -17.2654 C   0  0  0  0  0  0  0  0  0  0  0  0
   29.3130  -16.5968  -17.2507 N   0  0  0  0  0  0  0  0  0  0  0  0
   30.2849  -16.2086  -18.0852 C   0  0  0  0  0  0  0  0  0  0  0  0
   30.8776  -17.2857  -18.6325 N   0  0  0  0  0  0  0  0  0  0  0  0
   30.2417  -18.3440  -18.1095 C   0  0  0  0  0  0  0  0  0  0  0  0
   26.3801  -17.7231  -17.6708 O   0  0  0  0  0  0  0  0  0  0  0  0
   25.5390  -18.5106  -18.2234 O   0  0  0  0  0  0  0  0  0  0  0  0
  2  1  1  6
  2 10  1  0
  2  3  1  0
  3  4  1  0
  4  5  2  0
  5  6  1  0
  7  6  2  0
  8  7  1  0
  9  4  1  0
  9  8  2  0
 10 11  2  0
 13 15  1  0
 13 12  1  0
 14 13  2  0
 16 15  1  0
 16 17  1  0
 18 17  1  0
 19 18  1  1
 20 19  1  0
 20 10  1  0
 21 19  1  0
 22 21  2  0
 23 21  1  0
 24 31  1  0
 24 23  1  0
 24 25  1  1
 25 26  1  0
 26 30  1  0
 26 27  2  0
 27 28  1  0
 29 28  1  0
 30 29  2  0
 31 33  1  0
 32 31  2  0
M  END
$$$$
