FRH.pdb
     RDKit          3D

 33 34  0  0  1  0  0  0  0  0999 V2000
   21.0605  -17.6011  -16.6093 N   0  0  0  0  0  0  0  0  0  0  0  0
   20.5321  -16.5208  -17.4049 C   0  0  1  0  0  0  0  0  0  0  0  0
   19.1266  -16.1304  -17.0627 C   0  0  0  0  0  0  0  0  0  0  0  0
   18.1241  -17.1989  -17.2537 C   0  0  0  0  0  0  0  0  0  0  0  0
   17.4522  -17.8297  -16.2295 C   0  0  0  0  0  0  0  0  0  0  0  0
   16.5165  -18.8297  -16.4662 C   0  0  0  0  0  0  0  0  0  0  0  0
   16.2328  -19.2229  -17.7612 C   0  0  0  0  0  0  0  0  0  0  0  0
   16.8963  -18.6033  -18.7925 C   0  0  0  0  0  0  0  0  0  0  0  0
   17.8215  -17.6126  -18.5515 C   0  0  0  0  0  0  0  0  0  0  0  0
   21.3906  -15.3307  -17.1828 C   0  0  0  0  0  0  0  0  0  0  0  0
   22.0032  -15.2061  -16.0911 O   0  0  0  0  0  0  0  0  0  0  0  0
   25.8241  -15.3866  -22.7168 N   0  0  0  0  0  0  0  0  0  0  0  0
   24.8888  -16.0367  -21.8698 C   0  0  0  0  0  0  0  0  0  0  0  0
   24.3327  -17.1376  -22.2992 N   0  0  0  0  0  0  0  0  0  0  0  0
   24.5925  -15.4832  -20.6122 N   0  0  0  0  0  0  0  0  0  0  0  0
   25.1864  -14.2387  -20.2331 C   0  0  0  0  0  0  0  0  0  0  0  0
   24.8066  -13.8453  -18.8033 C   0  0  0  0  0  0  0  0  0  0  0  0
   23.5865  -13.0263  -18.8966 C   0  0  0  0  0  0  0  0  0  0  0  0
   22.4732  -13.1860  -17.9909 C   0  0  2  0  0  0  0  0  0  0  0  0
   21.5697  -14.2967  -18.1374 N   0  0  0  0  0  0  0  0  0  0  0  0
   21.7528  -11.9556  -17.5153 C   0  0  0  0  0  0  0  0  0  0  0  0
   20.5942  -11.6790  -17.9305 O   0  0  0  0  0  0  0  0  0  0  0  0
   23.6885  -17.6743  -21.6886 N   0  0  0  0  0  0  0  0  0  0  0  0
   22.3105  -11.0542  -16.5951 C   0  0  1  0  0  0  0  0  0  0  0  0
   21.6259   -9.7869  -16.2064 C   0  0  0  0  0  0  0  0  0  0  0  0
   22.3588   -9.1678  -15.0717 C   0  0  0  0  0  0  0  0  0  0  0  0
   21.7540   -7.8905  -14.6603 C   0  0  0  0  0  0  0  0  0  0  0  0
   22.1937   -6.6529  -15.1686 N   0  0  0  0  0  0  0  0  0  0  0  0
   21.4543   -5.6979  -14.5915 C   0  0  0  0  0  0  0  0  0  0  0  0
   20.5682   -6.2525  -13.7441 N   0  0  0  0  0  0  0  0  0  0  0  0
   20.7855   -7.5735  -13.8187 C   0  0  0  0  0  0  0  0  0  0  0  0
   21.4390   -8.9691  -17.4052 O   0  0  0  0  0  0  0  0  0  0  0  0
   20.3466   -8.3231  -17.5543 O   0  0  0  0  0  0  0  0  0  0  0  0
  2  1  1  1
  2 10  1  0
  2  3  1  0
  3  4  1  0
  4  5  2  0
  5  6  1  0
  7  6  2  0
  8  7  1  0
  9  4  1  0
  9  8  2  0
 10 11  2  0
 13 15  1  0
 13 12  1  0
 14 13  2  0
 16 15  1  0
 16 17  1  0
 18 17  1  0
 19 18  1  6
 20 19  1  0
 20 10  1  0
 21 19  1  0
 22 21  2  0
 23 21  1  0
 24 31  1  0
 24 23  1  0
 24 25  1  6
 25 26  1  0
 26 30  1  0
 26 27  2  0
 27 28  1  0
 29 28  1  0
 30 29  2  0
 31 33  1  0
 32 31  2  0
M  END
$$$$
