FRH.pdb
     RDKit          3D

 33 34  0  0  1  0  0  0  0  0999 V2000
   26.3191  -14.4355  -17.2843 N   0  0  0  0  0  0  0  0  0  0  0  0
   25.8312  -14.7333  -15.9605 C   0  0  1  0  0  0  0  0  0  0  0  0
   24.7048  -13.8567  -15.5047 C   0  0  0  0  0  0  0  0  0  0  0  0
   25.0305  -12.4172  -15.4355 C   0  0  0  0  0  0  0  0  0  0  0  0
   25.9938  -11.8745  -14.6134 C   0  0  0  0  0  0  0  0  0  0  0  0
   26.2605  -10.5108  -14.5890 C   0  0  0  0  0  0  0  0  0  0  0  0
   25.5505   -9.6495  -15.4053 C   0  0  0  0  0  0  0  0  0  0  0  0
   24.5860  -10.1768  -16.2295 C   0  0  0  0  0  0  0  0  0  0  0  0
   24.3271  -11.5289  -16.2498 C   0  0  0  0  0  0  0  0  0  0  0  0
   25.3331  -16.1314  -15.9636 C   0  0  0  0  0  0  0  0  0  0  0  0
   24.9946  -16.6641  -17.0518 O   0  0  0  0  0  0  0  0  0  0  0  0
   28.5362  -21.3223  -11.5602 N   0  0  0  0  0  0  0  0  0  0  0  0
   27.2497  -21.6570  -12.0580 C   0  0  0  0  0  0  0  0  0  0  0  0
   26.4175  -22.2612  -11.2529 N   0  0  0  0  0  0  0  0  0  0  0  0
   26.9151  -21.3337  -13.3844 N   0  0  0  0  0  0  0  0  0  0  0  0
   27.8314  -20.5732  -14.1763 C   0  0  0  0  0  0  0  0  0  0  0  0
   27.1219  -19.4492  -14.9356 C   0  0  0  0  0  0  0  0  0  0  0  0
   25.7778  -19.3205  -14.3481 C   0  0  0  0  0  0  0  0  0  0  0  0
   24.8339  -18.3173  -14.7817 C   0  0  2  0  0  0  0  0  0  0  0  0
   25.2053  -16.9269  -14.7961 N   0  0  0  0  0  0  0  0  0  0  0  0
   23.3852  -18.4915  -14.4210 C   0  0  0  0  0  0  0  0  0  0  0  0
   22.8404  -17.7630  -13.5472 O   0  0  0  0  0  0  0  0  0  0  0  0
   25.4996  -22.5967  -11.6005 N   0  0  0  0  0  0  0  0  0  0  0  0
   22.5609  -19.4552  -15.0227 C   0  0  1  0  0  0  0  0  0  0  0  0
   21.0723  -19.3858  -14.9531 C   0  0  0  0  0  0  0  0  0  0  0  0
   20.6282  -18.0378  -15.3930 C   0  0  0  0  0  0  0  0  0  0  0  0
   19.9641  -17.2981  -14.3075 C   0  0  0  0  0  0  0  0  0  0  0  0
   19.7499  -17.8627  -13.0353 N   0  0  0  0  0  0  0  0  0  0  0  0
   19.1199  -16.9454  -12.2914 C   0  0  0  0  0  0  0  0  0  0  0  0
   18.9188  -15.8279  -13.0136 N   0  0  0  0  0  0  0  0  0  0  0  0
   19.4434  -16.0866  -14.2201 C   0  0  0  0  0  0  0  0  0  0  0  0
   20.5162  -20.5365  -15.6656 O   0  0  0  0  0  0  0  0  0  0  0  0
   19.4603  -21.0973  -15.2147 O   0  0  0  0  0  0  0  0  0  0  0  0
  2  1  1  6
  2 10  1  0
  2  3  1  0
  3  4  1  0
  4  5  2  0
  5  6  1  0
  7  6  2  0
  8  7  1  0
  9  4  1  0
  9  8  2  0
 10 11  2  0
 13 15  1  0
 13 12  1  0
 14 13  2  0
 16 15  1  0
 16 17  1  0
 18 17  1  0
 19 18  1  1
 20 19  1  0
 20 10  1  0
 21 19  1  0
 22 21  2  0
 23 21  1  0
 24 31  1  0
 24 23  1  0
 24 25  1  1
 25 26  1  0
 26 30  1  0
 26 27  2  0
 27 28  1  0
 29 28  1  0
 30 29  2  0
 31 33  1  0
 32 31  2  0
M  END
$$$$
