FRH.pdb
     RDKit          3D

 33 34  0  0  1  0  0  0  0  0999 V2000
   28.5326  -21.1418   -8.9792 N   0  0  0  0  0  0  0  0  0  0  0  0
   27.1267  -20.8256   -8.9274 C   0  0  1  0  0  0  0  0  0  0  0  0
   26.7825  -19.6835   -8.0207 C   0  0  0  0  0  0  0  0  0  0  0  0
   27.3232  -19.7973   -6.6504 C   0  0  0  0  0  0  0  0  0  0  0  0
   28.4238  -19.1100   -6.1871 C   0  0  0  0  0  0  0  0  0  0  0  0
   28.8900  -19.2540   -4.8857 C   0  0  0  0  0  0  0  0  0  0  0  0
   28.2474  -20.1079   -4.0083 C   0  0  0  0  0  0  0  0  0  0  0  0
   27.1491  -20.8007   -4.4571 C   0  0  0  0  0  0  0  0  0  0  0  0
   26.6915  -20.6530   -5.7473 C   0  0  0  0  0  0  0  0  0  0  0  0
   26.6942  -20.4516  -10.2971 C   0  0  0  0  0  0  0  0  0  0  0  0
   27.5290  -19.9490  -11.0927 O   0  0  0  0  0  0  0  0  0  0  0  0
   26.0653  -25.0701  -15.9638 N   0  0  0  0  0  0  0  0  0  0  0  0
   25.9082  -23.7471  -16.4534 C   0  0  0  0  0  0  0  0  0  0  0  0
   25.3100  -23.5844  -17.6029 N   0  0  0  0  0  0  0  0  0  0  0  0
   26.3954  -22.6669  -15.6975 N   0  0  0  0  0  0  0  0  0  0  0  0
   26.9558  -22.9086  -14.4042 C   0  0  0  0  0  0  0  0  0  0  0  0
   25.9391  -22.6433  -13.2909 C   0  0  0  0  0  0  0  0  0  0  0  0
   25.7974  -21.1818  -13.1826 C   0  0  0  0  0  0  0  0  0  0  0  0
   24.9858  -20.5536  -12.1667 C   0  0  2  0  0  0  0  0  0  0  0  0
   25.3720  -20.6219  -10.7819 N   0  0  0  0  0  0  0  0  0  0  0  0
   23.4910  -20.5892  -12.3188 C   0  0  0  0  0  0  0  0  0  0  0  0
   22.7805  -21.3326  -11.5883 O   0  0  0  0  0  0  0  0  0  0  0  0
   25.1641  -22.6332  -17.9899 N   0  0  0  0  0  0  0  0  0  0  0  0
   22.8026  -19.8115  -13.2630 C   0  0  2  0  0  0  0  0  0  0  0  0
   21.3136  -19.8032  -13.3550 C   0  0  0  0  0  0  0  0  0  0  0  0
   20.8840  -18.6359  -14.1679 C   0  0  0  0  0  0  0  0  0  0  0  0
   19.8351  -17.8542  -13.4931 C   0  0  0  0  0  0  0  0  0  0  0  0
   19.3617  -18.1840  -12.2085 N   0  0  0  0  0  0  0  0  0  0  0  0
   18.4138  -17.2940  -11.8907 C   0  0  0  0  0  0  0  0  0  0  0  0
   18.2536  -16.4149  -12.8969 N   0  0  0  0  0  0  0  0  0  0  0  0
   19.1299  -16.7915  -13.8393 C   0  0  0  0  0  0  0  0  0  0  0  0
   20.8645  -21.1242  -13.7957 O   0  0  0  0  0  0  0  0  0  0  0  0
   21.5948  -21.7928  -14.6035 O   0  0  0  0  0  0  0  0  0  0  0  0
  2  1  1  6
  2 10  1  0
  2  3  1  0
  3  4  1  0
  4  5  2  0
  5  6  1  0
  7  6  2  0
  8  7  1  0
  9  4  1  0
  9  8  2  0
 10 11  2  0
 13 15  1  0
 13 12  1  0
 14 13  2  0
 16 15  1  0
 16 17  1  0
 18 17  1  0
 19 18  1  6
 20 19  1  0
 20 10  1  0
 21 19  1  0
 22 21  2  0
 23 21  1  0
 24 31  1  0
 24 23  1  0
 24 25  1  6
 25 26  1  0
 26 30  1  0
 26 27  2  0
 27 28  1  0
 29 28  1  0
 30 29  2  0
 31 33  1  0
 32 31  2  0
M  END
$$$$
