FRH.pdb
     RDKit          3D

 33 34  0  0  1  0  0  0  0  0999 V2000
   25.8258  -18.8373  -17.4072 N   0  0  0  0  0  0  0  0  0  0  0  0
   26.3663  -18.2078  -16.2278 C   0  0  1  0  0  0  0  0  0  0  0  0
   25.5289  -17.0907  -15.6840 C   0  0  0  0  0  0  0  0  0  0  0  0
   25.7895  -15.7697  -16.2924 C   0  0  0  0  0  0  0  0  0  0  0  0
   26.8669  -14.9683  -15.9840 C   0  0  0  0  0  0  0  0  0  0  0  0
   27.0647  -13.7325  -16.5885 C   0  0  0  0  0  0  0  0  0  0  0  0
   26.1663  -13.2692  -17.5320 C   0  0  0  0  0  0  0  0  0  0  0  0
   25.0864  -14.0575  -17.8484 C   0  0  0  0  0  0  0  0  0  0  0  0
   24.8965  -15.2812  -17.2467 C   0  0  0  0  0  0  0  0  0  0  0  0
   26.4708  -19.2417  -15.1681 C   0  0  0  0  0  0  0  0  0  0  0  0
   25.6368  -20.1831  -15.1394 O   0  0  0  0  0  0  0  0  0  0  0  0
   33.0956  -22.5055  -10.5838 N   0  0  0  0  0  0  0  0  0  0  0  0
   32.0238  -22.9850   -9.7862 C   0  0  0  0  0  0  0  0  0  0  0  0
   32.3146  -23.6854   -8.7229 N   0  0  0  0  0  0  0  0  0  0  0  0
   30.6999  -22.6966  -10.1602 N   0  0  0  0  0  0  0  0  0  0  0  0
   30.4540  -21.7695  -11.2209 C   0  0  0  0  0  0  0  0  0  0  0  0
   28.9599  -21.6544  -11.5338 C   0  0  0  0  0  0  0  0  0  0  0  0
   28.8266  -20.6684  -12.6192 C   0  0  0  0  0  0  0  0  0  0  0  0
   27.5448  -20.1834  -13.0744 C   0  0  2  0  0  0  0  0  0  0  0  0
   27.4672  -19.2399  -14.1584 N   0  0  0  0  0  0  0  0  0  0  0  0
   26.4690  -19.9332  -12.0550 C   0  0  0  0  0  0  0  0  0  0  0  0
   26.3617  -18.8135  -11.4842 O   0  0  0  0  0  0  0  0  0  0  0  0
   31.5610  -24.0440   -8.1071 N   0  0  0  0  0  0  0  0  0  0  0  0
   25.5317  -20.9090  -11.6815 C   0  0  2  0  0  0  0  0  0  0  0  0
   24.5745  -20.7046  -10.5555 C   0  0  0  0  0  0  0  0  0  0  0  0
   23.3562  -21.5192  -10.8003 C   0  0  0  0  0  0  0  0  0  0  0  0
   22.5132  -20.9402  -11.8589 C   0  0  0  0  0  0  0  0  0  0  0  0
   22.7804  -19.6795  -12.4266 N   0  0  0  0  0  0  0  0  0  0  0  0
   21.8320  -19.4434  -13.3411 C   0  0  0  0  0  0  0  0  0  0  0  0
   20.9743  -20.4791  -13.3910 N   0  0  0  0  0  0  0  0  0  0  0  0
   21.4242  -21.3559  -12.4818 C   0  0  0  0  0  0  0  0  0  0  0  0
   25.2819  -20.9252   -9.2939 O   0  0  0  0  0  0  0  0  0  0  0  0
   24.7316  -20.5617   -8.1994 O   0  0  0  0  0  0  0  0  0  0  0  0
  2  1  1  6
  2 10  1  0
  2  3  1  0
  3  4  1  0
  4  5  2  0
  5  6  1  0
  7  6  2  0
  8  7  1  0
  9  4  1  0
  9  8  2  0
 10 11  2  0
 13 15  1  0
 13 12  1  0
 14 13  2  0
 16 15  1  0
 16 17  1  0
 18 17  1  0
 19 18  1  1
 20 19  1  0
 20 10  1  0
 21 19  1  0
 22 21  2  0
 23 21  1  0
 24 31  1  0
 24 23  1  0
 24 25  1  6
 25 26  1  0
 26 30  1  0
 26 27  2  0
 27 28  1  0
 29 28  1  0
 30 29  2  0
 31 33  1  0
 32 31  2  0
M  END
$$$$
