FRH.pdb
     RDKit          3D

 33 34  0  0  1  0  0  0  0  0999 V2000
   28.1745  -22.5654  -14.1260 N   0  0  0  0  0  0  0  0  0  0  0  0
   27.2139  -21.6987  -13.4893 C   0  0  1  0  0  0  0  0  0  0  0  0
   27.8185  -20.5580  -12.7290 C   0  0  0  0  0  0  0  0  0  0  0  0
   28.7709  -20.9554  -11.6716 C   0  0  0  0  0  0  0  0  0  0  0  0
   30.1398  -20.9832  -11.8257 C   0  0  0  0  0  0  0  0  0  0  0  0
   30.9910  -21.3649  -10.7955 C   0  0  0  0  0  0  0  0  0  0  0  0
   30.4734  -21.7335   -9.5674 C   0  0  0  0  0  0  0  0  0  0  0  0
   29.1099  -21.7116   -9.3999 C   0  0  0  0  0  0  0  0  0  0  0  0
   28.2719  -21.3316  -10.4241 C   0  0  0  0  0  0  0  0  0  0  0  0
   26.3520  -21.1191  -14.5495 C   0  0  0  0  0  0  0  0  0  0  0  0
   26.1860  -21.7508  -15.6246 O   0  0  0  0  0  0  0  0  0  0  0  0
   21.0510  -21.0785  -10.0744 N   0  0  0  0  0  0  0  0  0  0  0  0
   20.3923  -21.4753  -11.2676 C   0  0  0  0  0  0  0  0  0  0  0  0
   19.1136  -21.2317  -11.3735 N   0  0  0  0  0  0  0  0  0  0  0  0
   21.1256  -22.1108  -12.2845 N   0  0  0  0  0  0  0  0  0  0  0  0
   22.5537  -22.0365  -12.2743 C   0  0  0  0  0  0  0  0  0  0  0  0
   23.0468  -20.6222  -12.5908 C   0  0  0  0  0  0  0  0  0  0  0  0
   23.3244  -20.5813  -14.0363 C   0  0  0  0  0  0  0  0  0  0  0  0
   24.2769  -19.6652  -14.6182 C   0  0  2  0  0  0  0  0  0  0  0  0
   25.6895  -19.8700  -14.4337 N   0  0  0  0  0  0  0  0  0  0  0  0
   23.9374  -18.2013  -14.6503 C   0  0  0  0  0  0  0  0  0  0  0  0
   22.7825  -17.7948  -14.3468 O   0  0  0  0  0  0  0  0  0  0  0  0
   18.5865  -21.5432  -12.2108 N   0  0  0  0  0  0  0  0  0  0  0  0
   24.8654  -17.2118  -15.0104 C   0  0  2  0  0  0  0  0  0  0  0  0
   24.7313  -16.4116  -16.2624 C   0  0  0  0  0  0  0  0  0  0  0  0
   25.5650  -17.0302  -17.3255 C   0  0  0  0  0  0  0  0  0  0  0  0
   26.9647  -17.1921  -16.8997 C   0  0  0  0  0  0  0  0  0  0  0  0
   27.4233  -16.7519  -15.6431 N   0  0  0  0  0  0  0  0  0  0  0  0
   28.7298  -17.0344  -15.5726 C   0  0  0  0  0  0  0  0  0  0  0  0
   29.1330  -17.6291  -16.7104 N   0  0  0  0  0  0  0  0  0  0  0  0
   28.0370  -17.7030  -17.4792 C   0  0  0  0  0  0  0  0  0  0  0  0
   23.3086  -16.2301  -16.5518 O   0  0  0  0  0  0  0  0  0  0  0  0
   22.5844  -17.2569  -16.7844 O   0  0  0  0  0  0  0  0  0  0  0  0
  2  1  1  6
  2 10  1  0
  2  3  1  0
  3  4  1  0
  4  5  2  0
  5  6  1  0
  7  6  2  0
  8  7  1  0
  9  4  1  0
  9  8  2  0
 10 11  2  0
 13 15  1  0
 13 12  1  0
 14 13  2  0
 16 15  1  0
 16 17  1  0
 18 17  1  0
 19 18  1  1
 20 19  1  0
 20 10  1  0
 21 19  1  0
 22 21  2  0
 23 21  1  0
 24 31  1  0
 24 23  1  0
 24 25  1  1
 25 26  1  0
 26 30  1  0
 26 27  2  0
 27 28  1  0
 29 28  1  0
 30 29  2  0
 31 33  1  0
 32 31  2  0
M  END
$$$$
