FRH.pdb
     RDKit          3D

 33 34  0  0  1  0  0  0  0  0999 V2000
   26.5292  -16.2022  -17.7942 N   0  0  0  0  0  0  0  0  0  0  0  0
   26.3433  -16.2004  -16.3642 C   0  0  1  0  0  0  0  0  0  0  0  0
   25.7297  -14.9457  -15.8218 C   0  0  0  0  0  0  0  0  0  0  0  0
   26.5026  -13.7147  -16.0869 C   0  0  0  0  0  0  0  0  0  0  0  0
   26.2019  -12.8030  -17.0752 C   0  0  0  0  0  0  0  0  0  0  0  0
   26.9637  -11.6588  -17.2805 C   0  0  0  0  0  0  0  0  0  0  0  0
   28.0634  -11.4040  -16.4820 C   0  0  0  0  0  0  0  0  0  0  0  0
   28.3758  -12.3053  -15.4931 C   0  0  0  0  0  0  0  0  0  0  0  0
   27.6166  -13.4365  -15.2941 C   0  0  0  0  0  0  0  0  0  0  0  0
   25.4348  -17.3232  -16.0226 C   0  0  0  0  0  0  0  0  0  0  0  0
   24.4772  -17.5985  -16.7906 O   0  0  0  0  0  0  0  0  0  0  0  0
   27.1080  -22.6571   -9.8934 N   0  0  0  0  0  0  0  0  0  0  0  0
   26.2087  -21.5759  -10.0865 C   0  0  0  0  0  0  0  0  0  0  0  0
   25.5174  -21.1608   -9.0592 N   0  0  0  0  0  0  0  0  0  0  0  0
   26.0901  -20.9934  -11.3602 N   0  0  0  0  0  0  0  0  0  0  0  0
   26.8867  -21.4905  -12.4388 C   0  0  0  0  0  0  0  0  0  0  0  0
   26.6393  -20.7066  -13.7301 C   0  0  0  0  0  0  0  0  0  0  0  0
   25.2160  -20.3294  -13.7335 C   0  0  0  0  0  0  0  0  0  0  0  0
   24.7086  -19.2205  -14.5069 C   0  0  2  0  0  0  0  0  0  0  0  0
   25.5719  -18.1244  -14.8600 N   0  0  0  0  0  0  0  0  0  0  0  0
   23.3050  -18.7486  -14.2494 C   0  0  0  0  0  0  0  0  0  0  0  0
   23.0797  -17.5902  -13.8040 O   0  0  0  0  0  0  0  0  0  0  0  0
   24.8247  -20.3962   -9.1657 N   0  0  0  0  0  0  0  0  0  0  0  0
   22.1767  -19.5496  -14.4853 C   0  0  1  0  0  0  0  0  0  0  0  0
   20.8647  -18.9748  -14.9022 C   0  0  0  0  0  0  0  0  0  0  0  0
   21.0806  -18.0527  -16.0472 C   0  0  0  0  0  0  0  0  0  0  0  0
   19.8233  -17.4336  -16.4971 C   0  0  0  0  0  0  0  0  0  0  0  0
   19.0477  -16.6121  -15.6565 N   0  0  0  0  0  0  0  0  0  0  0  0
   17.9752  -16.2227  -16.3564 C   0  0  0  0  0  0  0  0  0  0  0  0
   18.0199  -16.7473  -17.5948 N   0  0  0  0  0  0  0  0  0  0  0  0
   19.1497  -17.4683  -17.6336 C   0  0  0  0  0  0  0  0  0  0  0  0
   19.9147  -20.0702  -15.0982 O   0  0  0  0  0  0  0  0  0  0  0  0
   20.3151  -21.1503  -15.6513 O   0  0  0  0  0  0  0  0  0  0  0  0
  2  1  1  6
  2 10  1  0
  2  3  1  0
  3  4  1  0
  4  5  2  0
  5  6  1  0
  7  6  2  0
  8  7  1  0
  9  4  1  0
  9  8  2  0
 10 11  2  0
 13 15  1  0
 13 12  1  0
 14 13  2  0
 16 15  1  0
 16 17  1  0
 18 17  1  0
 19 18  1  1
 20 19  1  0
 20 10  1  0
 21 19  1  0
 22 21  2  0
 23 21  1  0
 24 31  1  0
 24 23  1  0
 24 25  1  1
 25 26  1  0
 26 30  1  0
 26 27  2  0
 27 28  1  0
 29 28  1  0
 30 29  2  0
 31 33  1  0
 32 31  2  0
M  END
$$$$
