FRH.pdb
     RDKit          3D

 33 34  0  0  1  0  0  0  0  0999 V2000
   27.0232  -20.0924  -12.0669 N   0  0  0  0  0  0  0  0  0  0  0  0
   26.4746  -21.3673  -11.6759 C   0  0  1  0  0  0  0  0  0  0  0  0
   25.8707  -21.3866  -10.3048 C   0  0  0  0  0  0  0  0  0  0  0  0
   26.7747  -20.9403   -9.2246 C   0  0  0  0  0  0  0  0  0  0  0  0
   26.4495  -19.9946   -8.2770 C   0  0  0  0  0  0  0  0  0  0  0  0
   27.3393  -19.6119   -7.2803 C   0  0  0  0  0  0  0  0  0  0  0  0
   28.5972  -20.1826   -7.2157 C   0  0  0  0  0  0  0  0  0  0  0  0
   28.9355  -21.1264   -8.1551 C   0  0  0  0  0  0  0  0  0  0  0  0
   28.0491  -21.5019   -9.1395 C   0  0  0  0  0  0  0  0  0  0  0  0
   25.4006  -21.7148  -12.6396 C   0  0  0  0  0  0  0  0  0  0  0  0
   24.7220  -20.7956  -13.1659 O   0  0  0  0  0  0  0  0  0  0  0  0
   21.0181  -26.4439  -15.6184 N   0  0  0  0  0  0  0  0  0  0  0  0
   21.4942  -27.1656  -16.7442 C   0  0  0  0  0  0  0  0  0  0  0  0
   20.7634  -28.1484  -17.1978 N   0  0  0  0  0  0  0  0  0  0  0  0
   22.7213  -26.8065  -17.3281 N   0  0  0  0  0  0  0  0  0  0  0  0
   23.7228  -26.1722  -16.5283 C   0  0  0  0  0  0  0  0  0  0  0  0
   23.1544  -24.9798  -15.7546 C   0  0  0  0  0  0  0  0  0  0  0  0
   24.1936  -24.5560  -14.8014 C   0  0  0  0  0  0  0  0  0  0  0  0
   24.0344  -23.4090  -13.9386 C   0  0  2  0  0  0  0  0  0  0  0  0
   25.0755  -23.0438  -13.0144 N   0  0  0  0  0  0  0  0  0  0  0  0
   22.6734  -23.1235  -13.3682 C   0  0  0  0  0  0  0  0  0  0  0  0
   22.4856  -23.0858  -12.1215 O   0  0  0  0  0  0  0  0  0  0  0  0
   21.0489  -28.6661  -18.0501 N   0  0  0  0  0  0  0  0  0  0  0  0
   21.5466  -22.8829  -14.1700 C   0  0  2  0  0  0  0  0  0  0  0  0
   20.7420  -21.6315  -14.0584 C   0  0  0  0  0  0  0  0  0  0  0  0
   21.6368  -20.4606  -14.2487 C   0  0  0  0  0  0  0  0  0  0  0  0
   20.9092  -19.1877  -14.1177 C   0  0  0  0  0  0  0  0  0  0  0  0
   19.5508  -19.1334  -13.7507 N   0  0  0  0  0  0  0  0  0  0  0  0
   19.1923  -17.8438  -13.7331 C   0  0  0  0  0  0  0  0  0  0  0  0
   20.2420  -17.0710  -14.0676 N   0  0  0  0  0  0  0  0  0  0  0  0
   21.2529  -17.9233  -14.2901 C   0  0  0  0  0  0  0  0  0  0  0  0
   19.5850  -21.7381  -14.9476 O   0  0  0  0  0  0  0  0  0  0  0  0
   18.4216  -21.4728  -14.4905 O   0  0  0  0  0  0  0  0  0  0  0  0
  2  1  1  6
  2 10  1  0
  2  3  1  0
  3  4  1  0
  4  5  2  0
  5  6  1  0
  7  6  2  0
  8  7  1  0
  9  4  1  0
  9  8  2  0
 10 11  2  0
 13 15  1  0
 13 12  1  0
 14 13  2  0
 16 15  1  0
 16 17  1  0
 18 17  1  0
 19 18  1  1
 20 19  1  0
 20 10  1  0
 21 19  1  0
 22 21  2  0
 23 21  1  0
 24 31  1  0
 24 23  1  0
 24 25  1  6
 25 26  1  0
 26 30  1  0
 26 27  2  0
 27 28  1  0
 29 28  1  0
 30 29  2  0
 31 33  1  0
 32 31  2  0
M  END
$$$$
