FRH.pdb
     RDKit          3D

 33 34  0  0  1  0  0  0  0  0999 V2000
   26.2320  -10.5362  -19.2185 N   0  0  0  0  0  0  0  0  0  0  0  0
   26.0179  -10.6798  -17.7997 C   0  0  1  0  0  0  0  0  0  0  0  0
   26.8986   -9.8149  -16.9505 C   0  0  0  0  0  0  0  0  0  0  0  0
   28.3473   -9.9952  -17.1783 C   0  0  0  0  0  0  0  0  0  0  0  0
   29.1860   -9.0201  -17.6722 C   0  0  0  0  0  0  0  0  0  0  0  0
   30.5440   -9.2435  -17.8662 C   0  0  0  0  0  0  0  0  0  0  0  0
   31.0957  -10.4745  -17.5626 C   0  0  0  0  0  0  0  0  0  0  0  0
   30.2708  -11.4568  -17.0703 C   0  0  0  0  0  0  0  0  0  0  0  0
   28.9264  -11.2290  -16.8794 C   0  0  0  0  0  0  0  0  0  0  0  0
   24.6120  -10.3012  -17.5117 C   0  0  0  0  0  0  0  0  0  0  0  0
   24.0723   -9.3791  -18.1757 O   0  0  0  0  0  0  0  0  0  0  0  0
   18.7297  -15.1399  -18.1543 N   0  0  0  0  0  0  0  0  0  0  0  0
   19.8847  -15.5811  -17.4571 C   0  0  0  0  0  0  0  0  0  0  0  0
   20.3235  -16.7876  -17.6968 N   0  0  0  0  0  0  0  0  0  0  0  0
   20.5121  -14.7186  -16.5416 N   0  0  0  0  0  0  0  0  0  0  0  0
   20.0082  -13.3919  -16.3652 C   0  0  0  0  0  0  0  0  0  0  0  0
   20.9197  -12.3511  -17.0203 C   0  0  0  0  0  0  0  0  0  0  0  0
   21.4555  -11.5112  -15.9361 C   0  0  0  0  0  0  0  0  0  0  0  0
   22.4806  -10.5184  -16.1574 C   0  0  2  0  0  0  0  0  0  0  0  0
   23.8166  -10.9189  -16.5127 N   0  0  0  0  0  0  0  0  0  0  0  0
   22.4912   -9.2920  -15.2887 C   0  0  0  0  0  0  0  0  0  0  0  0
   23.4802   -9.0249  -14.5527 O   0  0  0  0  0  0  0  0  0  0  0  0
   21.1983  -17.1266  -17.2543 N   0  0  0  0  0  0  0  0  0  0  0  0
   21.4238   -8.3816  -15.2429 C   0  0  1  0  0  0  0  0  0  0  0  0
   21.6295   -6.9244  -14.9980 C   0  0  0  0  0  0  0  0  0  0  0  0
   22.7505   -6.4432  -15.8463 C   0  0  0  0  0  0  0  0  0  0  0  0
   23.0133   -5.0089  -15.6456 C   0  0  0  0  0  0  0  0  0  0  0  0
   22.7005   -4.3492  -14.4414 N   0  0  0  0  0  0  0  0  0  0  0  0
   23.0495   -3.0651  -14.5862 C   0  0  0  0  0  0  0  0  0  0  0  0
   23.5668   -2.8655  -15.8124 N   0  0  0  0  0  0  0  0  0  0  0  0
   23.5250   -4.0631  -16.4139 C   0  0  0  0  0  0  0  0  0  0  0  0
   20.3442   -6.2398  -15.1402 O   0  0  0  0  0  0  0  0  0  0  0  0
   20.2704   -4.9921  -14.8747 O   0  0  0  0  0  0  0  0  0  0  0  0
  2  1  1  6
  2 10  1  0
  2  3  1  0
  3  4  1  0
  4  5  2  0
  5  6  1  0
  7  6  2  0
  8  7  1  0
  9  4  1  0
  9  8  2  0
 10 11  2  0
 13 15  1  0
 13 12  1  0
 14 13  2  0
 16 15  1  0
 16 17  1  0
 18 17  1  0
 19 18  1  1
 20 19  1  0
 20 10  1  0
 21 19  1  0
 22 21  2  0
 23 21  1  0
 24 31  1  0
 24 23  1  0
 24 25  1  1
 25 26  1  0
 26 30  1  0
 26 27  2  0
 27 28  1  0
 29 28  1  0
 30 29  2  0
 31 33  1  0
 32 31  2  0
M  END
$$$$
