FRH.pdb
     RDKit          3D

 33 34  0  0  1  0  0  0  0  0999 V2000
   28.8439  -20.5888   -9.5373 N   0  0  0  0  0  0  0  0  0  0  0  0
   27.4726  -21.0029   -9.3722 C   0  0  1  0  0  0  0  0  0  0  0  0
   26.7610  -20.3448   -8.2297 C   0  0  0  0  0  0  0  0  0  0  0  0
   27.5804  -20.1611   -7.0140 C   0  0  0  0  0  0  0  0  0  0  0  0
   27.1042  -19.6639   -5.8206 C   0  0  0  0  0  0  0  0  0  0  0  0
   27.9202  -19.5125   -4.7058 C   0  0  0  0  0  0  0  0  0  0  0  0
   29.2559  -19.8641   -4.7700 C   0  0  0  0  0  0  0  0  0  0  0  0
   29.7449  -20.3603   -5.9542 C   0  0  0  0  0  0  0  0  0  0  0  0
   28.9311  -20.5087   -7.0549 C   0  0  0  0  0  0  0  0  0  0  0  0
   26.7393  -20.6523  -10.6140 C   0  0  0  0  0  0  0  0  0  0  0  0
   26.3832  -19.4611  -10.8055 O   0  0  0  0  0  0  0  0  0  0  0  0
   29.5744  -24.2279  -15.6668 N   0  0  0  0  0  0  0  0  0  0  0  0
   28.2715  -24.2318  -16.2301 C   0  0  0  0  0  0  0  0  0  0  0  0
   27.7702  -25.3762  -16.6108 N   0  0  0  0  0  0  0  0  0  0  0  0
   27.5700  -23.0207  -16.3604 N   0  0  0  0  0  0  0  0  0  0  0  0
   28.0854  -21.8386  -15.7421 C   0  0  0  0  0  0  0  0  0  0  0  0
   27.7687  -21.8018  -14.2449 C   0  0  0  0  0  0  0  0  0  0  0  0
   26.3482  -21.4353  -14.1188 C   0  0  0  0  0  0  0  0  0  0  0  0
   25.6982  -21.2762  -12.8391 C   0  0  2  0  0  0  0  0  0  0  0  0
   26.4001  -21.5904  -11.6225 N   0  0  0  0  0  0  0  0  0  0  0  0
   24.2376  -21.6136  -12.7292 C   0  0  0  0  0  0  0  0  0  0  0  0
   23.7871  -22.2341  -11.7278 O   0  0  0  0  0  0  0  0  0  0  0  0
   26.8388  -25.4171  -17.0654 N   0  0  0  0  0  0  0  0  0  0  0  0
   23.2992  -21.2648  -13.7130 C   0  0  2  0  0  0  0  0  0  0  0  0
   21.9020  -20.8653  -13.3753 C   0  0  0  0  0  0  0  0  0  0  0  0
   21.9399  -19.7540  -12.3896 C   0  0  0  0  0  0  0  0  0  0  0  0
   20.5891  -19.2851  -12.0401 C   0  0  0  0  0  0  0  0  0  0  0  0
   19.6278  -20.1320  -11.4555 N   0  0  0  0  0  0  0  0  0  0  0  0
   18.5150  -19.4102  -11.2757 C   0  0  0  0  0  0  0  0  0  0  0  0
   18.7088  -18.1518  -11.7113 N   0  0  0  0  0  0  0  0  0  0  0  0
   19.9711  -18.1234  -12.1625 C   0  0  0  0  0  0  0  0  0  0  0  0
   21.1692  -20.6284  -14.6194 O   0  0  0  0  0  0  0  0  0  0  0  0
   21.7786  -20.0992  -15.6101 O   0  0  0  0  0  0  0  0  0  0  0  0
  2  1  1  6
  2 10  1  0
  2  3  1  0
  3  4  1  0
  4  5  2  0
  5  6  1  0
  7  6  2  0
  8  7  1  0
  9  4  1  0
  9  8  2  0
 10 11  2  0
 13 15  1  0
 13 12  1  0
 14 13  2  0
 16 15  1  0
 16 17  1  0
 18 17  1  0
 19 18  1  6
 20 19  1  0
 20 10  1  0
 21 19  1  0
 22 21  2  0
 23 21  1  0
 24 31  1  0
 24 23  1  0
 24 25  1  6
 25 26  1  0
 26 30  1  0
 26 27  2  0
 27 28  1  0
 29 28  1  0
 30 29  2  0
 31 33  1  0
 32 31  2  0
M  END
$$$$
