MVQ.pdb
     RDKit          3D

 25 24  0  0  1  0  0  0  0  0999 V2000
   28.3803  -18.6860   -6.9230 C   0  0  0  0  0  0  0  0  0  0  0  0
   27.4085  -20.2066   -6.8932 S   0  0  0  0  0  0  0  0  0  0  0  0
   27.3178  -20.9252   -8.5419 C   0  0  0  0  0  0  0  0  0  0  0  0
   26.1017  -20.4299   -9.2831 C   0  0  0  0  0  0  0  0  0  0  0  0
   26.1083  -21.0137  -10.6925 C   0  0  2  0  0  0  0  0  0  0  0  0
   27.3226  -20.5192  -11.3495 N   0  0  0  0  0  0  0  0  0  0  0  0
   24.8953  -20.5256  -11.4031 C   0  0  0  0  0  0  0  0  0  0  0  0
   24.5938  -19.3271  -11.3520 O   0  0  0  0  0  0  0  0  0  0  0  0
   22.0290  -20.6946  -15.1863 C   0  0  0  0  0  0  0  0  0  0  0  0
   23.2365  -21.0457  -14.3714 C   0  0  1  0  0  0  0  0  0  0  0  0
   24.2667  -19.9521  -14.6126 C   0  0  0  0  0  0  0  0  0  0  0  0
   22.9154  -21.0316  -12.9100 C   0  0  2  0  0  0  0  0  0  0  0  0
   24.0927  -21.4251  -12.1318 N   0  0  0  0  0  0  0  0  0  0  0  0
   21.8186  -21.9043  -12.4763 C   0  0  0  0  0  0  0  0  0  0  0  0
   22.1132  -23.1417  -12.2741 O   0  0  0  0  0  0  0  0  0  0  0  0
   19.5424  -23.5300   -7.9989 N   0  0  0  0  0  0  0  0  0  0  0  0
   18.3549  -23.9056   -8.6565 C   0  0  0  0  0  0  0  0  0  0  0  0
   17.5813  -24.7251   -8.1258 O   0  0  0  0  0  0  0  0  0  0  0  0
   18.0118  -23.3324   -9.9837 C   0  0  0  0  0  0  0  0  0  0  0  0
   19.0792  -22.3814  -10.4368 C   0  0  0  0  0  0  0  0  0  0  0  0
   19.5190  -22.5938  -11.8419 C   0  0  2  0  0  0  0  0  0  0  0  0
   20.4840  -21.5756  -12.2458 N   0  0  0  0  0  0  0  0  0  0  0  0
   18.3919  -22.5117  -12.7911 C   0  0  0  0  0  0  0  0  0  0  0  0
   17.6031  -23.6459  -13.0952 O   0  0  0  0  0  0  0  0  0  0  0  0
   18.0318  -21.4740  -13.4003 O   0  0  0  0  0  0  0  0  0  0  0  0
  2  1  1  0
  3  4  1  0
  3  2  1  0
  4  5  1  0
  5  6  1  6
  7  8  2  0
  7  5  1  0
 10 12  1  0
 10  9  1  6
 11 10  1  0
 12 13  1  1
 13  7  1  0
 14 15  2  0
 14 12  1  0
 16 17  1  0
 17 18  2  0
 19 17  1  0
 19 20  1  0
 21 20  1  1
 21 22  1  0
 22 14  1  0
 23 21  1  0
 24 23  1  0
 25 23  2  0
M  END
$$$$
