MVQ.pdb
     RDKit          3D

 25 24  0  0  1  0  0  0  0  0999 V2000
   24.6112  -12.0459  -22.2934 C   0  0  0  0  0  0  0  0  0  0  0  0
   26.1946  -12.5643  -21.5995 S   0  0  0  0  0  0  0  0  0  0  0  0
   25.9731  -13.1772  -19.9209 C   0  0  0  0  0  0  0  0  0  0  0  0
   24.8096  -12.4971  -19.2445 C   0  0  0  0  0  0  0  0  0  0  0  0
   24.6850  -13.0281  -17.8198 C   0  0  2  0  0  0  0  0  0  0  0  0
   24.4879  -14.4776  -17.9244 N   0  0  0  0  0  0  0  0  0  0  0  0
   23.5018  -12.3853  -17.1863 C   0  0  0  0  0  0  0  0  0  0  0  0
   22.3803  -12.8872  -17.3282 O   0  0  0  0  0  0  0  0  0  0  0  0
   20.9430  -10.7187  -13.8792 C   0  0  0  0  0  0  0  0  0  0  0  0
   21.9658  -11.4409  -14.7023 C   0  0  1  0  0  0  0  0  0  0  0  0
   21.2318  -12.5408  -15.4554 C   0  0  0  0  0  0  0  0  0  0  0  0
   22.5638  -10.5303  -15.7280 C   0  0  2  0  0  0  0  0  0  0  0  0
   23.6580  -11.2089  -16.4273 N   0  0  0  0  0  0  0  0  0  0  0  0
   23.1091   -9.2615  -15.2330 C   0  0  0  0  0  0  0  0  0  0  0  0
   24.3792   -9.0915  -15.3622 O   0  0  0  0  0  0  0  0  0  0  0  0
   23.7008   -5.3705  -18.4895 N   0  0  0  0  0  0  0  0  0  0  0  0
   24.0834   -4.5427  -17.4163 C   0  0  0  0  0  0  0  0  0  0  0  0
   24.6215   -3.4417  -17.6399 O   0  0  0  0  0  0  0  0  0  0  0  0
   23.8514   -4.9695  -16.0121 C   0  0  0  0  0  0  0  0  0  0  0  0
   23.3094   -6.3672  -15.9708 C   0  0  0  0  0  0  0  0  0  0  0  0
   23.0234   -6.8625  -14.5977 C   0  0  2  0  0  0  0  0  0  0  0  0
   22.4343   -8.1976  -14.6371 N   0  0  0  0  0  0  0  0  0  0  0  0
   22.0638   -5.9952  -13.8871 C   0  0  0  0  0  0  0  0  0  0  0  0
   22.5039   -4.9340  -13.0617 O   0  0  0  0  0  0  0  0  0  0  0  0
   20.8135   -6.1036  -13.9384 O   0  0  0  0  0  0  0  0  0  0  0  0
  2  1  1  0
  3  4  1  0
  3  2  1  0
  4  5  1  0
  5  6  1  6
  7  8  2  0
  7  5  1  0
 10 12  1  0
 10  9  1  1
 11 10  1  0
 12 13  1  1
 13  7  1  0
 14 15  2  0
 14 12  1  0
 16 17  1  0
 17 18  2  0
 19 17  1  0
 19 20  1  0
 21 20  1  6
 21 22  1  0
 22 14  1  0
 23 21  1  0
 24 23  1  0
 25 23  2  0
M  END
$$$$
