MVQ.pdb
     RDKit          3D

 25 24  0  0  1  0  0  0  0  0999 V2000
   18.3805  -11.1893  -21.6169 C   0  0  0  0  0  0  0  0  0  0  0  0
   17.7651  -12.8854  -21.5707 S   0  0  0  0  0  0  0  0  0  0  0  0
   18.8257  -13.9092  -20.5365 C   0  0  0  0  0  0  0  0  0  0  0  0
   19.1003  -13.2412  -19.2128 C   0  0  0  0  0  0  0  0  0  0  0  0
   20.0157  -14.1383  -18.3853 C   0  0  2  0  0  0  0  0  0  0  0  0
   19.2381  -15.3330  -18.0405 N   0  0  0  0  0  0  0  0  0  0  0  0
   20.4049  -13.3965  -17.1554 C   0  0  0  0  0  0  0  0  0  0  0  0
   19.6242  -13.3423  -16.1975 O   0  0  0  0  0  0  0  0  0  0  0  0
   24.0912  -11.5302  -14.4952 C   0  0  0  0  0  0  0  0  0  0  0  0
   23.5589  -12.3574  -15.6256 C   0  0  1  0  0  0  0  0  0  0  0  0
   23.5805  -13.8067  -15.1621 C   0  0  0  0  0  0  0  0  0  0  0  0
   22.1325  -12.0100  -15.9144 C   0  0  2  0  0  0  0  0  0  0  0  0
   21.6583  -12.7579  -17.0817 N   0  0  0  0  0  0  0  0  0  0  0  0
   21.8485  -10.5957  -16.1822 C   0  0  0  0  0  0  0  0  0  0  0  0
   22.4182  -10.0800  -17.2158 O   0  0  0  0  0  0  0  0  0  0  0  0
   16.7948   -7.3148  -16.2766 N   0  0  0  0  0  0  0  0  0  0  0  0
   17.7261   -6.2679  -16.4189 C   0  0  0  0  0  0  0  0  0  0  0  0
   17.3301   -5.1068  -16.6352 O   0  0  0  0  0  0  0  0  0  0  0  0
   19.1842   -6.5335  -16.3135 C   0  0  0  0  0  0  0  0  0  0  0  0
   19.4350   -7.9874  -16.0438 C   0  0  0  0  0  0  0  0  0  0  0  0
   20.8733   -8.3316  -15.8847 C   0  0  2  0  0  0  0  0  0  0  0  0
   21.0338   -9.7208  -15.4660 N   0  0  0  0  0  0  0  0  0  0  0  0
   21.5294   -7.4995  -14.8574 C   0  0  0  0  0  0  0  0  0  0  0  0
   22.0027   -6.2003  -15.1563 O   0  0  0  0  0  0  0  0  0  0  0  0
   21.7270   -7.8419  -13.6653 O   0  0  0  0  0  0  0  0  0  0  0  0
  2  1  1  0
  3  4  1  0
  3  2  1  0
  4  5  1  0
  5  6  1  1
  7  8  2  0
  7  5  1  0
 10 12  1  0
 10  9  1  1
 11 10  1  0
 12 13  1  6
 13  7  1  0
 14 15  2  0
 14 12  1  0
 16 17  1  0
 17 18  2  0
 19 17  1  0
 19 20  1  0
 21 20  1  1
 21 22  1  0
 22 14  1  0
 23 21  1  0
 24 23  1  0
 25 23  2  0
M  END
$$$$
