MVQ.pdb
     RDKit          3D

 25 24  0  0  1  0  0  0  0  0999 V2000
   27.1421  -18.0763   -7.5484 C   0  0  0  0  0  0  0  0  0  0  0  0
   27.2035  -19.7656   -6.9159 S   0  0  0  0  0  0  0  0  0  0  0  0
   26.5546  -20.9170   -8.1389 C   0  0  0  0  0  0  0  0  0  0  0  0
   26.5384  -20.2963   -9.5131 C   0  0  0  0  0  0  0  0  0  0  0  0
   26.0882  -21.3451  -10.5254 C   0  0  2  0  0  0  0  0  0  0  0  0
   27.1600  -22.3428  -10.6059 N   0  0  0  0  0  0  0  0  0  0  0  0
   25.9024  -20.6722  -11.8397 C   0  0  0  0  0  0  0  0  0  0  0  0
   26.8901  -20.3029  -12.4861 O   0  0  0  0  0  0  0  0  0  0  0  0
   23.2353  -21.5520  -15.6675 C   0  0  0  0  0  0  0  0  0  0  0  0
   23.6913  -21.6623  -14.2444 C   0  0  1  0  0  0  0  0  0  0  0  0
   24.8024  -22.7017  -14.2148 C   0  0  0  0  0  0  0  0  0  0  0  0
   24.2845  -20.3720  -13.7735 C   0  0  2  0  0  0  0  0  0  0  0  0
   24.6059  -20.4564  -12.3465 N   0  0  0  0  0  0  0  0  0  0  0  0
   23.4549  -19.1739  -13.9435 C   0  0  0  0  0  0  0  0  0  0  0  0
   22.3877  -19.1063  -13.2258 O   0  0  0  0  0  0  0  0  0  0  0  0
   24.4721  -13.5233  -16.5177 N   0  0  0  0  0  0  0  0  0  0  0  0
   23.1087  -13.4394  -16.1748 C   0  0  0  0  0  0  0  0  0  0  0  0
   22.4856  -12.3758  -16.3543 O   0  0  0  0  0  0  0  0  0  0  0  0
   22.4005  -14.6113  -15.5980 C   0  0  0  0  0  0  0  0  0  0  0  0
   23.3507  -15.7551  -15.4026 C   0  0  0  0  0  0  0  0  0  0  0  0
   22.7202  -16.9696  -14.8194 C   0  0  2  0  0  0  0  0  0  0  0  0
   23.6655  -18.0814  -14.7829 N   0  0  0  0  0  0  0  0  0  0  0  0
   21.5605  -17.4235  -15.6114 C   0  0  0  0  0  0  0  0  0  0  0  0
   20.2405  -17.0582  -15.2573 O   0  0  0  0  0  0  0  0  0  0  0  0
   21.6214  -18.1482  -16.6354 O   0  0  0  0  0  0  0  0  0  0  0  0
  2  1  1  0
  3  4  1  0
  3  2  1  0
  4  5  1  0
  5  6  1  6
  7  8  2  0
  7  5  1  0
 10 12  1  0
 10  9  1  6
 11 10  1  0
 12 13  1  1
 13  7  1  0
 14 15  2  0
 14 12  1  0
 16 17  1  0
 17 18  2  0
 19 17  1  0
 19 20  1  0
 21 20  1  6
 21 22  1  0
 22 14  1  0
 23 21  1  0
 24 23  1  0
 25 23  2  0
M  END
$$$$
