MVQ.pdb
     RDKit          3D

 25 24  0  0  1  0  0  0  0  0999 V2000
   19.9619  -18.0158  -17.1060 C   0  0  0  0  0  0  0  0  0  0  0  0
   20.8545  -16.5551  -17.6777 S   0  0  0  0  0  0  0  0  0  0  0  0
   22.5719  -16.9672  -18.0290 C   0  0  0  0  0  0  0  0  0  0  0  0
   23.0615  -18.0685  -17.1227 C   0  0  0  0  0  0  0  0  0  0  0  0
   24.5633  -18.2452  -17.3242 C   0  0  2  0  0  0  0  0  0  0  0  0
   24.7524  -18.7241  -18.6974 N   0  0  0  0  0  0  0  0  0  0  0  0
   25.0468  -19.2585  -16.3474 C   0  0  0  0  0  0  0  0  0  0  0  0
   24.4899  -20.3607  -16.2788 O   0  0  0  0  0  0  0  0  0  0  0  0
   28.8351  -20.6326  -13.5013 C   0  0  0  0  0  0  0  0  0  0  0  0
   28.2191  -19.8216  -14.6005 C   0  0  1  0  0  0  0  0  0  0  0  0
   28.6712  -20.4414  -15.9147 C   0  0  0  0  0  0  0  0  0  0  0  0
   26.7264  -19.9170  -14.5607 C   0  0  2  0  0  0  0  0  0  0  0  0
   26.1354  -18.9637  -15.5033 N   0  0  0  0  0  0  0  0  0  0  0  0
   26.0927  -19.6657  -13.2615 C   0  0  0  0  0  0  0  0  0  0  0  0
   25.7281  -18.4535  -13.0240 O   0  0  0  0  0  0  0  0  0  0  0  0
   22.1005  -19.9334  -13.3530 N   0  0  0  0  0  0  0  0  0  0  0  0
   22.0187  -20.9915  -12.4270 C   0  0  0  0  0  0  0  0  0  0  0  0
   21.2275  -21.9330  -12.6251 O   0  0  0  0  0  0  0  0  0  0  0  0
   22.8701  -20.9981  -11.2093 C   0  0  0  0  0  0  0  0  0  0  0  0
   23.7707  -19.7989  -11.1917 C   0  0  0  0  0  0  0  0  0  0  0  0
   25.2072  -20.1268  -10.9880 C   0  0  2  0  0  0  0  0  0  0  0  0
   25.8231  -20.5693  -12.2353 N   0  0  0  0  0  0  0  0  0  0  0  0
   25.3908  -21.2189  -10.0124 C   0  0  0  0  0  0  0  0  0  0  0  0
   24.9658  -21.0842   -8.6699 O   0  0  0  0  0  0  0  0  0  0  0  0
   25.9193  -22.3310  -10.2606 O   0  0  0  0  0  0  0  0  0  0  0  0
  2  1  1  0
  3  4  1  0
  3  2  1  0
  4  5  1  0
  5  6  1  6
  7  8  2  0
  7  5  1  0
 10 12  1  0
 10  9  1  1
 11 10  1  0
 12 13  1  6
 13  7  1  0
 14 15  2  0
 14 12  1  0
 16 17  1  0
 17 18  2  0
 19 17  1  0
 19 20  1  0
 21 20  1  6
 21 22  1  0
 22 14  1  0
 23 21  1  0
 24 23  1  0
 25 23  2  0
M  END
$$$$
