MVQ.pdb
     RDKit          3D

 25 24  0  0  1  0  0  0  0  0999 V2000
   23.7121  -28.0813  -17.1098 C   0  0  0  0  0  0  0  0  0  0  0  0
   23.0839  -27.3332  -18.6274 S   0  0  0  0  0  0  0  0  0  0  0  0
   23.5599  -25.5987  -18.7152 C   0  0  0  0  0  0  0  0  0  0  0  0
   23.3798  -24.9189  -17.3813 C   0  0  0  0  0  0  0  0  0  0  0  0
   23.7029  -23.4357  -17.5333 C   0  0  2  0  0  0  0  0  0  0  0  0
   25.1428  -23.3412  -17.7950 N   0  0  0  0  0  0  0  0  0  0  0  0
   23.3589  -22.7523  -16.2569 C   0  0  0  0  0  0  0  0  0  0  0  0
   24.1924  -22.6986  -15.3445 O   0  0  0  0  0  0  0  0  0  0  0  0
   20.8237  -19.2703  -14.0661 C   0  0  0  0  0  0  0  0  0  0  0  0
   21.4405  -19.9938  -15.2243 C   0  0  1  0  0  0  0  0  0  0  0  0
   22.8049  -19.3640  -15.4640 C   0  0  0  0  0  0  0  0  0  0  0  0
   21.6742  -21.4334  -14.8897 C   0  0  2  0  0  0  0  0  0  0  0  0
   22.0883  -22.1682  -16.0877 N   0  0  0  0  0  0  0  0  0  0  0  0
   20.5335  -22.1640  -14.3263 C   0  0  0  0  0  0  0  0  0  0  0  0
   19.6341  -22.5582  -15.1597 O   0  0  0  0  0  0  0  0  0  0  0  0
   19.2953  -24.6673   -8.6618 N   0  0  0  0  0  0  0  0  0  0  0  0
   18.0564  -24.7999   -9.3183 C   0  0  0  0  0  0  0  0  0  0  0  0
   17.0796  -25.2821   -8.7139 O   0  0  0  0  0  0  0  0  0  0  0  0
   17.8995  -24.3688  -10.7315 C   0  0  0  0  0  0  0  0  0  0  0  0
   19.1546  -23.7108  -11.2222 C   0  0  0  0  0  0  0  0  0  0  0  0
   19.0589  -23.1912  -12.6127 C   0  0  2  0  0  0  0  0  0  0  0  0
   20.2855  -22.4990  -12.9963 N   0  0  0  0  0  0  0  0  0  0  0  0
   17.9577  -22.2204  -12.7643 C   0  0  0  0  0  0  0  0  0  0  0  0
   16.7449  -22.5778  -13.3989 O   0  0  0  0  0  0  0  0  0  0  0  0
   17.9810  -21.0301  -12.3641 O   0  0  0  0  0  0  0  0  0  0  0  0
  2  1  1  0
  3  4  1  0
  3  2  1  0
  4  5  1  0
  5  6  1  1
  7  8  2  0
  7  5  1  0
 10 12  1  0
 10  9  1  1
 11 10  1  0
 12 13  1  6
 13  7  1  0
 14 15  2  0
 14 12  1  0
 16 17  1  0
 17 18  2  0
 19 17  1  0
 19 20  1  0
 21 20  1  1
 21 22  1  0
 22 14  1  0
 23 21  1  0
 24 23  1  0
 25 23  2  0
M  END
$$$$
