MVQ.pdb
     RDKit          3D

 25 24  0  0  1  0  0  0  0  0999 V2000
   32.0448  -16.1241  -18.5022 C   0  0  0  0  0  0  0  0  0  0  0  0
   30.3571  -16.3467  -19.1020 S   0  0  0  0  0  0  0  0  0  0  0  0
   29.3584  -14.8988  -18.7161 C   0  0  0  0  0  0  0  0  0  0  0  0
   30.1263  -13.6266  -18.9718 C   0  0  0  0  0  0  0  0  0  0  0  0
   29.2495  -12.4350  -18.5996 C   0  0  2  0  0  0  0  0  0  0  0  0
   28.0148  -12.5578  -19.3814 N   0  0  0  0  0  0  0  0  0  0  0  0
   29.9775  -11.1900  -18.9666 C   0  0  0  0  0  0  0  0  0  0  0  0
   30.7821  -11.2029  -19.9059 O   0  0  0  0  0  0  0  0  0  0  0  0
   29.8186   -6.3554  -19.1437 C   0  0  0  0  0  0  0  0  0  0  0  0
   29.2555   -7.7303  -18.9493 C   0  0  1  0  0  0  0  0  0  0  0  0
   28.6804   -8.1666  -20.2889 C   0  0  0  0  0  0  0  0  0  0  0  0
   30.3361   -8.7036  -18.5975 C   0  0  2  0  0  0  0  0  0  0  0  0
   29.7513  -10.0004  -18.2468 N   0  0  0  0  0  0  0  0  0  0  0  0
   31.2135   -8.3273  -17.4834 C   0  0  0  0  0  0  0  0  0  0  0  0
   30.9026   -8.7928  -16.3235 O   0  0  0  0  0  0  0  0  0  0  0  0
   35.8160  -10.4974  -15.5758 N   0  0  0  0  0  0  0  0  0  0  0  0
   35.9801   -9.3400  -14.7902 C   0  0  0  0  0  0  0  0  0  0  0  0
   36.9057   -9.2776  -13.9588 O   0  0  0  0  0  0  0  0  0  0  0  0
   35.0570   -8.1858  -14.9422 C   0  0  0  0  0  0  0  0  0  0  0  0
   34.1252   -8.4071  -16.0963 C   0  0  0  0  0  0  0  0  0  0  0  0
   33.1421   -7.3088  -16.2964 C   0  0  2  0  0  0  0  0  0  0  0  0
   32.3548   -7.5278  -17.5061 N   0  0  0  0  0  0  0  0  0  0  0  0
   33.8029   -5.9982  -16.4509 C   0  0  0  0  0  0  0  0  0  0  0  0
   34.1692   -5.2228  -15.3258 O   0  0  0  0  0  0  0  0  0  0  0  0
   34.0958   -5.4591  -17.5468 O   0  0  0  0  0  0  0  0  0  0  0  0
  2  1  1  0
  3  4  1  0
  3  2  1  0
  4  5  1  0
  5  6  1  6
  7  8  2  0
  7  5  1  0
 10 12  1  0
 10  9  1  6
 11 10  1  0
 12 13  1  1
 13  7  1  0
 14 15  2  0
 14 12  1  0
 16 17  1  0
 17 18  2  0
 19 17  1  0
 19 20  1  0
 21 20  1  6
 21 22  1  0
 22 14  1  0
 23 21  1  0
 24 23  1  0
 25 23  2  0
M  END
$$$$
