MVQ.pdb
     RDKit          3D

 25 24  0  0  1  0  0  0  0  0999 V2000
   17.6444  -12.6767  -20.6918 C   0  0  0  0  0  0  0  0  0  0  0  0
   17.7334  -14.4792  -20.6744 S   0  0  0  0  0  0  0  0  0  0  0  0
   19.1080  -15.0294  -19.6496 C   0  0  0  0  0  0  0  0  0  0  0  0
   19.3486  -14.0749  -18.5073 C   0  0  0  0  0  0  0  0  0  0  0  0
   20.5488  -14.5603  -17.7003 C   0  0  2  0  0  0  0  0  0  0  0  0
   20.2054  -15.8919  -17.1907 N   0  0  0  0  0  0  0  0  0  0  0  0
   20.7661  -13.6113  -16.5747 C   0  0  0  0  0  0  0  0  0  0  0  0
   20.0865  -13.7120  -15.5462 O   0  0  0  0  0  0  0  0  0  0  0  0
   24.3401  -11.3432  -16.6082 C   0  0  0  0  0  0  0  0  0  0  0  0
   23.6107  -11.7707  -15.3710 C   0  0  1  0  0  0  0  0  0  0  0  0
   23.9473  -10.7579  -14.2863 C   0  0  0  0  0  0  0  0  0  0  0  0
   22.1301  -11.7150  -15.5795 C   0  0  2  0  0  0  0  0  0  0  0  0
   21.7426  -12.6015  -16.6798 N   0  0  0  0  0  0  0  0  0  0  0  0
   21.5655  -10.3965  -15.8882 C   0  0  0  0  0  0  0  0  0  0  0  0
   21.6810   -9.9916  -17.1053 O   0  0  0  0  0  0  0  0  0  0  0  0
   16.3417   -7.7376  -14.4311 N   0  0  0  0  0  0  0  0  0  0  0  0
   16.9569   -6.6583  -15.0947 C   0  0  0  0  0  0  0  0  0  0  0  0
   16.3138   -5.6145  -15.3154 O   0  0  0  0  0  0  0  0  0  0  0  0
   18.3722   -6.7504  -15.5372 C   0  0  0  0  0  0  0  0  0  0  0  0
   18.9421   -8.0955  -15.1976 C   0  0  0  0  0  0  0  0  0  0  0  0
   20.3839   -8.2415  -15.5335 C   0  0  2  0  0  0  0  0  0  0  0  0
   20.9091   -9.5097  -15.0366 N   0  0  0  0  0  0  0  0  0  0  0  0
   21.2027   -7.1748  -14.9254 C   0  0  0  0  0  0  0  0  0  0  0  0
   21.2901   -5.8906  -15.5123 O   0  0  0  0  0  0  0  0  0  0  0  0
   21.8766   -7.2903  -13.8718 O   0  0  0  0  0  0  0  0  0  0  0  0
  2  1  1  0
  3  4  1  0
  3  2  1  0
  4  5  1  0
  5  6  1  1
  7  8  2  0
  7  5  1  0
 10 12  1  0
 10  9  1  6
 11 10  1  0
 12 13  1  6
 13  7  1  0
 14 15  2  0
 14 12  1  0
 16 17  1  0
 17 18  2  0
 19 17  1  0
 19 20  1  0
 21 20  1  1
 21 22  1  0
 22 14  1  0
 23 21  1  0
 24 23  1  0
 25 23  2  0
M  END
$$$$
