MVQ.pdb
     RDKit          3D

 25 24  0  0  1  0  0  0  0  0999 V2000
   20.7591  -23.5771  -17.4024 C   0  0  0  0  0  0  0  0  0  0  0  0
   21.8752  -22.5420  -18.3720 S   0  0  0  0  0  0  0  0  0  0  0  0
   23.4162  -22.2743  -17.4796 C   0  0  0  0  0  0  0  0  0  0  0  0
   23.2906  -22.7043  -16.0398 C   0  0  0  0  0  0  0  0  0  0  0  0
   24.5902  -22.3786  -15.3101 C   0  0  2  0  0  0  0  0  0  0  0  0
   25.6040  -23.3099  -15.8158 N   0  0  0  0  0  0  0  0  0  0  0  0
   24.3700  -22.5881  -13.8534 C   0  0  0  0  0  0  0  0  0  0  0  0
   24.6725  -23.6698  -13.3354 O   0  0  0  0  0  0  0  0  0  0  0  0
   23.7989  -20.4839   -9.4690 C   0  0  0  0  0  0  0  0  0  0  0  0
   24.1794  -20.4860  -10.9183 C   0  0  1  0  0  0  0  0  0  0  0  0
   25.6911  -20.6491  -10.9790 C   0  0  0  0  0  0  0  0  0  0  0  0
   23.5822  -21.6624  -11.6241 C   0  0  2  0  0  0  0  0  0  0  0  0
   23.8189  -21.5580  -13.0662 N   0  0  0  0  0  0  0  0  0  0  0  0
   22.1387  -21.8607  -11.4521 C   0  0  0  0  0  0  0  0  0  0  0  0
   21.3840  -21.4610  -12.4162 O   0  0  0  0  0  0  0  0  0  0  0  0
   18.6122  -24.7695   -7.0808 N   0  0  0  0  0  0  0  0  0  0  0  0
   17.6344  -24.1596   -7.8904 C   0  0  0  0  0  0  0  0  0  0  0  0
   16.4262  -24.3043   -7.6239 O   0  0  0  0  0  0  0  0  0  0  0  0
   18.0292  -23.3405   -9.0655 C   0  0  0  0  0  0  0  0  0  0  0  0
   19.5227  -23.2393   -9.1572 C   0  0  0  0  0  0  0  0  0  0  0  0
   20.0063  -22.5572  -10.3875 C   0  0  2  0  0  0  0  0  0  0  0  0
   21.4607  -22.4325  -10.3771 N   0  0  0  0  0  0  0  0  0  0  0  0
   19.4633  -21.1903  -10.5100 C   0  0  0  0  0  0  0  0  0  0  0  0
   18.3209  -20.9215  -11.2998 O   0  0  0  0  0  0  0  0  0  0  0  0
   19.9369  -20.1698   -9.9517 O   0  0  0  0  0  0  0  0  0  0  0  0
  2  1  1  0
  3  4  1  0
  3  2  1  0
  4  5  1  0
  5  6  1  6
  7  8  2  0
  7  5  1  0
 10 12  1  0
 10  9  1  1
 11 10  1  0
 12 13  1  6
 13  7  1  0
 14 15  2  0
 14 12  1  0
 16 17  1  0
 17 18  2  0
 19 17  1  0
 19 20  1  0
 21 20  1  1
 21 22  1  0
 22 14  1  0
 23 21  1  0
 24 23  1  0
 25 23  2  0
M  END
$$$$
