MVQ.pdb
     RDKit          3D

 25 24  0  0  1  0  0  0  0  0999 V2000
   20.6940  -32.6499  -13.8969 C   0  0  0  0  0  0  0  0  0  0  0  0
   21.9617  -32.8427  -15.1669 S   0  0  0  0  0  0  0  0  0  0  0  0
   23.6014  -32.6303  -14.4535 C   0  0  0  0  0  0  0  0  0  0  0  0
   23.7518  -33.4390  -13.1897 C   0  0  0  0  0  0  0  0  0  0  0  0
   25.1110  -33.1366  -12.5665 C   0  0  2  0  0  0  0  0  0  0  0  0
   26.1245  -33.6667  -13.4844 N   0  0  0  0  0  0  0  0  0  0  0  0
   25.1839  -33.8305  -11.2520 C   0  0  0  0  0  0  0  0  0  0  0  0
   25.2517  -35.0649  -11.2117 O   0  0  0  0  0  0  0  0  0  0  0  0
   27.2573  -33.1923   -6.9513 C   0  0  0  0  0  0  0  0  0  0  0  0
   26.9478  -32.9765   -8.4014 C   0  0  1  0  0  0  0  0  0  0  0  0
   28.0218  -33.7046   -9.1965 C   0  0  0  0  0  0  0  0  0  0  0  0
   25.6360  -33.5978   -8.7643 C   0  0  2  0  0  0  0  0  0  0  0  0
   25.1760  -33.0844  -10.0572 N   0  0  0  0  0  0  0  0  0  0  0  0
   24.5340  -33.3910   -7.8180 C   0  0  0  0  0  0  0  0  0  0  0  0
   24.1229  -32.1796   -7.6692 O   0  0  0  0  0  0  0  0  0  0  0  0
   19.2247  -35.2317   -6.5532 N   0  0  0  0  0  0  0  0  0  0  0  0
   19.4866  -34.8517   -5.2225 C   0  0  0  0  0  0  0  0  0  0  0  0
   18.5426  -34.6395   -4.4380 O   0  0  0  0  0  0  0  0  0  0  0  0
   20.8839  -34.7001   -4.7405 C   0  0  0  0  0  0  0  0  0  0  0  0
   21.8551  -34.9945   -5.8447 C   0  0  0  0  0  0  0  0  0  0  0  0
   22.8713  -33.9285   -6.0539 C   0  0  2  0  0  0  0  0  0  0  0  0
   23.8579  -34.3367   -7.0493 N   0  0  0  0  0  0  0  0  0  0  0  0
   23.6162  -33.6260   -4.8162 C   0  0  0  0  0  0  0  0  0  0  0  0
   23.1347  -32.6797   -3.8814 O   0  0  0  0  0  0  0  0  0  0  0  0
   24.7054  -34.1528   -4.4790 O   0  0  0  0  0  0  0  0  0  0  0  0
  2  1  1  0
  3  4  1  0
  3  2  1  0
  4  5  1  0
  5  6  1  6
  7  8  2  0
  7  5  1  0
 10 12  1  0
 10  9  1  1
 11 10  1  0
 12 13  1  6
 13  7  1  0
 14 15  2  0
 14 12  1  0
 16 17  1  0
 17 18  2  0
 19 17  1  0
 19 20  1  0
 21 20  1  1
 21 22  1  0
 22 14  1  0
 23 21  1  0
 24 23  1  0
 25 23  2  0
M  END
$$$$
