MVQ.pdb
     RDKit          3D

 25 24  0  0  1  0  0  0  0  0999 V2000
   17.5970  -15.5754  -18.2597 C   0  0  0  0  0  0  0  0  0  0  0  0
   18.7315  -15.3889  -19.6510 S   0  0  0  0  0  0  0  0  0  0  0  0
   20.4292  -15.6631  -19.1169 C   0  0  0  0  0  0  0  0  0  0  0  0
   20.8060  -14.7199  -18.0024 C   0  0  0  0  0  0  0  0  0  0  0  0
   22.2560  -14.9773  -17.6043 C   0  0  2  0  0  0  0  0  0  0  0  0
   22.3188  -16.3537  -17.1019 N   0  0  0  0  0  0  0  0  0  0  0  0
   22.6210  -14.0133  -16.5309 C   0  0  0  0  0  0  0  0  0  0  0  0
   22.3088  -14.2523  -15.3581 O   0  0  0  0  0  0  0  0  0  0  0  0
   25.5757  -10.4338  -15.0418 C   0  0  0  0  0  0  0  0  0  0  0  0
   25.1807  -11.5621  -15.9452 C   0  0  1  0  0  0  0  0  0  0  0  0
   25.8786  -12.8105  -15.4255 C   0  0  0  0  0  0  0  0  0  0  0  0
   23.7085  -11.8172  -15.8665 C   0  0  2  0  0  0  0  0  0  0  0  0
   23.3199  -12.8324  -16.8489 N   0  0  0  0  0  0  0  0  0  0  0  0
   22.8346  -10.6610  -16.0943 C   0  0  0  0  0  0  0  0  0  0  0  0
   22.8499  -10.1522  -17.2774 O   0  0  0  0  0  0  0  0  0  0  0  0
   17.1706   -9.0551  -14.2736 N   0  0  0  0  0  0  0  0  0  0  0  0
   17.3710   -8.7556  -15.6352 C   0  0  0  0  0  0  0  0  0  0  0  0
   16.3924   -8.5581  -16.3802 O   0  0  0  0  0  0  0  0  0  0  0  0
   18.7441   -8.6719  -16.1968 C   0  0  0  0  0  0  0  0  0  0  0  0
   19.7604   -9.0355  -15.1555 C   0  0  0  0  0  0  0  0  0  0  0  0
   21.1689   -8.8844  -15.6093 C   0  0  2  0  0  0  0  0  0  0  0  0
   21.9752  -10.0294  -15.1971 N   0  0  0  0  0  0  0  0  0  0  0  0
   21.8082   -7.6851  -15.0339 C   0  0  0  0  0  0  0  0  0  0  0  0
   21.5674   -6.3969  -15.5666 O   0  0  0  0  0  0  0  0  0  0  0  0
   22.5966   -7.6828  -14.0562 O   0  0  0  0  0  0  0  0  0  0  0  0
  2  1  1  0
  3  4  1  0
  3  2  1  0
  4  5  1  0
  5  6  1  1
  7  8  2  0
  7  5  1  0
 10 12  1  0
 10  9  1  1
 11 10  1  0
 12 13  1  6
 13  7  1  0
 14 15  2  0
 14 12  1  0
 16 17  1  0
 17 18  2  0
 19 17  1  0
 19 20  1  0
 21 20  1  1
 21 22  1  0
 22 14  1  0
 23 21  1  0
 24 23  1  0
 25 23  2  0
M  END
$$$$
