MVQ.pdb
     RDKit          3D

 25 24  0  0  1  0  0  0  0  0999 V2000
   28.0299  -18.2367   -4.7864 C   0  0  0  0  0  0  0  0  0  0  0  0
   28.7319  -19.8872   -4.5850 S   0  0  0  0  0  0  0  0  0  0  0  0
   28.2506  -20.9454   -5.9602 C   0  0  0  0  0  0  0  0  0  0  0  0
   27.5817  -20.1469   -7.0505 C   0  0  0  0  0  0  0  0  0  0  0  0
   27.2450  -21.0779   -8.2112 C   0  0  2  0  0  0  0  0  0  0  0  0
   28.5109  -21.6632   -8.6650 N   0  0  0  0  0  0  0  0  0  0  0  0
   26.6284  -20.2651   -9.2947 C   0  0  0  0  0  0  0  0  0  0  0  0
   27.1429  -19.1899   -9.6250 O   0  0  0  0  0  0  0  0  0  0  0  0
   25.7943  -21.3383  -13.6307 C   0  0  0  0  0  0  0  0  0  0  0  0
   26.1523  -21.3722  -12.1760 C   0  0  1  0  0  0  0  0  0  0  0  0
   27.5232  -20.7254  -12.0422 C   0  0  0  0  0  0  0  0  0  0  0  0
   25.1971  -20.5466  -11.3730 C   0  0  2  0  0  0  0  0  0  0  0  0
   25.4625  -20.7184   -9.9423 N   0  0  0  0  0  0  0  0  0  0  0  0
   23.7705  -20.8273  -11.5688 C   0  0  0  0  0  0  0  0  0  0  0  0
   23.3270  -21.9290  -11.0702 O   0  0  0  0  0  0  0  0  0  0  0  0
   17.1842  -20.0181  -11.2469 N   0  0  0  0  0  0  0  0  0  0  0  0
   18.1413  -19.1922  -11.8678 C   0  0  0  0  0  0  0  0  0  0  0  0
   18.1892  -17.9782  -11.5923 O   0  0  0  0  0  0  0  0  0  0  0  0
   19.1003  -19.7550  -12.8533 C   0  0  0  0  0  0  0  0  0  0  0  0
   20.5043  -19.3598  -12.5044 C   0  0  0  0  0  0  0  0  0  0  0  0
   21.4317  -20.5113  -12.3407 C   0  0  2  0  0  0  0  0  0  0  0  0
   22.8137  -20.0555  -12.2254 N   0  0  0  0  0  0  0  0  0  0  0  0
   21.3816  -21.4284  -13.4959 C   0  0  0  0  0  0  0  0  0  0  0  0
   20.4516  -22.4931  -13.5492 O   0  0  0  0  0  0  0  0  0  0  0  0
   22.1251  -21.3627  -14.5060 O   0  0  0  0  0  0  0  0  0  0  0  0
  2  1  1  0
  3  4  1  0
  3  2  1  0
  4  5  1  0
  5  6  1  6
  7  8  2  0
  7  5  1  0
 10 12  1  0
 10  9  1  6
 11 10  1  0
 12 13  1  1
 13  7  1  0
 14 15  2  0
 14 12  1  0
 16 17  1  0
 17 18  2  0
 19 17  1  0
 19 20  1  0
 21 20  1  6
 21 22  1  0
 22 14  1  0
 23 21  1  0
 24 23  1  0
 25 23  2  0
M  END
$$$$
