MVQ.pdb
     RDKit          3D

 25 24  0  0  1  0  0  0  0  0999 V2000
   29.1387  -18.0119   -5.3868 C   0  0  0  0  0  0  0  0  0  0  0  0
   27.6364  -18.9541   -5.0513 S   0  0  0  0  0  0  0  0  0  0  0  0
   27.4319  -20.2633   -6.2707 C   0  0  0  0  0  0  0  0  0  0  0  0
   27.0247  -19.6994   -7.6085 C   0  0  0  0  0  0  0  0  0  0  0  0
   26.8125  -20.8499   -8.5876 C   0  0  2  0  0  0  0  0  0  0  0  0
   28.1223  -21.4766   -8.7941 N   0  0  0  0  0  0  0  0  0  0  0  0
   26.2979  -20.2845   -9.8643 C   0  0  0  0  0  0  0  0  0  0  0  0
   26.8407  -19.2889  -10.3585 O   0  0  0  0  0  0  0  0  0  0  0  0
   25.2069  -22.2529  -14.0040 C   0  0  0  0  0  0  0  0  0  0  0  0
   25.5343  -22.1579  -12.5449 C   0  0  1  0  0  0  0  0  0  0  0  0
   27.0507  -22.0948  -12.4345 C   0  0  0  0  0  0  0  0  0  0  0  0
   24.9984  -20.8892  -11.9602 C   0  0  2  0  0  0  0  0  0  0  0  0
   25.1961  -20.8807  -10.5084 N   0  0  0  0  0  0  0  0  0  0  0  0
   23.5747  -20.6179  -12.1883 C   0  0  0  0  0  0  0  0  0  0  0  0
   22.7411  -21.2452  -11.4331 O   0  0  0  0  0  0  0  0  0  0  0  0
   20.4182  -16.3047  -15.5457 N   0  0  0  0  0  0  0  0  0  0  0  0
   19.3779  -17.1354  -15.0858 C   0  0  0  0  0  0  0  0  0  0  0  0
   18.1965  -16.8776  -15.3849 O   0  0  0  0  0  0  0  0  0  0  0  0
   19.6748  -18.3227  -14.2434 C   0  0  0  0  0  0  0  0  0  0  0  0
   21.1558  -18.4955  -14.0826 C   0  0  0  0  0  0  0  0  0  0  0  0
   21.5388  -19.6572  -13.2362 C   0  0  2  0  0  0  0  0  0  0  0  0
   22.9902  -19.7612  -13.1192 N   0  0  0  0  0  0  0  0  0  0  0  0
   21.0657  -20.9342  -13.8052 C   0  0  0  0  0  0  0  0  0  0  0  0
   19.8699  -21.5412  -13.3548 O   0  0  0  0  0  0  0  0  0  0  0  0
   21.6484  -21.5855  -14.7074 O   0  0  0  0  0  0  0  0  0  0  0  0
  2  1  1  0
  3  4  1  0
  3  2  1  0
  4  5  1  0
  5  6  1  6
  7  8  2  0
  7  5  1  0
 10 12  1  0
 10  9  1  6
 11 10  1  0
 12 13  1  1
 13  7  1  0
 14 15  2  0
 14 12  1  0
 16 17  1  0
 17 18  2  0
 19 17  1  0
 19 20  1  0
 21 20  1  6
 21 22  1  0
 22 14  1  0
 23 21  1  0
 24 23  1  0
 25 23  2  0
M  END
$$$$
