MVQ.pdb
     RDKit          3D

 25 24  0  0  1  0  0  0  0  0999 V2000
   21.8470  -19.7316   -8.2560 C   0  0  0  0  0  0  0  0  0  0  0  0
   22.9623  -20.7882   -7.3089 S   0  0  0  0  0  0  0  0  0  0  0  0
   24.3931  -21.2412   -8.3040 C   0  0  0  0  0  0  0  0  0  0  0  0
   24.3680  -20.5416   -9.6396 C   0  0  0  0  0  0  0  0  0  0  0  0
   25.6125  -20.9358  -10.4290 C   0  0  2  0  0  0  0  0  0  0  0  0
   26.7641  -20.3897   -9.7036 N   0  0  0  0  0  0  0  0  0  0  0  0
   25.5143  -20.3288  -11.7842 C   0  0  0  0  0  0  0  0  0  0  0  0
   25.9428  -19.1847  -11.9777 O   0  0  0  0  0  0  0  0  0  0  0  0
   25.2870  -21.2529  -16.5786 C   0  0  0  0  0  0  0  0  0  0  0  0
   25.4199  -21.6626  -15.1434 C   0  0  1  0  0  0  0  0  0  0  0  0
   26.9080  -21.8069  -14.8601 C   0  0  0  0  0  0  0  0  0  0  0  0
   24.9015  -20.5934  -14.2341 C   0  0  2  0  0  0  0  0  0  0  0  0
   24.9355  -21.0546  -12.8438 N   0  0  0  0  0  0  0  0  0  0  0  0
   23.5319  -20.1320  -14.4866 C   0  0  0  0  0  0  0  0  0  0  0  0
   22.5815  -20.8950  -14.0703 O   0  0  0  0  0  0  0  0  0  0  0  0
   21.1172  -14.5957  -16.2620 N   0  0  0  0  0  0  0  0  0  0  0  0
   19.9607  -15.3935  -16.1634 C   0  0  0  0  0  0  0  0  0  0  0  0
   18.8423  -14.9022  -16.4074 O   0  0  0  0  0  0  0  0  0  0  0  0
   20.0594  -16.8228  -15.7695 C   0  0  0  0  0  0  0  0  0  0  0  0
   21.4893  -17.2018  -15.5222 C   0  0  0  0  0  0  0  0  0  0  0  0
   21.6898  -18.6493  -15.2443 C   0  0  2  0  0  0  0  0  0  0  0  0
   23.1097  -18.9646  -15.1200 N   0  0  0  0  0  0  0  0  0  0  0  0
   21.1592  -19.4980  -16.3289 C   0  0  0  0  0  0  0  0  0  0  0  0
   19.8878  -20.1099  -16.2280 O   0  0  0  0  0  0  0  0  0  0  0  0
   21.7537  -19.7539  -17.4053 O   0  0  0  0  0  0  0  0  0  0  0  0
  2  1  1  0
  3  4  1  0
  3  2  1  0
  4  5  1  0
  5  6  1  1
  7  8  2  0
  7  5  1  0
 10 12  1  0
 10  9  1  6
 11 10  1  0
 12 13  1  1
 13  7  1  0
 14 15  2  0
 14 12  1  0
 16 17  1  0
 17 18  2  0
 19 17  1  0
 19 20  1  0
 21 20  1  6
 21 22  1  0
 22 14  1  0
 23 21  1  0
 24 23  1  0
 25 23  2  0
M  END
$$$$
