GKF.pdb
     RDKit          3D

 25 25  0  0  1  0  0  0  0  0999 V2000
   22.6371  -26.7656  -14.8708 N   0  0  0  0  0  0  0  0  0  0  0  0
   22.2924  -25.3494  -14.9660 C   0  0  0  0  0  0  0  0  0  0  0  0
   23.5009  -24.5673  -14.6788 C   0  0  0  0  0  0  0  0  0  0  0  0
   24.3967  -25.0820  -13.9596 O   0  0  0  0  0  0  0  0  0  0  0  0
   23.6946  -23.2516  -15.1836 N   0  0  0  0  0  0  0  0  0  0  0  0
   24.7835  -22.4734  -14.6921 C   0  0  1  0  0  0  0  0  0  0  0  0
   25.0801  -21.3460  -15.6476 C   0  0  0  0  0  0  0  0  0  0  0  0
   25.5936  -21.8693  -16.9816 C   0  0  0  0  0  0  0  0  0  0  0  0
   25.8466  -20.7150  -17.9262 C   0  0  0  0  0  0  0  0  0  0  0  0
   26.4056  -21.2413  -19.2223 C   0  0  0  0  0  0  0  0  0  0  0  0
   26.5687  -20.1445  -20.1621 N   0  0  0  0  0  0  0  0  0  0  0  0
   24.5040  -22.0015  -13.3240 C   0  0  0  0  0  0  0  0  0  0  0  0
   23.3191  -21.8364  -12.9670 O   0  0  0  0  0  0  0  0  0  0  0  0
   25.5433  -21.7384  -12.4277 N   0  0  0  0  0  0  0  0  0  0  0  0
   25.3486  -21.2601  -11.0644 C   0  0  1  0  0  0  0  0  0  0  0  0
   26.5428  -21.5096  -10.2133 C   0  0  0  0  0  0  0  0  0  0  0  0
   26.4436  -20.7449   -8.9548 C   0  0  0  0  0  0  0  0  0  0  0  0
   25.8642  -21.4170   -7.8723 C   0  0  0  0  0  0  0  0  0  0  0  0
   25.7425  -20.8111   -6.6457 C   0  0  0  0  0  0  0  0  0  0  0  0
   26.1981  -19.5191   -6.4760 C   0  0  0  0  0  0  0  0  0  0  0  0
   26.7684  -18.8594   -7.5432 C   0  0  0  0  0  0  0  0  0  0  0  0
   26.8949  -19.4589   -8.7772 C   0  0  0  0  0  0  0  0  0  0  0  0
   25.0208  -19.8347  -11.1291 C   0  0  0  0  0  0  0  0  0  0  0  0
   25.6208  -19.0972  -11.9460 O   0  0  0  0  0  0  0  0  0  0  0  0
   24.0677  -19.2367  -10.3300 O   0  0  0  0  0  0  0  0  0  0  0  0
  1  2  1  0
  2  3  1  0
  3  4  2  0
  5  6  1  0
  5  3  1  0
  6 12  1  0
  6  7  1  6
  8  7  1  0
  8  9  1  0
 10  9  1  0
 11 10  1  0
 12 14  1  0
 12 13  2  0
 14 15  1  0
 15 23  1  0
 15 16  1  1
 17 16  1  0
 17 18  2  0
 19 18  1  0
 20 19  2  0
 21 22  2  0
 21 20  1  0
 22 17  1  0
 23 24  2  0
 23 25  1  0
M  END
$$$$
