GKF.pdb
     RDKit          3D

 25 25  0  0  1  0  0  0  0  0999 V2000
   24.3246  -12.8070  -18.7267 N   0  0  0  0  0  0  0  0  0  0  0  0
   23.4400  -12.7831  -17.5646 C   0  0  0  0  0  0  0  0  0  0  0  0
   22.7964  -11.4650  -17.5105 C   0  0  0  0  0  0  0  0  0  0  0  0
   23.4898  -10.4437  -17.7572 O   0  0  0  0  0  0  0  0  0  0  0  0
   21.4201  -11.3018  -17.1900 N   0  0  0  0  0  0  0  0  0  0  0  0
   20.8456   -9.9981  -17.2427 C   0  0  1  0  0  0  0  0  0  0  0  0
   19.3431  -10.1024  -17.3051 C   0  0  0  0  0  0  0  0  0  0  0  0
   18.8934  -10.9377  -18.4956 C   0  0  0  0  0  0  0  0  0  0  0  0
   17.4426  -11.3335  -18.3301 C   0  0  0  0  0  0  0  0  0  0  0  0
   17.0097  -12.1574  -19.5146 C   0  0  0  0  0  0  0  0  0  0  0  0
   15.6653  -12.6622  -19.2900 N   0  0  0  0  0  0  0  0  0  0  0  0
   21.3129   -9.1821  -16.1077 C   0  0  0  0  0  0  0  0  0  0  0  0
   21.1901   -9.6261  -14.9473 O   0  0  0  0  0  0  0  0  0  0  0  0
   21.8880   -7.9255  -16.3141 N   0  0  0  0  0  0  0  0  0  0  0  0
   22.3427   -7.0463  -15.2437 C   0  0  1  0  0  0  0  0  0  0  0  0
   23.7851   -6.7082  -15.3789 C   0  0  0  0  0  0  0  0  0  0  0  0
   24.6058   -7.9335  -15.3220 C   0  0  0  0  0  0  0  0  0  0  0  0
   25.5421   -8.0934  -16.3502 C   0  0  0  0  0  0  0  0  0  0  0  0
   26.3763   -9.1839  -16.3850 C   0  0  0  0  0  0  0  0  0  0  0  0
   26.2915  -10.1383  -15.3913 C   0  0  0  0  0  0  0  0  0  0  0  0
   25.3690   -9.9788  -14.3799 C   0  0  0  0  0  0  0  0  0  0  0  0
   24.5281   -8.8883  -14.3364 C   0  0  0  0  0  0  0  0  0  0  0  0
   21.5039   -5.8465  -15.2586 C   0  0  0  0  0  0  0  0  0  0  0  0
   20.7044   -5.6609  -16.2061 O   0  0  0  0  0  0  0  0  0  0  0  0
   21.5359   -4.8841  -14.2699 O   0  0  0  0  0  0  0  0  0  0  0  0
  1  2  1  0
  2  3  1  0
  3  4  2  0
  5  6  1  0
  5  3  1  0
  6 12  1  0
  6  7  1  1
  8  7  1  0
  8  9  1  0
 10  9  1  0
 11 10  1  0
 12 14  1  0
 12 13  2  0
 14 15  1  0
 15 23  1  0
 15 16  1  6
 17 16  1  0
 17 18  2  0
 19 18  1  0
 20 19  2  0
 21 22  2  0
 21 20  1  0
 22 17  1  0
 23 24  2  0
 23 25  1  0
M  END
$$$$
