GKF.pdb
     RDKit          3D

 25 25  0  0  1  0  0  0  0  0999 V2000
   28.2692  -18.6839  -20.4438 N   0  0  0  0  0  0  0  0  0  0  0  0
   28.5785  -18.7084  -19.0164 C   0  0  0  0  0  0  0  0  0  0  0  0
   27.6169  -19.6010  -18.3583 C   0  0  0  0  0  0  0  0  0  0  0  0
   26.4088  -19.5511  -18.7087 O   0  0  0  0  0  0  0  0  0  0  0  0
   28.0015  -20.5180  -17.3411 N   0  0  0  0  0  0  0  0  0  0  0  0
   26.9915  -21.2394  -16.6396 C   0  0  1  0  0  0  0  0  0  0  0  0
   27.5991  -22.4368  -15.9547 C   0  0  0  0  0  0  0  0  0  0  0  0
   28.0001  -23.5073  -16.9599 C   0  0  0  0  0  0  0  0  0  0  0  0
   28.7371  -24.6258  -16.2566 C   0  0  0  0  0  0  0  0  0  0  0  0
   29.1716  -25.6535  -17.2687 C   0  0  0  0  0  0  0  0  0  0  0  0
   29.9025  -26.7164  -16.5986 N   0  0  0  0  0  0  0  0  0  0  0  0
   26.2775  -20.3506  -15.7053 C   0  0  0  0  0  0  0  0  0  0  0  0
   26.9209  -19.7663  -14.8090 O   0  0  0  0  0  0  0  0  0  0  0  0
   24.8979  -20.1558  -15.8104 N   0  0  0  0  0  0  0  0  0  0  0  0
   24.1200  -19.3040  -14.9189 C   0  0  1  0  0  0  0  0  0  0  0  0
   23.7553  -18.0137  -15.5630 C   0  0  0  0  0  0  0  0  0  0  0  0
   24.9533  -17.1680  -15.7299 C   0  0  0  0  0  0  0  0  0  0  0  0
   25.4214  -17.0187  -17.0406 C   0  0  0  0  0  0  0  0  0  0  0  0
   26.5147  -16.2348  -17.3170 C   0  0  0  0  0  0  0  0  0  0  0  0
   27.1636  -15.5832  -16.2874 C   0  0  0  0  0  0  0  0  0  0  0  0
   26.7009  -15.7316  -14.9977 C   0  0  0  0  0  0  0  0  0  0  0  0
   25.6049  -16.5156  -14.7107 C   0  0  0  0  0  0  0  0  0  0  0  0
   22.9333  -20.0529  -14.5014 C   0  0  0  0  0  0  0  0  0  0  0  0
   22.7189  -21.1915  -14.9799 O   0  0  0  0  0  0  0  0  0  0  0  0
   22.0141  -19.5745  -13.5900 O   0  0  0  0  0  0  0  0  0  0  0  0
  1  2  1  0
  2  3  1  0
  3  4  2  0
  5  6  1  0
  5  3  1  0
  6 12  1  0
  6  7  1  1
  8  7  1  0
  8  9  1  0
 10  9  1  0
 11 10  1  0
 12 14  1  0
 12 13  2  0
 14 15  1  0
 15 23  1  0
 15 16  1  6
 17 16  1  0
 17 18  2  0
 19 18  1  0
 20 19  2  0
 21 22  2  0
 21 20  1  0
 22 17  1  0
 23 24  2  0
 23 25  1  0
M  END
$$$$
