GKF.pdb
     RDKit          3D

 25 25  0  0  1  0  0  0  0  0999 V2000
   28.2298  -25.1154  -16.4307 N   0  0  0  0  0  0  0  0  0  0  0  0
   27.0823  -24.2293  -16.6085 C   0  0  0  0  0  0  0  0  0  0  0  0
   27.2376  -23.0948  -15.6901 C   0  0  0  0  0  0  0  0  0  0  0  0
   27.6713  -23.3130  -14.5286 O   0  0  0  0  0  0  0  0  0  0  0  0
   26.9160  -21.7611  -16.0657 N   0  0  0  0  0  0  0  0  0  0  0  0
   26.9503  -20.7346  -15.0769 C   0  0  1  0  0  0  0  0  0  0  0  0
   26.8014  -19.3857  -15.7332 C   0  0  0  0  0  0  0  0  0  0  0  0
   26.6926  -18.2740  -14.6991 C   0  0  0  0  0  0  0  0  0  0  0  0
   26.5662  -16.9350  -15.3918 C   0  0  0  0  0  0  0  0  0  0  0  0
   26.5245  -15.8388  -14.3595 C   0  0  0  0  0  0  0  0  0  0  0  0
   26.4034  -14.5510  -15.0229 N   0  0  0  0  0  0  0  0  0  0  0  0
   25.9292  -20.9802  -14.0427 C   0  0  0  0  0  0  0  0  0  0  0  0
   24.7580  -21.2353  -14.3919 O   0  0  0  0  0  0  0  0  0  0  0  0
   26.2548  -20.9312  -12.6848 N   0  0  0  0  0  0  0  0  0  0  0  0
   25.3783  -21.3914  -11.6145 C   0  0  1  0  0  0  0  0  0  0  0  0
   26.1384  -22.0575  -10.5230 C   0  0  0  0  0  0  0  0  0  0  0  0
   26.7499  -21.0492   -9.6356 C   0  0  0  0  0  0  0  0  0  0  0  0
   28.1491  -21.0333   -9.5970 C   0  0  0  0  0  0  0  0  0  0  0  0
   28.8258  -20.1215   -8.8244 C   0  0  0  0  0  0  0  0  0  0  0  0
   28.1168  -19.2056   -8.0734 C   0  0  0  0  0  0  0  0  0  0  0  0
   26.7392  -19.2230   -8.1130 C   0  0  0  0  0  0  0  0  0  0  0  0
   26.0516  -20.1336   -8.8851 C   0  0  0  0  0  0  0  0  0  0  0  0
   24.6253  -20.2371  -11.1207 C   0  0  0  0  0  0  0  0  0  0  0  0
   25.0729  -19.0806  -11.3038 O   0  0  0  0  0  0  0  0  0  0  0  0
   23.4227  -20.3433  -10.4521 O   0  0  0  0  0  0  0  0  0  0  0  0
  1  2  1  0
  2  3  1  0
  3  4  2  0
  5  6  1  0
  5  3  1  0
  6 12  1  0
  6  7  1  6
  8  7  1  0
  8  9  1  0
 10  9  1  0
 11 10  1  0
 12 14  1  0
 12 13  2  0
 14 15  1  0
 15 23  1  0
 15 16  1  1
 17 16  1  0
 17 18  2  0
 19 18  1  0
 20 19  2  0
 21 22  2  0
 21 20  1  0
 22 17  1  0
 23 24  2  0
 23 25  1  0
M  END
$$$$
