GKF.pdb
     RDKit          3D

 25 25  0  0  1  0  0  0  0  0999 V2000
   32.4504  -22.4682  -10.7715 N   0  0  0  0  0  0  0  0  0  0  0  0
   31.7552  -22.3234  -12.0479 C   0  0  0  0  0  0  0  0  0  0  0  0
   30.5791  -21.4725  -11.8308 C   0  0  0  0  0  0  0  0  0  0  0  0
   30.4486  -20.8943  -10.7202 O   0  0  0  0  0  0  0  0  0  0  0  0
   29.5842  -21.2790  -12.8289 N   0  0  0  0  0  0  0  0  0  0  0  0
   28.5082  -20.3800  -12.5706 C   0  0  1  0  0  0  0  0  0  0  0  0
   28.0145  -19.7862  -13.8652 C   0  0  0  0  0  0  0  0  0  0  0  0
   26.8631  -18.8189  -13.6290 C   0  0  0  0  0  0  0  0  0  0  0  0
   26.3406  -18.3052  -14.9525 C   0  0  0  0  0  0  0  0  0  0  0  0
   26.7803  -16.8773  -15.1447 C   0  0  0  0  0  0  0  0  0  0  0  0
   26.2121  -16.3556  -16.3767 N   0  0  0  0  0  0  0  0  0  0  0  0
   27.4414  -21.0569  -11.8115 C   0  0  0  0  0  0  0  0  0  0  0  0
   26.8867  -22.0611  -12.3042 O   0  0  0  0  0  0  0  0  0  0  0  0
   27.0463  -20.5908  -10.5549 N   0  0  0  0  0  0  0  0  0  0  0  0
   26.0490  -21.2431   -9.7150 C   0  0  1  0  0  0  0  0  0  0  0  0
   26.6564  -21.8420   -8.4963 C   0  0  0  0  0  0  0  0  0  0  0  0
   27.2846  -20.7934   -7.6691 C   0  0  0  0  0  0  0  0  0  0  0  0
   26.4533  -19.7350   -7.2844 C   0  0  0  0  0  0  0  0  0  0  0  0
   26.9248  -18.7157   -6.4938 C   0  0  0  0  0  0  0  0  0  0  0  0
   28.2388  -18.7335   -6.0710 C   0  0  0  0  0  0  0  0  0  0  0  0
   29.0554  -19.7767   -6.4509 C   0  0  0  0  0  0  0  0  0  0  0  0
   28.5915  -20.8037   -7.2436 C   0  0  0  0  0  0  0  0  0  0  0  0
   25.0264  -20.2516   -9.3764 C   0  0  0  0  0  0  0  0  0  0  0  0
   25.2236  -19.0425   -9.6418 O   0  0  0  0  0  0  0  0  0  0  0  0
   23.8281  -20.5715   -8.7712 O   0  0  0  0  0  0  0  0  0  0  0  0
  1  2  1  0
  2  3  1  0
  3  4  2  0
  5  6  1  0
  5  3  1  0
  6 12  1  0
  6  7  1  6
  8  7  1  0
  8  9  1  0
 10  9  1  0
 11 10  1  0
 12 14  1  0
 12 13  2  0
 14 15  1  0
 15 23  1  0
 15 16  1  1
 17 16  1  0
 17 18  2  0
 19 18  1  0
 20 19  2  0
 21 22  2  0
 21 20  1  0
 22 17  1  0
 23 24  2  0
 23 25  1  0
M  END
$$$$
