GKF.pdb
     RDKit          3D

 25 25  0  0  1  0  0  0  0  0999 V2000
   21.0345  -24.0181  -13.7449 N   0  0  0  0  0  0  0  0  0  0  0  0
   21.1582  -22.6885  -13.1532 C   0  0  0  0  0  0  0  0  0  0  0  0
   22.5706  -22.4694  -12.8191 C   0  0  0  0  0  0  0  0  0  0  0  0
   23.1585  -23.3155  -12.0957 O   0  0  0  0  0  0  0  0  0  0  0  0
   23.2964  -21.3373  -13.2830 N   0  0  0  0  0  0  0  0  0  0  0  0
   24.6440  -21.1543  -12.8549 C   0  0  1  0  0  0  0  0  0  0  0  0
   25.3633  -20.2328  -13.8066 C   0  0  0  0  0  0  0  0  0  0  0  0
   26.8269  -20.0695  -13.4216 C   0  0  0  0  0  0  0  0  0  0  0  0
   27.5359  -19.2063  -14.4420 C   0  0  0  0  0  0  0  0  0  0  0  0
   28.9971  -19.1102  -14.0884 C   0  0  0  0  0  0  0  0  0  0  0  0
   29.7137  -18.4413  -15.1616 N   0  0  0  0  0  0  0  0  0  0  0  0
   24.6820  -20.6759  -11.4613 C   0  0  0  0  0  0  0  0  0  0  0  0
   23.9304  -19.7399  -11.1181 O   0  0  0  0  0  0  0  0  0  0  0  0
   25.5440  -21.2541  -10.5258 N   0  0  0  0  0  0  0  0  0  0  0  0
   25.6861  -20.7959   -9.1491 C   0  0  1  0  0  0  0  0  0  0  0  0
   26.4761  -21.7502   -8.3257 C   0  0  0  0  0  0  0  0  0  0  0  0
   27.4033  -21.0177   -7.4414 C   0  0  0  0  0  0  0  0  0  0  0  0
   26.9192  -20.7096   -6.1646 C   0  0  0  0  0  0  0  0  0  0  0  0
   27.7039  -20.0514   -5.2496 C   0  0  0  0  0  0  0  0  0  0  0  0
   28.9905  -19.6872   -5.5926 C   0  0  0  0  0  0  0  0  0  0  0  0
   29.4651  -19.9917   -6.8501 C   0  0  0  0  0  0  0  0  0  0  0  0
   28.6855  -20.6518   -7.7746 C   0  0  0  0  0  0  0  0  0  0  0  0
   26.3031  -19.4685   -9.1771 C   0  0  0  0  0  0  0  0  0  0  0  0
   27.1955  -19.2176  -10.0209 O   0  0  0  0  0  0  0  0  0  0  0  0
   25.9544  -18.4496   -8.3141 O   0  0  0  0  0  0  0  0  0  0  0  0
  1  2  1  0
  2  3  1  0
  3  4  2  0
  5  6  1  0
  5  3  1  0
  6 12  1  0
  6  7  1  6
  8  7  1  0
  8  9  1  0
 10  9  1  0
 11 10  1  0
 12 14  1  0
 12 13  2  0
 14 15  1  0
 15 23  1  0
 15 16  1  1
 17 16  1  0
 17 18  2  0
 19 18  1  0
 20 19  2  0
 21 22  2  0
 21 20  1  0
 22 17  1  0
 23 24  2  0
 23 25  1  0
M  END
$$$$
