GKF.pdb
     RDKit          3D

 25 25  0  0  1  0  0  0  0  0999 V2000
   26.7771  -16.2041  -15.5064 N   0  0  0  0  0  0  0  0  0  0  0  0
   27.6778  -17.2354  -14.9979 C   0  0  0  0  0  0  0  0  0  0  0  0
   26.9733  -18.5219  -15.0541 C   0  0  0  0  0  0  0  0  0  0  0  0
   25.7294  -18.5214  -15.2475 O   0  0  0  0  0  0  0  0  0  0  0  0
   27.6453  -19.7659  -14.8980 N   0  0  0  0  0  0  0  0  0  0  0  0
   26.8843  -20.9715  -14.9091 C   0  0  1  0  0  0  0  0  0  0  0  0
   27.5662  -21.9999  -15.7749 C   0  0  0  0  0  0  0  0  0  0  0  0
   26.6556  -23.1891  -16.0463 C   0  0  0  0  0  0  0  0  0  0  0  0
   27.3829  -24.2151  -16.8872 C   0  0  0  0  0  0  0  0  0  0  0  0
   26.4430  -25.3423  -17.2264 C   0  0  0  0  0  0  0  0  0  0  0  0
   27.1010  -26.2670  -18.1347 N   0  0  0  0  0  0  0  0  0  0  0  0
   26.6533  -21.4483  -13.5337 C   0  0  0  0  0  0  0  0  0  0  0  0
   27.3364  -22.3969  -13.0953 O   0  0  0  0  0  0  0  0  0  0  0  0
   25.6847  -20.8547  -12.7200 N   0  0  0  0  0  0  0  0  0  0  0  0
   25.0422  -21.5190  -11.5925 C   0  0  1  0  0  0  0  0  0  0  0  0
   26.0353  -22.0204  -10.6049 C   0  0  0  0  0  0  0  0  0  0  0  0
   26.4121  -20.9451   -9.6667 C   0  0  0  0  0  0  0  0  0  0  0  0
   27.7839  -20.7776   -9.4442 C   0  0  0  0  0  0  0  0  0  0  0  0
   28.2506  -19.7921   -8.6091 C   0  0  0  0  0  0  0  0  0  0  0  0
   27.3543  -18.9527   -7.9784 C   0  0  0  0  0  0  0  0  0  0  0  0
   26.0041  -19.1194   -8.1991 C   0  0  0  0  0  0  0  0  0  0  0  0
   25.5265  -20.1049   -9.0351 C   0  0  0  0  0  0  0  0  0  0  0  0
   24.1074  -20.5710  -10.9836 C   0  0  0  0  0  0  0  0  0  0  0  0
   24.1233  -19.3693  -11.3400 O   0  0  0  0  0  0  0  0  0  0  0  0
   23.1848  -20.9253  -10.0203 O   0  0  0  0  0  0  0  0  0  0  0  0
  1  2  1  0
  2  3  1  0
  3  4  2  0
  5  6  1  0
  5  3  1  0
  6 12  1  0
  6  7  1  6
  8  7  1  0
  8  9  1  0
 10  9  1  0
 11 10  1  0
 12 14  1  0
 12 13  2  0
 14 15  1  0
 15 23  1  0
 15 16  1  1
 17 16  1  0
 17 18  2  0
 19 18  1  0
 20 19  2  0
 21 22  2  0
 21 20  1  0
 22 17  1  0
 23 24  2  0
 23 25  1  0
M  END
$$$$
