GKF.pdb
     RDKit          3D

 25 25  0  0  1  0  0  0  0  0999 V2000
   31.4793  -21.5379  -10.8275 N   0  0  0  0  0  0  0  0  0  0  0  0
   31.0100  -21.6917  -12.2021 C   0  0  0  0  0  0  0  0  0  0  0  0
   29.7569  -20.9401  -12.3412 C   0  0  0  0  0  0  0  0  0  0  0  0
   29.5598  -19.9500  -11.5891 O   0  0  0  0  0  0  0  0  0  0  0  0
   28.7602  -21.2904  -13.2937 N   0  0  0  0  0  0  0  0  0  0  0  0
   27.5786  -20.4977  -13.3847 C   0  0  1  0  0  0  0  0  0  0  0  0
   27.1586  -20.3677  -14.8265 C   0  0  0  0  0  0  0  0  0  0  0  0
   27.0266  -18.9077  -15.2368 C   0  0  0  0  0  0  0  0  0  0  0  0
   26.6199  -18.8149  -16.6911 C   0  0  0  0  0  0  0  0  0  0  0  0
   26.5007  -17.3663  -17.0865 C   0  0  0  0  0  0  0  0  0  0  0  0
   26.0967  -17.2746  -18.4799 N   0  0  0  0  0  0  0  0  0  0  0  0
   26.5156  -21.0566  -12.5302 C   0  0  0  0  0  0  0  0  0  0  0  0
   26.1846  -22.2519  -12.6734 O   0  0  0  0  0  0  0  0  0  0  0  0
   25.8779  -20.2692  -11.5680 N   0  0  0  0  0  0  0  0  0  0  0  0
   24.8589  -20.7622  -10.6494 C   0  0  1  0  0  0  0  0  0  0  0  0
   24.8378  -19.9899   -9.3782 C   0  0  0  0  0  0  0  0  0  0  0  0
   26.1381  -20.1023   -8.6890 C   0  0  0  0  0  0  0  0  0  0  0  0
   26.4771  -19.0413   -7.8413 C   0  0  0  0  0  0  0  0  0  0  0  0
   27.6522  -19.0508   -7.1303 C   0  0  0  0  0  0  0  0  0  0  0  0
   28.5136  -20.1225   -7.2524 C   0  0  0  0  0  0  0  0  0  0  0  0
   28.1776  -21.1661   -8.0876 C   0  0  0  0  0  0  0  0  0  0  0  0
   27.0012  -21.1657   -8.8046 C   0  0  0  0  0  0  0  0  0  0  0  0
   23.5672  -20.7057  -11.3363 C   0  0  0  0  0  0  0  0  0  0  0  0
   23.4763  -20.1143  -12.4377 O   0  0  0  0  0  0  0  0  0  0  0  0
   22.4151  -21.2788  -10.8374 O   0  0  0  0  0  0  0  0  0  0  0  0
  1  2  1  0
  2  3  1  0
  3  4  2  0
  5  6  1  0
  5  3  1  0
  6 12  1  0
  6  7  1  6
  8  7  1  0
  8  9  1  0
 10  9  1  0
 11 10  1  0
 12 14  1  0
 12 13  2  0
 14 15  1  0
 15 23  1  0
 15 16  1  1
 17 16  1  0
 17 18  2  0
 19 18  1  0
 20 19  2  0
 21 22  2  0
 21 20  1  0
 22 17  1  0
 23 24  2  0
 23 25  1  0
M  END
$$$$
