GKF.pdb
     RDKit          3D

 25 25  0  0  1  0  0  0  0  0999 V2000
   33.0790  -27.9834  -18.2269 N   0  0  0  0  0  0  0  0  0  0  0  0
   32.5737  -26.7748  -18.8729 C   0  0  0  0  0  0  0  0  0  0  0  0
   31.4772  -26.2457  -18.0529 C   0  0  0  0  0  0  0  0  0  0  0  0
   31.1106  -26.8985  -17.0408 O   0  0  0  0  0  0  0  0  0  0  0  0
   30.8163  -25.0244  -18.3610 N   0  0  0  0  0  0  0  0  0  0  0  0
   29.7246  -24.6020  -17.5471 C   0  0  1  0  0  0  0  0  0  0  0  0
   29.5059  -23.1197  -17.7121 C   0  0  0  0  0  0  0  0  0  0  0  0
   28.3027  -22.6433  -16.9105 C   0  0  0  0  0  0  0  0  0  0  0  0
   28.0982  -21.1589  -17.1192 C   0  0  0  0  0  0  0  0  0  0  0  0
   26.9353  -20.6910  -16.2839 C   0  0  0  0  0  0  0  0  0  0  0  0
   26.7969  -19.2493  -16.4078 N   0  0  0  0  0  0  0  0  0  0  0  0
   28.5184  -25.3927  -17.8510 C   0  0  0  0  0  0  0  0  0  0  0  0
   28.1495  -25.5086  -19.0381 O   0  0  0  0  0  0  0  0  0  0  0  0
   27.7877  -26.0100  -16.8324 N   0  0  0  0  0  0  0  0  0  0  0  0
   26.5764  -26.7913  -17.0504 C   0  0  1  0  0  0  0  0  0  0  0  0
   26.8198  -28.2496  -16.8858 C   0  0  0  0  0  0  0  0  0  0  0  0
   25.5733  -29.0059  -17.1150 C   0  0  0  0  0  0  0  0  0  0  0  0
   24.9873  -29.5814  -15.9815 C   0  0  0  0  0  0  0  0  0  0  0  0
   23.8127  -30.2873  -16.0728 C   0  0  0  0  0  0  0  0  0  0  0  0
   23.1989  -30.4325  -17.3007 C   0  0  0  0  0  0  0  0  0  0  0  0
   23.7776  -29.8649  -18.4154 C   0  0  0  0  0  0  0  0  0  0  0  0
   24.9555  -29.1550  -18.3337 C   0  0  0  0  0  0  0  0  0  0  0  0
   25.5540  -26.3070  -16.1211 C   0  0  0  0  0  0  0  0  0  0  0  0
   25.8999  -25.8056  -15.0255 O   0  0  0  0  0  0  0  0  0  0  0  0
   24.2001  -26.3660  -16.3820 O   0  0  0  0  0  0  0  0  0  0  0  0
  1  2  1  0
  2  3  1  0
  3  4  2  0
  5  6  1  0
  5  3  1  0
  6 12  1  0
  6  7  1  6
  8  7  1  0
  8  9  1  0
 10  9  1  0
 11 10  1  0
 12 14  1  0
 12 13  2  0
 14 15  1  0
 15 23  1  0
 15 16  1  1
 17 16  1  0
 17 18  2  0
 19 18  1  0
 20 19  2  0
 21 22  2  0
 21 20  1  0
 22 17  1  0
 23 24  2  0
 23 25  1  0
M  END
$$$$
