GKF.pdb
     RDKit          3D

 25 25  0  0  1  0  0  0  0  0999 V2000
   28.6721  -27.4287  -16.3896 N   0  0  0  0  0  0  0  0  0  0  0  0
   27.2688  -27.3288  -16.7826 C   0  0  0  0  0  0  0  0  0  0  0  0
   27.0787  -26.0438  -17.4662 C   0  0  0  0  0  0  0  0  0  0  0  0
   28.0957  -25.3861  -17.8095 O   0  0  0  0  0  0  0  0  0  0  0  0
   25.7888  -25.5173  -17.7534 N   0  0  0  0  0  0  0  0  0  0  0  0
   25.6504  -24.5483  -18.7900 C   0  0  1  0  0  0  0  0  0  0  0  0
   26.1294  -25.1250  -20.0978 C   0  0  0  0  0  0  0  0  0  0  0  0
   27.6128  -24.8588  -20.3118 C   0  0  0  0  0  0  0  0  0  0  0  0
   28.0793  -25.5297  -21.5850 C   0  0  0  0  0  0  0  0  0  0  0  0
   29.5385  -25.2273  -21.8051 C   0  0  0  0  0  0  0  0  0  0  0  0
   29.9763  -25.8289  -23.0539 N   0  0  0  0  0  0  0  0  0  0  0  0
   24.2612  -24.0604  -18.8578 C   0  0  0  0  0  0  0  0  0  0  0  0
   23.3232  -24.8717  -18.7137 O   0  0  0  0  0  0  0  0  0  0  0  0
   23.9836  -22.7092  -19.0802 N   0  0  0  0  0  0  0  0  0  0  0  0
   22.6396  -22.1574  -19.2006 C   0  0  1  0  0  0  0  0  0  0  0  0
   22.6368  -20.6741  -19.0871 C   0  0  0  0  0  0  0  0  0  0  0  0
   21.2608  -20.1540  -19.2075 C   0  0  0  0  0  0  0  0  0  0  0  0
   20.8968  -19.6672  -20.4684 C   0  0  0  0  0  0  0  0  0  0  0  0
   19.6337  -19.1812  -20.7021 C   0  0  0  0  0  0  0  0  0  0  0  0
   18.7072  -19.1719  -19.6788 C   0  0  0  0  0  0  0  0  0  0  0  0
   19.0678  -19.6519  -18.4382 C   0  0  0  0  0  0  0  0  0  0  0  0
   20.3323  -20.1414  -18.1942 C   0  0  0  0  0  0  0  0  0  0  0  0
   22.0828  -22.6014  -20.4798 C   0  0  0  0  0  0  0  0  0  0  0  0
   22.8197  -22.6514  -21.4926 O   0  0  0  0  0  0  0  0  0  0  0  0
   20.7661  -22.9806  -20.6452 O   0  0  0  0  0  0  0  0  0  0  0  0
  1  2  1  0
  2  3  1  0
  3  4  2  0
  5  6  1  0
  5  3  1  0
  6 12  1  0
  6  7  1  6
  8  7  1  0
  8  9  1  0
 10  9  1  0
 11 10  1  0
 12 14  1  0
 12 13  2  0
 14 15  1  0
 15 23  1  0
 15 16  1  6
 17 16  1  0
 17 18  2  0
 19 18  1  0
 20 19  2  0
 21 22  2  0
 21 20  1  0
 22 17  1  0
 23 24  2  0
 23 25  1  0
M  END
$$$$
