GKF.pdb
     RDKit          3D

 25 25  0  0  1  0  0  0  0  0999 V2000
   29.6371  -25.4938  -16.5208 N   0  0  0  0  0  0  0  0  0  0  0  0
   28.5126  -25.3361  -17.4396 C   0  0  0  0  0  0  0  0  0  0  0  0
   27.9323  -24.0053  -17.2235 C   0  0  0  0  0  0  0  0  0  0  0  0
   28.4060  -23.2811  -16.3092 O   0  0  0  0  0  0  0  0  0  0  0  0
   26.8562  -23.5068  -18.0089 N   0  0  0  0  0  0  0  0  0  0  0  0
   26.3120  -22.2244  -17.7055 C   0  0  1  0  0  0  0  0  0  0  0  0
   25.5129  -21.7163  -18.8784 C   0  0  0  0  0  0  0  0  0  0  0  0
   24.9236  -20.3417  -18.5950 C   0  0  0  0  0  0  0  0  0  0  0  0
   24.0983  -19.8803  -19.7761 C   0  0  0  0  0  0  0  0  0  0  0  0
   23.5595  -18.5005  -19.5024 C   0  0  0  0  0  0  0  0  0  0  0  0
   22.7003  -18.0879  -20.5999 N   0  0  0  0  0  0  0  0  0  0  0  0
   25.5242  -22.2796  -16.4611 C   0  0  0  0  0  0  0  0  0  0  0  0
   24.8362  -23.2933  -16.2204 O   0  0  0  0  0  0  0  0  0  0  0  0
   25.5384  -21.2175  -15.5533 N   0  0  0  0  0  0  0  0  0  0  0  0
   24.9564  -21.2727  -14.2178 C   0  0  1  0  0  0  0  0  0  0  0  0
   25.5389  -20.2430  -13.3159 C   0  0  0  0  0  0  0  0  0  0  0  0
   24.9061  -20.3116  -11.9843 C   0  0  0  0  0  0  0  0  0  0  0  0
   25.6747  -20.8922  -10.9687 C   0  0  0  0  0  0  0  0  0  0  0  0
   25.1962  -20.9870   -9.6848 C   0  0  0  0  0  0  0  0  0  0  0  0
   23.9377  -20.5026   -9.3894 C   0  0  0  0  0  0  0  0  0  0  0  0
   23.1828  -19.9312  -10.3909 C   0  0  0  0  0  0  0  0  0  0  0  0
   23.6543  -19.8316  -11.6816 C   0  0  0  0  0  0  0  0  0  0  0  0
   23.5069  -21.1154  -14.3507 C   0  0  0  0  0  0  0  0  0  0  0  0
   23.0452  -20.3225  -15.2048 O   0  0  0  0  0  0  0  0  0  0  0  0
   22.5934  -21.8036  -13.5783 O   0  0  0  0  0  0  0  0  0  0  0  0
  1  2  1  0
  2  3  1  0
  3  4  2  0
  5  6  1  0
  5  3  1  0
  6 12  1  0
  6  7  1  6
  8  7  1  0
  8  9  1  0
 10  9  1  0
 11 10  1  0
 12 14  1  0
 12 13  2  0
 14 15  1  0
 15 23  1  0
 15 16  1  1
 17 16  1  0
 17 18  2  0
 19 18  1  0
 20 19  2  0
 21 22  2  0
 21 20  1  0
 22 17  1  0
 23 24  2  0
 23 25  1  0
M  END
$$$$
