GKF.pdb
     RDKit          3D

 25 25  0  0  1  0  0  0  0  0999 V2000
   20.0651  -13.0244  -15.9473 N   0  0  0  0  0  0  0  0  0  0  0  0
   19.0154  -12.1175  -15.4897 C   0  0  0  0  0  0  0  0  0  0  0  0
   19.2328  -10.8128  -16.1260 C   0  0  0  0  0  0  0  0  0  0  0  0
   20.4052  -10.4851  -16.4468 O   0  0  0  0  0  0  0  0  0  0  0  0
   18.1679   -9.9081  -16.3921 N   0  0  0  0  0  0  0  0  0  0  0  0
   18.4624   -8.6450  -16.9842 C   0  0  1  0  0  0  0  0  0  0  0  0
   17.2381   -8.1074  -17.6802 C   0  0  0  0  0  0  0  0  0  0  0  0
   17.5715   -6.8871  -18.5268 C   0  0  0  0  0  0  0  0  0  0  0  0
   16.3282   -6.3934  -19.2333 C   0  0  0  0  0  0  0  0  0  0  0  0
   16.6957   -5.2720  -20.1694 C   0  0  0  0  0  0  0  0  0  0  0  0
   15.5239   -4.8702  -20.9300 N   0  0  0  0  0  0  0  0  0  0  0  0
   18.9980   -7.7143  -15.9746 C   0  0  0  0  0  0  0  0  0  0  0  0
   18.5134   -7.7194  -14.8239 O   0  0  0  0  0  0  0  0  0  0  0  0
   20.0351   -6.8320  -16.2882 N   0  0  0  0  0  0  0  0  0  0  0  0
   20.6819   -5.9511  -15.3234 C   0  0  1  0  0  0  0  0  0  0  0  0
   22.0955   -6.3426  -15.0757 C   0  0  0  0  0  0  0  0  0  0  0  0
   22.1511   -7.5976  -14.3009 C   0  0  0  0  0  0  0  0  0  0  0  0
   22.8722   -8.6467  -14.8828 C   0  0  0  0  0  0  0  0  0  0  0  0
   23.0106   -9.8527  -14.2403 C   0  0  0  0  0  0  0  0  0  0  0  0
   22.4302  -10.0348  -13.0011 C   0  0  0  0  0  0  0  0  0  0  0  0
   21.7208   -9.0004  -12.4300 C   0  0  0  0  0  0  0  0  0  0  0  0
   21.5766   -7.7872  -13.0668 C   0  0  0  0  0  0  0  0  0  0  0  0
   20.5824   -4.5801  -15.8271 C   0  0  0  0  0  0  0  0  0  0  0  0
   20.0750   -4.3690  -16.9538 O   0  0  0  0  0  0  0  0  0  0  0  0
   21.0198   -3.4774  -15.1219 O   0  0  0  0  0  0  0  0  0  0  0  0
  1  2  1  0
  2  3  1  0
  3  4  2  0
  5  6  1  0
  5  3  1  0
  6 12  1  0
  6  7  1  1
  8  7  1  0
  8  9  1  0
 10  9  1  0
 11 10  1  0
 12 14  1  0
 12 13  2  0
 14 15  1  0
 15 23  1  0
 15 16  1  6
 17 16  1  0
 17 18  2  0
 19 18  1  0
 20 19  2  0
 21 22  2  0
 21 20  1  0
 22 17  1  0
 23 24  2  0
 23 25  1  0
M  END
$$$$
