LVF.pdb
     RDKit          3D

 27 27  0  0  1  0  0  0  0  0999 V2000
   11.9257  -21.5382   18.5308 C   0  0  0  0  0  0  0  0  0  0  0  0
   11.0357  -20.3633   18.0698 C   0  0  1  0  0  0  0  0  0  0  0  0
    9.6330  -20.9216   17.9711 C   0  0  0  0  0  0  0  0  0  0  0  0
   11.1890  -19.2211   19.0239 C   0  0  0  0  0  0  0  0  0  0  0  0
   10.2579  -18.0892   18.9249 C   0  0  2  0  0  0  0  0  0  0  0  0
   10.5539  -17.3572   17.6361 N   0  0  0  0  0  0  0  0  0  0  0  0
   10.1973  -17.0830   19.9691 C   0  0  0  0  0  0  0  0  0  0  0  0
   11.1500  -16.2846   20.1245 O   0  0  0  0  0  0  0  0  0  0  0  0
    7.3453  -14.5136   20.7452 C   0  0  0  0  0  0  0  0  0  0  0  0
    7.6972  -15.2783   21.9779 C   0  0  1  0  0  0  0  0  0  0  0  0
    6.6992  -16.3282   22.3583 C   0  0  0  0  0  0  0  0  0  0  0  0
    9.0656  -15.9233   21.9124 C   0  0  2  0  0  0  0  0  0  0  0  0
    9.1083  -16.9101   20.8740 N   0  0  0  0  0  0  0  0  0  0  0  0
    9.5026  -16.4486   23.2286 C   0  0  0  0  0  0  0  0  0  0  0  0
    9.3723  -17.6697   23.5055 O   0  0  0  0  0  0  0  0  0  0  0  0
   10.0809  -15.6263   24.2335 N   0  0  0  0  0  0  0  0  0  0  0  0
   10.5586  -16.1646   25.5086 C   0  0  1  0  0  0  0  0  0  0  0  0
   11.1345  -15.0715   26.3395 C   0  0  0  0  0  0  0  0  0  0  0  0
   10.1428  -14.1238   26.8270 C   0  0  0  0  0  0  0  0  0  0  0  0
   10.0657  -13.8386   28.1854 C   0  0  0  0  0  0  0  0  0  0  0  0
    9.1445  -12.9424   28.7048 C   0  0  0  0  0  0  0  0  0  0  0  0
    8.2690  -12.3050   27.8581 C   0  0  0  0  0  0  0  0  0  0  0  0
    8.3079  -12.5558   26.5053 C   0  0  0  0  0  0  0  0  0  0  0  0
    9.2389  -13.4535   26.0299 C   0  0  0  0  0  0  0  0  0  0  0  0
    9.4656  -16.8515   26.1915 C   0  0  0  0  0  0  0  0  0  0  0  0
    8.2509  -16.7646   25.8454 O   0  0  0  0  0  0  0  0  0  0  0  0
    9.7561  -17.6568   27.2937 O   0  0  0  0  0  0  0  0  0  0  0  0
  2  3  1  1
  2  1  1  0
  4  2  1  0
  5  7  1  0
  5  4  1  0
  5  6  1  6
  7  8  2  0
  7 13  1  0
 10  9  1  6
 10 12  1  0
 11 10  1  0
 12 14  1  0
 12 13  1  6
 14 15  2  0
 14 16  1  0
 16 17  1  0
 17 25  1  0
 17 18  1  1
 19 18  1  0
 19 20  2  0
 21 20  1  0
 22 21  2  0
 23 24  2  0
 23 22  1  0
 24 19  1  0
 25 27  1  0
 26 25  2  0
M  END
$$$$
