LVF.pdb
     RDKit          3D

 27 27  0  0  1  0  0  0  0  0999 V2000
    7.2690  -12.2245   18.2468 C   0  0  0  0  0  0  0  0  0  0  0  0
    7.9452  -13.5699   18.5901 C   0  0  1  0  0  0  0  0  0  0  0  0
    9.4303  -13.2854   18.6385 C   0  0  0  0  0  0  0  0  0  0  0  0
    7.3684  -14.1042   19.8630 C   0  0  0  0  0  0  0  0  0  0  0  0
    8.0000  -15.2742   20.4873 C   0  0  2  0  0  0  0  0  0  0  0  0
    7.8947  -16.4297   19.5186 N   0  0  0  0  0  0  0  0  0  0  0  0
    7.5428  -15.7680   21.7733 C   0  0  0  0  0  0  0  0  0  0  0  0
    7.0345  -14.9779   22.6021 O   0  0  0  0  0  0  0  0  0  0  0  0
    5.7273  -19.2989   22.6571 C   0  0  0  0  0  0  0  0  0  0  0  0
    6.9142  -19.0313   23.5219 C   0  0  1  0  0  0  0  0  0  0  0  0
    8.1150  -19.8649   23.1964 C   0  0  0  0  0  0  0  0  0  0  0  0
    7.3328  -17.5761   23.5309 C   0  0  2  0  0  0  0  0  0  0  0  0
    7.6212  -17.1265   22.2010 N   0  0  0  0  0  0  0  0  0  0  0  0
    8.4397  -17.3159   24.4828 C   0  0  0  0  0  0  0  0  0  0  0  0
    9.6376  -17.4769   24.1307 O   0  0  0  0  0  0  0  0  0  0  0  0
    8.2219  -16.8796   25.8180 N   0  0  0  0  0  0  0  0  0  0  0  0
    9.3202  -16.4957   26.7067 C   0  0  1  0  0  0  0  0  0  0  0  0
    9.6127  -15.0434   26.5576 C   0  0  0  0  0  0  0  0  0  0  0  0
    8.4461  -14.1911   26.7366 C   0  0  0  0  0  0  0  0  0  0  0  0
    7.4900  -14.1047   25.7312 C   0  0  0  0  0  0  0  0  0  0  0  0
    6.3583  -13.3128   25.8489 C   0  0  0  0  0  0  0  0  0  0  0  0
    6.1610  -12.5806   26.9955 C   0  0  0  0  0  0  0  0  0  0  0  0
    7.0809  -12.6344   28.0180 C   0  0  0  0  0  0  0  0  0  0  0  0
    8.1920  -13.4340   27.8609 C   0  0  0  0  0  0  0  0  0  0  0  0
    8.9824  -16.8459   28.0838 C   0  0  0  0  0  0  0  0  0  0  0  0
    9.7465  -16.6418   29.0723 O   0  0  0  0  0  0  0  0  0  0  0  0
    7.7484  -17.4422   28.3471 O   0  0  0  0  0  0  0  0  0  0  0  0
  2  3  1  1
  2  1  1  0
  4  2  1  0
  5  7  1  0
  5  4  1  0
  5  6  1  6
  7  8  2  0
  7 13  1  0
 10  9  1  6
 10 12  1  0
 11 10  1  0
 12 14  1  0
 12 13  1  6
 14 15  2  0
 14 16  1  0
 16 17  1  0
 17 25  1  0
 17 18  1  1
 19 18  1  0
 19 20  2  0
 21 20  1  0
 22 21  2  0
 23 24  2  0
 23 22  1  0
 24 19  1  0
 25 27  1  0
 26 25  2  0
M  END
$$$$
