LVF.pdb
     RDKit          3D

 27 27  0  0  1  0  0  0  0  0999 V2000
    7.2605  -11.9786   20.6265 C   0  0  0  0  0  0  0  0  0  0  0  0
    7.5307  -13.4352   20.1904 C   0  0  1  0  0  0  0  0  0  0  0  0
    8.4191  -13.3428   18.9692 C   0  0  0  0  0  0  0  0  0  0  0  0
    8.1197  -14.1949   21.3369 C   0  0  0  0  0  0  0  0  0  0  0  0
    8.4226  -15.6210   21.1571 C   0  0  2  0  0  0  0  0  0  0  0  0
    7.1518  -16.3131   20.7205 N   0  0  0  0  0  0  0  0  0  0  0  0
    8.9703  -16.4078   22.2468 C   0  0  0  0  0  0  0  0  0  0  0  0
    8.2097  -17.0983   22.9637 O   0  0  0  0  0  0  0  0  0  0  0  0
   11.7116  -19.1464   22.2693 C   0  0  0  0  0  0  0  0  0  0  0  0
   12.0725  -18.0578   23.2247 C   0  0  1  0  0  0  0  0  0  0  0  0
   13.1228  -17.1171   22.7197 C   0  0  0  0  0  0  0  0  0  0  0  0
   10.8813  -17.2415   23.6804 C   0  0  2  0  0  0  0  0  0  0  0  0
   10.3525  -16.4717   22.5933 N   0  0  0  0  0  0  0  0  0  0  0  0
   11.1877  -16.4200   24.8764 C   0  0  0  0  0  0  0  0  0  0  0  0
   12.2444  -15.7378   24.9305 O   0  0  0  0  0  0  0  0  0  0  0  0
   10.3289  -16.3539   26.0071 N   0  0  0  0  0  0  0  0  0  0  0  0
   10.7467  -15.7536   27.2754 C   0  0  1  0  0  0  0  0  0  0  0  0
   10.4435  -14.2959   27.2737 C   0  0  0  0  0  0  0  0  0  0  0  0
    9.0805  -13.9831   26.8693 C   0  0  0  0  0  0  0  0  0  0  0  0
    8.5176  -12.7605   27.2170 C   0  0  0  0  0  0  0  0  0  0  0  0
    7.2265  -12.4080   26.8558 C   0  0  0  0  0  0  0  0  0  0  0  0
    6.4632  -13.2892   26.1273 C   0  0  0  0  0  0  0  0  0  0  0  0
    6.9782  -14.5116   25.7602 C   0  0  0  0  0  0  0  0  0  0  0  0
    8.2657  -14.8229   26.1394 C   0  0  0  0  0  0  0  0  0  0  0  0
   10.0947  -16.4456   28.3841 C   0  0  0  0  0  0  0  0  0  0  0  0
    9.2236  -17.3523   28.2364 O   0  0  0  0  0  0  0  0  0  0  0  0
   10.4383  -16.1017   29.6923 O   0  0  0  0  0  0  0  0  0  0  0  0
  2  3  1  6
  2  1  1  0
  4  2  1  0
  5  7  1  0
  5  4  1  0
  5  6  1  1
  7  8  2  0
  7 13  1  0
 10  9  1  6
 10 12  1  0
 11 10  1  0
 12 14  1  0
 12 13  1  6
 14 15  2  0
 14 16  1  0
 16 17  1  0
 17 25  1  0
 17 18  1  6
 19 18  1  0
 19 20  2  0
 21 20  1  0
 22 21  2  0
 23 24  2  0
 23 22  1  0
 24 19  1  0
 25 27  1  0
 26 25  2  0
M  END
$$$$
