LVF.pdb
     RDKit          3D

 27 27  0  0  1  0  0  0  0  0999 V2000
    7.4808  -11.8954   18.9165 C   0  0  0  0  0  0  0  0  0  0  0  0
    8.2001  -13.2551   18.7796 C   0  0  1  0  0  0  0  0  0  0  0  0
    9.6736  -12.9632   18.9606 C   0  0  0  0  0  0  0  0  0  0  0  0
    7.6274  -14.2208   19.7685 C   0  0  0  0  0  0  0  0  0  0  0  0
    8.2461  -15.5467   19.8996 C   0  0  2  0  0  0  0  0  0  0  0  0
    7.6953  -16.4258   18.8004 N   0  0  0  0  0  0  0  0  0  0  0  0
    8.1297  -16.3026   21.1331 C   0  0  0  0  0  0  0  0  0  0  0  0
    7.0157  -16.7520   21.4887 O   0  0  0  0  0  0  0  0  0  0  0  0
    9.4215  -19.5331   21.8209 C   0  0  0  0  0  0  0  0  0  0  0  0
    9.9031  -18.7120   22.9707 C   0  0  1  0  0  0  0  0  0  0  0  0
   11.3566  -18.3566   22.9088 C   0  0  0  0  0  0  0  0  0  0  0  0
    9.1094  -17.4381   23.1710 C   0  0  2  0  0  0  0  0  0  0  0  0
    9.2107  -16.5946   22.0168 N   0  0  0  0  0  0  0  0  0  0  0  0
    9.4715  -16.7427   24.4298 C   0  0  0  0  0  0  0  0  0  0  0  0
   10.3780  -15.8693   24.4404 O   0  0  0  0  0  0  0  0  0  0  0  0
    8.8334  -17.0128   25.6709 N   0  0  0  0  0  0  0  0  0  0  0  0
    9.2866  -16.4210   26.9311 C   0  0  1  0  0  0  0  0  0  0  0  0
    8.1371  -15.7996   27.6448 C   0  0  0  0  0  0  0  0  0  0  0  0
    7.7120  -14.5299   27.0735 C   0  0  0  0  0  0  0  0  0  0  0  0
    6.4628  -14.4237   26.4730 C   0  0  0  0  0  0  0  0  0  0  0  0
    6.0047  -13.2395   25.9166 C   0  0  0  0  0  0  0  0  0  0  0  0
    6.8037  -12.1214   25.9524 C   0  0  0  0  0  0  0  0  0  0  0  0
    8.0487  -12.1788   26.5366 C   0  0  0  0  0  0  0  0  0  0  0  0
    8.4660  -13.3752   27.0780 C   0  0  0  0  0  0  0  0  0  0  0  0
    9.9466  -17.4403   27.7425 C   0  0  0  0  0  0  0  0  0  0  0  0
    9.8995  -18.6808   27.4939 O   0  0  0  0  0  0  0  0  0  0  0  0
   10.6779  -17.0443   28.8632 O   0  0  0  0  0  0  0  0  0  0  0  0
  2  3  1  1
  2  1  1  0
  4  2  1  0
  5  7  1  0
  5  4  1  0
  5  6  1  6
  7  8  2  0
  7 13  1  0
 10  9  1  6
 10 12  1  0
 11 10  1  0
 12 14  1  0
 12 13  1  6
 14 15  2  0
 14 16  1  0
 16 17  1  0
 17 25  1  0
 17 18  1  1
 19 18  1  0
 19 20  2  0
 21 20  1  0
 22 21  2  0
 23 24  2  0
 23 22  1  0
 24 19  1  0
 25 27  1  0
 26 25  2  0
M  END
$$$$
