LVF.pdb
     RDKit          3D

 27 27  0  0  1  0  0  0  0  0999 V2000
    8.0169  -21.9536   22.0499 C   0  0  0  0  0  0  0  0  0  0  0  0
    8.1963  -21.0551   20.8069 C   0  0  1  0  0  0  0  0  0  0  0  0
    6.8680  -21.0811   20.0830 C   0  0  0  0  0  0  0  0  0  0  0  0
    8.6472  -19.6954   21.2387 C   0  0  0  0  0  0  0  0  0  0  0  0
    8.7237  -18.6256   20.2350 C   0  0  2  0  0  0  0  0  0  0  0  0
    9.7050  -19.0587   19.1701 N   0  0  0  0  0  0  0  0  0  0  0  0
    9.0935  -17.2746   20.6153 C   0  0  0  0  0  0  0  0  0  0  0  0
   10.3003  -16.9769   20.7719 O   0  0  0  0  0  0  0  0  0  0  0  0
    6.1055  -14.3176   21.4081 C   0  0  0  0  0  0  0  0  0  0  0  0
    7.4480  -13.8966   20.9095 C   0  0  1  0  0  0  0  0  0  0  0  0
    7.8799  -12.5392   21.3718 C   0  0  0  0  0  0  0  0  0  0  0  0
    8.5468  -14.8846   21.2407 C   0  0  2  0  0  0  0  0  0  0  0  0
    8.1729  -16.2079   20.8371 N   0  0  0  0  0  0  0  0  0  0  0  0
    8.9609  -14.8082   22.6625 C   0  0  0  0  0  0  0  0  0  0  0  0
    9.5701  -13.7963   23.0981 O   0  0  0  0  0  0  0  0  0  0  0  0
    8.7022  -15.8468   23.5979 N   0  0  0  0  0  0  0  0  0  0  0  0
    9.1090  -15.7576   25.0015 C   0  0  1  0  0  0  0  0  0  0  0  0
    7.9294  -15.4473   25.8554 C   0  0  0  0  0  0  0  0  0  0  0  0
    7.6868  -14.0214   26.0208 C   0  0  0  0  0  0  0  0  0  0  0  0
    8.7405  -13.1710   26.3357 C   0  0  0  0  0  0  0  0  0  0  0  0
    8.5685  -11.8055   26.5010 C   0  0  0  0  0  0  0  0  0  0  0  0
    7.3164  -11.2581   26.3514 C   0  0  0  0  0  0  0  0  0  0  0  0
    6.2427  -12.0610   26.0399 C   0  0  0  0  0  0  0  0  0  0  0  0
    6.4567  -13.4132   25.8841 C   0  0  0  0  0  0  0  0  0  0  0  0
    9.7617  -17.0009   25.4031 C   0  0  0  0  0  0  0  0  0  0  0  0
    9.8792  -18.0121   24.6504 O   0  0  0  0  0  0  0  0  0  0  0  0
   10.2944  -17.1008   26.6892 O   0  0  0  0  0  0  0  0  0  0  0  0
  2  3  1  1
  2  1  1  0
  4  2  1  0
  5  7  1  0
  5  4  1  0
  5  6  1  6
  7  8  2  0
  7 13  1  0
 10  9  1  1
 10 12  1  0
 11 10  1  0
 12 14  1  0
 12 13  1  1
 14 15  2  0
 14 16  1  0
 16 17  1  0
 17 25  1  0
 17 18  1  1
 19 18  1  0
 19 20  2  0
 21 20  1  0
 22 21  2  0
 23 24  2  0
 23 22  1  0
 24 19  1  0
 25 27  1  0
 26 25  2  0
M  END
$$$$
