LVF.pdb
     RDKit          3D

 27 27  0  0  1  0  0  0  0  0999 V2000
   14.2137  -19.0442   18.0748 C   0  0  0  0  0  0  0  0  0  0  0  0
   13.1927  -19.4628   19.1552 C   0  0  1  0  0  0  0  0  0  0  0  0
   13.9186  -20.4405   20.0531 C   0  0  0  0  0  0  0  0  0  0  0  0
   12.6754  -18.2419   19.8482 C   0  0  0  0  0  0  0  0  0  0  0  0
   11.2795  -17.8423   19.6255 C   0  0  2  0  0  0  0  0  0  0  0  0
   11.1453  -17.4116   18.1829 N   0  0  0  0  0  0  0  0  0  0  0  0
   10.6677  -16.7995   20.4284 C   0  0  0  0  0  0  0  0  0  0  0  0
   10.9961  -15.6030   20.2556 O   0  0  0  0  0  0  0  0  0  0  0  0
    7.3535  -15.3357   20.5645 C   0  0  0  0  0  0  0  0  0  0  0  0
    7.6286  -15.8392   21.9426 C   0  0  1  0  0  0  0  0  0  0  0  0
    6.9520  -17.1338   22.2728 C   0  0  0  0  0  0  0  0  0  0  0  0
    9.1056  -15.9832   22.2439 C   0  0  2  0  0  0  0  0  0  0  0  0
    9.6853  -17.0179   21.4393 N   0  0  0  0  0  0  0  0  0  0  0  0
    9.3687  -16.1603   23.6925 C   0  0  0  0  0  0  0  0  0  0  0  0
    9.6435  -17.2969   24.1587 O   0  0  0  0  0  0  0  0  0  0  0  0
    9.3277  -15.0845   24.6207 N   0  0  0  0  0  0  0  0  0  0  0  0
    9.7016  -15.2472   26.0269 C   0  0  1  0  0  0  0  0  0  0  0  0
    9.6850  -13.9267   26.7147 C   0  0  0  0  0  0  0  0  0  0  0  0
    8.4244  -13.2117   26.5765 C   0  0  0  0  0  0  0  0  0  0  0  0
    7.5217  -13.1878   27.6334 C   0  0  0  0  0  0  0  0  0  0  0  0
    6.3091  -12.5202   27.5592 C   0  0  0  0  0  0  0  0  0  0  0  0
    5.9735  -11.8532   26.4049 C   0  0  0  0  0  0  0  0  0  0  0  0
    6.8357  -11.8492   25.3321 C   0  0  0  0  0  0  0  0  0  0  0  0
    8.0309  -12.5251   25.4472 C   0  0  0  0  0  0  0  0  0  0  0  0
    8.8044  -16.2066   26.6653 C   0  0  0  0  0  0  0  0  0  0  0  0
    8.9915  -16.6876   27.8214 O   0  0  0  0  0  0  0  0  0  0  0  0
    7.6671  -16.6313   25.9769 O   0  0  0  0  0  0  0  0  0  0  0  0
  2  3  1  1
  2  1  1  0
  4  2  1  0
  5  7  1  0
  5  4  1  0
  5  6  1  6
  7  8  2  0
  7 13  1  0
 10  9  1  6
 10 12  1  0
 11 10  1  0
 12 14  1  0
 12 13  1  6
 14 15  2  0
 14 16  1  0
 16 17  1  0
 17 25  1  0
 17 18  1  1
 19 18  1  0
 19 20  2  0
 21 20  1  0
 22 21  2  0
 23 24  2  0
 23 22  1  0
 24 19  1  0
 25 27  1  0
 26 25  2  0
M  END
$$$$
