LVF.pdb
     RDKit          3D

 27 27  0  0  1  0  0  0  0  0999 V2000
    9.1608  -12.6733   19.7444 C   0  0  0  0  0  0  0  0  0  0  0  0
    7.9723  -13.2031   20.5761 C   0  0  1  0  0  0  0  0  0  0  0  0
    7.0189  -12.0375   20.7233 C   0  0  0  0  0  0  0  0  0  0  0  0
    7.3914  -14.4053   19.9010 C   0  0  0  0  0  0  0  0  0  0  0  0
    8.1556  -15.6598   19.9138 C   0  0  2  0  0  0  0  0  0  0  0  0
    7.5300  -16.5937   18.9034 N   0  0  0  0  0  0  0  0  0  0  0  0
    8.3147  -16.4208   21.1394 C   0  0  0  0  0  0  0  0  0  0  0  0
    7.3236  -16.9828   21.6600 O   0  0  0  0  0  0  0  0  0  0  0  0
   12.1215  -17.7867   22.3812 C   0  0  0  0  0  0  0  0  0  0  0  0
   10.8310  -18.4240   22.7769 C   0  0  1  0  0  0  0  0  0  0  0  0
   10.9217  -19.3005   23.9878 C   0  0  0  0  0  0  0  0  0  0  0  0
    9.7121  -17.4269   22.9934 C   0  0  2  0  0  0  0  0  0  0  0  0
    9.5464  -16.5967   21.8370 N   0  0  0  0  0  0  0  0  0  0  0  0
    9.8868  -16.6495   24.2441 C   0  0  0  0  0  0  0  0  0  0  0  0
   10.6523  -15.6506   24.2750 O   0  0  0  0  0  0  0  0  0  0  0  0
    9.2174  -16.9760   25.4547 N   0  0  0  0  0  0  0  0  0  0  0  0
    9.5330  -16.3227   26.7264 C   0  0  1  0  0  0  0  0  0  0  0  0
    8.2965  -15.7488   27.3253 C   0  0  0  0  0  0  0  0  0  0  0  0
    7.8682  -14.5050   26.7017 C   0  0  0  0  0  0  0  0  0  0  0  0
    8.5629  -13.3277   26.9546 C   0  0  0  0  0  0  0  0  0  0  0  0
    8.2025  -12.1161   26.3857 C   0  0  0  0  0  0  0  0  0  0  0  0
    7.1210  -12.0613   25.5388 C   0  0  0  0  0  0  0  0  0  0  0  0
    6.4025  -13.2014   25.2589 C   0  0  0  0  0  0  0  0  0  0  0  0
    6.7941  -14.3853   25.8451 C   0  0  0  0  0  0  0  0  0  0  0  0
   10.1805  -17.2780   27.6214 C   0  0  0  0  0  0  0  0  0  0  0  0
   10.2152  -18.5268   27.4160 O   0  0  0  0  0  0  0  0  0  0  0  0
   10.8041  -16.8068   28.7777 O   0  0  0  0  0  0  0  0  0  0  0  0
  2  3  1  6
  2  1  1  0
  4  2  1  0
  5  7  1  0
  5  4  1  0
  5  6  1  6
  7  8  2  0
  7 13  1  0
 10  9  1  1
 10 12  1  0
 11 10  1  0
 12 14  1  0
 12 13  1  6
 14 15  2  0
 14 16  1  0
 16 17  1  0
 17 25  1  0
 17 18  1  1
 19 18  1  0
 19 20  2  0
 21 20  1  0
 22 21  2  0
 23 24  2  0
 23 22  1  0
 24 19  1  0
 25 27  1  0
 26 25  2  0
M  END
$$$$
