LVF.pdb
     RDKit          3D

 27 27  0  0  1  0  0  0  0  0999 V2000
    7.1946  -11.8286   19.3230 C   0  0  0  0  0  0  0  0  0  0  0  0
    7.9205  -13.1721   19.0934 C   0  0  1  0  0  0  0  0  0  0  0  0
    9.3810  -12.8256   18.9042 C   0  0  0  0  0  0  0  0  0  0  0  0
    7.6387  -14.0904   20.2405 C   0  0  0  0  0  0  0  0  0  0  0  0
    8.2550  -15.4238   20.2448 C   0  0  2  0  0  0  0  0  0  0  0  0
    7.6127  -16.2347   19.1428 N   0  0  0  0  0  0  0  0  0  0  0  0
    8.2294  -16.2507   21.4372 C   0  0  0  0  0  0  0  0  0  0  0  0
    7.1544  -16.7720   21.8142 O   0  0  0  0  0  0  0  0  0  0  0  0
    9.5704  -19.5005   22.0810 C   0  0  0  0  0  0  0  0  0  0  0  0
   10.1319  -18.6467   23.1691 C   0  0  1  0  0  0  0  0  0  0  0  0
   11.5672  -18.2656   22.9755 C   0  0  0  0  0  0  0  0  0  0  0  0
    9.3323  -17.3840   23.4125 C   0  0  2  0  0  0  0  0  0  0  0  0
    9.3616  -16.5383   22.2558 N   0  0  0  0  0  0  0  0  0  0  0  0
    9.7501  -16.6848   24.6517 C   0  0  0  0  0  0  0  0  0  0  0  0
   10.6390  -15.7941   24.6152 O   0  0  0  0  0  0  0  0  0  0  0  0
    9.1868  -16.9700   25.9252 N   0  0  0  0  0  0  0  0  0  0  0  0
    9.6651  -16.3347   27.1546 C   0  0  1  0  0  0  0  0  0  0  0  0
    8.5444  -15.6251   27.8309 C   0  0  0  0  0  0  0  0  0  0  0  0
    8.0984  -14.4319   27.1262 C   0  0  0  0  0  0  0  0  0  0  0  0
    6.8894  -14.4434   26.4401 C   0  0  0  0  0  0  0  0  0  0  0  0
    6.4136  -13.3359   25.7555 C   0  0  0  0  0  0  0  0  0  0  0  0
    7.1534  -12.1772   25.7457 C   0  0  0  0  0  0  0  0  0  0  0  0
    8.3569  -12.1187   26.4110 C   0  0  0  0  0  0  0  0  0  0  0  0
    8.7936  -13.2418   27.0792 C   0  0  0  0  0  0  0  0  0  0  0  0
   10.2767  -17.3394   28.0202 C   0  0  0  0  0  0  0  0  0  0  0  0
   10.1693  -18.5878   27.8388 O   0  0  0  0  0  0  0  0  0  0  0  0
   11.0285  -16.9193   29.1184 O   0  0  0  0  0  0  0  0  0  0  0  0
  2  3  1  1
  2  1  1  0
  4  2  1  0
  5  7  1  0
  5  4  1  0
  5  6  1  6
  7  8  2  0
  7 13  1  0
 10  9  1  6
 10 12  1  0
 11 10  1  0
 12 14  1  0
 12 13  1  6
 14 15  2  0
 14 16  1  0
 16 17  1  0
 17 25  1  0
 17 18  1  1
 19 18  1  0
 19 20  2  0
 21 20  1  0
 22 21  2  0
 23 24  2  0
 23 22  1  0
 24 19  1  0
 25 27  1  0
 26 25  2  0
M  END
$$$$
