LVF.pdb
     RDKit          3D

 27 27  0  0  1  0  0  0  0  0999 V2000
    8.9476  -21.7491   19.8781 C   0  0  0  0  0  0  0  0  0  0  0  0
    8.0934  -20.9996   20.9239 C   0  0  1  0  0  0  0  0  0  0  0  0
    8.0561  -21.8933   22.1441 C   0  0  0  0  0  0  0  0  0  0  0  0
    8.6768  -19.6422   21.1598 C   0  0  0  0  0  0  0  0  0  0  0  0
    8.5640  -18.6318   20.0996 C   0  0  2  0  0  0  0  0  0  0  0  0
    9.3714  -19.1108   18.9151 N   0  0  0  0  0  0  0  0  0  0  0  0
    8.9564  -17.2553   20.3398 C   0  0  0  0  0  0  0  0  0  0  0  0
   10.1517  -16.9106   20.1922 O   0  0  0  0  0  0  0  0  0  0  0  0
    6.0758  -14.2916   21.4779 C   0  0  0  0  0  0  0  0  0  0  0  0
    7.3579  -13.8982   20.8225 C   0  0  1  0  0  0  0  0  0  0  0  0
    7.8397  -12.5270   21.1834 C   0  0  0  0  0  0  0  0  0  0  0  0
    8.4838  -14.8797   21.0716 C   0  0  2  0  0  0  0  0  0  0  0  0
    8.0712  -16.2129   20.7457 N   0  0  0  0  0  0  0  0  0  0  0  0
    9.0369  -14.7636   22.4426 C   0  0  0  0  0  0  0  0  0  0  0  0
    9.4269  -13.6507   22.8832 O   0  0  0  0  0  0  0  0  0  0  0  0
    9.1580  -15.8739   23.3218 N   0  0  0  0  0  0  0  0  0  0  0  0
    8.8721  -15.7750   24.7544 C   0  0  1  0  0  0  0  0  0  0  0  0
    7.5125  -15.2057   24.9647 C   0  0  0  0  0  0  0  0  0  0  0  0
    7.5175  -13.9131   25.6342 C   0  0  0  0  0  0  0  0  0  0  0  0
    8.7166  -13.3658   26.0757 C   0  0  0  0  0  0  0  0  0  0  0  0
    8.7813  -12.1376   26.7153 C   0  0  0  0  0  0  0  0  0  0  0  0
    7.6260  -11.4236   26.9277 C   0  0  0  0  0  0  0  0  0  0  0  0
    6.4150  -11.9256   26.5081 C   0  0  0  0  0  0  0  0  0  0  0  0
    6.3946  -13.1499   25.8763 C   0  0  0  0  0  0  0  0  0  0  0  0
    9.0158  -17.0891   25.3753 C   0  0  0  0  0  0  0  0  0  0  0  0
    8.6059  -18.1664   24.8517 O   0  0  0  0  0  0  0  0  0  0  0  0
    9.6395  -17.1848   26.6201 O   0  0  0  0  0  0  0  0  0  0  0  0
  2  3  1  1
  2  1  1  0
  4  2  1  0
  5  7  1  0
  5  4  1  0
  5  6  1  6
  7  8  2  0
  7 13  1  0
 10  9  1  1
 10 12  1  0
 11 10  1  0
 12 14  1  0
 12 13  1  1
 14 15  2  0
 14 16  1  0
 16 17  1  0
 17 25  1  0
 17 18  1  6
 19 18  1  0
 19 20  2  0
 21 20  1  0
 22 21  2  0
 23 24  2  0
 23 22  1  0
 24 19  1  0
 25 27  1  0
 26 25  2  0
M  END
$$$$
