LVF.pdb
     RDKit          3D

 27 27  0  0  1  0  0  0  0  0999 V2000
    6.5099  -21.8291   22.4026 C   0  0  0  0  0  0  0  0  0  0  0  0
    6.6566  -20.9651   21.1310 C   0  0  1  0  0  0  0  0  0  0  0  0
    5.2601  -20.8186   20.5677 C   0  0  0  0  0  0  0  0  0  0  0  0
    7.3282  -19.6752   21.4826 C   0  0  0  0  0  0  0  0  0  0  0  0
    7.3803  -18.6089   20.4736 C   0  0  2  0  0  0  0  0  0  0  0  0
    8.0133  -19.1817   19.2264 N   0  0  0  0  0  0  0  0  0  0  0  0
    8.0631  -17.3581   20.7486 C   0  0  0  0  0  0  0  0  0  0  0  0
    9.3098  -17.2901   20.6456 O   0  0  0  0  0  0  0  0  0  0  0  0
    7.7810  -12.4298   21.5697 C   0  0  0  0  0  0  0  0  0  0  0  0
    7.1975  -13.7337   21.1364 C   0  0  1  0  0  0  0  0  0  0  0  0
    6.7846  -13.7768   19.6975 C   0  0  0  0  0  0  0  0  0  0  0  0
    8.1047  -14.9154   21.4073 C   0  0  2  0  0  0  0  0  0  0  0  0
    7.4210  -16.1467   21.1421 N   0  0  0  0  0  0  0  0  0  0  0  0
    8.7022  -14.8655   22.7637 C   0  0  0  0  0  0  0  0  0  0  0  0
    9.5704  -13.9997   23.0490 O   0  0  0  0  0  0  0  0  0  0  0  0
    8.3405  -15.7694   23.7993 N   0  0  0  0  0  0  0  0  0  0  0  0
    9.0341  -15.8038   25.0882 C   0  0  1  0  0  0  0  0  0  0  0  0
    8.1154  -15.3621   26.1734 C   0  0  0  0  0  0  0  0  0  0  0  0
    7.9869  -13.9158   26.2777 C   0  0  0  0  0  0  0  0  0  0  0  0
    6.7300  -13.3252   26.2149 C   0  0  0  0  0  0  0  0  0  0  0  0
    6.5480  -11.9545   26.3123 C   0  0  0  0  0  0  0  0  0  0  0  0
    7.6408  -11.1368   26.4771 C   0  0  0  0  0  0  0  0  0  0  0  0
    8.9052  -11.6764   26.5446 C   0  0  0  0  0  0  0  0  0  0  0  0
    9.0423  -13.0437   26.4435 C   0  0  0  0  0  0  0  0  0  0  0  0
    9.5571  -17.1461   25.3283 C   0  0  0  0  0  0  0  0  0  0  0  0
    9.4054  -18.1166   24.5296 O   0  0  0  0  0  0  0  0  0  0  0  0
   10.2696  -17.3949   26.5022 O   0  0  0  0  0  0  0  0  0  0  0  0
  2  3  1  1
  2  1  1  0
  4  2  1  0
  5  7  1  0
  5  4  1  0
  5  6  1  6
  7  8  2  0
  7 13  1  0
 10  9  1  6
 10 12  1  0
 11 10  1  0
 12 14  1  0
 12 13  1  1
 14 15  2  0
 14 16  1  0
 16 17  1  0
 17 25  1  0
 17 18  1  1
 19 18  1  0
 19 20  2  0
 21 20  1  0
 22 21  2  0
 23 24  2  0
 23 22  1  0
 24 19  1  0
 25 27  1  0
 26 25  2  0
M  END
$$$$
