LVF.pdb
     RDKit          3D

 27 27  0  0  1  0  0  0  0  0999 V2000
    9.0577  -22.0872   20.8762 C   0  0  0  0  0  0  0  0  0  0  0  0
    8.1492  -21.2059   21.7610 C   0  0  1  0  0  0  0  0  0  0  0  0
    8.1551  -21.8502   23.1299 C   0  0  0  0  0  0  0  0  0  0  0  0
    8.6460  -19.7949   21.7313 C   0  0  0  0  0  0  0  0  0  0  0  0
    8.3603  -18.9710   20.5491 C   0  0  2  0  0  0  0  0  0  0  0  0
    8.9400  -19.6741   19.3433 N   0  0  0  0  0  0  0  0  0  0  0  0
    8.8059  -17.5916   20.4792 C   0  0  0  0  0  0  0  0  0  0  0  0
   10.0009  -17.3332   20.2062 O   0  0  0  0  0  0  0  0  0  0  0  0
    6.1576  -14.4101   21.5199 C   0  0  0  0  0  0  0  0  0  0  0  0
    7.3040  -14.1266   20.6069 C   0  0  1  0  0  0  0  0  0  0  0  0
    7.8500  -12.7364   20.7158 C   0  0  0  0  0  0  0  0  0  0  0  0
    8.4510  -15.1026   20.7648 C   0  0  2  0  0  0  0  0  0  0  0  0
    7.9756  -16.4532   20.7015 N   0  0  0  0  0  0  0  0  0  0  0  0
    9.2581  -14.8292   21.9784 C   0  0  0  0  0  0  0  0  0  0  0  0
    9.6940  -13.6710   22.2095 O   0  0  0  0  0  0  0  0  0  0  0  0
    9.5813  -15.8327   22.9317 N   0  0  0  0  0  0  0  0  0  0  0  0
   10.0022  -15.5115   24.2968 C   0  0  1  0  0  0  0  0  0  0  0  0
    8.9555  -14.6982   24.9748 C   0  0  0  0  0  0  0  0  0  0  0  0
    9.2984  -14.3250   26.3395 C   0  0  0  0  0  0  0  0  0  0  0  0
    8.9597  -13.0651   26.8194 C   0  0  0  0  0  0  0  0  0  0  0  0
    9.2575  -12.6576   28.1105 C   0  0  0  0  0  0  0  0  0  0  0  0
    9.9113  -13.5198   28.9584 C   0  0  0  0  0  0  0  0  0  0  0  0
   10.2669  -14.7777   28.5273 C   0  0  0  0  0  0  0  0  0  0  0  0
    9.9522  -15.1433   27.2366 C   0  0  0  0  0  0  0  0  0  0  0  0
   10.2918  -16.7446   25.0239 C   0  0  0  0  0  0  0  0  0  0  0  0
   11.3437  -16.9341   25.7024 O   0  0  0  0  0  0  0  0  0  0  0  0
    9.3666  -17.7886   24.9811 O   0  0  0  0  0  0  0  0  0  0  0  0
  2  3  1  1
  2  1  1  0
  4  2  1  0
  5  7  1  0
  5  4  1  0
  5  6  1  6
  7  8  2  0
  7 13  1  0
 10  9  1  1
 10 12  1  0
 11 10  1  0
 12 14  1  0
 12 13  1  1
 14 15  2  0
 14 16  1  0
 16 17  1  0
 17 25  1  0
 17 18  1  1
 19 18  1  0
 19 20  2  0
 21 20  1  0
 22 21  2  0
 23 24  2  0
 23 22  1  0
 24 19  1  0
 25 27  1  0
 26 25  2  0
M  END
$$$$
