LVF.pdb
     RDKit          3D

 27 27  0  0  1  0  0  0  0  0999 V2000
    7.2559  -11.8985   19.3226 C   0  0  0  0  0  0  0  0  0  0  0  0
    8.1430  -13.1404   19.0864 C   0  0  1  0  0  0  0  0  0  0  0  0
    9.5699  -12.6376   19.1005 C   0  0  0  0  0  0  0  0  0  0  0  0
    7.8336  -14.1750   20.1219 C   0  0  0  0  0  0  0  0  0  0  0  0
    8.6929  -15.3631   20.2110 C   0  0  2  0  0  0  0  0  0  0  0  0
    8.3425  -16.2758   19.0583 N   0  0  0  0  0  0  0  0  0  0  0  0
    8.7001  -16.1873   21.4055 C   0  0  0  0  0  0  0  0  0  0  0  0
    7.6457  -16.7465   21.7862 O   0  0  0  0  0  0  0  0  0  0  0  0
   10.4544  -19.3709   22.1227 C   0  0  0  0  0  0  0  0  0  0  0  0
   10.8398  -18.4124   23.2001 C   0  0  1  0  0  0  0  0  0  0  0  0
   12.2069  -17.8221   23.0404 C   0  0  0  0  0  0  0  0  0  0  0  0
    9.8498  -17.2803   23.3768 C   0  0  2  0  0  0  0  0  0  0  0  0
    9.8439  -16.4313   22.2222 N   0  0  0  0  0  0  0  0  0  0  0  0
   10.0670  -16.5365   24.6413 C   0  0  0  0  0  0  0  0  0  0  0  0
   10.9514  -15.6437   24.7147 O   0  0  0  0  0  0  0  0  0  0  0  0
    9.3089  -16.7797   25.8188 N   0  0  0  0  0  0  0  0  0  0  0  0
    9.5524  -16.0609   27.0709 C   0  0  1  0  0  0  0  0  0  0  0  0
    8.2678  -15.5491   27.6228 C   0  0  0  0  0  0  0  0  0  0  0  0
    7.7057  -14.4414   26.8636 C   0  0  0  0  0  0  0  0  0  0  0  0
    8.3054  -13.1884   26.9188 C   0  0  0  0  0  0  0  0  0  0  0  0
    7.8161  -12.0995   26.2142 C   0  0  0  0  0  0  0  0  0  0  0  0
    6.6980  -12.2489   25.4284 C   0  0  0  0  0  0  0  0  0  0  0  0
    6.0703  -13.4708   25.3428 C   0  0  0  0  0  0  0  0  0  0  0  0
    6.5890  -14.5275   26.0591 C   0  0  0  0  0  0  0  0  0  0  0  0
   10.2410  -16.9378   28.0141 C   0  0  0  0  0  0  0  0  0  0  0  0
   10.7275  -16.5473   29.1158 O   0  0  0  0  0  0  0  0  0  0  0  0
   10.3819  -18.2906   27.7014 O   0  0  0  0  0  0  0  0  0  0  0  0
  2  3  1  1
  2  1  1  0
  4  2  1  0
  5  7  1  0
  5  4  1  0
  5  6  1  6
  7  8  2  0
  7 13  1  0
 10  9  1  6
 10 12  1  0
 11 10  1  0
 12 14  1  0
 12 13  1  6
 14 15  2  0
 14 16  1  0
 16 17  1  0
 17 25  1  0
 17 18  1  1
 19 18  1  0
 19 20  2  0
 21 20  1  0
 22 21  2  0
 23 24  2  0
 23 22  1  0
 24 19  1  0
 25 27  1  0
 26 25  2  0
M  END
$$$$
