LVF.pdb
     RDKit          3D

 27 27  0  0  1  0  0  0  0  0999 V2000
    6.2201  -12.2425   26.8012 C   0  0  0  0  0  0  0  0  0  0  0  0
    6.1319  -13.1489   25.5539 C   0  0  1  0  0  0  0  0  0  0  0  0
    6.9439  -12.4564   24.4816 C   0  0  0  0  0  0  0  0  0  0  0  0
    6.6038  -14.5244   25.9061 C   0  0  0  0  0  0  0  0  0  0  0  0
    6.5247  -15.5798   24.8874 C   0  0  2  0  0  0  0  0  0  0  0  0
    5.4677  -16.5677   25.3250 N   0  0  0  0  0  0  0  0  0  0  0  0
    7.6969  -16.3574   24.5301 C   0  0  0  0  0  0  0  0  0  0  0  0
    8.0651  -17.3059   25.2610 O   0  0  0  0  0  0  0  0  0  0  0  0
   10.2056  -15.4386   21.0790 C   0  0  0  0  0  0  0  0  0  0  0  0
    9.8666  -16.8310   21.4966 C   0  0  1  0  0  0  0  0  0  0  0  0
   10.8840  -17.8576   21.1043 C   0  0  0  0  0  0  0  0  0  0  0  0
    9.6043  -16.9638   22.9820 C   0  0  2  0  0  0  0  0  0  0  0  0
    8.5040  -16.1339   23.3755 N   0  0  0  0  0  0  0  0  0  0  0  0
   10.8247  -16.7292   23.7911 C   0  0  0  0  0  0  0  0  0  0  0  0
   11.8360  -16.1812   23.2796 O   0  0  0  0  0  0  0  0  0  0  0  0
   10.9253  -17.0993   25.1598 N   0  0  0  0  0  0  0  0  0  0  0  0
   12.1818  -17.0103   25.9061 C   0  0  1  0  0  0  0  0  0  0  0  0
   12.3986  -15.6137   26.3744 C   0  0  0  0  0  0  0  0  0  0  0  0
   11.3610  -15.1314   27.2744 C   0  0  0  0  0  0  0  0  0  0  0  0
   10.3749  -14.2743   26.7994 C   0  0  0  0  0  0  0  0  0  0  0  0
    9.3611  -13.7875   27.6097 C   0  0  0  0  0  0  0  0  0  0  0  0
    9.3163  -14.1568   28.9332 C   0  0  0  0  0  0  0  0  0  0  0  0
   10.2714  -15.0035   29.4482 C   0  0  0  0  0  0  0  0  0  0  0  0
   11.2619  -15.4648   28.6089 C   0  0  0  0  0  0  0  0  0  0  0  0
   12.1625  -17.9610   27.0146 C   0  0  0  0  0  0  0  0  0  0  0  0
   13.1002  -18.0837   27.8564 O   0  0  0  0  0  0  0  0  0  0  0  0
   11.0533  -18.7931   27.1733 O   0  0  0  0  0  0  0  0  0  0  0  0
  2  3  1  6
  2  1  1  0
  4  2  1  0
  5  7  1  0
  5  4  1  0
  5  6  1  1
  7  8  2  0
  7 13  1  0
 10  9  1  1
 10 12  1  0
 11 10  1  0
 12 14  1  0
 12 13  1  1
 14 15  2  0
 14 16  1  0
 16 17  1  0
 17 25  1  0
 17 18  1  1
 19 18  1  0
 19 20  2  0
 21 20  1  0
 22 21  2  0
 23 24  2  0
 23 22  1  0
 24 19  1  0
 25 27  1  0
 26 25  2  0
M  END
$$$$
