IRV.pdb
     RDKit          3D

 27 26  0  0  1  0  0  0  0  0999 V2000
   30.8175  -21.3636   -9.7294 C   0  0  0  0  0  0  0  0  0  0  0  0
   30.6609  -21.2705  -11.1996 C   0  0  0  0  0  0  0  0  0  0  0  0
   29.3142  -20.7947  -11.6494 C   0  0  2  0  0  0  0  0  0  0  0  0
   28.2767  -21.8081  -11.2381 C   0  0  0  0  0  0  0  0  0  0  0  0
   29.1997  -20.5829  -13.1448 C   0  0  2  0  0  0  0  0  0  0  0  0
   30.2222  -19.6496  -13.5999 N   0  0  0  0  0  0  0  0  0  0  0  0
   27.8342  -19.9983  -13.3626 C   0  0  0  0  0  0  0  0  0  0  0  0
   27.4781  -18.9072  -12.7903 O   0  0  0  0  0  0  0  0  0  0  0  0
   21.0281  -18.4671  -17.5713 N   0  0  0  0  0  0  0  0  0  0  0  0
   22.2122  -17.7733  -18.0456 C   0  0  0  0  0  0  0  0  0  0  0  0
   22.1607  -16.5974  -18.4658 N   0  0  0  0  0  0  0  0  0  0  0  0
   23.4603  -18.4460  -18.0311 N   0  0  0  0  0  0  0  0  0  0  0  0
   23.4722  -19.8424  -17.5740 C   0  0  0  0  0  0  0  0  0  0  0  0
   23.7714  -19.8025  -16.0736 C   0  0  0  0  0  0  0  0  0  0  0  0
   25.2055  -20.1868  -15.8538 C   0  0  0  0  0  0  0  0  0  0  0  0
   25.5052  -20.2543  -14.3413 C   0  0  2  0  0  0  0  0  0  0  0  0
   26.8743  -20.6029  -14.1969 N   0  0  0  0  0  0  0  0  0  0  0  0
   24.5007  -21.0717  -13.6658 C   0  0  0  0  0  0  0  0  0  0  0  0
   24.3407  -22.2807  -13.8737 O   0  0  0  0  0  0  0  0  0  0  0  0
   22.8522  -15.9693  -18.8455 C   0  0  0  0  0  0  0  0  0  0  0  0
   23.6869  -20.8279   -9.8121 C   0  0  2  0  0  0  0  0  0  0  0  0
   22.4088  -20.6285  -10.5829 C   0  0  0  0  0  0  0  0  0  0  0  0
   22.0398  -19.1772  -10.5760 C   0  0  2  0  0  0  0  0  0  0  0  0
   22.5642  -21.1493  -12.0228 N   0  0  0  0  0  0  0  0  0  0  0  0
   23.6441  -20.4452  -12.6898 C   0  0  0  0  0  0  0  0  0  0  0  0
   21.3105  -21.0878  -12.7527 O   0  0  0  0  0  0  0  0  0  0  0  0
   20.1672  -21.8435  -12.5793 O   0  0  0  0  0  0  0  0  0  0  0  0
  2  1  1  0
  3  4  1  6
  3  2  1  0
  5  3  1  0
  5  6  1  1
  7  8  2  0
  7  5  1  0
  9 10  1  0
 10 12  1  0
 11 10  2  0
 12 13  1  0
 13 14  1  0
 14 15  1  0
 16 15  1  6
 16 17  1  0
 17  7  1  0
 18 16  1  0
 19 18  2  0
 21 20  1  1
 21 23  1  0
 21 22  1  0
 23 24  1  6
 24 18  1  0
 25 26  1  0
 25 23  1  0
 27 25  2  0
M  END
$$$$
