IRV.pdb
     RDKit          3D

 27 26  0  0  1  0  0  0  0  0999 V2000
   29.0255  -19.3472   -4.2514 C   0  0  0  0  0  0  0  0  0  0  0  0
   29.3973  -19.7338   -5.6324 C   0  0  0  0  0  0  0  0  0  0  0  0
   28.3932  -19.3482   -6.6742 C   0  0  2  0  0  0  0  0  0  0  0  0
   27.6605  -18.1144   -6.2122 C   0  0  0  0  0  0  0  0  0  0  0  0
   27.3672  -20.4218   -6.9729 C   0  0  2  0  0  0  0  0  0  0  0  0
   28.0332  -21.6692   -7.3252 N   0  0  0  0  0  0  0  0  0  0  0  0
   26.5806  -19.9085   -8.1440 C   0  0  0  0  0  0  0  0  0  0  0  0
   25.8607  -18.8512   -8.0505 O   0  0  0  0  0  0  0  0  0  0  0  0
   25.9478  -23.6404  -15.0503 N   0  0  0  0  0  0  0  0  0  0  0  0
   25.8262  -22.2634  -15.4952 C   0  0  0  0  0  0  0  0  0  0  0  0
   25.0726  -21.9419  -16.4389 N   0  0  0  0  0  0  0  0  0  0  0  0
   26.5808  -21.2564  -14.8418 N   0  0  0  0  0  0  0  0  0  0  0  0
   27.4097  -21.6646  -13.6993 C   0  0  0  0  0  0  0  0  0  0  0  0
   26.4975  -21.6314  -12.4709 C   0  0  0  0  0  0  0  0  0  0  0  0
   26.6681  -20.3129  -11.7746 C   0  0  0  0  0  0  0  0  0  0  0  0
   25.7660  -20.2593  -10.5234 C   0  0  2  0  0  0  0  0  0  0  0  0
   26.5850  -20.5468   -9.3993 N   0  0  0  0  0  0  0  0  0  0  0  0
   24.5638  -21.0611  -10.7357 C   0  0  0  0  0  0  0  0  0  0  0  0
   24.5042  -22.2813  -10.5401 O   0  0  0  0  0  0  0  0  0  0  0  0
   24.8833  -21.0673  -16.9036 C   0  0  0  0  0  0  0  0  0  0  0  0
   21.2376  -20.1951   -9.2071 C   0  0  2  0  0  0  0  0  0  0  0  0
   20.9716  -20.3131  -10.6845 C   0  0  0  0  0  0  0  0  0  0  0  0
   20.8281  -18.9462  -11.2793 C   0  0  2  0  0  0  0  0  0  0  0  0
   22.1044  -21.0956  -11.3724 N   0  0  0  0  0  0  0  0  0  0  0  0
   23.3660  -20.4010  -11.1922 C   0  0  0  0  0  0  0  0  0  0  0  0
   21.7992  -21.3655  -12.7661 O   0  0  0  0  0  0  0  0  0  0  0  0
   20.8246  -22.1875  -13.2978 O   0  0  0  0  0  0  0  0  0  0  0  0
  2  1  1  0
  3  4  1  1
  3  2  1  0
  5  3  1  0
  5  6  1  6
  7  8  2  0
  7  5  1  0
  9 10  1  0
 10 12  1  0
 11 10  2  0
 12 13  1  0
 13 14  1  0
 14 15  1  0
 16 15  1  6
 16 17  1  0
 17  7  1  0
 18 16  1  0
 19 18  2  0
 21 20  1  1
 21 23  1  0
 21 22  1  0
 23 24  1  6
 24 18  1  0
 25 26  1  0
 25 23  1  0
 27 25  2  0
M  END
$$$$
