IRV.pdb
     RDKit          3D

 27 26  0  0  1  0  0  0  0  0999 V2000
   26.7613  -20.5085   -6.7680 C   0  0  0  0  0  0  0  0  0  0  0  0
   25.6070  -20.0995   -7.6018 C   0  0  0  0  0  0  0  0  0  0  0  0
   25.8258  -20.2461   -9.0758 C   0  0  2  0  0  0  0  0  0  0  0  0
   27.1093  -19.5495   -9.4499 C   0  0  0  0  0  0  0  0  0  0  0  0
   24.7123  -19.6724   -9.9274 C   0  0  2  0  0  0  0  0  0  0  0  0
   23.4498  -20.3285   -9.6125 N   0  0  0  0  0  0  0  0  0  0  0  0
   25.1044  -19.9628  -11.3472 C   0  0  0  0  0  0  0  0  0  0  0  0
   26.3052  -19.7772  -11.7575 O   0  0  0  0  0  0  0  0  0  0  0  0
   22.1377  -25.1539  -15.1280 N   0  0  0  0  0  0  0  0  0  0  0  0
   23.2092  -25.6860  -14.3049 C   0  0  0  0  0  0  0  0  0  0  0  0
   23.1390  -26.8221  -13.7888 N   0  0  0  0  0  0  0  0  0  0  0  0
   24.3663  -24.8976  -14.0813 N   0  0  0  0  0  0  0  0  0  0  0  0
   24.3481  -23.5128  -14.5722 C   0  0  0  0  0  0  0  0  0  0  0  0
   23.2129  -22.8062  -13.8278 C   0  0  0  0  0  0  0  0  0  0  0  0
   23.1717  -21.3685  -14.2567 C   0  0  0  0  0  0  0  0  0  0  0  0
   24.3987  -20.6182  -13.6967 C   0  0  2  0  0  0  0  0  0  0  0  0
   24.1912  -20.4504  -12.3019 N   0  0  0  0  0  0  0  0  0  0  0  0
   24.6792  -19.4370  -14.5089 C   0  0  0  0  0  0  0  0  0  0  0  0
   23.9906  -18.4094  -14.4938 O   0  0  0  0  0  0  0  0  0  0  0  0
   23.7836  -27.3733  -13.2435 C   0  0  0  0  0  0  0  0  0  0  0  0
   28.2063  -17.2189  -17.2766 C   0  0  1  0  0  0  0  0  0  0  0  0
   27.7559  -18.4085  -16.4706 C   0  0  0  0  0  0  0  0  0  0  0  0
   28.5719  -18.5044  -15.2186 C   0  0  1  0  0  0  0  0  0  0  0  0
   26.2565  -18.2969  -16.1421 N   0  0  0  0  0  0  0  0  0  0  0  0
   25.8299  -19.4544  -15.3774 C   0  0  0  0  0  0  0  0  0  0  0  0
   25.4609  -18.0819  -17.3376 O   0  0  0  0  0  0  0  0  0  0  0  0
   25.0003  -16.8942  -17.8718 O   0  0  0  0  0  0  0  0  0  0  0  0
  2  1  1  0
  3  4  1  6
  3  2  1  0
  5  3  1  0
  5  6  1  1
  7  8  2  0
  7  5  1  0
  9 10  1  0
 10 12  1  0
 11 10  2  0
 12 13  1  0
 13 14  1  0
 14 15  1  0
 16 15  1  6
 16 17  1  0
 17  7  1  0
 18 16  1  0
 19 18  2  0
 21 20  1  6
 21 23  1  0
 21 22  1  0
 23 24  1  6
 24 18  1  0
 25 26  1  0
 25 23  1  0
 27 25  2  0
M  END
$$$$
