IRV.pdb
     RDKit          3D

 27 26  0  0  1  0  0  0  0  0999 V2000
   28.3410  -18.8446   -5.1254 C   0  0  0  0  0  0  0  0  0  0  0  0
   27.5928  -19.9537   -5.7617 C   0  0  0  0  0  0  0  0  0  0  0  0
   27.0946  -19.6523   -7.1412 C   0  0  2  0  0  0  0  0  0  0  0  0
   27.0817  -18.1580   -7.3393 C   0  0  0  0  0  0  0  0  0  0  0  0
   25.7027  -20.1777   -7.4256 C   0  0  2  0  0  0  0  0  0  0  0  0
   25.6374  -21.6060   -7.1439 N   0  0  0  0  0  0  0  0  0  0  0  0
   25.4725  -19.9295   -8.8882 C   0  0  0  0  0  0  0  0  0  0  0  0
   25.3332  -18.7403   -9.3478 O   0  0  0  0  0  0  0  0  0  0  0  0
   24.5979  -24.8373  -15.0322 N   0  0  0  0  0  0  0  0  0  0  0  0
   24.9078  -23.7890  -15.9882 C   0  0  0  0  0  0  0  0  0  0  0  0
   24.3923  -23.7644  -17.1264 N   0  0  0  0  0  0  0  0  0  0  0  0
   25.8179  -22.7655  -15.6213 N   0  0  0  0  0  0  0  0  0  0  0  0
   26.3266  -22.7731  -14.2428 C   0  0  0  0  0  0  0  0  0  0  0  0
   25.4293  -21.8228  -13.4466 C   0  0  0  0  0  0  0  0  0  0  0  0
   25.8446  -21.8563  -12.0048 C   0  0  0  0  0  0  0  0  0  0  0  0
   24.9637  -20.8923  -11.1821 C   0  0  2  0  0  0  0  0  0  0  0  0
   25.3971  -20.9719   -9.8320 N   0  0  0  0  0  0  0  0  0  0  0  0
   23.5524  -21.1245  -11.4781 C   0  0  0  0  0  0  0  0  0  0  0  0
   22.9018  -22.0788  -11.0347 O   0  0  0  0  0  0  0  0  0  0  0  0
   24.5565  -23.2008  -17.9463 C   0  0  0  0  0  0  0  0  0  0  0  0
   21.5260  -18.6855  -14.4873 C   0  0  2  0  0  0  0  0  0  0  0  0
   20.9657  -18.8428  -13.0985 C   0  0  0  0  0  0  0  0  0  0  0  0
   19.4714  -18.7573  -13.1476 C   0  0  1  0  0  0  0  0  0  0  0  0
   21.4199  -20.1793  -12.4853 N   0  0  0  0  0  0  0  0  0  0  0  0
   22.8629  -20.1875  -12.3299 C   0  0  0  0  0  0  0  0  0  0  0  0
   20.9245  -21.3130  -13.2452 O   0  0  0  0  0  0  0  0  0  0  0  0
   21.5488  -22.0220  -14.2531 O   0  0  0  0  0  0  0  0  0  0  0  0
  2  1  1  0
  3  4  1  1
  3  2  1  0
  5  3  1  0
  5  6  1  6
  7  8  2  0
  7  5  1  0
  9 10  1  0
 10 12  1  0
 11 10  2  0
 12 13  1  0
 13 14  1  0
 14 15  1  0
 16 15  1  6
 16 17  1  0
 17  7  1  0
 18 16  1  0
 19 18  2  0
 21 20  1  1
 21 23  1  0
 21 22  1  0
 23 24  1  1
 24 18  1  0
 25 26  1  0
 25 23  1  0
 27 25  2  0
M  END
$$$$
