IRV.pdb
     RDKit          3D

 27 26  0  0  1  0  0  0  0  0999 V2000
   20.9210  -16.2017  -16.8755 C   0  0  0  0  0  0  0  0  0  0  0  0
   22.0542  -16.8504  -17.5755 C   0  0  0  0  0  0  0  0  0  0  0  0
   22.8575  -17.7816  -16.7212 C   0  0  2  0  0  0  0  0  0  0  0  0
   23.4235  -17.0092  -15.5569 C   0  0  0  0  0  0  0  0  0  0  0  0
   24.0066  -18.4513  -17.4460 C   0  0  2  0  0  0  0  0  0  0  0  0
   23.5091  -19.2005  -18.5927 N   0  0  0  0  0  0  0  0  0  0  0  0
   24.6198  -19.3872  -16.4451 C   0  0  0  0  0  0  0  0  0  0  0  0
   23.9409  -20.3421  -15.9236 O   0  0  0  0  0  0  0  0  0  0  0  0
   26.8756  -20.6746  -19.9716 N   0  0  0  0  0  0  0  0  0  0  0  0
   28.0011  -21.5763  -19.8016 C   0  0  0  0  0  0  0  0  0  0  0  0
   28.2358  -22.4951  -20.6157 N   0  0  0  0  0  0  0  0  0  0  0  0
   28.8575  -21.4103  -18.6838 N   0  0  0  0  0  0  0  0  0  0  0  0
   28.5194  -20.3521  -17.7222 C   0  0  0  0  0  0  0  0  0  0  0  0
   28.4647  -21.0206  -16.3466 C   0  0  0  0  0  0  0  0  0  0  0  0
   28.1272  -19.9836  -15.3155 C   0  0  0  0  0  0  0  0  0  0  0  0
   26.6151  -20.0213  -15.0083 C   0  0  2  0  0  0  0  0  0  0  0  0
   25.9589  -19.2761  -16.0237 N   0  0  0  0  0  0  0  0  0  0  0  0
   26.3767  -19.6619  -13.6128 C   0  0  0  0  0  0  0  0  0  0  0  0
   26.5464  -18.5257  -13.1537 O   0  0  0  0  0  0  0  0  0  0  0  0
   28.9800  -23.1703  -20.6985 C   0  0  0  0  0  0  0  0  0  0  0  0
   23.7022  -22.0272  -11.3721 C   0  0  2  0  0  0  0  0  0  0  0  0
   24.1154  -20.6179  -11.0394 C   0  0  0  0  0  0  0  0  0  0  0  0
   23.7869  -20.3232   -9.6084 C   0  0  1  0  0  0  0  0  0  0  0  0
   25.6177  -20.4215  -11.3101 N   0  0  0  0  0  0  0  0  0  0  0  0
   25.9067  -20.6818  -12.7085 C   0  0  0  0  0  0  0  0  0  0  0  0
   26.4327  -21.2123  -10.4053 O   0  0  0  0  0  0  0  0  0  0  0  0
   26.8947  -20.8876   -9.1447 O   0  0  0  0  0  0  0  0  0  0  0  0
  2  1  1  0
  3  4  1  1
  3  2  1  0
  5  3  1  0
  5  6  1  6
  7  8  2  0
  7  5  1  0
  9 10  1  0
 10 12  1  0
 11 10  2  0
 12 13  1  0
 13 14  1  0
 14 15  1  0
 16 15  1  6
 16 17  1  0
 17  7  1  0
 18 16  1  0
 19 18  2  0
 21 20  1  6
 21 23  1  0
 21 22  1  0
 23 24  1  6
 24 18  1  0
 25 26  1  0
 25 23  1  0
 27 25  2  0
M  END
$$$$
