IRV.pdb
     RDKit          3D

 27 26  0  0  1  0  0  0  0  0999 V2000
   28.4804  -20.7395   -8.7357 C   0  0  0  0  0  0  0  0  0  0  0  0
   28.4695  -21.2855  -10.1128 C   0  0  0  0  0  0  0  0  0  0  0  0
   27.2117  -21.0104  -10.8774 C   0  0  2  0  0  0  0  0  0  0  0  0
   26.0660  -21.7213  -10.2033 C   0  0  0  0  0  0  0  0  0  0  0  0
   27.2567  -21.4552  -12.3246 C   0  0  2  0  0  0  0  0  0  0  0  0
   28.4617  -20.9486  -12.9688 N   0  0  0  0  0  0  0  0  0  0  0  0
   26.0385  -20.8559  -12.9653 C   0  0  0  0  0  0  0  0  0  0  0  0
   25.8441  -19.5882  -12.9699 O   0  0  0  0  0  0  0  0  0  0  0  0
   26.2446  -25.2618  -16.3676 N   0  0  0  0  0  0  0  0  0  0  0  0
   24.8407  -25.4355  -16.6960 C   0  0  0  0  0  0  0  0  0  0  0  0
   24.2229  -26.4826  -16.4064 N   0  0  0  0  0  0  0  0  0  0  0  0
   24.1516  -24.3901  -17.3615 N   0  0  0  0  0  0  0  0  0  0  0  0
   24.7661  -23.0555  -17.3451 C   0  0  0  0  0  0  0  0  0  0  0  0
   24.8422  -22.6337  -15.8759 C   0  0  0  0  0  0  0  0  0  0  0  0
   23.7560  -21.6355  -15.6002 C   0  0  0  0  0  0  0  0  0  0  0  0
   23.8034  -21.2036  -14.1192 C   0  0  2  0  0  0  0  0  0  0  0  0
   25.0487  -21.6374  -13.5921 N   0  0  0  0  0  0  0  0  0  0  0  0
   22.5766  -21.6090  -13.4379 C   0  0  0  0  0  0  0  0  0  0  0  0
   22.3231  -22.7738  -13.1072 O   0  0  0  0  0  0  0  0  0  0  0  0
   23.2833  -26.8015  -16.5860 C   0  0  0  0  0  0  0  0  0  0  0  0
   21.2144  -19.5567  -10.4481 C   0  0  2  0  0  0  0  0  0  0  0  0
   20.0686  -19.7461  -11.4066 C   0  0  0  0  0  0  0  0  0  0  0  0
   19.8089  -18.4653  -12.1377 C   0  0  2  0  0  0  0  0  0  0  0  0
   20.3765  -20.8882  -12.3912 N   0  0  0  0  0  0  0  0  0  0  0  0
   21.5988  -20.5987  -13.1184 C   0  0  0  0  0  0  0  0  0  0  0  0
   19.2485  -21.1619  -13.2635 O   0  0  0  0  0  0  0  0  0  0  0  0
   18.0156  -21.6979  -12.9459 O   0  0  0  0  0  0  0  0  0  0  0  0
  2  1  1  0
  3  4  1  1
  3  2  1  0
  5  3  1  0
  5  6  1  6
  7  8  2  0
  7  5  1  0
  9 10  1  0
 10 12  1  0
 11 10  2  0
 12 13  1  0
 13 14  1  0
 14 15  1  0
 16 15  1  6
 16 17  1  0
 17  7  1  0
 18 16  1  0
 19 18  2  0
 21 20  1  1
 21 23  1  0
 21 22  1  0
 23 24  1  1
 24 18  1  0
 25 26  1  0
 25 23  1  0
 27 25  2  0
M  END
$$$$
