IRV.pdb
     RDKit          3D

 27 26  0  0  1  0  0  0  0  0999 V2000
   17.8828  -14.9170  -16.8863 C   0  0  0  0  0  0  0  0  0  0  0  0
   17.0741  -14.1493  -15.9109 C   0  0  0  0  0  0  0  0  0  0  0  0
   17.3515  -12.6779  -15.8996 C   0  0  2  0  0  0  0  0  0  0  0  0
   18.8070  -12.4586  -15.5743 C   0  0  0  0  0  0  0  0  0  0  0  0
   16.5223  -11.8989  -14.8997 C   0  0  2  0  0  0  0  0  0  0  0  0
   15.1026  -12.0851  -15.1707 N   0  0  0  0  0  0  0  0  0  0  0  0
   16.9013  -10.4602  -15.1002 C   0  0  0  0  0  0  0  0  0  0  0  0
   17.0381   -9.9654  -16.2755 O   0  0  0  0  0  0  0  0  0  0  0  0
   12.1313   -4.6127  -13.3555 N   0  0  0  0  0  0  0  0  0  0  0  0
   11.9932   -5.6202  -14.3921 C   0  0  0  0  0  0  0  0  0  0  0  0
   10.9427   -5.7372  -15.0589 N   0  0  0  0  0  0  0  0  0  0  0  0
   13.0784   -6.4938  -14.6563 N   0  0  0  0  0  0  0  0  0  0  0  0
   14.2789   -6.3553  -13.8206 C   0  0  0  0  0  0  0  0  0  0  0  0
   15.3023   -7.3536  -14.3670 C   0  0  0  0  0  0  0  0  0  0  0  0
   16.5191   -7.3315  -13.4888 C   0  0  0  0  0  0  0  0  0  0  0  0
   17.6122   -8.2448  -14.0831 C   0  0  2  0  0  0  0  0  0  0  0  0
   17.1262   -9.5779  -14.0259 N   0  0  0  0  0  0  0  0  0  0  0  0
   18.9046   -7.9450  -13.4721 C   0  0  0  0  0  0  0  0  0  0  0  0
   19.2014   -8.2356  -12.3068 O   0  0  0  0  0  0  0  0  0  0  0  0
   10.6593   -6.3646  -15.7957 C   0  0  0  0  0  0  0  0  0  0  0  0
   22.1526   -9.1985  -14.2770 C   0  0  2  0  0  0  0  0  0  0  0  0
   22.3013   -7.7202  -14.5217 C   0  0  0  0  0  0  0  0  0  0  0  0
   22.2196   -7.4441  -15.9913 C   0  0  2  0  0  0  0  0  0  0  0  0
   21.2202   -6.9383  -13.7546 N   0  0  0  0  0  0  0  0  0  0  0  0
   19.9057   -7.2787  -14.2675 C   0  0  0  0  0  0  0  0  0  0  0  0
   21.4819   -5.5101  -13.7671 O   0  0  0  0  0  0  0  0  0  0  0  0
   22.4406   -4.7972  -13.0738 O   0  0  0  0  0  0  0  0  0  0  0  0
  2  1  1  0
  3  4  1  1
  3  2  1  0
  5  3  1  0
  5  6  1  6
  7  8  2  0
  7  5  1  0
  9 10  1  0
 10 12  1  0
 11 10  2  0
 12 13  1  0
 13 14  1  0
 14 15  1  0
 16 15  1  1
 16 17  1  0
 17  7  1  0
 18 16  1  0
 19 18  2  0
 21 20  1  6
 21 23  1  0
 21 22  1  0
 23 24  1  1
 24 18  1  0
 25 26  1  0
 25 23  1  0
 27 25  2  0
M  END
$$$$
