IRV.pdb
     RDKit          3D

 27 26  0  0  1  0  0  0  0  0999 V2000
   24.3590  -16.2051  -19.5177 C   0  0  0  0  0  0  0  0  0  0  0  0
   23.7841  -17.4941  -19.9681 C   0  0  0  0  0  0  0  0  0  0  0  0
   23.2788  -18.3665  -18.8611 C   0  0  2  0  0  0  0  0  0  0  0  0
   22.1012  -17.6904  -18.2063 C   0  0  0  0  0  0  0  0  0  0  0  0
   24.3067  -18.6653  -17.7895 C   0  0  2  0  0  0  0  0  0  0  0  0
   25.4591  -19.3402  -18.3728 N   0  0  0  0  0  0  0  0  0  0  0  0
   23.6157  -19.5743  -16.8147 C   0  0  0  0  0  0  0  0  0  0  0  0
   22.9830  -20.6173  -17.2104 O   0  0  0  0  0  0  0  0  0  0  0  0
   27.1203  -21.1027  -10.7092 N   0  0  0  0  0  0  0  0  0  0  0  0
   25.9642  -21.8039  -11.2388 C   0  0  0  0  0  0  0  0  0  0  0  0
   26.0260  -22.4683  -12.2956 N   0  0  0  0  0  0  0  0  0  0  0  0
   24.7330  -21.7348  -10.5390 N   0  0  0  0  0  0  0  0  0  0  0  0
   23.9074  -20.5356  -10.7368 C   0  0  0  0  0  0  0  0  0  0  0  0
   23.1293  -20.7571  -12.0360 C   0  0  0  0  0  0  0  0  0  0  0  0
   23.6726  -19.8377  -13.0904 C   0  0  0  0  0  0  0  0  0  0  0  0
   22.9242  -20.0644  -14.4211 C   0  0  2  0  0  0  0  0  0  0  0  0
   23.6201  -19.3413  -15.4259 N   0  0  0  0  0  0  0  0  0  0  0  0
   21.4959  -19.8156  -14.2432 C   0  0  0  0  0  0  0  0  0  0  0  0
   21.0224  -18.7250  -13.9015 O   0  0  0  0  0  0  0  0  0  0  0  0
   25.3832  -23.0943  -12.7557 C   0  0  0  0  0  0  0  0  0  0  0  0
   18.8887  -21.4147  -16.7750 C   0  0  2  0  0  0  0  0  0  0  0  0
   18.4282  -21.6866  -15.3673 C   0  0  0  0  0  0  0  0  0  0  0  0
   18.6970  -23.1181  -15.0191 C   0  0  2  0  0  0  0  0  0  0  0  0
   19.1330  -20.7392  -14.3802 N   0  0  0  0  0  0  0  0  0  0  0  0
   20.5721  -20.8956  -14.4860 C   0  0  0  0  0  0  0  0  0  0  0  0
   18.6411  -20.9149  -13.0254 O   0  0  0  0  0  0  0  0  0  0  0  0
   17.4875  -20.4190  -12.4497 O   0  0  0  0  0  0  0  0  0  0  0  0
  2  1  1  0
  3  4  1  1
  3  2  1  0
  5  3  1  0
  5  6  1  6
  7  8  2  0
  7  5  1  0
  9 10  1  0
 10 12  1  0
 11 10  2  0
 12 13  1  0
 13 14  1  0
 14 15  1  0
 16 15  1  1
 16 17  1  0
 17  7  1  0
 18 16  1  0
 19 18  2  0
 21 20  1  6
 21 23  1  0
 21 22  1  0
 23 24  1  1
 24 18  1  0
 25 26  1  0
 25 23  1  0
 27 25  2  0
M  END
$$$$
