IRV.pdb
     RDKit          3D

 27 26  0  0  1  0  0  0  0  0999 V2000
   22.0894  -21.7464  -18.3540 C   0  0  0  0  0  0  0  0  0  0  0  0
   23.4097  -21.5579  -17.7090 C   0  0  0  0  0  0  0  0  0  0  0  0
   24.3478  -22.7138  -17.8707 C   0  0  2  0  0  0  0  0  0  0  0  0
   23.7746  -23.9106  -17.1553 C   0  0  0  0  0  0  0  0  0  0  0  0
   25.7396  -22.4625  -17.3287 C   0  0  2  0  0  0  0  0  0  0  0  0
   26.3105  -21.2706  -17.9429 N   0  0  0  0  0  0  0  0  0  0  0  0
   26.5417  -23.6732  -17.7090 C   0  0  0  0  0  0  0  0  0  0  0  0
   26.4637  -24.1812  -18.8840 O   0  0  0  0  0  0  0  0  0  0  0  0
   34.6931  -24.0344  -18.2646 N   0  0  0  0  0  0  0  0  0  0  0  0
   33.4860  -24.8320  -18.3892 C   0  0  0  0  0  0  0  0  0  0  0  0
   33.3643  -25.7059  -19.2744 N   0  0  0  0  0  0  0  0  0  0  0  0
   32.4174  -24.6155  -17.4827 N   0  0  0  0  0  0  0  0  0  0  0  0
   32.0575  -25.7201  -16.5831 C   0  0  0  0  0  0  0  0  0  0  0  0
   30.6416  -26.1503  -16.9735 C   0  0  0  0  0  0  0  0  0  0  0  0
   29.7012  -25.0070  -16.7269 C   0  0  0  0  0  0  0  0  0  0  0  0
   28.2570  -25.4321  -17.0674 C   0  0  2  0  0  0  0  0  0  0  0  0
   27.4167  -24.3161  -16.8122 N   0  0  0  0  0  0  0  0  0  0  0  0
   27.9429  -26.7052  -16.4241 C   0  0  0  0  0  0  0  0  0  0  0  0
   27.8395  -26.8534  -15.2002 O   0  0  0  0  0  0  0  0  0  0  0  0
   32.6518  -26.3906  -19.4747 C   0  0  0  0  0  0  0  0  0  0  0  0
   25.0134  -28.9885  -17.4869 C   0  0  2  0  0  0  0  0  0  0  0  0
   26.2737  -29.8088  -17.5653 C   0  0  0  0  0  0  0  0  0  0  0  0
   26.7004  -29.9379  -18.9949 C   0  0  2  0  0  0  0  0  0  0  0  0
   27.3850  -29.1667  -16.7159 N   0  0  0  0  0  0  0  0  0  0  0  0
   27.7298  -27.8640  -17.2551 C   0  0  0  0  0  0  0  0  0  0  0  0
   28.5320  -30.0468  -16.5809 O   0  0  0  0  0  0  0  0  0  0  0  0
   29.8127  -29.8853  -17.0727 O   0  0  0  0  0  0  0  0  0  0  0  0
  2  1  1  0
  3  4  1  1
  3  2  1  0
  5  3  1  0
  5  6  1  6
  7  8  2  0
  7  5  1  0
  9 10  1  0
 10 12  1  0
 11 10  2  0
 12 13  1  0
 13 14  1  0
 14 15  1  0
 16 15  1  1
 16 17  1  0
 17  7  1  0
 18 16  1  0
 19 18  2  0
 21 20  1  6
 21 23  1  0
 21 22  1  0
 23 24  1  1
 24 18  1  0
 25 26  1  0
 25 23  1  0
 27 25  2  0
M  END
$$$$
