IRV.pdb
     RDKit          3D

 27 26  0  0  1  0  0  0  0  0999 V2000
   26.4016  -19.4959   -7.7276 C   0  0  0  0  0  0  0  0  0  0  0  0
   26.9362  -20.3937   -8.7779 C   0  0  0  0  0  0  0  0  0  0  0  0
   26.0942  -20.4700  -10.0138 C   0  0  2  0  0  0  0  0  0  0  0  0
   24.7431  -21.0306   -9.6493 C   0  0  0  0  0  0  0  0  0  0  0  0
   26.6820  -21.3324  -11.1115 C   0  0  2  0  0  0  0  0  0  0  0  0
   27.9814  -20.8123  -11.5177 N   0  0  0  0  0  0  0  0  0  0  0  0
   25.7112  -21.2435  -12.2532 C   0  0  0  0  0  0  0  0  0  0  0  0
   25.5797  -20.1638  -12.9327 O   0  0  0  0  0  0  0  0  0  0  0  0
   25.1655  -27.2266  -16.1829 N   0  0  0  0  0  0  0  0  0  0  0  0
   25.0162  -26.2801  -17.2740 C   0  0  0  0  0  0  0  0  0  0  0  0
   25.7999  -26.2705  -18.2474 N   0  0  0  0  0  0  0  0  0  0  0  0
   23.9531  -25.3426  -17.2356 N   0  0  0  0  0  0  0  0  0  0  0  0
   23.1173  -25.3147  -16.0274 C   0  0  0  0  0  0  0  0  0  0  0  0
   23.1374  -23.8702  -15.5223 C   0  0  0  0  0  0  0  0  0  0  0  0
   24.0174  -23.7919  -14.3091 C   0  0  0  0  0  0  0  0  0  0  0  0
   23.9651  -22.3691  -13.7134 C   0  0  2  0  0  0  0  0  0  0  0  0
   24.8972  -22.3246  -12.6429 N   0  0  0  0  0  0  0  0  0  0  0  0
   22.5806  -21.9845  -13.4512 C   0  0  0  0  0  0  0  0  0  0  0  0
   21.9052  -22.4313  -12.5159 O   0  0  0  0  0  0  0  0  0  0  0  0
   25.8930  -25.6704  -19.0524 C   0  0  0  0  0  0  0  0  0  0  0  0
   21.5172  -18.2079  -13.6593 C   0  0  2  0  0  0  0  0  0  0  0  0
   20.5583  -19.0163  -14.4926 C   0  0  0  0  0  0  0  0  0  0  0  0
   20.8827  -18.8400  -15.9439 C   0  0  2  0  0  0  0  0  0  0  0  0
   20.6201  -20.5011  -14.0921 N   0  0  0  0  0  0  0  0  0  0  0  0
   21.9556  -21.0206  -14.3224 C   0  0  0  0  0  0  0  0  0  0  0  0
   19.5871  -21.2777  -14.7541 O   0  0  0  0  0  0  0  0  0  0  0  0
   18.2480  -21.3917  -14.4347 O   0  0  0  0  0  0  0  0  0  0  0  0
  2  1  1  0
  3  4  1  1
  3  2  1  0
  5  3  1  0
  5  6  1  6
  7  8  2  0
  7  5  1  0
  9 10  1  0
 10 12  1  0
 11 10  2  0
 12 13  1  0
 13 14  1  0
 14 15  1  0
 16 15  1  1
 16 17  1  0
 17  7  1  0
 18 16  1  0
 19 18  2  0
 21 20  1  6
 21 23  1  0
 21 22  1  0
 23 24  1  1
 24 18  1  0
 25 26  1  0
 25 23  1  0
 27 25  2  0
M  END
$$$$
