IRV.pdb
     RDKit          3D

 27 26  0  0  1  0  0  0  0  0999 V2000
   27.8086  -20.8253  -21.5233 C   0  0  0  0  0  0  0  0  0  0  0  0
   28.2310  -20.3955  -20.1699 C   0  0  0  0  0  0  0  0  0  0  0  0
   27.1033  -20.1865  -19.2072 C   0  0  2  0  0  0  0  0  0  0  0  0
   26.1304  -19.2009  -19.8025 C   0  0  0  0  0  0  0  0  0  0  0  0
   27.5343  -19.6640  -17.8524 C   0  0  2  0  0  0  0  0  0  0  0  0
   28.8565  -20.1749  -17.5142 N   0  0  0  0  0  0  0  0  0  0  0  0
   26.5158  -20.1852  -16.8803 C   0  0  0  0  0  0  0  0  0  0  0  0
   25.2624  -20.1567  -17.1501 O   0  0  0  0  0  0  0  0  0  0  0  0
   25.7008  -19.5081   -9.1383 N   0  0  0  0  0  0  0  0  0  0  0  0
   25.3872  -20.9088   -8.9183 C   0  0  0  0  0  0  0  0  0  0  0  0
   24.5865  -21.2712   -8.0298 N   0  0  0  0  0  0  0  0  0  0  0  0
   26.0039  -21.8918   -9.7331 N   0  0  0  0  0  0  0  0  0  0  0  0
   26.8661  -21.4223  -10.8263 C   0  0  0  0  0  0  0  0  0  0  0  0
   25.9951  -21.4029  -12.0846 C   0  0  0  0  0  0  0  0  0  0  0  0
   26.8522  -21.0438  -13.2631 C   0  0  0  0  0  0  0  0  0  0  0  0
   26.0062  -21.0659  -14.5538 C   0  0  2  0  0  0  0  0  0  0  0  0
   26.8690  -20.7298  -15.6306 N   0  0  0  0  0  0  0  0  0  0  0  0
   24.7846  -20.2870  -14.3676 C   0  0  0  0  0  0  0  0  0  0  0  0
   24.7692  -19.0984  -14.0249 O   0  0  0  0  0  0  0  0  0  0  0  0
   24.2398  -22.1723   -7.7391 C   0  0  0  0  0  0  0  0  0  0  0  0
   21.3330  -21.4467  -16.4356 C   0  0  2  0  0  0  0  0  0  0  0  0
   21.5539  -20.0949  -15.8101 C   0  0  0  0  0  0  0  0  0  0  0  0
   20.2422  -19.3857  -15.6716 C   0  0  1  0  0  0  0  0  0  0  0  0
   22.2454  -20.2432  -14.4432 N   0  0  0  0  0  0  0  0  0  0  0  0
   23.5149  -20.9285  -14.6026 C   0  0  0  0  0  0  0  0  0  0  0  0
   21.3759  -20.8786  -13.4692 O   0  0  0  0  0  0  0  0  0  0  0  0
   20.3025  -20.3432  -12.7842 O   0  0  0  0  0  0  0  0  0  0  0  0
  2  1  1  0
  3  4  1  6
  3  2  1  0
  5  3  1  0
  5  6  1  1
  7  8  2  0
  7  5  1  0
  9 10  1  0
 10 12  1  0
 11 10  2  0
 12 13  1  0
 13 14  1  0
 14 15  1  0
 16 15  1  1
 16 17  1  0
 17  7  1  0
 18 16  1  0
 19 18  2  0
 21 20  1  6
 21 23  1  0
 21 22  1  0
 23 24  1  6
 24 18  1  0
 25 26  1  0
 25 23  1  0
 27 25  2  0
M  END
$$$$
