AYW.pdb
     RDKit          3D

 32 34  0  0  1  0  0  0  0  0999 V2000
   29.7889  -33.4723  -15.8237 C   0  0  0  0  0  0  0  0  0  0  0  0
   28.6272  -33.2494  -16.7911 C   0  0  2  0  0  0  0  0  0  0  0  0
   28.9862  -32.2297  -17.7637 N   0  0  0  0  0  0  0  0  0  0  0  0
   27.4865  -32.7305  -15.9963 C   0  0  0  0  0  0  0  0  0  0  0  0
   27.2183  -31.4961  -15.9762 O   0  0  0  0  0  0  0  0  0  0  0  0
   23.2870  -30.7950  -19.9822 O   0  0  0  0  0  0  0  0  0  0  0  0
   23.5211  -31.4592  -18.7914 C   0  0  0  0  0  0  0  0  0  0  0  0
   24.0899  -32.7283  -18.8434 C   0  0  0  0  0  0  0  0  0  0  0  0
   24.3431  -33.4309  -17.6874 C   0  0  0  0  0  0  0  0  0  0  0  0
   24.0244  -32.8586  -16.4774 C   0  0  0  0  0  0  0  0  0  0  0  0
   24.2656  -33.5607  -15.2261 C   0  0  0  0  0  0  0  0  0  0  0  0
   25.5094  -33.0460  -14.5362 C   0  0  2  0  0  0  0  0  0  0  0  0
   26.6652  -33.6011  -15.2380 N   0  0  0  0  0  0  0  0  0  0  0  0
   25.5423  -33.5565  -13.1372 C   0  0  0  0  0  0  0  0  0  0  0  0
   25.9183  -34.7382  -12.8797 O   0  0  0  0  0  0  0  0  0  0  0  0
   23.4550  -31.5893  -16.4118 C   0  0  0  0  0  0  0  0  0  0  0  0
   23.2118  -30.9089  -17.5681 C   0  0  0  0  0  0  0  0  0  0  0  0
   25.1541  -32.7283  -12.0725 N   0  0  0  0  0  0  0  0  0  0  0  0
   25.1424  -33.2809  -10.7047 C   0  0  1  0  0  0  0  0  0  0  0  0
   25.0611  -32.1237   -9.7674 C   0  0  0  0  0  0  0  0  0  0  0  0
   24.8800  -32.5480   -8.3825 C   0  0  0  0  0  0  0  0  0  0  0  0
   25.8740  -33.0122   -7.5344 C   0  0  0  0  0  0  0  0  0  0  0  0
   25.3447  -33.3463   -6.3538 N   0  0  0  0  0  0  0  0  0  0  0  0
   24.0292  -33.1059   -6.4239 C   0  0  0  0  0  0  0  0  0  0  0  0
   22.9973  -33.2439   -5.5093 C   0  0  0  0  0  0  0  0  0  0  0  0
   21.6909  -32.9078   -5.7969 C   0  0  0  0  0  0  0  0  0  0  0  0
   21.3654  -32.4120   -7.0344 C   0  0  0  0  0  0  0  0  0  0  0  0
   22.3761  -32.2692   -7.9545 C   0  0  0  0  0  0  0  0  0  0  0  0
   23.7030  -32.6068   -7.6752 C   0  0  0  0  0  0  0  0  0  0  0  0
   24.1005  -34.3037  -10.6058 C   0  0  0  0  0  0  0  0  0  0  0  0
   23.0922  -34.2380  -11.3587 O   0  0  0  0  0  0  0  0  0  0  0  0
   24.1308  -35.3749   -9.7318 O   0  0  0  0  0  0  0  0  0  0  0  0
  2  1  1  1
  2  3  1  0
  4  2  1  0
  5  4  2  0
  7 17  2  0
  7  6  1  0
  8  7  1  0
  9 10  1  0
  9  8  2  0
 10 16  2  0
 12 11  1  6
 11 10  1  0
 12 13  1  0
 13  4  1  0
 14 18  1  0
 14 12  1  0
 15 14  2  0
 16 17  1  0
 19 20  1  1
 19 30  1  0
 19 18  1  0
 21 22  2  0
 21 20  1  0
 23 22  1  0
 24 29  2  0
 24 23  1  0
 25 24  1  0
 26 27  1  0
 26 25  2  0
 27 28  2  0
 28 29  1  0
 29 21  1  0
 30 32  1  0
 31 30  2  0
M  END
$$$$
