AYW.pdb
     RDKit          3D

 32 34  0  0  1  0  0  0  0  0999 V2000
   27.6004  -21.4343  -18.7257 C   0  0  0  0  0  0  0  0  0  0  0  0
   28.5307  -21.7915  -17.5673 C   0  0  2  0  0  0  0  0  0  0  0  0
   29.1518  -23.0827  -17.8158 N   0  0  0  0  0  0  0  0  0  0  0  0
   27.6891  -21.9241  -16.3523 C   0  0  0  0  0  0  0  0  0  0  0  0
   26.9573  -22.9391  -16.1778 O   0  0  0  0  0  0  0  0  0  0  0  0
   24.0707  -20.4167   -8.5610 O   0  0  0  0  0  0  0  0  0  0  0  0
   24.8989  -20.3854   -9.6687 C   0  0  0  0  0  0  0  0  0  0  0  0
   24.5797  -19.5167  -10.7081 C   0  0  0  0  0  0  0  0  0  0  0  0
   25.3712  -19.4475  -11.8319 C   0  0  0  0  0  0  0  0  0  0  0  0
   26.4846  -20.2518  -11.9123 C   0  0  0  0  0  0  0  0  0  0  0  0
   27.3515  -20.2222  -13.0805 C   0  0  0  0  0  0  0  0  0  0  0  0
   26.8032  -21.0844  -14.1958 C   0  0  2  0  0  0  0  0  0  0  0  0
   27.6806  -20.9195  -15.3532 N   0  0  0  0  0  0  0  0  0  0  0  0
   25.4513  -20.5904  -14.5796 C   0  0  0  0  0  0  0  0  0  0  0  0
   25.3109  -19.5523  -15.2915 O   0  0  0  0  0  0  0  0  0  0  0  0
   26.8150  -21.1252  -10.8790 C   0  0  0  0  0  0  0  0  0  0  0  0
   26.0185  -21.1793   -9.7737 C   0  0  0  0  0  0  0  0  0  0  0  0
   24.3014  -21.2741  -14.1551 N   0  0  0  0  0  0  0  0  0  0  0  0
   22.9760  -20.7090  -14.4722 C   0  0  1  0  0  0  0  0  0  0  0  0
   22.7792  -20.8572  -15.9431 C   0  0  0  0  0  0  0  0  0  0  0  0
   21.4798  -20.3545  -16.3786 C   0  0  0  0  0  0  0  0  0  0  0  0
   21.1035  -19.0220  -16.4536 C   0  0  0  0  0  0  0  0  0  0  0  0
   19.8323  -18.9306  -16.8555 N   0  0  0  0  0  0  0  0  0  0  0  0
   19.3821  -20.1780  -17.0417 C   0  0  0  0  0  0  0  0  0  0  0  0
   18.1643  -20.6854  -17.4657 C   0  0  0  0  0  0  0  0  0  0  0  0
   17.9236  -22.0360  -17.6081 C   0  0  0  0  0  0  0  0  0  0  0  0
   18.9132  -22.9437  -17.3253 C   0  0  0  0  0  0  0  0  0  0  0  0
   20.1274  -22.4585  -16.9026 C   0  0  0  0  0  0  0  0  0  0  0  0
   20.3830  -21.0927  -16.7540 C   0  0  0  0  0  0  0  0  0  0  0  0
   21.9719  -21.3096  -13.5933 C   0  0  0  0  0  0  0  0  0  0  0  0
   22.1606  -22.4683  -13.1353 O   0  0  0  0  0  0  0  0  0  0  0  0
   20.7971  -20.6923  -13.2047 O   0  0  0  0  0  0  0  0  0  0  0  0
  2  1  1  6
  2  3  1  0
  4  2  1  0
  5  4  2  0
  7 17  2  0
  7  6  1  0
  8  7  1  0
  9 10  1  0
  9  8  2  0
 10 16  2  0
 12 11  1  1
 11 10  1  0
 12 13  1  0
 13  4  1  0
 14 18  1  0
 14 12  1  0
 15 14  2  0
 16 17  1  0
 19 20  1  6
 19 30  1  0
 19 18  1  0
 21 22  2  0
 21 20  1  0
 23 22  1  0
 24 29  2  0
 24 23  1  0
 25 24  1  0
 26 27  1  0
 26 25  2  0
 27 28  2  0
 28 29  1  0
 29 21  1  0
 30 32  1  0
 31 30  2  0
M  END
$$$$
