AYW.pdb
     RDKit          3D

 32 34  0  0  1  0  0  0  0  0999 V2000
   25.8737  -15.5071  -16.0147 C   0  0  0  0  0  0  0  0  0  0  0  0
   26.7807  -16.4491  -16.8054 C   0  0  2  0  0  0  0  0  0  0  0  0
   26.7638  -16.0820  -18.2123 N   0  0  0  0  0  0  0  0  0  0  0  0
   26.2063  -17.8125  -16.6897 C   0  0  0  0  0  0  0  0  0  0  0  0
   25.3809  -18.2430  -17.5437 O   0  0  0  0  0  0  0  0  0  0  0  0
   24.5729  -26.0141  -14.3548 O   0  0  0  0  0  0  0  0  0  0  0  0
   25.1284  -24.7519  -14.4651 C   0  0  0  0  0  0  0  0  0  0  0  0
   25.7475  -24.4047  -15.6622 C   0  0  0  0  0  0  0  0  0  0  0  0
   26.3154  -23.1614  -15.8228 C   0  0  0  0  0  0  0  0  0  0  0  0
   26.2619  -22.2655  -14.7800 C   0  0  0  0  0  0  0  0  0  0  0  0
   26.8517  -20.9405  -14.8952 C   0  0  0  0  0  0  0  0  0  0  0  0
   25.8705  -19.9493  -15.4807 C   0  0  2  0  0  0  0  0  0  0  0  0
   26.5653  -18.6710  -15.6212 N   0  0  0  0  0  0  0  0  0  0  0  0
   24.7451  -19.7493  -14.5257 C   0  0  0  0  0  0  0  0  0  0  0  0
   24.8921  -19.0566  -13.4755 O   0  0  0  0  0  0  0  0  0  0  0  0
   25.6451  -22.6006  -13.5771 C   0  0  0  0  0  0  0  0  0  0  0  0
   25.0880  -23.8373  -13.4372 C   0  0  0  0  0  0  0  0  0  0  0  0
   23.4922  -20.3301  -14.7769 N   0  0  0  0  0  0  0  0  0  0  0  0
   22.4093  -20.1477  -13.7917 C   0  0  1  0  0  0  0  0  0  0  0  0
   21.8226  -18.7980  -14.0333 C   0  0  0  0  0  0  0  0  0  0  0  0
   21.0918  -18.7327  -15.2952 C   0  0  0  0  0  0  0  0  0  0  0  0
   19.9482  -19.4493  -15.6141 C   0  0  0  0  0  0  0  0  0  0  0  0
   19.5717  -19.1708  -16.8657 N   0  0  0  0  0  0  0  0  0  0  0  0
   20.4496  -18.2883  -17.3595 C   0  0  0  0  0  0  0  0  0  0  0  0
   20.5482  -17.6421  -18.5814 C   0  0  0  0  0  0  0  0  0  0  0  0
   21.5465  -16.7359  -18.8717 C   0  0  0  0  0  0  0  0  0  0  0  0
   22.5000  -16.4390  -17.9304 C   0  0  0  0  0  0  0  0  0  0  0  0
   22.4184  -17.0712  -16.7130 C   0  0  0  0  0  0  0  0  0  0  0  0
   21.4122  -17.9915  -16.4074 C   0  0  0  0  0  0  0  0  0  0  0  0
   21.5049  -21.2966  -13.8496 C   0  0  0  0  0  0  0  0  0  0  0  0
   21.5862  -22.1031  -14.8144 O   0  0  0  0  0  0  0  0  0  0  0  0
   20.5402  -21.5862  -12.9022 O   0  0  0  0  0  0  0  0  0  0  0  0
  2  1  1  1
  2  3  1  0
  4  2  1  0
  5  4  2  0
  7 17  2  0
  7  6  1  0
  8  7  1  0
  9 10  1  0
  9  8  2  0
 10 16  2  0
 12 11  1  1
 11 10  1  0
 12 13  1  0
 13  4  1  0
 14 18  1  0
 14 12  1  0
 15 14  2  0
 16 17  1  0
 19 20  1  6
 19 30  1  0
 19 18  1  0
 21 22  2  0
 21 20  1  0
 23 22  1  0
 24 29  2  0
 24 23  1  0
 25 24  1  0
 26 27  1  0
 26 25  2  0
 27 28  2  0
 28 29  1  0
 29 21  1  0
 30 32  1  0
 31 30  2  0
M  END
$$$$
