AYW.pdb
     RDKit          3D

 32 34  0  0  1  0  0  0  0  0999 V2000
   27.7776  -29.2110  -22.2242 C   0  0  0  0  0  0  0  0  0  0  0  0
   28.6339  -29.6154  -21.0249 C   0  0  2  0  0  0  0  0  0  0  0  0
   29.5365  -30.6901  -21.4053 N   0  0  0  0  0  0  0  0  0  0  0  0
   27.7150  -30.1463  -19.9876 C   0  0  0  0  0  0  0  0  0  0  0  0
   27.3245  -31.3473  -20.0205 O   0  0  0  0  0  0  0  0  0  0  0  0
   31.6298  -33.0871  -16.0394 O   0  0  0  0  0  0  0  0  0  0  0  0
   30.5247  -32.2632  -16.1570 C   0  0  0  0  0  0  0  0  0  0  0  0
   30.6791  -31.0383  -16.7995 C   0  0  0  0  0  0  0  0  0  0  0  0
   29.6110  -30.1822  -16.9426 C   0  0  0  0  0  0  0  0  0  0  0  0
   28.3862  -30.5564  -16.4396 C   0  0  0  0  0  0  0  0  0  0  0  0
   27.2262  -29.6863  -16.5588 C   0  0  0  0  0  0  0  0  0  0  0  0
   26.4793  -29.9371  -17.8499 C   0  0  2  0  0  0  0  0  0  0  0  0
   27.2491  -29.3249  -18.9313 N   0  0  0  0  0  0  0  0  0  0  0  0
   25.1570  -29.2536  -17.7936 C   0  0  0  0  0  0  0  0  0  0  0  0
   25.0673  -27.9927  -17.8740 O   0  0  0  0  0  0  0  0  0  0  0  0
   28.2185  -31.7794  -15.7948 C   0  0  0  0  0  0  0  0  0  0  0  0
   29.2887  -32.6140  -15.6630 C   0  0  0  0  0  0  0  0  0  0  0  0
   23.9788  -30.0027  -17.6495 N   0  0  0  0  0  0  0  0  0  0  0  0
   22.6880  -29.2942  -17.5586 C   0  0  1  0  0  0  0  0  0  0  0  0
   21.7313  -30.0149  -18.4472 C   0  0  0  0  0  0  0  0  0  0  0  0
   20.4268  -29.3618  -18.4972 C   0  0  0  0  0  0  0  0  0  0  0  0
   20.1203  -28.2033  -19.1950 C   0  0  0  0  0  0  0  0  0  0  0  0
   18.8429  -27.8712  -18.9855 N   0  0  0  0  0  0  0  0  0  0  0  0
   18.3200  -28.7932  -18.1671 C   0  0  0  0  0  0  0  0  0  0  0  0
   17.0531  -28.9673  -17.6331 C   0  0  0  0  0  0  0  0  0  0  0  0
   16.7252  -30.0251  -16.8110 C   0  0  0  0  0  0  0  0  0  0  0  0
   17.6726  -30.9640  -16.4884 C   0  0  0  0  0  0  0  0  0  0  0  0
   18.9349  -30.8068  -17.0085 C   0  0  0  0  0  0  0  0  0  0  0  0
   19.2793  -29.7392  -17.8418 C   0  0  0  0  0  0  0  0  0  0  0  0
   22.3181  -29.1428  -16.1509 C   0  0  0  0  0  0  0  0  0  0  0  0
   21.8099  -28.0598  -15.7553 O   0  0  0  0  0  0  0  0  0  0  0  0
   22.4785  -30.1206  -15.1863 O   0  0  0  0  0  0  0  0  0  0  0  0
  2  1  1  6
  2  3  1  0
  4  2  1  0
  5  4  2  0
  7 17  2  0
  7  6  1  0
  8  7  1  0
  9 10  1  0
  9  8  2  0
 10 16  2  0
 12 11  1  1
 11 10  1  0
 12 13  1  0
 13  4  1  0
 14 18  1  0
 14 12  1  0
 15 14  2  0
 16 17  1  0
 19 20  1  6
 19 30  1  0
 19 18  1  0
 21 22  2  0
 21 20  1  0
 23 22  1  0
 24 29  2  0
 24 23  1  0
 25 24  1  0
 26 27  1  0
 26 25  2  0
 27 28  2  0
 28 29  1  0
 29 21  1  0
 30 32  1  0
 31 30  2  0
M  END
$$$$
