AYW.pdb
     RDKit          3D

 32 34  0  0  1  0  0  0  0  0999 V2000
   28.9005  -21.2545  -15.0361 C   0  0  0  0  0  0  0  0  0  0  0  0
   27.4368  -21.0445  -15.4216 C   0  0  2  0  0  0  0  0  0  0  0  0
   27.3455  -20.0595  -16.4873 N   0  0  0  0  0  0  0  0  0  0  0  0
   26.7450  -20.4864  -14.2333 C   0  0  0  0  0  0  0  0  0  0  0  0
   26.9046  -19.2790  -13.8976 O   0  0  0  0  0  0  0  0  0  0  0  0
   21.1606  -18.2743  -16.3692 O   0  0  0  0  0  0  0  0  0  0  0  0
   21.8107  -18.9804  -15.3730 C   0  0  0  0  0  0  0  0  0  0  0  0
   22.1651  -18.3055  -14.2085 C   0  0  0  0  0  0  0  0  0  0  0  0
   22.8133  -18.9624  -13.1874 C   0  0  0  0  0  0  0  0  0  0  0  0
   23.1064  -20.2985  -13.3357 C   0  0  0  0  0  0  0  0  0  0  0  0
   23.7955  -21.0383  -12.2896 C   0  0  0  0  0  0  0  0  0  0  0  0
   25.2692  -20.6994  -12.2540 C   0  0  2  0  0  0  0  0  0  0  0  0
   25.8862  -21.2881  -13.4412 N   0  0  0  0  0  0  0  0  0  0  0  0
   25.8911  -21.3353  -11.0592 C   0  0  0  0  0  0  0  0  0  0  0  0
   26.1598  -22.5729  -11.0409 O   0  0  0  0  0  0  0  0  0  0  0  0
   22.7569  -20.9852  -14.4959 C   0  0  0  0  0  0  0  0  0  0  0  0
   22.1151  -20.3171  -15.4964 C   0  0  0  0  0  0  0  0  0  0  0  0
   26.1924  -20.5659   -9.9245 N   0  0  0  0  0  0  0  0  0  0  0  0
   26.6491  -21.2484   -8.6989 C   0  0  1  0  0  0  0  0  0  0  0  0
   28.0003  -20.7063   -8.3754 C   0  0  0  0  0  0  0  0  0  0  0  0
   27.9585  -19.7369   -7.2849 C   0  0  0  0  0  0  0  0  0  0  0  0
   27.1516  -18.6107   -7.2245 C   0  0  0  0  0  0  0  0  0  0  0  0
   27.4027  -17.9315   -6.1013 N   0  0  0  0  0  0  0  0  0  0  0  0
   28.3549  -18.5982   -5.4363 C   0  0  0  0  0  0  0  0  0  0  0  0
   28.9860  -18.3763   -4.2227 C   0  0  0  0  0  0  0  0  0  0  0  0
   29.9452  -19.2248   -3.7106 C   0  0  0  0  0  0  0  0  0  0  0  0
   30.3134  -20.3472   -4.4092 C   0  0  0  0  0  0  0  0  0  0  0  0
   29.6984  -20.5827   -5.6154 C   0  0  0  0  0  0  0  0  0  0  0  0
   28.7259  -19.7302   -6.1448 C   0  0  0  0  0  0  0  0  0  0  0  0
   25.6140  -21.1383   -7.6704 C   0  0  0  0  0  0  0  0  0  0  0  0
   24.6047  -20.4137   -7.8801 O   0  0  0  0  0  0  0  0  0  0  0  0
   25.6466  -21.7869   -6.4495 O   0  0  0  0  0  0  0  0  0  0  0  0
  2  1  1  1
  2  3  1  0
  4  2  1  0
  5  4  2  0
  7 17  2  0
  7  6  1  0
  8  7  1  0
  9 10  1  0
  9  8  2  0
 10 16  2  0
 12 11  1  6
 11 10  1  0
 12 13  1  0
 13  4  1  0
 14 18  1  0
 14 12  1  0
 15 14  2  0
 16 17  1  0
 19 20  1  1
 19 30  1  0
 19 18  1  0
 21 22  2  0
 21 20  1  0
 23 22  1  0
 24 29  2  0
 24 23  1  0
 25 24  1  0
 26 27  1  0
 26 25  2  0
 27 28  2  0
 28 29  1  0
 29 21  1  0
 30 32  1  0
 31 30  2  0
M  END
$$$$
