AYW.pdb
     RDKit          3D

 32 34  0  0  1  0  0  0  0  0999 V2000
   19.4499  -15.4377  -24.8137 C   0  0  0  0  0  0  0  0  0  0  0  0
   18.0886  -16.1087  -24.9921 C   0  0  2  0  0  0  0  0  0  0  0  0
   17.2572  -15.3067  -25.8754 N   0  0  0  0  0  0  0  0  0  0  0  0
   17.4340  -16.1358  -23.6606 C   0  0  0  0  0  0  0  0  0  0  0  0
   17.2433  -15.0699  -23.0099 O   0  0  0  0  0  0  0  0  0  0  0  0
   11.5444  -16.5119  -17.6965 O   0  0  0  0  0  0  0  0  0  0  0  0
   12.3537  -16.6069  -18.8145 C   0  0  0  0  0  0  0  0  0  0  0  0
   13.1392  -15.5101  -19.1566 C   0  0  0  0  0  0  0  0  0  0  0  0
   13.9616  -15.5536  -20.2593 C   0  0  0  0  0  0  0  0  0  0  0  0
   13.9951  -16.6998  -21.0198 C   0  0  0  0  0  0  0  0  0  0  0  0
   14.8423  -16.7960  -22.1987 C   0  0  0  0  0  0  0  0  0  0  0  0
   16.2208  -17.3094  -21.8464 C   0  0  2  0  0  0  0  0  0  0  0  0
   17.0035  -17.3545  -23.0801 N   0  0  0  0  0  0  0  0  0  0  0  0
   16.1095  -18.7024  -21.3308 C   0  0  0  0  0  0  0  0  0  0  0  0
   15.6167  -19.6271  -22.0423 O   0  0  0  0  0  0  0  0  0  0  0  0
   13.2141  -17.8041  -20.6879 C   0  0  0  0  0  0  0  0  0  0  0  0
   12.4058  -17.7418  -19.5916 C   0  0  0  0  0  0  0  0  0  0  0  0
   16.5536  -19.0153  -20.0365 N   0  0  0  0  0  0  0  0  0  0  0  0
   16.5900  -20.4288  -19.6157 C   0  0  1  0  0  0  0  0  0  0  0  0
   17.6171  -21.1082  -20.4569 C   0  0  0  0  0  0  0  0  0  0  0  0
   18.9462  -20.5324  -20.2759 C   0  0  0  0  0  0  0  0  0  0  0  0
   19.7134  -20.5966  -19.1225 C   0  0  0  0  0  0  0  0  0  0  0  0
   20.8575  -19.9292  -19.2999 N   0  0  0  0  0  0  0  0  0  0  0  0
   20.8431  -19.4368  -20.5452 C   0  0  0  0  0  0  0  0  0  0  0  0
   21.7564  -18.6901  -21.2723 C   0  0  0  0  0  0  0  0  0  0  0  0
   21.5372  -18.3022  -22.5777 C   0  0  0  0  0  0  0  0  0  0  0  0
   20.3732  -18.6552  -23.2131 C   0  0  0  0  0  0  0  0  0  0  0  0
   19.4556  -19.3951  -22.5069 C   0  0  0  0  0  0  0  0  0  0  0  0
   19.6659  -19.7934  -21.1840 C   0  0  0  0  0  0  0  0  0  0  0  0
   16.7552  -20.4963  -18.1632 C   0  0  0  0  0  0  0  0  0  0  0  0
   16.9152  -19.4330  -17.5063 O   0  0  0  0  0  0  0  0  0  0  0  0
   16.7451  -21.6651  -17.4243 O   0  0  0  0  0  0  0  0  0  0  0  0
  2  1  1  1
  2  3  1  0
  4  2  1  0
  5  4  2  0
  7 17  2  0
  7  6  1  0
  8  7  1  0
  9 10  1  0
  9  8  2  0
 10 16  2  0
 12 11  1  6
 11 10  1  0
 12 13  1  0
 13  4  1  0
 14 18  1  0
 14 12  1  0
 15 14  2  0
 16 17  1  0
 19 20  1  6
 19 30  1  0
 19 18  1  0
 21 22  2  0
 21 20  1  0
 23 22  1  0
 24 29  2  0
 24 23  1  0
 25 24  1  0
 26 27  1  0
 26 25  2  0
 27 28  2  0
 28 29  1  0
 29 21  1  0
 30 32  1  0
 31 30  2  0
M  END
$$$$
