AYW.pdb
     RDKit          3D

 32 34  0  0  1  0  0  0  0  0999 V2000
   28.9414  -23.7089  -17.3472 C   0  0  0  0  0  0  0  0  0  0  0  0
   28.7546  -22.2357  -17.7080 C   0  0  2  0  0  0  0  0  0  0  0  0
   30.0172  -21.6776  -18.1649 N   0  0  0  0  0  0  0  0  0  0  0  0
   28.3726  -21.5233  -16.4635 C   0  0  0  0  0  0  0  0  0  0  0  0
   29.2414  -21.2158  -15.5995 O   0  0  0  0  0  0  0  0  0  0  0  0
   29.2270  -15.6050  -18.4460 O   0  0  0  0  0  0  0  0  0  0  0  0
   28.4069  -16.4837  -17.7611 C   0  0  0  0  0  0  0  0  0  0  0  0
   28.3423  -16.3830  -16.3745 C   0  0  0  0  0  0  0  0  0  0  0  0
   27.5415  -17.2332  -15.6465 C   0  0  0  0  0  0  0  0  0  0  0  0
   26.8048  -18.1862  -16.3115 C   0  0  0  0  0  0  0  0  0  0  0  0
   25.9473  -19.1136  -15.5894 C   0  0  0  0  0  0  0  0  0  0  0  0
   26.7311  -20.2979  -15.0690 C   0  0  2  0  0  0  0  0  0  0  0  0
   27.0255  -21.1668  -16.2070 N   0  0  0  0  0  0  0  0  0  0  0  0
   25.8825  -21.0698  -14.1188 C   0  0  0  0  0  0  0  0  0  0  0  0
   25.0017  -21.8788  -14.5356 O   0  0  0  0  0  0  0  0  0  0  0  0
   26.8605  -18.2971  -17.6987 C   0  0  0  0  0  0  0  0  0  0  0  0
   27.6596  -17.4455  -18.4025 C   0  0  0  0  0  0  0  0  0  0  0  0
   26.0474  -20.9116  -12.7339 N   0  0  0  0  0  0  0  0  0  0  0  0
   25.2150  -21.7152  -11.8186 C   0  0  1  0  0  0  0  0  0  0  0  0
   26.0961  -22.1517  -10.6973 C   0  0  0  0  0  0  0  0  0  0  0  0
   26.3053  -21.0915   -9.7161 C   0  0  0  0  0  0  0  0  0  0  0  0
   25.3901  -20.1097   -9.3676 C   0  0  0  0  0  0  0  0  0  0  0  0
   25.9306  -19.2837   -8.4668 N   0  0  0  0  0  0  0  0  0  0  0  0
   27.1758  -19.7142   -8.2273 C   0  0  0  0  0  0  0  0  0  0  0  0
   28.1805  -19.2663   -7.3844 C   0  0  0  0  0  0  0  0  0  0  0  0
   29.4062  -19.8904   -7.2815 C   0  0  0  0  0  0  0  0  0  0  0  0
   29.6742  -21.0066   -8.0335 C   0  0  0  0  0  0  0  0  0  0  0  0
   28.6896  -21.4645   -8.8756 C   0  0  0  0  0  0  0  0  0  0  0  0
   27.4444  -20.8406   -8.9891 C   0  0  0  0  0  0  0  0  0  0  0  0
   24.0089  -20.9612  -11.4747 C   0  0  0  0  0  0  0  0  0  0  0  0
   23.9778  -19.7166  -11.6697 O   0  0  0  0  0  0  0  0  0  0  0  0
   22.8601  -21.5162  -10.9414 O   0  0  0  0  0  0  0  0  0  0  0  0
  2  1  1  1
  2  3  1  0
  4  2  1  0
  5  4  2  0
  7 17  2  0
  7  6  1  0
  8  7  1  0
  9 10  1  0
  9  8  2  0
 10 16  2  0
 12 11  1  6
 11 10  1  0
 12 13  1  0
 13  4  1  0
 14 18  1  0
 14 12  1  0
 15 14  2  0
 16 17  1  0
 19 20  1  1
 19 30  1  0
 19 18  1  0
 21 22  2  0
 21 20  1  0
 23 22  1  0
 24 29  2  0
 24 23  1  0
 25 24  1  0
 26 27  1  0
 26 25  2  0
 27 28  2  0
 28 29  1  0
 29 21  1  0
 30 32  1  0
 31 30  2  0
M  END
$$$$
