AYW.pdb
     RDKit          3D

 32 34  0  0  1  0  0  0  0  0999 V2000
   28.9222  -18.9474  -16.6321 C   0  0  0  0  0  0  0  0  0  0  0  0
   27.4555  -18.5980  -16.8807 C   0  0  2  0  0  0  0  0  0  0  0  0
   27.3602  -17.2813  -17.4903 N   0  0  0  0  0  0  0  0  0  0  0  0
   26.7894  -18.5293  -15.5564 C   0  0  0  0  0  0  0  0  0  0  0  0
   26.9032  -17.5051  -14.8255 O   0  0  0  0  0  0  0  0  0  0  0  0
   21.0785  -16.5147  -17.3699 O   0  0  0  0  0  0  0  0  0  0  0  0
   21.7807  -17.3759  -16.5458 C   0  0  0  0  0  0  0  0  0  0  0  0
   21.9229  -17.0370  -15.2035 C   0  0  0  0  0  0  0  0  0  0  0  0
   22.6122  -17.8597  -14.3420 C   0  0  0  0  0  0  0  0  0  0  0  0
   23.1599  -19.0241  -14.8290 C   0  0  0  0  0  0  0  0  0  0  0  0
   23.9033  -19.9260  -13.9625 C   0  0  0  0  0  0  0  0  0  0  0  0
   25.3327  -19.4649  -13.7834 C   0  0  2  0  0  0  0  0  0  0  0  0
   26.0071  -19.6070  -15.0725 N   0  0  0  0  0  0  0  0  0  0  0  0
   26.0203  -20.3613  -12.8126 C   0  0  0  0  0  0  0  0  0  0  0  0
   26.4144  -21.5160  -13.1526 O   0  0  0  0  0  0  0  0  0  0  0  0
   23.0246  -19.3747  -16.1701 C   0  0  0  0  0  0  0  0  0  0  0  0
   22.3379  -18.5467  -17.0080 C   0  0  0  0  0  0  0  0  0  0  0  0
   26.2448  -19.9365  -11.4938 N   0  0  0  0  0  0  0  0  0  0  0  0
   26.8932  -20.8620  -10.5454 C   0  0  1  0  0  0  0  0  0  0  0  0
   27.6838  -20.0288   -9.5942 C   0  0  0  0  0  0  0  0  0  0  0  0
   27.1429  -20.0760   -8.2392 C   0  0  0  0  0  0  0  0  0  0  0  0
   25.8206  -20.3145   -7.8962 C   0  0  0  0  0  0  0  0  0  0  0  0
   25.6762  -20.2473   -6.5694 N   0  0  0  0  0  0  0  0  0  0  0  0
   26.8794  -19.9709   -6.0505 C   0  0  0  0  0  0  0  0  0  0  0  0
   27.3278  -19.8060   -4.7497 C   0  0  0  0  0  0  0  0  0  0  0  0
   28.6452  -19.5408   -4.4390 C   0  0  0  0  0  0  0  0  0  0  0  0
   29.5780  -19.4292   -5.4393 C   0  0  0  0  0  0  0  0  0  0  0  0
   29.1509  -19.5890   -6.7356 C   0  0  0  0  0  0  0  0  0  0  0  0
   27.8192  -19.8573   -7.0629 C   0  0  0  0  0  0  0  0  0  0  0  0
   25.8848  -21.7587   -9.9794 C   0  0  0  0  0  0  0  0  0  0  0  0
   24.6634  -21.4706  -10.0933 O   0  0  0  0  0  0  0  0  0  0  0  0
   26.1659  -22.9373   -9.3129 O   0  0  0  0  0  0  0  0  0  0  0  0
  2  1  1  1
  2  3  1  0
  4  2  1  0
  5  4  2  0
  7 17  2  0
  7  6  1  0
  8  7  1  0
  9 10  1  0
  9  8  2  0
 10 16  2  0
 12 11  1  6
 11 10  1  0
 12 13  1  0
 13  4  1  0
 14 18  1  0
 14 12  1  0
 15 14  2  0
 16 17  1  0
 19 20  1  1
 19 30  1  0
 19 18  1  0
 21 22  2  0
 21 20  1  0
 23 22  1  0
 24 29  2  0
 24 23  1  0
 25 24  1  0
 26 27  1  0
 26 25  2  0
 27 28  2  0
 28 29  1  0
 29 21  1  0
 30 32  1  0
 31 30  2  0
M  END
$$$$
