AYW.pdb
     RDKit          3D

 32 34  0  0  1  0  0  0  0  0999 V2000
   24.8482  -17.6877  -15.6169 C   0  0  0  0  0  0  0  0  0  0  0  0
   24.4034  -19.1275  -15.8706 C   0  0  2  0  0  0  0  0  0  0  0  0
   23.0551  -19.1368  -16.4151 N   0  0  0  0  0  0  0  0  0  0  0  0
   24.3615  -19.8129  -14.5551 C   0  0  0  0  0  0  0  0  0  0  0  0
   23.3909  -19.6410  -13.7648 O   0  0  0  0  0  0  0  0  0  0  0  0
   21.3434  -25.5116  -15.7532 O   0  0  0  0  0  0  0  0  0  0  0  0
   22.3816  -24.8652  -15.1067 C   0  0  0  0  0  0  0  0  0  0  0  0
   23.4352  -24.3764  -15.8735 C   0  0  0  0  0  0  0  0  0  0  0  0
   24.4921  -23.7257  -15.2788 C   0  0  0  0  0  0  0  0  0  0  0  0
   24.4914  -23.5659  -13.9122 C   0  0  0  0  0  0  0  0  0  0  0  0
   25.5869  -22.8911  -13.2329 C   0  0  0  0  0  0  0  0  0  0  0  0
   25.2381  -21.4535  -12.9178 C   0  0  2  0  0  0  0  0  0  0  0  0
   25.4055  -20.6792  -14.1463 N   0  0  0  0  0  0  0  0  0  0  0  0
   26.2022  -20.9224  -11.9141 C   0  0  0  0  0  0  0  0  0  0  0  0
   27.3699  -20.5666  -12.2517 O   0  0  0  0  0  0  0  0  0  0  0  0
   23.4431  -24.0503  -13.1337 C   0  0  0  0  0  0  0  0  0  0  0  0
   22.4048  -24.6921  -13.7413 C   0  0  0  0  0  0  0  0  0  0  0  0
   25.8283  -20.8065  -10.5662 N   0  0  0  0  0  0  0  0  0  0  0  0
   26.7917  -20.2398   -9.6034 C   0  0  1  0  0  0  0  0  0  0  0  0
   26.0359  -19.9456   -8.3518 C   0  0  0  0  0  0  0  0  0  0  0  0
   26.8678  -19.2908   -7.3468 C   0  0  0  0  0  0  0  0  0  0  0  0
   27.0447  -17.9235   -7.1986 C   0  0  0  0  0  0  0  0  0  0  0  0
   27.9019  -17.6815   -6.2024 N   0  0  0  0  0  0  0  0  0  0  0  0
   28.2803  -18.8659   -5.7051 C   0  0  0  0  0  0  0  0  0  0  0  0
   29.1266  -19.2239   -4.6677 C   0  0  0  0  0  0  0  0  0  0  0  0
   29.3587  -20.5351   -4.3083 C   0  0  0  0  0  0  0  0  0  0  0  0
   28.7396  -21.5538   -4.9882 C   0  0  0  0  0  0  0  0  0  0  0  0
   27.8975  -21.2173   -6.0207 C   0  0  0  0  0  0  0  0  0  0  0  0
   27.6549  -19.8929   -6.3945 C   0  0  0  0  0  0  0  0  0  0  0  0
   27.9498  -21.1283   -9.4991 C   0  0  0  0  0  0  0  0  0  0  0  0
   27.7738  -22.3751   -9.4511 O   0  0  0  0  0  0  0  0  0  0  0  0
   29.2650  -20.7035   -9.4527 O   0  0  0  0  0  0  0  0  0  0  0  0
  2  1  1  1
  2  3  1  0
  4  2  1  0
  5  4  2  0
  7 17  2  0
  7  6  1  0
  8  7  1  0
  9 10  1  0
  9  8  2  0
 10 16  2  0
 12 11  1  6
 11 10  1  0
 12 13  1  0
 13  4  1  0
 14 18  1  0
 14 12  1  0
 15 14  2  0
 16 17  1  0
 19 20  1  1
 19 30  1  0
 19 18  1  0
 21 22  2  0
 21 20  1  0
 23 22  1  0
 24 29  2  0
 24 23  1  0
 25 24  1  0
 26 27  1  0
 26 25  2  0
 27 28  2  0
 28 29  1  0
 29 21  1  0
 30 32  1  0
 31 30  2  0
M  END
$$$$
