AYW.pdb
     RDKit          3D

 32 34  0  0  1  0  0  0  0  0999 V2000
   28.1611  -17.6198  -17.5264 C   0  0  0  0  0  0  0  0  0  0  0  0
   27.1259  -17.6614  -18.6497 C   0  0  2  0  0  0  0  0  0  0  0  0
   27.1328  -16.3992  -19.3716 N   0  0  0  0  0  0  0  0  0  0  0  0
   25.7931  -17.8083  -18.0140 C   0  0  0  0  0  0  0  0  0  0  0  0
   25.3039  -16.8794  -17.3112 O   0  0  0  0  0  0  0  0  0  0  0  0
   17.6163  -20.1668  -16.4419 O   0  0  0  0  0  0  0  0  0  0  0  0
   18.8923  -20.0487  -16.9633 C   0  0  0  0  0  0  0  0  0  0  0  0
   19.7361  -21.1538  -16.9019 C   0  0  0  0  0  0  0  0  0  0  0  0
   21.0149  -21.0881  -17.4064 C   0  0  0  0  0  0  0  0  0  0  0  0
   21.4472  -19.9112  -17.9731 C   0  0  0  0  0  0  0  0  0  0  0  0
   22.7914  -19.7866  -18.5156 C   0  0  0  0  0  0  0  0  0  0  0  0
   23.7105  -19.0692  -17.5519 C   0  0  2  0  0  0  0  0  0  0  0  0
   25.0301  -18.9912  -18.1757 N   0  0  0  0  0  0  0  0  0  0  0  0
   23.8458  -19.8772  -16.3079 C   0  0  0  0  0  0  0  0  0  0  0  0
   24.5655  -20.9190  -16.2784 O   0  0  0  0  0  0  0  0  0  0  0  0
   20.6126  -18.7984  -18.0407 C   0  0  0  0  0  0  0  0  0  0  0  0
   19.3489  -18.8830  -17.5356 C   0  0  0  0  0  0  0  0  0  0  0  0
   23.1720  -19.4933  -15.1380 N   0  0  0  0  0  0  0  0  0  0  0  0
   23.4552  -20.2123  -13.8814 C   0  0  1  0  0  0  0  0  0  0  0  0
   23.8133  -19.1845  -12.8618 C   0  0  0  0  0  0  0  0  0  0  0  0
   24.1039  -19.7775  -11.5600 C   0  0  0  0  0  0  0  0  0  0  0  0
   25.3629  -20.0784  -11.0629 C   0  0  0  0  0  0  0  0  0  0  0  0
   25.2522  -20.6454   -9.8579 N   0  0  0  0  0  0  0  0  0  0  0  0
   23.9466  -20.7152   -9.5683 C   0  0  0  0  0  0  0  0  0  0  0  0
   23.2513  -21.1838   -8.4650 C   0  0  0  0  0  0  0  0  0  0  0  0
   21.8761  -21.1369   -8.3703 C   0  0  0  0  0  0  0  0  0  0  0  0
   21.1343  -20.6089   -9.3970 C   0  0  0  0  0  0  0  0  0  0  0  0
   21.8072  -20.1400  -10.4996 C   0  0  0  0  0  0  0  0  0  0  0  0
   23.1998  -20.1827  -10.6074 C   0  0  0  0  0  0  0  0  0  0  0  0
   22.3385  -21.1068  -13.5743 C   0  0  0  0  0  0  0  0  0  0  0  0
   21.1564  -20.7070  -13.7492 O   0  0  0  0  0  0  0  0  0  0  0  0
   22.4734  -22.3980  -13.0982 O   0  0  0  0  0  0  0  0  0  0  0  0
  2  1  1  1
  2  3  1  0
  4  2  1  0
  5  4  2  0
  7 17  2  0
  7  6  1  0
  8  7  1  0
  9 10  1  0
  9  8  2  0
 10 16  2  0
 12 11  1  6
 11 10  1  0
 12 13  1  0
 13  4  1  0
 14 18  1  0
 14 12  1  0
 15 14  2  0
 16 17  1  0
 19 20  1  1
 19 30  1  0
 19 18  1  0
 21 22  2  0
 21 20  1  0
 23 22  1  0
 24 29  2  0
 24 23  1  0
 25 24  1  0
 26 27  1  0
 26 25  2  0
 27 28  2  0
 28 29  1  0
 29 21  1  0
 30 32  1  0
 31 30  2  0
M  END
$$$$
