AYW.pdb
     RDKit          3D

 32 34  0  0  1  0  0  0  0  0999 V2000
   30.5741  -20.9379  -11.5241 C   0  0  0  0  0  0  0  0  0  0  0  0
   30.5024  -21.4004  -10.0694 C   0  0  2  0  0  0  0  0  0  0  0  0
   31.0406  -22.7464   -9.9545 N   0  0  0  0  0  0  0  0  0  0  0  0
   29.0672  -21.4570   -9.6962 C   0  0  0  0  0  0  0  0  0  0  0  0
   28.4063  -22.5264   -9.8209 O   0  0  0  0  0  0  0  0  0  0  0  0
   29.4838  -20.1980   -3.1486 O   0  0  0  0  0  0  0  0  0  0  0  0
   28.7649  -20.0114   -4.3157 C   0  0  0  0  0  0  0  0  0  0  0  0
   29.0638  -18.9056   -5.1062 C   0  0  0  0  0  0  0  0  0  0  0  0
   28.3778  -18.6748   -6.2768 C   0  0  0  0  0  0  0  0  0  0  0  0
   27.3901  -19.5553   -6.6542 C   0  0  0  0  0  0  0  0  0  0  0  0
   26.6308  -19.3546   -7.8789 C   0  0  0  0  0  0  0  0  0  0  0  0
   26.9637  -20.4073   -8.9127 C   0  0  2  0  0  0  0  0  0  0  0  0
   28.3961  -20.3166   -9.1896 N   0  0  0  0  0  0  0  0  0  0  0  0
   26.2387  -20.1009  -10.1773 C   0  0  0  0  0  0  0  0  0  0  0  0
   26.7968  -19.4537  -11.1122 O   0  0  0  0  0  0  0  0  0  0  0  0
   27.0817  -20.6657   -5.8721 C   0  0  0  0  0  0  0  0  0  0  0  0
   27.7725  -20.8774   -4.7157 C   0  0  0  0  0  0  0  0  0  0  0  0
   24.9137  -20.5287  -10.3548 N   0  0  0  0  0  0  0  0  0  0  0  0
   24.3833  -20.6625  -11.7249 C   0  0  1  0  0  0  0  0  0  0  0  0
   25.3077  -21.5700  -12.4639 C   0  0  0  0  0  0  0  0  0  0  0  0
   24.8730  -21.7991  -13.8384 C   0  0  0  0  0  0  0  0  0  0  0  0
   24.6852  -20.8257  -14.8080 C   0  0  0  0  0  0  0  0  0  0  0  0
   24.2476  -21.3885  -15.9383 N   0  0  0  0  0  0  0  0  0  0  0  0
   24.1504  -22.7056  -15.7165 C   0  0  0  0  0  0  0  0  0  0  0  0
   23.7730  -23.7698  -16.5199 C   0  0  0  0  0  0  0  0  0  0  0  0
   23.7673  -25.0767  -16.0790 C   0  0  0  0  0  0  0  0  0  0  0  0
   24.1468  -25.3696  -14.7932 C   0  0  0  0  0  0  0  0  0  0  0  0
   24.5236  -24.3265  -13.9819 C   0  0  0  0  0  0  0  0  0  0  0  0
   24.5328  -22.9985  -14.4168 C   0  0  0  0  0  0  0  0  0  0  0  0
   22.9718  -21.0432  -11.6615 C   0  0  0  0  0  0  0  0  0  0  0  0
   22.5525  -21.7122  -10.6795 O   0  0  0  0  0  0  0  0  0  0  0  0
   22.0257  -20.7163  -12.6156 O   0  0  0  0  0  0  0  0  0  0  0  0
  2  1  1  6
  2  3  1  0
  4  2  1  0
  5  4  2  0
  7 17  2  0
  7  6  1  0
  8  7  1  0
  9 10  1  0
  9  8  2  0
 10 16  2  0
 12 11  1  1
 11 10  1  0
 12 13  1  0
 13  4  1  0
 14 18  1  0
 14 12  1  0
 15 14  2  0
 16 17  1  0
 19 20  1  6
 19 30  1  0
 19 18  1  0
 21 22  2  0
 21 20  1  0
 23 22  1  0
 24 29  2  0
 24 23  1  0
 25 24  1  0
 26 27  1  0
 26 25  2  0
 27 28  2  0
 28 29  1  0
 29 21  1  0
 30 32  1  0
 31 30  2  0
M  END
$$$$
