AYW.pdb
     RDKit          3D

 32 34  0  0  1  0  0  0  0  0999 V2000
   28.6624  -22.5808  -16.1352 C   0  0  0  0  0  0  0  0  0  0  0  0
   27.5612  -21.5827  -16.4909 C   0  0  2  0  0  0  0  0  0  0  0  0
   28.0436  -20.6595  -17.5055 N   0  0  0  0  0  0  0  0  0  0  0  0
   27.2704  -20.7944  -15.2678 C   0  0  0  0  0  0  0  0  0  0  0  0
   28.0935  -19.9382  -14.8371 O   0  0  0  0  0  0  0  0  0  0  0  0
   23.8433  -15.4326  -16.9855 O   0  0  0  0  0  0  0  0  0  0  0  0
   23.9918  -16.4678  -16.0800 C   0  0  0  0  0  0  0  0  0  0  0  0
   23.6652  -17.7569  -16.4906 C   0  0  0  0  0  0  0  0  0  0  0  0
   23.7952  -18.8214  -15.6280 C   0  0  0  0  0  0  0  0  0  0  0  0
   24.2535  -18.5914  -14.3512 C   0  0  0  0  0  0  0  0  0  0  0  0
   24.4036  -19.6803  -13.3980 C   0  0  0  0  0  0  0  0  0  0  0  0
   25.8319  -20.1756  -13.3473 C   0  0  2  0  0  0  0  0  0  0  0  0
   26.0640  -20.9769  -14.5476 N   0  0  0  0  0  0  0  0  0  0  0  0
   26.0006  -21.0693  -12.1677 C   0  0  0  0  0  0  0  0  0  0  0  0
   25.5117  -22.2377  -12.1557 O   0  0  0  0  0  0  0  0  0  0  0  0
   24.5839  -17.3062  -13.9282 C   0  0  0  0  0  0  0  0  0  0  0  0
   24.4484  -16.2645  -14.7974 C   0  0  0  0  0  0  0  0  0  0  0  0
   26.7107  -20.6270  -11.0407 N   0  0  0  0  0  0  0  0  0  0  0  0
   26.7323  -21.4729   -9.8322 C   0  0  1  0  0  0  0  0  0  0  0  0
   27.9936  -21.1577   -9.1015 C   0  0  0  0  0  0  0  0  0  0  0  0
   27.7726  -20.2321   -7.9946 C   0  0  0  0  0  0  0  0  0  0  0  0
   26.8059  -19.2393   -7.9415 C   0  0  0  0  0  0  0  0  0  0  0  0
   26.9164  -18.5582   -6.7971 N   0  0  0  0  0  0  0  0  0  0  0  0
   27.9347  -19.0930   -6.1112 C   0  0  0  0  0  0  0  0  0  0  0  0
   28.4858  -18.8102   -4.8716 C   0  0  0  0  0  0  0  0  0  0  0  0
   29.5430  -19.5200   -4.3417 C   0  0  0  0  0  0  0  0  0  0  0  0
   30.0964  -20.5581   -5.0482 C   0  0  0  0  0  0  0  0  0  0  0  0
   29.5631  -20.8522   -6.2801 C   0  0  0  0  0  0  0  0  0  0  0  0
   28.4928  -20.1401   -6.8277 C   0  0  0  0  0  0  0  0  0  0  0  0
   25.4727  -21.3094   -9.1055 C   0  0  0  0  0  0  0  0  0  0  0  0
   25.1940  -22.0957   -8.1610 O   0  0  0  0  0  0  0  0  0  0  0  0
   24.5331  -20.3302   -9.3712 O   0  0  0  0  0  0  0  0  0  0  0  0
  2  1  1  1
  2  3  1  0
  4  2  1  0
  5  4  2  0
  7 17  2  0
  7  6  1  0
  8  7  1  0
  9 10  1  0
  9  8  2  0
 10 16  2  0
 12 11  1  6
 11 10  1  0
 12 13  1  0
 13  4  1  0
 14 18  1  0
 14 12  1  0
 15 14  2  0
 16 17  1  0
 19 20  1  1
 19 30  1  0
 19 18  1  0
 21 22  2  0
 21 20  1  0
 23 22  1  0
 24 29  2  0
 24 23  1  0
 25 24  1  0
 26 27  1  0
 26 25  2  0
 27 28  2  0
 28 29  1  0
 29 21  1  0
 30 32  1  0
 31 30  2  0
M  END
$$$$
