AYW.pdb
     RDKit          3D

 32 34  0  0  1  0  0  0  0  0999 V2000
   28.4181  -18.0610  -15.7551 C   0  0  0  0  0  0  0  0  0  0  0  0
   27.2254  -18.9798  -16.0167 C   0  0  2  0  0  0  0  0  0  0  0  0
   26.4072  -18.4308  -17.0861 N   0  0  0  0  0  0  0  0  0  0  0  0
   26.4017  -18.9932  -14.7824 C   0  0  0  0  0  0  0  0  0  0  0  0
   26.0607  -17.9154  -14.2184 O   0  0  0  0  0  0  0  0  0  0  0  0
   20.3773  -18.4165  -16.8302 O   0  0  0  0  0  0  0  0  0  0  0  0
   21.2560  -19.0740  -15.9878 C   0  0  0  0  0  0  0  0  0  0  0  0
   21.1242  -18.8823  -14.6156 C   0  0  0  0  0  0  0  0  0  0  0  0
   21.9729  -19.5133  -13.7350 C   0  0  0  0  0  0  0  0  0  0  0  0
   22.9556  -20.3378  -14.2327 C   0  0  0  0  0  0  0  0  0  0  0  0
   23.8827  -21.0239  -13.3458 C   0  0  0  0  0  0  0  0  0  0  0  0
   25.0887  -20.1646  -13.0375 C   0  0  2  0  0  0  0  0  0  0  0  0
   25.9733  -20.2119  -14.2003 N   0  0  0  0  0  0  0  0  0  0  0  0
   25.8273  -20.7499  -11.8839 C   0  0  0  0  0  0  0  0  0  0  0  0
   26.6897  -21.6619  -12.0528 O   0  0  0  0  0  0  0  0  0  0  0  0
   23.0978  -20.5381  -15.6036 C   0  0  0  0  0  0  0  0  0  0  0  0
   22.2471  -19.9042  -16.4601 C   0  0  0  0  0  0  0  0  0  0  0  0
   25.5772  -20.2955  -10.5797 N   0  0  0  0  0  0  0  0  0  0  0  0
   26.3461  -20.8741   -9.4614 C   0  0  1  0  0  0  0  0  0  0  0  0
   27.6408  -20.1370   -9.3947 C   0  0  0  0  0  0  0  0  0  0  0  0
   28.4718  -20.5825   -8.2804 C   0  0  0  0  0  0  0  0  0  0  0  0
   29.3399  -21.6639   -8.2909 C   0  0  0  0  0  0  0  0  0  0  0  0
   29.9075  -21.8026   -7.0891 N   0  0  0  0  0  0  0  0  0  0  0  0
   29.4230  -20.8316   -6.3044 C   0  0  0  0  0  0  0  0  0  0  0  0
   29.6632  -20.4795   -4.9858 C   0  0  0  0  0  0  0  0  0  0  0  0
   29.0535  -19.4040   -4.3742 C   0  0  0  0  0  0  0  0  0  0  0  0
   28.1646  -18.6282   -5.0750 C   0  0  0  0  0  0  0  0  0  0  0  0
   27.9135  -18.9633   -6.3839 C   0  0  0  0  0  0  0  0  0  0  0  0
   28.5244  -20.0506   -7.0142 C   0  0  0  0  0  0  0  0  0  0  0  0
   25.5137  -20.8860   -8.2579 C   0  0  0  0  0  0  0  0  0  0  0  0
   24.5881  -20.0399   -8.1345 O   0  0  0  0  0  0  0  0  0  0  0  0
   25.6567  -21.7791   -7.2119 O   0  0  0  0  0  0  0  0  0  0  0  0
  2  1  1  1
  2  3  1  0
  4  2  1  0
  5  4  2  0
  7 17  2  0
  7  6  1  0
  8  7  1  0
  9 10  1  0
  9  8  2  0
 10 16  2  0
 12 11  1  6
 11 10  1  0
 12 13  1  0
 13  4  1  0
 14 18  1  0
 14 12  1  0
 15 14  2  0
 16 17  1  0
 19 20  1  1
 19 30  1  0
 19 18  1  0
 21 22  2  0
 21 20  1  0
 23 22  1  0
 24 29  2  0
 24 23  1  0
 25 24  1  0
 26 27  1  0
 26 25  2  0
 27 28  2  0
 28 29  1  0
 29 21  1  0
 30 32  1  0
 31 30  2  0
M  END
$$$$
