AYW.pdb
     RDKit          3D

 32 34  0  0  1  0  0  0  0  0999 V2000
   28.9887  -22.1919  -16.8558 C   0  0  0  0  0  0  0  0  0  0  0  0
   28.1617  -20.9191  -17.0325 C   0  0  2  0  0  0  0  0  0  0  0  0
   28.8554  -20.0016  -17.9222 N   0  0  0  0  0  0  0  0  0  0  0  0
   28.0660  -20.2687  -15.7020 C   0  0  0  0  0  0  0  0  0  0  0  0
   29.0629  -19.6825  -15.1935 O   0  0  0  0  0  0  0  0  0  0  0  0
   26.5611  -14.3033  -17.2165 O   0  0  0  0  0  0  0  0  0  0  0  0
   26.3033  -15.3795  -16.3863 C   0  0  0  0  0  0  0  0  0  0  0  0
   26.9558  -15.4379  -15.1584 C   0  0  0  0  0  0  0  0  0  0  0  0
   26.7341  -16.4873  -14.2960 C   0  0  0  0  0  0  0  0  0  0  0  0
   25.8562  -17.4797  -14.6671 C   0  0  0  0  0  0  0  0  0  0  0  0
   25.5906  -18.6139  -13.7955 C   0  0  0  0  0  0  0  0  0  0  0  0
   26.7869  -19.5356  -13.7103 C   0  0  2  0  0  0  0  0  0  0  0  0
   26.8570  -20.2848  -14.9635 N   0  0  0  0  0  0  0  0  0  0  0  0
   26.5746  -20.5159  -12.6091 C   0  0  0  0  0  0  0  0  0  0  0  0
   25.8919  -21.5672  -12.7903 O   0  0  0  0  0  0  0  0  0  0  0  0
   25.1969  -17.4327  -15.8930 C   0  0  0  0  0  0  0  0  0  0  0  0
   25.4296  -16.3848  -16.7337 C   0  0  0  0  0  0  0  0  0  0  0  0
   27.1333  -20.2883  -11.3417 N   0  0  0  0  0  0  0  0  0  0  0  0
   26.8329  -21.2319  -10.2482 C   0  0  1  0  0  0  0  0  0  0  0  0
   27.8867  -21.0456   -9.2094 C   0  0  0  0  0  0  0  0  0  0  0  0
   27.3285  -20.6265   -7.9273 C   0  0  0  0  0  0  0  0  0  0  0  0
   25.9816  -20.4785   -7.6328 C   0  0  0  0  0  0  0  0  0  0  0  0
   25.8359  -20.0443   -6.3774 N   0  0  0  0  0  0  0  0  0  0  0  0
   27.0624  -19.9104   -5.8567 C   0  0  0  0  0  0  0  0  0  0  0  0
   27.5168  -19.5186   -4.6075 C   0  0  0  0  0  0  0  0  0  0  0  0
   28.8551  -19.4730   -4.2771 C   0  0  0  0  0  0  0  0  0  0  0  0
   29.8040  -19.8250   -5.2038 C   0  0  0  0  0  0  0  0  0  0  0  0
   29.3716  -20.2154   -6.4484 C   0  0  0  0  0  0  0  0  0  0  0  0
   28.0188  -20.2650   -6.7952 C   0  0  0  0  0  0  0  0  0  0  0  0
   25.4397  -21.0634   -9.8338 C   0  0  0  0  0  0  0  0  0  0  0  0
   24.8347  -19.9931  -10.1098 O   0  0  0  0  0  0  0  0  0  0  0  0
   24.7035  -22.0116   -9.1472 O   0  0  0  0  0  0  0  0  0  0  0  0
  2  1  1  1
  2  3  1  0
  4  2  1  0
  5  4  2  0
  7 17  2  0
  7  6  1  0
  8  7  1  0
  9 10  1  0
  9  8  2  0
 10 16  2  0
 12 11  1  6
 11 10  1  0
 12 13  1  0
 13  4  1  0
 14 18  1  0
 14 12  1  0
 15 14  2  0
 16 17  1  0
 19 20  1  1
 19 30  1  0
 19 18  1  0
 21 22  2  0
 21 20  1  0
 23 22  1  0
 24 29  2  0
 24 23  1  0
 25 24  1  0
 26 27  1  0
 26 25  2  0
 27 28  2  0
 28 29  1  0
 29 21  1  0
 30 32  1  0
 31 30  2  0
M  END
$$$$
