NDP.pdb
     RDKit          3D

 24 24  0  0  1  0  0  0  0  0999 V2000
   23.0022  -20.8416   -8.4312 N   0  0  0  0  0  0  0  0  0  0  0  0
   22.9914  -20.8617   -9.8441 C   0  0  0  0  0  0  0  0  0  0  0  0
   22.0951  -21.5448  -10.4061 O   0  0  0  0  0  0  0  0  0  0  0  0
   24.0074  -20.0991  -10.6148 C   0  0  0  0  0  0  0  0  0  0  0  0
   25.0865  -21.0675  -11.0534 C   0  0  2  0  0  0  0  0  0  0  0  0
   25.9099  -21.4140   -9.9040 N   0  0  0  0  0  0  0  0  0  0  0  0
   25.9920  -20.4436  -12.0620 C   0  0  0  0  0  0  0  0  0  0  0  0
   26.7211  -19.4444  -11.7926 O   0  0  0  0  0  0  0  0  0  0  0  0
   26.0263  -20.9938  -13.3507 N   0  0  0  0  0  0  0  0  0  0  0  0
   26.8620  -20.4110  -14.4356 C   0  0  1  0  0  0  0  0  0  0  0  0
   27.2324  -21.6631  -15.2406 C   0  0  0  0  0  0  0  0  0  0  0  0
   28.1432  -21.4439  -16.3469 C   0  0  0  0  0  0  0  0  0  0  0  0
   28.3922  -20.2262  -16.6505 O   0  0  0  0  0  0  0  0  0  0  0  0
   26.0083  -19.4755  -15.1922 C   0  0  0  0  0  0  0  0  0  0  0  0
   24.8453  -19.8887  -15.5469 O   0  0  0  0  0  0  0  0  0  0  0  0
   28.7761  -22.4060  -17.1147 O   0  0  0  0  0  0  0  0  0  0  0  0
   26.3402  -18.1575  -15.5661 N   0  0  0  0  0  0  0  0  0  0  0  0
   27.4785  -17.4118  -15.0663 C   0  0  0  0  0  0  0  0  0  0  0  0
   26.9890  -15.9535  -15.1179 C   0  0  0  0  0  0  0  0  0  0  0  0
   26.3060  -15.9986  -16.4935 C   0  0  0  0  0  0  0  0  0  0  0  0
   25.6062  -17.3090  -16.4493 C   0  0  1  0  0  0  0  0  0  0  0  0
   25.3950  -17.9064  -17.7901 C   0  0  0  0  0  0  0  0  0  0  0  0
   26.0588  -18.8395  -18.2566 O   0  0  0  0  0  0  0  0  0  0  0  0
   24.3700  -17.3657  -18.5684 O   0  0  0  0  0  0  0  0  0  0  0  0
  2  4  1  0
  2  1  1  0
  3  2  2  0
  4  5  1  0
  5  7  1  0
  5  6  1  1
  7  8  2  0
  9 10  1  0
  9  7  1  0
 10 14  1  0
 10 11  1  6
 12 11  1  0
 12 13  2  0
 14 15  2  0
 14 17  1  0
 16 12  1  0
 17 21  1  0
 17 18  1  0
 18 19  1  0
 19 20  1  0
 21 20  1  0
 21 22  1  6
 23 22  2  0
 24 22  1  0
M  END
$$$$
