NDP.pdb
     RDKit          3D

 24 24  0  0  1  0  0  0  0  0999 V2000
   24.9212  -20.6569   -8.8038 N   0  0  0  0  0  0  0  0  0  0  0  0
   26.2963  -20.8257   -9.0826 C   0  0  0  0  0  0  0  0  0  0  0  0
   27.0395  -21.1852   -8.1318 O   0  0  0  0  0  0  0  0  0  0  0  0
   26.8213  -20.5828  -10.4512 C   0  0  0  0  0  0  0  0  0  0  0  0
   25.6641  -20.1476  -11.3264 C   0  0  2  0  0  0  0  0  0  0  0  0
   24.7575  -21.2718  -11.5093 N   0  0  0  0  0  0  0  0  0  0  0  0
   26.1368  -19.7476  -12.6840 C   0  0  0  0  0  0  0  0  0  0  0  0
   27.1635  -19.0283  -12.8600 O   0  0  0  0  0  0  0  0  0  0  0  0
   25.4077  -20.1913  -13.7959 N   0  0  0  0  0  0  0  0  0  0  0  0
   25.7118  -19.7249  -15.1762 C   0  0  1  0  0  0  0  0  0  0  0  0
   24.8684  -20.6917  -16.0170 C   0  0  0  0  0  0  0  0  0  0  0  0
   24.8780  -20.4442  -17.4453 C   0  0  0  0  0  0  0  0  0  0  0  0
   23.7874  -20.6747  -18.0734 O   0  0  0  0  0  0  0  0  0  0  0  0
   25.2522  -18.3267  -15.2780 C   0  0  0  0  0  0  0  0  0  0  0  0
   24.0593  -18.0645  -14.8817 O   0  0  0  0  0  0  0  0  0  0  0  0
   25.9369  -19.9852  -18.2093 O   0  0  0  0  0  0  0  0  0  0  0  0
   25.9988  -17.2355  -15.7668 N   0  0  0  0  0  0  0  0  0  0  0  0
   27.3967  -17.2864  -16.1470 C   0  0  0  0  0  0  0  0  0  0  0  0
   27.8913  -15.8602  -15.8468 C   0  0  0  0  0  0  0  0  0  0  0  0
   26.6925  -15.0865  -16.4169 C   0  0  0  0  0  0  0  0  0  0  0  0
   25.5429  -15.8920  -15.9284 C   0  0  1  0  0  0  0  0  0  0  0  0
   24.3421  -15.7836  -16.7917 C   0  0  0  0  0  0  0  0  0  0  0  0
   24.1321  -16.4763  -17.7942 O   0  0  0  0  0  0  0  0  0  0  0  0
   23.3907  -14.8269  -16.4336 O   0  0  0  0  0  0  0  0  0  0  0  0
  2  4  1  0
  2  1  1  0
  3  2  2  0
  4  5  1  0
  5  7  1  0
  5  6  1  6
  7  8  2  0
  9 10  1  0
  9  7  1  0
 10 14  1  0
 10 11  1  6
 12 11  1  0
 12 13  2  0
 14 15  2  0
 14 17  1  0
 16 12  1  0
 17 21  1  0
 17 18  1  0
 18 19  1  0
 19 20  1  0
 21 20  1  0
 21 22  1  6
 23 22  2  0
 24 22  1  0
M  END
$$$$
