NDP.pdb
     RDKit          3D

 24 24  0  0  1  0  0  0  0  0999 V2000
   20.3307  -16.0242  -19.9147 N   0  0  0  0  0  0  0  0  0  0  0  0
   20.9112  -15.7073  -18.6658 C   0  0  0  0  0  0  0  0  0  0  0  0
   21.6986  -14.7254  -18.6263 O   0  0  0  0  0  0  0  0  0  0  0  0
   20.5901  -16.5152  -17.4608 C   0  0  0  0  0  0  0  0  0  0  0  0
   21.8939  -16.8886  -16.7862 C   0  0  2  0  0  0  0  0  0  0  0  0
   22.6668  -17.7365  -17.6823 N   0  0  0  0  0  0  0  0  0  0  0  0
   21.6503  -17.6798  -15.5448 C   0  0  0  0  0  0  0  0  0  0  0  0
   20.5425  -17.6570  -14.9325 O   0  0  0  0  0  0  0  0  0  0  0  0
   22.6948  -18.4725  -15.0496 N   0  0  0  0  0  0  0  0  0  0  0  0
   22.4812  -19.4754  -13.9709 C   0  0  1  0  0  0  0  0  0  0  0  0
   21.4994  -20.4426  -14.6445 C   0  0  0  0  0  0  0  0  0  0  0  0
   21.0154  -21.5214  -13.8058 C   0  0  0  0  0  0  0  0  0  0  0  0
   20.4279  -21.1831  -12.7207 O   0  0  0  0  0  0  0  0  0  0  0  0
   23.7887  -20.0951  -13.6829 C   0  0  0  0  0  0  0  0  0  0  0  0
   24.5600  -20.3422  -14.6794 O   0  0  0  0  0  0  0  0  0  0  0  0
   21.1172  -22.8806  -14.0467 O   0  0  0  0  0  0  0  0  0  0  0  0
   24.2860  -20.4433  -12.4107 N   0  0  0  0  0  0  0  0  0  0  0  0
   23.5810  -20.2487  -11.1591 C   0  0  0  0  0  0  0  0  0  0  0  0
   24.7206  -20.0332  -10.1475 C   0  0  0  0  0  0  0  0  0  0  0  0
   25.6654  -21.1401  -10.6404 C   0  0  0  0  0  0  0  0  0  0  0  0
   25.5700  -20.9945  -12.1164 C   0  0  1  0  0  0  0  0  0  0  0  0
   25.8453  -22.2542  -12.8488 C   0  0  0  0  0  0  0  0  0  0  0  0
   24.9815  -23.0650  -13.2027 O   0  0  0  0  0  0  0  0  0  0  0  0
   27.1797  -22.5295  -13.1529 O   0  0  0  0  0  0  0  0  0  0  0  0
  2  4  1  0
  2  1  1  0
  3  2  2  0
  4  5  1  0
  5  7  1  0
  5  6  1  6
  7  8  2  0
  9 10  1  0
  9  7  1  0
 10 14  1  0
 10 11  1  6
 12 11  1  0
 12 13  2  0
 14 15  2  0
 14 17  1  0
 16 12  1  0
 17 21  1  0
 17 18  1  0
 18 19  1  0
 19 20  1  0
 21 20  1  0
 21 22  1  6
 23 22  2  0
 24 22  1  0
M  END
$$$$
