NDP.pdb
     RDKit          3D

 24 24  0  0  1  0  0  0  0  0999 V2000
   17.4489  -13.0341  -15.4464 N   0  0  0  0  0  0  0  0  0  0  0  0
   18.3818  -12.0390  -15.8158 C   0  0  0  0  0  0  0  0  0  0  0  0
   19.0670  -12.2445  -16.8521 O   0  0  0  0  0  0  0  0  0  0  0  0
   18.5307  -10.8072  -14.9983 C   0  0  0  0  0  0  0  0  0  0  0  0
   18.9940   -9.6916  -15.9122 C   0  0  2  0  0  0  0  0  0  0  0  0
   20.3463   -9.9807  -16.3672 N   0  0  0  0  0  0  0  0  0  0  0  0
   19.0509   -8.3894  -15.1860 C   0  0  0  0  0  0  0  0  0  0  0  0
   18.0536   -7.9131  -14.5687 O   0  0  0  0  0  0  0  0  0  0  0  0
   20.2587   -7.6783  -15.1960 N   0  0  0  0  0  0  0  0  0  0  0  0
   20.4053   -6.3624  -14.5164 C   0  0  1  0  0  0  0  0  0  0  0  0
   21.8505   -6.4415  -14.0082 C   0  0  0  0  0  0  0  0  0  0  0  0
   22.3343   -5.2589  -13.3234 C   0  0  0  0  0  0  0  0  0  0  0  0
   23.1640   -4.5256  -13.9646 O   0  0  0  0  0  0  0  0  0  0  0  0
   20.2145   -5.3167  -15.5394 C   0  0  0  0  0  0  0  0  0  0  0  0
   20.8480   -5.4496  -16.6484 O   0  0  0  0  0  0  0  0  0  0  0  0
   21.9993   -4.8316  -12.0503 O   0  0  0  0  0  0  0  0  0  0  0  0
   19.3945   -4.1758  -15.4249 N   0  0  0  0  0  0  0  0  0  0  0  0
   18.4731   -3.9183  -14.3358 C   0  0  0  0  0  0  0  0  0  0  0  0
   17.3638   -3.0891  -15.0071 C   0  0  0  0  0  0  0  0  0  0  0  0
   18.2578   -2.1626  -15.8456 C   0  0  0  0  0  0  0  0  0  0  0  0
   19.2821   -3.1063  -16.3643 C   0  0  1  0  0  0  0  0  0  0  0  0
   20.5802   -2.4554  -16.6649 C   0  0  0  0  0  0  0  0  0  0  0  0
   21.6426   -2.7034  -16.0827 O   0  0  0  0  0  0  0  0  0  0  0  0
   20.5865   -1.4971  -17.6799 O   0  0  0  0  0  0  0  0  0  0  0  0
  2  4  1  0
  2  1  1  0
  3  2  2  0
  4  5  1  0
  5  7  1  0
  5  6  1  1
  7  8  2  0
  9 10  1  0
  9  7  1  0
 10 14  1  0
 10 11  1  6
 12 11  1  0
 12 13  2  0
 14 15  2  0
 14 17  1  0
 16 12  1  0
 17 21  1  0
 17 18  1  0
 18 19  1  0
 19 20  1  0
 21 20  1  0
 21 22  1  1
 23 22  2  0
 24 22  1  0
M  END
$$$$
