NDP.pdb
     RDKit          3D

 24 24  0  0  1  0  0  0  0  0999 V2000
   13.7328  -11.7592  -13.9909 N   0  0  0  0  0  0  0  0  0  0  0  0
   14.4091  -10.8210  -14.8029 C   0  0  0  0  0  0  0  0  0  0  0  0
   13.7421  -10.2494  -15.7050 O   0  0  0  0  0  0  0  0  0  0  0  0
   15.8508  -10.5366  -14.5820 C   0  0  0  0  0  0  0  0  0  0  0  0
   16.5811  -10.7783  -15.8869 C   0  0  2  0  0  0  0  0  0  0  0  0
   16.8456  -12.2029  -16.0267 N   0  0  0  0  0  0  0  0  0  0  0  0
   17.9046  -10.0893  -15.8985 C   0  0  0  0  0  0  0  0  0  0  0  0
   18.8751  -10.4728  -15.1819 O   0  0  0  0  0  0  0  0  0  0  0  0
   18.0649   -8.9782  -16.7379 N   0  0  0  0  0  0  0  0  0  0  0  0
   19.3804   -8.3044  -16.9125 C   0  0  1  0  0  0  0  0  0  0  0  0
   19.2321   -7.7062  -18.3172 C   0  0  0  0  0  0  0  0  0  0  0  0
   20.3751   -6.9544  -18.7965 C   0  0  0  0  0  0  0  0  0  0  0  0
   20.1547   -6.1159  -19.7375 O   0  0  0  0  0  0  0  0  0  0  0  0
   19.4893   -7.2758  -15.8605 C   0  0  0  0  0  0  0  0  0  0  0  0
   18.4427   -6.5775  -15.6035 O   0  0  0  0  0  0  0  0  0  0  0  0
   21.6824   -7.0413  -18.3503 O   0  0  0  0  0  0  0  0  0  0  0  0
   20.6364   -6.9807  -15.0962 N   0  0  0  0  0  0  0  0  0  0  0  0
   21.8796   -7.7252  -15.1386 C   0  0  0  0  0  0  0  0  0  0  0  0
   22.4370   -7.5532  -13.7144 C   0  0  0  0  0  0  0  0  0  0  0  0
   22.1335   -6.0574  -13.5379 C   0  0  0  0  0  0  0  0  0  0  0  0
   20.7707   -5.9467  -14.1206 C   0  0  1  0  0  0  0  0  0  0  0  0
   20.4700   -4.5971  -14.6565 C   0  0  0  0  0  0  0  0  0  0  0  0
   20.3183   -4.3342  -15.8551 O   0  0  0  0  0  0  0  0  0  0  0  0
   20.3530   -3.5606  -13.7287 O   0  0  0  0  0  0  0  0  0  0  0  0
  2  4  1  0
  2  1  1  0
  3  2  2  0
  4  5  1  0
  5  7  1  0
  5  6  1  1
  7  8  2  0
  9 10  1  0
  9  7  1  0
 10 14  1  0
 10 11  1  6
 12 11  1  0
 12 13  2  0
 14 15  2  0
 14 17  1  0
 16 12  1  0
 17 21  1  0
 17 18  1  0
 18 19  1  0
 19 20  1  0
 21 20  1  0
 21 22  1  6
 23 22  2  0
 24 22  1  0
M  END
$$$$
