NDP.pdb
     RDKit          3D

 24 24  0  0  1  0  0  0  0  0999 V2000
   37.4587  -12.7572   -6.5449 N   0  0  0  0  0  0  0  0  0  0  0  0
   36.9347  -11.4591   -6.3513 C   0  0  0  0  0  0  0  0  0  0  0  0
   36.4724  -11.1858   -5.2124 O   0  0  0  0  0  0  0  0  0  0  0  0
   36.9399  -10.4727   -7.4625 C   0  0  0  0  0  0  0  0  0  0  0  0
   38.3812  -10.1269   -7.7750 C   0  0  2  0  0  0  0  0  0  0  0  0
   38.9759   -9.4763   -6.6164 N   0  0  0  0  0  0  0  0  0  0  0  0
   38.4692   -9.1590   -8.9072 C   0  0  0  0  0  0  0  0  0  0  0  0
   37.9790   -9.4039  -10.0484 O   0  0  0  0  0  0  0  0  0  0  0  0
   39.1212   -7.9382   -8.6852 N   0  0  0  0  0  0  0  0  0  0  0  0
   39.2968   -6.9295   -9.7653 C   0  0  1  0  0  0  0  0  0  0  0  0
   39.1690   -5.6177   -8.9806 C   0  0  0  0  0  0  0  0  0  0  0  0
   37.8122   -5.1731   -8.7296 C   0  0  0  0  0  0  0  0  0  0  0  0
   36.9459   -5.4415   -9.6321 O   0  0  0  0  0  0  0  0  0  0  0  0
   40.6432   -7.1271  -10.3352 C   0  0  0  0  0  0  0  0  0  0  0  0
   41.5941   -7.4178   -9.5227 O   0  0  0  0  0  0  0  0  0  0  0  0
   37.3462   -4.4888   -7.6205 O   0  0  0  0  0  0  0  0  0  0  0  0
   40.9960   -7.0331  -11.6967 N   0  0  0  0  0  0  0  0  0  0  0  0
   40.0562   -6.9226  -12.7949 C   0  0  0  0  0  0  0  0  0  0  0  0
   40.7964   -7.6086  -13.9569 C   0  0  0  0  0  0  0  0  0  0  0  0
   42.1877   -7.0005  -13.7219 C   0  0  0  0  0  0  0  0  0  0  0  0
   42.3145   -7.0789  -12.2431 C   0  0  1  0  0  0  0  0  0  0  0  0
   43.2165   -6.0471  -11.6765 C   0  0  0  0  0  0  0  0  0  0  0  0
   44.4498   -6.0673  -11.7629 O   0  0  0  0  0  0  0  0  0  0  0  0
   42.6148   -4.9841  -11.0007 O   0  0  0  0  0  0  0  0  0  0  0  0
  2  4  1  0
  2  1  1  0
  3  2  2  0
  4  5  1  0
  5  7  1  0
  5  6  1  1
  7  8  2  0
  9 10  1  0
  9  7  1  0
 10 14  1  0
 10 11  1  1
 12 11  1  0
 12 13  2  0
 14 15  2  0
 14 17  1  0
 16 12  1  0
 17 21  1  0
 17 18  1  0
 18 19  1  0
 19 20  1  0
 21 20  1  0
 21 22  1  1
 23 22  2  0
 24 22  1  0
M  END
$$$$
