NDP.pdb
     RDKit          3D

 24 24  0  0  1  0  0  0  0  0999 V2000
   11.4386  -16.2060   -0.5794 N   0  0  0  0  0  0  0  0  0  0  0  0
   10.9241  -16.1432    0.7352 C   0  0  0  0  0  0  0  0  0  0  0  0
   10.1607  -15.1808    1.0124 O   0  0  0  0  0  0  0  0  0  0  0  0
   11.2836  -17.1830    1.7339 C   0  0  0  0  0  0  0  0  0  0  0  0
   12.1953  -18.1863    1.0578 C   0  0  2  0  0  0  0  0  0  0  0  0
   11.4237  -18.9533    0.0907 N   0  0  0  0  0  0  0  0  0  0  0  0
   12.7465  -19.1618    2.0431 C   0  0  0  0  0  0  0  0  0  0  0  0
   12.1032  -20.1865    2.4155 O   0  0  0  0  0  0  0  0  0  0  0  0
   14.0243  -18.9225    2.5674 N   0  0  0  0  0  0  0  0  0  0  0  0
   14.6748  -19.8623    3.5206 C   0  0  1  0  0  0  0  0  0  0  0  0
   15.7808  -20.4662    2.6458 C   0  0  0  0  0  0  0  0  0  0  0  0
   16.5875  -21.4890    3.2818 C   0  0  0  0  0  0  0  0  0  0  0  0
   17.8532  -21.3018    3.2816 O   0  0  0  0  0  0  0  0  0  0  0  0
   15.2039  -19.0572    4.6380 C   0  0  0  0  0  0  0  0  0  0  0  0
   15.7935  -17.9543    4.3469 O   0  0  0  0  0  0  0  0  0  0  0  0
   16.1423  -22.6492    3.8911 O   0  0  0  0  0  0  0  0  0  0  0  0
   15.1234  -19.3760    6.0087 N   0  0  0  0  0  0  0  0  0  0  0  0
   14.2950  -20.4235    6.5729 C   0  0  0  0  0  0  0  0  0  0  0  0
   13.9617  -19.8859    7.9760 C   0  0  0  0  0  0  0  0  0  0  0  0
   15.3562  -19.3582    8.3470 C   0  0  0  0  0  0  0  0  0  0  0  0
   15.7889  -18.7094    7.0818 C   0  0  1  0  0  0  0  0  0  0  0  0
   17.2622  -18.6681    6.9181 C   0  0  0  0  0  0  0  0  0  0  0  0
   17.8928  -19.3020    6.0640 O   0  0  0  0  0  0  0  0  0  0  0  0
   17.9731  -17.8507    7.7986 O   0  0  0  0  0  0  0  0  0  0  0  0
  2  4  1  0
  2  1  1  0
  3  2  2  0
  4  5  1  0
  5  7  1  0
  5  6  1  6
  7  8  2  0
  9 10  1  0
  9  7  1  0
 10 14  1  0
 10 11  1  6
 12 11  1  0
 12 13  2  0
 14 15  2  0
 14 17  1  0
 16 12  1  0
 17 21  1  0
 17 18  1  0
 18 19  1  0
 19 20  1  0
 21 20  1  0
 21 22  1  6
 23 22  2  0
 24 22  1  0
M  END
$$$$
