NDP.pdb
     RDKit          3D

 24 24  0  0  1  0  0  0  0  0999 V2000
   25.7529  -28.0446  -17.2412 N   0  0  0  0  0  0  0  0  0  0  0  0
   25.9394  -27.1870  -18.3488 C   0  0  0  0  0  0  0  0  0  0  0  0
   26.4420  -27.6870  -19.3895 O   0  0  0  0  0  0  0  0  0  0  0  0
   25.5501  -25.7554  -18.2652 C   0  0  0  0  0  0  0  0  0  0  0  0
   25.0485  -25.4877  -16.8612 C   0  0  2  0  0  0  0  0  0  0  0  0
   23.6247  -25.7852  -16.8004 N   0  0  0  0  0  0  0  0  0  0  0  0
   25.2057  -24.0489  -16.4987 C   0  0  0  0  0  0  0  0  0  0  0  0
   25.7329  -23.2058  -17.2821 O   0  0  0  0  0  0  0  0  0  0  0  0
   24.7489  -23.6294  -15.2417 N   0  0  0  0  0  0  0  0  0  0  0  0
   24.5942  -22.1895  -14.8985 C   0  0  1  0  0  0  0  0  0  0  0  0
   23.4523  -21.7742  -15.8349 C   0  0  0  0  0  0  0  0  0  0  0  0
   22.9807  -20.4129  -15.6745 C   0  0  0  0  0  0  0  0  0  0  0  0
   23.8465  -19.5475  -15.3020 O   0  0  0  0  0  0  0  0  0  0  0  0
   24.2213  -22.1159  -13.4730 C   0  0  0  0  0  0  0  0  0  0  0  0
   23.1704  -22.7533  -13.1015 O   0  0  0  0  0  0  0  0  0  0  0  0
   21.6957  -19.9414  -15.8794 O   0  0  0  0  0  0  0  0  0  0  0  0
   24.9113  -21.4133  -12.4643 N   0  0  0  0  0  0  0  0  0  0  0  0
   26.2218  -20.8122  -12.6154 C   0  0  0  0  0  0  0  0  0  0  0  0
   26.8091  -20.8962  -11.1953 C   0  0  0  0  0  0  0  0  0  0  0  0
   25.5583  -20.4658  -10.4135 C   0  0  0  0  0  0  0  0  0  0  0  0
   24.4813  -21.2092  -11.1180 C   0  0  1  0  0  0  0  0  0  0  0  0
   23.1558  -20.5512  -11.0228 C   0  0  0  0  0  0  0  0  0  0  0  0
   22.5823  -19.9861  -11.9612 O   0  0  0  0  0  0  0  0  0  0  0  0
   22.5236  -20.5808   -9.7785 O   0  0  0  0  0  0  0  0  0  0  0  0
  2  4  1  0
  2  1  1  0
  3  2  2  0
  4  5  1  0
  5  7  1  0
  5  6  1  6
  7  8  2  0
  9 10  1  0
  9  7  1  0
 10 14  1  0
 10 11  1  6
 12 11  1  0
 12 13  2  0
 14 15  2  0
 14 17  1  0
 16 12  1  0
 17 21  1  0
 17 18  1  0
 18 19  1  0
 19 20  1  0
 21 20  1  0
 21 22  1  6
 23 22  2  0
 24 22  1  0
M  END
$$$$
