GKR.pdb
     RDKit          3D

 25 24  0  0  1  0  0  0  0  0999 V2000
    4.7048  -19.9151   23.3765 N   0  0  0  0  0  0  0  0  0  0  0  0
    4.7219  -18.4865   23.4004 C   0  0  0  0  0  0  0  0  0  0  0  0
    5.9327  -17.9046   22.8134 C   0  0  0  0  0  0  0  0  0  0  0  0
    6.9564  -18.5977   22.5954 O   0  0  0  0  0  0  0  0  0  0  0  0
    6.0200  -16.5093   22.4532 N   0  0  0  0  0  0  0  0  0  0  0  0
    7.1858  -15.9782   21.8238 C   0  0  1  0  0  0  0  0  0  0  0  0
    6.9589  -14.7044   21.1019 C   0  0  0  0  0  0  0  0  0  0  0  0
    8.0329  -14.2227   20.2048 C   0  0  0  0  0  0  0  0  0  0  0  0
    7.6701  -13.0834   19.3045 C   0  0  0  0  0  0  0  0  0  0  0  0
    8.8411  -12.9217   18.3166 C   0  0  0  0  0  0  0  0  0  0  0  0
    8.3901  -11.8992   17.3768 N   0  0  0  0  0  0  0  0  0  0  0  0
    8.1975  -15.6551   22.9084 C   0  0  0  0  0  0  0  0  0  0  0  0
    7.8111  -15.0847   23.9459 O   0  0  0  0  0  0  0  0  0  0  0  0
   11.2593  -18.7551   29.2434 N   0  0  0  0  0  0  0  0  0  0  0  0
    9.8633  -18.9006   29.0308 C   0  0  0  0  0  0  0  0  0  0  0  0
    9.2136  -19.6827   29.8130 N   0  0  0  0  0  0  0  0  0  0  0  0
    9.2116  -18.2121   27.9992 N   0  0  0  0  0  0  0  0  0  0  0  0
    9.5549  -18.5367   26.6017 C   0  0  0  0  0  0  0  0  0  0  0  0
    9.8843  -17.2618   25.9297 C   0  0  0  0  0  0  0  0  0  0  0  0
   10.2938  -17.2235   24.5265 C   0  0  0  0  0  0  0  0  0  0  0  0
   10.5518  -15.9460   23.8035 C   0  0  2  0  0  0  0  0  0  0  0  0
    9.5326  -16.0255   22.6750 N   0  0  0  0  0  0  0  0  0  0  0  0
   11.8207  -15.8784   23.0801 C   0  0  0  0  0  0  0  0  0  0  0  0
   12.9251  -15.2408   23.6888 O   0  0  0  0  0  0  0  0  0  0  0  0
   12.0520  -16.3310   21.9522 O   0  0  0  0  0  0  0  0  0  0  0  0
  2  1  1  0
  3  4  2  0
  3  2  1  0
  5  3  1  0
  6  7  1  1
  6  5  1  0
  8  7  1  0
  9  8  1  0
 10  9  1  0
 11 10  1  0
 12 22  1  0
 12  6  1  0
 13 12  2  0
 15 14  1  0
 15 16  2  0
 17 15  1  0
 18 17  1  0
 19 20  1  0
 19 18  1  0
 21 22  1  0
 21 20  1  1
 23 24  1  0
 23 21  1  0
 25 23  2  0
M  END
$$$$
