GKR.pdb
     RDKit          3D

 25 24  0  0  1  0  0  0  0  0999 V2000
    2.7123  -18.9363   21.4504 N   0  0  0  0  0  0  0  0  0  0  0  0
    4.0844  -19.3123   21.3175 C   0  0  0  0  0  0  0  0  0  0  0  0
    4.9367  -18.8139   22.4012 C   0  0  0  0  0  0  0  0  0  0  0  0
    4.9080  -17.6114   22.7604 O   0  0  0  0  0  0  0  0  0  0  0  0
    5.8536  -19.6700   23.1156 N   0  0  0  0  0  0  0  0  0  0  0  0
    6.7048  -19.1540   24.1386 C   0  0  1  0  0  0  0  0  0  0  0  0
    7.3542  -20.1943   24.9700 C   0  0  0  0  0  0  0  0  0  0  0  0
    6.5172  -20.8980   25.9672 C   0  0  0  0  0  0  0  0  0  0  0  0
    7.1678  -22.0468   26.6722 C   0  0  0  0  0  0  0  0  0  0  0  0
    6.1442  -22.5585   27.7035 C   0  0  0  0  0  0  0  0  0  0  0  0
    6.8292  -23.6498   28.3905 N   0  0  0  0  0  0  0  0  0  0  0  0
    7.8410  -18.4031   23.4680 C   0  0  0  0  0  0  0  0  0  0  0  0
    8.4086  -18.9163   22.4854 O   0  0  0  0  0  0  0  0  0  0  0  0
    8.4061  -12.0108   19.1870 N   0  0  0  0  0  0  0  0  0  0  0  0
    7.8661  -13.2816   18.8573 C   0  0  0  0  0  0  0  0  0  0  0  0
    8.2357  -13.8252   17.7557 N   0  0  0  0  0  0  0  0  0  0  0  0
    6.9573  -13.9256   19.7071 N   0  0  0  0  0  0  0  0  0  0  0  0
    7.1638  -13.8371   21.1651 C   0  0  0  0  0  0  0  0  0  0  0  0
    8.1400  -14.8862   21.5282 C   0  0  0  0  0  0  0  0  0  0  0  0
    8.5314  -15.1148   22.9185 C   0  0  0  0  0  0  0  0  0  0  0  0
    9.2882  -16.3249   23.3475 C   0  0  2  0  0  0  0  0  0  0  0  0
    8.1907  -17.1519   24.0031 N   0  0  0  0  0  0  0  0  0  0  0  0
   10.2301  -16.1201   24.4470 C   0  0  0  0  0  0  0  0  0  0  0  0
   11.5831  -15.8415   24.1493 O   0  0  0  0  0  0  0  0  0  0  0  0
    9.9733  -16.1639   25.6563 O   0  0  0  0  0  0  0  0  0  0  0  0
  2  1  1  0
  3  4  2  0
  3  2  1  0
  5  3  1  0
  6  7  1  6
  6  5  1  0
  8  7  1  0
  9  8  1  0
 10  9  1  0
 11 10  1  0
 12 22  1  0
 12  6  1  0
 13 12  2  0
 15 14  1  0
 15 16  2  0
 17 15  1  0
 18 17  1  0
 19 20  1  0
 19 18  1  0
 21 22  1  0
 21 20  1  1
 23 24  1  0
 23 21  1  0
 25 23  2  0
M  END
$$$$
