GKR.pdb
     RDKit          3D

 25 24  0  0  1  0  0  0  0  0999 V2000
    4.9105  -18.8289   19.7345 N   0  0  0  0  0  0  0  0  0  0  0  0
    4.8189  -17.7685   20.6877 C   0  0  0  0  0  0  0  0  0  0  0  0
    6.0952  -17.0912   20.9357 C   0  0  0  0  0  0  0  0  0  0  0  0
    7.1816  -17.7200   20.9504 O   0  0  0  0  0  0  0  0  0  0  0  0
    6.1790  -15.6701   21.1760 N   0  0  0  0  0  0  0  0  0  0  0  0
    7.4138  -15.0510   21.5357 C   0  0  1  0  0  0  0  0  0  0  0  0
    7.4211  -13.5773   21.3834 C   0  0  0  0  0  0  0  0  0  0  0  0
    7.2908  -13.0277   20.0155 C   0  0  0  0  0  0  0  0  0  0  0  0
    8.4025  -13.3589   19.0696 C   0  0  0  0  0  0  0  0  0  0  0  0
    8.0671  -12.6528   17.7422 C   0  0  0  0  0  0  0  0  0  0  0  0
    9.1031  -13.1010   16.8159 N   0  0  0  0  0  0  0  0  0  0  0  0
    7.6534  -15.3072   23.0127 C   0  0  0  0  0  0  0  0  0  0  0  0
    6.7152  -15.1434   23.8152 O   0  0  0  0  0  0  0  0  0  0  0  0
    5.9666  -21.1905   27.3072 N   0  0  0  0  0  0  0  0  0  0  0  0
    7.3482  -21.3037   27.6134 C   0  0  0  0  0  0  0  0  0  0  0  0
    7.7658  -22.4102   28.1103 N   0  0  0  0  0  0  0  0  0  0  0  0
    8.2315  -20.2413   27.3810 N   0  0  0  0  0  0  0  0  0  0  0  0
    8.4586  -19.7978   25.9925 C   0  0  0  0  0  0  0  0  0  0  0  0
    8.6754  -18.3361   26.0353 C   0  0  0  0  0  0  0  0  0  0  0  0
    8.9420  -17.5693   24.8190 C   0  0  0  0  0  0  0  0  0  0  0  0
    9.2179  -16.1049   24.8415 C   0  0  2  0  0  0  0  0  0  0  0  0
    8.9405  -15.7221   23.3940 N   0  0  0  0  0  0  0  0  0  0  0  0
   10.6225  -15.7323   25.0040 C   0  0  0  0  0  0  0  0  0  0  0  0
   11.1355  -15.5395   26.3064 O   0  0  0  0  0  0  0  0  0  0  0  0
   11.4489  -15.5581   24.1001 O   0  0  0  0  0  0  0  0  0  0  0  0
  2  1  1  0
  3  4  2  0
  3  2  1  0
  5  3  1  0
  6  7  1  1
  6  5  1  0
  8  7  1  0
  9  8  1  0
 10  9  1  0
 11 10  1  0
 12 22  1  0
 12  6  1  0
 13 12  2  0
 15 14  1  0
 15 16  2  0
 17 15  1  0
 18 17  1  0
 19 20  1  0
 19 18  1  0
 21 22  1  0
 21 20  1  6
 23 24  1  0
 23 21  1  0
 25 23  2  0
M  END
$$$$
