GKR.pdb
     RDKit          3D

 25 24  0  0  1  0  0  0  0  0999 V2000
    7.0128  -12.1836   19.3335 N   0  0  0  0  0  0  0  0  0  0  0  0
    8.0717  -13.0558   18.9339 C   0  0  0  0  0  0  0  0  0  0  0  0
    8.2355  -14.2193   19.8107 C   0  0  0  0  0  0  0  0  0  0  0  0
    7.7903  -14.2262   20.9843 O   0  0  0  0  0  0  0  0  0  0  0  0
    8.9136  -15.4188   19.3799 N   0  0  0  0  0  0  0  0  0  0  0  0
    9.0124  -16.5603   20.2312 C   0  0  1  0  0  0  0  0  0  0  0  0
    9.4659  -17.7922   19.5444 C   0  0  0  0  0  0  0  0  0  0  0  0
    9.5339  -19.0374   20.3413 C   0  0  0  0  0  0  0  0  0  0  0  0
   10.0655  -20.2412   19.6282 C   0  0  0  0  0  0  0  0  0  0  0  0
    9.9098  -21.4254   20.6013 C   0  0  0  0  0  0  0  0  0  0  0  0
   10.4385  -22.5734   19.8701 N   0  0  0  0  0  0  0  0  0  0  0  0
   10.0680  -16.2702   21.2829 C   0  0  0  0  0  0  0  0  0  0  0  0
   11.1256  -15.7089   20.9400 O   0  0  0  0  0  0  0  0  0  0  0  0
   10.4666  -16.4729   28.8015 N   0  0  0  0  0  0  0  0  0  0  0  0
   10.1786  -15.1271   29.1498 C   0  0  0  0  0  0  0  0  0  0  0  0
   10.1531  -14.8200   30.3951 N   0  0  0  0  0  0  0  0  0  0  0  0
    9.9299  -14.1611   28.1660 N   0  0  0  0  0  0  0  0  0  0  0  0
    9.1813  -14.5552   26.9575 C   0  0  0  0  0  0  0  0  0  0  0  0
   10.1517  -15.1752   26.0306 C   0  0  0  0  0  0  0  0  0  0  0  0
    9.7387  -15.6847   24.7235 C   0  0  0  0  0  0  0  0  0  0  0  0
   10.7107  -16.2318   23.7352 C   0  0  2  0  0  0  0  0  0  0  0  0
    9.7850  -16.6573   22.6036 N   0  0  0  0  0  0  0  0  0  0  0  0
   11.3491  -17.4919   24.1128 C   0  0  0  0  0  0  0  0  0  0  0  0
   12.6194  -17.4599   24.7310 O   0  0  0  0  0  0  0  0  0  0  0  0
   10.8912  -18.6293   23.9485 O   0  0  0  0  0  0  0  0  0  0  0  0
  2  1  1  0
  3  4  2  0
  3  2  1  0
  5  3  1  0
  6  7  1  6
  6  5  1  0
  8  7  1  0
  9  8  1  0
 10  9  1  0
 11 10  1  0
 12 22  1  0
 12  6  1  0
 13 12  2  0
 15 14  1  0
 15 16  2  0
 17 15  1  0
 18 17  1  0
 19 20  1  0
 19 18  1  0
 21 22  1  0
 21 20  1  1
 23 24  1  0
 23 21  1  0
 25 23  2  0
M  END
$$$$
