GKR.pdb
     RDKit          3D

 25 24  0  0  1  0  0  0  0  0999 V2000
   11.4103  -18.0983   17.1969 N   0  0  0  0  0  0  0  0  0  0  0  0
   12.1980  -18.5959   18.2803 C   0  0  0  0  0  0  0  0  0  0  0  0
   11.4749  -18.6500   19.5545 C   0  0  0  0  0  0  0  0  0  0  0  0
   10.2532  -18.3717   19.6297 O   0  0  0  0  0  0  0  0  0  0  0  0
   12.1199  -19.0243   20.7906 N   0  0  0  0  0  0  0  0  0  0  0  0
   11.3792  -19.1501   22.0043 C   0  0  1  0  0  0  0  0  0  0  0  0
   12.0769  -19.9138   23.0649 C   0  0  0  0  0  0  0  0  0  0  0  0
   11.3655  -20.1159   24.3468 C   0  0  0  0  0  0  0  0  0  0  0  0
   12.1382  -20.8182   25.4192 C   0  0  0  0  0  0  0  0  0  0  0  0
   11.1715  -20.9938   26.6057 C   0  0  0  0  0  0  0  0  0  0  0  0
   11.9473  -21.7206   27.6069 N   0  0  0  0  0  0  0  0  0  0  0  0
   11.1745  -17.7582   22.5745 C   0  0  0  0  0  0  0  0  0  0  0  0
   12.1713  -17.0586   22.8354 O   0  0  0  0  0  0  0  0  0  0  0  0
    8.1302  -11.5968   19.4923 N   0  0  0  0  0  0  0  0  0  0  0  0
    8.3256  -13.0006   19.4118 C   0  0  0  0  0  0  0  0  0  0  0  0
    8.7758  -13.4835   18.3119 N   0  0  0  0  0  0  0  0  0  0  0  0
    8.0369  -13.8362   20.4988 N   0  0  0  0  0  0  0  0  0  0  0  0
    7.7270  -13.2217   21.8036 C   0  0  0  0  0  0  0  0  0  0  0  0
    7.6119  -14.3224   22.7837 C   0  0  0  0  0  0  0  0  0  0  0  0
    8.3079  -15.5934   22.5876 C   0  0  0  0  0  0  0  0  0  0  0  0
    9.5745  -15.9292   23.2976 C   0  0  2  0  0  0  0  0  0  0  0  0
    9.8507  -17.3331   22.7768 N   0  0  0  0  0  0  0  0  0  0  0  0
    9.4492  -16.1449   24.7384 C   0  0  0  0  0  0  0  0  0  0  0  0
    9.9170  -15.1489   25.6250 O   0  0  0  0  0  0  0  0  0  0  0  0
    8.9631  -17.1361   25.2965 O   0  0  0  0  0  0  0  0  0  0  0  0
  2  1  1  0
  3  4  2  0
  3  2  1  0
  5  3  1  0
  6  7  1  1
  6  5  1  0
  8  7  1  0
  9  8  1  0
 10  9  1  0
 11 10  1  0
 12 22  1  0
 12  6  1  0
 13 12  2  0
 15 14  1  0
 15 16  2  0
 17 15  1  0
 18 17  1  0
 19 20  1  0
 19 18  1  0
 21 22  1  0
 21 20  1  6
 23 24  1  0
 23 21  1  0
 25 23  2  0
M  END
$$$$
