GKR.pdb
     RDKit          3D

 25 24  0  0  1  0  0  0  0  0999 V2000
   10.8796  -20.0400   18.5277 N   0  0  0  0  0  0  0  0  0  0  0  0
    9.6222  -19.4056   18.7688 C   0  0  0  0  0  0  0  0  0  0  0  0
    9.7357  -18.1324   19.4865 C   0  0  0  0  0  0  0  0  0  0  0  0
   10.6430  -17.9318   20.3306 O   0  0  0  0  0  0  0  0  0  0  0  0
    8.8176  -17.0401   19.2671 N   0  0  0  0  0  0  0  0  0  0  0  0
    8.9073  -15.8334   20.0242 C   0  0  1  0  0  0  0  0  0  0  0  0
    8.1110  -14.7114   19.4747 C   0  0  0  0  0  0  0  0  0  0  0  0
    8.3973  -14.2803   18.0882 C   0  0  0  0  0  0  0  0  0  0  0  0
    7.3779  -13.3827   17.4594 C   0  0  0  0  0  0  0  0  0  0  0  0
    7.8807  -13.0877   16.0335 C   0  0  0  0  0  0  0  0  0  0  0  0
    6.8330  -12.2633   15.4379 N   0  0  0  0  0  0  0  0  0  0  0  0
    8.3321  -16.1019   21.4032 C   0  0  0  0  0  0  0  0  0  0  0  0
    7.1820  -16.5701   21.4984 O   0  0  0  0  0  0  0  0  0  0  0  0
   11.6201  -19.8464   29.6272 N   0  0  0  0  0  0  0  0  0  0  0  0
   11.8051  -19.4609   28.2735 C   0  0  0  0  0  0  0  0  0  0  0  0
   12.8738  -19.8472   27.6784 N   0  0  0  0  0  0  0  0  0  0  0  0
   10.8512  -18.6827   27.6047 N   0  0  0  0  0  0  0  0  0  0  0  0
   11.0632  -18.3707   26.1785 C   0  0  0  0  0  0  0  0  0  0  0  0
    9.9174  -17.5452   25.7412 C   0  0  0  0  0  0  0  0  0  0  0  0
    9.8669  -16.9598   24.4022 C   0  0  0  0  0  0  0  0  0  0  0  0
    8.6912  -16.1864   23.9116 C   0  0  2  0  0  0  0  0  0  0  0  0
    9.1447  -15.8025   22.5096 N   0  0  0  0  0  0  0  0  0  0  0  0
    8.4863  -14.8848   24.5456 C   0  0  0  0  0  0  0  0  0  0  0  0
    9.1067  -13.7441   23.9882 O   0  0  0  0  0  0  0  0  0  0  0  0
    7.8070  -14.6537   25.5533 O   0  0  0  0  0  0  0  0  0  0  0  0
  2  1  1  0
  3  4  2  0
  3  2  1  0
  5  3  1  0
  6  7  1  6
  6  5  1  0
  8  7  1  0
  9  8  1  0
 10  9  1  0
 11 10  1  0
 12 22  1  0
 12  6  1  0
 13 12  2  0
 15 14  1  0
 15 16  2  0
 17 15  1  0
 18 17  1  0
 19 20  1  0
 19 18  1  0
 21 22  1  0
 21 20  1  1
 23 24  1  0
 23 21  1  0
 25 23  2  0
M  END
$$$$
