GKR.pdb
     RDKit          3D

 25 24  0  0  1  0  0  0  0  0999 V2000
    4.8579  -19.2410   20.5362 N   0  0  0  0  0  0  0  0  0  0  0  0
    4.9715  -17.9521   21.1423 C   0  0  0  0  0  0  0  0  0  0  0  0
    6.2904  -17.3361   20.9675 C   0  0  0  0  0  0  0  0  0  0  0  0
    7.2616  -17.9819   20.5034 O   0  0  0  0  0  0  0  0  0  0  0  0
    6.5496  -15.9594   21.3162 N   0  0  0  0  0  0  0  0  0  0  0  0
    7.8274  -15.3654   21.0884 C   0  0  1  0  0  0  0  0  0  0  0  0
    7.7747  -13.9253   20.7443 C   0  0  0  0  0  0  0  0  0  0  0  0
    7.1940  -13.5527   19.4351 C   0  0  0  0  0  0  0  0  0  0  0  0
    8.1745  -13.3130   18.3299 C   0  0  0  0  0  0  0  0  0  0  0  0
    7.3453  -12.9214   17.0921 C   0  0  0  0  0  0  0  0  0  0  0  0
    8.3095  -12.9009   15.9957 N   0  0  0  0  0  0  0  0  0  0  0  0
    8.6180  -15.4448   22.3818 C   0  0  0  0  0  0  0  0  0  0  0  0
    8.0154  -15.3403   23.4667 O   0  0  0  0  0  0  0  0  0  0  0  0
   13.4601  -21.8779   24.7597 N   0  0  0  0  0  0  0  0  0  0  0  0
   12.5328  -21.4785   25.7577 C   0  0  0  0  0  0  0  0  0  0  0  0
   12.2360  -22.3233   26.6763 N   0  0  0  0  0  0  0  0  0  0  0  0
   11.9575  -20.2011   25.7429 N   0  0  0  0  0  0  0  0  0  0  0  0
   11.5629  -19.6153   24.4478 C   0  0  0  0  0  0  0  0  0  0  0  0
   10.9191  -18.3167   24.7385 C   0  0  0  0  0  0  0  0  0  0  0  0
   10.3984  -17.4675   23.6680 C   0  0  0  0  0  0  0  0  0  0  0  0
   10.8111  -16.0449   23.5036 C   0  0  2  0  0  0  0  0  0  0  0  0
   10.0061  -15.6356   22.2776 N   0  0  0  0  0  0  0  0  0  0  0  0
   12.1893  -15.8373   23.0613 C   0  0  0  0  0  0  0  0  0  0  0  0
   13.2060  -15.6850   24.0308 O   0  0  0  0  0  0  0  0  0  0  0  0
   12.5875  -15.7761   21.8918 O   0  0  0  0  0  0  0  0  0  0  0  0
  2  1  1  0
  3  4  2  0
  3  2  1  0
  5  3  1  0
  6  7  1  1
  6  5  1  0
  8  7  1  0
  9  8  1  0
 10  9  1  0
 11 10  1  0
 12 22  1  0
 12  6  1  0
 13 12  2  0
 15 14  1  0
 15 16  2  0
 17 15  1  0
 18 17  1  0
 19 20  1  0
 19 18  1  0
 21 22  1  0
 21 20  1  6
 23 24  1  0
 23 21  1  0
 25 23  2  0
M  END
$$$$
