GKR.pdb
     RDKit          3D

 25 24  0  0  1  0  0  0  0  0999 V2000
    6.4432  -21.3289   17.8943 N   0  0  0  0  0  0  0  0  0  0  0  0
    6.5405  -20.8614   19.2410 C   0  0  0  0  0  0  0  0  0  0  0  0
    7.4986  -19.7654   19.4136 C   0  0  0  0  0  0  0  0  0  0  0  0
    8.7321  -19.9397   19.2589 O   0  0  0  0  0  0  0  0  0  0  0  0
    7.0841  -18.4289   19.7689 N   0  0  0  0  0  0  0  0  0  0  0  0
    8.0392  -17.3920   19.9929 C   0  0  1  0  0  0  0  0  0  0  0  0
    7.4596  -16.0288   20.0216 C   0  0  0  0  0  0  0  0  0  0  0  0
    8.3963  -14.8857   20.0994 C   0  0  0  0  0  0  0  0  0  0  0  0
    7.7739  -13.5258   20.0397 C   0  0  0  0  0  0  0  0  0  0  0  0
    8.9377  -12.5197   19.9587 C   0  0  0  0  0  0  0  0  0  0  0  0
    8.2894  -11.2188   19.8188 N   0  0  0  0  0  0  0  0  0  0  0  0
    8.6464  -17.6036   21.3680 C   0  0  0  0  0  0  0  0  0  0  0  0
    7.9003  -17.9016   22.3196 O   0  0  0  0  0  0  0  0  0  0  0  0
   14.3017  -21.0488   25.2322 N   0  0  0  0  0  0  0  0  0  0  0  0
   14.1177  -21.7389   24.0053 C   0  0  0  0  0  0  0  0  0  0  0  0
   13.9778  -23.0134   24.0467 N   0  0  0  0  0  0  0  0  0  0  0  0
   14.0890  -21.0520   22.7845 N   0  0  0  0  0  0  0  0  0  0  0  0
   14.1692  -19.5790   22.7969 C   0  0  0  0  0  0  0  0  0  0  0  0
   12.8530  -19.0779   23.2462 C   0  0  0  0  0  0  0  0  0  0  0  0
   12.0504  -18.1870   22.4092 C   0  0  0  0  0  0  0  0  0  0  0  0
   10.7144  -17.6803   22.8328 C   0  0  2  0  0  0  0  0  0  0  0  0
   10.0378  -17.4494   21.4884 N   0  0  0  0  0  0  0  0  0  0  0  0
   10.7081  -16.3430   23.4243 C   0  0  0  0  0  0  0  0  0  0  0  0
   10.6060  -16.2134   24.8277 O   0  0  0  0  0  0  0  0  0  0  0  0
   10.7840  -15.2676   22.8177 O   0  0  0  0  0  0  0  0  0  0  0  0
  2  1  1  0
  3  4  2  0
  3  2  1  0
  5  3  1  0
  6  7  1  1
  6  5  1  0
  8  7  1  0
  9  8  1  0
 10  9  1  0
 11 10  1  0
 12 22  1  0
 12  6  1  0
 13 12  2  0
 15 14  1  0
 15 16  2  0
 17 15  1  0
 18 17  1  0
 19 20  1  0
 19 18  1  0
 21 22  1  0
 21 20  1  6
 23 24  1  0
 23 21  1  0
 25 23  2  0
M  END
$$$$
