GKR.pdb
     RDKit          3D

 25 24  0  0  1  0  0  0  0  0999 V2000
    5.9394  -19.7957   23.3887 N   0  0  0  0  0  0  0  0  0  0  0  0
    6.0497  -18.4036   23.6911 C   0  0  0  0  0  0  0  0  0  0  0  0
    6.7570  -17.6343   22.6629 C   0  0  0  0  0  0  0  0  0  0  0  0
    7.3049  -18.1951   21.6826 O   0  0  0  0  0  0  0  0  0  0  0  0
    6.8649  -16.1956   22.7155 N   0  0  0  0  0  0  0  0  0  0  0  0
    7.7022  -15.4818   21.8062 C   0  0  1  0  0  0  0  0  0  0  0  0
    7.3875  -14.0382   21.6968 C   0  0  0  0  0  0  0  0  0  0  0  0
    8.1415  -13.2444   20.7011 C   0  0  0  0  0  0  0  0  0  0  0  0
    7.8320  -13.5333   19.2654 C   0  0  0  0  0  0  0  0  0  0  0  0
    8.7415  -12.6107   18.4318 C   0  0  0  0  0  0  0  0  0  0  0  0
    8.3401  -12.8516   17.0487 N   0  0  0  0  0  0  0  0  0  0  0  0
    9.1256  -15.5481   22.3297 C   0  0  0  0  0  0  0  0  0  0  0  0
    9.3162  -15.6026   23.5592 O   0  0  0  0  0  0  0  0  0  0  0  0
   15.4790  -18.5525   22.1625 N   0  0  0  0  0  0  0  0  0  0  0  0
   15.0805  -19.8553   21.7636 C   0  0  0  0  0  0  0  0  0  0  0  0
   15.9415  -20.5895   21.1593 N   0  0  0  0  0  0  0  0  0  0  0  0
   13.7869  -20.3282   22.0207 N   0  0  0  0  0  0  0  0  0  0  0  0
   12.6388  -19.6058   21.4408 C   0  0  0  0  0  0  0  0  0  0  0  0
   12.4221  -18.4012   22.2700 C   0  0  0  0  0  0  0  0  0  0  0  0
   11.3294  -17.4704   21.9909 C   0  0  0  0  0  0  0  0  0  0  0  0
   11.5557  -16.0131   21.7761 C   0  0  2  0  0  0  0  0  0  0  0  0
   10.1618  -15.5451   21.3807 N   0  0  0  0  0  0  0  0  0  0  0  0
   12.3516  -15.6674   20.5991 C   0  0  0  0  0  0  0  0  0  0  0  0
   13.6913  -15.2534   20.7735 O   0  0  0  0  0  0  0  0  0  0  0  0
   11.9763  -15.6949   19.4207 O   0  0  0  0  0  0  0  0  0  0  0  0
  2  1  1  0
  3  4  2  0
  3  2  1  0
  5  3  1  0
  6  7  1  1
  6  5  1  0
  8  7  1  0
  9  8  1  0
 10  9  1  0
 11 10  1  0
 12 22  1  0
 12  6  1  0
 13 12  2  0
 15 14  1  0
 15 16  2  0
 17 15  1  0
 18 17  1  0
 19 20  1  0
 19 18  1  0
 21 22  1  0
 21 20  1  6
 23 24  1  0
 23 21  1  0
 25 23  2  0
M  END
$$$$
