GKR.pdb
     RDKit          3D

 25 24  0  0  1  0  0  0  0  0999 V2000
    7.6903  -18.7825   18.4420 N   0  0  0  0  0  0  0  0  0  0  0  0
    7.2461  -20.0728   18.8655 C   0  0  0  0  0  0  0  0  0  0  0  0
    6.6221  -20.0719   20.1921 C   0  0  0  0  0  0  0  0  0  0  0  0
    7.0438  -19.3351   21.1168 O   0  0  0  0  0  0  0  0  0  0  0  0
    5.4928  -20.9123   20.5126 N   0  0  0  0  0  0  0  0  0  0  0  0
    4.8858  -20.8770   21.8040 C   0  0  1  0  0  0  0  0  0  0  0  0
    3.4398  -21.1995   21.8041 C   0  0  0  0  0  0  0  0  0  0  0  0
    2.5313  -20.2813   21.0819 C   0  0  0  0  0  0  0  0  0  0  0  0
    1.0973  -20.7041   21.0096 C   0  0  0  0  0  0  0  0  0  0  0  0
    0.3853  -19.6710   20.1157 C   0  0  0  0  0  0  0  0  0  0  0  0
   -0.9970  -20.1365   20.0459 N   0  0  0  0  0  0  0  0  0  0  0  0
    5.5403  -21.9475   22.6585 C   0  0  0  0  0  0  0  0  0  0  0  0
    5.7881  -23.0581   22.1523 O   0  0  0  0  0  0  0  0  0  0  0  0
   11.8095  -21.3469   29.1828 N   0  0  0  0  0  0  0  0  0  0  0  0
   10.5130  -21.7298   29.6161 C   0  0  0  0  0  0  0  0  0  0  0  0
   10.2001  -21.5151   30.8415 N   0  0  0  0  0  0  0  0  0  0  0  0
    9.6003  -22.3240   28.7348 N   0  0  0  0  0  0  0  0  0  0  0  0
    8.7804  -21.4548   27.8696 C   0  0  0  0  0  0  0  0  0  0  0  0
    8.0953  -22.3338   26.8982 C   0  0  0  0  0  0  0  0  0  0  0  0
    7.2436  -21.7859   25.8433 C   0  0  0  0  0  0  0  0  0  0  0  0
    6.4704  -22.6524   24.9093 C   0  0  2  0  0  0  0  0  0  0  0  0
    5.8339  -21.6169   23.9921 N   0  0  0  0  0  0  0  0  0  0  0  0
    5.3060  -23.3199   25.4895 C   0  0  0  0  0  0  0  0  0  0  0  0
    5.4362  -24.6485   25.9529 O   0  0  0  0  0  0  0  0  0  0  0  0
    4.1740  -22.8407   25.6284 O   0  0  0  0  0  0  0  0  0  0  0  0
  2  1  1  0
  3  4  2  0
  3  2  1  0
  5  3  1  0
  6  7  1  6
  6  5  1  0
  8  7  1  0
  9  8  1  0
 10  9  1  0
 11 10  1  0
 12 22  1  0
 12  6  1  0
 13 12  2  0
 15 14  1  0
 15 16  2  0
 17 15  1  0
 18 17  1  0
 19 20  1  0
 19 18  1  0
 21 22  1  0
 21 20  1  1
 23 24  1  0
 23 21  1  0
 25 23  2  0
M  END
$$$$
