GKR.pdb
     RDKit          3D

 25 24  0  0  1  0  0  0  0  0999 V2000
    8.4167  -11.9821   18.8841 N   0  0  0  0  0  0  0  0  0  0  0  0
    8.6904  -13.3297   18.4958 C   0  0  0  0  0  0  0  0  0  0  0  0
    8.3208  -14.3193   19.5123 C   0  0  0  0  0  0  0  0  0  0  0  0
    7.9533  -13.9752   20.6622 O   0  0  0  0  0  0  0  0  0  0  0  0
    8.3568  -15.7392   19.2537 N   0  0  0  0  0  0  0  0  0  0  0  0
    7.8941  -16.6806   20.2218 C   0  0  1  0  0  0  0  0  0  0  0  0
    7.5955  -18.0224   19.6693 C   0  0  0  0  0  0  0  0  0  0  0  0
    6.6260  -18.1059   18.5544 C   0  0  0  0  0  0  0  0  0  0  0  0
    6.3748  -19.4766   18.0083 C   0  0  0  0  0  0  0  0  0  0  0  0
    5.4328  -19.2970   16.8026 C   0  0  0  0  0  0  0  0  0  0  0  0
    5.2916  -20.6387   16.2438 N   0  0  0  0  0  0  0  0  0  0  0  0
    9.0052  -16.8965   21.2334 C   0  0  0  0  0  0  0  0  0  0  0  0
   10.1840  -16.9503   20.8352 O   0  0  0  0  0  0  0  0  0  0  0  0
    8.8297  -13.6810   29.3949 N   0  0  0  0  0  0  0  0  0  0  0  0
    9.9219  -14.5875   29.3687 C   0  0  0  0  0  0  0  0  0  0  0  0
   10.6342  -14.7025   30.4293 N   0  0  0  0  0  0  0  0  0  0  0  0
   10.2156  -15.3356   28.2211 N   0  0  0  0  0  0  0  0  0  0  0  0
    9.3356  -15.2050   27.0443 C   0  0  0  0  0  0  0  0  0  0  0  0
    9.8440  -16.1398   26.0181 C   0  0  0  0  0  0  0  0  0  0  0  0
    9.2133  -16.2443   24.7029 C   0  0  0  0  0  0  0  0  0  0  0  0
    9.7022  -17.1836   23.6541 C   0  0  2  0  0  0  0  0  0  0  0  0
    8.6326  -17.0240   22.5821 N   0  0  0  0  0  0  0  0  0  0  0  0
    9.6061  -18.6039   23.9883 C   0  0  0  0  0  0  0  0  0  0  0  0
   10.7318  -19.2578   24.5377 O   0  0  0  0  0  0  0  0  0  0  0  0
    8.6163  -19.3312   23.8408 O   0  0  0  0  0  0  0  0  0  0  0  0
  2  1  1  0
  3  4  2  0
  3  2  1  0
  5  3  1  0
  6  7  1  6
  6  5  1  0
  8  7  1  0
  9  8  1  0
 10  9  1  0
 11 10  1  0
 12 22  1  0
 12  6  1  0
 13 12  2  0
 15 14  1  0
 15 16  2  0
 17 15  1  0
 18 17  1  0
 19 20  1  0
 19 18  1  0
 21 22  1  0
 21 20  1  1
 23 24  1  0
 23 21  1  0
 25 23  2  0
M  END
$$$$
