GKR.pdb
     RDKit          3D

 25 24  0  0  1  0  0  0  0  0999 V2000
    9.7806  -17.7789   16.3351 N   0  0  0  0  0  0  0  0  0  0  0  0
   10.8998  -18.0090   17.1930 C   0  0  0  0  0  0  0  0  0  0  0  0
   10.5240  -18.3539   18.5675 C   0  0  0  0  0  0  0  0  0  0  0  0
    9.3782  -18.1080   19.0173 O   0  0  0  0  0  0  0  0  0  0  0  0
   11.4425  -18.9929   19.4797 N   0  0  0  0  0  0  0  0  0  0  0  0
   11.0952  -19.2149   20.8463 C   0  0  1  0  0  0  0  0  0  0  0  0
   11.9376  -20.2234   21.5306 C   0  0  0  0  0  0  0  0  0  0  0  0
   11.9546  -21.5950   20.9750 C   0  0  0  0  0  0  0  0  0  0  0  0
   12.8761  -22.5620   21.6504 C   0  0  0  0  0  0  0  0  0  0  0  0
   12.7125  -23.9043   20.9123 C   0  0  0  0  0  0  0  0  0  0  0  0
   13.7105  -24.7808   21.5187 N   0  0  0  0  0  0  0  0  0  0  0  0
   11.3196  -17.9182   21.6031 C   0  0  0  0  0  0  0  0  0  0  0  0
   12.3567  -17.2633   21.3874 O   0  0  0  0  0  0  0  0  0  0  0  0
    7.1855  -12.5866   20.2273 N   0  0  0  0  0  0  0  0  0  0  0  0
    8.2720  -13.1806   19.5331 C   0  0  0  0  0  0  0  0  0  0  0  0
    8.6937  -12.6030   18.4681 N   0  0  0  0  0  0  0  0  0  0  0  0
    8.8682  -14.3616   19.9944 N   0  0  0  0  0  0  0  0  0  0  0  0
    8.1613  -15.1632   21.0113 C   0  0  0  0  0  0  0  0  0  0  0  0
    8.6676  -14.7311   22.3313 C   0  0  0  0  0  0  0  0  0  0  0  0
    9.1219  -15.7002   23.3278 C   0  0  0  0  0  0  0  0  0  0  0  0
   10.5061  -16.2525   23.3329 C   0  0  2  0  0  0  0  0  0  0  0  0
   10.3272  -17.5257   22.5171 N   0  0  0  0  0  0  0  0  0  0  0  0
   10.9738  -16.7644   24.6203 C   0  0  0  0  0  0  0  0  0  0  0  0
   11.7181  -15.9136   25.4681 O   0  0  0  0  0  0  0  0  0  0  0  0
   10.7884  -17.9002   25.0740 O   0  0  0  0  0  0  0  0  0  0  0  0
  2  1  1  0
  3  4  2  0
  3  2  1  0
  5  3  1  0
  6  7  1  1
  6  5  1  0
  8  7  1  0
  9  8  1  0
 10  9  1  0
 11 10  1  0
 12 22  1  0
 12  6  1  0
 13 12  2  0
 15 14  1  0
 15 16  2  0
 17 15  1  0
 18 17  1  0
 19 20  1  0
 19 18  1  0
 21 22  1  0
 21 20  1  1
 23 24  1  0
 23 21  1  0
 25 23  2  0
M  END
$$$$
