GKR.pdb
     RDKit          3D

 25 24  0  0  1  0  0  0  0  0999 V2000
    3.4498  -19.7402   21.1433 N   0  0  0  0  0  0  0  0  0  0  0  0
    3.6355  -18.5061   21.8393 C   0  0  0  0  0  0  0  0  0  0  0  0
    5.0251  -18.0390   21.8442 C   0  0  0  0  0  0  0  0  0  0  0  0
    5.9888  -18.8410   21.7822 O   0  0  0  0  0  0  0  0  0  0  0  0
    5.3664  -16.6383   21.9200 N   0  0  0  0  0  0  0  0  0  0  0  0
    6.7264  -16.2095   21.9816 C   0  0  1  0  0  0  0  0  0  0  0  0
    6.9541  -14.8377   21.4704 C   0  0  0  0  0  0  0  0  0  0  0  0
    7.5058  -14.6965   20.1044 C   0  0  0  0  0  0  0  0  0  0  0  0
    7.7671  -13.2956   19.6469 C   0  0  0  0  0  0  0  0  0  0  0  0
    8.3243  -13.4041   18.2147 C   0  0  0  0  0  0  0  0  0  0  0  0
    8.5077  -12.0203   17.7862 N   0  0  0  0  0  0  0  0  0  0  0  0
    7.1401  -16.1720   23.4417 C   0  0  0  0  0  0  0  0  0  0  0  0
    6.3609  -15.6789   24.2789 O   0  0  0  0  0  0  0  0  0  0  0  0
   10.4264  -20.8073   29.3994 N   0  0  0  0  0  0  0  0  0  0  0  0
    9.1378  -20.2621   29.6395 C   0  0  0  0  0  0  0  0  0  0  0  0
    8.2765  -20.9965   30.2430 N   0  0  0  0  0  0  0  0  0  0  0  0
    8.8135  -18.9617   29.2312 N   0  0  0  0  0  0  0  0  0  0  0  0
    8.0621  -18.7788   27.9750 C   0  0  0  0  0  0  0  0  0  0  0  0
    9.0568  -18.6882   26.8852 C   0  0  0  0  0  0  0  0  0  0  0  0
    8.7005  -18.1567   25.5703 C   0  0  0  0  0  0  0  0  0  0  0  0
    8.8647  -16.7179   25.2181 C   0  0  2  0  0  0  0  0  0  0  0  0
    8.3980  -16.7056   23.7688 N   0  0  0  0  0  0  0  0  0  0  0  0
   10.2462  -16.2511   25.1099 C   0  0  0  0  0  0  0  0  0  0  0  0
   10.9335  -15.8624   26.2818 O   0  0  0  0  0  0  0  0  0  0  0  0
   10.9122  -16.1513   24.0722 O   0  0  0  0  0  0  0  0  0  0  0  0
  2  1  1  0
  3  4  2  0
  3  2  1  0
  5  3  1  0
  6  7  1  1
  6  5  1  0
  8  7  1  0
  9  8  1  0
 10  9  1  0
 11 10  1  0
 12 22  1  0
 12  6  1  0
 13 12  2  0
 15 14  1  0
 15 16  2  0
 17 15  1  0
 18 17  1  0
 19 20  1  0
 19 18  1  0
 21 22  1  0
 21 20  1  6
 23 24  1  0
 23 21  1  0
 25 23  2  0
M  END
$$$$
