YRR.pdb
     RDKit          3D

 35 35  0  0  1  0  0  0  0  0999 V2000
    4.9467  -10.0914   27.4641 O   0  0  0  0  0  0  0  0  0  0  0  0
    5.7009  -11.1388   26.9505 C   0  0  0  0  0  0  0  0  0  0  0  0
    6.3755  -11.9880   27.8055 C   0  0  0  0  0  0  0  0  0  0  0  0
    7.1169  -13.0198   27.2725 C   0  0  0  0  0  0  0  0  0  0  0  0
    7.1711  -13.1829   25.9242 C   0  0  0  0  0  0  0  0  0  0  0  0
    7.9645  -14.2858   25.3483 C   0  0  0  0  0  0  0  0  0  0  0  0
    6.9755  -15.2975   24.7561 C   0  0  2  0  0  0  0  0  0  0  0  0
    6.1565  -15.8739   25.7750 N   0  0  0  0  0  0  0  0  0  0  0  0
    7.7806  -16.2752   23.9947 C   0  0  0  0  0  0  0  0  0  0  0  0
    8.0809  -17.3498   24.5303 O   0  0  0  0  0  0  0  0  0  0  0  0
    6.5063  -12.3472   25.0611 C   0  0  0  0  0  0  0  0  0  0  0  0
    5.7573  -11.3070   25.5679 C   0  0  0  0  0  0  0  0  0  0  0  0
    8.5760  -12.2350   17.8022 N   0  0  0  0  0  0  0  0  0  0  0  0
    8.4471  -13.6362   17.7129 C   0  0  0  0  0  0  0  0  0  0  0  0
    7.5228  -14.0808   16.8974 N   0  0  0  0  0  0  0  0  0  0  0  0
    9.2519  -14.5366   18.4481 N   0  0  0  0  0  0  0  0  0  0  0  0
    8.9177  -15.9574   18.3573 C   0  0  0  0  0  0  0  0  0  0  0  0
    8.4362  -16.4703   19.7123 C   0  0  0  0  0  0  0  0  0  0  0  0
    9.5935  -16.3397   20.6751 C   0  0  0  0  0  0  0  0  0  0  0  0
    9.2438  -16.8916   22.0425 C   0  0  2  0  0  0  0  0  0  0  0  0
    8.2441  -16.0559   22.6546 N   0  0  0  0  0  0  0  0  0  0  0  0
   10.5080  -16.9141   22.8604 C   0  0  0  0  0  0  0  0  0  0  0  0
   11.0249  -15.8596   23.2952 O   0  0  0  0  0  0  0  0  0  0  0  0
    7.3589  -15.0993   16.7563 N   0  0  0  0  0  0  0  0  0  0  0  0
   11.5995  -21.8887   29.7274 C   0  0  0  0  0  0  0  0  0  0  0  0
   12.2889  -20.7973   29.0749 N   0  0  0  0  0  0  0  0  0  0  0  0
   12.7918  -19.8461   29.7753 N   0  0  0  0  0  0  0  0  0  0  0  0
   12.4074  -20.7789   27.6648 C   0  0  0  0  0  0  0  0  0  0  0  0
   13.1609  -19.6753   27.0270 C   0  0  0  0  0  0  0  0  0  0  0  0
   13.3119  -19.9286   25.5708 C   0  0  0  0  0  0  0  0  0  0  0  0
   12.2741  -19.4200   24.7053 C   0  0  1  0  0  0  0  0  0  0  0  0
   12.3644  -18.1000   24.0409 N   0  0  0  0  0  0  0  0  0  0  0  0
   11.1467  -18.1280   23.1592 C   0  0  0  0  0  0  0  0  0  0  0  0
   13.5161  -17.8055   23.2314 O   0  0  0  0  0  0  0  0  0  0  0  0
   14.6170  -17.3610   23.6200 O   0  0  0  0  0  0  0  0  0  0  0  0
  2  1  1  0
  2 12  2  0
  3  2  1  0
  4  3  2  0
  4  5  1  0
  5 11  2  0
  6  5  1  0
  7  6  1  0
  7  8  1  1
  9 21  1  0
  9  7  1  0
 10  9  2  0
 11 12  1  0
 14 13  1  0
 15 14  2  0
 16 14  1  0
 17 16  1  0
 18 17  1  0
 18 19  1  0
 20 19  1  6
 20 21  1  0
 22 20  1  0
 22 32  1  0
 23 22  2  0
 25 24  1  0
 26 25  2  0
 27 25  1  0
 28 27  1  0
 29 28  1  0
 30 29  1  0
 31 32  1  0
 31 30  1  1
 33 35  1  0
 33 31  1  0
 34 33  2  0
M  END
$$$$
