YRR.pdb
     RDKit          3D

 35 35  0  0  1  0  0  0  0  0999 V2000
    6.2893  -11.9629   16.7205 O   0  0  0  0  0  0  0  0  0  0  0  0
    6.8005  -12.7844   17.7172 C   0  0  0  0  0  0  0  0  0  0  0  0
    6.4398  -14.1165   17.7667 C   0  0  0  0  0  0  0  0  0  0  0  0
    6.9602  -14.9115   18.7645 C   0  0  0  0  0  0  0  0  0  0  0  0
    7.8134  -14.3748   19.6763 C   0  0  0  0  0  0  0  0  0  0  0  0
    8.3726  -15.2217   20.7475 C   0  0  0  0  0  0  0  0  0  0  0  0
    9.8976  -15.2156   20.5836 C   0  0  2  0  0  0  0  0  0  0  0  0
   10.2671  -15.1185   19.2069 N   0  0  0  0  0  0  0  0  0  0  0  0
   10.3978  -16.4275   21.2655 C   0  0  0  0  0  0  0  0  0  0  0  0
   10.0581  -16.6388   22.4366 O   0  0  0  0  0  0  0  0  0  0  0  0
    8.1815  -13.0525   19.6407 C   0  0  0  0  0  0  0  0  0  0  0  0
    7.6756  -12.2350   18.6529 C   0  0  0  0  0  0  0  0  0  0  0  0
    9.5241  -22.2159   19.0671 N   0  0  0  0  0  0  0  0  0  0  0  0
    9.7590  -21.8853   17.7168 C   0  0  0  0  0  0  0  0  0  0  0  0
    8.7955  -22.1708   16.8758 N   0  0  0  0  0  0  0  0  0  0  0  0
   10.9543  -21.2813   17.2638 N   0  0  0  0  0  0  0  0  0  0  0  0
   11.9126  -20.8520   18.2817 C   0  0  0  0  0  0  0  0  0  0  0  0
   11.2161  -19.9776   19.3216 C   0  0  0  0  0  0  0  0  0  0  0  0
   12.2637  -19.5622   20.3282 C   0  0  0  0  0  0  0  0  0  0  0  0
   11.7069  -18.5755   21.3347 C   0  0  2  0  0  0  0  0  0  0  0  0
   11.2655  -17.3894   20.6484 N   0  0  0  0  0  0  0  0  0  0  0  0
   12.8047  -18.2586   22.3156 C   0  0  0  0  0  0  0  0  0  0  0  0
   13.7156  -17.4454   22.0382 O   0  0  0  0  0  0  0  0  0  0  0  0
    8.8815  -21.9775   15.8563 N   0  0  0  0  0  0  0  0  0  0  0  0
    9.6037  -16.9694   30.1190 C   0  0  0  0  0  0  0  0  0  0  0  0
   10.8471  -16.2340   30.0435 N   0  0  0  0  0  0  0  0  0  0  0  0
   11.0298  -15.2048   30.7890 N   0  0  0  0  0  0  0  0  0  0  0  0
   11.8603  -16.6495   29.1472 C   0  0  0  0  0  0  0  0  0  0  0  0
   11.4666  -17.1738   27.8196 C   0  0  0  0  0  0  0  0  0  0  0  0
   12.6692  -17.3945   26.9754 C   0  0  0  0  0  0  0  0  0  0  0  0
   12.4549  -17.9550   25.6621 C   0  0  1  0  0  0  0  0  0  0  0  0
   13.5568  -18.1727   24.6975 N   0  0  0  0  0  0  0  0  0  0  0  0
   12.8368  -18.8721   23.5779 C   0  0  0  0  0  0  0  0  0  0  0  0
   14.6828  -18.9735   25.0962 O   0  0  0  0  0  0  0  0  0  0  0  0
   14.8807  -20.1790   24.8353 O   0  0  0  0  0  0  0  0  0  0  0  0
  2  1  1  0
  2 12  2  0
  3  2  1  0
  4  3  2  0
  4  5  1  0
  5 11  2  0
  6  5  1  0
  7  6  1  0
  7  8  1  6
  9 21  1  0
  9  7  1  0
 10  9  2  0
 11 12  1  0
 14 13  1  0
 15 14  2  0
 16 14  1  0
 17 16  1  0
 18 17  1  0
 18 19  1  0
 20 19  1  6
 20 21  1  0
 22 20  1  0
 22 32  1  0
 23 22  2  0
 25 24  1  0
 26 25  2  0
 27 25  1  0
 28 27  1  0
 29 28  1  0
 30 29  1  0
 31 32  1  0
 31 30  1  6
 33 35  1  0
 33 31  1  0
 34 33  2  0
M  END
$$$$
