YRR.pdb
     RDKit          3D

 35 35  0  0  1  0  0  0  0  0999 V2000
    5.4567  -10.1795   27.2775 O   0  0  0  0  0  0  0  0  0  0  0  0
    6.1136  -11.3323   26.8661 C   0  0  0  0  0  0  0  0  0  0  0  0
    7.0435  -11.2706   25.8469 C   0  0  0  0  0  0  0  0  0  0  0  0
    7.6822  -12.4273   25.4565 C   0  0  0  0  0  0  0  0  0  0  0  0
    7.3883  -13.6005   26.0767 C   0  0  0  0  0  0  0  0  0  0  0  0
    8.0689  -14.8423   25.6616 C   0  0  0  0  0  0  0  0  0  0  0  0
    7.1879  -15.5113   24.5991 C   0  0  2  0  0  0  0  0  0  0  0  0
    6.0500  -16.1378   25.1940 N   0  0  0  0  0  0  0  0  0  0  0  0
    8.0652  -16.4301   23.8443 C   0  0  0  0  0  0  0  0  0  0  0  0
    8.2543  -17.5722   24.2822 O   0  0  0  0  0  0  0  0  0  0  0  0
    6.4664  -13.6782   27.0912 C   0  0  0  0  0  0  0  0  0  0  0  0
    5.8129  -12.5360   27.5014 C   0  0  0  0  0  0  0  0  0  0  0  0
    8.0915  -13.2255   16.0909 N   0  0  0  0  0  0  0  0  0  0  0  0
    8.0316  -13.2651   17.4989 C   0  0  0  0  0  0  0  0  0  0  0  0
    8.0230  -12.1059   18.1099 N   0  0  0  0  0  0  0  0  0  0  0  0
    7.9839  -14.4690   18.2387 N   0  0  0  0  0  0  0  0  0  0  0  0
    9.1122  -14.7530   19.1248 C   0  0  0  0  0  0  0  0  0  0  0  0
    8.9136  -16.1027   19.8102 C   0  0  0  0  0  0  0  0  0  0  0  0
   10.1280  -16.3460   20.6759 C   0  0  0  0  0  0  0  0  0  0  0  0
    9.7421  -16.9071   22.0296 C   0  0  2  0  0  0  0  0  0  0  0  0
    8.7225  -16.0785   22.6183 N   0  0  0  0  0  0  0  0  0  0  0  0
   10.9828  -16.9299   22.8826 C   0  0  0  0  0  0  0  0  0  0  0  0
   11.3877  -15.9044   23.4764 O   0  0  0  0  0  0  0  0  0  0  0  0
    8.1412  -12.0282   19.1414 N   0  0  0  0  0  0  0  0  0  0  0  0
   14.0330  -20.8552   28.6190 C   0  0  0  0  0  0  0  0  0  0  0  0
   12.6260  -20.5217   28.5804 N   0  0  0  0  0  0  0  0  0  0  0  0
   11.7457  -21.4262   28.8158 N   0  0  0  0  0  0  0  0  0  0  0  0
   12.2214  -19.1988   28.2823 C   0  0  0  0  0  0  0  0  0  0  0  0
   12.6443  -18.5964   26.9975 C   0  0  0  0  0  0  0  0  0  0  0  0
   13.0386  -19.6579   26.0356 C   0  0  0  0  0  0  0  0  0  0  0  0
   12.7250  -19.4320   24.6444 C   0  0  2  0  0  0  0  0  0  0  0  0
   12.8841  -18.1113   23.9944 N   0  0  0  0  0  0  0  0  0  0  0  0
   11.7256  -18.1113   23.0357 C   0  0  0  0  0  0  0  0  0  0  0  0
   14.0912  -17.8365   23.2627 O   0  0  0  0  0  0  0  0  0  0  0  0
   15.0721  -17.1672   23.6507 O   0  0  0  0  0  0  0  0  0  0  0  0
  2  1  1  0
  2 12  2  0
  3  2  1  0
  4  3  2  0
  4  5  1  0
  5 11  2  0
  6  5  1  0
  7  6  1  0
  7  8  1  1
  9 21  1  0
  9  7  1  0
 10  9  2  0
 11 12  1  0
 14 13  1  0
 15 14  2  0
 16 14  1  0
 17 16  1  0
 18 17  1  0
 18 19  1  0
 20 19  1  6
 20 21  1  0
 22 20  1  0
 22 32  1  0
 23 22  2  0
 25 24  1  0
 26 25  2  0
 27 25  1  0
 28 27  1  0
 29 28  1  0
 30 29  1  0
 31 32  1  0
 31 30  1  1
 33 35  1  0
 33 31  1  0
 34 33  2  0
M  END
$$$$
