YRR.pdb
     RDKit          3D

 35 35  0  0  1  0  0  0  0  0999 V2000
    7.2095  -11.6285   16.0691 O   0  0  0  0  0  0  0  0  0  0  0  0
    7.3767  -12.4257   17.1945 C   0  0  0  0  0  0  0  0  0  0  0  0
    8.5383  -13.1544   17.3579 C   0  0  0  0  0  0  0  0  0  0  0  0
    8.6813  -13.9375   18.4825 C   0  0  0  0  0  0  0  0  0  0  0  0
    7.6838  -13.9790   19.4048 C   0  0  0  0  0  0  0  0  0  0  0  0
    7.8316  -14.8170   20.6104 C   0  0  0  0  0  0  0  0  0  0  0  0
    7.4537  -16.2507   20.2178 C   0  0  2  0  0  0  0  0  0  0  0  0
    6.0682  -16.3443   19.8817 N   0  0  0  0  0  0  0  0  0  0  0  0
    7.8689  -17.1168   21.3408 C   0  0  0  0  0  0  0  0  0  0  0  0
    7.3687  -16.9301   22.4574 O   0  0  0  0  0  0  0  0  0  0  0  0
    6.5232  -13.2606   19.2567 C   0  0  0  0  0  0  0  0  0  0  0  0
    6.3544  -12.4690   18.1410 C   0  0  0  0  0  0  0  0  0  0  0  0
   10.0216  -24.9348   19.5205 N   0  0  0  0  0  0  0  0  0  0  0  0
    8.7423  -24.3930   19.2804 C   0  0  0  0  0  0  0  0  0  0  0  0
    7.9279  -25.1289   18.5648 N   0  0  0  0  0  0  0  0  0  0  0  0
    8.3314  -23.1311   19.7682 N   0  0  0  0  0  0  0  0  0  0  0  0
    9.2867  -22.3904   20.5913 C   0  0  0  0  0  0  0  0  0  0  0  0
    8.6518  -21.0967   21.0952 C   0  0  0  0  0  0  0  0  0  0  0  0
    9.7261  -20.3301   21.8311 C   0  0  0  0  0  0  0  0  0  0  0  0
    9.2104  -18.9981   22.3375 C   0  0  2  0  0  0  0  0  0  0  0  0
    8.8292  -18.1759   21.2188 N   0  0  0  0  0  0  0  0  0  0  0  0
   10.3161  -18.3551   23.1322 C   0  0  0  0  0  0  0  0  0  0  0  0
   11.1005  -17.5288   22.6124 O   0  0  0  0  0  0  0  0  0  0  0  0
    6.9887  -24.7853   18.2749 N   0  0  0  0  0  0  0  0  0  0  0  0
    9.8598  -15.8309   31.2520 C   0  0  0  0  0  0  0  0  0  0  0  0
   10.1597  -14.6922   30.4119 N   0  0  0  0  0  0  0  0  0  0  0  0
    9.8821  -13.5058   30.8164 N   0  0  0  0  0  0  0  0  0  0  0  0
   10.7579  -14.8876   29.1443 C   0  0  0  0  0  0  0  0  0  0  0  0
   10.2670  -15.9901   28.2866 C   0  0  0  0  0  0  0  0  0  0  0  0
   10.8891  -15.9112   26.9396 C   0  0  0  0  0  0  0  0  0  0  0  0
   10.4750  -16.8950   25.9671 C   0  0  1  0  0  0  0  0  0  0  0  0
   11.4290  -17.8119   25.3031 N   0  0  0  0  0  0  0  0  0  0  0  0
   10.4992  -18.6680   24.4884 C   0  0  0  0  0  0  0  0  0  0  0  0
   12.2535  -18.6659   26.1150 O   0  0  0  0  0  0  0  0  0  0  0  0
   13.2237  -18.3246   26.8241 O   0  0  0  0  0  0  0  0  0  0  0  0
  2  1  1  0
  2 12  2  0
  3  2  1  0
  4  3  2  0
  4  5  1  0
  5 11  2  0
  6  5  1  0
  7  6  1  0
  7  8  1  1
  9 21  1  0
  9  7  1  0
 10  9  2  0
 11 12  1  0
 14 13  1  0
 15 14  2  0
 16 14  1  0
 17 16  1  0
 18 17  1  0
 18 19  1  0
 20 19  1  6
 20 21  1  0
 22 20  1  0
 22 32  1  0
 23 22  2  0
 25 24  1  0
 26 25  2  0
 27 25  1  0
 28 27  1  0
 29 28  1  0
 30 29  1  0
 31 32  1  0
 31 30  1  6
 33 35  1  0
 33 31  1  0
 34 33  2  0
M  END
$$$$
