YRR.pdb
     RDKit          3D

 35 35  0  0  1  0  0  0  0  0999 V2000
    5.8081  -11.7062   28.7850 O   0  0  0  0  0  0  0  0  0  0  0  0
    6.1718  -12.3495   27.6087 C   0  0  0  0  0  0  0  0  0  0  0  0
    5.2051  -12.9331   26.8136 C   0  0  0  0  0  0  0  0  0  0  0  0
    5.5902  -13.5652   25.6514 C   0  0  0  0  0  0  0  0  0  0  0  0
    6.9053  -13.6029   25.3100 C   0  0  0  0  0  0  0  0  0  0  0  0
    7.3231  -14.2795   24.0669 C   0  0  0  0  0  0  0  0  0  0  0  0
    6.7243  -15.6913   24.0933 C   0  0  2  0  0  0  0  0  0  0  0  0
    6.4226  -16.0977   25.4294 N   0  0  0  0  0  0  0  0  0  0  0  0
    7.6849  -16.5678   23.3913 C   0  0  0  0  0  0  0  0  0  0  0  0
    7.3140  -17.6904   23.0253 O   0  0  0  0  0  0  0  0  0  0  0  0
    7.8781  -13.0276   26.0897 C   0  0  0  0  0  0  0  0  0  0  0  0
    7.5202  -12.3889   27.2575 C   0  0  0  0  0  0  0  0  0  0  0  0
    6.7173  -14.6658   16.6783 N   0  0  0  0  0  0  0  0  0  0  0  0
    8.0117  -14.1085   16.6359 C   0  0  0  0  0  0  0  0  0  0  0  0
    8.7053  -14.3400   15.5485 N   0  0  0  0  0  0  0  0  0  0  0  0
    8.5594  -13.3407   17.6892 N   0  0  0  0  0  0  0  0  0  0  0  0
    8.1415  -13.6792   19.0491 C   0  0  0  0  0  0  0  0  0  0  0  0
    9.1213  -14.6744   19.6661 C   0  0  0  0  0  0  0  0  0  0  0  0
    8.6588  -14.9366   21.0806 C   0  0  0  0  0  0  0  0  0  0  0  0
    9.5097  -15.9928   21.7567 C   0  0  2  0  0  0  0  0  0  0  0  0
    9.0403  -16.1961   23.1025 N   0  0  0  0  0  0  0  0  0  0  0  0
   10.9340  -15.5040   21.7463 C   0  0  0  0  0  0  0  0  0  0  0  0
   11.5275  -15.2401   20.6757 O   0  0  0  0  0  0  0  0  0  0  0  0
    9.6958  -14.0333   15.4535 N   0  0  0  0  0  0  0  0  0  0  0  0
    9.2995  -20.5753   26.8369 C   0  0  0  0  0  0  0  0  0  0  0  0
    8.6129  -19.5354   26.1025 N   0  0  0  0  0  0  0  0  0  0  0  0
    7.3325  -19.5536   26.0103 N   0  0  0  0  0  0  0  0  0  0  0  0
    9.3537  -18.4993   25.4856 C   0  0  0  0  0  0  0  0  0  0  0  0
   10.6908  -18.1608   26.0242 C   0  0  0  0  0  0  0  0  0  0  0  0
   11.2745  -17.0188   25.2743 C   0  0  0  0  0  0  0  0  0  0  0  0
   11.9809  -17.3280   24.0535 C   0  0  2  0  0  0  0  0  0  0  0  0
   12.7313  -16.3088   23.2853 N   0  0  0  0  0  0  0  0  0  0  0  0
   11.6407  -15.3304   22.9468 C   0  0  0  0  0  0  0  0  0  0  0  0
   13.3951  -16.7013   22.0714 O   0  0  0  0  0  0  0  0  0  0  0  0
   14.4198  -16.1894   21.5731 O   0  0  0  0  0  0  0  0  0  0  0  0
  2  1  1  0
  2 12  2  0
  3  2  1  0
  4  3  2  0
  4  5  1  0
  5 11  2  0
  6  5  1  0
  7  6  1  0
  7  8  1  1
  9 21  1  0
  9  7  1  0
 10  9  2  0
 11 12  1  0
 14 13  1  0
 15 14  2  0
 16 14  1  0
 17 16  1  0
 18 17  1  0
 18 19  1  0
 20 19  1  1
 20 21  1  0
 22 20  1  0
 22 32  1  0
 23 22  2  0
 25 24  1  0
 26 25  2  0
 27 25  1  0
 28 27  1  0
 29 28  1  0
 30 29  1  0
 31 32  1  0
 31 30  1  1
 33 35  1  0
 33 31  1  0
 34 33  2  0
M  END
$$$$
