YRR.pdb
     RDKit          3D

 35 35  0  0  1  0  0  0  0  0999 V2000
    5.1224  -12.0826   16.6368 O   0  0  0  0  0  0  0  0  0  0  0  0
    5.9913  -12.7596   17.4832 C   0  0  0  0  0  0  0  0  0  0  0  0
    7.3221  -12.8969   17.1404 C   0  0  0  0  0  0  0  0  0  0  0  0
    8.1646  -13.5723   17.9962 C   0  0  0  0  0  0  0  0  0  0  0  0
    7.6751  -14.0879   19.1546 C   0  0  0  0  0  0  0  0  0  0  0  0
    8.5731  -14.8129   20.0740 C   0  0  0  0  0  0  0  0  0  0  0  0
    8.9924  -16.1106   19.3723 C   0  0  2  0  0  0  0  0  0  0  0  0
    7.8741  -16.9803   19.1870 N   0  0  0  0  0  0  0  0  0  0  0  0
   10.0878  -16.6887   20.1784 C   0  0  0  0  0  0  0  0  0  0  0  0
    9.8170  -17.5459   21.0291 O   0  0  0  0  0  0  0  0  0  0  0  0
    6.3549  -13.9599   19.5094 C   0  0  0  0  0  0  0  0  0  0  0  0
    5.4904  -13.2889   18.6715 C   0  0  0  0  0  0  0  0  0  0  0  0
   17.9645  -15.5207   17.9531 N   0  0  0  0  0  0  0  0  0  0  0  0
   17.0713  -15.1800   18.9894 C   0  0  0  0  0  0  0  0  0  0  0  0
   16.4531  -14.0313   18.8653 N   0  0  0  0  0  0  0  0  0  0  0  0
   16.8348  -16.0071   20.1114 N   0  0  0  0  0  0  0  0  0  0  0  0
   16.2131  -17.3073   19.8629 C   0  0  0  0  0  0  0  0  0  0  0  0
   14.9729  -17.4712   20.7382 C   0  0  0  0  0  0  0  0  0  0  0  0
   13.8353  -16.7673   20.0355 C   0  0  0  0  0  0  0  0  0  0  0  0
   12.5194  -16.9820   20.7558 C   0  0  2  0  0  0  0  0  0  0  0  0
   11.4657  -16.3146   20.0368 N   0  0  0  0  0  0  0  0  0  0  0  0
   12.6662  -16.4235   22.1466 C   0  0  0  0  0  0  0  0  0  0  0  0
   13.1542  -15.2879   22.3476 O   0  0  0  0  0  0  0  0  0  0  0  0
   15.7282  -13.7217   19.5456 N   0  0  0  0  0  0  0  0  0  0  0  0
    8.1894  -13.3137   24.6605 C   0  0  0  0  0  0  0  0  0  0  0  0
    7.5573  -14.1745   25.6360 N   0  0  0  0  0  0  0  0  0  0  0  0
    6.3103  -14.0310   25.9056 N   0  0  0  0  0  0  0  0  0  0  0  0
    8.3146  -15.1733   26.2929 C   0  0  0  0  0  0  0  0  0  0  0  0
    8.7317  -16.3704   25.5278 C   0  0  0  0  0  0  0  0  0  0  0  0
    9.9979  -16.1006   24.7987 C   0  0  0  0  0  0  0  0  0  0  0  0
   11.1834  -16.7764   25.2707 C   0  0  2  0  0  0  0  0  0  0  0  0
   12.5088  -16.6014   24.6345 N   0  0  0  0  0  0  0  0  0  0  0  0
   12.2570  -17.1676   23.2644 C   0  0  0  0  0  0  0  0  0  0  0  0
   13.6490  -17.2643   25.2077 O   0  0  0  0  0  0  0  0  0  0  0  0
   14.4755  -16.7832   26.0115 O   0  0  0  0  0  0  0  0  0  0  0  0
  2  1  1  0
  2 12  2  0
  3  2  1  0
  4  3  2  0
  4  5  1  0
  5 11  2  0
  6  5  1  0
  7  6  1  0
  7  8  1  1
  9 21  1  0
  9  7  1  0
 10  9  2  0
 11 12  1  0
 14 13  1  0
 15 14  2  0
 16 14  1  0
 17 16  1  0
 18 17  1  0
 18 19  1  0
 20 19  1  6
 20 21  1  0
 22 20  1  0
 22 32  1  0
 23 22  2  0
 25 24  1  0
 26 25  2  0
 27 25  1  0
 28 27  1  0
 29 28  1  0
 30 29  1  0
 31 32  1  0
 31 30  1  6
 33 35  1  0
 33 31  1  0
 34 33  2  0
M  END
$$$$
