YRR.pdb
     RDKit          3D

 35 35  0  0  1  0  0  0  0  0999 V2000
    4.9541  -10.0126   27.1743 O   0  0  0  0  0  0  0  0  0  0  0  0
    5.7649  -11.0502   26.7317 C   0  0  0  0  0  0  0  0  0  0  0  0
    5.9681  -11.2386   25.3788 C   0  0  0  0  0  0  0  0  0  0  0  0
    6.7766  -12.2744   24.9641 C   0  0  0  0  0  0  0  0  0  0  0  0
    7.3560  -13.0868   25.8870 C   0  0  0  0  0  0  0  0  0  0  0  0
    8.2220  -14.1981   25.4480 C   0  0  0  0  0  0  0  0  0  0  0  0
    7.3166  -15.2515   24.7976 C   0  0  2  0  0  0  0  0  0  0  0  0
    6.4113  -15.8115   25.7506 N   0  0  0  0  0  0  0  0  0  0  0  0
    8.2123  -16.2359   24.1554 C   0  0  0  0  0  0  0  0  0  0  0  0
    8.3865  -17.3326   24.7018 O   0  0  0  0  0  0  0  0  0  0  0  0
    7.1637  -12.9125   27.2353 C   0  0  0  0  0  0  0  0  0  0  0  0
    6.3595  -11.8840   27.6773 C   0  0  0  0  0  0  0  0  0  0  0  0
    8.3799  -13.1687   19.4004 N   0  0  0  0  0  0  0  0  0  0  0  0
    8.0285  -13.9596   18.2874 C   0  0  0  0  0  0  0  0  0  0  0  0
    7.0509  -13.5063   17.5418 N   0  0  0  0  0  0  0  0  0  0  0  0
    8.6729  -15.1767   17.9675 N   0  0  0  0  0  0  0  0  0  0  0  0
    9.7621  -15.6057   18.8441 C   0  0  0  0  0  0  0  0  0  0  0  0
    9.2215  -15.9179   20.2374 C   0  0  0  0  0  0  0  0  0  0  0  0
   10.3815  -16.4255   21.0621 C   0  0  0  0  0  0  0  0  0  0  0  0
    9.9294  -16.8843   22.4339 C   0  0  2  0  0  0  0  0  0  0  0  0
    8.9039  -15.9988   22.9208 N   0  0  0  0  0  0  0  0  0  0  0  0
   11.1337  -16.8696   23.3378 C   0  0  0  0  0  0  0  0  0  0  0  0
   11.7712  -15.8152   23.5615 O   0  0  0  0  0  0  0  0  0  0  0  0
    6.7468  -13.9989   16.6764 N   0  0  0  0  0  0  0  0  0  0  0  0
   11.9567  -22.3904   29.9967 C   0  0  0  0  0  0  0  0  0  0  0  0
   12.5058  -21.1232   30.4267 N   0  0  0  0  0  0  0  0  0  0  0  0
   12.6163  -20.8639   31.6792 N   0  0  0  0  0  0  0  0  0  0  0  0
   12.9200  -20.1703   29.4659 C   0  0  0  0  0  0  0  0  0  0  0  0
   12.0538  -19.9191   28.2915 C   0  0  0  0  0  0  0  0  0  0  0  0
   12.6983  -18.9433   27.3751 C   0  0  0  0  0  0  0  0  0  0  0  0
   11.9953  -18.6266   26.1543 C   0  0  1  0  0  0  0  0  0  0  0  0
   12.6457  -17.9446   25.0124 N   0  0  0  0  0  0  0  0  0  0  0  0
   11.5782  -18.0477   23.9584 C   0  0  0  0  0  0  0  0  0  0  0  0
   13.8706  -18.4835   24.4858 O   0  0  0  0  0  0  0  0  0  0  0  0
   15.0312  -18.2426   24.8801 O   0  0  0  0  0  0  0  0  0  0  0  0
  2  1  1  0
  2 12  2  0
  3  2  1  0
  4  3  2  0
  4  5  1  0
  5 11  2  0
  6  5  1  0
  7  6  1  0
  7  8  1  1
  9 21  1  0
  9  7  1  0
 10  9  2  0
 11 12  1  0
 14 13  1  0
 15 14  2  0
 16 14  1  0
 17 16  1  0
 18 17  1  0
 18 19  1  0
 20 19  1  6
 20 21  1  0
 22 20  1  0
 22 32  1  0
 23 22  2  0
 25 24  1  0
 26 25  2  0
 27 25  1  0
 28 27  1  0
 29 28  1  0
 30 29  1  0
 31 32  1  0
 31 30  1  1
 33 35  1  0
 33 31  1  0
 34 33  2  0
M  END
$$$$
