YRR.pdb
     RDKit          3D

 35 35  0  0  1  0  0  0  0  0999 V2000
    5.6479  -10.0346   27.3641 O   0  0  0  0  0  0  0  0  0  0  0  0
    6.1784  -11.2605   26.9826 C   0  0  0  0  0  0  0  0  0  0  0  0
    7.0650  -11.3304   25.9261 C   0  0  0  0  0  0  0  0  0  0  0  0
    7.5780  -12.5575   25.5664 C   0  0  0  0  0  0  0  0  0  0  0  0
    7.2053  -13.6700   26.2527 C   0  0  0  0  0  0  0  0  0  0  0  0
    7.7510  -14.9867   25.8708 C   0  0  0  0  0  0  0  0  0  0  0  0
    6.9063  -15.5082   24.7016 C   0  0  2  0  0  0  0  0  0  0  0  0
    5.9346  -16.4547   25.1504 N   0  0  0  0  0  0  0  0  0  0  0  0
    7.8561  -16.0370   23.7006 C   0  0  0  0  0  0  0  0  0  0  0  0
    8.1924  -17.2264   23.7642 O   0  0  0  0  0  0  0  0  0  0  0  0
    6.3249  -13.6170   27.3050 C   0  0  0  0  0  0  0  0  0  0  0  0
    5.7968  -12.4020   27.6857 C   0  0  0  0  0  0  0  0  0  0  0  0
    9.3981  -13.6170   16.9974 N   0  0  0  0  0  0  0  0  0  0  0  0
    8.0133  -13.8737   17.0621 C   0  0  0  0  0  0  0  0  0  0  0  0
    7.4058  -14.0601   15.9161 N   0  0  0  0  0  0  0  0  0  0  0  0
    7.2921  -13.9319   18.2768 N   0  0  0  0  0  0  0  0  0  0  0  0
    8.0585  -13.7965   19.5150 C   0  0  0  0  0  0  0  0  0  0  0  0
    9.1746  -14.8374   19.5571 C   0  0  0  0  0  0  0  0  0  0  0  0
    9.9216  -14.6376   20.8553 C   0  0  0  0  0  0  0  0  0  0  0  0
    9.5552  -15.6961   21.8760 C   0  0  2  0  0  0  0  0  0  0  0  0
    8.4225  -15.2488   22.6439 N   0  0  0  0  0  0  0  0  0  0  0  0
   10.7569  -15.9134   22.7570 C   0  0  0  0  0  0  0  0  0  0  0  0
   11.0998  -15.0692   23.6161 O   0  0  0  0  0  0  0  0  0  0  0  0
    6.3933  -14.2973   15.8637 N   0  0  0  0  0  0  0  0  0  0  0  0
   12.9327  -20.6268   29.6178 C   0  0  0  0  0  0  0  0  0  0  0  0
   12.3542  -20.1667   28.3745 N   0  0  0  0  0  0  0  0  0  0  0  0
   11.3337  -20.7687   27.8803 N   0  0  0  0  0  0  0  0  0  0  0  0
   12.9146  -19.0536   27.7038 C   0  0  0  0  0  0  0  0  0  0  0  0
   12.2793  -18.5813   26.4525 C   0  0  0  0  0  0  0  0  0  0  0  0
   13.0212  -19.0948   25.2721 C   0  0  0  0  0  0  0  0  0  0  0  0
   12.5843  -18.6391   23.9735 C   0  0  2  0  0  0  0  0  0  0  0  0
   12.7329  -17.2349   23.5286 N   0  0  0  0  0  0  0  0  0  0  0  0
   11.5321  -17.0776   22.6373 C   0  0  0  0  0  0  0  0  0  0  0  0
   13.9094  -16.8590   22.7919 O   0  0  0  0  0  0  0  0  0  0  0  0
   14.0774  -16.9232   21.5557 O   0  0  0  0  0  0  0  0  0  0  0  0
  2  1  1  0
  2 12  2  0
  3  2  1  0
  4  3  2  0
  4  5  1  0
  5 11  2  0
  6  5  1  0
  7  6  1  0
  7  8  1  1
  9 21  1  0
  9  7  1  0
 10  9  2  0
 11 12  1  0
 14 13  1  0
 15 14  2  0
 16 14  1  0
 17 16  1  0
 18 17  1  0
 18 19  1  0
 20 19  1  6
 20 21  1  0
 22 20  1  0
 22 32  1  0
 23 22  2  0
 25 24  1  0
 26 25  2  0
 27 25  1  0
 28 27  1  0
 29 28  1  0
 30 29  1  0
 31 32  1  0
 31 30  1  1
 33 35  1  0
 33 31  1  0
 34 33  2  0
M  END
$$$$
