YRR.pdb
     RDKit          3D

 35 35  0  0  1  0  0  0  0  0999 V2000
    8.9387  -13.9092   13.5251 O   0  0  0  0  0  0  0  0  0  0  0  0
    8.4905  -14.4650   14.7167 C   0  0  0  0  0  0  0  0  0  0  0  0
    7.9522  -15.7367   14.7259 C   0  0  0  0  0  0  0  0  0  0  0  0
    7.5147  -16.2667   15.9201 C   0  0  0  0  0  0  0  0  0  0  0  0
    7.6196  -15.5340   17.0601 C   0  0  0  0  0  0  0  0  0  0  0  0
    7.1515  -16.0967   18.3415 C   0  0  0  0  0  0  0  0  0  0  0  0
    8.3684  -16.7193   19.0372 C   0  0  2  0  0  0  0  0  0  0  0  0
    8.9334  -17.7667   18.2466 N   0  0  0  0  0  0  0  0  0  0  0  0
    7.9137  -17.1441   20.3776 C   0  0  0  0  0  0  0  0  0  0  0  0
    7.3422  -16.3215   21.1045 O   0  0  0  0  0  0  0  0  0  0  0  0
    8.1521  -14.2685   17.0673 C   0  0  0  0  0  0  0  0  0  0  0  0
    8.5975  -13.7144   15.8864 C   0  0  0  0  0  0  0  0  0  0  0  0
    9.7205  -21.3495   26.0918 N   0  0  0  0  0  0  0  0  0  0  0  0
    8.6435  -22.2227   26.3470 C   0  0  0  0  0  0  0  0  0  0  0  0
    8.4926  -22.6063   27.5909 N   0  0  0  0  0  0  0  0  0  0  0  0
    7.7599  -22.6776   25.3414 N   0  0  0  0  0  0  0  0  0  0  0  0
    8.0029  -22.2089   23.9775 C   0  0  0  0  0  0  0  0  0  0  0  0
    7.7049  -20.7149   23.8758 C   0  0  0  0  0  0  0  0  0  0  0  0
    7.8810  -20.3229   22.4272 C   0  0  0  0  0  0  0  0  0  0  0  0
    7.6691  -18.8362   22.2240 C   0  0  2  0  0  0  0  0  0  0  0  0
    8.0951  -18.4686   20.8989 N   0  0  0  0  0  0  0  0  0  0  0  0
    8.4737  -18.1149   23.2728 C   0  0  0  0  0  0  0  0  0  0  0  0
    9.7250  -18.1620   23.2849 O   0  0  0  0  0  0  0  0  0  0  0  0
    7.6823  -23.1867   27.8919 N   0  0  0  0  0  0  0  0  0  0  0  0
    9.5496  -13.0902   21.5042 C   0  0  0  0  0  0  0  0  0  0  0  0
    8.1638  -12.6809   21.4378 N   0  0  0  0  0  0  0  0  0  0  0  0
    7.7001  -12.1590   20.3604 N   0  0  0  0  0  0  0  0  0  0  0  0
    7.3210  -12.8557   22.5611 C   0  0  0  0  0  0  0  0  0  0  0  0
    7.9385  -13.0285   23.8957 C   0  0  0  0  0  0  0  0  0  0  0  0
    8.5919  -14.3594   23.9928 C   0  0  0  0  0  0  0  0  0  0  0  0
    8.1662  -15.2222   25.0695 C   0  0  2  0  0  0  0  0  0  0  0  0
    8.6891  -16.5960   25.2459 N   0  0  0  0  0  0  0  0  0  0  0  0
    7.8371  -17.3646   24.2741 C   0  0  0  0  0  0  0  0  0  0  0  0
    8.5920  -17.2170   26.5394 O   0  0  0  0  0  0  0  0  0  0  0  0
    7.7140  -18.0161   26.9280 O   0  0  0  0  0  0  0  0  0  0  0  0
  2  1  1  0
  2 12  2  0
  3  2  1  0
  4  3  2  0
  4  5  1  0
  5 11  2  0
  6  5  1  0
  7  6  1  0
  7  8  1  6
  9 21  1  0
  9  7  1  0
 10  9  2  0
 11 12  1  0
 14 13  1  0
 15 14  2  0
 16 14  1  0
 17 16  1  0
 18 17  1  0
 18 19  1  0
 20 19  1  1
 20 21  1  0
 22 20  1  0
 22 32  1  0
 23 22  2  0
 25 24  1  0
 26 25  2  0
 27 25  1  0
 28 27  1  0
 29 28  1  0
 30 29  1  0
 31 32  1  0
 31 30  1  6
 33 35  1  0
 33 31  1  0
 34 33  2  0
M  END
$$$$
