YRR.pdb
     RDKit          3D

 35 35  0  0  1  0  0  0  0  0999 V2000
    5.5578  -10.0590   26.9293 O   0  0  0  0  0  0  0  0  0  0  0  0
    6.0909  -11.3345   26.7927 C   0  0  0  0  0  0  0  0  0  0  0  0
    5.6539  -12.3568   27.6120 C   0  0  0  0  0  0  0  0  0  0  0  0
    6.1974  -13.6134   27.4574 C   0  0  0  0  0  0  0  0  0  0  0  0
    7.1472  -13.8237   26.5082 C   0  0  0  0  0  0  0  0  0  0  0  0
    7.7331  -15.1675   26.3394 C   0  0  0  0  0  0  0  0  0  0  0  0
    6.7473  -15.9924   25.5026 C   0  0  2  0  0  0  0  0  0  0  0  0
    6.0384  -16.9283   26.3168 N   0  0  0  0  0  0  0  0  0  0  0  0
    7.5332  -16.6054   24.4116 C   0  0  0  0  0  0  0  0  0  0  0  0
    8.2461  -17.5850   24.6646 O   0  0  0  0  0  0  0  0  0  0  0  0
    7.5921  -12.8179   25.6862 C   0  0  0  0  0  0  0  0  0  0  0  0
    7.0651  -11.5513   25.8196 C   0  0  0  0  0  0  0  0  0  0  0  0
    7.1356  -13.4444   18.5830 N   0  0  0  0  0  0  0  0  0  0  0  0
    8.4725  -13.4561   18.1355 C   0  0  0  0  0  0  0  0  0  0  0  0
    8.9865  -12.2930   17.8192 N   0  0  0  0  0  0  0  0  0  0  0  0
    9.2412  -14.6374   18.0222 N   0  0  0  0  0  0  0  0  0  0  0  0
    8.5714  -15.9012   18.3271 C   0  0  0  0  0  0  0  0  0  0  0  0
    9.0830  -16.4589   19.6531 C   0  0  0  0  0  0  0  0  0  0  0  0
    8.1520  -15.9618   20.7345 C   0  0  0  0  0  0  0  0  0  0  0  0
    8.4546  -16.6111   22.0700 C   0  0  2  0  0  0  0  0  0  0  0  0
    7.5235  -16.1309   23.0575 N   0  0  0  0  0  0  0  0  0  0  0  0
    9.8701  -16.2534   22.4389 C   0  0  0  0  0  0  0  0  0  0  0  0
   10.1639  -15.1207   22.8848 O   0  0  0  0  0  0  0  0  0  0  0  0
    9.9275  -12.2094   17.3815 N   0  0  0  0  0  0  0  0  0  0  0  0
   11.1903  -14.3278   27.7401 C   0  0  0  0  0  0  0  0  0  0  0  0
   11.0658  -15.6309   28.3555 N   0  0  0  0  0  0  0  0  0  0  0  0
   11.2440  -15.7627   29.6200 N   0  0  0  0  0  0  0  0  0  0  0  0
   10.7486  -16.7592   27.5624 C   0  0  0  0  0  0  0  0  0  0  0  0
   11.8346  -17.4336   26.8153 C   0  0  0  0  0  0  0  0  0  0  0  0
   12.0960  -16.7259   25.5353 C   0  0  0  0  0  0  0  0  0  0  0  0
   11.9628  -17.4956   24.3210 C   0  0  2  0  0  0  0  0  0  0  0  0
   12.2168  -16.9217   22.9801 N   0  0  0  0  0  0  0  0  0  0  0  0
   10.9071  -17.1879   22.2908 C   0  0  0  0  0  0  0  0  0  0  0  0
   13.2807  -17.4659   22.1800 O   0  0  0  0  0  0  0  0  0  0  0  0
   13.2475  -18.5053   21.4878 O   0  0  0  0  0  0  0  0  0  0  0  0
  2  1  1  0
  2 12  2  0
  3  2  1  0
  4  3  2  0
  4  5  1  0
  5 11  2  0
  6  5  1  0
  7  6  1  0
  7  8  1  1
  9 21  1  0
  9  7  1  0
 10  9  2  0
 11 12  1  0
 14 13  1  0
 15 14  2  0
 16 14  1  0
 17 16  1  0
 18 17  1  0
 18 19  1  0
 20 19  1  6
 20 21  1  0
 22 20  1  0
 22 32  1  0
 23 22  2  0
 25 24  1  0
 26 25  2  0
 27 25  1  0
 28 27  1  0
 29 28  1  0
 30 29  1  0
 31 32  1  0
 31 30  1  1
 33 35  1  0
 33 31  1  0
 34 33  2  0
M  END
$$$$
