IDA.pdb
     RDKit          3D

 22 21  0  0  1  0  0  0  0  0999 V2000
   23.8463  -13.8272  -15.3517 C   0  0  0  0  0  0  0  0  0  0  0  0
   25.1011  -14.2449  -16.0964 C   0  0  0  0  0  0  0  0  0  0  0  0
   25.1691  -15.7252  -16.2837 C   0  0  2  0  0  0  0  0  0  0  0  0
   23.9097  -16.1844  -16.9907 C   0  0  0  0  0  0  0  0  0  0  0  0
   25.3912  -16.4894  -14.9986 C   0  0  2  0  0  0  0  0  0  0  0  0
   26.6616  -16.0084  -14.4357 N   0  0  0  0  0  0  0  0  0  0  0  0
   25.4158  -17.9436  -15.2010 C   0  0  0  0  0  0  0  0  0  0  0  0
   24.4139  -18.5788  -15.5804 O   0  0  0  0  0  0  0  0  0  0  0  0
   26.6253  -18.6394  -14.9538 N   0  0  0  0  0  0  0  0  0  0  0  0
   26.6478  -20.1112  -15.1126 C   0  0  1  0  0  0  0  0  0  0  0  0
   27.9219  -20.4763  -15.8381 C   0  0  0  0  0  0  0  0  0  0  0  0
   28.1233  -21.8965  -16.0921 C   0  0  0  0  0  0  0  0  0  0  0  0
   28.8821  -22.5728  -15.3670 O   0  0  0  0  0  0  0  0  0  0  0  0
   26.5785  -20.7671  -13.8097 C   0  0  0  0  0  0  0  0  0  0  0  0
   26.4925  -22.0501  -13.8059 O   0  0  0  0  0  0  0  0  0  0  0  0
   27.4739  -22.5474  -17.1556 O   0  0  0  0  0  0  0  0  0  0  0  0
   27.1682  -20.2639  -10.1558 C   0  0  0  0  0  0  0  0  0  0  0  0
   26.4773  -20.9747  -11.3109 C   0  0  2  0  0  0  0  0  0  0  0  0
   26.5994  -20.1800  -12.5313 N   0  0  0  0  0  0  0  0  0  0  0  0
   25.0699  -21.2380  -11.0168 C   0  0  0  0  0  0  0  0  0  0  0  0
   24.1822  -20.6772  -11.7093 O   0  0  0  0  0  0  0  0  0  0  0  0
   24.6796  -22.0802  -10.0086 O   0  0  0  0  0  0  0  0  0  0  0  0
  1  2  1  0
  3  4  1  1
  3  5  1  0
  3  2  1  0
  5  7  1  0
  5  6  1  6
  7  9  1  0
  7  8  2  0
  9 10  1  0
 10 14  1  0
 10 11  1  1
 12 16  1  0
 12 11  1  0
 13 12  2  0
 14 15  2  0
 18 17  1  1
 19 18  1  0
 19 14  1  0
 20 22  1  0
 20 18  1  0
 21 20  2  0
M  END
$$$$
