IDA.pdb
     RDKit          3D

 22 21  0  0  1  0  0  0  0  0999 V2000
   16.3449  -11.1882  -20.4543 C   0  0  0  0  0  0  0  0  0  0  0  0
   17.5154  -11.3361  -19.4996 C   0  0  0  0  0  0  0  0  0  0  0  0
   17.6574  -10.1474  -18.6064 C   0  0  2  0  0  0  0  0  0  0  0  0
   17.8340   -8.9116  -19.4657 C   0  0  0  0  0  0  0  0  0  0  0  0
   18.7715  -10.2798  -17.5934 C   0  0  2  0  0  0  0  0  0  0  0  0
   18.4937  -11.4973  -16.8172 N   0  0  0  0  0  0  0  0  0  0  0  0
   18.8848   -9.1057  -16.7188 C   0  0  0  0  0  0  0  0  0  0  0  0
   18.0212   -8.8266  -15.8657 O   0  0  0  0  0  0  0  0  0  0  0  0
   20.0188   -8.2674  -16.8574 N   0  0  0  0  0  0  0  0  0  0  0  0
   20.2037   -7.1523  -15.9012 C   0  0  1  0  0  0  0  0  0  0  0  0
   21.6036   -7.2536  -15.3414 C   0  0  0  0  0  0  0  0  0  0  0  0
   21.8362   -8.3466  -14.4070 C   0  0  0  0  0  0  0  0  0  0  0  0
   21.2419   -8.3850  -13.3095 O   0  0  0  0  0  0  0  0  0  0  0  0
   19.9952   -5.8689  -16.5660 C   0  0  0  0  0  0  0  0  0  0  0  0
   20.3458   -5.7872  -17.8005 O   0  0  0  0  0  0  0  0  0  0  0  0
   22.7322   -9.3871  -14.7087 O   0  0  0  0  0  0  0  0  0  0  0  0
   18.2860   -3.7758  -17.9836 C   0  0  0  0  0  0  0  0  0  0  0  0
   19.2580   -3.4868  -16.8485 C   0  0  2  0  0  0  0  0  0  0  0  0
   19.4475   -4.6865  -16.0355 N   0  0  0  0  0  0  0  0  0  0  0  0
   18.7983   -2.3778  -16.0148 C   0  0  0  0  0  0  0  0  0  0  0  0
   18.4634   -2.6024  -14.8234 O   0  0  0  0  0  0  0  0  0  0  0  0
   18.7196   -1.0935  -16.4864 O   0  0  0  0  0  0  0  0  0  0  0  0
  1  2  1  0
  3  4  1  6
  3  5  1  0
  3  2  1  0
  5  7  1  0
  5  6  1  1
  7  9  1  0
  7  8  2  0
  9 10  1  0
 10 14  1  0
 10 11  1  6
 12 16  1  0
 12 11  1  0
 13 12  2  0
 14 15  2  0
 18 17  1  6
 19 18  1  0
 19 14  1  0
 20 22  1  0
 20 18  1  0
 21 20  2  0
M  END
$$$$
