IDA.pdb
     RDKit          3D

 22 21  0  0  1  0  0  0  0  0999 V2000
   14.2264  -12.9981  -18.9819 C   0  0  0  0  0  0  0  0  0  0  0  0
   15.7121  -13.0172  -18.6721 C   0  0  0  0  0  0  0  0  0  0  0  0
   16.0652  -12.0562  -17.5845 C   0  0  2  0  0  0  0  0  0  0  0  0
   15.5833  -10.6750  -17.9804 C   0  0  0  0  0  0  0  0  0  0  0  0
   17.5358  -12.0494  -17.2353 C   0  0  2  0  0  0  0  0  0  0  0  0
   17.8752  -13.4157  -16.8109 N   0  0  0  0  0  0  0  0  0  0  0  0
   17.8660  -11.0707  -16.1917 C   0  0  0  0  0  0  0  0  0  0  0  0
   17.5129  -11.2184  -15.0064 O   0  0  0  0  0  0  0  0  0  0  0  0
   18.6123   -9.9221  -16.5548 N   0  0  0  0  0  0  0  0  0  0  0  0
   18.8790   -8.8896  -15.5278 C   0  0  1  0  0  0  0  0  0  0  0  0
   20.3746   -8.8186  -15.3243 C   0  0  0  0  0  0  0  0  0  0  0  0
   20.8378   -7.8310  -14.3589 C   0  0  0  0  0  0  0  0  0  0  0  0
   20.0385   -7.2886  -13.5678 O   0  0  0  0  0  0  0  0  0  0  0  0
   18.3443   -7.5981  -15.9504 C   0  0  0  0  0  0  0  0  0  0  0  0
   18.6974   -7.1716  -17.1110 O   0  0  0  0  0  0  0  0  0  0  0  0
   22.1917   -7.4588  -14.2875 O   0  0  0  0  0  0  0  0  0  0  0  0
   15.6209   -5.1526  -15.3945 C   0  0  0  0  0  0  0  0  0  0  0  0
   17.0589   -5.4483  -15.7966 C   0  0  2  0  0  0  0  0  0  0  0  0
   17.4739   -6.7401  -15.2535 N   0  0  0  0  0  0  0  0  0  0  0  0
   17.9700   -4.3956  -15.3515 C   0  0  0  0  0  0  0  0  0  0  0  0
   17.8096   -3.2233  -15.7780 O   0  0  0  0  0  0  0  0  0  0  0  0
   18.9985   -4.6405  -14.4795 O   0  0  0  0  0  0  0  0  0  0  0  0
  1  2  1  0
  3  4  1  6
  3  5  1  0
  3  2  1  0
  5  7  1  0
  5  6  1  1
  7  9  1  0
  7  8  2  0
  9 10  1  0
 10 14  1  0
 10 11  1  6
 12 16  1  0
 12 11  1  0
 13 12  2  0
 14 15  2  0
 18 17  1  1
 19 18  1  0
 19 14  1  0
 20 22  1  0
 20 18  1  0
 21 20  2  0
M  END
$$$$
