IDA.pdb
     RDKit          3D

 22 21  0  0  1  0  0  0  0  0999 V2000
   17.9011  -14.5115  -18.7294 C   0  0  0  0  0  0  0  0  0  0  0  0
   18.6602  -13.9216  -17.5549 C   0  0  0  0  0  0  0  0  0  0  0  0
   18.6139  -12.4287  -17.5569 C   0  0  2  0  0  0  0  0  0  0  0  0
   19.1652  -11.9267  -18.8763 C   0  0  0  0  0  0  0  0  0  0  0  0
   19.3288  -11.7984  -16.3837 C   0  0  2  0  0  0  0  0  0  0  0  0
   18.6367  -12.2588  -15.1708 N   0  0  0  0  0  0  0  0  0  0  0  0
   19.3548  -10.3321  -16.4571 C   0  0  0  0  0  0  0  0  0  0  0  0
   19.9540   -9.7225  -17.3631 O   0  0  0  0  0  0  0  0  0  0  0  0
   18.6719   -9.5937  -15.4588 N   0  0  0  0  0  0  0  0  0  0  0  0
   18.6564   -8.1160  -15.5486 C   0  0  1  0  0  0  0  0  0  0  0  0
   17.2780   -7.6451  -15.1469 C   0  0  0  0  0  0  0  0  0  0  0  0
   17.0760   -6.2025  -15.1430 C   0  0  0  0  0  0  0  0  0  0  0  0
   16.1826   -5.6854  -14.4404 O   0  0  0  0  0  0  0  0  0  0  0  0
   19.6815   -7.5404  -14.6823 C   0  0  0  0  0  0  0  0  0  0  0  0
   20.0492   -8.2404  -13.6682 O   0  0  0  0  0  0  0  0  0  0  0  0
   17.8753   -5.3510  -15.9257 O   0  0  0  0  0  0  0  0  0  0  0  0
   22.7279   -6.6082  -14.3779 C   0  0  0  0  0  0  0  0  0  0  0  0
   21.4453   -5.9216  -13.9301 C   0  0  2  0  0  0  0  0  0  0  0  0
   20.3412   -6.3041  -14.8078 N   0  0  0  0  0  0  0  0  0  0  0  0
   21.5928   -4.4676  -13.9062 C   0  0  0  0  0  0  0  0  0  0  0  0
   20.9886   -3.7746  -14.7645 O   0  0  0  0  0  0  0  0  0  0  0  0
   22.3691   -3.8275  -12.9758 O   0  0  0  0  0  0  0  0  0  0  0  0
  1  2  1  0
  3  4  1  6
  3  5  1  0
  3  2  1  0
  5  7  1  0
  5  6  1  1
  7  9  1  0
  7  8  2  0
  9 10  1  0
 10 14  1  0
 10 11  1  1
 12 16  1  0
 12 11  1  0
 13 12  2  0
 14 15  2  0
 18 17  1  6
 19 18  1  0
 19 14  1  0
 20 22  1  0
 20 18  1  0
 21 20  2  0
M  END
$$$$
