IDA.pdb
     RDKit          3D

 22 21  0  0  1  0  0  0  0  0999 V2000
   18.7952  -14.6033  -15.4372 C   0  0  0  0  0  0  0  0  0  0  0  0
   18.9829  -13.3249  -16.2333 C   0  0  0  0  0  0  0  0  0  0  0  0
   18.9213  -12.1135  -15.3617 C   0  0  2  0  0  0  0  0  0  0  0  0
   17.6037  -12.1195  -14.6129 C   0  0  0  0  0  0  0  0  0  0  0  0
   19.1252  -10.8165  -16.1107 C   0  0  2  0  0  0  0  0  0  0  0  0
   20.3649  -10.9678  -16.8869 N   0  0  0  0  0  0  0  0  0  0  0  0
   19.1947   -9.6519  -15.2191 C   0  0  0  0  0  0  0  0  0  0  0  0
   18.2762   -9.3645  -14.4285 O   0  0  0  0  0  0  0  0  0  0  0  0
   20.3502   -8.8329  -15.2668 N   0  0  0  0  0  0  0  0  0  0  0  0
   20.3987   -7.6168  -14.4239 C   0  0  1  0  0  0  0  0  0  0  0  0
   21.8456   -7.1985  -14.3027 C   0  0  0  0  0  0  0  0  0  0  0  0
   22.0933   -5.9829  -13.5392 C   0  0  0  0  0  0  0  0  0  0  0  0
   22.8389   -5.0879  -13.9890 O   0  0  0  0  0  0  0  0  0  0  0  0
   19.5919   -6.5527  -15.0148 C   0  0  0  0  0  0  0  0  0  0  0  0
   19.8559   -6.2262  -16.2302 O   0  0  0  0  0  0  0  0  0  0  0  0
   21.5047   -5.7795  -12.2788 O   0  0  0  0  0  0  0  0  0  0  0  0
   16.3179   -4.9580  -14.9654 C   0  0  0  0  0  0  0  0  0  0  0  0
   17.8175   -4.7841  -15.1605 C   0  0  2  0  0  0  0  0  0  0  0  0
   18.5401   -5.8236  -14.4303 N   0  0  0  0  0  0  0  0  0  0  0  0
   18.2663   -3.4602  -14.7334 C   0  0  0  0  0  0  0  0  0  0  0  0
   17.7620   -2.4388  -15.2668 O   0  0  0  0  0  0  0  0  0  0  0  0
   19.2214   -3.2900  -13.7656 O   0  0  0  0  0  0  0  0  0  0  0  0
  1  2  1  0
  3  4  1  6
  3  5  1  0
  3  2  1  0
  5  7  1  0
  5  6  1  1
  7  9  1  0
  7  8  2  0
  9 10  1  0
 10 14  1  0
 10 11  1  6
 12 16  1  0
 12 11  1  0
 13 12  2  0
 14 15  2  0
 18 17  1  1
 19 18  1  0
 19 14  1  0
 20 22  1  0
 20 18  1  0
 21 20  2  0
M  END
$$$$
