IDA.pdb
     RDKit          3D

 22 21  0  0  1  0  0  0  0  0999 V2000
   26.7011  -33.8701  -10.9040 C   0  0  0  0  0  0  0  0  0  0  0  0
   25.5783  -33.7002   -9.8970 C   0  0  0  0  0  0  0  0  0  0  0  0
   26.1000  -33.5009   -8.5116 C   0  0  2  0  0  0  0  0  0  0  0  0
   26.8928  -34.7282   -8.1093 C   0  0  0  0  0  0  0  0  0  0  0  0
   25.0244  -33.1814   -7.4989 C   0  0  2  0  0  0  0  0  0  0  0  0
   24.4141  -31.9110   -7.9179 N   0  0  0  0  0  0  0  0  0  0  0  0
   25.5441  -33.0953   -6.1282 C   0  0  0  0  0  0  0  0  0  0  0  0
   26.0054  -32.0384   -5.6575 O   0  0  0  0  0  0  0  0  0  0  0  0
   25.5156  -34.2595   -5.3208 N   0  0  0  0  0  0  0  0  0  0  0  0
   26.0311  -34.1805   -3.9352 C   0  0  1  0  0  0  0  0  0  0  0  0
   24.8807  -34.4695   -2.9992 C   0  0  0  0  0  0  0  0  0  0  0  0
   25.1862  -34.3980   -1.5767 C   0  0  0  0  0  0  0  0  0  0  0  0
   26.2075  -33.8041   -1.1727 O   0  0  0  0  0  0  0  0  0  0  0  0
   27.1199  -35.1337   -3.7396 C   0  0  0  0  0  0  0  0  0  0  0  0
   26.9303  -36.3320   -4.1659 O   0  0  0  0  0  0  0  0  0  0  0  0
   24.3461  -34.9920   -0.6186 O   0  0  0  0  0  0  0  0  0  0  0  0
   30.7415  -35.3790   -2.7369 C   0  0  0  0  0  0  0  0  0  0  0  0
   29.3750  -35.9796   -3.0352 C   0  0  2  0  0  0  0  0  0  0  0  0
   28.3758  -34.9186   -3.1431 N   0  0  0  0  0  0  0  0  0  0  0  0
   28.9776  -36.9475   -2.0145 C   0  0  0  0  0  0  0  0  0  0  0  0
   28.3860  -36.5426   -0.9811 O   0  0  0  0  0  0  0  0  0  0  0  0
   29.2263  -38.2889   -2.1439 O   0  0  0  0  0  0  0  0  0  0  0  0
  1  2  1  0
  3  4  1  1
  3  5  1  0
  3  2  1  0
  5  7  1  0
  5  6  1  6
  7  9  1  0
  7  8  2  0
  9 10  1  0
 10 14  1  0
 10 11  1  1
 12 16  1  0
 12 11  1  0
 13 12  2  0
 14 15  2  0
 18 17  1  1
 19 18  1  0
 19 14  1  0
 20 22  1  0
 20 18  1  0
 21 20  2  0
M  END
$$$$
