IDA.pdb
     RDKit          3D

 22 21  0  0  1  0  0  0  0  0999 V2000
   24.3664  -14.4646  -19.1728 C   0  0  0  0  0  0  0  0  0  0  0  0
   24.7569  -13.4679  -18.0968 C   0  0  0  0  0  0  0  0  0  0  0  0
   23.8227  -12.3033  -18.0530 C   0  0  2  0  0  0  0  0  0  0  0  0
   23.7848  -11.6583  -19.4239 C   0  0  0  0  0  0  0  0  0  0  0  0
   24.1596  -11.2959  -16.9775 C   0  0  2  0  0  0  0  0  0  0  0  0
   24.2353  -12.0396  -15.7114 N   0  0  0  0  0  0  0  0  0  0  0  0
   23.1802  -10.2050  -16.8960 C   0  0  0  0  0  0  0  0  0  0  0  0
   22.9878   -9.4128  -17.8377 O   0  0  0  0  0  0  0  0  0  0  0  0
   22.4331  -10.0562  -15.7011 N   0  0  0  0  0  0  0  0  0  0  0  0
   21.3813   -9.0159  -15.6414 C   0  0  1  0  0  0  0  0  0  0  0  0
   20.2101   -9.5891  -14.8780 C   0  0  0  0  0  0  0  0  0  0  0  0
   19.0763   -8.6943  -14.6887 C   0  0  0  0  0  0  0  0  0  0  0  0
   18.3489   -8.7913  -13.6785 O   0  0  0  0  0  0  0  0  0  0  0  0
   21.8910   -7.8102  -14.9941 C   0  0  0  0  0  0  0  0  0  0  0  0
   22.4327   -7.9535  -13.8367 O   0  0  0  0  0  0  0  0  0  0  0  0
   18.7664   -7.6988  -15.6318 O   0  0  0  0  0  0  0  0  0  0  0  0
   23.2777   -4.4943  -15.6765 C   0  0  0  0  0  0  0  0  0  0  0  0
   22.4898   -5.3877  -14.7289 C   0  0  2  0  0  0  0  0  0  0  0  0
   21.8774   -6.4870  -15.4721 N   0  0  0  0  0  0  0  0  0  0  0  0
   21.4675   -4.6351  -14.0042 C   0  0  0  0  0  0  0  0  0  0  0  0
   21.8223   -3.7592  -13.1741 O   0  0  0  0  0  0  0  0  0  0  0  0
   20.1280   -4.8493  -14.1984 O   0  0  0  0  0  0  0  0  0  0  0  0
  1  2  1  0
  3  4  1  6
  3  5  1  0
  3  2  1  0
  5  7  1  0
  5  6  1  1
  7  9  1  0
  7  8  2  0
  9 10  1  0
 10 14  1  0
 10 11  1  1
 12 16  1  0
 12 11  1  0
 13 12  2  0
 14 15  2  0
 18 17  1  6
 19 18  1  0
 19 14  1  0
 20 22  1  0
 20 18  1  0
 21 20  2  0
M  END
$$$$
