IDA.pdb
     RDKit          3D

 22 21  0  0  1  0  0  0  0  0999 V2000
   28.2260  -17.9470  -18.2812 C   0  0  0  0  0  0  0  0  0  0  0  0
   28.7672  -18.9550  -17.2839 C   0  0  0  0  0  0  0  0  0  0  0  0
   27.6779  -19.5656  -16.4644 C   0  0  2  0  0  0  0  0  0  0  0  0
   26.8804  -18.4551  -15.8105 C   0  0  0  0  0  0  0  0  0  0  0  0
   28.1740  -20.5643  -15.4440 C   0  0  2  0  0  0  0  0  0  0  0  0
   28.7936  -21.6648  -16.1970 N   0  0  0  0  0  0  0  0  0  0  0  0
   27.1047  -21.0563  -14.5662 C   0  0  0  0  0  0  0  0  0  0  0  0
   26.2916  -21.9259  -14.9323 O   0  0  0  0  0  0  0  0  0  0  0  0
   27.0022  -20.5176  -13.2595 N   0  0  0  0  0  0  0  0  0  0  0  0
   25.9340  -21.0155  -12.3635 C   0  0  1  0  0  0  0  0  0  0  0  0
   26.2676  -20.5709  -10.9584 C   0  0  0  0  0  0  0  0  0  0  0  0
   25.3543  -21.0204   -9.9164 C   0  0  0  0  0  0  0  0  0  0  0  0
   24.3428  -21.6944  -10.2021 O   0  0  0  0  0  0  0  0  0  0  0  0
   24.6335  -20.5004  -12.7828 C   0  0  0  0  0  0  0  0  0  0  0  0
   24.4874  -19.2229  -12.7932 O   0  0  0  0  0  0  0  0  0  0  0  0
   25.5808  -20.7116   -8.5637 O   0  0  0  0  0  0  0  0  0  0  0  0
   21.6961  -21.2339  -14.8444 C   0  0  0  0  0  0  0  0  0  0  0  0
   22.2636  -20.5545  -13.6061 C   0  0  2  0  0  0  0  0  0  0  0  0
   23.4963  -21.2210  -13.1913 N   0  0  0  0  0  0  0  0  0  0  0  0
   21.2992  -20.5442  -12.5078 C   0  0  0  0  0  0  0  0  0  0  0  0
   20.4231  -19.6426  -12.4678 O   0  0  0  0  0  0  0  0  0  0  0  0
   21.3139  -21.4879  -11.5143 O   0  0  0  0  0  0  0  0  0  0  0  0
  1  2  1  0
  3  4  1  1
  3  5  1  0
  3  2  1  0
  5  7  1  0
  5  6  1  6
  7  9  1  0
  7  8  2  0
  9 10  1  0
 10 14  1  0
 10 11  1  1
 12 16  1  0
 12 11  1  0
 13 12  2  0
 14 15  2  0
 18 17  1  6
 19 18  1  0
 19 14  1  0
 20 22  1  0
 20 18  1  0
 21 20  2  0
M  END
$$$$
