IDA.pdb
     RDKit          3D

 22 21  0  0  1  0  0  0  0  0999 V2000
   28.1274  -19.7215   -8.3194 C   0  0  0  0  0  0  0  0  0  0  0  0
   27.5258  -20.7626   -9.2455 C   0  0  0  0  0  0  0  0  0  0  0  0
   26.1991  -20.3312   -9.7792 C   0  0  2  0  0  0  0  0  0  0  0  0
   25.2763  -20.0416   -8.6125 C   0  0  0  0  0  0  0  0  0  0  0  0
   25.5812  -21.3210  -10.7400 C   0  0  2  0  0  0  0  0  0  0  0  0
   26.6159  -21.6485  -11.7321 N   0  0  0  0  0  0  0  0  0  0  0  0
   24.3694  -20.8020  -11.3869 C   0  0  0  0  0  0  0  0  0  0  0  0
   23.4594  -20.2453  -10.7440 O   0  0  0  0  0  0  0  0  0  0  0  0
   24.2398  -20.9439  -12.7909 N   0  0  0  0  0  0  0  0  0  0  0  0
   23.0088  -20.4493  -13.4480 C   0  0  1  0  0  0  0  0  0  0  0  0
   23.2682  -20.4035  -14.9359 C   0  0  0  0  0  0  0  0  0  0  0  0
   24.1537  -19.3413  -15.3937 C   0  0  0  0  0  0  0  0  0  0  0  0
   24.1127  -18.2076  -14.8721 O   0  0  0  0  0  0  0  0  0  0  0  0
   21.8785  -21.3204  -13.1382 C   0  0  0  0  0  0  0  0  0  0  0  0
   21.9988  -22.5637  -13.4436 O   0  0  0  0  0  0  0  0  0  0  0  0
   25.0772  -19.5570  -16.4316 O   0  0  0  0  0  0  0  0  0  0  0  0
   18.8797  -21.6846  -11.0054 C   0  0  0  0  0  0  0  0  0  0  0  0
   19.5991  -21.9725  -12.3156 C   0  0  2  0  0  0  0  0  0  0  0  0
   20.6532  -20.9839  -12.5343 N   0  0  0  0  0  0  0  0  0  0  0  0
   18.6737  -21.9846  -13.4469 C   0  0  0  0  0  0  0  0  0  0  0  0
   18.6999  -21.0360  -14.2724 O   0  0  0  0  0  0  0  0  0  0  0  0
   17.7737  -22.9992  -13.6433 O   0  0  0  0  0  0  0  0  0  0  0  0
  1  2  1  0
  3  4  1  1
  3  5  1  0
  3  2  1  0
  5  7  1  0
  5  6  1  6
  7  9  1  0
  7  8  2  0
  9 10  1  0
 10 14  1  0
 10 11  1  6
 12 16  1  0
 12 11  1  0
 13 12  2  0
 14 15  2  0
 18 17  1  1
 19 18  1  0
 19 14  1  0
 20 22  1  0
 20 18  1  0
 21 20  2  0
M  END
$$$$
