IDA.pdb
     RDKit          3D

 22 21  0  0  1  0  0  0  0  0999 V2000
   23.9550  -34.6404  -11.0311 C   0  0  0  0  0  0  0  0  0  0  0  0
   25.1294  -33.6797  -11.0697 C   0  0  0  0  0  0  0  0  0  0  0  0
   25.5804  -33.2983   -9.6977 C   0  0  2  0  0  0  0  0  0  0  0  0
   25.9971  -34.5528   -8.9565 C   0  0  0  0  0  0  0  0  0  0  0  0
   24.5518  -32.5117   -8.9181 C   0  0  2  0  0  0  0  0  0  0  0  0
   24.4236  -31.2075   -9.5848 N   0  0  0  0  0  0  0  0  0  0  0  0
   24.9126  -32.3529   -7.5036 C   0  0  0  0  0  0  0  0  0  0  0  0
   25.8232  -31.5887   -7.1317 O   0  0  0  0  0  0  0  0  0  0  0  0
   24.1946  -33.0985   -6.5357 N   0  0  0  0  0  0  0  0  0  0  0  0
   24.5948  -32.9956   -5.1141 C   0  0  1  0  0  0  0  0  0  0  0  0
   23.4343  -33.4752   -4.2736 C   0  0  0  0  0  0  0  0  0  0  0  0
   23.5605  -33.2648   -2.8377 C   0  0  0  0  0  0  0  0  0  0  0  0
   24.5994  -32.7682   -2.3547 O   0  0  0  0  0  0  0  0  0  0  0  0
   25.7917  -33.7929   -4.8609 C   0  0  0  0  0  0  0  0  0  0  0  0
   25.7392  -35.0397   -5.1714 O   0  0  0  0  0  0  0  0  0  0  0  0
   22.5231  -33.6121   -1.9548 O   0  0  0  0  0  0  0  0  0  0  0  0
   29.4292  -33.6466   -4.6473 C   0  0  0  0  0  0  0  0  0  0  0  0
   28.1456  -34.2978   -4.1522 C   0  0  2  0  0  0  0  0  0  0  0  0
   27.0221  -33.3780   -4.3192 N   0  0  0  0  0  0  0  0  0  0  0  0
   28.2564  -34.7133   -2.7552 C   0  0  0  0  0  0  0  0  0  0  0  0
   27.5849  -34.1096   -1.8796 O   0  0  0  0  0  0  0  0  0  0  0  0
   29.0693  -35.7441   -2.3622 O   0  0  0  0  0  0  0  0  0  0  0  0
  1  2  1  0
  3  4  1  1
  3  5  1  0
  3  2  1  0
  5  7  1  0
  5  6  1  6
  7  9  1  0
  7  8  2  0
  9 10  1  0
 10 14  1  0
 10 11  1  1
 12 16  1  0
 12 11  1  0
 13 12  2  0
 14 15  2  0
 18 17  1  1
 19 18  1  0
 19 14  1  0
 20 22  1  0
 20 18  1  0
 21 20  2  0
M  END
$$$$
