TWS.pdb
     RDKit          3D

 28 29  0  0  1  0  0  0  0  0999 V2000
    8.2326  -17.4502   20.0848 C   0  0  0  0  0  0  0  0  0  0  0  0
    8.1731  -16.0064   19.5819 C   0  0  1  0  0  0  0  0  0  0  0  0
    7.4367  -15.9382   18.4030 O   0  0  0  0  0  0  0  0  0  0  0  0
    7.5418  -15.1215   20.6708 C   0  0  2  0  0  0  0  0  0  0  0  0
    7.1354  -13.9335   20.0531 N   0  0  0  0  0  0  0  0  0  0  0  0
    8.4937  -14.9694   21.8019 C   0  0  0  0  0  0  0  0  0  0  0  0
    9.3179  -14.0415   21.6803 O   0  0  0  0  0  0  0  0  0  0  0  0
    8.4827  -15.7925   22.9304 N   0  0  0  0  0  0  0  0  0  0  0  0
    9.3098  -15.7945   24.0934 C   0  0  1  0  0  0  0  0  0  0  0  0
    8.6182  -15.9910   25.4187 C   0  0  0  0  0  0  0  0  0  0  0  0
    7.4491  -15.1357   25.6442 C   0  0  0  0  0  0  0  0  0  0  0  0
    6.0866  -15.3755   25.5596 C   0  0  0  0  0  0  0  0  0  0  0  0
    5.3911  -14.2601   25.8273 N   0  0  0  0  0  0  0  0  0  0  0  0
    6.2921  -13.2721   26.0896 C   0  0  0  0  0  0  0  0  0  0  0  0
    6.1016  -11.9423   26.4144 C   0  0  0  0  0  0  0  0  0  0  0  0
    7.1706  -11.1045   26.6381 C   0  0  0  0  0  0  0  0  0  0  0  0
    8.4735  -11.6031   26.5366 C   0  0  0  0  0  0  0  0  0  0  0  0
    8.6267  -12.9387   26.2097 C   0  0  0  0  0  0  0  0  0  0  0  0
    7.5609  -13.7837   25.9843 C   0  0  0  0  0  0  0  0  0  0  0  0
   10.5022  -16.6040   23.8941 C   0  0  0  0  0  0  0  0  0  0  0  0
   10.3163  -17.8586   23.6724 O   0  0  0  0  0  0  0  0  0  0  0  0
   14.5188  -15.3545   23.6097 O   0  0  0  0  0  0  0  0  0  0  0  0
   14.0821  -16.5304   22.9591 C   0  0  0  0  0  0  0  0  0  0  0  0
   12.9153  -17.0798   23.7217 C   0  0  2  0  0  0  0  0  0  0  0  0
   11.8474  -16.1276   23.9268 N   0  0  0  0  0  0  0  0  0  0  0  0
   13.3693  -17.6206   25.0629 C   0  0  0  0  0  0  0  0  0  0  0  0
   14.3744  -18.5400   25.2133 O   0  0  0  0  0  0  0  0  0  0  0  0
   12.7818  -17.1984   26.1158 O   0  0  0  0  0  0  0  0  0  0  0  0
  2  4  1  0
  2  1  1  1
  3  2  1  0
  4  5  1  6
  4  6  1  0
  6  7  2  0
  8  6  1  0
  8  9  1  0
  9 10  1  1
 10 11  1  0
 11 12  2  0
 12 13  1  0
 14 13  1  0
 15 14  2  0
 16 15  1  0
 17 18  1  0
 17 16  2  0
 18 19  2  0
 19 11  1  0
 19 14  1  0
 20  9  1  0
 20 21  2  0
 22 23  1  0
 24 23  1  1
 24 25  1  0
 24 26  1  0
 25 20  1  0
 26 27  1  0
 28 26  2  0
M  END
$$$$
