TWS.pdb
     RDKit          3D

 28 29  0  0  1  0  0  0  0  0999 V2000
    7.7257  -16.6225   19.2036 C   0  0  0  0  0  0  0  0  0  0  0  0
    8.0611  -15.1872   18.7933 C   0  0  1  0  0  0  0  0  0  0  0  0
    7.4684  -14.8860   17.5707 O   0  0  0  0  0  0  0  0  0  0  0  0
    7.5703  -14.2245   19.8886 C   0  0  2  0  0  0  0  0  0  0  0  0
    7.5551  -12.9404   19.3331 N   0  0  0  0  0  0  0  0  0  0  0  0
    8.4037  -14.3919   21.1078 C   0  0  0  0  0  0  0  0  0  0  0  0
    9.4586  -13.7270   21.1244 O   0  0  0  0  0  0  0  0  0  0  0  0
    8.0496  -15.2255   22.1711 N   0  0  0  0  0  0  0  0  0  0  0  0
    8.7429  -15.5485   23.3760 C   0  0  1  0  0  0  0  0  0  0  0  0
    7.9059  -16.0348   24.5320 C   0  0  0  0  0  0  0  0  0  0  0  0
    6.9617  -15.0530   25.0740 C   0  0  0  0  0  0  0  0  0  0  0  0
    5.5769  -15.0179   25.1233 C   0  0  0  0  0  0  0  0  0  0  0  0
    5.1513  -13.8817   25.6955 N   0  0  0  0  0  0  0  0  0  0  0  0
    6.2552  -13.1552   26.0274 C   0  0  0  0  0  0  0  0  0  0  0  0
    6.3707  -11.9173   26.6311 C   0  0  0  0  0  0  0  0  0  0  0  0
    7.6041  -11.3566   26.8738 C   0  0  0  0  0  0  0  0  0  0  0  0
    8.7630  -12.0478   26.5053 C   0  0  0  0  0  0  0  0  0  0  0  0
    8.6097  -13.2840   25.9033 C   0  0  0  0  0  0  0  0  0  0  0  0
    7.3777  -13.8519   25.6572 C   0  0  0  0  0  0  0  0  0  0  0  0
    9.9370  -16.3345   23.1056 C   0  0  0  0  0  0  0  0  0  0  0  0
    9.8173  -17.2878   22.2486 O   0  0  0  0  0  0  0  0  0  0  0  0
   14.3735  -17.0087   22.0502 O   0  0  0  0  0  0  0  0  0  0  0  0
   13.3515  -16.1279   22.4700 C   0  0  0  0  0  0  0  0  0  0  0  0
   12.3283  -16.9242   23.2208 C   0  0  2  0  0  0  0  0  0  0  0  0
   11.2163  -16.1400   23.7083 N   0  0  0  0  0  0  0  0  0  0  0  0
   12.9751  -17.6529   24.3819 C   0  0  0  0  0  0  0  0  0  0  0  0
   14.0032  -18.5483   24.2422 O   0  0  0  0  0  0  0  0  0  0  0  0
   12.5377  -17.4226   25.5599 O   0  0  0  0  0  0  0  0  0  0  0  0
  2  4  1  0
  2  1  1  1
  3  2  1  0
  4  5  1  6
  4  6  1  0
  6  7  2  0
  8  6  1  0
  8  9  1  0
  9 10  1  1
 10 11  1  0
 11 12  2  0
 12 13  1  0
 14 13  1  0
 15 14  2  0
 16 15  1  0
 17 18  1  0
 17 16  2  0
 18 19  2  0
 19 11  1  0
 19 14  1  0
 20  9  1  0
 20 21  2  0
 22 23  1  0
 24 23  1  1
 24 25  1  0
 24 26  1  0
 25 20  1  0
 26 27  1  0
 28 26  2  0
M  END
$$$$
