TWS.pdb
     RDKit          3D

 28 29  0  0  1  0  0  0  0  0999 V2000
   10.4368  -19.6445   19.9678 C   0  0  0  0  0  0  0  0  0  0  0  0
   10.4555  -18.5531   18.8958 C   0  0  1  0  0  0  0  0  0  0  0  0
   10.4540  -19.1255   17.6273 O   0  0  0  0  0  0  0  0  0  0  0  0
    9.2292  -17.6433   19.0845 C   0  0  2  0  0  0  0  0  0  0  0  0
    9.1232  -16.8499   17.9368 N   0  0  0  0  0  0  0  0  0  0  0  0
    9.3487  -16.9078   20.3704 C   0  0  0  0  0  0  0  0  0  0  0  0
   10.3718  -16.2041   20.4856 O   0  0  0  0  0  0  0  0  0  0  0  0
    8.3955  -16.9820   21.3886 N   0  0  0  0  0  0  0  0  0  0  0  0
    8.3716  -16.3977   22.6905 C   0  0  1  0  0  0  0  0  0  0  0  0
    7.0147  -16.1542   23.3011 C   0  0  0  0  0  0  0  0  0  0  0  0
    7.0312  -15.6963   24.6936 C   0  0  0  0  0  0  0  0  0  0  0  0
    6.9562  -16.3741   25.9003 C   0  0  0  0  0  0  0  0  0  0  0  0
    6.9761  -15.5140   26.9296 N   0  0  0  0  0  0  0  0  0  0  0  0
    7.0626  -14.2581   26.4084 C   0  0  0  0  0  0  0  0  0  0  0  0
    7.1105  -13.0255   27.0319 C   0  0  0  0  0  0  0  0  0  0  0  0
    7.1942  -11.8617   26.3016 C   0  0  0  0  0  0  0  0  0  0  0  0
    7.2321  -11.9227   24.9047 C   0  0  0  0  0  0  0  0  0  0  0  0
    7.1822  -13.1731   24.3146 C   0  0  0  0  0  0  0  0  0  0  0  0
    7.0984  -14.3428   25.0395 C   0  0  0  0  0  0  0  0  0  0  0  0
    9.3405  -17.0297   23.5727 C   0  0  0  0  0  0  0  0  0  0  0  0
    9.2791  -18.3120   23.6715 O   0  0  0  0  0  0  0  0  0  0  0  0
   12.9807  -15.6254   24.4922 O   0  0  0  0  0  0  0  0  0  0  0  0
   12.7028  -17.0034   24.6353 C   0  0  0  0  0  0  0  0  0  0  0  0
   11.2819  -17.1483   25.0881 C   0  0  2  0  0  0  0  0  0  0  0  0
   10.3412  -16.3523   24.3326 N   0  0  0  0  0  0  0  0  0  0  0  0
   11.1597  -16.8064   26.5597 C   0  0  0  0  0  0  0  0  0  0  0  0
   10.2650  -15.8962   27.0589 O   0  0  0  0  0  0  0  0  0  0  0  0
   11.9355  -17.3976   27.3847 O   0  0  0  0  0  0  0  0  0  0  0  0
  2  4  1  0
  2  1  1  1
  3  2  1  0
  4  5  1  6
  4  6  1  0
  6  7  2  0
  8  6  1  0
  8  9  1  0
  9 10  1  1
 10 11  1  0
 11 12  2  0
 12 13  1  0
 14 13  1  0
 15 14  2  0
 16 15  1  0
 17 18  1  0
 17 16  2  0
 18 19  2  0
 19 11  1  0
 19 14  1  0
 20  9  1  0
 20 21  2  0
 22 23  1  0
 24 23  1  6
 24 25  1  0
 24 26  1  0
 25 20  1  0
 26 27  1  0
 28 26  2  0
M  END
$$$$
