TWS.pdb
     RDKit          3D

 28 29  0  0  1  0  0  0  0  0999 V2000
    6.8326  -15.4244   18.3248 C   0  0  0  0  0  0  0  0  0  0  0  0
    7.8259  -15.4478   19.4883 C   0  0  1  0  0  0  0  0  0  0  0  0
    9.1173  -15.2201   19.0223 O   0  0  0  0  0  0  0  0  0  0  0  0
    7.4205  -14.3765   20.5156 C   0  0  2  0  0  0  0  0  0  0  0  0
    7.3685  -13.1534   19.8380 N   0  0  0  0  0  0  0  0  0  0  0  0
    8.3411  -14.4315   21.6811 C   0  0  0  0  0  0  0  0  0  0  0  0
    9.1995  -13.5279   21.7219 O   0  0  0  0  0  0  0  0  0  0  0  0
    8.2669  -15.4129   22.6723 N   0  0  0  0  0  0  0  0  0  0  0  0
    9.0815  -15.6440   23.8212 C   0  0  1  0  0  0  0  0  0  0  0  0
    8.3657  -15.9783   25.1054 C   0  0  0  0  0  0  0  0  0  0  0  0
    7.2662  -15.0754   25.4591 C   0  0  0  0  0  0  0  0  0  0  0  0
    5.8885  -15.2091   25.3871 C   0  0  0  0  0  0  0  0  0  0  0  0
    5.2808  -14.0861   25.7984 N   0  0  0  0  0  0  0  0  0  0  0  0
    6.2559  -13.1994   26.1443 C   0  0  0  0  0  0  0  0  0  0  0  0
    6.1683  -11.9054   26.6220 C   0  0  0  0  0  0  0  0  0  0  0  0
    7.2993  -11.1747   26.9079 C   0  0  0  0  0  0  0  0  0  0  0  0
    8.5605  -11.7474   26.7137 C   0  0  0  0  0  0  0  0  0  0  0  0
    8.6103  -13.0443   26.2343 C   0  0  0  0  0  0  0  0  0  0  0  0
    7.4820  -13.7822   25.9459 C   0  0  0  0  0  0  0  0  0  0  0  0
   10.2130  -16.5018   23.5044 C   0  0  0  0  0  0  0  0  0  0  0  0
    9.9374  -17.6879   23.0859 O   0  0  0  0  0  0  0  0  0  0  0  0
   14.0525  -15.3854   22.9338 O   0  0  0  0  0  0  0  0  0  0  0  0
   13.7539  -16.7220   22.5862 C   0  0  0  0  0  0  0  0  0  0  0  0
   12.5849  -17.1685   23.4101 C   0  0  2  0  0  0  0  0  0  0  0  0
   11.5895  -16.1420   23.6212 N   0  0  0  0  0  0  0  0  0  0  0  0
   13.0553  -17.6942   24.7517 C   0  0  0  0  0  0  0  0  0  0  0  0
   14.0459  -18.6297   24.8989 O   0  0  0  0  0  0  0  0  0  0  0  0
   12.4969  -17.2423   25.8081 O   0  0  0  0  0  0  0  0  0  0  0  0
  2  4  1  0
  2  1  1  6
  3  2  1  0
  4  5  1  6
  4  6  1  0
  6  7  2  0
  8  6  1  0
  8  9  1  0
  9 10  1  1
 10 11  1  0
 11 12  2  0
 12 13  1  0
 14 13  1  0
 15 14  2  0
 16 15  1  0
 17 18  1  0
 17 16  2  0
 18 19  2  0
 19 11  1  0
 19 14  1  0
 20  9  1  0
 20 21  2  0
 22 23  1  0
 24 23  1  1
 24 25  1  0
 24 26  1  0
 25 20  1  0
 26 27  1  0
 28 26  2  0
M  END
$$$$
