TWS.pdb
     RDKit          3D

 28 29  0  0  1  0  0  0  0  0999 V2000
    7.1099  -15.3292   18.0894 C   0  0  0  0  0  0  0  0  0  0  0  0
    7.9486  -15.3903   19.3676 C   0  0  1  0  0  0  0  0  0  0  0  0
    9.2999  -15.2575   19.0624 O   0  0  0  0  0  0  0  0  0  0  0  0
    7.4927  -14.2719   20.3208 C   0  0  2  0  0  0  0  0  0  0  0  0
    7.5090  -13.0770   19.5930 N   0  0  0  0  0  0  0  0  0  0  0  0
    8.3300  -14.2928   21.5485 C   0  0  0  0  0  0  0  0  0  0  0  0
    9.2126  -13.4135   21.6035 O   0  0  0  0  0  0  0  0  0  0  0  0
    8.1571  -15.2187   22.5799 N   0  0  0  0  0  0  0  0  0  0  0  0
    8.9176  -15.4498   23.7653 C   0  0  1  0  0  0  0  0  0  0  0  0
    8.1535  -15.8936   24.9870 C   0  0  0  0  0  0  0  0  0  0  0  0
    7.1145  -14.9655   25.4433 C   0  0  0  0  0  0  0  0  0  0  0  0
    5.7326  -15.0612   25.4909 C   0  0  0  0  0  0  0  0  0  0  0  0
    5.1945  -13.9269   25.9635 N   0  0  0  0  0  0  0  0  0  0  0  0
    6.2202  -13.0706   26.2304 C   0  0  0  0  0  0  0  0  0  0  0  0
    6.2107  -11.7801   26.7252 C   0  0  0  0  0  0  0  0  0  0  0  0
    7.3821  -11.0833   26.9174 C   0  0  0  0  0  0  0  0  0  0  0  0
    8.6052  -11.6876   26.6086 C   0  0  0  0  0  0  0  0  0  0  0  0
    8.5770  -12.9799   26.1155 C   0  0  0  0  0  0  0  0  0  0  0  0
    7.4078  -13.6840   25.9205 C   0  0  0  0  0  0  0  0  0  0  0  0
   10.1232  -16.2129   23.4809 C   0  0  0  0  0  0  0  0  0  0  0  0
    9.9565  -17.3913   22.9895 O   0  0  0  0  0  0  0  0  0  0  0  0
   14.8020  -16.9264   22.7157 O   0  0  0  0  0  0  0  0  0  0  0  0
   13.8446  -15.9556   23.0866 C   0  0  0  0  0  0  0  0  0  0  0  0
   12.5447  -16.6556   23.3416 C   0  0  2  0  0  0  0  0  0  0  0  0
   11.4617  -15.7690   23.7024 N   0  0  0  0  0  0  0  0  0  0  0  0
   12.7141  -17.7055   24.4217 C   0  0  0  0  0  0  0  0  0  0  0  0
   13.6042  -18.7445   24.3417 O   0  0  0  0  0  0  0  0  0  0  0  0
   11.9853  -17.6207   25.4675 O   0  0  0  0  0  0  0  0  0  0  0  0
  2  4  1  0
  2  1  1  6
  3  2  1  0
  4  5  1  6
  4  6  1  0
  6  7  2  0
  8  6  1  0
  8  9  1  0
  9 10  1  1
 10 11  1  0
 11 12  2  0
 12 13  1  0
 14 13  1  0
 15 14  2  0
 16 15  1  0
 17 18  1  0
 17 16  2  0
 18 19  2  0
 19 11  1  0
 19 14  1  0
 20  9  1  0
 20 21  2  0
 22 23  1  0
 24 23  1  1
 24 25  1  0
 24 26  1  0
 25 20  1  0
 26 27  1  0
 28 26  2  0
M  END
$$$$
