TWS.pdb
     RDKit          3D

 28 29  0  0  1  0  0  0  0  0999 V2000
    6.5243  -17.2954   19.0138 C   0  0  0  0  0  0  0  0  0  0  0  0
    7.6461  -16.9053   19.9784 C   0  0  1  0  0  0  0  0  0  0  0  0
    8.8239  -16.6696   19.2755 O   0  0  0  0  0  0  0  0  0  0  0  0
    7.2198  -15.6524   20.7632 C   0  0  2  0  0  0  0  0  0  0  0  0
    6.9371  -14.6538   19.8248 N   0  0  0  0  0  0  0  0  0  0  0  0
    8.2609  -15.3180   21.7698 C   0  0  0  0  0  0  0  0  0  0  0  0
    8.9680  -14.3289   21.4928 O   0  0  0  0  0  0  0  0  0  0  0  0
    8.4498  -16.0430   22.9486 N   0  0  0  0  0  0  0  0  0  0  0  0
    9.3707  -15.8563   24.0229 C   0  0  1  0  0  0  0  0  0  0  0  0
    8.8237  -16.0043   25.4201 C   0  0  0  0  0  0  0  0  0  0  0  0
    7.6087  -15.2328   25.6985 C   0  0  0  0  0  0  0  0  0  0  0  0
    6.2634  -15.5649   25.6636 C   0  0  0  0  0  0  0  0  0  0  0  0
    5.5044  -14.5017   25.9687 N   0  0  0  0  0  0  0  0  0  0  0  0
    6.3453  -13.4563   26.2060 C   0  0  0  0  0  0  0  0  0  0  0  0
    6.0773  -12.1450   26.5510 C   0  0  0  0  0  0  0  0  0  0  0  0
    7.0944  -11.2375   26.7419 C   0  0  0  0  0  0  0  0  0  0  0  0
    8.4234  -11.6448   26.5858 C   0  0  0  0  0  0  0  0  0  0  0  0
    8.6546  -12.9644   26.2402 C   0  0  0  0  0  0  0  0  0  0  0  0
    7.6410  -13.8789   26.0474 C   0  0  0  0  0  0  0  0  0  0  0  0
   10.6234  -16.5532   23.7739 C   0  0  0  0  0  0  0  0  0  0  0  0
   10.5361  -17.7939   23.4410 O   0  0  0  0  0  0  0  0  0  0  0  0
   13.6617  -15.6205   21.6492 O   0  0  0  0  0  0  0  0  0  0  0  0
   14.1771  -16.1256   22.8640 C   0  0  0  0  0  0  0  0  0  0  0  0
   13.0668  -16.8253   23.5869 C   0  0  2  0  0  0  0  0  0  0  0  0
   11.9278  -15.9817   23.8705 N   0  0  0  0  0  0  0  0  0  0  0  0
   13.5775  -17.4294   24.8798 C   0  0  0  0  0  0  0  0  0  0  0  0
   14.6449  -18.2858   24.9515 O   0  0  0  0  0  0  0  0  0  0  0  0
   12.9793  -17.1260   25.9672 O   0  0  0  0  0  0  0  0  0  0  0  0
  2  4  1  0
  2  1  1  6
  3  2  1  0
  4  5  1  6
  4  6  1  0
  6  7  2  0
  8  6  1  0
  8  9  1  0
  9 10  1  1
 10 11  1  0
 11 12  2  0
 12 13  1  0
 14 13  1  0
 15 14  2  0
 16 15  1  0
 17 18  1  0
 17 16  2  0
 18 19  2  0
 19 11  1  0
 19 14  1  0
 20  9  1  0
 20 21  2  0
 22 23  1  0
 24 23  1  1
 24 25  1  0
 24 26  1  0
 25 20  1  0
 26 27  1  0
 28 26  2  0
M  END
$$$$
