TWS.pdb
     RDKit          3D

 28 29  0  0  1  0  0  0  0  0999 V2000
    8.2477  -18.3785   20.6390 C   0  0  0  0  0  0  0  0  0  0  0  0
    7.7994  -17.0955   19.9364 C   0  0  1  0  0  0  0  0  0  0  0  0
    6.9245  -17.3973   18.8971 O   0  0  0  0  0  0  0  0  0  0  0  0
    7.1257  -16.1698   20.9643 C   0  0  2  0  0  0  0  0  0  0  0  0
    6.4345  -15.1883   20.2454 N   0  0  0  0  0  0  0  0  0  0  0  0
    8.1429  -15.6709   21.9263 C   0  0  0  0  0  0  0  0  0  0  0  0
    8.7639  -14.6531   21.5610 O   0  0  0  0  0  0  0  0  0  0  0  0
    8.3995  -16.2801   23.1567 N   0  0  0  0  0  0  0  0  0  0  0  0
    9.3735  -15.9887   24.1584 C   0  0  1  0  0  0  0  0  0  0  0  0
    8.8875  -15.9402   25.5849 C   0  0  0  0  0  0  0  0  0  0  0  0
    7.6782  -15.1411   25.8042 C   0  0  0  0  0  0  0  0  0  0  0  0
    6.3295  -15.4580   25.7627 C   0  0  0  0  0  0  0  0  0  0  0  0
    5.5794  -14.3719   26.0022 N   0  0  0  0  0  0  0  0  0  0  0  0
    6.4300  -13.3263   26.2022 C   0  0  0  0  0  0  0  0  0  0  0  0
    6.1733  -11.9965   26.4776 C   0  0  0  0  0  0  0  0  0  0  0  0
    7.1990  -11.0932   26.6411 C   0  0  0  0  0  0  0  0  0  0  0  0
    8.5250  -11.5239   26.5279 C   0  0  0  0  0  0  0  0  0  0  0  0
    8.7446  -12.8616   26.2516 C   0  0  0  0  0  0  0  0  0  0  0  0
    7.7224  -13.7721   26.0866 C   0  0  0  0  0  0  0  0  0  0  0  0
   10.5942  -16.7520   23.9483 C   0  0  0  0  0  0  0  0  0  0  0  0
   10.4718  -18.0329   23.9017 O   0  0  0  0  0  0  0  0  0  0  0  0
   14.3278  -15.3732   22.6593 O   0  0  0  0  0  0  0  0  0  0  0  0
   13.8847  -16.6907   22.4055 C   0  0  0  0  0  0  0  0  0  0  0  0
   12.9987  -17.1114   23.5382 C   0  0  2  0  0  0  0  0  0  0  0  0
   11.9032  -16.2039   23.7946 N   0  0  0  0  0  0  0  0  0  0  0  0
   13.8109  -17.2874   24.8058 C   0  0  0  0  0  0  0  0  0  0  0  0
   14.9067  -18.1049   24.9014 O   0  0  0  0  0  0  0  0  0  0  0  0
   13.4550  -16.6392   25.8475 O   0  0  0  0  0  0  0  0  0  0  0  0
  2  4  1  0
  2  1  1  1
  3  2  1  0
  4  5  1  6
  4  6  1  0
  6  7  2  0
  8  6  1  0
  8  9  1  0
  9 10  1  1
 10 11  1  0
 11 12  2  0
 12 13  1  0
 14 13  1  0
 15 14  2  0
 16 15  1  0
 17 18  1  0
 17 16  2  0
 18 19  2  0
 19 11  1  0
 19 14  1  0
 20  9  1  0
 20 21  2  0
 22 23  1  0
 24 23  1  6
 24 25  1  0
 24 26  1  0
 25 20  1  0
 26 27  1  0
 28 26  2  0
M  END
$$$$
