TWS.pdb
     RDKit          3D

 28 29  0  0  1  0  0  0  0  0999 V2000
    8.4966  -17.1234   19.7372 C   0  0  0  0  0  0  0  0  0  0  0  0
    8.3919  -15.6473   19.3488 C   0  0  1  0  0  0  0  0  0  0  0  0
    7.7394  -15.5171   18.1265 O   0  0  0  0  0  0  0  0  0  0  0  0
    7.6349  -14.8903   20.4539 C   0  0  2  0  0  0  0  0  0  0  0  0
    7.2266  -13.6669   19.9111 N   0  0  0  0  0  0  0  0  0  0  0  0
    8.4840  -14.8066   21.6708 C   0  0  0  0  0  0  0  0  0  0  0  0
    9.3574  -13.9167   21.6478 O   0  0  0  0  0  0  0  0  0  0  0  0
    8.3312  -15.6509   22.7730 N   0  0  0  0  0  0  0  0  0  0  0  0
    9.0811  -15.7527   23.9830 C   0  0  1  0  0  0  0  0  0  0  0  0
    8.3033  -16.0404   25.2422 C   0  0  0  0  0  0  0  0  0  0  0  0
    7.2182  -15.0986   25.5332 C   0  0  0  0  0  0  0  0  0  0  0  0
    5.8383  -15.2249   25.5003 C   0  0  0  0  0  0  0  0  0  0  0  0
    5.2479  -14.0634   25.8190 N   0  0  0  0  0  0  0  0  0  0  0  0
    6.2366  -13.1582   26.0635 C   0  0  0  0  0  0  0  0  0  0  0  0
    6.1688  -11.8253   26.4227 C   0  0  0  0  0  0  0  0  0  0  0  0
    7.3110  -11.0825   26.6187 C   0  0  0  0  0  0  0  0  0  0  0  0
    8.5635  -11.6827   26.4532 C   0  0  0  0  0  0  0  0  0  0  0  0
    8.5936  -13.0182   26.0934 C   0  0  0  0  0  0  0  0  0  0  0  0
    7.4539  -13.7685   25.8955 C   0  0  0  0  0  0  0  0  0  0  0  0
   10.2770  -16.5605   23.7987 C   0  0  0  0  0  0  0  0  0  0  0  0
   10.1008  -17.7600   23.3651 O   0  0  0  0  0  0  0  0  0  0  0  0
   14.2428  -15.3507   24.1382 O   0  0  0  0  0  0  0  0  0  0  0  0
   13.9589  -16.5067   23.3769 C   0  0  0  0  0  0  0  0  0  0  0  0
   12.6813  -17.0998   23.8876 C   0  0  2  0  0  0  0  0  0  0  0  0
   11.6155  -16.1385   24.0592 N   0  0  0  0  0  0  0  0  0  0  0  0
   12.9217  -17.8212   25.1988 C   0  0  0  0  0  0  0  0  0  0  0  0
   13.9313  -18.7266   25.3965 O   0  0  0  0  0  0  0  0  0  0  0  0
   12.1386  -17.5745   26.1775 O   0  0  0  0  0  0  0  0  0  0  0  0
  2  4  1  0
  2  1  1  1
  3  2  1  0
  4  5  1  6
  4  6  1  0
  6  7  2  0
  8  6  1  0
  8  9  1  0
  9 10  1  1
 10 11  1  0
 11 12  2  0
 12 13  1  0
 14 13  1  0
 15 14  2  0
 16 15  1  0
 17 18  1  0
 17 16  2  0
 18 19  2  0
 19 11  1  0
 19 14  1  0
 20  9  1  0
 20 21  2  0
 22 23  1  0
 24 23  1  1
 24 25  1  0
 24 26  1  0
 25 20  1  0
 26 27  1  0
 28 26  2  0
M  END
$$$$
