TWS.pdb
     RDKit          3D

 28 29  0  0  1  0  0  0  0  0999 V2000
    6.7761  -14.9069   18.2551 C   0  0  0  0  0  0  0  0  0  0  0  0
    7.6612  -15.1801   19.4729 C   0  0  1  0  0  0  0  0  0  0  0  0
    8.9936  -15.2846   19.0848 O   0  0  0  0  0  0  0  0  0  0  0  0
    7.4781  -14.0418   20.4917 C   0  0  2  0  0  0  0  0  0  0  0  0
    7.7265  -12.8408   19.8181 N   0  0  0  0  0  0  0  0  0  0  0  0
    8.3253  -14.3012   21.6849 C   0  0  0  0  0  0  0  0  0  0  0  0
    9.3658  -13.6175   21.7552 O   0  0  0  0  0  0  0  0  0  0  0  0
    7.9983  -15.2359   22.6700 N   0  0  0  0  0  0  0  0  0  0  0  0
    8.7315  -15.6902   23.8071 C   0  0  1  0  0  0  0  0  0  0  0  0
    7.9465  -15.9219   25.0734 C   0  0  0  0  0  0  0  0  0  0  0  0
    7.0434  -14.8319   25.4549 C   0  0  0  0  0  0  0  0  0  0  0  0
    5.6734  -14.6662   25.3259 C   0  0  0  0  0  0  0  0  0  0  0  0
    5.2938  -13.4693   25.7980 N   0  0  0  0  0  0  0  0  0  0  0  0
    6.4142  -12.8332   26.2416 C   0  0  0  0  0  0  0  0  0  0  0  0
    6.5751  -11.5838   26.8103 C   0  0  0  0  0  0  0  0  0  0  0  0
    7.8181  -11.1289   27.1880 C   0  0  0  0  0  0  0  0  0  0  0  0
    8.9402  -11.9416   26.9954 C   0  0  0  0  0  0  0  0  0  0  0  0
    8.7419  -13.1857   26.4236 C   0  0  0  0  0  0  0  0  0  0  0  0
    7.5000  -13.6480   26.0429 C   0  0  0  0  0  0  0  0  0  0  0  0
    9.6554  -16.7560   23.4505 C   0  0  0  0  0  0  0  0  0  0  0  0
    9.5831  -17.2015   22.2446 O   0  0  0  0  0  0  0  0  0  0  0  0
   13.8081  -17.3177   22.4955 O   0  0  0  0  0  0  0  0  0  0  0  0
   12.6405  -16.7329   23.0353 C   0  0  0  0  0  0  0  0  0  0  0  0
   11.8683  -17.8027   23.7453 C   0  0  2  0  0  0  0  0  0  0  0  0
   10.6231  -17.3448   24.3191 N   0  0  0  0  0  0  0  0  0  0  0  0
   12.7177  -18.4346   24.8301 C   0  0  0  0  0  0  0  0  0  0  0  0
   13.8855  -19.1094   24.5874 O   0  0  0  0  0  0  0  0  0  0  0  0
   12.3240  -18.3358   26.0414 O   0  0  0  0  0  0  0  0  0  0  0  0
  2  4  1  0
  2  1  1  6
  3  2  1  0
  4  5  1  6
  4  6  1  0
  6  7  2  0
  8  6  1  0
  8  9  1  0
  9 10  1  1
 10 11  1  0
 11 12  2  0
 12 13  1  0
 14 13  1  0
 15 14  2  0
 16 15  1  0
 17 18  1  0
 17 16  2  0
 18 19  2  0
 19 11  1  0
 19 14  1  0
 20  9  1  0
 20 21  2  0
 22 23  1  0
 24 23  1  1
 24 25  1  0
 24 26  1  0
 25 20  1  0
 26 27  1  0
 28 26  2  0
M  END
$$$$
