TWS.pdb
     RDKit          3D

 28 29  0  0  1  0  0  0  0  0999 V2000
    7.5631  -14.7811   16.2423 C   0  0  0  0  0  0  0  0  0  0  0  0
    8.0963  -14.9578   17.6654 C   0  0  1  0  0  0  0  0  0  0  0  0
    9.4657  -15.2043   17.6382 O   0  0  0  0  0  0  0  0  0  0  0  0
    7.7872  -13.6885   18.4782 C   0  0  2  0  0  0  0  0  0  0  0  0
    8.3712  -12.6122   17.8012 N   0  0  0  0  0  0  0  0  0  0  0  0
    8.2236  -13.8807   19.8858 C   0  0  0  0  0  0  0  0  0  0  0  0
    9.3720  -13.4699   20.1457 O   0  0  0  0  0  0  0  0  0  0  0  0
    7.4218  -14.4732   20.8641 N   0  0  0  0  0  0  0  0  0  0  0  0
    7.6445  -14.6734   22.2595 C   0  0  1  0  0  0  0  0  0  0  0  0
    6.4472  -14.5349   23.1654 C   0  0  0  0  0  0  0  0  0  0  0  0
    6.7193  -14.7329   24.5922 C   0  0  0  0  0  0  0  0  0  0  0  0
    6.7513  -15.8674   25.3879 C   0  0  0  0  0  0  0  0  0  0  0  0
    7.0162  -15.5452   26.6629 N   0  0  0  0  0  0  0  0  0  0  0  0
    7.1595  -14.1914   26.7189 C   0  0  0  0  0  0  0  0  0  0  0  0
    7.4320  -13.3579   27.7873 C   0  0  0  0  0  0  0  0  0  0  0  0
    7.5315  -11.9954   27.6191 C   0  0  0  0  0  0  0  0  0  0  0  0
    7.3551  -11.4405   26.3473 C   0  0  0  0  0  0  0  0  0  0  0  0
    7.0837  -12.3044   25.3013 C   0  0  0  0  0  0  0  0  0  0  0  0
    6.9827  -13.6700   25.4622 C   0  0  0  0  0  0  0  0  0  0  0  0
    8.4683  -15.8480   22.5012 C   0  0  0  0  0  0  0  0  0  0  0  0
    8.3531  -16.8155   21.6595 O   0  0  0  0  0  0  0  0  0  0  0  0
   12.5557  -17.0724   22.0749 O   0  0  0  0  0  0  0  0  0  0  0  0
   11.4190  -16.2440   22.2106 C   0  0  0  0  0  0  0  0  0  0  0  0
   10.5945  -16.7656   23.3477 C   0  0  2  0  0  0  0  0  0  0  0  0
    9.3816  -16.0160   23.5853 N   0  0  0  0  0  0  0  0  0  0  0  0
   11.4166  -16.8055   24.6205 C   0  0  0  0  0  0  0  0  0  0  0  0
   12.5661  -17.5380   24.7626 O   0  0  0  0  0  0  0  0  0  0  0  0
   11.0165  -16.1192   25.6210 O   0  0  0  0  0  0  0  0  0  0  0  0
  2  4  1  0
  2  1  1  6
  3  2  1  0
  4  5  1  6
  4  6  1  0
  6  7  2  0
  8  6  1  0
  8  9  1  0
  9 10  1  1
 10 11  1  0
 11 12  2  0
 12 13  1  0
 14 13  1  0
 15 14  2  0
 16 15  1  0
 17 18  1  0
 17 16  2  0
 18 19  2  0
 19 11  1  0
 19 14  1  0
 20  9  1  0
 20 21  2  0
 22 23  1  0
 24 23  1  6
 24 25  1  0
 24 26  1  0
 25 20  1  0
 26 27  1  0
 28 26  2  0
M  END
$$$$
