TWS.pdb
     RDKit          3D

 28 29  0  0  1  0  0  0  0  0999 V2000
    8.6615  -17.5407   19.9351 C   0  0  0  0  0  0  0  0  0  0  0  0
    8.2383  -16.1610   19.4267 C   0  0  1  0  0  0  0  0  0  0  0  0
    7.4755  -16.2885   18.2698 O   0  0  0  0  0  0  0  0  0  0  0  0
    7.4406  -15.4431   20.5292 C   0  0  2  0  0  0  0  0  0  0  0  0
    6.7876  -14.3612   19.9282 N   0  0  0  0  0  0  0  0  0  0  0  0
    8.3457  -15.1058   21.6587 C   0  0  0  0  0  0  0  0  0  0  0  0
    9.0781  -14.1137   21.4733 O   0  0  0  0  0  0  0  0  0  0  0  0
    8.3879  -15.8314   22.8515 N   0  0  0  0  0  0  0  0  0  0  0  0
    9.2052  -15.6762   24.0111 C   0  0  1  0  0  0  0  0  0  0  0  0
    8.5513  -15.9410   25.3436 C   0  0  0  0  0  0  0  0  0  0  0  0
    7.3822  -15.1080   25.6405 C   0  0  0  0  0  0  0  0  0  0  0  0
    6.0206  -15.3659   25.6125 C   0  0  0  0  0  0  0  0  0  0  0  0
    5.3228  -14.2668   25.9357 N   0  0  0  0  0  0  0  0  0  0  0  0
    6.2212  -13.2715   26.1782 C   0  0  0  0  0  0  0  0  0  0  0  0
    6.0274  -11.9517   26.5402 C   0  0  0  0  0  0  0  0  0  0  0  0
    7.0939  -11.1032   26.7334 C   0  0  0  0  0  0  0  0  0  0  0  0
    8.3976  -11.5803   26.5621 C   0  0  0  0  0  0  0  0  0  0  0  0
    8.5540  -12.9063   26.1996 C   0  0  0  0  0  0  0  0  0  0  0  0
    7.4907  -13.7620   26.0045 C   0  0  0  0  0  0  0  0  0  0  0  0
   10.5075  -16.2987   23.8286 C   0  0  0  0  0  0  0  0  0  0  0  0
   10.5659  -17.2785   22.9953 O   0  0  0  0  0  0  0  0  0  0  0  0
   12.5015  -18.3224   26.5075 O   0  0  0  0  0  0  0  0  0  0  0  0
   12.2664  -18.2420   25.1165 C   0  0  0  0  0  0  0  0  0  0  0  0
   12.7554  -16.9095   24.6368 C   0  0  2  0  0  0  0  0  0  0  0  0
   11.7127  -15.9189   24.4927 N   0  0  0  0  0  0  0  0  0  0  0  0
   13.4894  -17.0602   23.3192 C   0  0  0  0  0  0  0  0  0  0  0  0
   13.1407  -16.3959   22.1723 O   0  0  0  0  0  0  0  0  0  0  0  0
   14.4901  -17.8528   23.2713 O   0  0  0  0  0  0  0  0  0  0  0  0
  2  4  1  0
  2  1  1  1
  3  2  1  0
  4  5  1  6
  4  6  1  0
  6  7  2  0
  8  6  1  0
  8  9  1  0
  9 10  1  1
 10 11  1  0
 11 12  2  0
 12 13  1  0
 14 13  1  0
 15 14  2  0
 16 15  1  0
 17 18  1  0
 17 16  2  0
 18 19  2  0
 19 11  1  0
 19 14  1  0
 20  9  1  0
 20 21  2  0
 22 23  1  0
 24 23  1  6
 24 25  1  0
 24 26  1  0
 25 20  1  0
 26 27  1  0
 28 26  2  0
M  END
$$$$
