TWS.pdb
     RDKit          3D

 28 29  0  0  1  0  0  0  0  0999 V2000
    8.5288  -16.9838   19.6834 C   0  0  0  0  0  0  0  0  0  0  0  0
    8.3983  -15.5066   19.3071 C   0  0  1  0  0  0  0  0  0  0  0  0
    7.7437  -15.3780   18.0857 O   0  0  0  0  0  0  0  0  0  0  0  0
    7.6282  -14.7719   20.4181 C   0  0  2  0  0  0  0  0  0  0  0  0
    7.2350  -13.5337   19.8985 N   0  0  0  0  0  0  0  0  0  0  0  0
    8.4588  -14.7221   21.6496 C   0  0  0  0  0  0  0  0  0  0  0  0
    9.3211  -13.8216   21.6716 O   0  0  0  0  0  0  0  0  0  0  0  0
    8.3007  -15.6075   22.7183 N   0  0  0  0  0  0  0  0  0  0  0  0
    9.0530  -15.7639   23.9211 C   0  0  1  0  0  0  0  0  0  0  0  0
    8.2754  -16.0891   25.1713 C   0  0  0  0  0  0  0  0  0  0  0  0
    7.1931  -15.1540   25.4928 C   0  0  0  0  0  0  0  0  0  0  0  0
    5.8132  -15.2835   25.4811 C   0  0  0  0  0  0  0  0  0  0  0  0
    5.2254  -14.1278   25.8252 N   0  0  0  0  0  0  0  0  0  0  0  0
    6.2159  -13.2235   26.0654 C   0  0  0  0  0  0  0  0  0  0  0  0
    6.1510  -11.8957   26.4435 C   0  0  0  0  0  0  0  0  0  0  0  0
    7.2945  -11.1526   26.6305 C   0  0  0  0  0  0  0  0  0  0  0  0
    8.5455  -11.7473   26.4363 C   0  0  0  0  0  0  0  0  0  0  0  0
    8.5727  -13.0779   26.0582 C   0  0  0  0  0  0  0  0  0  0  0  0
    7.4317  -13.8283   25.8690 C   0  0  0  0  0  0  0  0  0  0  0  0
   10.2382  -16.5789   23.7024 C   0  0  0  0  0  0  0  0  0  0  0  0
   10.0480  -17.8435   23.5522 O   0  0  0  0  0  0  0  0  0  0  0  0
   14.1945  -15.2917   23.2310 O   0  0  0  0  0  0  0  0  0  0  0  0
   13.7988  -16.5151   22.6450 C   0  0  0  0  0  0  0  0  0  0  0  0
   12.6418  -17.0554   23.4287 C   0  0  2  0  0  0  0  0  0  0  0  0
   11.5808  -16.0977   23.6445 N   0  0  0  0  0  0  0  0  0  0  0  0
   13.1143  -17.5899   24.7661 C   0  0  0  0  0  0  0  0  0  0  0  0
   12.5473  -17.2493   25.9663 O   0  0  0  0  0  0  0  0  0  0  0  0
   14.0990  -18.4037   24.7787 O   0  0  0  0  0  0  0  0  0  0  0  0
  2  4  1  0
  2  1  1  1
  3  2  1  0
  4  5  1  6
  4  6  1  0
  6  7  2  0
  8  6  1  0
  8  9  1  0
  9 10  1  1
 10 11  1  0
 11 12  2  0
 12 13  1  0
 14 13  1  0
 15 14  2  0
 16 15  1  0
 17 18  1  0
 17 16  2  0
 18 19  2  0
 19 11  1  0
 19 14  1  0
 20  9  1  0
 20 21  2  0
 22 23  1  0
 24 23  1  1
 24 25  1  0
 24 26  1  0
 25 20  1  0
 26 27  1  0
 28 26  2  0
M  END
$$$$
