TWS.pdb
     RDKit          3D

 28 29  0  0  1  0  0  0  0  0999 V2000
    6.0028  -16.2682   19.7531 C   0  0  0  0  0  0  0  0  0  0  0  0
    7.1305  -16.4632   20.7685 C   0  0  1  0  0  0  0  0  0  0  0  0
    7.8194  -17.6424   20.5010 O   0  0  0  0  0  0  0  0  0  0  0  0
    8.0777  -15.2524   20.7050 C   0  0  2  0  0  0  0  0  0  0  0  0
    8.5040  -15.1308   19.3778 N   0  0  0  0  0  0  0  0  0  0  0  0
    9.1538  -15.4090   21.7181 C   0  0  0  0  0  0  0  0  0  0  0  0
   10.2920  -15.6201   21.2543 O   0  0  0  0  0  0  0  0  0  0  0  0
    8.9303  -15.3269   23.0944 N   0  0  0  0  0  0  0  0  0  0  0  0
    9.8306  -15.4420   24.1957 C   0  0  1  0  0  0  0  0  0  0  0  0
    9.5706  -14.5486   25.3821 C   0  0  0  0  0  0  0  0  0  0  0  0
    8.1561  -14.3269   25.6970 C   0  0  0  0  0  0  0  0  0  0  0  0
    7.0538  -15.1671   25.6834 C   0  0  0  0  0  0  0  0  0  0  0  0
    5.9420  -14.4964   26.0205 N   0  0  0  0  0  0  0  0  0  0  0  0
    6.3028  -13.2042   26.2580 C   0  0  0  0  0  0  0  0  0  0  0  0
    5.5434  -12.1106   26.6292 C   0  0  0  0  0  0  0  0  0  0  0  0
    6.1197  -10.8744   26.8146 C   0  0  0  0  0  0  0  0  0  0  0  0
    7.4967  -10.7175   26.6256 C   0  0  0  0  0  0  0  0  0  0  0  0
    8.2255  -11.8333   26.2543 C   0  0  0  0  0  0  0  0  0  0  0  0
    7.6553  -13.0746   26.0669 C   0  0  0  0  0  0  0  0  0  0  0  0
   10.0963  -16.8353   24.5194 C   0  0  0  0  0  0  0  0  0  0  0  0
    9.1015  -17.6476   24.4283 O   0  0  0  0  0  0  0  0  0  0  0  0
   13.2563  -18.8705   23.6822 O   0  0  0  0  0  0  0  0  0  0  0  0
   12.0970  -19.5689   24.0880 C   0  0  0  0  0  0  0  0  0  0  0  0
   11.4433  -18.7892   25.1878 C   0  0  2  0  0  0  0  0  0  0  0  0
   11.3549  -17.3700   24.9286 N   0  0  0  0  0  0  0  0  0  0  0  0
   12.1704  -19.0152   26.4985 C   0  0  0  0  0  0  0  0  0  0  0  0
   12.6516  -18.0031   27.2873 O   0  0  0  0  0  0  0  0  0  0  0  0
   12.3480  -20.2173   26.8925 O   0  0  0  0  0  0  0  0  0  0  0  0
  2  4  1  0
  2  1  1  6
  3  2  1  0
  4  5  1  6
  4  6  1  0
  6  7  2  0
  8  6  1  0
  8  9  1  0
  9 10  1  1
 10 11  1  0
 11 12  2  0
 12 13  1  0
 14 13  1  0
 15 14  2  0
 16 15  1  0
 17 18  1  0
 17 16  2  0
 18 19  2  0
 19 11  1  0
 19 14  1  0
 20  9  1  0
 20 21  2  0
 22 23  1  0
 24 23  1  6
 24 25  1  0
 24 26  1  0
 25 20  1  0
 26 27  1  0
 28 26  2  0
M  END
$$$$
