DCV.pdb
     RDKit          3D

 22 21  0  0  1  0  0  0  0  0999 V2000
    9.4486  -17.7880   20.0700 N   0  0  0  0  0  0  0  0  0  0  0  0
    8.8473  -16.4792   20.0576 C   0  0  1  0  0  0  0  0  0  0  0  0
    7.8715  -16.3211   18.8956 C   0  0  0  0  0  0  0  0  0  0  0  0
    8.5701  -16.5533   17.6043 C   0  0  0  0  0  0  0  0  0  0  0  0
    9.7285  -17.0079   17.6211 O   0  0  0  0  0  0  0  0  0  0  0  0
    8.1213  -16.1762   21.2976 C   0  0  0  0  0  0  0  0  0  0  0  0
    7.4431  -15.1168   21.3397 O   0  0  0  0  0  0  0  0  0  0  0  0
    7.9187  -16.2598   16.4216 O   0  0  0  0  0  0  0  0  0  0  0  0
    8.1302  -16.9977   22.4582 N   0  0  0  0  0  0  0  0  0  0  0  0
    7.4054  -16.6278   23.6517 C   0  0  1  0  0  0  0  0  0  0  0  0
    7.0063  -17.8571   24.4515 C   0  0  0  0  0  0  0  0  0  0  0  0
    6.2347  -17.3893   26.0209 S   0  0  0  0  0  0  0  0  0  0  0  0
    8.1836  -15.6821   24.4984 C   0  0  0  0  0  0  0  0  0  0  0  0
    9.4040  -15.8553   24.7318 O   0  0  0  0  0  0  0  0  0  0  0  0
    7.2833  -11.7100   24.7705 C   0  0  0  0  0  0  0  0  0  0  0  0
    7.4243  -12.3964   26.0991 C   0  0  1  0  0  0  0  0  0  0  0  0
    6.0949  -12.6021   26.7819 C   0  0  0  0  0  0  0  0  0  0  0  0
    8.2266  -13.6659   26.0104 C   0  0  2  0  0  0  0  0  0  0  0  0
    7.5374  -14.5501   25.0622 N   0  0  0  0  0  0  0  0  0  0  0  0
    8.3764  -14.3313   27.3296 C   0  0  0  0  0  0  0  0  0  0  0  0
    7.6703  -15.3440   27.5680 O   0  0  0  0  0  0  0  0  0  0  0  0
    9.2435  -13.9061   28.3104 O   0  0  0  0  0  0  0  0  0  0  0  0
  2  1  1  1
  2  3  1  0
  4  3  1  0
  4  8  1  0
  5  4  2  0
  6  2  1  0
  6  9  1  0
  7  6  2  0
 10  9  1  0
 10 13  1  0
 10 11  1  1
 11 12  1  0
 13 19  1  0
 14 13  2  0
 16 15  1  6
 16 17  1  0
 18 20  1  0
 18 16  1  0
 18 19  1  6
 20 22  1  0
 21 20  2  0
M  END
$$$$
