DCV.pdb
     RDKit          3D

 22 21  0  0  1  0  0  0  0  0999 V2000
   10.0884  -19.2305   20.4110 N   0  0  0  0  0  0  0  0  0  0  0  0
   10.4685  -18.0191   21.0912 C   0  0  1  0  0  0  0  0  0  0  0  0
   11.0216  -16.9805   20.1202 C   0  0  0  0  0  0  0  0  0  0  0  0
   12.4242  -17.3134   19.7577 C   0  0  0  0  0  0  0  0  0  0  0  0
   13.2442  -17.5326   20.6680 O   0  0  0  0  0  0  0  0  0  0  0  0
    9.3521  -17.4027   21.8195 C   0  0  0  0  0  0  0  0  0  0  0  0
    8.3913  -16.9448   21.1477 O   0  0  0  0  0  0  0  0  0  0  0  0
   12.7818  -17.3710   18.4243 O   0  0  0  0  0  0  0  0  0  0  0  0
    9.2793  -17.2861   23.2348 N   0  0  0  0  0  0  0  0  0  0  0  0
    8.1584  -16.6467   23.8838 C   0  0  1  0  0  0  0  0  0  0  0  0
    7.2662  -17.6702   24.5669 C   0  0  0  0  0  0  0  0  0  0  0  0
    8.1378  -18.4880   25.9266 S   0  0  0  0  0  0  0  0  0  0  0  0
    8.6022  -15.6084   24.8541 C   0  0  0  0  0  0  0  0  0  0  0  0
    9.7553  -15.6158   25.3482 O   0  0  0  0  0  0  0  0  0  0  0  0
    7.1589  -11.5526   27.3947 C   0  0  0  0  0  0  0  0  0  0  0  0
    6.9782  -12.5541   26.2899 C   0  0  1  0  0  0  0  0  0  0  0  0
    6.8136  -11.8970   24.9420 C   0  0  0  0  0  0  0  0  0  0  0  0
    8.0501  -13.6097   26.2871 C   0  0  2  0  0  0  0  0  0  0  0  0
    7.7046  -14.5770   25.2380 N   0  0  0  0  0  0  0  0  0  0  0  0
    8.1757  -14.2888   27.6018 C   0  0  0  0  0  0  0  0  0  0  0  0
    7.4251  -15.2693   27.8383 O   0  0  0  0  0  0  0  0  0  0  0  0
    9.0664  -13.9096   28.5804 O   0  0  0  0  0  0  0  0  0  0  0  0
  2  1  1  6
  2  3  1  0
  4  3  1  0
  4  8  1  0
  5  4  2  0
  6  2  1  0
  6  9  1  0
  7  6  2  0
 10  9  1  0
 10 13  1  0
 10 11  1  1
 11 12  1  0
 13 19  1  0
 14 13  2  0
 16 15  1  1
 16 17  1  0
 18 20  1  0
 18 16  1  0
 18 19  1  6
 20 22  1  0
 21 20  2  0
M  END
$$$$
