DCV.pdb
     RDKit          3D

 22 21  0  0  1  0  0  0  0  0999 V2000
   10.2462  -17.9632   20.2802 N   0  0  0  0  0  0  0  0  0  0  0  0
   11.0924  -17.2359   21.1911 C   0  0  1  0  0  0  0  0  0  0  0  0
   11.6760  -15.9866   20.5386 C   0  0  0  0  0  0  0  0  0  0  0  0
   12.6524  -16.3672   19.4845 C   0  0  0  0  0  0  0  0  0  0  0  0
   13.1046  -15.4815   18.7363 O   0  0  0  0  0  0  0  0  0  0  0  0
   10.3875  -16.8180   22.4098 C   0  0  0  0  0  0  0  0  0  0  0  0
   10.5016  -15.6190   22.7749 O   0  0  0  0  0  0  0  0  0  0  0  0
   13.0326  -17.6900   19.3618 O   0  0  0  0  0  0  0  0  0  0  0  0
    9.5824  -17.6750   23.2094 N   0  0  0  0  0  0  0  0  0  0  0  0
    8.7988  -17.1654   24.3107 C   0  0  1  0  0  0  0  0  0  0  0  0
    7.6515  -18.1044   24.6453 C   0  0  0  0  0  0  0  0  0  0  0  0
    6.5777  -17.3917   25.9166 S   0  0  0  0  0  0  0  0  0  0  0  0
    9.6380  -16.9142   25.5146 C   0  0  0  0  0  0  0  0  0  0  0  0
   10.6201  -17.6414   25.7987 O   0  0  0  0  0  0  0  0  0  0  0  0
   10.4488  -13.7696   29.3074 C   0  0  0  0  0  0  0  0  0  0  0  0
    9.6499  -14.2217   28.1185 C   0  0  1  0  0  0  0  0  0  0  0  0
    9.5491  -13.1549   27.0566 C   0  0  0  0  0  0  0  0  0  0  0  0
   10.1295  -15.5368   27.5674 C   0  0  2  0  0  0  0  0  0  0  0  0
    9.3279  -15.8250   26.3715 N   0  0  0  0  0  0  0  0  0  0  0  0
   10.0080  -16.6395   28.5548 C   0  0  0  0  0  0  0  0  0  0  0  0
    8.9024  -17.2300   28.6532 O   0  0  0  0  0  0  0  0  0  0  0  0
   11.0348  -17.0560   29.3715 O   0  0  0  0  0  0  0  0  0  0  0  0
  2  1  1  6
  2  3  1  0
  4  3  1  0
  4  8  1  0
  5  4  2  0
  6  2  1  0
  6  9  1  0
  7  6  2  0
 10  9  1  0
 10 13  1  0
 10 11  1  1
 11 12  1  0
 13 19  1  0
 14 13  2  0
 16 15  1  1
 16 17  1  0
 18 20  1  0
 18 16  1  0
 18 19  1  6
 20 22  1  0
 21 20  2  0
M  END
$$$$
