DCV.pdb
     RDKit          3D

 22 21  0  0  1  0  0  0  0  0999 V2000
    9.4389  -17.7644   20.2371 N   0  0  0  0  0  0  0  0  0  0  0  0
    8.2723  -16.9771   19.9309 C   0  0  1  0  0  0  0  0  0  0  0  0
    7.3499  -17.6981   18.9528 C   0  0  0  0  0  0  0  0  0  0  0  0
    8.0133  -17.8369   17.6299 C   0  0  0  0  0  0  0  0  0  0  0  0
    9.1439  -18.3542   17.5761 O   0  0  0  0  0  0  0  0  0  0  0  0
    7.4855  -16.6402   21.1243 C   0  0  0  0  0  0  0  0  0  0  0  0
    6.4719  -15.9092   20.9751 O   0  0  0  0  0  0  0  0  0  0  0  0
    7.3609  -17.3899   16.4969 O   0  0  0  0  0  0  0  0  0  0  0  0
    7.7888  -17.0829   22.4412 N   0  0  0  0  0  0  0  0  0  0  0  0
    7.0592  -16.5962   23.5890 C   0  0  1  0  0  0  0  0  0  0  0  0
    6.6356  -17.7422   24.4930 C   0  0  0  0  0  0  0  0  0  0  0  0
    8.0759  -18.6426   25.1193 S   0  0  0  0  0  0  0  0  0  0  0  0
    7.8435  -15.5881   24.3539 C   0  0  0  0  0  0  0  0  0  0  0  0
    9.0957  -15.5410   24.2935 O   0  0  0  0  0  0  0  0  0  0  0  0
    7.5612  -11.6207   27.3628 C   0  0  0  0  0  0  0  0  0  0  0  0
    6.9359  -12.6358   26.4491 C   0  0  1  0  0  0  0  0  0  0  0  0
    6.2503  -11.9973   25.2668 C   0  0  0  0  0  0  0  0  0  0  0  0
    7.9007  -13.7150   26.0395 C   0  0  2  0  0  0  0  0  0  0  0  0
    7.1666  -14.6496   25.1772 N   0  0  0  0  0  0  0  0  0  0  0  0
    8.4787  -14.4272   27.2074 C   0  0  0  0  0  0  0  0  0  0  0  0
    7.8654  -15.4292   27.6556 O   0  0  0  0  0  0  0  0  0  0  0  0
    9.6483  -14.0566   27.8314 O   0  0  0  0  0  0  0  0  0  0  0  0
  2  1  1  1
  2  3  1  0
  4  3  1  0
  4  8  1  0
  5  4  2  0
  6  2  1  0
  6  9  1  0
  7  6  2  0
 10  9  1  0
 10 13  1  0
 10 11  1  1
 11 12  1  0
 13 19  1  0
 14 13  2  0
 16 15  1  6
 16 17  1  0
 18 20  1  0
 18 16  1  0
 18 19  1  6
 20 22  1  0
 21 20  2  0
M  END
$$$$
