DCV.pdb
     RDKit          3D

 22 21  0  0  1  0  0  0  0  0999 V2000
   11.5380  -16.7827   20.0193 N   0  0  0  0  0  0  0  0  0  0  0  0
   10.9651  -17.5381   21.1037 C   0  0  1  0  0  0  0  0  0  0  0  0
   11.9386  -18.5868   21.6325 C   0  0  0  0  0  0  0  0  0  0  0  0
   11.9659  -19.7644   20.7258 C   0  0  0  0  0  0  0  0  0  0  0  0
   11.2722  -19.7435   19.6928 O   0  0  0  0  0  0  0  0  0  0  0  0
   10.5601  -16.6917   22.2334 C   0  0  0  0  0  0  0  0  0  0  0  0
   11.1925  -15.6203   22.4237 O   0  0  0  0  0  0  0  0  0  0  0  0
   12.7577  -20.8491   21.0510 O   0  0  0  0  0  0  0  0  0  0  0  0
    9.5004  -16.9979   23.1307 N   0  0  0  0  0  0  0  0  0  0  0  0
    9.1257  -16.0949   24.1941 C   0  0  1  0  0  0  0  0  0  0  0  0
    7.6203  -16.0926   24.4037 C   0  0  0  0  0  0  0  0  0  0  0  0
    7.0026  -17.7684   24.6994 S   0  0  0  0  0  0  0  0  0  0  0  0
    9.8310  -16.4170   25.4650 C   0  0  0  0  0  0  0  0  0  0  0  0
   10.4687  -17.4872   25.6137 O   0  0  0  0  0  0  0  0  0  0  0  0
   11.0861  -13.3597   28.0334 C   0  0  0  0  0  0  0  0  0  0  0  0
   10.3695  -14.5251   28.6534 C   0  0  1  0  0  0  0  0  0  0  0  0
    8.9467  -14.1902   29.0266 C   0  0  0  0  0  0  0  0  0  0  0  0
   10.4654  -15.7723   27.8176 C   0  0  2  0  0  0  0  0  0  0  0  0
    9.7875  -15.4958   26.5449 N   0  0  0  0  0  0  0  0  0  0  0  0
    9.8556  -16.9485   28.4885 C   0  0  0  0  0  0  0  0  0  0  0  0
    8.6743  -17.2575   28.1886 O   0  0  0  0  0  0  0  0  0  0  0  0
   10.5062  -17.7237   29.4216 O   0  0  0  0  0  0  0  0  0  0  0  0
  2  1  1  6
  2  3  1  0
  4  3  1  0
  4  8  1  0
  5  4  2  0
  6  2  1  0
  6  9  1  0
  7  6  2  0
 10  9  1  0
 10 13  1  0
 10 11  1  1
 11 12  1  0
 13 19  1  0
 14 13  2  0
 16 15  1  6
 16 17  1  0
 18 20  1  0
 18 16  1  0
 18 19  1  6
 20 22  1  0
 21 20  2  0
M  END
$$$$
