DCV.pdb
     RDKit          3D

 22 21  0  0  1  0  0  0  0  0999 V2000
    9.1283  -18.6224   19.8300 N   0  0  0  0  0  0  0  0  0  0  0  0
    9.8264  -17.8050   20.7888 C   0  0  1  0  0  0  0  0  0  0  0  0
   10.7787  -16.8284   20.1056 C   0  0  0  0  0  0  0  0  0  0  0  0
   12.0028  -17.5390   19.6513 C   0  0  0  0  0  0  0  0  0  0  0  0
   12.3409  -17.4498   18.4570 O   0  0  0  0  0  0  0  0  0  0  0  0
    8.9174  -17.0250   21.6385 C   0  0  0  0  0  0  0  0  0  0  0  0
    8.1946  -16.1555   21.0858 O   0  0  0  0  0  0  0  0  0  0  0  0
   12.7322  -18.2782   20.5628 O   0  0  0  0  0  0  0  0  0  0  0  0
    8.7956  -17.1830   23.0464 N   0  0  0  0  0  0  0  0  0  0  0  0
    7.8281  -16.4303   23.8106 C   0  0  1  0  0  0  0  0  0  0  0  0
    6.8614  -17.3558   24.5309 C   0  0  0  0  0  0  0  0  0  0  0  0
    7.7359  -18.4284   25.6980 S   0  0  0  0  0  0  0  0  0  0  0  0
    8.4858  -15.5064   24.7752 C   0  0  0  0  0  0  0  0  0  0  0  0
    9.6752  -15.6691   25.1396 O   0  0  0  0  0  0  0  0  0  0  0  0
    7.2795  -11.5536   25.1791 C   0  0  0  0  0  0  0  0  0  0  0  0
    7.4125  -12.3378   26.4533 C   0  0  1  0  0  0  0  0  0  0  0  0
    6.0735  -12.7255   27.0300 C   0  0  0  0  0  0  0  0  0  0  0  0
    8.3393  -13.5144   26.3125 C   0  0  2  0  0  0  0  0  0  0  0  0
    7.7569  -14.4081   25.3037 N   0  0  0  0  0  0  0  0  0  0  0  0
    8.5348  -14.2345   27.5965 C   0  0  0  0  0  0  0  0  0  0  0  0
    9.2399  -13.6885   28.4828 O   0  0  0  0  0  0  0  0  0  0  0  0
    7.9897  -15.4670   27.8768 O   0  0  0  0  0  0  0  0  0  0  0  0
  2  1  1  6
  2  3  1  0
  4  3  1  0
  4  8  1  0
  5  4  2  0
  6  2  1  0
  6  9  1  0
  7  6  2  0
 10  9  1  0
 10 13  1  0
 10 11  1  1
 11 12  1  0
 13 19  1  0
 14 13  2  0
 16 15  1  6
 16 17  1  0
 18 20  1  0
 18 16  1  0
 18 19  1  6
 20 22  1  0
 21 20  2  0
M  END
$$$$
