DCV.pdb
     RDKit          3D

 22 21  0  0  1  0  0  0  0  0999 V2000
   10.3694  -16.5169   18.6691 N   0  0  0  0  0  0  0  0  0  0  0  0
   10.7679  -15.9572   19.9350 C   0  0  1  0  0  0  0  0  0  0  0  0
   11.4842  -14.6221   19.7574 C   0  0  0  0  0  0  0  0  0  0  0  0
   12.8800  -14.8462   19.2978 C   0  0  0  0  0  0  0  0  0  0  0  0
   13.2963  -14.2134   18.3104 O   0  0  0  0  0  0  0  0  0  0  0  0
    9.6336  -15.7406   20.8422 C   0  0  0  0  0  0  0  0  0  0  0  0
    8.6255  -15.1364   20.3918 O   0  0  0  0  0  0  0  0  0  0  0  0
   13.6776  -15.7482   19.9755 O   0  0  0  0  0  0  0  0  0  0  0  0
    9.5932  -16.1665   22.1983 N   0  0  0  0  0  0  0  0  0  0  0  0
    8.4113  -15.9924   23.0103 C   0  0  1  0  0  0  0  0  0  0  0  0
    7.7940  -17.3337   23.3711 C   0  0  0  0  0  0  0  0  0  0  0  0
    8.8265  -18.2254   24.5612 S   0  0  0  0  0  0  0  0  0  0  0  0
    8.6977  -15.2005   24.2381 C   0  0  0  0  0  0  0  0  0  0  0  0
    9.8510  -15.1348   24.7277 O   0  0  0  0  0  0  0  0  0  0  0  0
    6.7045  -12.2197   27.7144 C   0  0  0  0  0  0  0  0  0  0  0  0
    6.6631  -12.9136   26.3829 C   0  0  1  0  0  0  0  0  0  0  0  0
    6.4484  -11.9509   25.2414 C   0  0  0  0  0  0  0  0  0  0  0  0
    7.8509  -13.8101   26.1623 C   0  0  2  0  0  0  0  0  0  0  0  0
    7.6450  -14.4966   24.8809 N   0  0  0  0  0  0  0  0  0  0  0  0
    8.0249  -14.7953   27.2597 C   0  0  0  0  0  0  0  0  0  0  0  0
    7.3604  -15.8616   27.2120 O   0  0  0  0  0  0  0  0  0  0  0  0
    8.8716  -14.6122   28.3294 O   0  0  0  0  0  0  0  0  0  0  0  0
  2  1  1  6
  2  3  1  0
  4  3  1  0
  4  8  1  0
  5  4  2  0
  6  2  1  0
  6  9  1  0
  7  6  2  0
 10  9  1  0
 10 13  1  0
 10 11  1  1
 11 12  1  0
 13 19  1  0
 14 13  2  0
 16 15  1  1
 16 17  1  0
 18 20  1  0
 18 16  1  0
 18 19  1  6
 20 22  1  0
 21 20  2  0
M  END
$$$$
