DCV.pdb
     RDKit          3D

 22 21  0  0  1  0  0  0  0  0999 V2000
    5.8781  -16.5113   21.2493 N   0  0  0  0  0  0  0  0  0  0  0  0
    7.2301  -16.0490   21.0671 C   0  0  1  0  0  0  0  0  0  0  0  0
    7.4025  -15.3317   19.7318 C   0  0  0  0  0  0  0  0  0  0  0  0
    8.7853  -15.5239   19.2214 C   0  0  0  0  0  0  0  0  0  0  0  0
    9.7409  -15.3755   20.0047 O   0  0  0  0  0  0  0  0  0  0  0  0
    7.6643  -15.1318   22.1286 C   0  0  0  0  0  0  0  0  0  0  0  0
    7.6668  -13.8985   21.8773 O   0  0  0  0  0  0  0  0  0  0  0  0
    8.9749  -15.8613   17.8949 O   0  0  0  0  0  0  0  0  0  0  0  0
    8.0837  -15.5396   23.4247 N   0  0  0  0  0  0  0  0  0  0  0  0
    8.3682  -14.5780   24.4644 C   0  0  1  0  0  0  0  0  0  0  0  0
    7.2245  -13.5893   24.6219 C   0  0  0  0  0  0  0  0  0  0  0  0
    6.4247  -13.7722   26.2356 S   0  0  0  0  0  0  0  0  0  0  0  0
    8.6686  -15.2423   25.7625 C   0  0  0  0  0  0  0  0  0  0  0  0
    7.9427  -16.1578   26.2196 O   0  0  0  0  0  0  0  0  0  0  0  0
   12.5318  -16.0574   28.7880 C   0  0  0  0  0  0  0  0  0  0  0  0
   11.8227  -15.2707   27.7228 C   0  0  1  0  0  0  0  0  0  0  0  0
   12.5861  -15.2499   26.4218 C   0  0  0  0  0  0  0  0  0  0  0  0
   10.3927  -15.7018   27.5427 C   0  0  2  0  0  0  0  0  0  0  0  0
    9.8047  -14.8371   26.5120 N   0  0  0  0  0  0  0  0  0  0  0  0
    9.6142  -15.6130   28.8042 C   0  0  0  0  0  0  0  0  0  0  0  0
    9.0198  -14.5353   29.0612 O   0  0  0  0  0  0  0  0  0  0  0  0
    9.5030  -16.6415   29.7124 O   0  0  0  0  0  0  0  0  0  0  0  0
  2  1  1  1
  2  3  1  0
  4  3  1  0
  4  8  1  0
  5  4  2  0
  6  2  1  0
  6  9  1  0
  7  6  2  0
 10  9  1  0
 10 13  1  0
 10 11  1  1
 11 12  1  0
 13 19  1  0
 14 13  2  0
 16 15  1  1
 16 17  1  0
 18 20  1  0
 18 16  1  0
 18 19  1  6
 20 22  1  0
 21 20  2  0
M  END
$$$$
