DCV.pdb
     RDKit          3D

 22 21  0  0  1  0  0  0  0  0999 V2000
    8.6871  -14.7431   20.7827 N   0  0  0  0  0  0  0  0  0  0  0  0
    7.9796  -15.3964   21.8538 C   0  0  1  0  0  0  0  0  0  0  0  0
    8.2163  -16.9034   21.8454 C   0  0  0  0  0  0  0  0  0  0  0  0
    7.6267  -17.5082   20.6222 C   0  0  0  0  0  0  0  0  0  0  0  0
    7.5285  -18.7468   20.5518 O   0  0  0  0  0  0  0  0  0  0  0  0
    8.3613  -14.8897   23.1783 C   0  0  0  0  0  0  0  0  0  0  0  0
    9.5876  -14.7525   23.4260 O   0  0  0  0  0  0  0  0  0  0  0  0
    7.2039  -16.6834   19.5974 O   0  0  0  0  0  0  0  0  0  0  0  0
    7.4403  -14.5418   24.2044 N   0  0  0  0  0  0  0  0  0  0  0  0
    7.8887  -14.1065   25.5067 C   0  0  1  0  0  0  0  0  0  0  0  0
    6.7544  -13.4645   26.2885 C   0  0  0  0  0  0  0  0  0  0  0  0
    6.1492  -11.9770   25.4529 S   0  0  0  0  0  0  0  0  0  0  0  0
    8.4935  -15.2235   26.2833 C   0  0  0  0  0  0  0  0  0  0  0  0
    7.9602  -16.3579   26.3333 O   0  0  0  0  0  0  0  0  0  0  0  0
   12.6163  -17.0073   28.2753 C   0  0  0  0  0  0  0  0  0  0  0  0
   11.8300  -15.9904   27.4982 C   0  0  1  0  0  0  0  0  0  0  0  0
   12.1643  -16.0094   26.0272 C   0  0  0  0  0  0  0  0  0  0  0  0
   10.3504  -16.0882   27.7521 C   0  0  2  0  0  0  0  0  0  0  0  0
    9.7066  -15.0107   26.9903 N   0  0  0  0  0  0  0  0  0  0  0  0
   10.0177  -15.9775   29.1951 C   0  0  0  0  0  0  0  0  0  0  0  0
    9.7768  -14.8358   29.6636 O   0  0  0  0  0  0  0  0  0  0  0  0
    9.9565  -17.0514   30.0541 O   0  0  0  0  0  0  0  0  0  0  0  0
  2  1  1  6
  2  3  1  0
  4  3  1  0
  4  8  1  0
  5  4  2  0
  6  2  1  0
  6  9  1  0
  7  6  2  0
 10  9  1  0
 10 13  1  0
 10 11  1  1
 11 12  1  0
 13 19  1  0
 14 13  2  0
 16 15  1  1
 16 17  1  0
 18 20  1  0
 18 16  1  0
 18 19  1  6
 20 22  1  0
 21 20  2  0
M  END
$$$$
