DCV.pdb
     RDKit          3D

 22 21  0  0  1  0  0  0  0  0999 V2000
    9.3646  -17.7936   20.3023 N   0  0  0  0  0  0  0  0  0  0  0  0
    8.2448  -16.9256   20.0429 C   0  0  1  0  0  0  0  0  0  0  0  0
    7.2340  -17.5790   19.1056 C   0  0  0  0  0  0  0  0  0  0  0  0
    7.9040  -18.0150   17.8524 C   0  0  0  0  0  0  0  0  0  0  0  0
    8.2131  -17.1562   17.0064 O   0  0  0  0  0  0  0  0  0  0  0  0
    7.5341  -16.5345   21.2671 C   0  0  0  0  0  0  0  0  0  0  0  0
    6.5044  -15.8206   21.1483 O   0  0  0  0  0  0  0  0  0  0  0  0
    8.1661  -19.3577   17.6584 O   0  0  0  0  0  0  0  0  0  0  0  0
    7.9283  -16.9065   22.5817 N   0  0  0  0  0  0  0  0  0  0  0  0
    7.1897  -16.4704   23.7440 C   0  0  1  0  0  0  0  0  0  0  0  0
    6.7586  -17.6548   24.5933 C   0  0  0  0  0  0  0  0  0  0  0  0
    7.9252  -17.9429   25.9473 S   0  0  0  0  0  0  0  0  0  0  0  0
    7.9683  -15.4975   24.5589 C   0  0  0  0  0  0  0  0  0  0  0  0
    9.2226  -15.4783   24.5443 O   0  0  0  0  0  0  0  0  0  0  0  0
    6.8152  -11.7200   24.9823 C   0  0  0  0  0  0  0  0  0  0  0  0
    7.1136  -12.3625   26.3068 C   0  0  1  0  0  0  0  0  0  0  0  0
    5.8619  -12.6592   27.0948 C   0  0  0  0  0  0  0  0  0  0  0  0
    8.0084  -13.5649   26.1762 C   0  0  2  0  0  0  0  0  0  0  0  0
    7.2834  -14.5615   25.3783 N   0  0  0  0  0  0  0  0  0  0  0  0
    8.3890  -14.1300   27.4958 C   0  0  0  0  0  0  0  0  0  0  0  0
    7.8097  -15.1762   27.8837 O   0  0  0  0  0  0  0  0  0  0  0  0
    9.3402  -13.5768   28.3229 O   0  0  0  0  0  0  0  0  0  0  0  0
  2  1  1  1
  2  3  1  0
  4  3  1  0
  4  8  1  0
  5  4  2  0
  6  2  1  0
  6  9  1  0
  7  6  2  0
 10  9  1  0
 10 13  1  0
 10 11  1  1
 11 12  1  0
 13 19  1  0
 14 13  2  0
 16 15  1  6
 16 17  1  0
 18 20  1  0
 18 16  1  0
 18 19  1  6
 20 22  1  0
 21 20  2  0
M  END
$$$$
