DCV.pdb
     RDKit          3D

 22 21  0  0  1  0  0  0  0  0999 V2000
    9.3508  -17.5746   18.8281 N   0  0  0  0  0  0  0  0  0  0  0  0
    9.8845  -17.3551   20.1478 C   0  0  1  0  0  0  0  0  0  0  0  0
   11.2462  -16.6694   20.0953 C   0  0  0  0  0  0  0  0  0  0  0  0
   12.2884  -17.6325   19.6528 C   0  0  0  0  0  0  0  0  0  0  0  0
   11.9421  -18.7788   19.3139 O   0  0  0  0  0  0  0  0  0  0  0  0
    9.0017  -16.5358   20.9881 C   0  0  0  0  0  0  0  0  0  0  0  0
    8.4760  -15.5157   20.4714 O   0  0  0  0  0  0  0  0  0  0  0  0
   13.6109  -17.2329   19.6287 O   0  0  0  0  0  0  0  0  0  0  0  0
    8.6977  -16.8142   22.3490 N   0  0  0  0  0  0  0  0  0  0  0  0
    7.7526  -16.0130   23.0916 C   0  0  1  0  0  0  0  0  0  0  0  0
    6.4973  -16.8072   23.4134 C   0  0  0  0  0  0  0  0  0  0  0  0
    6.8819  -18.2374   24.4545 S   0  0  0  0  0  0  0  0  0  0  0  0
    8.3559  -15.4603   24.3355 C   0  0  0  0  0  0  0  0  0  0  0  0
    9.4443  -15.8892   24.7888 O   0  0  0  0  0  0  0  0  0  0  0  0
    7.6477  -11.5945   25.6204 C   0  0  0  0  0  0  0  0  0  0  0  0
    7.4240  -12.6691   26.6457 C   0  0  1  0  0  0  0  0  0  0  0  0
    5.9587  -12.9223   26.9004 C   0  0  0  0  0  0  0  0  0  0  0  0
    8.1788  -13.9321   26.3320 C   0  0  2  0  0  0  0  0  0  0  0  0
    7.6904  -14.4196   25.0360 N   0  0  0  0  0  0  0  0  0  0  0  0
    8.0017  -14.9695   27.3797 C   0  0  0  0  0  0  0  0  0  0  0  0
    7.0947  -15.8256   27.2212 O   0  0  0  0  0  0  0  0  0  0  0  0
    8.7721  -15.0516   28.5175 O   0  0  0  0  0  0  0  0  0  0  0  0
  2  1  1  6
  2  3  1  0
  4  3  1  0
  4  8  1  0
  5  4  2  0
  6  2  1  0
  6  9  1  0
  7  6  2  0
 10  9  1  0
 10 13  1  0
 10 11  1  1
 11 12  1  0
 13 19  1  0
 14 13  2  0
 16 15  1  6
 16 17  1  0
 18 20  1  0
 18 16  1  0
 18 19  1  6
 20 22  1  0
 21 20  2  0
M  END
$$$$
