DCV.pdb
     RDKit          3D

 22 21  0  0  1  0  0  0  0  0999 V2000
    8.6546  -17.5072   18.9090 N   0  0  0  0  0  0  0  0  0  0  0  0
    9.3663  -17.2534   20.1353 C   0  0  1  0  0  0  0  0  0  0  0  0
   10.4335  -16.1788   19.9523 C   0  0  0  0  0  0  0  0  0  0  0  0
   11.7762  -16.8051   19.8316 C   0  0  0  0  0  0  0  0  0  0  0  0
   11.9303  -17.7467   19.0326 O   0  0  0  0  0  0  0  0  0  0  0  0
    8.4819  -16.8262   21.2270 C   0  0  0  0  0  0  0  0  0  0  0  0
    7.4763  -16.1289   20.9324 O   0  0  0  0  0  0  0  0  0  0  0  0
   12.8161  -16.3282   20.6065 O   0  0  0  0  0  0  0  0  0  0  0  0
    8.6817  -17.1454   22.5982 N   0  0  0  0  0  0  0  0  0  0  0  0
    7.7343  -16.7464   23.6130 C   0  0  1  0  0  0  0  0  0  0  0  0
    7.2417  -17.9478   24.4030 C   0  0  0  0  0  0  0  0  0  0  0  0
    6.0803  -17.4434   25.6968 S   0  0  0  0  0  0  0  0  0  0  0  0
    8.3046  -15.7176   24.5256 C   0  0  0  0  0  0  0  0  0  0  0  0
    9.5102  -15.7373   24.8721 O   0  0  0  0  0  0  0  0  0  0  0  0
    7.1789  -11.7476   27.3475 C   0  0  0  0  0  0  0  0  0  0  0  0
    6.8825  -12.6938   26.2193 C   0  0  1  0  0  0  0  0  0  0  0  0
    6.6070  -11.9721   24.9235 C   0  0  0  0  0  0  0  0  0  0  0  0
    7.9324  -13.7609   26.0702 C   0  0  2  0  0  0  0  0  0  0  0  0
    7.4708  -14.6814   25.0236 N   0  0  0  0  0  0  0  0  0  0  0  0
    8.1755  -14.4935   27.3389 C   0  0  0  0  0  0  0  0  0  0  0  0
    8.8300  -13.9151   28.2432 O   0  0  0  0  0  0  0  0  0  0  0  0
    7.7267  -15.7710   27.5864 O   0  0  0  0  0  0  0  0  0  0  0  0
  2  1  1  6
  2  3  1  0
  4  3  1  0
  4  8  1  0
  5  4  2  0
  6  2  1  0
  6  9  1  0
  7  6  2  0
 10  9  1  0
 10 13  1  0
 10 11  1  1
 11 12  1  0
 13 19  1  0
 14 13  2  0
 16 15  1  1
 16 17  1  0
 18 20  1  0
 18 16  1  0
 18 19  1  6
 20 22  1  0
 21 20  2  0
M  END
$$$$
