DCV.pdb
     RDKit          3D

 22 21  0  0  1  0  0  0  0  0999 V2000
    9.3530  -17.8566   19.5735 N   0  0  0  0  0  0  0  0  0  0  0  0
    9.9583  -17.4983   20.8305 C   0  0  1  0  0  0  0  0  0  0  0  0
   11.2361  -16.6900   20.6276 C   0  0  0  0  0  0  0  0  0  0  0  0
   12.3947  -17.6017   20.4378 C   0  0  0  0  0  0  0  0  0  0  0  0
   13.4817  -17.1225   20.0666 O   0  0  0  0  0  0  0  0  0  0  0  0
    9.0621  -16.7129   21.6888 C   0  0  0  0  0  0  0  0  0  0  0  0
    8.6074  -15.6315   21.2329 O   0  0  0  0  0  0  0  0  0  0  0  0
   12.2370  -18.9533   20.6772 O   0  0  0  0  0  0  0  0  0  0  0  0
    8.6702  -17.0889   23.0029 N   0  0  0  0  0  0  0  0  0  0  0  0
    7.6657  -16.3504   23.7325 C   0  0  1  0  0  0  0  0  0  0  0  0
    6.6786  -17.2898   24.4058 C   0  0  0  0  0  0  0  0  0  0  0  0
    7.4908  -18.2756   25.6887 S   0  0  0  0  0  0  0  0  0  0  0  0
    8.2753  -15.4286   24.7302 C   0  0  0  0  0  0  0  0  0  0  0  0
    9.4825  -15.5171   25.0602 O   0  0  0  0  0  0  0  0  0  0  0  0
    6.5585  -11.6977   25.2953 C   0  0  0  0  0  0  0  0  0  0  0  0
    6.9939  -12.4123   26.5426 C   0  0  1  0  0  0  0  0  0  0  0  0
    5.8275  -12.9668   27.3222 C   0  0  0  0  0  0  0  0  0  0  0  0
    8.0503  -13.4494   26.2745 C   0  0  2  0  0  0  0  0  0  0  0  0
    7.4785  -14.4181   25.3308 N   0  0  0  0  0  0  0  0  0  0  0  0
    8.4978  -14.1317   27.5152 C   0  0  0  0  0  0  0  0  0  0  0  0
    8.0650  -15.2894   27.7461 O   0  0  0  0  0  0  0  0  0  0  0  0
    9.3603  -13.5728   28.4310 O   0  0  0  0  0  0  0  0  0  0  0  0
  2  1  1  6
  2  3  1  0
  4  3  1  0
  4  8  1  0
  5  4  2  0
  6  2  1  0
  6  9  1  0
  7  6  2  0
 10  9  1  0
 10 13  1  0
 10 11  1  1
 11 12  1  0
 13 19  1  0
 14 13  2  0
 16 15  1  6
 16 17  1  0
 18 20  1  0
 18 16  1  0
 18 19  1  6
 20 22  1  0
 21 20  2  0
M  END
$$$$
