DCV.pdb
     RDKit          3D

 22 21  0  0  1  0  0  0  0  0999 V2000
   10.2442  -16.4650   19.2520 N   0  0  0  0  0  0  0  0  0  0  0  0
   10.5110  -16.5851   20.6623 C   0  0  1  0  0  0  0  0  0  0  0  0
   11.7143  -15.7451   21.0792 C   0  0  0  0  0  0  0  0  0  0  0  0
   12.9439  -16.2424   20.4082 C   0  0  0  0  0  0  0  0  0  0  0  0
   13.5889  -15.4640   19.6824 O   0  0  0  0  0  0  0  0  0  0  0  0
    9.3702  -16.1778   21.4926 C   0  0  0  0  0  0  0  0  0  0  0  0
    8.7461  -15.1348   21.1660 O   0  0  0  0  0  0  0  0  0  0  0  0
   13.3389  -17.5516   20.6060 O   0  0  0  0  0  0  0  0  0  0  0  0
    8.9190  -16.8807   22.6434 N   0  0  0  0  0  0  0  0  0  0  0  0
    7.7774  -16.4300   23.4051 C   0  0  1  0  0  0  0  0  0  0  0  0
    7.2130  -17.5531   24.2596 C   0  0  0  0  0  0  0  0  0  0  0  0
    8.5124  -18.3312   25.2514 S   0  0  0  0  0  0  0  0  0  0  0  0
    8.1083  -15.2473   24.2466 C   0  0  0  0  0  0  0  0  0  0  0  0
    8.4183  -14.1421   23.7401 O   0  0  0  0  0  0  0  0  0  0  0  0
    6.8914  -12.1282   27.1243 C   0  0  0  0  0  0  0  0  0  0  0  0
    7.1062  -13.2212   26.1166 C   0  0  1  0  0  0  0  0  0  0  0  0
    7.3162  -12.6829   24.7231 C   0  0  0  0  0  0  0  0  0  0  0  0
    8.1873  -14.1825   26.5297 C   0  0  2  0  0  0  0  0  0  0  0  0
    8.0754  -15.3614   25.6617 N   0  0  0  0  0  0  0  0  0  0  0  0
    8.0774  -14.5741   27.9580 C   0  0  0  0  0  0  0  0  0  0  0  0
    8.6913  -13.8853   28.8121 O   0  0  0  0  0  0  0  0  0  0  0  0
    7.3425  -15.6485   28.4056 O   0  0  0  0  0  0  0  0  0  0  0  0
  2  1  1  6
  2  3  1  0
  4  3  1  0
  4  8  1  0
  5  4  2  0
  6  2  1  0
  6  9  1  0
  7  6  2  0
 10  9  1  0
 10 13  1  0
 10 11  1  1
 11 12  1  0
 13 19  1  0
 14 13  2  0
 16 15  1  1
 16 17  1  0
 18 20  1  0
 18 16  1  0
 18 19  1  6
 20 22  1  0
 21 20  2  0
M  END
$$$$
