DCV.pdb
     RDKit          3D

 22 21  0  0  1  0  0  0  0  0999 V2000
    9.5627  -19.8351   22.1269 N   0  0  0  0  0  0  0  0  0  0  0  0
    8.8064  -18.9142   22.9360 C   0  0  1  0  0  0  0  0  0  0  0  0
    9.2225  -18.9833   24.4021 C   0  0  0  0  0  0  0  0  0  0  0  0
    9.1794  -20.3896   24.8816 C   0  0  0  0  0  0  0  0  0  0  0  0
   10.2510  -20.9978   25.0563 O   0  0  0  0  0  0  0  0  0  0  0  0
    8.9489  -17.5210   22.4943 C   0  0  0  0  0  0  0  0  0  0  0  0
   10.1076  -17.0971   22.2455 O   0  0  0  0  0  0  0  0  0  0  0  0
    7.9555  -20.9846   25.1206 O   0  0  0  0  0  0  0  0  0  0  0  0
    7.8669  -16.6136   22.3271 N   0  0  0  0  0  0  0  0  0  0  0  0
    8.0834  -15.2479   21.9093 C   0  0  1  0  0  0  0  0  0  0  0  0
    6.8850  -14.7151   21.1412 C   0  0  0  0  0  0  0  0  0  0  0  0
    7.1801  -13.0237   20.5675 S   0  0  0  0  0  0  0  0  0  0  0  0
    8.4019  -14.3623   23.0629 C   0  0  0  0  0  0  0  0  0  0  0  0
    8.8784  -13.2130   22.9017 O   0  0  0  0  0  0  0  0  0  0  0  0
    7.2354  -12.6586   27.3131 C   0  0  0  0  0  0  0  0  0  0  0  0
    7.1031  -13.4956   26.0729 C   0  0  1  0  0  0  0  0  0  0  0  0
    6.2773  -12.8166   25.0086 C   0  0  0  0  0  0  0  0  0  0  0  0
    8.4325  -13.9701   25.5525 C   0  0  2  0  0  0  0  0  0  0  0  0
    8.1641  -14.8204   24.3860 N   0  0  0  0  0  0  0  0  0  0  0  0
    9.2040  -14.7188   26.5771 C   0  0  0  0  0  0  0  0  0  0  0  0
    9.0662  -15.9674   26.6299 O   0  0  0  0  0  0  0  0  0  0  0  0
   10.0635  -14.1278   27.4753 O   0  0  0  0  0  0  0  0  0  0  0  0
  2  1  1  6
  2  3  1  0
  4  3  1  0
  4  8  1  0
  5  4  2  0
  6  2  1  0
  6  9  1  0
  7  6  2  0
 10  9  1  0
 10 13  1  0
 10 11  1  1
 11 12  1  0
 13 19  1  0
 14 13  2  0
 16 15  1  1
 16 17  1  0
 18 20  1  0
 18 16  1  0
 18 19  1  6
 20 22  1  0
 21 20  2  0
M  END
$$$$
