WML.pdb
     RDKit          3D

 31 32  0  0  1  0  0  0  0  0999 V2000
   25.4098  -18.8167   -8.9747 N   0  0  0  0  0  0  0  0  0  0  0  0
   26.4951  -19.7782   -8.9706 C   0  0  1  0  0  0  0  0  0  0  0  0
   26.1221  -21.0310   -8.1919 C   0  0  0  0  0  0  0  0  0  0  0  0
   26.1081  -20.8180   -6.7395 C   0  0  0  0  0  0  0  0  0  0  0  0
   25.1569  -21.2152   -5.8417 C   0  0  0  0  0  0  0  0  0  0  0  0
   25.5119  -20.8277   -4.5960 N   0  0  0  0  0  0  0  0  0  0  0  0
   26.6802  -20.1843   -4.6707 C   0  0  0  0  0  0  0  0  0  0  0  0
   27.4671  -19.5939   -3.6807 C   0  0  0  0  0  0  0  0  0  0  0  0
   28.6392  -18.9971   -4.0753 C   0  0  0  0  0  0  0  0  0  0  0  0
   29.0454  -18.9699   -5.4005 C   0  0  0  0  0  0  0  0  0  0  0  0
   28.2645  -19.5542   -6.3714 C   0  0  0  0  0  0  0  0  0  0  0  0
   27.0778  -20.1629   -6.0021 C   0  0  0  0  0  0  0  0  0  0  0  0
   26.7142  -20.2391  -10.3781 C   0  0  0  0  0  0  0  0  0  0  0  0
   25.9578  -19.8839  -11.2873 O   0  0  0  0  0  0  0  0  0  0  0  0
   32.2743  -23.1724   -9.4549 C   0  0  0  0  0  0  0  0  0  0  0  0
   32.3434  -22.0191  -10.8528 S   0  0  0  0  0  0  0  0  0  0  0  0
   30.8052  -21.0516  -10.9209 C   0  0  0  0  0  0  0  0  0  0  0  0
   29.8717  -21.7830  -11.8682 C   0  0  0  0  0  0  0  0  0  0  0  0
   28.5778  -21.0490  -11.8985 C   0  0  2  0  0  0  0  0  0  0  0  0
   27.7863  -21.0943  -10.7310 N   0  0  0  0  0  0  0  0  0  0  0  0
   27.7336  -21.4260  -13.0722 C   0  0  0  0  0  0  0  0  0  0  0  0
   27.0177  -22.4765  -13.0201 O   0  0  0  0  0  0  0  0  0  0  0  0
   24.9913  -18.7857  -17.8495 C   0  0  0  0  0  0  0  0  0  0  0  0
   25.2975  -20.1008  -17.1473 C   0  0  2  0  0  0  0  0  0  0  0  0
   24.0955  -20.8835  -16.7787 C   0  0  0  0  0  0  0  0  0  0  0  0
   26.3516  -19.9412  -16.1241 C   0  0  0  0  0  0  0  0  0  0  0  0
   26.8385  -21.1398  -15.4041 C   0  0  2  0  0  0  0  0  0  0  0  0
   27.6756  -20.6838  -14.2536 N   0  0  0  0  0  0  0  0  0  0  0  0
   27.7134  -21.9965  -16.1899 C   0  0  0  0  0  0  0  0  0  0  0  0
   28.9158  -21.7227  -16.3719 O   0  0  0  0  0  0  0  0  0  0  0  0
   27.2554  -23.1683  -16.7805 O   0  0  0  0  0  0  0  0  0  0  0  0
  2  1  1  6
  2  3  1  0
  3  4  1  0
  4 12  1  0
  4  5  2  0
  5  6  1  0
  7  6  1  0
  7  8  2  0
  9  8  1  0
 10  9  2  0
 11 10  1  0
 11 12  2  0
 12  7  1  0
 13  2  1  0
 13 14  2  0
 16 17  1  0
 16 15  1  0
 17 18  1  0
 19 18  1  1
 19 20  1  0
 20 13  1  0
 21 19  1  0
 22 21  2  0
 24 26  1  0
 24 23  1  1
 25 24  1  0
 27 28  1  0
 27 26  1  6
 28 21  1  0
 29 27  1  0
 30 29  2  0
 31 29  1  0
M  END
$$$$
