WML.pdb
     RDKit          3D

 31 32  0  0  1  0  0  0  0  0999 V2000
   20.4537  -11.0001  -18.8683 N   0  0  0  0  0  0  0  0  0  0  0  0
   20.6687  -10.1546  -17.7102 C   0  0  1  0  0  0  0  0  0  0  0  0
   22.0794   -9.5847  -17.6949 C   0  0  0  0  0  0  0  0  0  0  0  0
   23.1003  -10.5945  -17.3897 C   0  0  0  0  0  0  0  0  0  0  0  0
   23.0689  -11.9319  -17.6706 C   0  0  0  0  0  0  0  0  0  0  0  0
   24.2025  -12.5204  -17.2271 N   0  0  0  0  0  0  0  0  0  0  0  0
   24.9707  -11.5849  -16.6619 C   0  0  0  0  0  0  0  0  0  0  0  0
   26.2264  -11.6706  -16.0588 C   0  0  0  0  0  0  0  0  0  0  0  0
   26.7702  -10.5122  -15.5606 C   0  0  0  0  0  0  0  0  0  0  0  0
   26.1152   -9.2932  -15.6423 C   0  0  0  0  0  0  0  0  0  0  0  0
   24.8772   -9.2161  -16.2385 C   0  0  0  0  0  0  0  0  0  0  0  0
   24.3052  -10.3680  -16.7493 C   0  0  0  0  0  0  0  0  0  0  0  0
   19.7646   -8.9670  -17.8265 C   0  0  0  0  0  0  0  0  0  0  0  0
   19.5699   -8.4217  -18.9172 O   0  0  0  0  0  0  0  0  0  0  0  0
   13.9179  -10.3476  -17.0912 C   0  0  0  0  0  0  0  0  0  0  0  0
   14.8425   -9.1753  -16.0619 S   0  0  0  0  0  0  0  0  0  0  0  0
   16.1415   -8.3829  -17.0578 C   0  0  0  0  0  0  0  0  0  0  0  0
   16.8954   -7.4497  -16.1281 C   0  0  0  0  0  0  0  0  0  0  0  0
   18.2710   -7.2740  -16.6674 C   0  0  2  0  0  0  0  0  0  0  0  0
   19.0970   -8.4176  -16.7049 N   0  0  0  0  0  0  0  0  0  0  0  0
   19.0107   -6.1626  -15.9966 C   0  0  0  0  0  0  0  0  0  0  0  0
   18.3643   -5.2756  -15.3531 O   0  0  0  0  0  0  0  0  0  0  0  0
   21.8303   -6.2560  -12.8118 C   0  0  0  0  0  0  0  0  0  0  0  0
   22.7020   -6.4083  -14.0501 C   0  0  2  0  0  0  0  0  0  0  0  0
   24.1056   -6.7805  -13.7593 C   0  0  0  0  0  0  0  0  0  0  0  0
   22.4690   -5.3176  -15.0196 C   0  0  0  0  0  0  0  0  0  0  0  0
   21.0777   -4.9051  -15.3131 C   0  0  2  0  0  0  0  0  0  0  0  0
   20.4003   -6.0281  -16.0289 N   0  0  0  0  0  0  0  0  0  0  0  0
   20.9675   -3.7656  -16.2111 C   0  0  0  0  0  0  0  0  0  0  0  0
   20.8940   -3.9043  -17.4477 O   0  0  0  0  0  0  0  0  0  0  0  0
   20.9378   -2.4590  -15.7380 O   0  0  0  0  0  0  0  0  0  0  0  0
  2  1  1  6
  2  3  1  0
  3  4  1  0
  4 12  1  0
  4  5  2  0
  5  6  1  0
  7  6  1  0
  7  8  2  0
  9  8  1  0
 10  9  2  0
 11 10  1  0
 11 12  2  0
 12  7  1  0
 13  2  1  0
 13 14  2  0
 16 17  1  0
 16 15  1  0
 17 18  1  0
 19 18  1  1
 19 20  1  0
 20 13  1  0
 21 19  1  0
 22 21  2  0
 24 26  1  0
 24 23  1  1
 25 24  1  0
 27 28  1  0
 27 26  1  6
 28 21  1  0
 29 27  1  0
 30 29  2  0
 31 29  1  0
M  END
$$$$
