WML.pdb
     RDKit          3D

 31 32  0  0  1  0  0  0  0  0999 V2000
   26.6543  -21.2446  -13.4996 N   0  0  0  0  0  0  0  0  0  0  0  0
   25.6596  -20.5011  -12.7511 C   0  0  1  0  0  0  0  0  0  0  0  0
   24.2513  -20.8285  -13.2247 C   0  0  0  0  0  0  0  0  0  0  0  0
   23.9409  -20.2495  -14.5375 C   0  0  0  0  0  0  0  0  0  0  0  0
   24.6227  -20.4150  -15.7107 C   0  0  0  0  0  0  0  0  0  0  0  0
   24.0161  -19.7157  -16.6962 N   0  0  0  0  0  0  0  0  0  0  0  0
   22.9498  -19.0978  -16.1808 C   0  0  0  0  0  0  0  0  0  0  0  0
   21.9998  -18.2624  -16.7703 C   0  0  0  0  0  0  0  0  0  0  0  0
   21.0011  -17.7718  -15.9655 C   0  0  0  0  0  0  0  0  0  0  0  0
   20.9198  -18.0809  -14.6166 C   0  0  0  0  0  0  0  0  0  0  0  0
   21.8600  -18.9053  -14.0418 C   0  0  0  0  0  0  0  0  0  0  0  0
   22.8778  -19.4142  -14.8295 C   0  0  0  0  0  0  0  0  0  0  0  0
   25.7126  -20.9569  -11.3260 C   0  0  0  0  0  0  0  0  0  0  0  0
   25.5115  -22.1387  -11.0296 O   0  0  0  0  0  0  0  0  0  0  0  0
   29.5756  -19.6106   -6.0169 C   0  0  0  0  0  0  0  0  0  0  0  0
   27.8841  -19.1411   -5.5616 S   0  0  0  0  0  0  0  0  0  0  0  0
   26.6988  -20.0681   -6.5825 C   0  0  0  0  0  0  0  0  0  0  0  0
   26.8251  -19.5287   -7.9956 C   0  0  0  0  0  0  0  0  0  0  0  0
   25.9338  -20.3307   -8.8766 C   0  0  2  0  0  0  0  0  0  0  0  0
   25.9924  -20.0658  -10.2615 N   0  0  0  0  0  0  0  0  0  0  0  0
   24.5071  -20.2916   -8.4348 C   0  0  0  0  0  0  0  0  0  0  0  0
   23.7306  -19.3952   -8.8957 O   0  0  0  0  0  0  0  0  0  0  0  0
   19.6356  -20.7787   -8.3929 C   0  0  0  0  0  0  0  0  0  0  0  0
   20.4378  -22.0356   -8.6981 C   0  0  2  0  0  0  0  0  0  0  0  0
   19.9171  -23.2585   -8.0451 C   0  0  0  0  0  0  0  0  0  0  0  0
   21.8925  -21.7863   -8.6252 C   0  0  0  0  0  0  0  0  0  0  0  0
   22.4729  -21.2986   -7.3535 C   0  0  2  0  0  0  0  0  0  0  0  0
   23.9535  -21.1962   -7.5264 N   0  0  0  0  0  0  0  0  0  0  0  0
   22.2872  -22.1990   -6.2258 C   0  0  0  0  0  0  0  0  0  0  0  0
   23.0225  -23.1890   -6.0434 O   0  0  0  0  0  0  0  0  0  0  0  0
   21.2787  -22.0037   -5.2895 O   0  0  0  0  0  0  0  0  0  0  0  0
  2  1  1  6
  2  3  1  0
  3  4  1  0
  4 12  1  0
  4  5  2  0
  5  6  1  0
  7  6  1  0
  7  8  2  0
  9  8  1  0
 10  9  2  0
 11 10  1  0
 11 12  2  0
 12  7  1  0
 13  2  1  0
 13 14  2  0
 16 17  1  0
 16 15  1  0
 17 18  1  0
 19 18  1  1
 19 20  1  0
 20 13  1  0
 21 19  1  0
 22 21  2  0
 24 26  1  0
 24 23  1  1
 25 24  1  0
 27 28  1  0
 27 26  1  6
 28 21  1  0
 29 27  1  0
 30 29  2  0
 31 29  1  0
M  END
$$$$
