WML.pdb
     RDKit          3D

 31 32  0  0  1  0  0  0  0  0999 V2000
   26.4455  -21.3301  -15.6854 N   0  0  0  0  0  0  0  0  0  0  0  0
   25.6200  -20.5263  -14.8051 C   0  0  1  0  0  0  0  0  0  0  0  0
   24.1729  -20.4998  -15.2743 C   0  0  0  0  0  0  0  0  0  0  0  0
   23.9768  -19.6796  -16.4759 C   0  0  0  0  0  0  0  0  0  0  0  0
   24.4117  -19.9342  -17.7466 C   0  0  0  0  0  0  0  0  0  0  0  0
   24.0263  -18.9351  -18.5720 N   0  0  0  0  0  0  0  0  0  0  0  0
   23.3469  -18.0345  -17.8565 C   0  0  0  0  0  0  0  0  0  0  0  0
   22.7422  -16.8334  -18.2300 C   0  0  0  0  0  0  0  0  0  0  0  0
   22.1055  -16.1130  -17.2494 C   0  0  0  0  0  0  0  0  0  0  0  0
   22.0527  -16.5429  -15.9325 C   0  0  0  0  0  0  0  0  0  0  0  0
   22.6511  -17.7284  -15.5714 C   0  0  0  0  0  0  0  0  0  0  0  0
   23.3000  -18.4749  -16.5393 C   0  0  0  0  0  0  0  0  0  0  0  0
   25.5877  -21.1891  -13.4631 C   0  0  0  0  0  0  0  0  0  0  0  0
   25.4384  -22.4108  -13.3620 O   0  0  0  0  0  0  0  0  0  0  0  0
   26.4874  -18.4609   -6.9749 C   0  0  0  0  0  0  0  0  0  0  0  0
   27.0368  -20.1611   -7.2853 S   0  0  0  0  0  0  0  0  0  0  0  0
   25.9741  -20.9237   -8.5486 C   0  0  0  0  0  0  0  0  0  0  0  0
   26.3004  -20.2398   -9.8637 C   0  0  0  0  0  0  0  0  0  0  0  0
   25.5307  -20.9197  -10.9403 C   0  0  2  0  0  0  0  0  0  0  0  0
   25.7248  -20.4564  -12.2591 N   0  0  0  0  0  0  0  0  0  0  0  0
   24.0652  -20.9670  -10.6532 C   0  0  0  0  0  0  0  0  0  0  0  0
   23.6592  -21.3889   -9.5236 O   0  0  0  0  0  0  0  0  0  0  0  0
   20.4853  -17.9949  -10.8595 C   0  0  0  0  0  0  0  0  0  0  0  0
   20.7355  -18.5175  -12.2669 C   0  0  2  0  0  0  0  0  0  0  0  0
   19.8903  -17.8854  -13.3057 C   0  0  0  0  0  0  0  0  0  0  0  0
   20.8616  -19.9897  -12.2885 C   0  0  0  0  0  0  0  0  0  0  0  0
   21.6347  -20.6583  -11.2174 C   0  0  2  0  0  0  0  0  0  0  0  0
   23.0851  -20.5688  -11.5647 N   0  0  0  0  0  0  0  0  0  0  0  0
   21.3667  -22.0823  -11.0847 C   0  0  0  0  0  0  0  0  0  0  0  0
   20.5826  -22.5290  -10.2247 O   0  0  0  0  0  0  0  0  0  0  0  0
   21.9709  -23.0226  -11.9108 O   0  0  0  0  0  0  0  0  0  0  0  0
  2  1  1  6
  2  3  1  0
  3  4  1  0
  4 12  1  0
  4  5  2  0
  5  6  1  0
  7  6  1  0
  7  8  2  0
  9  8  1  0
 10  9  2  0
 11 10  1  0
 11 12  2  0
 12  7  1  0
 13  2  1  0
 13 14  2  0
 16 17  1  0
 16 15  1  0
 17 18  1  0
 19 18  1  1
 19 20  1  0
 20 13  1  0
 21 19  1  0
 22 21  2  0
 24 26  1  0
 24 23  1  1
 25 24  1  0
 27 28  1  0
 27 26  1  6
 28 21  1  0
 29 27  1  0
 30 29  2  0
 31 29  1  0
M  END
$$$$
