WML.pdb
     RDKit          3D

 31 32  0  0  1  0  0  0  0  0999 V2000
   28.2516  -20.0090  -16.5243 N   0  0  0  0  0  0  0  0  0  0  0  0
   27.5205  -19.5018  -15.3794 C   0  0  1  0  0  0  0  0  0  0  0  0
   26.1408  -19.0019  -15.7807 C   0  0  0  0  0  0  0  0  0  0  0  0
   26.1892  -17.7744  -16.5844 C   0  0  0  0  0  0  0  0  0  0  0  0
   25.8817  -17.6245  -17.9079 C   0  0  0  0  0  0  0  0  0  0  0  0
   26.0535  -16.3347  -18.2754 N   0  0  0  0  0  0  0  0  0  0  0  0
   26.4682  -15.6436  -17.2101 C   0  0  0  0  0  0  0  0  0  0  0  0
   26.7846  -14.2927  -17.0594 C   0  0  0  0  0  0  0  0  0  0  0  0
   27.1888  -13.8716  -15.8164 C   0  0  0  0  0  0  0  0  0  0  0  0
   27.2862  -14.7373  -14.7380 C   0  0  0  0  0  0  0  0  0  0  0  0
   26.9725  -16.0682  -14.8938 C   0  0  0  0  0  0  0  0  0  0  0  0
   26.5622  -16.5202  -16.1358 C   0  0  0  0  0  0  0  0  0  0  0  0
   27.2700  -20.6435  -14.4440 C   0  0  0  0  0  0  0  0  0  0  0  0
   27.3325  -21.8123  -14.8377 O   0  0  0  0  0  0  0  0  0  0  0  0
   28.8142  -19.0905   -8.5654 C   0  0  0  0  0  0  0  0  0  0  0  0
   29.3074  -20.7574   -9.0824 S   0  0  0  0  0  0  0  0  0  0  0  0
   28.7330  -21.0635  -10.7804 C   0  0  0  0  0  0  0  0  0  0  0  0
   27.2183  -21.1396  -10.7212 C   0  0  0  0  0  0  0  0  0  0  0  0
   26.7170  -21.4233  -12.0931 C   0  0  2  0  0  0  0  0  0  0  0  0
   26.9527  -20.4412  -13.0788 N   0  0  0  0  0  0  0  0  0  0  0  0
   25.2683  -21.7887  -12.1086 C   0  0  0  0  0  0  0  0  0  0  0  0
   24.8291  -22.6530  -11.2847 O   0  0  0  0  0  0  0  0  0  0  0  0
   21.4963  -20.8253  -10.6001 C   0  0  0  0  0  0  0  0  0  0  0  0
   21.7757  -19.8370  -11.7233 C   0  0  2  0  0  0  0  0  0  0  0  0
   20.8632  -18.6707  -11.7433 C   0  0  0  0  0  0  0  0  0  0  0  0
   22.0359  -20.5255  -13.0047 C   0  0  0  0  0  0  0  0  0  0  0  0
   22.9242  -21.7099  -13.0140 C   0  0  2  0  0  0  0  0  0  0  0  0
   24.3392  -21.2309  -12.9893 N   0  0  0  0  0  0  0  0  0  0  0  0
   22.8237  -22.5248  -14.2152 C   0  0  0  0  0  0  0  0  0  0  0  0
   23.6939  -22.4958  -15.1073 O   0  0  0  0  0  0  0  0  0  0  0  0
   21.7508  -23.3810  -14.4331 O   0  0  0  0  0  0  0  0  0  0  0  0
  2  1  1  6
  2  3  1  0
  3  4  1  0
  4 12  1  0
  4  5  2  0
  5  6  1  0
  7  6  1  0
  7  8  2  0
  9  8  1  0
 10  9  2  0
 11 10  1  0
 11 12  2  0
 12  7  1  0
 13  2  1  0
 13 14  2  0
 16 17  1  0
 16 15  1  0
 17 18  1  0
 19 18  1  1
 19 20  1  0
 20 13  1  0
 21 19  1  0
 22 21  2  0
 24 26  1  0
 24 23  1  1
 25 24  1  0
 27 28  1  0
 27 26  1  6
 28 21  1  0
 29 27  1  0
 30 29  2  0
 31 29  1  0
M  END
$$$$
