WML.pdb
     RDKit          3D

 31 32  0  0  1  0  0  0  0  0999 V2000
   27.2022  -18.5237   -9.7120 N   0  0  0  0  0  0  0  0  0  0  0  0
   26.9641  -19.9437   -9.5409 C   0  0  1  0  0  0  0  0  0  0  0  0
   26.4298  -20.2520   -8.1501 C   0  0  0  0  0  0  0  0  0  0  0  0
   27.1969  -19.5951   -7.0847 C   0  0  0  0  0  0  0  0  0  0  0  0
   27.1780  -18.2758   -6.7274 C   0  0  0  0  0  0  0  0  0  0  0  0
   28.0269  -18.0677   -5.6959 N   0  0  0  0  0  0  0  0  0  0  0  0
   28.5977  -19.2327   -5.3771 C   0  0  0  0  0  0  0  0  0  0  0  0
   29.5357  -19.5564   -4.3957 C   0  0  0  0  0  0  0  0  0  0  0  0
   29.9377  -20.8668   -4.3113 C   0  0  0  0  0  0  0  0  0  0  0  0
   29.4443  -21.8475   -5.1578 C   0  0  0  0  0  0  0  0  0  0  0  0
   28.5194  -21.5211   -6.1233 C   0  0  0  0  0  0  0  0  0  0  0  0
   28.0964  -20.2079   -6.2310 C   0  0  0  0  0  0  0  0  0  0  0  0
   25.8726  -20.3496  -10.4818 C   0  0  0  0  0  0  0  0  0  0  0  0
   24.7070  -19.9862  -10.2965 O   0  0  0  0  0  0  0  0  0  0  0  0
   28.8687  -20.9882  -15.8935 C   0  0  0  0  0  0  0  0  0  0  0  0
   28.3964  -19.3233  -15.3515 S   0  0  0  0  0  0  0  0  0  0  0  0
   27.2005  -19.4433  -13.9869 C   0  0  0  0  0  0  0  0  0  0  0  0
   26.6494  -20.8572  -14.0131 C   0  0  0  0  0  0  0  0  0  0  0  0
   25.6369  -20.9775  -12.9294 C   0  0  2  0  0  0  0  0  0  0  0  0
   26.1206  -21.1601  -11.6162 N   0  0  0  0  0  0  0  0  0  0  0  0
   24.6110  -22.0244  -13.2187 C   0  0  0  0  0  0  0  0  0  0  0  0
   24.6472  -23.1306  -12.5911 O   0  0  0  0  0  0  0  0  0  0  0  0
   18.9992  -22.6032  -12.6958 C   0  0  0  0  0  0  0  0  0  0  0  0
   20.1613  -23.3123  -13.3762 C   0  0  2  0  0  0  0  0  0  0  0  0
   20.3559  -24.7130  -12.9365 C   0  0  0  0  0  0  0  0  0  0  0  0
   21.3567  -22.4474  -13.4579 C   0  0  0  0  0  0  0  0  0  0  0  0
   22.5036  -22.8865  -14.2848 C   0  0  2  0  0  0  0  0  0  0  0  0
   23.5880  -21.8668  -14.1561 N   0  0  0  0  0  0  0  0  0  0  0  0
   22.2217  -22.9581  -15.7105 C   0  0  0  0  0  0  0  0  0  0  0  0
   22.3907  -21.9815  -16.4666 O   0  0  0  0  0  0  0  0  0  0  0  0
   21.7485  -24.1207  -16.3072 O   0  0  0  0  0  0  0  0  0  0  0  0
  2  1  1  1
  2  3  1  0
  3  4  1  0
  4 12  1  0
  4  5  2  0
  5  6  1  0
  7  6  1  0
  7  8  2  0
  9  8  1  0
 10  9  2  0
 11 10  1  0
 11 12  2  0
 12  7  1  0
 13  2  1  0
 13 14  2  0
 16 17  1  0
 16 15  1  0
 17 18  1  0
 19 18  1  6
 19 20  1  0
 20 13  1  0
 21 19  1  0
 22 21  2  0
 24 26  1  0
 24 23  1  1
 25 24  1  0
 27 28  1  0
 27 26  1  1
 28 21  1  0
 29 27  1  0
 30 29  2  0
 31 29  1  0
M  END
$$$$
