WML.pdb
     RDKit          3D

 31 32  0  0  1  0  0  0  0  0999 V2000
   28.0499  -18.8013  -16.0020 N   0  0  0  0  0  0  0  0  0  0  0  0
   26.8231  -19.0482  -15.2696 C   0  0  1  0  0  0  0  0  0  0  0  0
   25.6863  -19.4297  -16.2061 C   0  0  0  0  0  0  0  0  0  0  0  0
   25.2822  -18.3308  -17.0916 C   0  0  0  0  0  0  0  0  0  0  0  0
   25.7627  -18.0359  -18.3370 C   0  0  0  0  0  0  0  0  0  0  0  0
   25.1314  -16.9446  -18.8254 N   0  0  0  0  0  0  0  0  0  0  0  0
   24.2474  -16.5256  -17.9158 C   0  0  0  0  0  0  0  0  0  0  0  0
   23.3544  -15.4531  -17.9307 C   0  0  0  0  0  0  0  0  0  0  0  0
   22.5587  -15.2759  -16.8256 C   0  0  0  0  0  0  0  0  0  0  0  0
   22.6228  -16.1176  -15.7259 C   0  0  0  0  0  0  0  0  0  0  0  0
   23.5057  -17.1732  -15.7181 C   0  0  0  0  0  0  0  0  0  0  0  0
   24.3199  -17.3755  -16.8187 C   0  0  0  0  0  0  0  0  0  0  0  0
   27.0347  -20.2463  -14.3972 C   0  0  0  0  0  0  0  0  0  0  0  0
   27.5317  -21.2818  -14.8506 O   0  0  0  0  0  0  0  0  0  0  0  0
   30.9176  -20.9768   -9.1556 C   0  0  0  0  0  0  0  0  0  0  0  0
   29.1093  -21.1136   -9.1590 S   0  0  0  0  0  0  0  0  0  0  0  0
   28.5109  -21.2392  -10.8716 C   0  0  0  0  0  0  0  0  0  0  0  0
   26.9954  -21.2839  -10.8018 C   0  0  0  0  0  0  0  0  0  0  0  0
   26.4723  -21.3697  -12.1922 C   0  0  2  0  0  0  0  0  0  0  0  0
   26.6794  -20.2504  -13.0264 N   0  0  0  0  0  0  0  0  0  0  0  0
   25.0276  -21.7481  -12.2374 C   0  0  0  0  0  0  0  0  0  0  0  0
   24.5985  -22.6817  -11.4869 O   0  0  0  0  0  0  0  0  0  0  0  0
   21.4492  -21.0569  -10.3933 C   0  0  0  0  0  0  0  0  0  0  0  0
   21.7014  -19.8735  -11.3166 C   0  0  2  0  0  0  0  0  0  0  0  0
   20.8376  -18.7013  -11.0467 C   0  0  0  0  0  0  0  0  0  0  0  0
   21.8568  -20.3010  -12.7226 C   0  0  0  0  0  0  0  0  0  0  0  0
   22.6492  -21.5160  -13.0185 C   0  0  2  0  0  0  0  0  0  0  0  0
   24.0918  -21.1302  -13.0694 N   0  0  0  0  0  0  0  0  0  0  0  0
   22.3726  -22.1101  -14.3176 C   0  0  0  0  0  0  0  0  0  0  0  0
   23.1941  -22.0617  -15.2540 O   0  0  0  0  0  0  0  0  0  0  0  0
   21.1761  -22.7649  -14.5850 O   0  0  0  0  0  0  0  0  0  0  0  0
  2  1  1  6
  2  3  1  0
  3  4  1  0
  4 12  1  0
  4  5  2  0
  5  6  1  0
  7  6  1  0
  7  8  2  0
  9  8  1  0
 10  9  2  0
 11 10  1  0
 11 12  2  0
 12  7  1  0
 13  2  1  0
 13 14  2  0
 16 17  1  0
 16 15  1  0
 17 18  1  0
 19 18  1  1
 19 20  1  0
 20 13  1  0
 21 19  1  0
 22 21  2  0
 24 26  1  0
 24 23  1  1
 25 24  1  0
 27 28  1  0
 27 26  1  6
 28 21  1  0
 29 27  1  0
 30 29  2  0
 31 29  1  0
M  END
$$$$
