WML.pdb
     RDKit          3D

 31 32  0  0  1  0  0  0  0  0999 V2000
   23.0934  -21.1011  -15.9687 N   0  0  0  0  0  0  0  0  0  0  0  0
   23.8239  -20.1569  -15.1459 C   0  0  1  0  0  0  0  0  0  0  0  0
   23.0683  -19.8387  -13.8643 C   0  0  0  0  0  0  0  0  0  0  0  0
   21.7551  -19.2307  -14.1112 C   0  0  0  0  0  0  0  0  0  0  0  0
   20.5509  -19.5837  -13.5689 C   0  0  0  0  0  0  0  0  0  0  0  0
   19.5775  -18.7782  -14.0501 N   0  0  0  0  0  0  0  0  0  0  0  0
   20.1312  -17.9065  -14.8976 C   0  0  0  0  0  0  0  0  0  0  0  0
   19.5678  -16.8759  -15.6515 C   0  0  0  0  0  0  0  0  0  0  0  0
   20.4111  -16.1375  -16.4449 C   0  0  0  0  0  0  0  0  0  0  0  0
   21.7729  -16.3882  -16.5104 C   0  0  0  0  0  0  0  0  0  0  0  0
   22.3217  -17.4061  -15.7642 C   0  0  0  0  0  0  0  0  0  0  0  0
   21.4951  -18.1665  -14.9556 C   0  0  0  0  0  0  0  0  0  0  0  0
   25.0950  -20.8119  -14.7022 C   0  0  0  0  0  0  0  0  0  0  0  0
   25.1637  -22.0373  -14.5661 O   0  0  0  0  0  0  0  0  0  0  0  0
   30.3169  -18.4203  -18.0431 C   0  0  0  0  0  0  0  0  0  0  0  0
   29.8120  -18.3045  -16.3051 S   0  0  0  0  0  0  0  0  0  0  0  0
   28.9347  -19.8226  -15.8231 C   0  0  0  0  0  0  0  0  0  0  0  0
   28.7158  -19.7421  -14.3233 C   0  0  0  0  0  0  0  0  0  0  0  0
   27.5169  -20.5570  -13.9880 C   0  0  2  0  0  0  0  0  0  0  0  0
   26.2660  -20.0671  -14.4204 N   0  0  0  0  0  0  0  0  0  0  0  0
   27.4343  -20.8809  -12.5318 C   0  0  0  0  0  0  0  0  0  0  0  0
   28.3941  -21.4988  -11.9698 O   0  0  0  0  0  0  0  0  0  0  0  0
   27.0858  -18.3265   -7.4855 C   0  0  0  0  0  0  0  0  0  0  0  0
   26.9757  -19.7287   -8.0672 C   0  0  2  0  0  0  0  0  0  0  0  0
   27.8595  -20.7238   -7.4177 C   0  0  0  0  0  0  0  0  0  0  0  0
   26.9387  -19.7059   -9.5443 C   0  0  0  0  0  0  0  0  0  0  0  0
   26.3492  -20.8576  -10.2640 C   0  0  2  0  0  0  0  0  0  0  0  0
   26.3464  -20.5422  -11.7244 N   0  0  0  0  0  0  0  0  0  0  0  0
   24.9571  -21.1218   -9.9335 C   0  0  0  0  0  0  0  0  0  0  0  0
   24.0304  -20.8677  -10.7277 O   0  0  0  0  0  0  0  0  0  0  0  0
   24.5847  -21.6727   -8.7130 O   0  0  0  0  0  0  0  0  0  0  0  0
  2  1  1  6
  2  3  1  0
  3  4  1  0
  4 12  1  0
  4  5  2  0
  5  6  1  0
  7  6  1  0
  7  8  2  0
  9  8  1  0
 10  9  2  0
 11 10  1  0
 11 12  2  0
 12  7  1  0
 13  2  1  0
 13 14  2  0
 16 17  1  0
 16 15  1  0
 17 18  1  0
 19 18  1  1
 19 20  1  0
 20 13  1  0
 21 19  1  0
 22 21  2  0
 24 26  1  0
 24 23  1  6
 25 24  1  0
 27 28  1  0
 27 26  1  1
 28 21  1  0
 29 27  1  0
 30 29  2  0
 31 29  1  0
M  END
$$$$
