QQP.pdb
     RDKit          3D

 26 26  0  0  1  0  0  0  0  0999 V2000
   16.5390  -13.1015  -16.9436 N   0  0  0  0  0  0  0  0  0  0  0  0
   16.7232  -13.1341  -18.3864 C   0  0  0  0  0  0  0  0  0  0  0  0
   15.8731  -13.8147  -19.0088 O   0  0  0  0  0  0  0  0  0  0  0  0
   17.8476  -12.4005  -18.9768 C   0  0  0  0  0  0  0  0  0  0  0  0
   18.5930  -11.5574  -18.0032 C   0  0  0  0  0  0  0  0  0  0  0  0
   20.0418  -11.8770  -17.9892 C   0  0  2  0  0  0  0  0  0  0  0  0
   20.4352  -13.2265  -18.1340 N   0  0  0  0  0  0  0  0  0  0  0  0
   20.6427  -11.2225  -16.7942 C   0  0  0  0  0  0  0  0  0  0  0  0
   20.3007  -11.5237  -15.6206 O   0  0  0  0  0  0  0  0  0  0  0  0
   26.4680   -9.5608  -16.5672 N   0  0  0  0  0  0  0  0  0  0  0  0
   25.9321  -10.8083  -16.1457 C   0  0  0  0  0  0  0  0  0  0  0  0
   26.6772  -11.8021  -15.9932 O   0  0  0  0  0  0  0  0  0  0  0  0
   24.4594  -10.9172  -15.8860 C   0  0  0  0  0  0  0  0  0  0  0  0
   23.7933   -9.6111  -16.1379 C   0  0  0  0  0  0  0  0  0  0  0  0
   22.3005   -9.6244  -15.7906 C   0  0  2  0  0  0  0  0  0  0  0  0
   21.6236  -10.2345  -16.9641 N   0  0  0  0  0  0  0  0  0  0  0  0
   21.8397   -8.2344  -15.7194 C   0  0  0  0  0  0  0  0  0  0  0  0
   21.4805   -7.7399  -16.8669 O   0  0  0  0  0  0  0  0  0  0  0  0
   21.7375   -7.4008  -14.5911 N   0  0  0  0  0  0  0  0  0  0  0  0
   22.0871   -7.7788  -13.2396 C   0  0  0  0  0  0  0  0  0  0  0  0
   21.1247   -7.0197  -12.3928 C   0  0  0  0  0  0  0  0  0  0  0  0
   20.4309   -6.0182  -13.2865 C   0  0  0  0  0  0  0  0  0  0  0  0
   21.2899   -6.0470  -14.5336 C   0  0  1  0  0  0  0  0  0  0  0  0
   22.4588   -5.0990  -14.3469 C   0  0  0  0  0  0  0  0  0  0  0  0
   23.5960   -5.5054  -14.0444 O   0  0  0  0  0  0  0  0  0  0  0  0
   22.2738   -3.7456  -14.5132 O   0  0  0  0  0  0  0  0  0  0  0  0
  1  2  1  0
  2  3  2  0
  4  2  1  0
  5  4  1  0
  6  7  1  1
  6  5  1  0
  8  6  1  0
  9  8  2  0
 10 11  1  0
 11 13  1  0
 11 12  2  0
 13 14  1  0
 15 14  1  6
 15 16  1  0
 16  8  1  0
 17 19  1  0
 17 15  1  0
 18 17  2  0
 19 23  1  0
 20 21  1  0
 20 19  1  0
 21 22  1  0
 22 23  1  0
 23 24  1  1
 24 26  1  0
 25 24  2  0
M  END
$$$$
