QQP.pdb
     RDKit          3D

 26 26  0  0  1  0  0  0  0  0999 V2000
   15.3431   -4.3082   -7.7271 N   0  0  0  0  0  0  0  0  0  0  0  0
   14.0498   -4.9666   -7.8302 C   0  0  0  0  0  0  0  0  0  0  0  0
   13.1071   -4.3631   -7.2642 O   0  0  0  0  0  0  0  0  0  0  0  0
   13.9543   -6.2374   -8.5559 C   0  0  0  0  0  0  0  0  0  0  0  0
   15.2597   -6.7390   -9.0646 C   0  0  0  0  0  0  0  0  0  0  0  0
   15.1165   -8.0329   -9.7763 C   0  0  2  0  0  0  0  0  0  0  0  0
   14.6096   -9.1419   -9.0621 N   0  0  0  0  0  0  0  0  0  0  0  0
   16.4070   -8.3238  -10.4600 C   0  0  0  0  0  0  0  0  0  0  0  0
   17.3381   -8.9559   -9.8958 O   0  0  0  0  0  0  0  0  0  0  0  0
   16.7932  -10.0701  -16.1301 N   0  0  0  0  0  0  0  0  0  0  0  0
   16.9487  -10.9241  -15.0042 C   0  0  0  0  0  0  0  0  0  0  0  0
   16.7346  -12.1531  -15.1032 O   0  0  0  0  0  0  0  0  0  0  0  0
   17.3736  -10.3310  -13.6942 C   0  0  0  0  0  0  0  0  0  0  0  0
   17.4667   -8.8504  -13.8045 C   0  0  0  0  0  0  0  0  0  0  0  0
   17.8788   -8.1777  -12.4903 C   0  0  2  0  0  0  0  0  0  0  0  0
   16.6087   -7.8852  -11.7768 N   0  0  0  0  0  0  0  0  0  0  0  0
   18.4828   -6.8819  -12.8148 C   0  0  0  0  0  0  0  0  0  0  0  0
   17.6565   -5.8814  -12.7344 O   0  0  0  0  0  0  0  0  0  0  0  0
   19.8104   -6.6011  -13.1850 N   0  0  0  0  0  0  0  0  0  0  0  0
   20.8635   -7.5824  -13.3249 C   0  0  0  0  0  0  0  0  0  0  0  0
   22.0943   -6.8515  -12.9122 C   0  0  0  0  0  0  0  0  0  0  0  0
   21.7357   -5.3873  -12.8098 C   0  0  0  0  0  0  0  0  0  0  0  0
   20.3882   -5.3347  -13.4993 C   0  0  1  0  0  0  0  0  0  0  0  0
   20.6061   -5.1961  -14.9936 C   0  0  0  0  0  0  0  0  0  0  0  0
   20.5766   -6.1780  -15.7584 O   0  0  0  0  0  0  0  0  0  0  0  0
   20.8449   -3.9546  -15.5368 O   0  0  0  0  0  0  0  0  0  0  0  0
  1  2  1  0
  2  3  2  0
  4  2  1  0
  5  4  1  0
  6  7  1  1
  6  5  1  0
  8  6  1  0
  9  8  2  0
 10 11  1  0
 11 13  1  0
 11 12  2  0
 13 14  1  0
 15 14  1  6
 15 16  1  0
 16  8  1  0
 17 19  1  0
 17 15  1  0
 18 17  2  0
 19 23  1  0
 20 21  1  0
 20 19  1  0
 21 22  1  0
 22 23  1  0
 23 24  1  6
 24 26  1  0
 25 24  2  0
M  END
$$$$
