QQP.pdb
     RDKit          3D

 26 26  0  0  1  0  0  0  0  0999 V2000
   28.3524  -17.7773  -17.0589 N   0  0  0  0  0  0  0  0  0  0  0  0
   28.9854  -18.5101  -18.1447 C   0  0  0  0  0  0  0  0  0  0  0  0
   29.8913  -17.8824  -18.7434 O   0  0  0  0  0  0  0  0  0  0  0  0
   28.5291  -19.8711  -18.4453 C   0  0  0  0  0  0  0  0  0  0  0  0
   27.4292  -20.3454  -17.5623 C   0  0  0  0  0  0  0  0  0  0  0  0
   27.9411  -21.1352  -16.4154 C   0  0  2  0  0  0  0  0  0  0  0  0
   28.8335  -22.1995  -16.6754 N   0  0  0  0  0  0  0  0  0  0  0  0
   26.7744  -21.5457  -15.5860 C   0  0  0  0  0  0  0  0  0  0  0  0
   26.1428  -22.6140  -15.7979 O   0  0  0  0  0  0  0  0  0  0  0  0
   26.1119  -21.5267  -10.0398 N   0  0  0  0  0  0  0  0  0  0  0  0
   24.7262  -21.2409  -10.1790 C   0  0  0  0  0  0  0  0  0  0  0  0
   23.9162  -21.5659   -9.2821 O   0  0  0  0  0  0  0  0  0  0  0  0
   24.2478  -20.5438  -11.4173 C   0  0  0  0  0  0  0  0  0  0  0  0
   25.3765  -20.3444  -12.3656 C   0  0  0  0  0  0  0  0  0  0  0  0
   25.1984  -21.1165  -13.6778 C   0  0  2  0  0  0  0  0  0  0  0  0
   26.3512  -20.7256  -14.5299 N   0  0  0  0  0  0  0  0  0  0  0  0
   23.9959  -20.6066  -14.3435 C   0  0  0  0  0  0  0  0  0  0  0  0
   24.1897  -19.5073  -15.0101 O   0  0  0  0  0  0  0  0  0  0  0  0
   22.6995  -21.1522  -14.3515 N   0  0  0  0  0  0  0  0  0  0  0  0
   22.2679  -22.2899  -13.5699 C   0  0  0  0  0  0  0  0  0  0  0  0
   21.2524  -22.9557  -14.4331 C   0  0  0  0  0  0  0  0  0  0  0  0
   20.9418  -22.0129  -15.5723 C   0  0  0  0  0  0  0  0  0  0  0  0
   21.5647  -20.7161  -15.0988 C   0  0  1  0  0  0  0  0  0  0  0  0
   20.5750  -19.9931  -14.2058 C   0  0  0  0  0  0  0  0  0  0  0  0
   20.7301  -19.9203  -12.9726 O   0  0  0  0  0  0  0  0  0  0  0  0
   19.4668  -19.3940  -14.7592 O   0  0  0  0  0  0  0  0  0  0  0  0
  1  2  1  0
  2  3  2  0
  4  2  1  0
  5  4  1  0
  6  7  1  6
  6  5  1  0
  8  6  1  0
  9  8  2  0
 10 11  1  0
 11 13  1  0
 11 12  2  0
 13 14  1  0
 15 14  1  1
 15 16  1  0
 16  8  1  0
 17 19  1  0
 17 15  1  0
 18 17  2  0
 19 23  1  0
 20 21  1  0
 20 19  1  0
 21 22  1  0
 22 23  1  0
 23 24  1  1
 24 26  1  0
 25 24  2  0
M  END
$$$$
