QQP.pdb
     RDKit          3D

 26 26  0  0  1  0  0  0  0  0999 V2000
   30.4336  -21.0254  -18.6390 N   0  0  0  0  0  0  0  0  0  0  0  0
   30.9430  -19.9905  -19.5255 C   0  0  0  0  0  0  0  0  0  0  0  0
   31.4530  -20.4152  -20.5898 O   0  0  0  0  0  0  0  0  0  0  0  0
   30.8286  -18.5860  -19.1190 C   0  0  0  0  0  0  0  0  0  0  0  0
   30.1826  -18.3947  -17.7922 C   0  0  0  0  0  0  0  0  0  0  0  0
   28.7260  -18.6730  -17.8401 C   0  0  2  0  0  0  0  0  0  0  0  0
   27.9373  -17.9734  -18.7811 N   0  0  0  0  0  0  0  0  0  0  0  0
   28.1960  -18.5755  -16.4520 C   0  0  0  0  0  0  0  0  0  0  0  0
   28.9519  -18.5359  -15.4460 O   0  0  0  0  0  0  0  0  0  0  0  0
   22.9722  -15.7660  -15.2267 N   0  0  0  0  0  0  0  0  0  0  0  0
   24.2490  -15.1642  -15.0575 C   0  0  0  0  0  0  0  0  0  0  0  0
   24.3633  -13.9193  -15.0010 O   0  0  0  0  0  0  0  0  0  0  0  0
   25.4589  -16.0430  -14.9475 C   0  0  0  0  0  0  0  0  0  0  0  0
   25.0594  -17.4758  -14.9714 C   0  0  0  0  0  0  0  0  0  0  0  0
   26.2534  -18.4312  -14.8662 C   0  0  2  0  0  0  0  0  0  0  0  0
   26.8104  -18.5260  -16.2404 N   0  0  0  0  0  0  0  0  0  0  0  0
   25.7396  -19.7629  -14.5317 C   0  0  0  0  0  0  0  0  0  0  0  0
   25.3879  -20.4664  -15.5669 O   0  0  0  0  0  0  0  0  0  0  0  0
   25.5927  -20.3534  -13.2635 N   0  0  0  0  0  0  0  0  0  0  0  0
   25.9691  -19.7407  -12.0087 C   0  0  0  0  0  0  0  0  0  0  0  0
   26.4019  -20.8882  -11.1629 C   0  0  0  0  0  0  0  0  0  0  0  0
   25.9970  -22.1548  -11.8806 C   0  0  0  0  0  0  0  0  0  0  0  0
   25.0538  -21.6361  -12.9461 C   0  0  1  0  0  0  0  0  0  0  0  0
   23.6647  -21.5065  -12.3516 C   0  0  0  0  0  0  0  0  0  0  0  0
   22.9515  -22.4999  -12.1187 O   0  0  0  0  0  0  0  0  0  0  0  0
   23.1624  -20.2602  -12.0548 O   0  0  0  0  0  0  0  0  0  0  0  0
  1  2  1  0
  2  3  2  0
  4  2  1  0
  5  4  1  0
  6  7  1  6
  6  5  1  0
  8  6  1  0
  9  8  2  0
 10 11  1  0
 11 13  1  0
 11 12  2  0
 13 14  1  0
 15 14  1  6
 15 16  1  0
 16  8  1  0
 17 19  1  0
 17 15  1  0
 18 17  2  0
 19 23  1  0
 20 21  1  0
 20 19  1  0
 21 22  1  0
 22 23  1  0
 23 24  1  1
 24 26  1  0
 25 24  2  0
M  END
$$$$
