QQP.pdb
     RDKit          3D

 26 26  0  0  1  0  0  0  0  0999 V2000
   19.0483  -16.5993  -18.5268 N   0  0  0  0  0  0  0  0  0  0  0  0
   20.1962  -16.4984  -19.4149 C   0  0  0  0  0  0  0  0  0  0  0  0
   20.7113  -17.5967  -19.7337 O   0  0  0  0  0  0  0  0  0  0  0  0
   20.6464  -15.1713  -19.8475 C   0  0  0  0  0  0  0  0  0  0  0  0
   19.8468  -14.0511  -19.2819 C   0  0  0  0  0  0  0  0  0  0  0  0
   20.6703  -13.1574  -18.4307 C   0  0  2  0  0  0  0  0  0  0  0  0
   21.1198  -13.6429  -17.1820 N   0  0  0  0  0  0  0  0  0  0  0  0
   19.9658  -11.8497  -18.3253 C   0  0  0  0  0  0  0  0  0  0  0  0
   19.7075  -11.1430  -19.3346 O   0  0  0  0  0  0  0  0  0  0  0  0
   16.3039  -10.4069  -13.6178 N   0  0  0  0  0  0  0  0  0  0  0  0
   15.8632  -10.9938  -14.8353 C   0  0  0  0  0  0  0  0  0  0  0  0
   14.7540  -11.5697  -14.8993 O   0  0  0  0  0  0  0  0  0  0  0  0
   16.7472  -10.9133  -16.0438 C   0  0  0  0  0  0  0  0  0  0  0  0
   17.9888  -10.1584  -15.7251 C   0  0  0  0  0  0  0  0  0  0  0  0
   18.9387  -10.0372  -16.9220 C   0  0  2  0  0  0  0  0  0  0  0  0
   19.5706  -11.3742  -17.0664 N   0  0  0  0  0  0  0  0  0  0  0  0
   20.0109   -9.1065  -16.5567 C   0  0  0  0  0  0  0  0  0  0  0  0
   21.0562   -9.6838  -16.0427 O   0  0  0  0  0  0  0  0  0  0  0  0
   20.0439   -7.7074  -16.6981 N   0  0  0  0  0  0  0  0  0  0  0  0
   18.9767   -6.8980  -17.2435 C   0  0  0  0  0  0  0  0  0  0  0  0
   19.6854   -5.7780  -17.9237 C   0  0  0  0  0  0  0  0  0  0  0  0
   21.1362   -5.8436  -17.5067 C   0  0  0  0  0  0  0  0  0  0  0  0
   21.0952   -6.8106  -16.3418 C   0  0  1  0  0  0  0  0  0  0  0  0
   20.7475   -6.0448  -15.0798 C   0  0  0  0  0  0  0  0  0  0  0  0
   19.6112   -6.0892  -14.5731 O   0  0  0  0  0  0  0  0  0  0  0  0
   21.7056   -5.2729  -14.4636 O   0  0  0  0  0  0  0  0  0  0  0  0
  1  2  1  0
  2  3  2  0
  4  2  1  0
  5  4  1  0
  6  7  1  1
  6  5  1  0
  8  6  1  0
  9  8  2  0
 10 11  1  0
 11 13  1  0
 11 12  2  0
 13 14  1  0
 15 14  1  1
 15 16  1  0
 16  8  1  0
 17 19  1  0
 17 15  1  0
 18 17  2  0
 19 23  1  0
 20 21  1  0
 20 19  1  0
 21 22  1  0
 22 23  1  0
 23 24  1  1
 24 26  1  0
 25 24  2  0
M  END
$$$$
