QQP.pdb
     RDKit          3D

 26 26  0  0  1  0  0  0  0  0999 V2000
   17.9717  -25.5377    2.9942 N   0  0  0  0  0  0  0  0  0  0  0  0
   17.1598  -24.5241    3.6497 C   0  0  0  0  0  0  0  0  0  0  0  0
   17.6477  -24.0661    4.7106 O   0  0  0  0  0  0  0  0  0  0  0  0
   15.8818  -24.1353    3.0444 C   0  0  0  0  0  0  0  0  0  0  0  0
   15.9814  -22.9680    2.1270 C   0  0  0  0  0  0  0  0  0  0  0  0
   15.1362  -21.8351    2.5782 C   0  0  2  0  0  0  0  0  0  0  0  0
   14.1844  -21.3048    1.6784 N   0  0  0  0  0  0  0  0  0  0  0  0
   16.0342  -20.7952    3.1525 C   0  0  0  0  0  0  0  0  0  0  0  0
   16.5239  -19.8704    2.4527 O   0  0  0  0  0  0  0  0  0  0  0  0
   17.2959  -17.4519    7.9048 N   0  0  0  0  0  0  0  0  0  0  0  0
   17.0906  -16.7007    6.7154 C   0  0  0  0  0  0  0  0  0  0  0  0
   17.3812  -15.4842    6.6730 O   0  0  0  0  0  0  0  0  0  0  0  0
   16.5202  -17.3870    5.5105 C   0  0  0  0  0  0  0  0  0  0  0  0
   16.2352  -18.8146    5.8168 C   0  0  0  0  0  0  0  0  0  0  0  0
   17.2068  -19.7794    5.1279 C   0  0  2  0  0  0  0  0  0  0  0  0
   16.3560  -20.8333    4.5171 N   0  0  0  0  0  0  0  0  0  0  0  0
   18.0043  -20.4376    6.1671 C   0  0  0  0  0  0  0  0  0  0  0  0
   17.4198  -21.4660    6.7066 O   0  0  0  0  0  0  0  0  0  0  0  0
   19.2895  -20.1026    6.6304 N   0  0  0  0  0  0  0  0  0  0  0  0
   20.0733  -18.9755    6.1758 C   0  0  0  0  0  0  0  0  0  0  0  0
   21.4804  -19.4572    6.2612 C   0  0  0  0  0  0  0  0  0  0  0  0
   21.4648  -20.7607    7.0253 C   0  0  0  0  0  0  0  0  0  0  0  0
   20.0715  -20.7715    7.6191 C   0  0  1  0  0  0  0  0  0  0  0  0
   20.0850  -19.9886    8.9179 C   0  0  0  0  0  0  0  0  0  0  0  0
   20.5852  -20.4493    9.9607 O   0  0  0  0  0  0  0  0  0  0  0  0
   19.5318  -18.7294    8.9621 O   0  0  0  0  0  0  0  0  0  0  0  0
  1  2  1  0
  2  3  2  0
  4  2  1  0
  5  4  1  0
  6  7  1  6
  6  5  1  0
  8  6  1  0
  9  8  2  0
 10 11  1  0
 11 13  1  0
 11 12  2  0
 13 14  1  0
 15 14  1  1
 15 16  1  0
 16  8  1  0
 17 19  1  0
 17 15  1  0
 18 17  2  0
 19 23  1  0
 20 21  1  0
 20 19  1  0
 21 22  1  0
 22 23  1  0
 23 24  1  1
 24 26  1  0
 25 24  2  0
M  END
$$$$
