QQP.pdb
     RDKit          3D

 26 26  0  0  1  0  0  0  0  0999 V2000
   20.5939  -18.6025  -15.5115 N   0  0  0  0  0  0  0  0  0  0  0  0
   19.2165  -18.5881  -15.0435 C   0  0  0  0  0  0  0  0  0  0  0  0
   18.8770  -19.5969  -14.3800 O   0  0  0  0  0  0  0  0  0  0  0  0
   18.3645  -17.4413  -15.3749 C   0  0  0  0  0  0  0  0  0  0  0  0
   19.0705  -16.3625  -16.1180 C   0  0  0  0  0  0  0  0  0  0  0  0
   18.1587  -15.2481  -16.4756 C   0  0  2  0  0  0  0  0  0  0  0  0
   17.0227  -15.5345  -17.2658 N   0  0  0  0  0  0  0  0  0  0  0  0
   18.9858  -14.1402  -17.0287 C   0  0  0  0  0  0  0  0  0  0  0  0
   19.6459  -14.2623  -18.0938 O   0  0  0  0  0  0  0  0  0  0  0  0
   18.6347   -9.5544  -20.1210 N   0  0  0  0  0  0  0  0  0  0  0  0
   17.6934   -9.6275  -19.0581 C   0  0  0  0  0  0  0  0  0  0  0  0
   16.6605   -8.9212  -19.0731 O   0  0  0  0  0  0  0  0  0  0  0  0
   17.9557  -10.5641  -17.9169 C   0  0  0  0  0  0  0  0  0  0  0  0
   19.2036  -11.3365  -18.1601 C   0  0  0  0  0  0  0  0  0  0  0  0
   19.8821  -11.7994  -16.8659 C   0  0  2  0  0  0  0  0  0  0  0  0
   19.0432  -12.9129  -16.3522 N   0  0  0  0  0  0  0  0  0  0  0  0
   19.7784  -10.7131  -15.8869 C   0  0  0  0  0  0  0  0  0  0  0  0
   18.6981  -10.7570  -15.1649 O   0  0  0  0  0  0  0  0  0  0  0  0
   20.6841   -9.6657  -15.6395 N   0  0  0  0  0  0  0  0  0  0  0  0
   21.7762   -9.2840  -16.5074 C   0  0  0  0  0  0  0  0  0  0  0  0
   22.8317   -8.8078  -15.5701 C   0  0  0  0  0  0  0  0  0  0  0  0
   22.1974   -8.6798  -14.2047 C   0  0  0  0  0  0  0  0  0  0  0  0
   20.7199   -8.7772  -14.5234 C   0  0  1  0  0  0  0  0  0  0  0  0
   20.2092   -7.4028  -14.9103 C   0  0  0  0  0  0  0  0  0  0  0  0
   19.9133   -7.1155  -16.0850 O   0  0  0  0  0  0  0  0  0  0  0  0
   20.0625   -6.4322  -13.9459 O   0  0  0  0  0  0  0  0  0  0  0  0
  1  2  1  0
  2  3  2  0
  4  2  1  0
  5  4  1  0
  6  7  1  6
  6  5  1  0
  8  6  1  0
  9  8  2  0
 10 11  1  0
 11 13  1  0
 11 12  2  0
 13 14  1  0
 15 14  1  6
 15 16  1  0
 16  8  1  0
 17 19  1  0
 17 15  1  0
 18 17  2  0
 19 23  1  0
 20 21  1  0
 20 19  1  0
 21 22  1  0
 22 23  1  0
 23 24  1  6
 24 26  1  0
 25 24  2  0
M  END
$$$$
