QQP.pdb
     RDKit          3D

 26 26  0  0  1  0  0  0  0  0999 V2000
   21.8294  -18.6041  -20.5685 N   0  0  0  0  0  0  0  0  0  0  0  0
   22.2019  -17.3607  -19.9115 C   0  0  0  0  0  0  0  0  0  0  0  0
   22.6206  -16.4646  -20.6827 O   0  0  0  0  0  0  0  0  0  0  0  0
   22.0680  -17.2580  -18.4546 C   0  0  0  0  0  0  0  0  0  0  0  0
   21.4986  -18.4754  -17.8158 C   0  0  0  0  0  0  0  0  0  0  0  0
   21.1530  -18.2435  -16.3917 C   0  0  2  0  0  0  0  0  0  0  0  0
   20.3547  -17.1238  -16.0661 N   0  0  0  0  0  0  0  0  0  0  0  0
   22.4121  -18.3084  -15.5993 C   0  0  0  0  0  0  0  0  0  0  0  0
   23.0656  -17.2773  -15.2916 O   0  0  0  0  0  0  0  0  0  0  0  0
   23.4476  -20.6144  -10.6950 N   0  0  0  0  0  0  0  0  0  0  0  0
   24.7592  -21.0001  -11.0853 C   0  0  0  0  0  0  0  0  0  0  0  0
   25.6383  -21.2277  -10.2242 O   0  0  0  0  0  0  0  0  0  0  0  0
   25.0752  -21.1308  -12.5451 C   0  0  0  0  0  0  0  0  0  0  0  0
   23.8793  -20.7950  -13.3638 C   0  0  0  0  0  0  0  0  0  0  0  0
   24.1300  -19.6440  -14.3445 C   0  0  2  0  0  0  0  0  0  0  0  0
   22.9009  -19.5524  -15.1743 N   0  0  0  0  0  0  0  0  0  0  0  0
   25.2134  -20.0458  -15.2467 C   0  0  0  0  0  0  0  0  0  0  0  0
   24.8050  -20.6520  -16.3219 O   0  0  0  0  0  0  0  0  0  0  0  0
   26.5984  -19.8535  -15.0946 N   0  0  0  0  0  0  0  0  0  0  0  0
   27.2408  -19.3018  -13.9222 C   0  0  0  0  0  0  0  0  0  0  0  0
   28.4164  -18.5669  -14.4676 C   0  0  0  0  0  0  0  0  0  0  0  0
   28.5558  -18.9555  -15.9212 C   0  0  0  0  0  0  0  0  0  0  0  0
   27.6372  -20.1552  -16.0254 C   0  0  1  0  0  0  0  0  0  0  0  0
   28.3992  -21.3957  -15.6012 C   0  0  0  0  0  0  0  0  0  0  0  0
   28.2370  -21.9196  -14.4835 O   0  0  0  0  0  0  0  0  0  0  0  0
   29.3011  -21.9724  -16.4659 O   0  0  0  0  0  0  0  0  0  0  0  0
  1  2  1  0
  2  3  2  0
  4  2  1  0
  5  4  1  0
  6  7  1  6
  6  5  1  0
  8  6  1  0
  9  8  2  0
 10 11  1  0
 11 13  1  0
 11 12  2  0
 13 14  1  0
 15 14  1  1
 15 16  1  0
 16  8  1  0
 17 19  1  0
 17 15  1  0
 18 17  2  0
 19 23  1  0
 20 21  1  0
 20 19  1  0
 21 22  1  0
 22 23  1  0
 23 24  1  1
 24 26  1  0
 25 24  2  0
M  END
$$$$
