QQP.pdb
     RDKit          3D

 26 26  0  0  1  0  0  0  0  0999 V2000
   35.7730  -33.1582  -20.8044 N   0  0  0  0  0  0  0  0  0  0  0  0
   35.8504  -32.2839  -19.6442 C   0  0  0  0  0  0  0  0  0  0  0  0
   36.8243  -31.4936  -19.6466 O   0  0  0  0  0  0  0  0  0  0  0  0
   34.8254  -32.3938  -18.6010 C   0  0  0  0  0  0  0  0  0  0  0  0
   33.8044  -33.4426  -18.8693 C   0  0  0  0  0  0  0  0  0  0  0  0
   32.5693  -32.8742  -19.4632 C   0  0  2  0  0  0  0  0  0  0  0  0
   32.6964  -31.8626  -20.4417 N   0  0  0  0  0  0  0  0  0  0  0  0
   31.6599  -32.4915  -18.3478 C   0  0  0  0  0  0  0  0  0  0  0  0
   31.7185  -33.0392  -17.2158 O   0  0  0  0  0  0  0  0  0  0  0  0
   29.6547  -27.0876  -17.1827 N   0  0  0  0  0  0  0  0  0  0  0  0
   28.5402  -27.7188  -16.5656 C   0  0  0  0  0  0  0  0  0  0  0  0
   27.7883  -27.0755  -15.7995 O   0  0  0  0  0  0  0  0  0  0  0  0
   28.2777  -29.1682  -16.8458 C   0  0  0  0  0  0  0  0  0  0  0  0
   29.2780  -29.6960  -17.8122 C   0  0  0  0  0  0  0  0  0  0  0  0
   29.7578  -31.1095  -17.4639 C   0  0  2  0  0  0  0  0  0  0  0  0
   30.6994  -31.4894  -18.5487 N   0  0  0  0  0  0  0  0  0  0  0  0
   28.6108  -32.0162  -17.5708 C   0  0  0  0  0  0  0  0  0  0  0  0
   28.4205  -32.4851  -18.7684 O   0  0  0  0  0  0  0  0  0  0  0  0
   27.7234  -32.4309  -16.5613 N   0  0  0  0  0  0  0  0  0  0  0  0
   27.7205  -31.9425  -15.2000 C   0  0  0  0  0  0  0  0  0  0  0  0
   27.2838  -33.1184  -14.3962 C   0  0  0  0  0  0  0  0  0  0  0  0
   26.7880  -34.1669  -15.3646 C   0  0  0  0  0  0  0  0  0  0  0  0
   26.6654  -33.3840  -16.6553 C   0  0  1  0  0  0  0  0  0  0  0  0
   25.3162  -32.6923  -16.6840 C   0  0  0  0  0  0  0  0  0  0  0  0
   25.1986  -31.4674  -16.4956 O   0  0  0  0  0  0  0  0  0  0  0  0
   24.1774  -33.4264  -16.9244 O   0  0  0  0  0  0  0  0  0  0  0  0
  1  2  1  0
  2  3  2  0
  4  2  1  0
  5  4  1  0
  6  7  1  1
  6  5  1  0
  8  6  1  0
  9  8  2  0
 10 11  1  0
 11 13  1  0
 11 12  2  0
 13 14  1  0
 15 14  1  6
 15 16  1  0
 16  8  1  0
 17 19  1  0
 17 15  1  0
 18 17  2  0
 19 23  1  0
 20 21  1  0
 20 19  1  0
 21 22  1  0
 22 23  1  0
 23 24  1  1
 24 26  1  0
 25 24  2  0
M  END
$$$$
