QQP.pdb
     RDKit          3D

 26 26  0  0  1  0  0  0  0  0999 V2000
   27.6116  -20.2639  -21.4002 N   0  0  0  0  0  0  0  0  0  0  0  0
   28.4950  -19.5300  -20.5073 C   0  0  0  0  0  0  0  0  0  0  0  0
   28.3846  -18.2821  -20.5685 O   0  0  0  0  0  0  0  0  0  0  0  0
   29.4132  -20.2778  -19.6420 C   0  0  0  0  0  0  0  0  0  0  0  0
   29.3922  -19.8382  -18.2205 C   0  0  0  0  0  0  0  0  0  0  0  0
   28.6993  -20.8178  -17.3480 C   0  0  2  0  0  0  0  0  0  0  0  0
   27.7716  -21.7063  -17.9370 N   0  0  0  0  0  0  0  0  0  0  0  0
   28.1352  -20.0765  -16.1862 C   0  0  0  0  0  0  0  0  0  0  0  0
   28.8328  -19.2994  -15.4829 O   0  0  0  0  0  0  0  0  0  0  0  0
   22.6117  -18.0984  -14.6192 N   0  0  0  0  0  0  0  0  0  0  0  0
   22.8751  -18.8966  -15.7658 C   0  0  0  0  0  0  0  0  0  0  0  0
   21.9377  -19.4407  -16.3914 O   0  0  0  0  0  0  0  0  0  0  0  0
   24.2938  -19.0779  -16.2160 C   0  0  0  0  0  0  0  0  0  0  0  0
   25.2311  -18.5202  -15.2043 C   0  0  0  0  0  0  0  0  0  0  0  0
   26.2100  -19.5647  -14.6562 C   0  0  2  0  0  0  0  0  0  0  0  0
   26.7833  -20.2387  -15.8498 N   0  0  0  0  0  0  0  0  0  0  0  0
   25.4337  -20.5794  -13.9371 C   0  0  0  0  0  0  0  0  0  0  0  0
   25.0892  -21.5959  -14.6707 O   0  0  0  0  0  0  0  0  0  0  0  0
   25.0354  -20.5860  -12.5881 N   0  0  0  0  0  0  0  0  0  0  0  0
   25.3118  -19.5376  -11.6309 C   0  0  0  0  0  0  0  0  0  0  0  0
   25.4673  -20.2618  -10.3383 C   0  0  0  0  0  0  0  0  0  0  0  0
   25.0018  -21.6823  -10.5589 C   0  0  0  0  0  0  0  0  0  0  0  0
   24.2926  -21.5873  -11.8937 C   0  0  1  0  0  0  0  0  0  0  0  0
   22.8640  -21.1354  -11.6600 C   0  0  0  0  0  0  0  0  0  0  0  0
   22.4979  -19.9657  -11.8784 O   0  0  0  0  0  0  0  0  0  0  0  0
   21.9316  -22.0329  -11.1924 O   0  0  0  0  0  0  0  0  0  0  0  0
  1  2  1  0
  2  3  2  0
  4  2  1  0
  5  4  1  0
  6  7  1  6
  6  5  1  0
  8  6  1  0
  9  8  2  0
 10 11  1  0
 11 13  1  0
 11 12  2  0
 13 14  1  0
 15 14  1  6
 15 16  1  0
 16  8  1  0
 17 19  1  0
 17 15  1  0
 18 17  2  0
 19 23  1  0
 20 21  1  0
 20 19  1  0
 21 22  1  0
 22 23  1  0
 23 24  1  1
 24 26  1  0
 25 24  2  0
M  END
$$$$
