QQP.pdb
     RDKit          3D

 26 26  0  0  1  0  0  0  0  0999 V2000
   26.4180  -19.9092  -18.0705 N   0  0  0  0  0  0  0  0  0  0  0  0
   27.0255  -19.0229  -19.0512 C   0  0  0  0  0  0  0  0  0  0  0  0
   27.1983  -19.5332  -20.1839 O   0  0  0  0  0  0  0  0  0  0  0  0
   27.3785  -17.6563  -18.6528 C   0  0  0  0  0  0  0  0  0  0  0  0
   27.0518  -17.3396  -17.2360 C   0  0  0  0  0  0  0  0  0  0  0  0
   25.6554  -16.8623  -17.0829 C   0  0  2  0  0  0  0  0  0  0  0  0
   25.3985  -15.4788  -17.2126 N   0  0  0  0  0  0  0  0  0  0  0  0
   25.1111  -17.4378  -15.8219 C   0  0  0  0  0  0  0  0  0  0  0  0
   25.4842  -17.0407  -14.6870 O   0  0  0  0  0  0  0  0  0  0  0  0
   19.7688  -20.5284  -15.5983 N   0  0  0  0  0  0  0  0  0  0  0  0
   20.2442  -20.8403  -14.2952 C   0  0  0  0  0  0  0  0  0  0  0  0
   19.5615  -21.5484  -13.5214 O   0  0  0  0  0  0  0  0  0  0  0  0
   21.5767  -20.3083  -13.8600 C   0  0  0  0  0  0  0  0  0  0  0  0
   22.2079  -19.5340  -14.9624 C   0  0  0  0  0  0  0  0  0  0  0  0
   23.6428  -19.1000  -14.6428 C   0  0  2  0  0  0  0  0  0  0  0  0
   24.1505  -18.4579  -15.8828 N   0  0  0  0  0  0  0  0  0  0  0  0
   24.4469  -20.3089  -14.4399 C   0  0  0  0  0  0  0  0  0  0  0  0
   25.0172  -20.7492  -15.5221 O   0  0  0  0  0  0  0  0  0  0  0  0
   24.6725  -21.0228  -13.2491 N   0  0  0  0  0  0  0  0  0  0  0  0
   24.0123  -20.7712  -11.9872 C   0  0  0  0  0  0  0  0  0  0  0  0
   25.0453  -21.1058  -10.9671 C   0  0  0  0  0  0  0  0  0  0  0  0
   26.1786  -21.8011  -11.6849 C   0  0  0  0  0  0  0  0  0  0  0  0
   25.5638  -22.1161  -13.0328 C   0  0  1  0  0  0  0  0  0  0  0  0
   24.8011  -23.4229  -12.9315 C   0  0  0  0  0  0  0  0  0  0  0  0
   23.5630  -23.4561  -12.8052 O   0  0  0  0  0  0  0  0  0  0  0  0
   25.4831  -24.6172  -12.9789 O   0  0  0  0  0  0  0  0  0  0  0  0
  1  2  1  0
  2  3  2  0
  4  2  1  0
  5  4  1  0
  6  7  1  1
  6  5  1  0
  8  6  1  0
  9  8  2  0
 10 11  1  0
 11 13  1  0
 11 12  2  0
 13 14  1  0
 15 14  1  6
 15 16  1  0
 16  8  1  0
 17 19  1  0
 17 15  1  0
 18 17  2  0
 19 23  1  0
 20 21  1  0
 20 19  1  0
 21 22  1  0
 22 23  1  0
 23 24  1  1
 24 26  1  0
 25 24  2  0
M  END
$$$$
