QQP.pdb
     RDKit          3D

 26 26  0  0  1  0  0  0  0  0999 V2000
   21.6995  -18.3875  -19.4224 N   0  0  0  0  0  0  0  0  0  0  0  0
   20.2702  -18.4964  -19.1739 C   0  0  0  0  0  0  0  0  0  0  0  0
   19.5872  -18.8248  -20.1733 O   0  0  0  0  0  0  0  0  0  0  0  0
   19.7592  -18.2201  -17.8272 C   0  0  0  0  0  0  0  0  0  0  0  0
   20.8226  -17.9211  -16.8302 C   0  0  0  0  0  0  0  0  0  0  0  0
   21.4660  -19.1565  -16.3193 C   0  0  2  0  0  0  0  0  0  0  0  0
   20.7304  -19.9862  -15.4434 N   0  0  0  0  0  0  0  0  0  0  0  0
   22.8040  -18.7860  -15.7807 C   0  0  0  0  0  0  0  0  0  0  0  0
   23.4731  -17.8268  -16.2466 O   0  0  0  0  0  0  0  0  0  0  0  0
   25.0429  -21.1046  -10.4406 N   0  0  0  0  0  0  0  0  0  0  0  0
   26.2617  -20.6459  -11.0110 C   0  0  0  0  0  0  0  0  0  0  0  0
   27.3463  -20.8043  -10.4070 O   0  0  0  0  0  0  0  0  0  0  0  0
   26.2298  -19.9685  -12.3482 C   0  0  0  0  0  0  0  0  0  0  0  0
   24.8397  -19.9366  -12.8771 C   0  0  0  0  0  0  0  0  0  0  0  0
   24.7373  -19.2602  -14.2488 C   0  0  2  0  0  0  0  0  0  0  0  0
   23.3522  -19.5208  -14.7193 N   0  0  0  0  0  0  0  0  0  0  0  0
   25.6309  -19.9681  -15.1705 C   0  0  0  0  0  0  0  0  0  0  0  0
   25.1011  -21.0266  -15.7081 O   0  0  0  0  0  0  0  0  0  0  0  0
   26.9501  -19.6440  -15.5356 N   0  0  0  0  0  0  0  0  0  0  0  0
   27.8040  -18.7093  -14.8365 C   0  0  0  0  0  0  0  0  0  0  0  0
   28.6358  -18.1052  -15.9148 C   0  0  0  0  0  0  0  0  0  0  0  0
   28.4118  -18.9209  -17.1669 C   0  0  0  0  0  0  0  0  0  0  0  0
   27.7111  -20.1519  -16.6307 C   0  0  1  0  0  0  0  0  0  0  0  0
   28.7552  -21.1413  -16.1504 C   0  0  0  0  0  0  0  0  0  0  0  0
   28.9222  -21.3895  -14.9419 O   0  0  0  0  0  0  0  0  0  0  0  0
   29.5504  -21.7930  -17.0649 O   0  0  0  0  0  0  0  0  0  0  0  0
  1  2  1  0
  2  3  2  0
  4  2  1  0
  5  4  1  0
  6  7  1  1
  6  5  1  0
  8  6  1  0
  9  8  2  0
 10 11  1  0
 11 13  1  0
 11 12  2  0
 13 14  1  0
 15 14  1  1
 15 16  1  0
 16  8  1  0
 17 19  1  0
 17 15  1  0
 18 17  2  0
 19 23  1  0
 20 21  1  0
 20 19  1  0
 21 22  1  0
 22 23  1  0
 23 24  1  1
 24 26  1  0
 25 24  2  0
M  END
$$$$
