DQF.pdb
     RDKit          3D

 29 29  0  0  1  0  0  0  0  0999 V2000
    8.5331  -14.3022   20.0140 N   0  0  0  0  0  0  0  0  0  0  0  0
    7.2808  -14.9455   20.5079 C   0  0  1  0  0  0  0  0  0  0  0  0
    6.5712  -15.5751   19.3648 C   0  0  0  0  0  0  0  0  0  0  0  0
    7.4574  -16.1109   18.3318 C   0  0  0  0  0  0  0  0  0  0  0  0
    8.6905  -16.1322   18.4902 O   0  0  0  0  0  0  0  0  0  0  0  0
    7.6880  -15.9196   21.5821 C   0  0  0  0  0  0  0  0  0  0  0  0
    6.8900  -16.5809   22.2627 O   0  0  0  0  0  0  0  0  0  0  0  0
    6.9508  -16.6242   17.1164 O   0  0  0  0  0  0  0  0  0  0  0  0
   10.0775  -20.4757   23.3233 N   0  0  0  0  0  0  0  0  0  0  0  0
   10.1701  -20.2018   21.9344 C   0  0  0  0  0  0  0  0  0  0  0  0
    9.9159  -21.1241   21.1285 O   0  0  0  0  0  0  0  0  0  0  0  0
   10.5548  -18.8759   21.4050 C   0  0  0  0  0  0  0  0  0  0  0  0
   10.7640  -17.8201   22.4217 C   0  0  0  0  0  0  0  0  0  0  0  0
    9.5281  -17.1169   22.8568 C   0  0  2  0  0  0  0  0  0  0  0  0
    9.0736  -16.1398   21.8841 N   0  0  0  0  0  0  0  0  0  0  0  0
    9.6881  -16.3946   24.1610 C   0  0  0  0  0  0  0  0  0  0  0  0
   10.4422  -15.4058   24.3179 O   0  0  0  0  0  0  0  0  0  0  0  0
    8.9664  -16.8191   25.3052 N   0  0  0  0  0  0  0  0  0  0  0  0
    9.1631  -16.1772   26.5912 C   0  0  1  0  0  0  0  0  0  0  0  0
    7.8109  -15.6806   27.0686 C   0  0  0  0  0  0  0  0  0  0  0  0
    7.4492  -14.3632   26.5359 C   0  0  0  0  0  0  0  0  0  0  0  0
    6.4880  -14.2043   25.5587 C   0  0  0  0  0  0  0  0  0  0  0  0
    6.1829  -12.9409   25.0961 C   0  0  0  0  0  0  0  0  0  0  0  0
    6.8054  -11.8103   25.5739 C   0  0  0  0  0  0  0  0  0  0  0  0
    7.7665  -11.9636   26.5500 C   0  0  0  0  0  0  0  0  0  0  0  0
    8.0774  -13.2378   27.0196 C   0  0  0  0  0  0  0  0  0  0  0  0
    9.7895  -17.1387   27.5204 C   0  0  0  0  0  0  0  0  0  0  0  0
   10.1109  -16.8068   28.6811 O   0  0  0  0  0  0  0  0  0  0  0  0
   10.0305  -18.4333   27.1108 O   0  0  0  0  0  0  0  0  0  0  0  0
  2  1  1  6
  2  6  1  0
  3  2  1  0
  4  3  1  0
  4  5  2  0
  6  7  2  0
  8  4  1  0
  9 10  1  0
 10 12  1  0
 10 11  2  0
 12 13  1  0
 14 13  1  6
 14 16  1  0
 15  6  1  0
 15 14  1  0
 16 17  2  0
 18 19  1  0
 18 16  1  0
 19 27  1  0
 19 20  1  1
 21 20  1  0
 22 21  2  0
 23 22  1  0
 24 23  2  0
 24 25  1  0
 25 26  2  0
 26 21  1  0
 27 28  2  0
 27 29  1  0
M  END
$$$$
