DQF.pdb
     RDKit          3D

 29 29  0  0  1  0  0  0  0  0999 V2000
    7.9686  -18.3316   18.7876 N   0  0  0  0  0  0  0  0  0  0  0  0
    8.4636  -16.9348   18.9599 C   0  0  1  0  0  0  0  0  0  0  0  0
    7.8252  -16.0612   17.9420 C   0  0  0  0  0  0  0  0  0  0  0  0
    8.0918  -16.4587   16.5599 C   0  0  0  0  0  0  0  0  0  0  0  0
    8.0728  -17.6545   16.2197 O   0  0  0  0  0  0  0  0  0  0  0  0
    8.1573  -16.5380   20.3802 C   0  0  0  0  0  0  0  0  0  0  0  0
    8.4421  -15.4366   20.8735 O   0  0  0  0  0  0  0  0  0  0  0  0
    8.3806  -15.5042   15.5585 O   0  0  0  0  0  0  0  0  0  0  0  0
    5.8755  -19.2586   25.7759 N   0  0  0  0  0  0  0  0  0  0  0  0
    6.4612  -19.9850   24.7073 C   0  0  0  0  0  0  0  0  0  0  0  0
    6.8496  -21.1539   24.9258 O   0  0  0  0  0  0  0  0  0  0  0  0
    6.6309  -19.4170   23.3527 C   0  0  0  0  0  0  0  0  0  0  0  0
    6.0678  -18.0619   23.1550 C   0  0  0  0  0  0  0  0  0  0  0  0
    7.0153  -17.0679   22.5846 C   0  0  2  0  0  0  0  0  0  0  0  0
    7.4951  -17.4499   21.2688 N   0  0  0  0  0  0  0  0  0  0  0  0
    8.2237  -16.8439   23.4434 C   0  0  0  0  0  0  0  0  0  0  0  0
    9.3157  -17.4347   23.2712 O   0  0  0  0  0  0  0  0  0  0  0  0
    8.1734  -15.9230   24.5202 N   0  0  0  0  0  0  0  0  0  0  0  0
    9.3666  -15.5958   25.2778 C   0  0  1  0  0  0  0  0  0  0  0  0
    9.4800  -14.0833   25.3261 C   0  0  0  0  0  0  0  0  0  0  0  0
    8.2531  -13.4180   25.7763 C   0  0  0  0  0  0  0  0  0  0  0  0
    7.1581  -13.2598   24.9518 C   0  0  0  0  0  0  0  0  0  0  0  0
    6.0267  -12.6300   25.4280 C   0  0  0  0  0  0  0  0  0  0  0  0
    5.9389  -12.1432   26.7123 C   0  0  0  0  0  0  0  0  0  0  0  0
    7.0302  -12.2985   27.5399 C   0  0  0  0  0  0  0  0  0  0  0  0
    8.1744  -12.9340   27.0626 C   0  0  0  0  0  0  0  0  0  0  0  0
    9.2741  -16.2140   26.6155 C   0  0  0  0  0  0  0  0  0  0  0  0
   10.1857  -16.0790   27.4590 O   0  0  0  0  0  0  0  0  0  0  0  0
    8.1637  -16.9587   26.9536 O   0  0  0  0  0  0  0  0  0  0  0  0
  2  1  1  6
  2  6  1  0
  3  2  1  0
  4  3  1  0
  4  5  2  0
  6  7  2  0
  8  4  1  0
  9 10  1  0
 10 12  1  0
 10 11  2  0
 12 13  1  0
 14 13  1  1
 14 16  1  0
 15  6  1  0
 15 14  1  0
 16 17  2  0
 18 19  1  0
 18 16  1  0
 19 27  1  0
 19 20  1  1
 21 20  1  0
 22 21  2  0
 23 22  1  0
 24 23  2  0
 24 25  1  0
 25 26  2  0
 26 21  1  0
 27 28  2  0
 27 29  1  0
M  END
$$$$
