DQF.pdb
     RDKit          3D

 29 29  0  0  1  0  0  0  0  0999 V2000
    6.2970  -19.4366   22.2931 N   0  0  0  0  0  0  0  0  0  0  0  0
    6.6866  -18.3094   21.3967 C   0  0  1  0  0  0  0  0  0  0  0  0
    5.4613  -17.6908   20.8288 C   0  0  0  0  0  0  0  0  0  0  0  0
    4.6407  -18.6062   20.0362 C   0  0  0  0  0  0  0  0  0  0  0  0
    4.2281  -19.6775   20.5139 O   0  0  0  0  0  0  0  0  0  0  0  0
    7.5176  -17.3643   22.2241 C   0  0  0  0  0  0  0  0  0  0  0  0
    7.1470  -16.8671   23.2978 O   0  0  0  0  0  0  0  0  0  0  0  0
    4.2845  -18.3120   18.7006 O   0  0  0  0  0  0  0  0  0  0  0  0
    7.5380  -12.4758   19.3656 N   0  0  0  0  0  0  0  0  0  0  0  0
    7.9052  -13.7485   18.8579 C   0  0  0  0  0  0  0  0  0  0  0  0
    7.5520  -14.0496   17.6963 O   0  0  0  0  0  0  0  0  0  0  0  0
    8.6840  -14.7287   19.6447 C   0  0  0  0  0  0  0  0  0  0  0  0
    8.5065  -14.6526   21.1127 C   0  0  0  0  0  0  0  0  0  0  0  0
    9.3279  -15.6156   21.8930 C   0  0  2  0  0  0  0  0  0  0  0  0
    8.8309  -16.9761   21.7949 N   0  0  0  0  0  0  0  0  0  0  0  0
    9.4023  -15.2809   23.3527 C   0  0  0  0  0  0  0  0  0  0  0  0
    9.8098  -14.1797   23.7915 O   0  0  0  0  0  0  0  0  0  0  0  0
    9.0002  -16.2318   24.3244 N   0  0  0  0  0  0  0  0  0  0  0  0
    9.0720  -15.9262   25.7408 C   0  0  1  0  0  0  0  0  0  0  0  0
    7.6664  -15.6034   26.2131 C   0  0  0  0  0  0  0  0  0  0  0  0
    7.3566  -14.1702   26.1941 C   0  0  0  0  0  0  0  0  0  0  0  0
    8.2073  -13.2274   26.7339 C   0  0  0  0  0  0  0  0  0  0  0  0
    7.8690  -11.8908   26.6849 C   0  0  0  0  0  0  0  0  0  0  0  0
    6.6995  -11.4466   26.1112 C   0  0  0  0  0  0  0  0  0  0  0  0
    5.8462  -12.3845   25.5707 C   0  0  0  0  0  0  0  0  0  0  0  0
    6.1843  -13.7351   25.6183 C   0  0  0  0  0  0  0  0  0  0  0  0
    9.6748  -17.0710   26.4522 C   0  0  0  0  0  0  0  0  0  0  0  0
    9.9579  -18.1316   25.8558 O   0  0  0  0  0  0  0  0  0  0  0  0
    9.9357  -16.9808   27.8034 O   0  0  0  0  0  0  0  0  0  0  0  0
  2  1  1  1
  2  6  1  0
  3  2  1  0
  4  3  1  0
  4  5  2  0
  6  7  2  0
  8  4  1  0
  9 10  1  0
 10 12  1  0
 10 11  2  0
 12 13  1  0
 14 13  1  6
 14 16  1  0
 15  6  1  0
 15 14  1  0
 16 17  2  0
 18 19  1  0
 18 16  1  0
 19 27  1  0
 19 20  1  1
 21 20  1  0
 22 21  2  0
 23 22  1  0
 24 23  2  0
 24 25  1  0
 25 26  2  0
 26 21  1  0
 27 28  2  0
 27 29  1  0
M  END
$$$$
