DQF.pdb
     RDKit          3D

 29 29  0  0  1  0  0  0  0  0999 V2000
    9.6469  -13.0870   18.8623 N   0  0  0  0  0  0  0  0  0  0  0  0
    8.2128  -13.4592   19.0378 C   0  0  1  0  0  0  0  0  0  0  0  0
    7.5980  -13.6778   17.7033 C   0  0  0  0  0  0  0  0  0  0  0  0
    8.4645  -14.3725   16.7514 C   0  0  0  0  0  0  0  0  0  0  0  0
    9.3353  -15.1710   17.1388 O   0  0  0  0  0  0  0  0  0  0  0  0
    8.1857  -14.6749   19.9265 C   0  0  0  0  0  0  0  0  0  0  0  0
    7.1591  -15.3118   20.2057 O   0  0  0  0  0  0  0  0  0  0  0  0
    8.3481  -14.1657   15.3582 O   0  0  0  0  0  0  0  0  0  0  0  0
    9.1122  -20.0843   21.2821 N   0  0  0  0  0  0  0  0  0  0  0  0
    9.0383  -19.4994   19.9918 C   0  0  0  0  0  0  0  0  0  0  0  0
    8.4952  -20.1524   19.0734 O   0  0  0  0  0  0  0  0  0  0  0  0
    9.5766  -18.1554   19.6913 C   0  0  0  0  0  0  0  0  0  0  0  0
   10.2161  -17.4561   20.8290 C   0  0  0  0  0  0  0  0  0  0  0  0
    9.4255  -16.3320   21.3967 C   0  0  2  0  0  0  0  0  0  0  0  0
    9.3931  -15.1768   20.5181 N   0  0  0  0  0  0  0  0  0  0  0  0
    9.9403  -15.8590   22.7231 C   0  0  0  0  0  0  0  0  0  0  0  0
   10.8521  -15.0082   22.8495 O   0  0  0  0  0  0  0  0  0  0  0  0
    9.3952  -16.3755   23.9257 N   0  0  0  0  0  0  0  0  0  0  0  0
    9.0138  -15.4918   25.0112 C   0  0  1  0  0  0  0  0  0  0  0  0
    8.1018  -14.4240   24.4357 C   0  0  0  0  0  0  0  0  0  0  0  0
    7.5303  -13.5328   25.4504 C   0  0  0  0  0  0  0  0  0  0  0  0
    8.3088  -12.6659   26.1895 C   0  0  0  0  0  0  0  0  0  0  0  0
    7.7188  -11.8454   27.1285 C   0  0  0  0  0  0  0  0  0  0  0  0
    6.3632  -11.8524   27.3663 C   0  0  0  0  0  0  0  0  0  0  0  0
    5.5810  -12.7167   26.6308 C   0  0  0  0  0  0  0  0  0  0  0  0
    6.1733  -13.5468   25.6815 C   0  0  0  0  0  0  0  0  0  0  0  0
    8.3752  -16.2864   26.0794 C   0  0  0  0  0  0  0  0  0  0  0  0
    7.4634  -17.1022   25.8268 O   0  0  0  0  0  0  0  0  0  0  0  0
    8.7844  -16.1342   27.3876 O   0  0  0  0  0  0  0  0  0  0  0  0
  2  1  1  6
  2  6  1  0
  3  2  1  0
  4  3  1  0
  4  5  2  0
  6  7  2  0
  8  4  1  0
  9 10  1  0
 10 12  1  0
 10 11  2  0
 12 13  1  0
 14 13  1  6
 14 16  1  0
 15  6  1  0
 15 14  1  0
 16 17  2  0
 18 19  1  0
 18 16  1  0
 19 27  1  0
 19 20  1  6
 21 20  1  0
 22 21  2  0
 23 22  1  0
 24 23  2  0
 24 25  1  0
 25 26  2  0
 26 21  1  0
 27 28  2  0
 27 29  1  0
M  END
$$$$
