DQF.pdb
     RDKit          3D

 29 29  0  0  1  0  0  0  0  0999 V2000
    9.2026  -15.6995   19.3175 N   0  0  0  0  0  0  0  0  0  0  0  0
    7.8435  -15.8790   19.9061 C   0  0  1  0  0  0  0  0  0  0  0  0
    6.9824  -16.6026   18.9356 C   0  0  0  0  0  0  0  0  0  0  0  0
    7.2340  -16.2556   17.5371 C   0  0  0  0  0  0  0  0  0  0  0  0
    8.1566  -15.4837   17.2222 O   0  0  0  0  0  0  0  0  0  0  0  0
    8.0289  -16.6040   21.2131 C   0  0  0  0  0  0  0  0  0  0  0  0
    7.1038  -16.9001   21.9838 O   0  0  0  0  0  0  0  0  0  0  0  0
    6.4424  -16.7809   16.4909 O   0  0  0  0  0  0  0  0  0  0  0  0
    8.2225  -21.2098   21.3224 N   0  0  0  0  0  0  0  0  0  0  0  0
    9.2937  -20.8121   22.1631 C   0  0  0  0  0  0  0  0  0  0  0  0
    9.3937  -21.3446   23.2906 O   0  0  0  0  0  0  0  0  0  0  0  0
   10.2908  -19.7967   21.7614 C   0  0  0  0  0  0  0  0  0  0  0  0
   10.5964  -18.7661   22.7795 C   0  0  0  0  0  0  0  0  0  0  0  0
    9.5777  -17.6902   22.9060 C   0  0  2  0  0  0  0  0  0  0  0  0
    9.3362  -17.0039   21.6498 N   0  0  0  0  0  0  0  0  0  0  0  0
    9.9475  -16.6428   23.9131 C   0  0  0  0  0  0  0  0  0  0  0  0
   10.2889  -15.4763   23.6068 O   0  0  0  0  0  0  0  0  0  0  0  0
    9.9236  -16.9445   25.2983 N   0  0  0  0  0  0  0  0  0  0  0  0
    9.3619  -16.0099   26.2552 C   0  0  1  0  0  0  0  0  0  0  0  0
    7.9424  -15.7005   25.8166 C   0  0  0  0  0  0  0  0  0  0  0  0
    7.6355  -14.2667   25.7946 C   0  0  0  0  0  0  0  0  0  0  0  0
    7.4203  -13.5793   24.6177 C   0  0  0  0  0  0  0  0  0  0  0  0
    7.1301  -12.2311   24.6545 C   0  0  0  0  0  0  0  0  0  0  0  0
    7.0439  -11.5271   25.8340 C   0  0  0  0  0  0  0  0  0  0  0  0
    7.2582  -12.2092   27.0124 C   0  0  0  0  0  0  0  0  0  0  0  0
    7.5515  -13.5707   26.9793 C   0  0  0  0  0  0  0  0  0  0  0  0
    9.4362  -16.5993   27.6070 C   0  0  0  0  0  0  0  0  0  0  0  0
    9.5604  -15.8832   28.6231 O   0  0  0  0  0  0  0  0  0  0  0  0
    9.3685  -17.9677   27.7651 O   0  0  0  0  0  0  0  0  0  0  0  0
  2  1  1  6
  2  6  1  0
  3  2  1  0
  4  3  1  0
  4  5  2  0
  6  7  2  0
  8  4  1  0
  9 10  1  0
 10 12  1  0
 10 11  2  0
 12 13  1  0
 14 13  1  6
 14 16  1  0
 15  6  1  0
 15 14  1  0
 16 17  2  0
 18 19  1  0
 18 16  1  0
 19 27  1  0
 19 20  1  6
 21 20  1  0
 22 21  2  0
 23 22  1  0
 24 23  2  0
 24 25  1  0
 25 26  2  0
 26 21  1  0
 27 28  2  0
 27 29  1  0
M  END
$$$$
