DQF.pdb
     RDKit          3D

 29 29  0  0  1  0  0  0  0  0999 V2000
   10.0861  -14.3113   18.1489 N   0  0  0  0  0  0  0  0  0  0  0  0
    8.8190  -13.7873   18.7368 C   0  0  1  0  0  0  0  0  0  0  0  0
    7.7983  -13.6616   17.6649 C   0  0  0  0  0  0  0  0  0  0  0  0
    8.2629  -14.0829   16.3434 C   0  0  0  0  0  0  0  0  0  0  0  0
    8.1178  -13.3523   15.3478 O   0  0  0  0  0  0  0  0  0  0  0  0
    8.4283  -14.7348   19.8405 C   0  0  0  0  0  0  0  0  0  0  0  0
    7.3934  -14.6307   20.5153 O   0  0  0  0  0  0  0  0  0  0  0  0
    8.8931  -15.3321   16.1447 O   0  0  0  0  0  0  0  0  0  0  0  0
   12.8275  -19.0381   22.4008 N   0  0  0  0  0  0  0  0  0  0  0  0
   11.9477  -19.1069   21.2900 C   0  0  0  0  0  0  0  0  0  0  0  0
   11.8663  -20.1858   20.6623 O   0  0  0  0  0  0  0  0  0  0  0  0
   11.1284  -17.9586   20.8468 C   0  0  0  0  0  0  0  0  0  0  0  0
    9.6834  -18.0496   21.1566 C   0  0  0  0  0  0  0  0  0  0  0  0
    8.9888  -16.7417   21.2907 C   0  0  2  0  0  0  0  0  0  0  0  0
    9.2668  -15.8490   20.1802 N   0  0  0  0  0  0  0  0  0  0  0  0
    9.3525  -16.0061   22.5456 C   0  0  0  0  0  0  0  0  0  0  0  0
   10.0848  -14.9890   22.5654 O   0  0  0  0  0  0  0  0  0  0  0  0
    8.8640  -16.4501   23.8003 N   0  0  0  0  0  0  0  0  0  0  0  0
    8.6842  -15.5224   24.9010 C   0  0  1  0  0  0  0  0  0  0  0  0
    7.7582  -14.4184   24.4250 C   0  0  0  0  0  0  0  0  0  0  0  0
    7.3240  -13.5156   25.4958 C   0  0  0  0  0  0  0  0  0  0  0  0
    5.9969  -13.3779   25.8479 C   0  0  0  0  0  0  0  0  0  0  0  0
    5.6436  -12.5174   26.8667 C   0  0  0  0  0  0  0  0  0  0  0  0
    6.5722  -11.7759   27.5611 C   0  0  0  0  0  0  0  0  0  0  0  0
    7.8992  -11.9097   27.2132 C   0  0  0  0  0  0  0  0  0  0  0  0
    8.2598  -12.7777   26.1848 C   0  0  0  0  0  0  0  0  0  0  0  0
    8.1598  -16.2558   26.0703 C   0  0  0  0  0  0  0  0  0  0  0  0
    8.4521  -15.9156   27.2364 O   0  0  0  0  0  0  0  0  0  0  0  0
    7.3292  -17.3411   25.8854 O   0  0  0  0  0  0  0  0  0  0  0  0
  2  1  1  6
  2  6  1  0
  3  2  1  0
  4  3  1  0
  4  5  2  0
  6  7  2  0
  8  4  1  0
  9 10  1  0
 10 12  1  0
 10 11  2  0
 12 13  1  0
 14 13  1  6
 14 16  1  0
 15  6  1  0
 15 14  1  0
 16 17  2  0
 18 19  1  0
 18 16  1  0
 19 27  1  0
 19 20  1  6
 21 20  1  0
 22 21  2  0
 23 22  1  0
 24 23  2  0
 24 25  1  0
 25 26  2  0
 26 21  1  0
 27 28  2  0
 27 29  1  0
M  END
$$$$
