DQF.pdb
     RDKit          3D

 29 29  0  0  1  0  0  0  0  0999 V2000
   11.4206  -16.8638   16.0428 N   0  0  0  0  0  0  0  0  0  0  0  0
   10.1209  -16.2065   16.3662 C   0  0  1  0  0  0  0  0  0  0  0  0
    9.1022  -16.6201   15.3672 C   0  0  0  0  0  0  0  0  0  0  0  0
    9.5879  -16.6342   13.9875 C   0  0  0  0  0  0  0  0  0  0  0  0
   10.7015  -17.1086   13.7027 O   0  0  0  0  0  0  0  0  0  0  0  0
    9.7784  -16.5947   17.7805 C   0  0  0  0  0  0  0  0  0  0  0  0
    8.7691  -16.2045   18.3859 O   0  0  0  0  0  0  0  0  0  0  0  0
    8.8149  -16.1117   12.9261 O   0  0  0  0  0  0  0  0  0  0  0  0
   12.5375  -21.5699   21.0029 N   0  0  0  0  0  0  0  0  0  0  0  0
   11.4925  -21.0624   21.8171 C   0  0  0  0  0  0  0  0  0  0  0  0
   11.2618  -21.6277   22.9089 O   0  0  0  0  0  0  0  0  0  0  0  0
   10.6688  -19.8981   21.4271 C   0  0  0  0  0  0  0  0  0  0  0  0
   11.0496  -19.2462   20.1534 C   0  0  0  0  0  0  0  0  0  0  0  0
   10.2736  -18.0222   19.8205 C   0  0  2  0  0  0  0  0  0  0  0  0
   10.6361  -17.4694   18.5281 N   0  0  0  0  0  0  0  0  0  0  0  0
   10.4409  -16.9249   20.8286 C   0  0  0  0  0  0  0  0  0  0  0  0
   11.4401  -16.1695   20.8716 O   0  0  0  0  0  0  0  0  0  0  0  0
    9.4390  -16.6939   21.8049 N   0  0  0  0  0  0  0  0  0  0  0  0
    9.6205  -15.6895   22.8359 C   0  0  1  0  0  0  0  0  0  0  0  0
    8.3799  -14.8157   22.8497 C   0  0  0  0  0  0  0  0  0  0  0  0
    8.2312  -13.9907   21.6465 C   0  0  0  0  0  0  0  0  0  0  0  0
    7.2027  -14.1822   20.7467 C   0  0  0  0  0  0  0  0  0  0  0  0
    7.1070  -13.3740   19.6328 C   0  0  0  0  0  0  0  0  0  0  0  0
    8.0076  -12.3662   19.3732 C   0  0  0  0  0  0  0  0  0  0  0  0
    9.0370  -12.1709   20.2688 C   0  0  0  0  0  0  0  0  0  0  0  0
    9.1369  -12.9850   21.3949 C   0  0  0  0  0  0  0  0  0  0  0  0
    9.8713  -16.3618   24.1264 C   0  0  0  0  0  0  0  0  0  0  0  0
   10.2512  -15.7223   25.1302 O   0  0  0  0  0  0  0  0  0  0  0  0
    9.6863  -17.7238   24.2396 O   0  0  0  0  0  0  0  0  0  0  0  0
  2  1  1  6
  2  6  1  0
  3  2  1  0
  4  3  1  0
  4  5  2  0
  6  7  2  0
  8  4  1  0
  9 10  1  0
 10 12  1  0
 10 11  2  0
 12 13  1  0
 14 13  1  1
 14 16  1  0
 15  6  1  0
 15 14  1  0
 16 17  2  0
 18 19  1  0
 18 16  1  0
 19 27  1  0
 19 20  1  1
 21 20  1  0
 22 21  2  0
 23 22  1  0
 24 23  2  0
 24 25  1  0
 25 26  2  0
 26 21  1  0
 27 28  2  0
 27 29  1  0
M  END
$$$$
