DQF.pdb
     RDKit          3D

 29 29  0  0  1  0  0  0  0  0999 V2000
    8.0113  -19.0012   18.5881 N   0  0  0  0  0  0  0  0  0  0  0  0
    9.1259  -18.3354   19.3232 C   0  0  1  0  0  0  0  0  0  0  0  0
    9.8770  -17.4621   18.3851 C   0  0  0  0  0  0  0  0  0  0  0  0
   10.5967  -18.1872   17.3383 C   0  0  0  0  0  0  0  0  0  0  0  0
   10.1833  -18.2015   16.1657 O   0  0  0  0  0  0  0  0  0  0  0  0
    8.5031  -17.5947   20.4773 C   0  0  0  0  0  0  0  0  0  0  0  0
    7.9656  -16.4813   20.3828 O   0  0  0  0  0  0  0  0  0  0  0  0
   11.7863  -18.8980   17.6152 O   0  0  0  0  0  0  0  0  0  0  0  0
    5.3933  -20.7295   23.0044 N   0  0  0  0  0  0  0  0  0  0  0  0
    5.9848  -20.3645   24.2411 C   0  0  0  0  0  0  0  0  0  0  0  0
    5.9405  -21.1834   25.1857 O   0  0  0  0  0  0  0  0  0  0  0  0
    6.6469  -19.0601   24.4566 C   0  0  0  0  0  0  0  0  0  0  0  0
    6.5876  -18.1192   23.3149 C   0  0  0  0  0  0  0  0  0  0  0  0
    7.8902  -17.5083   22.9393 C   0  0  2  0  0  0  0  0  0  0  0  0
    8.5006  -18.1617   21.7957 N   0  0  0  0  0  0  0  0  0  0  0  0
    8.8977  -17.5372   24.0494 C   0  0  0  0  0  0  0  0  0  0  0  0
    9.0102  -18.4875   24.8589 O   0  0  0  0  0  0  0  0  0  0  0  0
    9.7916  -16.4516   24.2304 N   0  0  0  0  0  0  0  0  0  0  0  0
    9.4615  -15.3546   25.1204 C   0  0  1  0  0  0  0  0  0  0  0  0
    8.1172  -14.7996   24.6868 C   0  0  0  0  0  0  0  0  0  0  0  0
    7.6518  -13.6804   25.5121 C   0  0  0  0  0  0  0  0  0  0  0  0
    8.4878  -13.0121   26.3830 C   0  0  0  0  0  0  0  0  0  0  0  0
    7.9991  -11.9623   27.1328 C   0  0  0  0  0  0  0  0  0  0  0  0
    6.6908  -11.5431   27.0502 C   0  0  0  0  0  0  0  0  0  0  0  0
    5.8515  -12.2075   26.1818 C   0  0  0  0  0  0  0  0  0  0  0  0
    6.3414  -13.2682   25.4229 C   0  0  0  0  0  0  0  0  0  0  0  0
    9.4652  -15.8445   26.5133 C   0  0  0  0  0  0  0  0  0  0  0  0
   10.2552  -15.3821   27.3635 O   0  0  0  0  0  0  0  0  0  0  0  0
    8.5835  -16.8331   26.8968 O   0  0  0  0  0  0  0  0  0  0  0  0
  2  1  1  6
  2  6  1  0
  3  2  1  0
  4  3  1  0
  4  5  2  0
  6  7  2  0
  8  4  1  0
  9 10  1  0
 10 12  1  0
 10 11  2  0
 12 13  1  0
 14 13  1  1
 14 16  1  0
 15  6  1  0
 15 14  1  0
 16 17  2  0
 18 19  1  0
 18 16  1  0
 19 27  1  0
 19 20  1  6
 21 20  1  0
 22 21  2  0
 23 22  1  0
 24 23  2  0
 24 25  1  0
 25 26  2  0
 26 21  1  0
 27 28  2  0
 27 29  1  0
M  END
$$$$
