DQF.pdb
     RDKit          3D

 29 29  0  0  1  0  0  0  0  0999 V2000
    6.3779  -19.3358   22.4040 N   0  0  0  0  0  0  0  0  0  0  0  0
    7.7395  -19.8458   22.0695 C   0  0  1  0  0  0  0  0  0  0  0  0
    7.6341  -20.8302   20.9620 C   0  0  0  0  0  0  0  0  0  0  0  0
    6.6775  -21.9089   21.2087 C   0  0  0  0  0  0  0  0  0  0  0  0
    5.4567  -21.6826   21.2765 O   0  0  0  0  0  0  0  0  0  0  0  0
    8.5834  -18.6436   21.7364 C   0  0  0  0  0  0  0  0  0  0  0  0
    9.8064  -18.6838   21.5363 O   0  0  0  0  0  0  0  0  0  0  0  0
    7.0995  -23.2468   21.3795 O   0  0  0  0  0  0  0  0  0  0  0  0
    6.6515  -13.0255   19.1346 N   0  0  0  0  0  0  0  0  0  0  0  0
    8.0261  -12.8966   19.4609 C   0  0  0  0  0  0  0  0  0  0  0  0
    8.6510  -11.9063   19.0211 O   0  0  0  0  0  0  0  0  0  0  0  0
    8.7457  -13.8829   20.2951 C   0  0  0  0  0  0  0  0  0  0  0  0
    8.0346  -15.1607   20.5271 C   0  0  0  0  0  0  0  0  0  0  0  0
    8.7639  -16.1367   21.3795 C   0  0  2  0  0  0  0  0  0  0  0  0
    7.9919  -17.3403   21.6302 N   0  0  0  0  0  0  0  0  0  0  0  0
    9.1516  -15.5788   22.7161 C   0  0  0  0  0  0  0  0  0  0  0  0
    8.6915  -14.5097   23.1811 O   0  0  0  0  0  0  0  0  0  0  0  0
   10.0865  -16.2650   23.5319 N   0  0  0  0  0  0  0  0  0  0  0  0
   10.5599  -15.6837   24.7740 C   0  0  1  0  0  0  0  0  0  0  0  0
    9.3515  -15.4491   25.6615 C   0  0  0  0  0  0  0  0  0  0  0  0
    9.6938  -14.9498   26.9971 C   0  0  0  0  0  0  0  0  0  0  0  0
   10.0772  -15.7921   28.0206 C   0  0  0  0  0  0  0  0  0  0  0  0
   10.3931  -15.2686   29.2573 C   0  0  0  0  0  0  0  0  0  0  0  0
   10.3422  -13.9190   29.5218 C   0  0  0  0  0  0  0  0  0  0  0  0
    9.9596  -13.0733   28.5028 C   0  0  0  0  0  0  0  0  0  0  0  0
    9.6398  -13.5981   27.2526 C   0  0  0  0  0  0  0  0  0  0  0  0
   11.5588  -16.5864   25.3801 C   0  0  0  0  0  0  0  0  0  0  0  0
   12.6378  -16.1511   25.8351 O   0  0  0  0  0  0  0  0  0  0  0  0
   11.3079  -17.9406   25.4516 O   0  0  0  0  0  0  0  0  0  0  0  0
  2  1  1  6
  2  6  1  0
  3  2  1  0
  4  3  1  0
  4  5  2  0
  6  7  2  0
  8  4  1  0
  9 10  1  0
 10 12  1  0
 10 11  2  0
 12 13  1  0
 14 13  1  1
 14 16  1  0
 15  6  1  0
 15 14  1  0
 16 17  2  0
 18 19  1  0
 18 16  1  0
 19 27  1  0
 19 20  1  1
 21 20  1  0
 22 21  2  0
 23 22  1  0
 24 23  2  0
 24 25  1  0
 25 26  2  0
 26 21  1  0
 27 28  2  0
 27 29  1  0
M  END
$$$$
