DQF.pdb
     RDKit          3D

 29 29  0  0  1  0  0  0  0  0999 V2000
    7.6056  -16.4944   19.7661 N   0  0  0  0  0  0  0  0  0  0  0  0
    8.3849  -15.4765   20.5293 C   0  0  1  0  0  0  0  0  0  0  0  0
    7.9513  -14.1175   20.1148 C   0  0  0  0  0  0  0  0  0  0  0  0
    8.4285  -13.7142   18.7923 C   0  0  0  0  0  0  0  0  0  0  0  0
    9.1900  -14.4437   18.1335 O   0  0  0  0  0  0  0  0  0  0  0  0
    8.1633  -15.7664   21.9906 C   0  0  0  0  0  0  0  0  0  0  0  0
    7.1263  -15.4827   22.6084 O   0  0  0  0  0  0  0  0  0  0  0  0
    8.0454  -12.4841   18.2114 O   0  0  0  0  0  0  0  0  0  0  0  0
   10.0005  -20.8096   22.6545 N   0  0  0  0  0  0  0  0  0  0  0  0
   11.0096  -19.9982   23.2342 C   0  0  0  0  0  0  0  0  0  0  0  0
   12.2009  -20.3645   23.1277 O   0  0  0  0  0  0  0  0  0  0  0  0
   10.7095  -18.7437   23.9570 C   0  0  0  0  0  0  0  0  0  0  0  0
    9.2715  -18.4377   24.1323 C   0  0  0  0  0  0  0  0  0  0  0  0
    8.9283  -16.9919   24.0780 C   0  0  2  0  0  0  0  0  0  0  0  0
    9.1804  -16.4102   22.7721 N   0  0  0  0  0  0  0  0  0  0  0  0
    9.6836  -16.1680   25.0775 C   0  0  0  0  0  0  0  0  0  0  0  0
   10.7904  -15.6305   24.8381 O   0  0  0  0  0  0  0  0  0  0  0  0
    9.1546  -15.9596   26.3763 N   0  0  0  0  0  0  0  0  0  0  0  0
    9.8561  -15.1373   27.3439 C   0  0  1  0  0  0  0  0  0  0  0  0
    8.8237  -14.2806   28.0533 C   0  0  0  0  0  0  0  0  0  0  0  0
    8.0474  -13.4282   27.1472 C   0  0  0  0  0  0  0  0  0  0  0  0
    6.7808  -13.7712   26.7205 C   0  0  0  0  0  0  0  0  0  0  0  0
    6.0922  -12.9299   25.8712 C   0  0  0  0  0  0  0  0  0  0  0  0
    6.6211  -11.7415   25.4216 C   0  0  0  0  0  0  0  0  0  0  0  0
    7.8861  -11.3943   25.8447 C   0  0  0  0  0  0  0  0  0  0  0  0
    8.5846  -12.2413   26.7024 C   0  0  0  0  0  0  0  0  0  0  0  0
   10.6144  -16.0112   28.2612 C   0  0  0  0  0  0  0  0  0  0  0  0
   11.3468  -15.5366   29.1551 O   0  0  0  0  0  0  0  0  0  0  0  0
   10.5213  -17.3818   28.1392 O   0  0  0  0  0  0  0  0  0  0  0  0
  2  1  1  6
  2  6  1  0
  3  2  1  0
  4  3  1  0
  4  5  2  0
  6  7  2  0
  8  4  1  0
  9 10  1  0
 10 12  1  0
 10 11  2  0
 12 13  1  0
 14 13  1  6
 14 16  1  0
 15  6  1  0
 15 14  1  0
 16 17  2  0
 18 19  1  0
 18 16  1  0
 19 27  1  0
 19 20  1  1
 21 20  1  0
 22 21  2  0
 23 22  1  0
 24 23  2  0
 24 25  1  0
 25 26  2  0
 26 21  1  0
 27 28  2  0
 27 29  1  0
M  END
$$$$
