DQF.pdb
     RDKit          3D

 29 29  0  0  1  0  0  0  0  0999 V2000
    7.6312  -18.9508   17.7730 N   0  0  0  0  0  0  0  0  0  0  0  0
    8.6076  -18.0270   18.4205 C   0  0  1  0  0  0  0  0  0  0  0  0
    8.4834  -16.6785   17.8099 C   0  0  0  0  0  0  0  0  0  0  0  0
    8.9583  -16.6008   16.4286 C   0  0  0  0  0  0  0  0  0  0  0  0
    9.4729  -17.5849   15.8692 O   0  0  0  0  0  0  0  0  0  0  0  0
    8.3170  -18.0547   19.8981 C   0  0  0  0  0  0  0  0  0  0  0  0
    7.1867  -17.9183   20.3892 O   0  0  0  0  0  0  0  0  0  0  0  0
    8.8522  -15.4092   15.6761 O   0  0  0  0  0  0  0  0  0  0  0  0
   11.9514  -21.0636   24.2962 N   0  0  0  0  0  0  0  0  0  0  0  0
   10.9828  -20.3283   25.0268 C   0  0  0  0  0  0  0  0  0  0  0  0
   10.9992  -20.4008   26.2755 O   0  0  0  0  0  0  0  0  0  0  0  0
    9.9591  -19.4850   24.3732 C   0  0  0  0  0  0  0  0  0  0  0  0
   10.0641  -19.3822   22.8999 C   0  0  0  0  0  0  0  0  0  0  0  0
    9.1424  -18.3973   22.2742 C   0  0  2  0  0  0  0  0  0  0  0  0
    9.3745  -18.2473   20.8490 N   0  0  0  0  0  0  0  0  0  0  0  0
    9.2405  -17.0293   22.8801 C   0  0  0  0  0  0  0  0  0  0  0  0
   10.1480  -16.2110   22.6011 O   0  0  0  0  0  0  0  0  0  0  0  0
    8.2760  -16.5962   23.8247 N   0  0  0  0  0  0  0  0  0  0  0  0
    8.3790  -15.2915   24.4507 C   0  0  1  0  0  0  0  0  0  0  0  0
    6.9933  -14.6729   24.4547 C   0  0  0  0  0  0  0  0  0  0  0  0
    6.9125  -13.4217   25.2151 C   0  0  0  0  0  0  0  0  0  0  0  0
    6.1869  -13.3177   26.3841 C   0  0  0  0  0  0  0  0  0  0  0  0
    6.1485  -12.1172   27.0627 C   0  0  0  0  0  0  0  0  0  0  0  0
    6.8135  -10.9972   26.6183 C   0  0  0  0  0  0  0  0  0  0  0  0
    7.5396  -11.0957   25.4509 C   0  0  0  0  0  0  0  0  0  0  0  0
    7.5808  -12.3064   24.7628 C   0  0  0  0  0  0  0  0  0  0  0  0
    8.9485  -15.4484   25.8039 C   0  0  0  0  0  0  0  0  0  0  0  0
    9.4186  -14.4742   26.4290 O   0  0  0  0  0  0  0  0  0  0  0  0
    8.9682  -16.6911   26.4017 O   0  0  0  0  0  0  0  0  0  0  0  0
  2  1  1  6
  2  6  1  0
  3  2  1  0
  4  3  1  0
  4  5  2  0
  6  7  2  0
  8  4  1  0
  9 10  1  0
 10 12  1  0
 10 11  2  0
 12 13  1  0
 14 13  1  1
 14 16  1  0
 15  6  1  0
 15 14  1  0
 16 17  2  0
 18 19  1  0
 18 16  1  0
 19 27  1  0
 19 20  1  1
 21 20  1  0
 22 21  2  0
 23 22  1  0
 24 23  2  0
 24 25  1  0
 25 26  2  0
 26 21  1  0
 27 28  2  0
 27 29  1  0
M  END
$$$$
