DQF.pdb
     RDKit          3D

 29 29  0  0  1  0  0  0  0  0999 V2000
    8.8332  -12.7243   19.7366 N   0  0  0  0  0  0  0  0  0  0  0  0
    7.5739  -13.5238   19.7051 C   0  0  1  0  0  0  0  0  0  0  0  0
    7.1715  -13.7460   18.2925 C   0  0  0  0  0  0  0  0  0  0  0  0
    8.2147  -14.3442   17.4598 C   0  0  0  0  0  0  0  0  0  0  0  0
    9.2878  -14.7323   17.9536 O   0  0  0  0  0  0  0  0  0  0  0  0
    7.8472  -14.7941   20.4667 C   0  0  0  0  0  0  0  0  0  0  0  0
    7.0390  -15.7278   20.5785 O   0  0  0  0  0  0  0  0  0  0  0  0
    8.0467  -14.5050   16.0658 O   0  0  0  0  0  0  0  0  0  0  0  0
   10.0922  -19.4945   20.4057 N   0  0  0  0  0  0  0  0  0  0  0  0
   10.6868  -19.3674   21.6874 C   0  0  0  0  0  0  0  0  0  0  0  0
   10.9615  -20.4103   22.3212 O   0  0  0  0  0  0  0  0  0  0  0  0
   10.9918  -18.0570   22.3008 C   0  0  0  0  0  0  0  0  0  0  0  0
   10.6257  -16.8734   21.4902 C   0  0  0  0  0  0  0  0  0  0  0  0
    9.3976  -16.1642   21.9375 C   0  0  2  0  0  0  0  0  0  0  0  0
    9.1052  -14.9957   21.1273 N   0  0  0  0  0  0  0  0  0  0  0  0
    9.4683  -15.7027   23.3623 C   0  0  0  0  0  0  0  0  0  0  0  0
   10.1937  -14.7566   23.7494 O   0  0  0  0  0  0  0  0  0  0  0  0
    8.6895  -16.3427   24.3593 N   0  0  0  0  0  0  0  0  0  0  0  0
    8.8302  -15.9858   25.7584 C   0  0  1  0  0  0  0  0  0  0  0  0
    7.4704  -15.5312   26.2557 C   0  0  0  0  0  0  0  0  0  0  0  0
    7.3485  -14.0750   26.3788 C   0  0  0  0  0  0  0  0  0  0  0  0
    8.4212  -13.2733   26.7115 C   0  0  0  0  0  0  0  0  0  0  0  0
    8.2521  -11.9077   26.8093 C   0  0  0  0  0  0  0  0  0  0  0  0
    7.0391  -11.2968   26.5859 C   0  0  0  0  0  0  0  0  0  0  0  0
    5.9644  -12.0932   26.2535 C   0  0  0  0  0  0  0  0  0  0  0  0
    6.1313  -13.4728   26.1538 C   0  0  0  0  0  0  0  0  0  0  0  0
    9.3622  -17.1453   26.5017 C   0  0  0  0  0  0  0  0  0  0  0  0
    9.6480  -17.0648   27.7153 O   0  0  0  0  0  0  0  0  0  0  0  0
    9.5524  -18.3483   25.8547 O   0  0  0  0  0  0  0  0  0  0  0  0
  2  1  1  6
  2  6  1  0
  3  2  1  0
  4  3  1  0
  4  5  2  0
  6  7  2  0
  8  4  1  0
  9 10  1  0
 10 12  1  0
 10 11  2  0
 12 13  1  0
 14 13  1  6
 14 16  1  0
 15  6  1  0
 15 14  1  0
 16 17  2  0
 18 19  1  0
 18 16  1  0
 19 27  1  0
 19 20  1  1
 21 20  1  0
 22 21  2  0
 23 22  1  0
 24 23  2  0
 24 25  1  0
 25 26  2  0
 26 21  1  0
 27 28  2  0
 27 29  1  0
M  END
$$$$
