DQF.pdb
     RDKit          3D

 29 29  0  0  1  0  0  0  0  0999 V2000
    9.5440  -17.1736   19.9056 N   0  0  0  0  0  0  0  0  0  0  0  0
    8.2858  -16.4067   20.1393 C   0  0  1  0  0  0  0  0  0  0  0  0
    7.2657  -16.8266   19.1444 C   0  0  0  0  0  0  0  0  0  0  0  0
    7.7034  -16.7125   17.7534 C   0  0  0  0  0  0  0  0  0  0  0  0
    8.8273  -17.1087   17.3985 O   0  0  0  0  0  0  0  0  0  0  0  0
    7.8822  -16.6600   21.5681 C   0  0  0  0  0  0  0  0  0  0  0  0
    6.8420  -16.2275   22.0861 O   0  0  0  0  0  0  0  0  0  0  0  0
    6.8707  -16.1497   16.7599 O   0  0  0  0  0  0  0  0  0  0  0  0
    4.9305  -20.4048   23.3268 N   0  0  0  0  0  0  0  0  0  0  0  0
    6.1735  -20.3217   24.0053 C   0  0  0  0  0  0  0  0  0  0  0  0
    6.1735  -20.3779   25.2549 O   0  0  0  0  0  0  0  0  0  0  0  0
    7.4625  -20.1705   23.2968 C   0  0  0  0  0  0  0  0  0  0  0  0
    8.4684  -19.3239   23.9777 C   0  0  0  0  0  0  0  0  0  0  0  0
    8.3030  -17.8616   23.7643 C   0  0  2  0  0  0  0  0  0  0  0  0
    8.7136  -17.4445   22.4358 N   0  0  0  0  0  0  0  0  0  0  0  0
    9.0778  -17.0309   24.7430 C   0  0  0  0  0  0  0  0  0  0  0  0
   10.2296  -16.5901   24.5192 O   0  0  0  0  0  0  0  0  0  0  0  0
    8.5156  -16.7022   26.0024 N   0  0  0  0  0  0  0  0  0  0  0  0
    9.2675  -15.9340   26.9767 C   0  0  1  0  0  0  0  0  0  0  0  0
    8.2912  -15.0198   27.6937 C   0  0  0  0  0  0  0  0  0  0  0  0
    7.8131  -13.9083   26.8653 C   0  0  0  0  0  0  0  0  0  0  0  0
    8.6246  -12.8468   26.5204 C   0  0  0  0  0  0  0  0  0  0  0  0
    8.1251  -11.8291   25.7344 C   0  0  0  0  0  0  0  0  0  0  0  0
    6.8296  -11.8241   25.2697 C   0  0  0  0  0  0  0  0  0  0  0  0
    6.0148  -12.8820   25.6115 C   0  0  0  0  0  0  0  0  0  0  0  0
    6.5157  -13.9116   26.4051 C   0  0  0  0  0  0  0  0  0  0  0  0
    9.9689  -16.8617   27.8863 C   0  0  0  0  0  0  0  0  0  0  0  0
   10.7692  -16.4450   28.7505 O   0  0  0  0  0  0  0  0  0  0  0  0
    9.7452  -18.2192   27.7904 O   0  0  0  0  0  0  0  0  0  0  0  0
  2  1  1  6
  2  6  1  0
  3  2  1  0
  4  3  1  0
  4  5  2  0
  6  7  2  0
  8  4  1  0
  9 10  1  0
 10 12  1  0
 10 11  2  0
 12 13  1  0
 14 13  1  1
 14 16  1  0
 15  6  1  0
 15 14  1  0
 16 17  2  0
 18 19  1  0
 18 16  1  0
 19 27  1  0
 19 20  1  1
 21 20  1  0
 22 21  2  0
 23 22  1  0
 24 23  2  0
 24 25  1  0
 25 26  2  0
 26 21  1  0
 27 28  2  0
 27 29  1  0
M  END
$$$$
