DQF.pdb
     RDKit          3D

 29 29  0  0  1  0  0  0  0  0999 V2000
    9.0353  -18.3201   18.7304 N   0  0  0  0  0  0  0  0  0  0  0  0
    8.2852  -18.1058   20.0021 C   0  0  1  0  0  0  0  0  0  0  0  0
    8.4545  -19.2954   20.8756 C   0  0  0  0  0  0  0  0  0  0  0  0
    7.9255  -20.5353   20.3078 C   0  0  0  0  0  0  0  0  0  0  0  0
    7.6472  -20.6215   19.0990 O   0  0  0  0  0  0  0  0  0  0  0  0
    8.8093  -16.8290   20.6051 C   0  0  0  0  0  0  0  0  0  0  0  0
    9.9770  -16.6671   20.9894 O   0  0  0  0  0  0  0  0  0  0  0  0
    7.7098  -21.6813   21.1062 O   0  0  0  0  0  0  0  0  0  0  0  0
    9.1664  -14.0100   17.6882 N   0  0  0  0  0  0  0  0  0  0  0  0
    8.8961  -13.1612   18.7923 C   0  0  0  0  0  0  0  0  0  0  0  0
    9.8073  -12.4067   19.1990 O   0  0  0  0  0  0  0  0  0  0  0  0
    7.5866  -13.1346   19.4785 C   0  0  0  0  0  0  0  0  0  0  0  0
    7.6362  -13.2751   20.9516 C   0  0  0  0  0  0  0  0  0  0  0  0
    8.3685  -14.4730   21.4414 C   0  0  2  0  0  0  0  0  0  0  0  0
    7.9503  -15.6915   20.7722 N   0  0  0  0  0  0  0  0  0  0  0  0
    8.2047  -14.7038   22.9138 C   0  0  0  0  0  0  0  0  0  0  0  0
    7.3495  -14.1159   23.6168 O   0  0  0  0  0  0  0  0  0  0  0  0
    9.0412  -15.6284   23.5888 N   0  0  0  0  0  0  0  0  0  0  0  0
    9.3636  -15.4551   24.9926 C   0  0  1  0  0  0  0  0  0  0  0  0
    8.0587  -15.4550   25.7673 C   0  0  0  0  0  0  0  0  0  0  0  0
    7.4884  -14.1170   25.9540 C   0  0  0  0  0  0  0  0  0  0  0  0
    6.1948  -13.8113   25.5833 C   0  0  0  0  0  0  0  0  0  0  0  0
    5.7066  -12.5371   25.7859 C   0  0  0  0  0  0  0  0  0  0  0  0
    6.4654  -11.5378   26.3516 C   0  0  0  0  0  0  0  0  0  0  0  0
    7.7582  -11.8380   26.7235 C   0  0  0  0  0  0  0  0  0  0  0  0
    8.2548  -13.1237   26.5204 C   0  0  0  0  0  0  0  0  0  0  0  0
   10.2877  -16.5276   25.4121 C   0  0  0  0  0  0  0  0  0  0  0  0
   10.6340  -17.4331   24.6242 O   0  0  0  0  0  0  0  0  0  0  0  0
   10.7860  -16.5418   26.6980 O   0  0  0  0  0  0  0  0  0  0  0  0
  2  1  1  6
  2  6  1  0
  3  2  1  0
  4  3  1  0
  4  5  2  0
  6  7  2  0
  8  4  1  0
  9 10  1  0
 10 12  1  0
 10 11  2  0
 12 13  1  0
 14 13  1  6
 14 16  1  0
 15  6  1  0
 15 14  1  0
 16 17  2  0
 18 19  1  0
 18 16  1  0
 19 27  1  0
 19 20  1  1
 21 20  1  0
 22 21  2  0
 23 22  1  0
 24 23  2  0
 24 25  1  0
 25 26  2  0
 26 21  1  0
 27 28  2  0
 27 29  1  0
M  END
$$$$
