SFF.pdb
     RDKit          3D

 29 30  0  0  1  0  0  0  0  0999 V2000
   13.7982   -5.5208  -10.2731 O   0  0  0  0  0  0  0  0  0  0  0  0
   15.1661   -5.5520  -10.5227 C   0  0  0  0  0  0  0  0  0  0  0  0
   15.7848   -6.7999   -9.9253 C   0  0  2  0  0  0  0  0  0  0  0  0
   15.7915   -6.6755   -8.4879 N   0  0  0  0  0  0  0  0  0  0  0  0
   17.1536   -6.9451  -10.4957 C   0  0  0  0  0  0  0  0  0  0  0  0
   18.0882   -6.4118   -9.8888 O   0  0  0  0  0  0  0  0  0  0  0  0
   17.3878   -7.6689  -11.6950 N   0  0  0  0  0  0  0  0  0  0  0  0
   18.6458   -7.7772  -12.3367 C   0  0  1  0  0  0  0  0  0  0  0  0
   18.9087   -9.1250  -13.0192 C   0  0  0  0  0  0  0  0  0  0  0  0
   20.2756   -9.1912  -13.5915 C   0  0  0  0  0  0  0  0  0  0  0  0
   20.5956   -8.8996  -14.8912 C   0  0  0  0  0  0  0  0  0  0  0  0
   21.9111   -8.9960  -15.3709 C   0  0  0  0  0  0  0  0  0  0  0  0
   22.9396   -9.3901  -14.5471 C   0  0  0  0  0  0  0  0  0  0  0  0
   22.6350   -9.6865  -13.2374 C   0  0  0  0  0  0  0  0  0  0  0  0
   21.3467   -9.5913  -12.7715 C   0  0  0  0  0  0  0  0  0  0  0  0
   18.9737   -6.7005  -13.2947 C   0  0  0  0  0  0  0  0  0  0  0  0
   18.2294   -6.4264  -14.2716 O   0  0  0  0  0  0  0  0  0  0  0  0
   20.1515   -5.9009  -13.1789 N   0  0  0  0  0  0  0  0  0  0  0  0
   20.4776   -4.8310  -14.1093 C   0  0  1  0  0  0  0  0  0  0  0  0
   19.9880   -3.5589  -13.4608 C   0  0  0  0  0  0  0  0  0  0  0  0
   20.2311   -2.3410  -14.2364 C   0  0  0  0  0  0  0  0  0  0  0  0
   19.3981   -1.9684  -15.2950 C   0  0  0  0  0  0  0  0  0  0  0  0
   19.6824   -0.7998  -15.9815 C   0  0  0  0  0  0  0  0  0  0  0  0
   20.7528    0.0055  -15.6598 C   0  0  0  0  0  0  0  0  0  0  0  0
   21.5699   -0.3697  -14.6139 C   0  0  0  0  0  0  0  0  0  0  0  0
   21.3083   -1.5312  -13.9125 C   0  0  0  0  0  0  0  0  0  0  0  0
   21.9365   -4.7183  -14.3234 C   0  0  0  0  0  0  0  0  0  0  0  0
   22.3661   -4.3255  -15.6072 O   0  0  0  0  0  0  0  0  0  0  0  0
   22.7860   -4.9485  -13.4432 O   0  0  0  0  0  0  0  0  0  0  0  0
  2  3  1  0
  2  1  1  0
  3  4  1  1
  5  6  2  0
  5  3  1  0
  7  5  1  0
  8  7  1  0
  8  9  1  6
 10 15  1  0
 10  9  1  0
 11 10  2  0
 12 13  2  0
 12 11  1  0
 13 14  1  0
 14 15  2  0
 16  8  1  0
 17 16  2  0
 18 16  1  0
 19 20  1  1
 19 18  1  0
 21 22  2  0
 21 20  1  0
 23 22  1  0
 24 23  2  0
 25 24  1  0
 25 26  2  0
 26 21  1  0
 27 19  1  0
 28 27  1  0
 29 27  2  0
M  END
$$$$
