SFF.pdb
     RDKit          3D

 29 30  0  0  1  0  0  0  0  0999 V2000
   26.7534  -16.9683  -16.7289 O   0  0  0  0  0  0  0  0  0  0  0  0
   27.8346  -17.7770  -16.3947 C   0  0  0  0  0  0  0  0  0  0  0  0
   27.9748  -18.9111  -17.3903 C   0  0  2  0  0  0  0  0  0  0  0  0
   28.0226  -18.3595  -18.7227 N   0  0  0  0  0  0  0  0  0  0  0  0
   26.8219  -19.8339  -17.1918 C   0  0  0  0  0  0  0  0  0  0  0  0
   25.7683  -19.5718  -17.7811 O   0  0  0  0  0  0  0  0  0  0  0  0
   26.9192  -20.9781  -16.3560 N   0  0  0  0  0  0  0  0  0  0  0  0
   25.8333  -21.8223  -16.0182 C   0  0  1  0  0  0  0  0  0  0  0  0
   26.1594  -23.3206  -16.0069 C   0  0  0  0  0  0  0  0  0  0  0  0
   24.9512  -24.1416  -15.7485 C   0  0  0  0  0  0  0  0  0  0  0  0
   23.9304  -24.3356  -16.6413 C   0  0  0  0  0  0  0  0  0  0  0  0
   22.8073  -25.1160  -16.3259 C   0  0  0  0  0  0  0  0  0  0  0  0
   22.6870  -25.7223  -15.0972 C   0  0  0  0  0  0  0  0  0  0  0  0
   23.7047  -25.5377  -14.1882 C   0  0  0  0  0  0  0  0  0  0  0  0
   24.8020  -24.7733  -14.5001 C   0  0  0  0  0  0  0  0  0  0  0  0
   25.1284  -21.4916  -14.7618 C   0  0  0  0  0  0  0  0  0  0  0  0
   25.6689  -21.6369  -13.6348 O   0  0  0  0  0  0  0  0  0  0  0  0
   23.7924  -20.9871  -14.7398 N   0  0  0  0  0  0  0  0  0  0  0  0
   22.9641  -20.9894  -13.5438 C   0  0  1  0  0  0  0  0  0  0  0  0
   23.0725  -19.5991  -12.9660 C   0  0  0  0  0  0  0  0  0  0  0  0
   22.9635  -18.5165  -13.9460 C   0  0  0  0  0  0  0  0  0  0  0  0
   21.7242  -18.0894  -14.4307 C   0  0  0  0  0  0  0  0  0  0  0  0
   21.6940  -17.0551  -15.3509 C   0  0  0  0  0  0  0  0  0  0  0  0
   22.8373  -16.4345  -15.8043 C   0  0  0  0  0  0  0  0  0  0  0  0
   24.0562  -16.8623  -15.3210 C   0  0  0  0  0  0  0  0  0  0  0  0
   24.1142  -17.8925  -14.4019 C   0  0  0  0  0  0  0  0  0  0  0  0
   21.5449  -21.2570  -13.8620 C   0  0  0  0  0  0  0  0  0  0  0  0
   21.1965  -21.3216  -15.2264 O   0  0  0  0  0  0  0  0  0  0  0  0
   20.6613  -21.4245  -13.0014 O   0  0  0  0  0  0  0  0  0  0  0  0
  2  3  1  0
  2  1  1  0
  3  4  1  6
  5  6  2  0
  5  3  1  0
  7  5  1  0
  8  7  1  0
  8  9  1  1
 10 15  1  0
 10  9  1  0
 11 10  2  0
 12 13  2  0
 12 11  1  0
 13 14  1  0
 14 15  2  0
 16  8  1  0
 17 16  2  0
 18 16  1  0
 19 20  1  6
 19 18  1  0
 21 22  2  0
 21 20  1  0
 23 22  1  0
 24 23  2  0
 25 24  1  0
 25 26  2  0
 26 21  1  0
 27 19  1  0
 28 27  1  0
 29 27  2  0
M  END
$$$$
