SFF.pdb
     RDKit          3D

 29 30  0  0  1  0  0  0  0  0999 V2000
   16.4688  -10.2550  -17.5838 O   0  0  0  0  0  0  0  0  0  0  0  0
   16.6495   -9.7712  -16.2923 C   0  0  0  0  0  0  0  0  0  0  0  0
   17.6869  -10.5971  -15.5583 C   0  0  2  0  0  0  0  0  0  0  0  0
   17.1564  -11.9198  -15.3329 N   0  0  0  0  0  0  0  0  0  0  0  0
   18.0176   -9.8872  -14.2907 C   0  0  0  0  0  0  0  0  0  0  0  0
   17.9810  -10.5382  -13.2414 O   0  0  0  0  0  0  0  0  0  0  0  0
   18.3641   -8.5100  -14.2770 N   0  0  0  0  0  0  0  0  0  0  0  0
   18.8372   -7.8106  -13.1398 C   0  0  1  0  0  0  0  0  0  0  0  0
   20.1621   -7.0662  -13.3445 C   0  0  0  0  0  0  0  0  0  0  0  0
   21.2639   -7.9960  -13.6939 C   0  0  0  0  0  0  0  0  0  0  0  0
   21.7406   -8.2044  -14.9612 C   0  0  0  0  0  0  0  0  0  0  0  0
   22.7796   -9.1110  -15.2231 C   0  0  0  0  0  0  0  0  0  0  0  0
   23.3650   -9.8316  -14.2084 C   0  0  0  0  0  0  0  0  0  0  0  0
   22.8978   -9.6335  -12.9285 C   0  0  0  0  0  0  0  0  0  0  0  0
   21.8810   -8.7458  -12.6758 C   0  0  0  0  0  0  0  0  0  0  0  0
   17.8755   -6.8813  -12.5105 C   0  0  0  0  0  0  0  0  0  0  0  0
   16.9808   -6.2959  -13.1740 O   0  0  0  0  0  0  0  0  0  0  0  0
   17.8948   -6.5848  -11.1135 N   0  0  0  0  0  0  0  0  0  0  0  0
   16.7119   -6.1698  -10.3751 C   0  0  1  0  0  0  0  0  0  0  0  0
   15.7476   -7.3280  -10.4589 C   0  0  0  0  0  0  0  0  0  0  0  0
   14.5096   -7.1529   -9.6968 C   0  0  0  0  0  0  0  0  0  0  0  0
   14.1614   -8.0187   -8.6564 C   0  0  0  0  0  0  0  0  0  0  0  0
   12.9790   -7.7901   -7.9726 C   0  0  0  0  0  0  0  0  0  0  0  0
   12.1368   -6.7442   -8.2801 C   0  0  0  0  0  0  0  0  0  0  0  0
   12.4879   -5.8948   -9.3084 C   0  0  0  0  0  0  0  0  0  0  0  0
   13.6625   -6.1005  -10.0067 C   0  0  0  0  0  0  0  0  0  0  0  0
   17.0179   -5.9148   -8.9508 C   0  0  0  0  0  0  0  0  0  0  0  0
   18.0600   -6.6699   -8.3754 O   0  0  0  0  0  0  0  0  0  0  0  0
   16.4125   -5.0832   -8.2500 O   0  0  0  0  0  0  0  0  0  0  0  0
  2  3  1  0
  2  1  1  0
  3  4  1  1
  5  6  2  0
  5  3  1  0
  7  5  1  0
  8  7  1  0
  8  9  1  6
 10 15  1  0
 10  9  1  0
 11 10  2  0
 12 13  2  0
 12 11  1  0
 13 14  1  0
 14 15  2  0
 16  8  1  0
 17 16  2  0
 18 16  1  0
 19 20  1  1
 19 18  1  0
 21 22  2  0
 21 20  1  0
 23 22  1  0
 24 23  2  0
 25 24  1  0
 25 26  2  0
 26 21  1  0
 27 19  1  0
 28 27  1  0
 29 27  2  0
M  END
$$$$
