SFF.pdb
     RDKit          3D

 29 30  0  0  1  0  0  0  0  0999 V2000
   29.9842  -20.9232  -12.5365 O   0  0  0  0  0  0  0  0  0  0  0  0
   30.4291  -20.2309  -11.4152 C   0  0  0  0  0  0  0  0  0  0  0  0
   30.5205  -21.1602  -10.2214 C   0  0  2  0  0  0  0  0  0  0  0  0
   31.1765  -22.3792  -10.6278 N   0  0  0  0  0  0  0  0  0  0  0  0
   29.1366  -21.3922   -9.7203 C   0  0  0  0  0  0  0  0  0  0  0  0
   28.6560  -22.5213   -9.8626 O   0  0  0  0  0  0  0  0  0  0  0  0
   28.3864  -20.3585   -9.0992 N   0  0  0  0  0  0  0  0  0  0  0  0
   26.9861  -20.3955   -8.8893 C   0  0  1  0  0  0  0  0  0  0  0  0
   26.4644  -19.4084   -7.8381 C   0  0  0  0  0  0  0  0  0  0  0  0
   27.1488  -19.5855   -6.5340 C   0  0  0  0  0  0  0  0  0  0  0  0
   27.9100  -18.6307   -5.9130 C   0  0  0  0  0  0  0  0  0  0  0  0
   28.5418  -18.8702   -4.6827 C   0  0  0  0  0  0  0  0  0  0  0  0
   28.4197  -20.0837   -4.0468 C   0  0  0  0  0  0  0  0  0  0  0  0
   27.6575  -21.0543   -4.6576 C   0  0  0  0  0  0  0  0  0  0  0  0
   27.0410  -20.8165   -5.8614 C   0  0  0  0  0  0  0  0  0  0  0  0
   26.1506  -20.2664  -10.1017 C   0  0  0  0  0  0  0  0  0  0  0  0
   26.3097  -19.3287  -10.9255 O   0  0  0  0  0  0  0  0  0  0  0  0
   25.1104  -21.1917  -10.4205 N   0  0  0  0  0  0  0  0  0  0  0  0
   24.2510  -21.0474  -11.5854 C   0  0  1  0  0  0  0  0  0  0  0  0
   24.0021  -22.4485  -12.0887 C   0  0  0  0  0  0  0  0  0  0  0  0
   23.0417  -22.5441  -13.1900 C   0  0  0  0  0  0  0  0  0  0  0  0
   21.7237  -22.9581  -12.9785 C   0  0  0  0  0  0  0  0  0  0  0  0
   20.8665  -23.0187  -14.0644 C   0  0  0  0  0  0  0  0  0  0  0  0
   21.2647  -22.6871  -15.3407 C   0  0  0  0  0  0  0  0  0  0  0  0
   22.5672  -22.2798  -15.5407 C   0  0  0  0  0  0  0  0  0  0  0  0
   23.4429  -22.2105  -14.4741 C   0  0  0  0  0  0  0  0  0  0  0  0
   22.9510  -20.4364  -11.2336 C   0  0  0  0  0  0  0  0  0  0  0  0
   22.2460  -19.7915  -12.2700 O   0  0  0  0  0  0  0  0  0  0  0  0
   22.4593  -20.4632  -10.0905 O   0  0  0  0  0  0  0  0  0  0  0  0
  2  3  1  0
  2  1  1  0
  3  4  1  6
  5  6  2  0
  5  3  1  0
  7  5  1  0
  8  7  1  0
  8  9  1  1
 10 15  1  0
 10  9  1  0
 11 10  2  0
 12 13  2  0
 12 11  1  0
 13 14  1  0
 14 15  2  0
 16  8  1  0
 17 16  2  0
 18 16  1  0
 19 20  1  1
 19 18  1  0
 21 22  2  0
 21 20  1  0
 23 22  1  0
 24 23  2  0
 25 24  1  0
 25 26  2  0
 26 21  1  0
 27 19  1  0
 28 27  1  0
 29 27  2  0
M  END
$$$$
