SFF.pdb
     RDKit          3D

 29 30  0  0  1  0  0  0  0  0999 V2000
   22.7358  -23.6447  -21.1794 O   0  0  0  0  0  0  0  0  0  0  0  0
   21.8273  -22.7802  -20.5780 C   0  0  0  0  0  0  0  0  0  0  0  0
   22.3912  -21.3745  -20.5228 C   0  0  2  0  0  0  0  0  0  0  0  0
   23.7578  -21.4374  -20.0644 N   0  0  0  0  0  0  0  0  0  0  0  0
   21.5191  -20.5711  -19.6206 C   0  0  0  0  0  0  0  0  0  0  0  0
   21.8498  -20.4796  -18.4339 O   0  0  0  0  0  0  0  0  0  0  0  0
   20.3457  -19.9285  -20.0973 N   0  0  0  0  0  0  0  0  0  0  0  0
   19.5419  -19.0495  -19.3308 C   0  0  1  0  0  0  0  0  0  0  0  0
   19.1256  -17.7614  -20.0512 C   0  0  0  0  0  0  0  0  0  0  0  0
   20.3023  -16.9409  -20.4289 C   0  0  0  0  0  0  0  0  0  0  0  0
   20.7690  -15.8669  -19.7180 C   0  0  0  0  0  0  0  0  0  0  0  0
   21.8828  -15.1249  -20.1408 C   0  0  0  0  0  0  0  0  0  0  0  0
   22.5554  -15.4504  -21.2955 C   0  0  0  0  0  0  0  0  0  0  0  0
   22.0994  -16.5278  -22.0217 C   0  0  0  0  0  0  0  0  0  0  0  0
   21.0091  -17.2514  -21.6052 C   0  0  0  0  0  0  0  0  0  0  0  0
   18.3373  -19.6486  -18.7187 C   0  0  0  0  0  0  0  0  0  0  0  0
   17.6425  -20.5103  -19.3173 O   0  0  0  0  0  0  0  0  0  0  0  0
   17.8808  -19.2932  -17.4129 N   0  0  0  0  0  0  0  0  0  0  0  0
   16.6603  -19.8266  -16.8277 C   0  0  1  0  0  0  0  0  0  0  0  0
   16.8276  -21.3268  -16.8244 C   0  0  0  0  0  0  0  0  0  0  0  0
   15.9611  -22.0436  -17.7622 C   0  0  0  0  0  0  0  0  0  0  0  0
   14.7909  -22.6795  -17.3385 C   0  0  0  0  0  0  0  0  0  0  0  0
   14.0142  -23.3330  -18.2805 C   0  0  0  0  0  0  0  0  0  0  0  0
   14.3524  -23.3789  -19.6151 C   0  0  0  0  0  0  0  0  0  0  0  0
   15.5090  -22.7490  -20.0248 C   0  0  0  0  0  0  0  0  0  0  0  0
   16.3019  -22.0896  -19.1050 C   0  0  0  0  0  0  0  0  0  0  0  0
   16.4782  -19.3708  -15.4327 C   0  0  0  0  0  0  0  0  0  0  0  0
   15.3169  -19.8076  -14.7636 O   0  0  0  0  0  0  0  0  0  0  0  0
   17.2838  -18.6355  -14.8331 O   0  0  0  0  0  0  0  0  0  0  0  0
  2  3  1  0
  2  1  1  0
  3  4  1  1
  5  6  2  0
  5  3  1  0
  7  5  1  0
  8  7  1  0
  8  9  1  6
 10 15  1  0
 10  9  1  0
 11 10  2  0
 12 13  2  0
 12 11  1  0
 13 14  1  0
 14 15  2  0
 16  8  1  0
 17 16  2  0
 18 16  1  0
 19 20  1  1
 19 18  1  0
 21 22  2  0
 21 20  1  0
 23 22  1  0
 24 23  2  0
 25 24  1  0
 25 26  2  0
 26 21  1  0
 27 19  1  0
 28 27  1  0
 29 27  2  0
M  END
$$$$
