SFF.pdb
     RDKit          3D

 29 30  0  0  1  0  0  0  0  0999 V2000
   27.1629  -19.5381  -13.9038 O   0  0  0  0  0  0  0  0  0  0  0  0
   28.5326  -19.5190  -13.6627 C   0  0  0  0  0  0  0  0  0  0  0  0
   29.0244  -20.9043  -13.2940 C   0  0  2  0  0  0  0  0  0  0  0  0
   28.5466  -21.8463  -14.2769 N   0  0  0  0  0  0  0  0  0  0  0  0
   28.5339  -21.2091  -11.9205 C   0  0  0  0  0  0  0  0  0  0  0  0
   27.6260  -22.0390  -11.8057 O   0  0  0  0  0  0  0  0  0  0  0  0
   29.0833  -20.5734  -10.7754 N   0  0  0  0  0  0  0  0  0  0  0  0
   28.5034  -20.6019   -9.4835 C   0  0  1  0  0  0  0  0  0  0  0  0
   29.3675  -19.9904   -8.3741 C   0  0  0  0  0  0  0  0  0  0  0  0
   28.6522  -19.9644   -7.0749 C   0  0  0  0  0  0  0  0  0  0  0  0
   27.8580  -18.9370   -6.6383 C   0  0  0  0  0  0  0  0  0  0  0  0
   27.2197  -18.9722   -5.3888 C   0  0  0  0  0  0  0  0  0  0  0  0
   27.3676  -20.0495   -4.5466 C   0  0  0  0  0  0  0  0  0  0  0  0
   28.1623  -21.0910   -4.9706 C   0  0  0  0  0  0  0  0  0  0  0  0
   28.7855  -21.0531   -6.1936 C   0  0  0  0  0  0  0  0  0  0  0  0
   27.1425  -20.0350   -9.3769 C   0  0  0  0  0  0  0  0  0  0  0  0
   26.9022  -18.8247   -9.6234 O   0  0  0  0  0  0  0  0  0  0  0  0
   26.0121  -20.8171   -8.9890 N   0  0  0  0  0  0  0  0  0  0  0  0
   24.6661  -20.2730   -8.8965 C   0  0  1  0  0  0  0  0  0  0  0  0
   24.2892  -19.8676  -10.3008 C   0  0  0  0  0  0  0  0  0  0  0  0
   24.0437  -20.9830  -11.2172 C   0  0  0  0  0  0  0  0  0  0  0  0
   22.7736  -21.5489  -11.3583 C   0  0  0  0  0  0  0  0  0  0  0  0
   22.6111  -22.5969  -12.2487 C   0  0  0  0  0  0  0  0  0  0  0  0
   23.6523  -23.1000  -12.9973 C   0  0  0  0  0  0  0  0  0  0  0  0
   24.9024  -22.5359  -12.8518 C   0  0  0  0  0  0  0  0  0  0  0  0
   25.0917  -21.4888  -11.9701 C   0  0  0  0  0  0  0  0  0  0  0  0
   23.6980  -21.2861   -8.4238 C   0  0  0  0  0  0  0  0  0  0  0  0
   22.3504  -20.8849   -8.3228 O   0  0  0  0  0  0  0  0  0  0  0  0
   24.0088  -22.4516   -8.1171 O   0  0  0  0  0  0  0  0  0  0  0  0
  2  3  1  0
  2  1  1  0
  3  4  1  6
  5  6  2  0
  5  3  1  0
  7  5  1  0
  8  7  1  0
  8  9  1  1
 10 15  1  0
 10  9  1  0
 11 10  2  0
 12 13  2  0
 12 11  1  0
 13 14  1  0
 14 15  2  0
 16  8  1  0
 17 16  2  0
 18 16  1  0
 19 20  1  6
 19 18  1  0
 21 22  2  0
 21 20  1  0
 23 22  1  0
 24 23  2  0
 25 24  1  0
 25 26  2  0
 26 21  1  0
 27 19  1  0
 28 27  1  0
 29 27  2  0
M  END
$$$$
