SFF.pdb
     RDKit          3D

 29 30  0  0  1  0  0  0  0  0999 V2000
   16.7532  -12.5133  -14.0180 O   0  0  0  0  0  0  0  0  0  0  0  0
   17.5723  -11.4369  -14.3422 C   0  0  0  0  0  0  0  0  0  0  0  0
   18.1118  -11.5879  -15.7505 C   0  0  2  0  0  0  0  0  0  0  0  0
   18.9378  -12.7694  -15.8098 N   0  0  0  0  0  0  0  0  0  0  0  0
   18.8625  -10.3449  -16.0842 C   0  0  0  0  0  0  0  0  0  0  0  0
   20.0963  -10.4060  -16.1008 O   0  0  0  0  0  0  0  0  0  0  0  0
   18.1936   -9.1262  -16.3746 N   0  0  0  0  0  0  0  0  0  0  0  0
   18.8389   -7.9279  -16.7669 C   0  0  1  0  0  0  0  0  0  0  0  0
   18.1152   -7.1329  -17.8603 C   0  0  0  0  0  0  0  0  0  0  0  0
   18.8586   -5.9020  -18.2248 C   0  0  0  0  0  0  0  0  0  0  0  0
   19.9477   -5.8618  -19.0550 C   0  0  0  0  0  0  0  0  0  0  0  0
   20.6133   -4.6612  -19.3477 C   0  0  0  0  0  0  0  0  0  0  0  0
   20.1940   -3.4677  -18.8079 C   0  0  0  0  0  0  0  0  0  0  0  0
   19.1003   -3.4907  -17.9717 C   0  0  0  0  0  0  0  0  0  0  0  0
   18.4516   -4.6671  -17.6873 C   0  0  0  0  0  0  0  0  0  0  0  0
   19.1893   -6.9983  -15.6726 C   0  0  0  0  0  0  0  0  0  0  0  0
   18.3134   -6.4650  -14.9433 O   0  0  0  0  0  0  0  0  0  0  0  0
   20.5387   -6.6428  -15.3684 N   0  0  0  0  0  0  0  0  0  0  0  0
   20.8945   -5.7291  -14.2936 C   0  0  1  0  0  0  0  0  0  0  0  0
   21.8860   -6.4734  -13.4326 C   0  0  0  0  0  0  0  0  0  0  0  0
   22.8056   -7.3442  -14.1675 C   0  0  0  0  0  0  0  0  0  0  0  0
   22.7763   -8.7334  -14.0174 C   0  0  0  0  0  0  0  0  0  0  0  0
   23.6701   -9.4973  -14.7490 C   0  0  0  0  0  0  0  0  0  0  0  0
   24.5838   -8.9394  -15.6159 C   0  0  0  0  0  0  0  0  0  0  0  0
   24.6061   -7.5676  -15.7579 C   0  0  0  0  0  0  0  0  0  0  0  0
   23.7248   -6.7822  -15.0396 C   0  0  0  0  0  0  0  0  0  0  0  0
   21.5452   -4.5053  -14.8092 C   0  0  0  0  0  0  0  0  0  0  0  0
   21.7554   -3.4571  -13.8904 O   0  0  0  0  0  0  0  0  0  0  0  0
   21.9088   -4.3589  -15.9906 O   0  0  0  0  0  0  0  0  0  0  0  0
  2  3  1  0
  2  1  1  0
  3  4  1  1
  5  6  2  0
  5  3  1  0
  7  5  1  0
  8  7  1  0
  8  9  1  6
 10 15  1  0
 10  9  1  0
 11 10  2  0
 12 13  2  0
 12 11  1  0
 13 14  1  0
 14 15  2  0
 16  8  1  0
 17 16  2  0
 18 16  1  0
 19 20  1  1
 19 18  1  0
 21 22  2  0
 21 20  1  0
 23 22  1  0
 24 23  2  0
 25 24  1  0
 25 26  2  0
 26 21  1  0
 27 19  1  0
 28 27  1  0
 29 27  2  0
M  END
$$$$
