SFF.pdb
     RDKit          3D

 29 30  0  0  1  0  0  0  0  0999 V2000
   29.1239  -21.3224  -13.6489 O   0  0  0  0  0  0  0  0  0  0  0  0
   28.4604  -21.4434  -14.8653 C   0  0  0  0  0  0  0  0  0  0  0  0
   27.5489  -20.2538  -15.0916 C   0  0  2  0  0  0  0  0  0  0  0  0
   28.3473  -19.1267  -15.5089 N   0  0  0  0  0  0  0  0  0  0  0  0
   26.8136  -19.9978  -13.8212 C   0  0  0  0  0  0  0  0  0  0  0  0
   27.1951  -19.0580  -13.1161 O   0  0  0  0  0  0  0  0  0  0  0  0
   25.7110  -20.8002  -13.4244 N   0  0  0  0  0  0  0  0  0  0  0  0
   24.9737  -20.6195  -12.2286 C   0  0  1  0  0  0  0  0  0  0  0  0
   23.5716  -21.2405  -12.2344 C   0  0  0  0  0  0  0  0  0  0  0  0
   22.7352  -20.7138  -11.1283 C   0  0  0  0  0  0  0  0  0  0  0  0
   22.0163  -19.5486  -11.1764 C   0  0  0  0  0  0  0  0  0  0  0  0
   21.2545  -19.1015  -10.0857 C   0  0  0  0  0  0  0  0  0  0  0  0
   21.1993  -19.8224   -8.9157 C   0  0  0  0  0  0  0  0  0  0  0  0
   21.9160  -20.9964   -8.8510 C   0  0  0  0  0  0  0  0  0  0  0  0
   22.6604  -21.4308   -9.9200 C   0  0  0  0  0  0  0  0  0  0  0  0
   25.6571  -21.0291  -10.9837 C   0  0  0  0  0  0  0  0  0  0  0  0
   26.1449  -22.1798  -10.8373 O   0  0  0  0  0  0  0  0  0  0  0  0
   25.8104  -20.1523   -9.8667 N   0  0  0  0  0  0  0  0  0  0  0  0
   26.5139  -20.5328   -8.6514 C   0  0  1  0  0  0  0  0  0  0  0  0
   27.0923  -19.2547   -8.0941 C   0  0  0  0  0  0  0  0  0  0  0  0
   27.8020  -19.4051   -6.8222 C   0  0  0  0  0  0  0  0  0  0  0  0
   28.0703  -18.3079   -5.9991 C   0  0  0  0  0  0  0  0  0  0  0  0
   28.7393  -18.5233   -4.8059 C   0  0  0  0  0  0  0  0  0  0  0  0
   29.1486  -19.7753   -4.4027 C   0  0  0  0  0  0  0  0  0  0  0  0
   28.8800  -20.8526   -5.2211 C   0  0  0  0  0  0  0  0  0  0  0  0
   28.2136  -20.6650   -6.4170 C   0  0  0  0  0  0  0  0  0  0  0  0
   25.5959  -21.1108   -7.6464 C   0  0  0  0  0  0  0  0  0  0  0  0
   24.2150  -21.0211   -7.9150 O   0  0  0  0  0  0  0  0  0  0  0  0
   25.9754  -21.6612   -6.5965 O   0  0  0  0  0  0  0  0  0  0  0  0
  2  3  1  0
  2  1  1  0
  3  4  1  1
  5  6  2  0
  5  3  1  0
  7  5  1  0
  8  7  1  0
  8  9  1  6
 10 15  1  0
 10  9  1  0
 11 10  2  0
 12 13  2  0
 12 11  1  0
 13 14  1  0
 14 15  2  0
 16  8  1  0
 17 16  2  0
 18 16  1  0
 19 20  1  1
 19 18  1  0
 21 22  2  0
 21 20  1  0
 23 22  1  0
 24 23  2  0
 25 24  1  0
 25 26  2  0
 26 21  1  0
 27 19  1  0
 28 27  1  0
 29 27  2  0
M  END
$$$$
