SFF.pdb
     RDKit          3D

 29 30  0  0  1  0  0  0  0  0999 V2000
   26.5213  -19.7253  -18.5122 O   0  0  0  0  0  0  0  0  0  0  0  0
   27.7765  -19.8739  -17.9316 C   0  0  0  0  0  0  0  0  0  0  0  0
   27.9943  -21.3112  -17.5029 C   0  0  2  0  0  0  0  0  0  0  0  0
   27.5679  -22.1859  -18.5681 N   0  0  0  0  0  0  0  0  0  0  0  0
   27.2320  -21.5286  -16.2413 C   0  0  0  0  0  0  0  0  0  0  0  0
   26.2181  -22.2322  -16.2969 O   0  0  0  0  0  0  0  0  0  0  0  0
   27.6470  -20.9518  -15.0116 N   0  0  0  0  0  0  0  0  0  0  0  0
   26.8522  -20.8956  -13.8405 C   0  0  1  0  0  0  0  0  0  0  0  0
   27.5894  -20.4225  -12.5819 C   0  0  0  0  0  0  0  0  0  0  0  0
   26.7409  -20.5470  -11.3715 C   0  0  0  0  0  0  0  0  0  0  0  0
   26.4099  -21.7301  -10.7654 C   0  0  0  0  0  0  0  0  0  0  0  0
   25.5897  -21.7765   -9.6273 C   0  0  0  0  0  0  0  0  0  0  0  0
   25.0823  -20.6255   -9.0711 C   0  0  0  0  0  0  0  0  0  0  0  0
   25.4059  -19.4277   -9.6681 C   0  0  0  0  0  0  0  0  0  0  0  0
   26.2084  -19.3860  -10.7816 C   0  0  0  0  0  0  0  0  0  0  0  0
   25.5921  -20.1317  -13.9547 C   0  0  0  0  0  0  0  0  0  0  0  0
   25.5555  -18.9735  -14.4454 O   0  0  0  0  0  0  0  0  0  0  0  0
   24.3355  -20.6518  -13.5183 N   0  0  0  0  0  0  0  0  0  0  0  0
   23.0806  -19.9347  -13.6837 C   0  0  1  0  0  0  0  0  0  0  0  0
   22.7922  -19.9471  -15.1654 C   0  0  0  0  0  0  0  0  0  0  0  0
   21.4999  -19.3724  -15.5445 C   0  0  0  0  0  0  0  0  0  0  0  0
   20.3011  -20.0556  -15.3224 C   0  0  0  0  0  0  0  0  0  0  0  0
   19.1142  -19.4498  -15.6992 C   0  0  0  0  0  0  0  0  0  0  0  0
   19.0729  -18.2028  -16.2831 C   0  0  0  0  0  0  0  0  0  0  0  0
   20.2606  -17.5356  -16.4990 C   0  0  0  0  0  0  0  0  0  0  0  0
   21.4589  -18.1177  -16.1321 C   0  0  0  0  0  0  0  0  0  0  0  0
   21.9678  -20.6109  -12.9826 C   0  0  0  0  0  0  0  0  0  0  0  0
   21.9951  -22.0199  -12.9491 O   0  0  0  0  0  0  0  0  0  0  0  0
   21.0279  -20.0089  -12.4320 O   0  0  0  0  0  0  0  0  0  0  0  0
  2  3  1  0
  2  1  1  0
  3  4  1  6
  5  6  2  0
  5  3  1  0
  7  5  1  0
  8  7  1  0
  8  9  1  1
 10 15  1  0
 10  9  1  0
 11 10  2  0
 12 13  2  0
 12 11  1  0
 13 14  1  0
 14 15  2  0
 16  8  1  0
 17 16  2  0
 18 16  1  0
 19 20  1  6
 19 18  1  0
 21 22  2  0
 21 20  1  0
 23 22  1  0
 24 23  2  0
 25 24  1  0
 25 26  2  0
 26 21  1  0
 27 19  1  0
 28 27  1  0
 29 27  2  0
M  END
$$$$
