SFF.pdb
     RDKit          3D

 29 30  0  0  1  0  0  0  0  0999 V2000
   20.9241  -11.0203  -18.4694 O   0  0  0  0  0  0  0  0  0  0  0  0
   21.9504  -11.6396  -19.1750 C   0  0  0  0  0  0  0  0  0  0  0  0
   22.8949  -12.3469  -18.2238 C   0  0  2  0  0  0  0  0  0  0  0  0
   22.1365  -13.2659  -17.4102 N   0  0  0  0  0  0  0  0  0  0  0  0
   23.5903  -11.3049  -17.4172 C   0  0  0  0  0  0  0  0  0  0  0  0
   23.2077  -11.1270  -16.2561 O   0  0  0  0  0  0  0  0  0  0  0  0
   24.6573  -10.5365  -17.9540 N   0  0  0  0  0  0  0  0  0  0  0  0
   25.3246   -9.4945  -17.2648 C   0  0  1  0  0  0  0  0  0  0  0  0
   26.8552   -9.5851  -17.2826 C   0  0  0  0  0  0  0  0  0  0  0  0
   27.3311  -10.9029  -16.7953 C   0  0  0  0  0  0  0  0  0  0  0  0
   27.4691  -11.2470  -15.4764 C   0  0  0  0  0  0  0  0  0  0  0  0
   27.9387  -12.5104  -15.0847 C   0  0  0  0  0  0  0  0  0  0  0  0
   28.2812  -13.4608  -16.0181 C   0  0  0  0  0  0  0  0  0  0  0  0
   28.1478  -13.1310  -17.3483 C   0  0  0  0  0  0  0  0  0  0  0  0
   27.6883  -11.8939  -17.7280 C   0  0  0  0  0  0  0  0  0  0  0  0
   24.9369   -8.1201  -17.6459 C   0  0  0  0  0  0  0  0  0  0  0  0
   24.7310   -7.7922  -18.8433 O   0  0  0  0  0  0  0  0  0  0  0  0
   24.7701   -7.0745  -16.6874 N   0  0  0  0  0  0  0  0  0  0  0  0
   24.3143   -5.7393  -17.0423 C   0  0  1  0  0  0  0  0  0  0  0  0
   22.8349   -5.7171  -16.7435 C   0  0  0  0  0  0  0  0  0  0  0  0
   22.4835   -6.0301  -15.3568 C   0  0  0  0  0  0  0  0  0  0  0  0
   22.2580   -7.3439  -14.9371 C   0  0  0  0  0  0  0  0  0  0  0  0
   21.9364   -7.5687  -13.6091 C   0  0  0  0  0  0  0  0  0  0  0  0
   21.8310   -6.5478  -12.6903 C   0  0  0  0  0  0  0  0  0  0  0  0
   22.0549   -5.2541  -13.1129 C   0  0  0  0  0  0  0  0  0  0  0  0
   22.3774   -5.0024  -14.4328 C   0  0  0  0  0  0  0  0  0  0  0  0
   24.9750   -4.7002  -16.2233 C   0  0  0  0  0  0  0  0  0  0  0  0
   24.6910   -3.3571  -16.5433 O   0  0  0  0  0  0  0  0  0  0  0  0
   25.7536   -4.9488  -15.2846 O   0  0  0  0  0  0  0  0  0  0  0  0
  2  3  1  0
  2  1  1  0
  3  4  1  1
  5  6  2  0
  5  3  1  0
  7  5  1  0
  8  7  1  0
  8  9  1  6
 10 15  1  0
 10  9  1  0
 11 10  2  0
 12 13  2  0
 12 11  1  0
 13 14  1  0
 14 15  2  0
 16  8  1  0
 17 16  2  0
 18 16  1  0
 19 20  1  1
 19 18  1  0
 21 22  2  0
 21 20  1  0
 23 22  1  0
 24 23  2  0
 25 24  1  0
 25 26  2  0
 26 21  1  0
 27 19  1  0
 28 27  1  0
 29 27  2  0
M  END
$$$$
