SFF.pdb
     RDKit          3D

 29 30  0  0  1  0  0  0  0  0999 V2000
   22.5718  -21.4444  -14.8129 O   0  0  0  0  0  0  0  0  0  0  0  0
   23.1417  -21.4625  -13.5443 C   0  0  0  0  0  0  0  0  0  0  0  0
   24.6499  -21.5754  -13.6433 C   0  0  2  0  0  0  0  0  0  0  0  0
   24.9797  -22.7107  -14.4703 N   0  0  0  0  0  0  0  0  0  0  0  0
   25.1873  -21.6977  -12.2590 C   0  0  0  0  0  0  0  0  0  0  0  0
   25.2567  -22.8290  -11.7677 O   0  0  0  0  0  0  0  0  0  0  0  0
   25.6080  -20.5600  -11.5203 N   0  0  0  0  0  0  0  0  0  0  0  0
   26.1330  -20.6035  -10.2055 C   0  0  1  0  0  0  0  0  0  0  0  0
   27.0501  -19.4310   -9.8373 C   0  0  0  0  0  0  0  0  0  0  0  0
   27.7471  -19.6652   -8.5489 C   0  0  0  0  0  0  0  0  0  0  0  0
   28.8271  -20.4913   -8.3815 C   0  0  0  0  0  0  0  0  0  0  0  0
   29.4314  -20.6775   -7.1285 C   0  0  0  0  0  0  0  0  0  0  0  0
   28.9589  -20.0315   -6.0099 C   0  0  0  0  0  0  0  0  0  0  0  0
   27.8742  -19.1971   -6.1611 C   0  0  0  0  0  0  0  0  0  0  0  0
   27.2852  -19.0174   -7.3885 C   0  0  0  0  0  0  0  0  0  0  0  0
   25.1418  -20.7748   -9.1227 C   0  0  0  0  0  0  0  0  0  0  0  0
   24.0751  -20.1084   -9.0824 O   0  0  0  0  0  0  0  0  0  0  0  0
   25.3246  -21.7032   -8.0529 N   0  0  0  0  0  0  0  0  0  0  0  0
   24.2684  -22.0479   -7.1136 C   0  0  1  0  0  0  0  0  0  0  0  0
   24.9614  -22.6723   -5.9268 C   0  0  0  0  0  0  0  0  0  0  0  0
   25.6757  -21.7276   -5.0657 C   0  0  0  0  0  0  0  0  0  0  0  0
   24.9944  -20.8542   -4.2134 C   0  0  0  0  0  0  0  0  0  0  0  0
   25.7333  -19.9920   -3.4208 C   0  0  0  0  0  0  0  0  0  0  0  0
   27.1104  -19.9640   -3.4422 C   0  0  0  0  0  0  0  0  0  0  0  0
   27.7748  -20.8291   -4.2863 C   0  0  0  0  0  0  0  0  0  0  0  0
   27.0613  -21.6999   -5.0877 C   0  0  0  0  0  0  0  0  0  0  0  0
   23.5342  -20.8499   -6.6525 C   0  0  0  0  0  0  0  0  0  0  0  0
   23.9667  -19.6039   -7.1500 O   0  0  0  0  0  0  0  0  0  0  0  0
   22.5727  -20.8875   -5.8629 O   0  0  0  0  0  0  0  0  0  0  0  0
  2  3  1  0
  2  1  1  0
  3  4  1  6
  5  6  2  0
  5  3  1  0
  7  5  1  0
  8  7  1  0
  8  9  1  1
 10 15  1  0
 10  9  1  0
 11 10  2  0
 12 13  2  0
 12 11  1  0
 13 14  1  0
 14 15  2  0
 16  8  1  0
 17 16  2  0
 18 16  1  0
 19 20  1  1
 19 18  1  0
 21 22  2  0
 21 20  1  0
 23 22  1  0
 24 23  2  0
 25 24  1  0
 25 26  2  0
 26 21  1  0
 27 19  1  0
 28 27  1  0
 29 27  2  0
M  END
$$$$
