QWC.pdb
     RDKit          3D

 30 31  0  0  1  0  0  0  0  0999 V2000
   11.5535  -15.8308   15.3316 N   0  0  0  0  0  0  0  0  0  0  0  0
   10.4351  -16.5613   15.8791 C   0  0  0  0  0  0  0  0  0  0  0  0
   10.1188  -17.6138   15.2856 O   0  0  0  0  0  0  0  0  0  0  0  0
    9.7251  -16.0748   17.0624 C   0  0  0  0  0  0  0  0  0  0  0  0
   10.5203  -15.9563   18.3003 C   0  0  0  0  0  0  0  0  0  0  0  0
   10.1946  -16.8366   19.4428 C   0  0  2  0  0  0  0  0  0  0  0  0
    9.1909  -17.8517   19.0764 N   0  0  0  0  0  0  0  0  0  0  0  0
    9.9624  -16.2314   20.7560 C   0  0  0  0  0  0  0  0  0  0  0  0
   10.7392  -15.2926   21.1686 O   0  0  0  0  0  0  0  0  0  0  0  0
    8.9237  -16.6097   21.6314 N   0  0  0  0  0  0  0  0  0  0  0  0
    8.7434  -15.9133   22.9237 C   0  0  1  0  0  0  0  0  0  0  0  0
    7.2971  -15.8988   23.2750 C   0  0  0  0  0  0  0  0  0  0  0  0
    6.9163  -15.1715   24.4886 C   0  0  0  0  0  0  0  0  0  0  0  0
    6.3799  -15.6505   25.6757 C   0  0  0  0  0  0  0  0  0  0  0  0
    6.1514  -14.6261   26.5167 N   0  0  0  0  0  0  0  0  0  0  0  0
    6.5151  -13.4708   25.9386 C   0  0  0  0  0  0  0  0  0  0  0  0
    6.4776  -12.1679   26.3865 C   0  0  0  0  0  0  0  0  0  0  0  0
    6.9394  -11.1906   25.5191 C   0  0  0  0  0  0  0  0  0  0  0  0
    7.4196  -11.4767   24.2610 C   0  0  0  0  0  0  0  0  0  0  0  0
    7.4363  -12.7811   23.8637 C   0  0  0  0  0  0  0  0  0  0  0  0
    6.9903  -13.7881   24.6845 C   0  0  0  0  0  0  0  0  0  0  0  0
    9.6344  -16.5184   23.9241 C   0  0  0  0  0  0  0  0  0  0  0  0
   10.0871  -17.7025   23.7717 O   0  0  0  0  0  0  0  0  0  0  0  0
   10.0553  -15.8663   25.0861 N   0  0  0  0  0  0  0  0  0  0  0  0
   10.9765  -16.4754   26.0291 C   0  0  1  0  0  0  0  0  0  0  0  0
   11.4811  -15.4644   27.0461 C   0  0  0  0  0  0  0  0  0  0  0  0
   10.0047  -14.5659   27.6244 S   0  0  0  0  0  0  0  0  0  0  0  0
   10.3095  -17.5352   26.7741 C   0  0  0  0  0  0  0  0  0  0  0  0
    9.0409  -17.6507   26.6742 O   0  0  0  0  0  0  0  0  0  0  0  0
   11.0157  -18.4016   27.5704 O   0  0  0  0  0  0  0  0  0  0  0  0
  2  1  1  0
  3  2  2  0
  4  2  1  0
  5  4  1  0
  6  5  1  0
  6  7  1  6
  8  9  2  0
  8  6  1  0
 10  8  1  0
 11 10  1  0
 11 12  1  1
 13 12  1  0
 14 13  2  0
 15 16  1  0
 15 14  1  0
 16 21  2  0
 17 16  1  0
 17 18  2  0
 18 19  1  0
 19 20  2  0
 21 13  1  0
 21 20  1  0
 22 11  1  0
 23 22  2  0
 24 22  1  0
 25 28  1  0
 25 24  1  0
 25 26  1  1
 27 26  1  0
 28 30  1  0
 29 28  2  0
M  END
$$$$
