QWC.pdb
     RDKit          3D

 30 31  0  0  1  0  0  0  0  0999 V2000
    7.8984  -12.6031   17.7865 N   0  0  0  0  0  0  0  0  0  0  0  0
    7.5114  -13.9286   17.3656 C   0  0  0  0  0  0  0  0  0  0  0  0
    7.0868  -14.0349   16.1957 O   0  0  0  0  0  0  0  0  0  0  0  0
    7.6165  -15.0685   18.2770 C   0  0  0  0  0  0  0  0  0  0  0  0
    8.1334  -14.7800   19.6292 C   0  0  0  0  0  0  0  0  0  0  0  0
    8.3679  -15.9071   20.5572 C   0  0  2  0  0  0  0  0  0  0  0  0
    7.1303  -16.6653   20.8130 N   0  0  0  0  0  0  0  0  0  0  0  0
    9.1714  -15.6755   21.7594 C   0  0  0  0  0  0  0  0  0  0  0  0
   10.0516  -14.7373   21.7637 O   0  0  0  0  0  0  0  0  0  0  0  0
    9.0538  -16.4242   22.9485 N   0  0  0  0  0  0  0  0  0  0  0  0
    9.8515  -16.0648   24.1410 C   0  0  1  0  0  0  0  0  0  0  0  0
    9.0346  -16.2929   25.3641 C   0  0  0  0  0  0  0  0  0  0  0  0
    7.8017  -15.5118   25.4939 C   0  0  0  0  0  0  0  0  0  0  0  0
    6.4808  -15.9135   25.3523 C   0  0  0  0  0  0  0  0  0  0  0  0
    5.6645  -14.8587   25.5256 N   0  0  0  0  0  0  0  0  0  0  0  0
    6.3886  -13.7576   25.7795 C   0  0  0  0  0  0  0  0  0  0  0  0
    6.0202  -12.4522   26.0237 C   0  0  0  0  0  0  0  0  0  0  0  0
    7.0406  -11.5426   26.2529 C   0  0  0  0  0  0  0  0  0  0  0  0
    8.3709  -11.8966   26.2436 C   0  0  0  0  0  0  0  0  0  0  0  0
    8.6846  -13.2005   25.9972 C   0  0  0  0  0  0  0  0  0  0  0  0
    7.7120  -14.1419   25.7638 C   0  0  0  0  0  0  0  0  0  0  0  0
   11.1361  -16.7778   24.0926 C   0  0  0  0  0  0  0  0  0  0  0  0
   11.1833  -18.0350   23.8750 O   0  0  0  0  0  0  0  0  0  0  0  0
   12.3764  -16.1579   24.2663 N   0  0  0  0  0  0  0  0  0  0  0  0
   13.6257  -16.8979   24.2411 C   0  0  1  0  0  0  0  0  0  0  0  0
   14.8108  -15.9807   23.9857 C   0  0  0  0  0  0  0  0  0  0  0  0
   16.2860  -17.0489   24.0522 S   0  0  0  0  0  0  0  0  0  0  0  0
   13.8552  -17.5458   25.5260 C   0  0  0  0  0  0  0  0  0  0  0  0
   14.2094  -18.7734   25.5396 O   0  0  0  0  0  0  0  0  0  0  0  0
   13.6999  -16.8644   26.7070 O   0  0  0  0  0  0  0  0  0  0  0  0
  2  1  1  0
  3  2  2  0
  4  2  1  0
  5  4  1  0
  6  5  1  0
  6  7  1  1
  8  9  2  0
  8  6  1  0
 10  8  1  0
 11 10  1  0
 11 12  1  1
 13 12  1  0
 14 13  2  0
 15 16  1  0
 15 14  1  0
 16 21  2  0
 17 16  1  0
 17 18  2  0
 18 19  1  0
 19 20  2  0
 21 13  1  0
 21 20  1  0
 22 11  1  0
 23 22  2  0
 24 22  1  0
 25 28  1  0
 25 24  1  0
 25 26  1  1
 27 26  1  0
 28 30  1  0
 29 28  2  0
M  END
$$$$
