QWC.pdb
     RDKit          3D

 30 31  0  0  1  0  0  0  0  0999 V2000
   11.6586  -22.4054   18.4421 N   0  0  0  0  0  0  0  0  0  0  0  0
   10.7181  -21.3882   18.0361 C   0  0  0  0  0  0  0  0  0  0  0  0
   10.9560  -20.8174   16.9509 O   0  0  0  0  0  0  0  0  0  0  0  0
    9.5599  -21.0590   18.8675 C   0  0  0  0  0  0  0  0  0  0  0  0
    9.7563  -19.9956   19.8722 C   0  0  0  0  0  0  0  0  0  0  0  0
    8.7584  -18.9082   19.9623 C   0  0  2  0  0  0  0  0  0  0  0  0
    8.2682  -18.5103   18.6306 N   0  0  0  0  0  0  0  0  0  0  0  0
    9.0284  -17.7747   20.8493 C   0  0  0  0  0  0  0  0  0  0  0  0
   10.1032  -17.0859   20.6900 O   0  0  0  0  0  0  0  0  0  0  0  0
    8.1778  -17.3676   21.8978 N   0  0  0  0  0  0  0  0  0  0  0  0
    8.5647  -16.2478   22.7832 C   0  0  1  0  0  0  0  0  0  0  0  0
    7.4125  -15.3167   22.9277 C   0  0  0  0  0  0  0  0  0  0  0  0
    7.6641  -14.0530   23.6255 C   0  0  0  0  0  0  0  0  0  0  0  0
    8.4582  -12.9782   23.2507 C   0  0  0  0  0  0  0  0  0  0  0  0
    8.4269  -12.0348   24.2089 N   0  0  0  0  0  0  0  0  0  0  0  0
    7.6387  -12.4354   25.2186 C   0  0  0  0  0  0  0  0  0  0  0  0
    7.2923  -11.8320   26.4084 C   0  0  0  0  0  0  0  0  0  0  0  0
    6.4389  -12.5338   27.2450 C   0  0  0  0  0  0  0  0  0  0  0  0
    5.9430  -13.7788   26.9299 C   0  0  0  0  0  0  0  0  0  0  0  0
    6.3151  -14.3339   25.7411 C   0  0  0  0  0  0  0  0  0  0  0  0
    7.1584  -13.6807   24.8757 C   0  0  0  0  0  0  0  0  0  0  0  0
    9.1036  -16.7916   24.0381 C   0  0  0  0  0  0  0  0  0  0  0  0
    8.5735  -17.8110   24.5950 O   0  0  0  0  0  0  0  0  0  0  0  0
   10.2125  -16.2610   24.7025 N   0  0  0  0  0  0  0  0  0  0  0  0
   10.7966  -16.8967   25.8703 C   0  0  1  0  0  0  0  0  0  0  0  0
   12.3156  -16.8750   25.8144 C   0  0  0  0  0  0  0  0  0  0  0  0
   12.8782  -17.6988   27.3397 S   0  0  0  0  0  0  0  0  0  0  0  0
   10.4028  -16.1881   27.0812 C   0  0  0  0  0  0  0  0  0  0  0  0
    9.9549  -14.9960   26.9764 O   0  0  0  0  0  0  0  0  0  0  0  0
   10.5032  -16.7761   28.3171 O   0  0  0  0  0  0  0  0  0  0  0  0
  2  1  1  0
  3  2  2  0
  4  2  1  0
  5  4  1  0
  6  5  1  0
  6  7  1  6
  8  9  2  0
  8  6  1  0
 10  8  1  0
 11 10  1  0
 11 12  1  1
 13 12  1  0
 14 13  2  0
 15 16  1  0
 15 14  1  0
 16 21  2  0
 17 16  1  0
 17 18  2  0
 18 19  1  0
 19 20  2  0
 21 13  1  0
 21 20  1  0
 22 11  1  0
 23 22  2  0
 24 22  1  0
 25 28  1  0
 25 24  1  0
 25 26  1  6
 27 26  1  0
 28 30  1  0
 29 28  2  0
M  END
$$$$
