QWC.pdb
     RDKit          3D

 30 31  0  0  1  0  0  0  0  0999 V2000
    9.3607  -15.5886   16.0407 N   0  0  0  0  0  0  0  0  0  0  0  0
   10.0406  -16.8162   16.3795 C   0  0  0  0  0  0  0  0  0  0  0  0
   10.6673  -17.3742   15.4543 O   0  0  0  0  0  0  0  0  0  0  0  0
    9.9822  -17.3590   17.7371 C   0  0  0  0  0  0  0  0  0  0  0  0
   11.1531  -17.0984   18.5972 C   0  0  0  0  0  0  0  0  0  0  0  0
   11.1576  -17.6344   19.9753 C   0  0  2  0  0  0  0  0  0  0  0  0
   10.4126  -18.9028   20.0663 N   0  0  0  0  0  0  0  0  0  0  0  0
   10.8947  -16.7201   21.0887 C   0  0  0  0  0  0  0  0  0  0  0  0
   11.5334  -15.6056   21.1592 O   0  0  0  0  0  0  0  0  0  0  0  0
    9.9697  -16.9740   22.1222 N   0  0  0  0  0  0  0  0  0  0  0  0
    9.6956  -15.9465   23.1502 C   0  0  1  0  0  0  0  0  0  0  0  0
    8.2245  -15.7560   23.2726 C   0  0  0  0  0  0  0  0  0  0  0  0
    7.4987  -15.3923   22.0528 C   0  0  0  0  0  0  0  0  0  0  0  0
    6.5106  -16.0882   21.3704 C   0  0  0  0  0  0  0  0  0  0  0  0
    6.1427  -15.3982   20.2761 N   0  0  0  0  0  0  0  0  0  0  0  0
    6.8485  -14.2596   20.1954 C   0  0  0  0  0  0  0  0  0  0  0  0
    6.8371  -13.2352   19.2734 C   0  0  0  0  0  0  0  0  0  0  0  0
    7.7120  -12.1826   19.4911 C   0  0  0  0  0  0  0  0  0  0  0  0
    8.5658  -12.1337   20.5699 C   0  0  0  0  0  0  0  0  0  0  0  0
    8.5398  -13.1713   21.4543 C   0  0  0  0  0  0  0  0  0  0  0  0
    7.6919  -14.2386   21.2851 C   0  0  0  0  0  0  0  0  0  0  0  0
   10.3949  -16.3097   24.3911 C   0  0  0  0  0  0  0  0  0  0  0  0
   10.0912  -15.7600   25.5028 O   0  0  0  0  0  0  0  0  0  0  0  0
   11.4135  -17.2639   24.4588 N   0  0  0  0  0  0  0  0  0  0  0  0
   11.8469  -17.8508   25.7145 C   0  0  1  0  0  0  0  0  0  0  0  0
   10.7331  -18.6531   26.3676 C   0  0  0  0  0  0  0  0  0  0  0  0
   11.2634  -18.9238   28.0901 S   0  0  0  0  0  0  0  0  0  0  0  0
   12.9574  -18.7665   25.4875 C   0  0  0  0  0  0  0  0  0  0  0  0
   12.9669  -19.4664   24.4185 O   0  0  0  0  0  0  0  0  0  0  0  0
   13.9814  -18.8854   26.3934 O   0  0  0  0  0  0  0  0  0  0  0  0
  2  1  1  0
  3  2  2  0
  4  2  1  0
  5  4  1  0
  6  5  1  0
  6  7  1  6
  8  9  2  0
  8  6  1  0
 10  8  1  0
 11 10  1  0
 11 12  1  1
 13 12  1  0
 14 13  2  0
 15 16  1  0
 15 14  1  0
 16 21  2  0
 17 16  1  0
 17 18  2  0
 18 19  1  0
 19 20  2  0
 21 13  1  0
 21 20  1  0
 22 11  1  0
 23 22  2  0
 24 22  1  0
 25 28  1  0
 25 24  1  0
 25 26  1  6
 27 26  1  0
 28 30  1  0
 29 28  2  0
M  END
$$$$
