QWC.pdb
     RDKit          3D

 30 31  0  0  1  0  0  0  0  0999 V2000
    9.4681  -13.9612   17.6496 N   0  0  0  0  0  0  0  0  0  0  0  0
    8.0289  -13.8491   17.6329 C   0  0  0  0  0  0  0  0  0  0  0  0
    7.4659  -14.1235   16.5522 O   0  0  0  0  0  0  0  0  0  0  0  0
    7.2925  -13.4324   18.8266 C   0  0  0  0  0  0  0  0  0  0  0  0
    8.0068  -13.5548   20.1125 C   0  0  0  0  0  0  0  0  0  0  0  0
    8.3560  -14.9037   20.6075 C   0  0  2  0  0  0  0  0  0  0  0  0
    7.2292  -15.8426   20.4634 N   0  0  0  0  0  0  0  0  0  0  0  0
    9.0597  -15.0258   21.8859 C   0  0  0  0  0  0  0  0  0  0  0  0
   10.0342  -14.2294   22.1527 O   0  0  0  0  0  0  0  0  0  0  0  0
    8.7447  -15.9780   22.8771 N   0  0  0  0  0  0  0  0  0  0  0  0
    9.4813  -15.9948   24.1595 C   0  0  1  0  0  0  0  0  0  0  0  0
    8.5348  -16.3091   25.2644 C   0  0  0  0  0  0  0  0  0  0  0  0
    7.4497  -15.3532   25.5005 C   0  0  0  0  0  0  0  0  0  0  0  0
    6.0759  -15.5409   25.4383 C   0  0  0  0  0  0  0  0  0  0  0  0
    5.4469  -14.3806   25.6972 N   0  0  0  0  0  0  0  0  0  0  0  0
    6.3487  -13.4149   25.9323 C   0  0  0  0  0  0  0  0  0  0  0  0
    6.2049  -12.0787   26.2385 C   0  0  0  0  0  0  0  0  0  0  0  0
    7.3671  -11.3467   26.4233 C   0  0  0  0  0  0  0  0  0  0  0  0
    8.6226  -11.9005   26.3128 C   0  0  0  0  0  0  0  0  0  0  0  0
    8.7127  -13.2267   26.0082 C   0  0  0  0  0  0  0  0  0  0  0  0
    7.5922  -13.9973   25.8151 C   0  0  0  0  0  0  0  0  0  0  0  0
   10.6374  -16.8946   24.0378 C   0  0  0  0  0  0  0  0  0  0  0  0
   10.5202  -18.0480   23.5029 O   0  0  0  0  0  0  0  0  0  0  0  0
   11.9243  -16.5706   24.4755 N   0  0  0  0  0  0  0  0  0  0  0  0
   13.0362  -17.4994   24.3759 C   0  0  1  0  0  0  0  0  0  0  0  0
   14.3553  -16.7695   24.1811 C   0  0  0  0  0  0  0  0  0  0  0  0
   14.1809  -15.8407   22.6227 S   0  0  0  0  0  0  0  0  0  0  0  0
   13.1552  -18.2783   25.6017 C   0  0  0  0  0  0  0  0  0  0  0  0
   12.3354  -18.0511   26.5551 O   0  0  0  0  0  0  0  0  0  0  0  0
   14.1220  -19.2418   25.7444 O   0  0  0  0  0  0  0  0  0  0  0  0
  2  1  1  0
  3  2  2  0
  4  2  1  0
  5  4  1  0
  6  5  1  0
  6  7  1  1
  8  9  2  0
  8  6  1  0
 10  8  1  0
 11 10  1  0
 11 12  1  1
 13 12  1  0
 14 13  2  0
 15 16  1  0
 15 14  1  0
 16 21  2  0
 17 16  1  0
 17 18  2  0
 18 19  1  0
 19 20  2  0
 21 13  1  0
 21 20  1  0
 22 11  1  0
 23 22  2  0
 24 22  1  0
 25 28  1  0
 25 24  1  0
 25 26  1  1
 27 26  1  0
 28 30  1  0
 29 28  2  0
M  END
$$$$
