QWC.pdb
     RDKit          3D

 30 31  0  0  1  0  0  0  0  0999 V2000
    8.4021  -12.5554   18.4948 N   0  0  0  0  0  0  0  0  0  0  0  0
    7.6204  -13.7585   18.3357 C   0  0  0  0  0  0  0  0  0  0  0  0
    6.7444  -13.7346   17.4456 O   0  0  0  0  0  0  0  0  0  0  0  0
    7.8568  -14.9274   19.1835 C   0  0  0  0  0  0  0  0  0  0  0  0
    8.9025  -14.7867   20.2158 C   0  0  0  0  0  0  0  0  0  0  0  0
    9.2325  -15.9557   21.0589 C   0  0  2  0  0  0  0  0  0  0  0  0
    8.2652  -17.0514   20.8694 N   0  0  0  0  0  0  0  0  0  0  0  0
    9.5993  -15.7345   22.4593 C   0  0  0  0  0  0  0  0  0  0  0  0
   10.3553  -14.7404   22.7681 O   0  0  0  0  0  0  0  0  0  0  0  0
    9.1775  -16.5515   23.5284 N   0  0  0  0  0  0  0  0  0  0  0  0
    9.6209  -16.2640   24.9098 C   0  0  1  0  0  0  0  0  0  0  0  0
    8.4643  -16.4073   25.8356 C   0  0  0  0  0  0  0  0  0  0  0  0
    7.3864  -15.4230   25.7081 C   0  0  0  0  0  0  0  0  0  0  0  0
    6.0661  -15.6021   25.3192 C   0  0  0  0  0  0  0  0  0  0  0  0
    5.4307  -14.4167   25.3105 N   0  0  0  0  0  0  0  0  0  0  0  0
    6.2764  -13.4424   25.6803 C   0  0  0  0  0  0  0  0  0  0  0  0
    6.1045  -12.0825   25.8239 C   0  0  0  0  0  0  0  0  0  0  0  0
    7.2073  -11.3481   26.2308 C   0  0  0  0  0  0  0  0  0  0  0  0
    8.4319  -11.9222   26.4876 C   0  0  0  0  0  0  0  0  0  0  0  0
    8.5517  -13.2716   26.3311 C   0  0  0  0  0  0  0  0  0  0  0  0
    7.4901  -14.0455   25.9300 C   0  0  0  0  0  0  0  0  0  0  0  0
   10.7916  -17.0966   25.2218 C   0  0  0  0  0  0  0  0  0  0  0  0
   10.8624  -18.3079   24.8245 O   0  0  0  0  0  0  0  0  0  0  0  0
   11.8956  -16.6443   25.9493 N   0  0  0  0  0  0  0  0  0  0  0  0
   12.9795  -17.5258   26.3456 C   0  0  1  0  0  0  0  0  0  0  0  0
   14.2493  -16.7460   26.6466 C   0  0  0  0  0  0  0  0  0  0  0  0
   14.5441  -15.6983   25.1847 S   0  0  0  0  0  0  0  0  0  0  0  0
   12.6240  -18.2495   27.5594 C   0  0  0  0  0  0  0  0  0  0  0  0
   11.4679  -18.0609   28.0699 O   0  0  0  0  0  0  0  0  0  0  0  0
   13.5015  -19.1211   28.1539 O   0  0  0  0  0  0  0  0  0  0  0  0
  2  1  1  0
  3  2  2  0
  4  2  1  0
  5  4  1  0
  6  5  1  0
  6  7  1  1
  8  9  2  0
  8  6  1  0
 10  8  1  0
 11 10  1  0
 11 12  1  1
 13 12  1  0
 14 13  2  0
 15 16  1  0
 15 14  1  0
 16 21  2  0
 17 16  1  0
 17 18  2  0
 18 19  1  0
 19 20  2  0
 21 13  1  0
 21 20  1  0
 22 11  1  0
 23 22  2  0
 24 22  1  0
 25 28  1  0
 25 24  1  0
 25 26  1  1
 27 26  1  0
 28 30  1  0
 29 28  2  0
M  END
$$$$
