QWC.pdb
     RDKit          3D

 30 31  0  0  1  0  0  0  0  0999 V2000
    7.7176  -12.2172   18.5488 N   0  0  0  0  0  0  0  0  0  0  0  0
    7.9517  -13.5973   18.1957 C   0  0  0  0  0  0  0  0  0  0  0  0
    8.3135  -13.8129   17.0197 O   0  0  0  0  0  0  0  0  0  0  0  0
    7.7661  -14.6671   19.1765 C   0  0  0  0  0  0  0  0  0  0  0  0
    8.6003  -14.5930   20.3919 C   0  0  0  0  0  0  0  0  0  0  0  0
    8.8881  -15.8385   21.1350 C   0  0  2  0  0  0  0  0  0  0  0  0
    7.7720  -16.7964   21.0407 N   0  0  0  0  0  0  0  0  0  0  0  0
    9.4643  -15.7417   22.4779 C   0  0  0  0  0  0  0  0  0  0  0  0
   10.3801  -14.8697   22.7143 O   0  0  0  0  0  0  0  0  0  0  0  0
    9.0839  -16.5554   23.5649 N   0  0  0  0  0  0  0  0  0  0  0  0
    9.6673  -16.3335   24.9058 C   0  0  1  0  0  0  0  0  0  0  0  0
    8.5913  -16.4268   25.9299 C   0  0  0  0  0  0  0  0  0  0  0  0
    7.5022  -15.4507   25.8391 C   0  0  0  0  0  0  0  0  0  0  0  0
    6.1774  -15.6351   25.4689 C   0  0  0  0  0  0  0  0  0  0  0  0
    5.5309  -14.4559   25.4934 N   0  0  0  0  0  0  0  0  0  0  0  0
    6.3736  -13.4807   25.8675 C   0  0  0  0  0  0  0  0  0  0  0  0
    6.1915  -12.1254   26.0399 C   0  0  0  0  0  0  0  0  0  0  0  0
    7.2940  -11.3884   26.4423 C   0  0  0  0  0  0  0  0  0  0  0  0
    8.5281  -11.9554   26.6677 C   0  0  0  0  0  0  0  0  0  0  0  0
    8.6578  -13.3003   26.4836 C   0  0  0  0  0  0  0  0  0  0  0  0
    7.5969  -14.0767   26.0855 C   0  0  0  0  0  0  0  0  0  0  0  0
   10.8036  -17.2471   25.0926 C   0  0  0  0  0  0  0  0  0  0  0  0
   10.7765  -18.4352   24.6257 O   0  0  0  0  0  0  0  0  0  0  0  0
   11.9766  -16.9008   25.7685 N   0  0  0  0  0  0  0  0  0  0  0  0
   13.0660  -17.8405   25.9665 C   0  0  1  0  0  0  0  0  0  0  0  0
   14.4129  -17.1359   25.9821 C   0  0  0  0  0  0  0  0  0  0  0  0
   14.4419  -16.0920   24.4883 S   0  0  0  0  0  0  0  0  0  0  0  0
   12.9224  -18.5174   27.2489 C   0  0  0  0  0  0  0  0  0  0  0  0
   11.9353  -18.2080   27.9989 O   0  0  0  0  0  0  0  0  0  0  0  0
   13.8202  -19.4718   27.6570 O   0  0  0  0  0  0  0  0  0  0  0  0
  2  1  1  0
  3  2  2  0
  4  2  1  0
  5  4  1  0
  6  5  1  0
  6  7  1  1
  8  9  2  0
  8  6  1  0
 10  8  1  0
 11 10  1  0
 11 12  1  1
 13 12  1  0
 14 13  2  0
 15 16  1  0
 15 14  1  0
 16 21  2  0
 17 16  1  0
 17 18  2  0
 18 19  1  0
 19 20  2  0
 21 13  1  0
 21 20  1  0
 22 11  1  0
 23 22  2  0
 24 22  1  0
 25 28  1  0
 25 24  1  0
 25 26  1  1
 27 26  1  0
 28 30  1  0
 29 28  2  0
M  END
$$$$
