QWC.pdb
     RDKit          3D

 30 31  0  0  1  0  0  0  0  0999 V2000
    8.9876  -12.9309   17.1651 N   0  0  0  0  0  0  0  0  0  0  0  0
    8.4972  -14.2886   17.1769 C   0  0  0  0  0  0  0  0  0  0  0  0
    7.5084  -14.5252   16.4512 O   0  0  0  0  0  0  0  0  0  0  0  0
    9.1369  -15.3129   18.0030 C   0  0  0  0  0  0  0  0  0  0  0  0
   10.2894  -14.8741   18.8142 C   0  0  0  0  0  0  0  0  0  0  0  0
   10.6411  -15.6438   20.0267 C   0  0  2  0  0  0  0  0  0  0  0  0
   10.4647  -17.0923   19.8195 N   0  0  0  0  0  0  0  0  0  0  0  0
   10.1545  -15.1749   21.3258 C   0  0  0  0  0  0  0  0  0  0  0  0
   10.3098  -13.9406   21.6540 O   0  0  0  0  0  0  0  0  0  0  0  0
    9.5112  -15.9953   22.2753 N   0  0  0  0  0  0  0  0  0  0  0  0
    9.1073  -15.4458   23.5877 C   0  0  1  0  0  0  0  0  0  0  0  0
    7.6402  -15.6249   23.7635 C   0  0  0  0  0  0  0  0  0  0  0  0
    7.0342  -15.0121   24.9486 C   0  0  0  0  0  0  0  0  0  0  0  0
    6.3130  -15.6005   25.9781 C   0  0  0  0  0  0  0  0  0  0  0  0
    5.9136  -14.6571   26.8495 N   0  0  0  0  0  0  0  0  0  0  0  0
    6.3402  -13.4509   26.4441 C   0  0  0  0  0  0  0  0  0  0  0  0
    6.1894  -12.1931   26.9870 C   0  0  0  0  0  0  0  0  0  0  0  0
    6.7677  -11.1375   26.2999 C   0  0  0  0  0  0  0  0  0  0  0  0
    7.4672  -11.3057   25.1262 C   0  0  0  0  0  0  0  0  0  0  0  0
    7.5888  -12.5697   24.6291 C   0  0  0  0  0  0  0  0  0  0  0  0
    7.0348  -13.6506   25.2707 C   0  0  0  0  0  0  0  0  0  0  0  0
    9.9501  -16.0379   24.6365 C   0  0  0  0  0  0  0  0  0  0  0  0
   11.0412  -16.6339   24.3457 O   0  0  0  0  0  0  0  0  0  0  0  0
    9.6426  -15.9926   25.9989 N   0  0  0  0  0  0  0  0  0  0  0  0
   10.5948  -16.3815   27.0241 C   0  0  1  0  0  0  0  0  0  0  0  0
   10.3353  -15.6496   28.3310 C   0  0  0  0  0  0  0  0  0  0  0  0
   10.9455  -13.9513   28.0760 S   0  0  0  0  0  0  0  0  0  0  0  0
   10.4829  -17.8074   27.3027 C   0  0  0  0  0  0  0  0  0  0  0  0
    9.5712  -18.4787   26.7104 O   0  0  0  0  0  0  0  0  0  0  0  0
   11.3333  -18.4323   28.1801 O   0  0  0  0  0  0  0  0  0  0  0  0
  2  1  1  0
  3  2  2  0
  4  2  1  0
  5  4  1  0
  6  5  1  0
  6  7  1  6
  8  9  2  0
  8  6  1  0
 10  8  1  0
 11 10  1  0
 11 12  1  1
 13 12  1  0
 14 13  2  0
 15 16  1  0
 15 14  1  0
 16 21  2  0
 17 16  1  0
 17 18  2  0
 18 19  1  0
 19 20  2  0
 21 13  1  0
 21 20  1  0
 22 11  1  0
 23 22  2  0
 24 22  1  0
 25 28  1  0
 25 24  1  0
 25 26  1  1
 27 26  1  0
 28 30  1  0
 29 28  2  0
M  END
$$$$
