QWC.pdb
     RDKit          3D

 30 31  0  0  1  0  0  0  0  0999 V2000
    9.0060  -12.3496   18.6641 N   0  0  0  0  0  0  0  0  0  0  0  0
    8.5288  -13.6755   18.3505 C   0  0  0  0  0  0  0  0  0  0  0  0
    7.8300  -13.7820   17.3206 O   0  0  0  0  0  0  0  0  0  0  0  0
    8.8558  -14.8154   19.2076 C   0  0  0  0  0  0  0  0  0  0  0  0
    9.7656  -14.5449   20.3379 C   0  0  0  0  0  0  0  0  0  0  0  0
   10.1048  -15.6505   21.2593 C   0  0  2  0  0  0  0  0  0  0  0  0
    9.4723  -16.9154   20.8445 N   0  0  0  0  0  0  0  0  0  0  0  0
   10.0420  -15.4105   22.7026 C   0  0  0  0  0  0  0  0  0  0  0  0
   10.6024  -14.3633   23.1969 O   0  0  0  0  0  0  0  0  0  0  0  0
    9.3976  -16.2642   23.6214 N   0  0  0  0  0  0  0  0  0  0  0  0
    9.3437  -15.9138   25.0574 C   0  0  1  0  0  0  0  0  0  0  0  0
    8.0271  -16.3289   25.6140 C   0  0  0  0  0  0  0  0  0  0  0  0
    6.9495  -15.3367   25.5795 C   0  0  0  0  0  0  0  0  0  0  0  0
    5.6027  -15.5028   25.2884 C   0  0  0  0  0  0  0  0  0  0  0  0
    4.9766  -14.3136   25.3417 N   0  0  0  0  0  0  0  0  0  0  0  0
    5.8543  -13.3492   25.6590 C   0  0  0  0  0  0  0  0  0  0  0  0
    5.7031  -11.9902   25.8315 C   0  0  0  0  0  0  0  0  0  0  0  0
    6.8382  -11.2677   26.1637 C   0  0  0  0  0  0  0  0  0  0  0  0
    8.0746  -11.8523   26.3211 C   0  0  0  0  0  0  0  0  0  0  0  0
    8.1730  -13.2003   26.1397 C   0  0  0  0  0  0  0  0  0  0  0  0
    7.0791  -13.9627   25.8098 C   0  0  0  0  0  0  0  0  0  0  0  0
   10.5238  -16.4722   25.7329 C   0  0  0  0  0  0  0  0  0  0  0  0
   11.3404  -17.2315   25.1109 O   0  0  0  0  0  0  0  0  0  0  0  0
   10.8468  -16.2201   27.0689 N   0  0  0  0  0  0  0  0  0  0  0  0
   11.9305  -16.9066   27.7496 C   0  0  1  0  0  0  0  0  0  0  0  0
   12.1041  -16.3993   29.1720 C   0  0  0  0  0  0  0  0  0  0  0  0
   11.1275  -14.8637   29.2719 S   0  0  0  0  0  0  0  0  0  0  0  0
   11.6494  -18.3338   27.8356 C   0  0  0  0  0  0  0  0  0  0  0  0
   10.5374  -18.7687   27.3806 O   0  0  0  0  0  0  0  0  0  0  0  0
   12.5513  -19.2070   28.3899 O   0  0  0  0  0  0  0  0  0  0  0  0
  2  1  1  0
  3  2  2  0
  4  2  1  0
  5  4  1  0
  6  5  1  0
  6  7  1  1
  8  9  2  0
  8  6  1  0
 10  8  1  0
 11 10  1  0
 11 12  1  1
 13 12  1  0
 14 13  2  0
 15 16  1  0
 15 14  1  0
 16 21  2  0
 17 16  1  0
 17 18  2  0
 18 19  1  0
 19 20  2  0
 21 13  1  0
 21 20  1  0
 22 11  1  0
 23 22  2  0
 24 22  1  0
 25 28  1  0
 25 24  1  0
 25 26  1  1
 27 26  1  0
 28 30  1  0
 29 28  2  0
M  END
$$$$
