QWC.pdb
     RDKit          3D

 30 31  0  0  1  0  0  0  0  0999 V2000
    8.7337  -12.6541   19.2939 N   0  0  0  0  0  0  0  0  0  0  0  0
    8.0657  -13.9002   19.0025 C   0  0  0  0  0  0  0  0  0  0  0  0
    6.8822  -13.8145   18.6122 O   0  0  0  0  0  0  0  0  0  0  0  0
    8.7555  -15.1802   19.1656 C   0  0  0  0  0  0  0  0  0  0  0  0
   10.1410  -15.1175   19.6710 C   0  0  0  0  0  0  0  0  0  0  0  0
   10.5231  -15.9796   20.8099 C   0  0  2  0  0  0  0  0  0  0  0  0
   10.2311  -17.3984   20.5380 N   0  0  0  0  0  0  0  0  0  0  0  0
   10.1645  -15.5577   22.1656 C   0  0  0  0  0  0  0  0  0  0  0  0
   10.3731  -14.3410   22.5278 O   0  0  0  0  0  0  0  0  0  0  0  0
    9.5927  -16.4066   23.1355 N   0  0  0  0  0  0  0  0  0  0  0  0
    9.2853  -15.8959   24.4891 C   0  0  1  0  0  0  0  0  0  0  0  0
    7.9418  -16.3841   24.9037 C   0  0  0  0  0  0  0  0  0  0  0  0
    6.9795  -15.3755   25.3551 C   0  0  0  0  0  0  0  0  0  0  0  0
    5.6126  -15.4891   25.5673 C   0  0  0  0  0  0  0  0  0  0  0  0
    5.1125  -14.3010   25.9508 N   0  0  0  0  0  0  0  0  0  0  0  0
    6.0947  -13.3880   26.0051 C   0  0  0  0  0  0  0  0  0  0  0  0
    6.0883  -12.0508   26.3389 C   0  0  0  0  0  0  0  0  0  0  0  0
    7.3025  -11.3843   26.2911 C   0  0  0  0  0  0  0  0  0  0  0  0
    8.4786  -12.0024   25.9305 C   0  0  0  0  0  0  0  0  0  0  0  0
    8.4332  -13.3268   25.6090 C   0  0  0  0  0  0  0  0  0  0  0  0
    7.2561  -14.0339   25.6401 C   0  0  0  0  0  0  0  0  0  0  0  0
   10.3925  -16.2366   25.3941 C   0  0  0  0  0  0  0  0  0  0  0  0
   11.3959  -16.9100   24.9820 O   0  0  0  0  0  0  0  0  0  0  0  0
   10.4433  -15.8566   26.7378 N   0  0  0  0  0  0  0  0  0  0  0  0
   11.4285  -16.3923   27.6605 C   0  0  1  0  0  0  0  0  0  0  0  0
   11.2644  -15.8046   29.0529 C   0  0  0  0  0  0  0  0  0  0  0  0
   10.8810  -14.0405   28.8028 S   0  0  0  0  0  0  0  0  0  0  0  0
   11.2725  -17.8358   27.7843 C   0  0  0  0  0  0  0  0  0  0  0  0
   10.2959  -18.4010   27.1847 O   0  0  0  0  0  0  0  0  0  0  0  0
   12.1495  -18.5879   28.5248 O   0  0  0  0  0  0  0  0  0  0  0  0
  2  1  1  0
  3  2  2  0
  4  2  1  0
  5  4  1  0
  6  5  1  0
  6  7  1  6
  8  9  2  0
  8  6  1  0
 10  8  1  0
 11 10  1  0
 11 12  1  1
 13 12  1  0
 14 13  2  0
 15 16  1  0
 15 14  1  0
 16 21  2  0
 17 16  1  0
 17 18  2  0
 18 19  1  0
 19 20  2  0
 21 13  1  0
 21 20  1  0
 22 11  1  0
 23 22  2  0
 24 22  1  0
 25 28  1  0
 25 24  1  0
 25 26  1  1
 27 26  1  0
 28 30  1  0
 29 28  2  0
M  END
$$$$
