FMA.pdb
     RDKit          3D

 25 25  0  0  1  0  0  0  0  0999 V2000
    8.6083  -15.1105   19.4655 N   0  0  0  0  0  0  0  0  0  0  0  0
    8.0950  -15.9391   20.5343 C   0  0  1  0  0  0  0  0  0  0  0  0
    8.4836  -17.3792   20.2413 C   0  0  0  0  0  0  0  0  0  0  0  0
    7.3462  -18.1261   19.6477 C   0  0  0  0  0  0  0  0  0  0  0  0
    6.4469  -18.8223   20.4297 C   0  0  0  0  0  0  0  0  0  0  0  0
    5.3928  -19.5135   19.8681 C   0  0  0  0  0  0  0  0  0  0  0  0
    5.2823  -19.4741   18.4856 C   0  0  0  0  0  0  0  0  0  0  0  0
    6.1626  -18.7896   17.6845 C   0  0  0  0  0  0  0  0  0  0  0  0
    7.1972  -18.1150   18.2812 C   0  0  0  0  0  0  0  0  0  0  0  0
    8.6982  -15.5105   21.7993 C   0  0  0  0  0  0  0  0  0  0  0  0
    9.9511  -15.4302   21.9850 O   0  0  0  0  0  0  0  0  0  0  0  0
    6.4636  -11.0337   26.4153 C   0  0  0  0  0  0  0  0  0  0  0  0
    6.6277  -12.6505   27.2062 S   0  0  0  0  0  0  0  0  0  0  0  0
    7.9109  -13.6629   26.3863 C   0  0  0  0  0  0  0  0  0  0  0  0
    7.4124  -13.9769   25.0101 C   0  0  0  0  0  0  0  0  0  0  0  0
    8.4079  -14.7815   24.2022 C   0  0  2  0  0  0  0  0  0  0  0  0
    7.8916  -15.1494   22.9239 N   0  0  0  0  0  0  0  0  0  0  0  0
    8.8900  -15.9282   24.9927 C   0  0  0  0  0  0  0  0  0  0  0  0
    8.1271  -16.8350   25.4068 O   0  0  0  0  0  0  0  0  0  0  0  0
   12.1509  -17.5899   25.5639 C   0  0  0  0  0  0  0  0  0  0  0  0
   10.7557  -17.2340   25.9947 C   0  0  2  0  0  0  0  0  0  0  0  0
   10.2692  -16.0355   25.3130 N   0  0  0  0  0  0  0  0  0  0  0  0
   10.7033  -16.9907   27.4645 C   0  0  0  0  0  0  0  0  0  0  0  0
   11.0492  -17.9587   28.3897 O   0  0  0  0  0  0  0  0  0  0  0  0
   10.3366  -15.8784   27.9161 O   0  0  0  0  0  0  0  0  0  0  0  0
  2  1  1  6
  3  4  1  0
  3  2  1  0
  4  9  2  0
  5  6  2  0
  5  4  1  0
  6  7  1  0
  7  8  2  0
  9  8  1  0
 10  2  1  0
 10 17  1  0
 11 10  2  0
 12 13  1  0
 13 14  1  0
 15 14  1  0
 16 17  1  0
 16 15  1  1
 18 19  2  0
 18 16  1  0
 21 20  1  6
 21 23  1  0
 21 22  1  0
 22 18  1  0
 23 24  1  0
 25 23  2  0
M  END
$$$$
