FMA.pdb
     RDKit          3D

 25 25  0  0  1  0  0  0  0  0999 V2000
    8.2131  -19.3829   27.4317 N   0  0  0  0  0  0  0  0  0  0  0  0
    8.5639  -17.9888   27.2716 C   0  0  1  0  0  0  0  0  0  0  0  0
   10.0803  -17.8840   27.2554 C   0  0  0  0  0  0  0  0  0  0  0  0
   10.5270  -16.5625   27.7639 C   0  0  0  0  0  0  0  0  0  0  0  0
   10.8951  -16.3775   29.0811 C   0  0  0  0  0  0  0  0  0  0  0  0
   11.3089  -15.1450   29.5439 C   0  0  0  0  0  0  0  0  0  0  0  0
   11.3364  -14.1066   28.6242 C   0  0  0  0  0  0  0  0  0  0  0  0
   10.9755  -14.2633   27.3087 C   0  0  0  0  0  0  0  0  0  0  0  0
   10.5699  -15.5042   26.8877 C   0  0  0  0  0  0  0  0  0  0  0  0
    8.0201  -17.5050   25.9996 C   0  0  0  0  0  0  0  0  0  0  0  0
    7.7176  -18.2691   25.0324 O   0  0  0  0  0  0  0  0  0  0  0  0
    6.6573  -11.1417   25.7359 C   0  0  0  0  0  0  0  0  0  0  0  0
    6.1181  -12.5339   26.7545 S   0  0  0  0  0  0  0  0  0  0  0  0
    5.7222  -13.9936   25.7268 C   0  0  0  0  0  0  0  0  0  0  0  0
    6.8206  -14.1347   24.7194 C   0  0  0  0  0  0  0  0  0  0  0  0
    7.2761  -15.5688   24.5550 C   0  0  2  0  0  0  0  0  0  0  0  0
    7.7934  -16.1118   25.7688 N   0  0  0  0  0  0  0  0  0  0  0  0
    8.2100  -15.6745   23.4196 C   0  0  0  0  0  0  0  0  0  0  0  0
    7.8596  -15.4683   22.2320 O   0  0  0  0  0  0  0  0  0  0  0  0
   10.8067  -14.7062   21.9926 C   0  0  0  0  0  0  0  0  0  0  0  0
   10.4955  -16.0776   22.5231 C   0  0  2  0  0  0  0  0  0  0  0  0
    9.5670  -16.0223   23.6512 N   0  0  0  0  0  0  0  0  0  0  0  0
   11.7398  -16.7638   22.9736 C   0  0  0  0  0  0  0  0  0  0  0  0
   12.8223  -16.9628   22.1361 O   0  0  0  0  0  0  0  0  0  0  0  0
   11.8452  -17.1903   24.1494 O   0  0  0  0  0  0  0  0  0  0  0  0
  2  1  1  6
  3  4  1  0
  3  2  1  0
  4  9  2  0
  5  6  2  0
  5  4  1  0
  6  7  1  0
  7  8  2  0
  9  8  1  0
 10  2  1  0
 10 17  1  0
 11 10  2  0
 12 13  1  0
 13 14  1  0
 15 14  1  0
 16 17  1  0
 16 15  1  1
 18 19  2  0
 18 16  1  0
 21 20  1  1
 21 23  1  0
 21 22  1  0
 22 18  1  0
 23 24  1  0
 25 23  2  0
M  END
$$$$
