FMA.pdb
     RDKit          3D

 25 25  0  0  1  0  0  0  0  0999 V2000
    6.0955  -17.6085   25.2813 N   0  0  0  0  0  0  0  0  0  0  0  0
    6.7350  -16.3299   25.0607 C   0  0  1  0  0  0  0  0  0  0  0  0
    7.0769  -15.7345   26.4169 C   0  0  0  0  0  0  0  0  0  0  0  0
    6.8001  -14.2761   26.4418 C   0  0  0  0  0  0  0  0  0  0  0  0
    5.5311  -13.7738   26.2366 C   0  0  0  0  0  0  0  0  0  0  0  0
    5.2842  -12.4163   26.2618 C   0  0  0  0  0  0  0  0  0  0  0  0
    6.3692  -11.5858   26.5025 C   0  0  0  0  0  0  0  0  0  0  0  0
    7.6414  -12.0590   26.7098 C   0  0  0  0  0  0  0  0  0  0  0  0
    7.8456  -13.4150   26.6769 C   0  0  0  0  0  0  0  0  0  0  0  0
    7.9623  -16.5395   24.2877 C   0  0  0  0  0  0  0  0  0  0  0  0
    8.7014  -17.5637   24.4128 O   0  0  0  0  0  0  0  0  0  0  0  0
    6.2935  -12.4101   19.9508 C   0  0  0  0  0  0  0  0  0  0  0  0
    7.9316  -12.7212   20.6483 S   0  0  0  0  0  0  0  0  0  0  0  0
    8.3408  -14.5030   20.6116 C   0  0  0  0  0  0  0  0  0  0  0  0
    9.6033  -14.6818   21.3960 C   0  0  0  0  0  0  0  0  0  0  0  0
    9.4957  -15.7872   22.4243 C   0  0  2  0  0  0  0  0  0  0  0  0
    8.4088  -15.5803   23.3253 N   0  0  0  0  0  0  0  0  0  0  0  0
   10.7916  -15.9748   23.1010 C   0  0  0  0  0  0  0  0  0  0  0  0
   11.1748  -15.2438   24.0468 O   0  0  0  0  0  0  0  0  0  0  0  0
   13.4966  -18.5472   23.2431 C   0  0  0  0  0  0  0  0  0  0  0  0
   12.9831  -17.1358   23.2985 C   0  0  2  0  0  0  0  0  0  0  0  0
   11.6610  -17.0176   22.6854 N   0  0  0  0  0  0  0  0  0  0  0  0
   13.9119  -16.2084   22.5917 C   0  0  0  0  0  0  0  0  0  0  0  0
   13.5978  -15.6271   21.3767 O   0  0  0  0  0  0  0  0  0  0  0  0
   15.0288  -15.9212   23.0871 O   0  0  0  0  0  0  0  0  0  0  0  0
  2  1  1  1
  3  4  1  0
  3  2  1  0
  4  9  2  0
  5  6  2  0
  5  4  1  0
  6  7  1  0
  7  8  2  0
  9  8  1  0
 10  2  1  0
 10 17  1  0
 11 10  2  0
 12 13  1  0
 13 14  1  0
 15 14  1  0
 16 17  1  0
 16 15  1  6
 18 19  2  0
 18 16  1  0
 21 20  1  6
 21 23  1  0
 21 22  1  0
 22 18  1  0
 23 24  1  0
 25 23  2  0
M  END
$$$$
