FMA.pdb
     RDKit          3D

 25 25  0  0  1  0  0  0  0  0999 V2000
    8.4112  -16.3686   26.1202 N   0  0  0  0  0  0  0  0  0  0  0  0
    7.1760  -16.7125   25.4504 C   0  0  1  0  0  0  0  0  0  0  0  0
    6.0831  -15.7985   25.9804 C   0  0  0  0  0  0  0  0  0  0  0  0
    6.6200  -14.4475   26.2813 C   0  0  0  0  0  0  0  0  0  0  0  0
    5.8411  -13.3140   26.1664 C   0  0  0  0  0  0  0  0  0  0  0  0
    6.3496  -12.0625   26.4485 C   0  0  0  0  0  0  0  0  0  0  0  0
    7.6758  -12.0006   26.8512 C   0  0  0  0  0  0  0  0  0  0  0  0
    8.4726  -13.1121   26.9737 C   0  0  0  0  0  0  0  0  0  0  0  0
    7.9298  -14.3380   26.6840 C   0  0  0  0  0  0  0  0  0  0  0  0
    7.3424  -16.5024   24.0096 C   0  0  0  0  0  0  0  0  0  0  0  0
    6.4281  -16.7299   23.1593 O   0  0  0  0  0  0  0  0  0  0  0  0
    6.4937  -11.6977   19.8533 C   0  0  0  0  0  0  0  0  0  0  0  0
    8.0282  -12.5971   20.1736 S   0  0  0  0  0  0  0  0  0  0  0  0
    7.7158  -14.1209   21.1349 C   0  0  0  0  0  0  0  0  0  0  0  0
    9.0490  -14.7241   21.4511 C   0  0  0  0  0  0  0  0  0  0  0  0
    8.9304  -16.0930   22.0860 C   0  0  2  0  0  0  0  0  0  0  0  0
    8.5730  -16.0176   23.4653 N   0  0  0  0  0  0  0  0  0  0  0  0
   10.1572  -16.8717   21.8391 C   0  0  0  0  0  0  0  0  0  0  0  0
   11.1387  -16.8568   22.6215 O   0  0  0  0  0  0  0  0  0  0  0  0
   11.2490  -19.4968   19.3577 C   0  0  0  0  0  0  0  0  0  0  0  0
   11.4324  -18.5332   20.4964 C   0  0  2  0  0  0  0  0  0  0  0  0
   10.2588  -17.6800   20.6761 N   0  0  0  0  0  0  0  0  0  0  0  0
   12.6162  -17.6582   20.2616 C   0  0  0  0  0  0  0  0  0  0  0  0
   13.8951  -18.0219   20.6423 O   0  0  0  0  0  0  0  0  0  0  0  0
   12.4861  -16.5430   19.7004 O   0  0  0  0  0  0  0  0  0  0  0  0
  2  1  1  1
  3  4  1  0
  3  2  1  0
  4  9  2  0
  5  6  2  0
  5  4  1  0
  6  7  1  0
  7  8  2  0
  9  8  1  0
 10  2  1  0
 10 17  1  0
 11 10  2  0
 12 13  1  0
 13 14  1  0
 15 14  1  0
 16 17  1  0
 16 15  1  1
 18 19  2  0
 18 16  1  0
 21 20  1  6
 21 23  1  0
 21 22  1  0
 22 18  1  0
 23 24  1  0
 25 23  2  0
M  END
$$$$
