FMA.pdb
     RDKit          3D

 25 25  0  0  1  0  0  0  0  0999 V2000
    8.2265  -15.6917   25.5819 N   0  0  0  0  0  0  0  0  0  0  0  0
    6.9328  -16.2068   25.1902 C   0  0  1  0  0  0  0  0  0  0  0  0
    5.9044  -15.1081   25.4045 C   0  0  0  0  0  0  0  0  0  0  0  0
    6.5404  -13.8854   25.9562 C   0  0  0  0  0  0  0  0  0  0  0  0
    6.1238  -13.3233   27.1459 C   0  0  0  0  0  0  0  0  0  0  0  0
    6.7216  -12.1864   27.6503 C   0  0  0  0  0  0  0  0  0  0  0  0
    7.7569  -11.6393   26.9062 C   0  0  0  0  0  0  0  0  0  0  0  0
    8.1909  -12.1780   25.7201 C   0  0  0  0  0  0  0  0  0  0  0  0
    7.5707  -13.3085   25.2524 C   0  0  0  0  0  0  0  0  0  0  0  0
    6.9773  -16.5743   23.7722 C   0  0  0  0  0  0  0  0  0  0  0  0
    6.0982  -17.2955   23.2085 O   0  0  0  0  0  0  0  0  0  0  0  0
    7.2619  -12.3233   20.1205 C   0  0  0  0  0  0  0  0  0  0  0  0
    8.5482  -13.1780   19.1816 S   0  0  0  0  0  0  0  0  0  0  0  0
    9.0727  -14.7149   20.0222 C   0  0  0  0  0  0  0  0  0  0  0  0
    7.8472  -15.3283   20.6247 C   0  0  0  0  0  0  0  0  0  0  0  0
    8.1705  -16.4853   21.5455 C   0  0  2  0  0  0  0  0  0  0  0  0
    8.0384  -16.1314   22.9214 N   0  0  0  0  0  0  0  0  0  0  0  0
    9.4913  -17.0454   21.2075 C   0  0  0  0  0  0  0  0  0  0  0  0
    9.7473  -17.5499   20.0870 O   0  0  0  0  0  0  0  0  0  0  0  0
   12.9089  -16.7901   21.6005 C   0  0  0  0  0  0  0  0  0  0  0  0
   11.7803  -17.7386   21.8928 C   0  0  2  0  0  0  0  0  0  0  0  0
   10.5343  -17.0259   22.1708 N   0  0  0  0  0  0  0  0  0  0  0  0
   12.1025  -18.5953   23.0694 C   0  0  0  0  0  0  0  0  0  0  0  0
   11.2930  -18.6530   24.1893 O   0  0  0  0  0  0  0  0  0  0  0  0
   13.1382  -19.3043   23.0800 O   0  0  0  0  0  0  0  0  0  0  0  0
  2  1  1  6
  3  4  1  0
  3  2  1  0
  4  9  2  0
  5  6  2  0
  5  4  1  0
  6  7  1  0
  7  8  2  0
  9  8  1  0
 10  2  1  0
 10 17  1  0
 11 10  2  0
 12 13  1  0
 13 14  1  0
 15 14  1  0
 16 17  1  0
 16 15  1  6
 18 19  2  0
 18 16  1  0
 21 20  1  1
 21 23  1  0
 21 22  1  0
 22 18  1  0
 23 24  1  0
 25 23  2  0
M  END
$$$$
