FMA.pdb
     RDKit          3D

 25 25  0  0  1  0  0  0  0  0999 V2000
    6.8715  -16.9836   21.4603 N   0  0  0  0  0  0  0  0  0  0  0  0
    8.2919  -16.8696   21.2117 C   0  0  1  0  0  0  0  0  0  0  0  0
    8.4839  -16.0489   19.9467 C   0  0  0  0  0  0  0  0  0  0  0  0
    8.0806  -14.6366   20.1634 C   0  0  0  0  0  0  0  0  0  0  0  0
    9.0103  -13.6199   20.2446 C   0  0  0  0  0  0  0  0  0  0  0  0
    8.6252  -12.3101   20.4463 C   0  0  0  0  0  0  0  0  0  0  0  0
    7.2642  -12.0674   20.5627 C   0  0  0  0  0  0  0  0  0  0  0  0
    6.3185  -13.0599   20.4857 C   0  0  0  0  0  0  0  0  0  0  0  0
    6.7419  -14.3490   20.2845 C   0  0  0  0  0  0  0  0  0  0  0  0
    8.9194  -16.1859   22.3460 C   0  0  0  0  0  0  0  0  0  0  0  0
   10.1606  -15.9285   22.4081 O   0  0  0  0  0  0  0  0  0  0  0  0
    6.1339  -11.9689   26.1353 C   0  0  0  0  0  0  0  0  0  0  0  0
    7.2180  -12.6371   27.4178 S   0  0  0  0  0  0  0  0  0  0  0  0
    8.3794  -13.8700   26.7286 C   0  0  0  0  0  0  0  0  0  0  0  0
    7.7952  -14.3527   25.4375 C   0  0  0  0  0  0  0  0  0  0  0  0
    8.7119  -15.3117   24.7087 C   0  0  2  0  0  0  0  0  0  0  0  0
    8.1519  -15.7591   23.4750 N   0  0  0  0  0  0  0  0  0  0  0  0
    9.1085  -16.4113   25.6064 C   0  0  0  0  0  0  0  0  0  0  0  0
    8.2737  -17.1496   26.1842 O   0  0  0  0  0  0  0  0  0  0  0  0
   12.1429  -18.4757   25.8509 C   0  0  0  0  0  0  0  0  0  0  0  0
   10.8822  -17.9317   26.4621 C   0  0  2  0  0  0  0  0  0  0  0  0
   10.4847  -16.6674   25.8447 N   0  0  0  0  0  0  0  0  0  0  0  0
   11.0608  -17.7032   27.9244 C   0  0  0  0  0  0  0  0  0  0  0  0
   10.9142  -16.4560   28.5039 O   0  0  0  0  0  0  0  0  0  0  0  0
   11.3553  -18.6539   28.6891 O   0  0  0  0  0  0  0  0  0  0  0  0
  2  1  1  1
  3  4  1  0
  3  2  1  0
  4  9  2  0
  5  6  2  0
  5  4  1  0
  6  7  1  0
  7  8  2  0
  9  8  1  0
 10  2  1  0
 10 17  1  0
 11 10  2  0
 12 13  1  0
 13 14  1  0
 15 14  1  0
 16 17  1  0
 16 15  1  1
 18 19  2  0
 18 16  1  0
 21 20  1  6
 21 23  1  0
 21 22  1  0
 22 18  1  0
 23 24  1  0
 25 23  2  0
M  END
$$$$
