FMA.pdb
     RDKit          3D

 25 25  0  0  1  0  0  0  0  0999 V2000
    9.3045  -16.4630   19.3558 N   0  0  0  0  0  0  0  0  0  0  0  0
   10.3556  -15.7229   20.0188 C   0  0  1  0  0  0  0  0  0  0  0  0
    9.7223  -14.8946   21.1249 C   0  0  0  0  0  0  0  0  0  0  0  0
    8.7199  -13.9489   20.5728 C   0  0  0  0  0  0  0  0  0  0  0  0
    9.0948  -12.7951   19.9148 C   0  0  0  0  0  0  0  0  0  0  0  0
    8.1551  -11.9223   19.4051 C   0  0  0  0  0  0  0  0  0  0  0  0
    6.8218  -12.2605   19.5861 C   0  0  0  0  0  0  0  0  0  0  0  0
    6.4215  -13.4015   20.2366 C   0  0  0  0  0  0  0  0  0  0  0  0
    7.3862  -14.2433   20.7287 C   0  0  0  0  0  0  0  0  0  0  0  0
   11.3130  -16.6708   20.5956 C   0  0  0  0  0  0  0  0  0  0  0  0
   11.3204  -17.9104   20.3235 O   0  0  0  0  0  0  0  0  0  0  0  0
   17.0120  -13.7976   17.4378 C   0  0  0  0  0  0  0  0  0  0  0  0
   15.3476  -13.9009   18.1346 S   0  0  0  0  0  0  0  0  0  0  0  0
   15.3084  -14.9949   19.5993 C   0  0  0  0  0  0  0  0  0  0  0  0
   13.8789  -15.1034   20.0306 C   0  0  0  0  0  0  0  0  0  0  0  0
   13.6934  -16.0607   21.1883 C   0  0  2  0  0  0  0  0  0  0  0  0
   12.3178  -16.2443   21.5199 N   0  0  0  0  0  0  0  0  0  0  0  0
   14.5213  -15.6366   22.3315 C   0  0  0  0  0  0  0  0  0  0  0  0
   15.7363  -15.3425   22.2167 O   0  0  0  0  0  0  0  0  0  0  0  0
   13.2052  -17.8452   24.0709 C   0  0  0  0  0  0  0  0  0  0  0  0
   14.0470  -16.6898   24.5350 C   0  0  2  0  0  0  0  0  0  0  0  0
   13.9456  -15.5487   23.6265 N   0  0  0  0  0  0  0  0  0  0  0  0
   15.4807  -17.0866   24.6307 C   0  0  0  0  0  0  0  0  0  0  0  0
   16.4284  -16.6714   23.7130 O   0  0  0  0  0  0  0  0  0  0  0  0
   15.8795  -17.8237   25.5652 O   0  0  0  0  0  0  0  0  0  0  0  0
  2  1  1  1
  3  4  1  0
  3  2  1  0
  4  9  2  0
  5  6  2  0
  5  4  1  0
  6  7  1  0
  7  8  2  0
  9  8  1  0
 10  2  1  0
 10 17  1  0
 11 10  2  0
 12 13  1  0
 13 14  1  0
 15 14  1  0
 16 17  1  0
 16 15  1  6
 18 19  2  0
 18 16  1  0
 21 20  1  6
 21 23  1  0
 21 22  1  0
 22 18  1  0
 23 24  1  0
 25 23  2  0
M  END
$$$$
