FMA.pdb
     RDKit          3D

 25 25  0  0  1  0  0  0  0  0999 V2000
    5.8276  -18.2638   25.7273 N   0  0  0  0  0  0  0  0  0  0  0  0
    6.2931  -16.9243   25.4417 C   0  0  1  0  0  0  0  0  0  0  0  0
    7.0662  -16.4268   26.6523 C   0  0  0  0  0  0  0  0  0  0  0  0
    7.3343  -14.9702   26.5495 C   0  0  0  0  0  0  0  0  0  0  0  0
    8.6096  -14.4777   26.3605 C   0  0  0  0  0  0  0  0  0  0  0  0
    8.8483  -13.1217   26.2661 C   0  0  0  0  0  0  0  0  0  0  0  0
    7.7484  -12.2825   26.3702 C   0  0  0  0  0  0  0  0  0  0  0  0
    6.4696  -12.7459   26.5583 C   0  0  0  0  0  0  0  0  0  0  0  0
    6.2740  -14.1006   26.6470 C   0  0  0  0  0  0  0  0  0  0  0  0
    7.1764  -16.9674   24.2731 C   0  0  0  0  0  0  0  0  0  0  0  0
    8.0676  -17.8547   24.1021 O   0  0  0  0  0  0  0  0  0  0  0  0
    7.4891  -12.4628   18.8577 C   0  0  0  0  0  0  0  0  0  0  0  0
    8.5048  -12.5515   20.3500 S   0  0  0  0  0  0  0  0  0  0  0  0
    7.6899  -13.5478   21.6489 C   0  0  0  0  0  0  0  0  0  0  0  0
    7.4523  -14.9102   21.0757 C   0  0  0  0  0  0  0  0  0  0  0  0
    7.8478  -16.0176   22.0289 C   0  0  2  0  0  0  0  0  0  0  0  0
    7.0834  -15.9897   23.2333 N   0  0  0  0  0  0  0  0  0  0  0  0
    9.3037  -15.9911   22.2568 C   0  0  0  0  0  0  0  0  0  0  0  0
   10.1379  -16.0583   21.3212 O   0  0  0  0  0  0  0  0  0  0  0  0
   11.5621  -14.9552   25.0227 C   0  0  0  0  0  0  0  0  0  0  0  0
   11.2510  -15.7517   23.7867 C   0  0  2  0  0  0  0  0  0  0  0  0
    9.8099  -15.8858   23.5793 N   0  0  0  0  0  0  0  0  0  0  0  0
   11.8404  -17.1179   23.8773 C   0  0  0  0  0  0  0  0  0  0  0  0
   11.0715  -18.2646   23.7969 O   0  0  0  0  0  0  0  0  0  0  0  0
   13.0764  -17.2724   24.0324 O   0  0  0  0  0  0  0  0  0  0  0  0
  2  1  1  1
  3  4  1  0
  3  2  1  0
  4  9  2  0
  5  6  2  0
  5  4  1  0
  6  7  1  0
  7  8  2  0
  9  8  1  0
 10  2  1  0
 10 17  1  0
 11 10  2  0
 12 13  1  0
 13 14  1  0
 15 14  1  0
 16 17  1  0
 16 15  1  6
 18 19  2  0
 18 16  1  0
 21 20  1  1
 21 23  1  0
 21 22  1  0
 22 18  1  0
 23 24  1  0
 25 23  2  0
M  END
$$$$
