FMA.pdb
     RDKit          3D

 25 25  0  0  1  0  0  0  0  0999 V2000
   10.8051  -17.6426   20.7493 N   0  0  0  0  0  0  0  0  0  0  0  0
   10.1351  -16.4582   21.2398 C   0  0  1  0  0  0  0  0  0  0  0  0
    8.7803  -16.3670   20.5564 C   0  0  0  0  0  0  0  0  0  0  0  0
    8.2035  -15.0065   20.6998 C   0  0  0  0  0  0  0  0  0  0  0  0
    8.6738  -13.9369   19.9652 C   0  0  0  0  0  0  0  0  0  0  0  0
    8.1308  -12.6760   20.1058 C   0  0  0  0  0  0  0  0  0  0  0  0
    7.0942  -12.5376   21.0174 C   0  0  0  0  0  0  0  0  0  0  0  0
    6.6074  -13.5845   21.7606 C   0  0  0  0  0  0  0  0  0  0  0  0
    7.1740  -14.8223   21.5918 C   0  0  0  0  0  0  0  0  0  0  0  0
    9.9521  -16.5814   22.6886 C   0  0  0  0  0  0  0  0  0  0  0  0
   10.1903  -17.6469   23.3356 O   0  0  0  0  0  0  0  0  0  0  0  0
   10.4447  -13.2617   29.1480 C   0  0  0  0  0  0  0  0  0  0  0  0
   10.3484  -13.7461   27.4095 S   0  0  0  0  0  0  0  0  0  0  0  0
    8.6815  -14.3665   26.9850 C   0  0  0  0  0  0  0  0  0  0  0  0
    8.6007  -14.4274   25.4914 C   0  0  0  0  0  0  0  0  0  0  0  0
    9.5922  -15.4040   24.8963 C   0  0  2  0  0  0  0  0  0  0  0  0
    9.4837  -15.4829   23.4757 N   0  0  0  0  0  0  0  0  0  0  0  0
    9.4777  -16.7113   25.5673 C   0  0  0  0  0  0  0  0  0  0  0  0
    8.3743  -17.2733   25.7735 O   0  0  0  0  0  0  0  0  0  0  0  0
   11.6011  -19.6296   26.2685 C   0  0  0  0  0  0  0  0  0  0  0  0
   10.5211  -18.6722   26.6879 C   0  0  2  0  0  0  0  0  0  0  0  0
   10.6479  -17.3839   26.0084 N   0  0  0  0  0  0  0  0  0  0  0  0
   10.5701  -18.4330   28.1585 C   0  0  0  0  0  0  0  0  0  0  0  0
   10.4304  -19.4536   29.0814 O   0  0  0  0  0  0  0  0  0  0  0  0
   10.7430  -17.2758   28.6130 O   0  0  0  0  0  0  0  0  0  0  0  0
  2  1  1  6
  3  4  1  0
  3  2  1  0
  4  9  2  0
  5  6  2  0
  5  4  1  0
  6  7  1  0
  7  8  2  0
  9  8  1  0
 10  2  1  0
 10 17  1  0
 11 10  2  0
 12 13  1  0
 13 14  1  0
 15 14  1  0
 16 17  1  0
 16 15  1  1
 18 19  2  0
 18 16  1  0
 21 20  1  6
 21 23  1  0
 21 22  1  0
 22 18  1  0
 23 24  1  0
 25 23  2  0
M  END
$$$$
