FMA.pdb
     RDKit          3D

 25 25  0  0  1  0  0  0  0  0999 V2000
    5.7428  -18.1841   25.3691 N   0  0  0  0  0  0  0  0  0  0  0  0
    6.2236  -16.8371   25.1526 C   0  0  1  0  0  0  0  0  0  0  0  0
    6.9247  -16.3782   26.4210 C   0  0  0  0  0  0  0  0  0  0  0  0
    7.2123  -14.9225   26.3720 C   0  0  0  0  0  0  0  0  0  0  0  0
    6.2053  -13.9868   26.2490 C   0  0  0  0  0  0  0  0  0  0  0  0
    6.4831  -12.6357   26.2043 C   0  0  0  0  0  0  0  0  0  0  0  0
    7.8179  -12.2667   26.2888 C   0  0  0  0  0  0  0  0  0  0  0  0
    8.8388  -13.1767   26.4116 C   0  0  0  0  0  0  0  0  0  0  0  0
    8.5213  -14.5105   26.4523 C   0  0  0  0  0  0  0  0  0  0  0  0
    7.1735  -16.8454   24.0366 C   0  0  0  0  0  0  0  0  0  0  0  0
    7.9657  -17.8081   23.7994 O   0  0  0  0  0  0  0  0  0  0  0  0
    6.9514  -12.0413   19.7829 C   0  0  0  0  0  0  0  0  0  0  0  0
    8.1823  -13.0248   18.8974 S   0  0  0  0  0  0  0  0  0  0  0  0
    8.6577  -14.5095   19.8532 C   0  0  0  0  0  0  0  0  0  0  0  0
    7.8622  -14.4911   21.1213 C   0  0  0  0  0  0  0  0  0  0  0  0
    8.1075  -15.7147   21.9778 C   0  0  2  0  0  0  0  0  0  0  0  0
    7.2651  -15.7437   23.1290 N   0  0  0  0  0  0  0  0  0  0  0  0
    9.5420  -15.8279   22.2970 C   0  0  0  0  0  0  0  0  0  0  0  0
   10.4291  -15.9088   21.4126 O   0  0  0  0  0  0  0  0  0  0  0  0
   11.6979  -15.0744   25.2069 C   0  0  0  0  0  0  0  0  0  0  0  0
   11.3944  -15.8528   23.9576 C   0  0  2  0  0  0  0  0  0  0  0  0
    9.9645  -15.8483   23.6524 N   0  0  0  0  0  0  0  0  0  0  0  0
   11.8392  -17.2688   24.0972 C   0  0  0  0  0  0  0  0  0  0  0  0
   13.1388  -17.6094   24.4253 O   0  0  0  0  0  0  0  0  0  0  0  0
   11.0323  -18.2134   23.9178 O   0  0  0  0  0  0  0  0  0  0  0  0
  2  1  1  1
  3  4  1  0
  3  2  1  0
  4  9  2  0
  5  6  2  0
  5  4  1  0
  6  7  1  0
  7  8  2  0
  9  8  1  0
 10  2  1  0
 10 17  1  0
 11 10  2  0
 12 13  1  0
 13 14  1  0
 15 14  1  0
 16 17  1  0
 16 15  1  1
 18 19  2  0
 18 16  1  0
 21 20  1  1
 21 23  1  0
 21 22  1  0
 22 18  1  0
 23 24  1  0
 25 23  2  0
M  END
$$$$
