FMA.pdb
     RDKit          3D

 25 25  0  0  1  0  0  0  0  0999 V2000
    5.8674  -18.1739   25.6036 N   0  0  0  0  0  0  0  0  0  0  0  0
    6.2681  -16.7935   25.4416 C   0  0  1  0  0  0  0  0  0  0  0  0
    6.8154  -16.3031   26.7724 C   0  0  0  0  0  0  0  0  0  0  0  0
    7.0102  -14.8314   26.7568 C   0  0  0  0  0  0  0  0  0  0  0  0
    8.2687  -14.2651   26.7506 C   0  0  0  0  0  0  0  0  0  0  0  0
    8.4391  -12.8957   26.7361 C   0  0  0  0  0  0  0  0  0  0  0  0
    7.2885  -12.1206   26.7282 C   0  0  0  0  0  0  0  0  0  0  0  0
    6.0249  -12.6580   26.7341 C   0  0  0  0  0  0  0  0  0  0  0  0
    5.8979  -14.0237   26.7485 C   0  0  0  0  0  0  0  0  0  0  0  0
    7.3142  -16.7194   24.4179 C   0  0  0  0  0  0  0  0  0  0  0  0
    8.2966  -17.5210   24.3624 O   0  0  0  0  0  0  0  0  0  0  0  0
    7.0113  -12.0437   19.9836 C   0  0  0  0  0  0  0  0  0  0  0  0
    8.4978  -12.8465   19.3413 S   0  0  0  0  0  0  0  0  0  0  0  0
    8.8598  -14.3936   20.2463 C   0  0  0  0  0  0  0  0  0  0  0  0
    8.0069  -14.3949   21.4766 C   0  0  0  0  0  0  0  0  0  0  0  0
    8.2488  -15.6081   22.3488 C   0  0  2  0  0  0  0  0  0  0  0  0
    7.2884  -15.7165   23.3985 N   0  0  0  0  0  0  0  0  0  0  0  0
    9.6433  -15.6166   22.8258 C   0  0  0  0  0  0  0  0  0  0  0  0
   10.0772  -14.7923   23.6673 O   0  0  0  0  0  0  0  0  0  0  0  0
   12.3887  -17.9958   23.1456 C   0  0  0  0  0  0  0  0  0  0  0  0
   11.9283  -16.6008   22.8279 C   0  0  2  0  0  0  0  0  0  0  0  0
   10.5539  -16.5863   22.3292 N   0  0  0  0  0  0  0  0  0  0  0  0
   12.8069  -15.9770   21.7978 C   0  0  0  0  0  0  0  0  0  0  0  0
   12.3494  -15.6423   20.5363 O   0  0  0  0  0  0  0  0  0  0  0  0
   14.0121  -15.7317   22.0486 O   0  0  0  0  0  0  0  0  0  0  0  0
  2  1  1  1
  3  4  1  0
  3  2  1  0
  4  9  2  0
  5  6  2  0
  5  4  1  0
  6  7  1  0
  7  8  2  0
  9  8  1  0
 10  2  1  0
 10 17  1  0
 11 10  2  0
 12 13  1  0
 13 14  1  0
 15 14  1  0
 16 17  1  0
 16 15  1  1
 18 19  2  0
 18 16  1  0
 21 20  1  6
 21 23  1  0
 21 22  1  0
 22 18  1  0
 23 24  1  0
 25 23  2  0
M  END
$$$$
