FMA.pdb
     RDKit          3D

 25 25  0  0  1  0  0  0  0  0999 V2000
    6.1543  -17.9168   25.9054 N   0  0  0  0  0  0  0  0  0  0  0  0
    6.5902  -16.7107   25.2364 C   0  0  1  0  0  0  0  0  0  0  0  0
    7.5744  -15.9962   26.1483 C   0  0  0  0  0  0  0  0  0  0  0  0
    7.2525  -14.5504   26.2484 C   0  0  0  0  0  0  0  0  0  0  0  0
    5.9570  -14.0857   26.1458 C   0  0  0  0  0  0  0  0  0  0  0  0
    5.6682  -12.7396   26.2403 C   0  0  0  0  0  0  0  0  0  0  0  0
    6.7391  -11.8810   26.4425 C   0  0  0  0  0  0  0  0  0  0  0  0
    8.0369  -12.3166   26.5481 C   0  0  0  0  0  0  0  0  0  0  0  0
    8.2826  -13.6624   26.4488 C   0  0  0  0  0  0  0  0  0  0  0  0
    7.2530  -17.0765   23.9816 C   0  0  0  0  0  0  0  0  0  0  0  0
    7.7831  -18.2111   23.7753 O   0  0  0  0  0  0  0  0  0  0  0  0
    8.1315  -11.8182   21.5055 C   0  0  0  0  0  0  0  0  0  0  0  0
    7.8205  -12.8515   20.0557 S   0  0  0  0  0  0  0  0  0  0  0  0
    8.6163  -14.4891   20.2252 C   0  0  0  0  0  0  0  0  0  0  0  0
    7.5367  -15.4720   20.5562 C   0  0  0  0  0  0  0  0  0  0  0  0
    7.9526  -16.4489   21.6350 C   0  0  2  0  0  0  0  0  0  0  0  0
    7.3431  -16.1552   22.8913 N   0  0  0  0  0  0  0  0  0  0  0  0
    9.4226  -16.5321   21.7010 C   0  0  0  0  0  0  0  0  0  0  0  0
   10.1263  -16.8863   20.7236 O   0  0  0  0  0  0  0  0  0  0  0  0
   12.2284  -15.1652   23.5332 C   0  0  0  0  0  0  0  0  0  0  0  0
   11.5430  -16.3896   22.9946 C   0  0  2  0  0  0  0  0  0  0  0  0
   10.0954  -16.2037   22.9075 N   0  0  0  0  0  0  0  0  0  0  0  0
   11.8122  -17.5703   23.8639 C   0  0  0  0  0  0  0  0  0  0  0  0
   10.7988  -18.3089   24.4471 O   0  0  0  0  0  0  0  0  0  0  0  0
   12.9896  -17.9373   24.0978 O   0  0  0  0  0  0  0  0  0  0  0  0
  2  1  1  1
  3  4  1  0
  3  2  1  0
  4  9  2  0
  5  6  2  0
  5  4  1  0
  6  7  1  0
  7  8  2  0
  9  8  1  0
 10  2  1  0
 10 17  1  0
 11 10  2  0
 12 13  1  0
 13 14  1  0
 15 14  1  0
 16 17  1  0
 16 15  1  6
 18 19  2  0
 18 16  1  0
 21 20  1  1
 21 23  1  0
 21 22  1  0
 22 18  1  0
 23 24  1  0
 25 23  2  0
M  END
$$$$
