FMA.pdb
     RDKit          3D

 25 25  0  0  1  0  0  0  0  0999 V2000
    8.8574  -19.9503   28.0111 N   0  0  0  0  0  0  0  0  0  0  0  0
    8.9682  -18.5081   28.0187 C   0  0  1  0  0  0  0  0  0  0  0  0
   10.3673  -18.1461   28.4902 C   0  0  0  0  0  0  0  0  0  0  0  0
   10.4928  -16.6827   28.7068 C   0  0  0  0  0  0  0  0  0  0  0  0
   10.8158  -15.8211   27.6781 C   0  0  0  0  0  0  0  0  0  0  0  0
   10.9301  -14.4622   27.8898 C   0  0  0  0  0  0  0  0  0  0  0  0
   10.7054  -14.0075   29.1811 C   0  0  0  0  0  0  0  0  0  0  0  0
   10.3830  -14.8426   30.2223 C   0  0  0  0  0  0  0  0  0  0  0  0
   10.2789  -16.1870   29.9710 C   0  0  0  0  0  0  0  0  0  0  0  0
    8.7592  -18.0083   26.6570 C   0  0  0  0  0  0  0  0  0  0  0  0
    9.1299  -18.6348   25.6174 O   0  0  0  0  0  0  0  0  0  0  0  0
    5.8512  -12.3407   25.8580 C   0  0  0  0  0  0  0  0  0  0  0  0
    6.1870  -12.6240   24.1049 S   0  0  0  0  0  0  0  0  0  0  0  0
    7.0514  -14.2140   23.8435 C   0  0  0  0  0  0  0  0  0  0  0  0
    7.3338  -14.7901   25.1961 C   0  0  0  0  0  0  0  0  0  0  0  0
    7.9205  -16.1835   25.1221 C   0  0  2  0  0  0  0  0  0  0  0  0
    8.1106  -16.7568   26.4148 N   0  0  0  0  0  0  0  0  0  0  0  0
    9.1429  -16.1732   24.2988 C   0  0  0  0  0  0  0  0  0  0  0  0
   10.2147  -15.6445   24.6829 O   0  0  0  0  0  0  0  0  0  0  0  0
   10.2721  -17.9006   21.1522 C   0  0  0  0  0  0  0  0  0  0  0  0
   10.3896  -16.9089   22.2754 C   0  0  2  0  0  0  0  0  0  0  0  0
    9.1349  -16.7793   23.0148 N   0  0  0  0  0  0  0  0  0  0  0  0
   10.7673  -15.5642   21.7544 C   0  0  0  0  0  0  0  0  0  0  0  0
   12.0281  -15.2882   21.2575 O   0  0  0  0  0  0  0  0  0  0  0  0
    9.9367  -14.6231   21.7507 O   0  0  0  0  0  0  0  0  0  0  0  0
  2  1  1  6
  3  4  1  0
  3  2  1  0
  4  9  2  0
  5  6  2  0
  5  4  1  0
  6  7  1  0
  7  8  2  0
  9  8  1  0
 10  2  1  0
 10 17  1  0
 11 10  2  0
 12 13  1  0
 13 14  1  0
 15 14  1  0
 16 17  1  0
 16 15  1  1
 18 19  2  0
 18 16  1  0
 21 20  1  6
 21 23  1  0
 21 22  1  0
 22 18  1  0
 23 24  1  0
 25 23  2  0
M  END
$$$$
