KHC.pdb
     RDKit          3D

 26 26  0  0  1  0  0  0  0  0999 V2000
   20.0684  -15.8927  -17.2084 N   0  0  0  0  0  0  0  0  0  0  0  0
   19.0470  -14.8904  -17.1815 C   0  0  1  0  0  0  0  0  0  0  0  0
   18.2368  -14.9725  -15.9150 C   0  0  0  0  0  0  0  0  0  0  0  0
   17.2983  -16.0991  -15.7912 C   0  0  0  0  0  0  0  0  0  0  0  0
   17.6664  -17.2474  -14.9309 C   0  0  0  0  0  0  0  0  0  0  0  0
   16.6221  -18.2941  -14.7505 C   0  0  0  0  0  0  0  0  0  0  0  0
   17.0382  -19.3592  -13.8928 N   0  0  0  0  0  0  0  0  0  0  0  0
   19.6035  -13.5166  -17.2686 C   0  0  0  0  0  0  0  0  0  0  0  0
   20.7324  -13.3409  -16.7342 O   0  0  0  0  0  0  0  0  0  0  0  0
   19.0091  -12.3938  -17.8802 N   0  0  0  0  0  0  0  0  0  0  0  0
   19.6015  -11.1019  -17.9874 C   0  0  1  0  0  0  0  0  0  0  0  0
   18.9594  -10.1804  -18.9716 C   0  0  0  0  0  0  0  0  0  0  0  0
   19.7087   -8.9119  -19.1457 C   0  0  0  0  0  0  0  0  0  0  0  0
   20.8745   -8.4531  -18.5791 C   0  0  0  0  0  0  0  0  0  0  0  0
   21.1821   -7.2244  -19.0414 N   0  0  0  0  0  0  0  0  0  0  0  0
   20.2057   -6.9058  -19.9042 C   0  0  0  0  0  0  0  0  0  0  0  0
   19.3125   -7.9057  -19.9803 N   0  0  0  0  0  0  0  0  0  0  0  0
   19.5780  -10.4188  -16.6760 C   0  0  0  0  0  0  0  0  0  0  0  0
   18.5550  -10.5388  -15.9612 O   0  0  0  0  0  0  0  0  0  0  0  0
   20.6640   -9.6285  -16.1775 N   0  0  0  0  0  0  0  0  0  0  0  0
   20.6003   -8.9729  -14.8857 C   0  0  1  0  0  0  0  0  0  0  0  0
   21.3184   -9.8517  -13.8379 C   0  0  0  0  0  0  0  0  0  0  0  0
   23.1080   -9.7981  -14.0685 S   0  0  0  0  0  0  0  0  0  0  0  0
   21.1749   -7.6308  -14.8558 C   0  0  0  0  0  0  0  0  0  0  0  0
   21.8623   -7.2401  -15.8230 O   0  0  0  0  0  0  0  0  0  0  0  0
   20.9840   -6.7722  -13.7905 O   0  0  0  0  0  0  0  0  0  0  0  0
  2  1  1  1
  2  3  1  0
  3  4  1  0
  5  4  1  0
  6  5  1  0
  7  6  1  0
  8  2  1  0
  8  9  2  0
 10  8  1  0
 11 10  1  0
 11 12  1  6
 13 14  2  0
 13 12  1  0
 15 14  1  0
 16 17  2  0
 16 15  1  0
 17 13  1  0
 18 11  1  0
 19 18  2  0
 20 18  1  0
 21 22  1  1
 21 20  1  0
 22 23  1  0
 24 21  1  0
 25 24  2  0
 26 24  1  0
M  END
$$$$
