KHC.pdb
     RDKit          3D

 26 26  0  0  1  0  0  0  0  0999 V2000
   25.9100  -21.2419   -9.8816 N   0  0  0  0  0  0  0  0  0  0  0  0
   25.0725  -20.9965  -11.0160 C   0  0  1  0  0  0  0  0  0  0  0  0
   23.8463  -20.2133  -10.6283 C   0  0  0  0  0  0  0  0  0  0  0  0
   22.5810  -20.5806  -11.2835 C   0  0  0  0  0  0  0  0  0  0  0  0
   22.5627  -21.7363  -12.2099 C   0  0  0  0  0  0  0  0  0  0  0  0
   21.2808  -21.9824  -12.9276 C   0  0  0  0  0  0  0  0  0  0  0  0
   20.1740  -22.1824  -12.0455 N   0  0  0  0  0  0  0  0  0  0  0  0
   25.7735  -20.2333  -12.0792 C   0  0  0  0  0  0  0  0  0  0  0  0
   26.3700  -19.1858  -11.7081 O   0  0  0  0  0  0  0  0  0  0  0  0
   25.8435  -20.5513  -13.4511 N   0  0  0  0  0  0  0  0  0  0  0  0
   26.5592  -19.8091  -14.4351 C   0  0  1  0  0  0  0  0  0  0  0  0
   27.1190  -20.6113  -15.5635 C   0  0  0  0  0  0  0  0  0  0  0  0
   27.7752  -19.7722  -16.5960 C   0  0  0  0  0  0  0  0  0  0  0  0
   27.8712  -18.4082  -16.7405 C   0  0  0  0  0  0  0  0  0  0  0  0
   28.5722  -18.0907  -17.8477 N   0  0  0  0  0  0  0  0  0  0  0  0
   28.9206  -19.2600  -18.4050 C   0  0  0  0  0  0  0  0  0  0  0  0
   28.4515  -20.2803  -17.6685 N   0  0  0  0  0  0  0  0  0  0  0  0
   25.6854  -18.7754  -15.0309 C   0  0  0  0  0  0  0  0  0  0  0  0
   24.5355  -19.1103  -15.4015 O   0  0  0  0  0  0  0  0  0  0  0  0
   26.0827  -17.4101  -15.2052 N   0  0  0  0  0  0  0  0  0  0  0  0
   25.1848  -16.4202  -15.7676 C   0  0  1  0  0  0  0  0  0  0  0  0
   25.4425  -15.0590  -15.0844 C   0  0  0  0  0  0  0  0  0  0  0  0
   27.1953  -14.6313  -15.1394 S   0  0  0  0  0  0  0  0  0  0  0  0
   25.2916  -16.2544  -17.2145 C   0  0  0  0  0  0  0  0  0  0  0  0
   26.2480  -16.7833  -17.8199 O   0  0  0  0  0  0  0  0  0  0  0  0
   24.3674  -15.5301  -17.9424 O   0  0  0  0  0  0  0  0  0  0  0  0
  2  1  1  1
  2  3  1  0
  3  4  1  0
  5  4  1  0
  6  5  1  0
  7  6  1  0
  8  2  1  0
  8  9  2  0
 10  8  1  0
 11 10  1  0
 11 12  1  6
 13 14  2  0
 13 12  1  0
 15 14  1  0
 16 17  2  0
 16 15  1  0
 17 13  1  0
 18 11  1  0
 19 18  2  0
 20 18  1  0
 21 22  1  1
 21 20  1  0
 22 23  1  0
 24 21  1  0
 25 24  2  0
 26 24  1  0
M  END
$$$$
