KHC.pdb
     RDKit          3D

 26 26  0  0  1  0  0  0  0  0999 V2000
   22.2886  -15.3231  -17.0219 N   0  0  0  0  0  0  0  0  0  0  0  0
   21.6635  -14.1204  -17.4814 C   0  0  1  0  0  0  0  0  0  0  0  0
   20.1630  -14.2454  -17.4634 C   0  0  0  0  0  0  0  0  0  0  0  0
   19.5901  -15.3287  -16.6489 C   0  0  0  0  0  0  0  0  0  0  0  0
   18.1272  -15.5583  -16.6882 C   0  0  0  0  0  0  0  0  0  0  0  0
   17.5979  -16.5837  -15.7464 C   0  0  0  0  0  0  0  0  0  0  0  0
   16.8004  -16.0251  -14.7000 N   0  0  0  0  0  0  0  0  0  0  0  0
   22.0247  -12.9446  -16.6498 C   0  0  0  0  0  0  0  0  0  0  0  0
   21.9411  -13.1021  -15.4011 O   0  0  0  0  0  0  0  0  0  0  0  0
   22.4481  -11.6784  -17.1028 N   0  0  0  0  0  0  0  0  0  0  0  0
   22.8586  -10.5979  -16.2688 C   0  0  1  0  0  0  0  0  0  0  0  0
   24.2494  -10.1036  -16.4957 C   0  0  0  0  0  0  0  0  0  0  0  0
   25.2831  -11.0779  -16.0682 C   0  0  0  0  0  0  0  0  0  0  0  0
   25.1870  -12.2947  -15.4350 C   0  0  0  0  0  0  0  0  0  0  0  0
   26.4078  -12.8344  -15.2439 N   0  0  0  0  0  0  0  0  0  0  0  0
   27.2790  -11.9542  -15.7590 C   0  0  0  0  0  0  0  0  0  0  0  0
   26.6233  -10.8939  -16.2582 N   0  0  0  0  0  0  0  0  0  0  0  0
   21.9539   -9.4420  -16.4481 C   0  0  0  0  0  0  0  0  0  0  0  0
   21.1674   -9.4482  -17.4245 O   0  0  0  0  0  0  0  0  0  0  0  0
   21.9268   -8.3154  -15.5635 N   0  0  0  0  0  0  0  0  0  0  0  0
   20.9402   -7.2617  -15.7002 C   0  0  1  0  0  0  0  0  0  0  0  0
   19.5349   -7.8501  -15.4451 C   0  0  0  0  0  0  0  0  0  0  0  0
   18.2941   -6.5419  -15.3578 S   0  0  0  0  0  0  0  0  0  0  0  0
   21.1452   -6.1181  -14.8157 C   0  0  0  0  0  0  0  0  0  0  0  0
   21.4310   -6.3184  -13.6162 O   0  0  0  0  0  0  0  0  0  0  0  0
   21.0346   -4.8147  -15.2604 O   0  0  0  0  0  0  0  0  0  0  0  0
  2  1  1  1
  2  3  1  0
  3  4  1  0
  5  4  1  0
  6  5  1  0
  7  6  1  0
  8  2  1  0
  8  9  2  0
 10  8  1  0
 11 10  1  0
 11 12  1  6
 13 14  2  0
 13 12  1  0
 15 14  1  0
 16 17  2  0
 16 15  1  0
 17 13  1  0
 18 11  1  0
 19 18  2  0
 20 18  1  0
 21 22  1  1
 21 20  1  0
 22 23  1  0
 24 21  1  0
 25 24  2  0
 26 24  1  0
M  END
$$$$
