KHC.pdb
     RDKit          3D

 26 26  0  0  1  0  0  0  0  0999 V2000
   22.5599  -13.1806  -17.4277 N   0  0  0  0  0  0  0  0  0  0  0  0
   21.9376  -11.9137  -17.6651 C   0  0  1  0  0  0  0  0  0  0  0  0
   20.4480  -11.9917  -17.4593 C   0  0  0  0  0  0  0  0  0  0  0  0
   19.7131  -12.9908  -18.2511 C   0  0  0  0  0  0  0  0  0  0  0  0
   18.2593  -13.1589  -18.0217 C   0  0  0  0  0  0  0  0  0  0  0  0
   17.5831  -14.2076  -18.8352 C   0  0  0  0  0  0  0  0  0  0  0  0
   16.2233  -14.4243  -18.4519 N   0  0  0  0  0  0  0  0  0  0  0  0
   22.4587  -10.8530  -16.7663 C   0  0  0  0  0  0  0  0  0  0  0  0
   22.1875  -10.9818  -15.5413 O   0  0  0  0  0  0  0  0  0  0  0  0
   23.2191   -9.7236  -17.1327 N   0  0  0  0  0  0  0  0  0  0  0  0
   23.7497   -8.7571  -16.2295 C   0  0  1  0  0  0  0  0  0  0  0  0
   25.2065   -8.4665  -16.3825 C   0  0  0  0  0  0  0  0  0  0  0  0
   26.0625   -9.6376  -16.0723 C   0  0  0  0  0  0  0  0  0  0  0  0
   25.7567  -10.9006  -15.6230 C   0  0  0  0  0  0  0  0  0  0  0  0
   26.8733  -11.6428  -15.4794 N   0  0  0  0  0  0  0  0  0  0  0  0
   27.8891  -10.8445  -15.8399 C   0  0  0  0  0  0  0  0  0  0  0  0
   27.4227   -9.6374  -16.1988 N   0  0  0  0  0  0  0  0  0  0  0  0
   23.0340   -7.4717  -16.3785 C   0  0  0  0  0  0  0  0  0  0  0  0
   22.8159   -7.0432  -17.5363 O   0  0  0  0  0  0  0  0  0  0  0  0
   22.5743   -6.6904  -15.2691 N   0  0  0  0  0  0  0  0  0  0  0  0
   21.8302   -5.4604  -15.4586 C   0  0  1  0  0  0  0  0  0  0  0  0
   20.3372   -5.7232  -15.1621 C   0  0  0  0  0  0  0  0  0  0  0  0
   19.3981   -4.1816  -15.1646 S   0  0  0  0  0  0  0  0  0  0  0  0
   22.2880   -4.3405  -14.6410 C   0  0  0  0  0  0  0  0  0  0  0  0
   22.6139   -4.5462  -13.4526 O   0  0  0  0  0  0  0  0  0  0  0  0
   22.3750   -3.0542  -15.1374 O   0  0  0  0  0  0  0  0  0  0  0  0
  2  1  1  1
  2  3  1  0
  3  4  1  0
  5  4  1  0
  6  5  1  0
  7  6  1  0
  8  2  1  0
  8  9  2  0
 10  8  1  0
 11 10  1  0
 11 12  1  6
 13 14  2  0
 13 12  1  0
 15 14  1  0
 16 17  2  0
 16 15  1  0
 17 13  1  0
 18 11  1  0
 19 18  2  0
 20 18  1  0
 21 22  1  1
 21 20  1  0
 22 23  1  0
 24 21  1  0
 25 24  2  0
 26 24  1  0
M  END
$$$$
