KHC.pdb
     RDKit          3D

 26 26  0  0  1  0  0  0  0  0999 V2000
   14.5678  -13.3278  -16.7461 N   0  0  0  0  0  0  0  0  0  0  0  0
   15.2577  -12.3644  -17.5488 C   0  0  1  0  0  0  0  0  0  0  0  0
   14.2911  -11.5125  -18.3280 C   0  0  0  0  0  0  0  0  0  0  0  0
   13.5424  -12.1682  -19.4118 C   0  0  0  0  0  0  0  0  0  0  0  0
   14.2607  -12.5512  -20.6495 C   0  0  0  0  0  0  0  0  0  0  0  0
   13.4274  -13.1306  -21.7397 C   0  0  0  0  0  0  0  0  0  0  0  0
   14.1930  -13.5280  -22.8794 N   0  0  0  0  0  0  0  0  0  0  0  0
   16.1015  -11.4535  -16.7346 C   0  0  0  0  0  0  0  0  0  0  0  0
   15.5879  -11.0326  -15.6624 O   0  0  0  0  0  0  0  0  0  0  0  0
   17.4072  -11.0106  -17.0296 N   0  0  0  0  0  0  0  0  0  0  0  0
   18.1712  -10.1063  -16.2360 C   0  0  1  0  0  0  0  0  0  0  0  0
   19.6526  -10.2024  -16.3988 C   0  0  0  0  0  0  0  0  0  0  0  0
   20.3912   -9.2829  -15.4991 C   0  0  0  0  0  0  0  0  0  0  0  0
   20.5971   -9.3029  -14.1397 C   0  0  0  0  0  0  0  0  0  0  0  0
   21.3406   -8.2474  -13.7510 N   0  0  0  0  0  0  0  0  0  0  0  0
   21.6056   -7.5575  -14.8704 C   0  0  0  0  0  0  0  0  0  0  0  0
   21.0444   -8.1631  -15.9295 N   0  0  0  0  0  0  0  0  0  0  0  0
   17.7918   -8.7105  -16.5437 C   0  0  0  0  0  0  0  0  0  0  0  0
   17.4484   -8.4324  -17.7170 O   0  0  0  0  0  0  0  0  0  0  0  0
   17.7936   -7.6587  -15.5710 N   0  0  0  0  0  0  0  0  0  0  0  0
   17.4556   -6.2934  -15.9232 C   0  0  1  0  0  0  0  0  0  0  0  0
   15.9291   -6.1003  -15.7873 C   0  0  0  0  0  0  0  0  0  0  0  0
   15.4877   -4.3533  -15.8950 S   0  0  0  0  0  0  0  0  0  0  0  0
   18.1368   -5.2742  -15.1299 C   0  0  0  0  0  0  0  0  0  0  0  0
   18.1893   -4.1019  -15.5585 O   0  0  0  0  0  0  0  0  0  0  0  0
   18.7284   -5.5611  -13.9147 O   0  0  0  0  0  0  0  0  0  0  0  0
  2  1  1  1
  2  3  1  0
  3  4  1  0
  5  4  1  0
  6  5  1  0
  7  6  1  0
  8  2  1  0
  8  9  2  0
 10  8  1  0
 11 10  1  0
 11 12  1  6
 13 14  2  0
 13 12  1  0
 15 14  1  0
 16 17  2  0
 16 15  1  0
 17 13  1  0
 18 11  1  0
 19 18  2  0
 20 18  1  0
 21 22  1  1
 21 20  1  0
 22 23  1  0
 24 21  1  0
 25 24  2  0
 26 24  1  0
M  END
$$$$
