KHC.pdb
     RDKit          3D

 26 26  0  0  1  0  0  0  0  0999 V2000
   21.7174  -12.8986  -17.4930 N   0  0  0  0  0  0  0  0  0  0  0  0
   20.7088  -12.0493  -18.0499 C   0  0  1  0  0  0  0  0  0  0  0  0
   19.3952  -12.7744  -18.1760 C   0  0  0  0  0  0  0  0  0  0  0  0
   19.3933  -14.0301  -18.9432 C   0  0  0  0  0  0  0  0  0  0  0  0
   19.8823  -14.0165  -20.3414 C   0  0  0  0  0  0  0  0  0  0  0  0
   19.8714  -15.3248  -21.0536 C   0  0  0  0  0  0  0  0  0  0  0  0
   20.4223  -15.2507  -22.3704 N   0  0  0  0  0  0  0  0  0  0  0  0
   20.4739  -10.8377  -17.2246 C   0  0  0  0  0  0  0  0  0  0  0  0
   19.5279  -10.9080  -16.3934 O   0  0  0  0  0  0  0  0  0  0  0  0
   21.1899   -9.6240  -17.2700 N   0  0  0  0  0  0  0  0  0  0  0  0
   20.9399   -8.4866  -16.4481 C   0  0  1  0  0  0  0  0  0  0  0  0
   22.0338   -8.1288  -15.4965 C   0  0  0  0  0  0  0  0  0  0  0  0
   22.2052   -9.1290  -14.4145 C   0  0  0  0  0  0  0  0  0  0  0  0
   21.4973  -10.2645  -14.0981 C   0  0  0  0  0  0  0  0  0  0  0  0
   22.0226  -10.8717  -13.0148 N   0  0  0  0  0  0  0  0  0  0  0  0
   23.0672  -10.1158  -12.6454 C   0  0  0  0  0  0  0  0  0  0  0  0
   23.1929   -9.0658  -13.4730 N   0  0  0  0  0  0  0  0  0  0  0  0
   20.6893   -7.2951  -17.2873 C   0  0  0  0  0  0  0  0  0  0  0  0
   21.3111   -7.1895  -18.3709 O   0  0  0  0  0  0  0  0  0  0  0  0
   19.7715   -6.2552  -16.9286 N   0  0  0  0  0  0  0  0  0  0  0  0
   19.5362   -5.1142  -17.7919 C   0  0  1  0  0  0  0  0  0  0  0  0
   18.1620   -4.4975  -17.4497 C   0  0  0  0  0  0  0  0  0  0  0  0
   16.8515   -5.7326  -17.5751 S   0  0  0  0  0  0  0  0  0  0  0  0
   20.5574   -4.0732  -17.7159 C   0  0  0  0  0  0  0  0  0  0  0  0
   21.4859   -4.1891  -16.8881 O   0  0  0  0  0  0  0  0  0  0  0  0
   20.5341   -2.9585  -18.5317 O   0  0  0  0  0  0  0  0  0  0  0  0
  2  1  1  1
  2  3  1  0
  3  4  1  0
  5  4  1  0
  6  5  1  0
  7  6  1  0
  8  2  1  0
  8  9  2  0
 10  8  1  0
 11 10  1  0
 11 12  1  1
 13 14  2  0
 13 12  1  0
 15 14  1  0
 16 17  2  0
 16 15  1  0
 17 13  1  0
 18 11  1  0
 19 18  2  0
 20 18  1  0
 21 22  1  1
 21 20  1  0
 22 23  1  0
 24 21  1  0
 25 24  2  0
 26 24  1  0
M  END
$$$$
