KHC.pdb
     RDKit          3D

 26 26  0  0  1  0  0  0  0  0999 V2000
   20.0965  -21.3184  -11.5626 N   0  0  0  0  0  0  0  0  0  0  0  0
   20.6474  -21.3318  -12.8835 C   0  0  1  0  0  0  0  0  0  0  0  0
   19.6546  -20.8187  -13.8928 C   0  0  0  0  0  0  0  0  0  0  0  0
   18.7104  -21.7942  -14.4603 C   0  0  0  0  0  0  0  0  0  0  0  0
   17.7216  -21.3349  -15.4631 C   0  0  0  0  0  0  0  0  0  0  0  0
   16.7833  -22.3691  -15.9815 C   0  0  0  0  0  0  0  0  0  0  0  0
   15.8392  -21.8492  -16.9204 N   0  0  0  0  0  0  0  0  0  0  0  0
   21.8694  -20.4955  -12.9926 C   0  0  0  0  0  0  0  0  0  0  0  0
   21.8330  -19.3811  -12.4031 O   0  0  0  0  0  0  0  0  0  0  0  0
   23.0589  -20.8110  -13.6807 N   0  0  0  0  0  0  0  0  0  0  0  0
   24.2389  -20.0117  -13.6990 C   0  0  1  0  0  0  0  0  0  0  0  0
   25.4477  -20.6365  -13.0836 C   0  0  0  0  0  0  0  0  0  0  0  0
   25.3604  -20.7243  -11.6053 C   0  0  0  0  0  0  0  0  0  0  0  0
   24.4230  -20.2562  -10.7150 C   0  0  0  0  0  0  0  0  0  0  0  0
   24.7618  -20.5744   -9.4493 N   0  0  0  0  0  0  0  0  0  0  0  0
   25.9188  -21.2468   -9.5408 C   0  0  0  0  0  0  0  0  0  0  0  0
   26.2940  -21.3470  -10.8263 N   0  0  0  0  0  0  0  0  0  0  0  0
   24.5951  -19.6584  -15.0901 C   0  0  0  0  0  0  0  0  0  0  0  0
   24.3341  -20.4824  -15.9983 O   0  0  0  0  0  0  0  0  0  0  0  0
   25.2211  -18.4228  -15.4557 N   0  0  0  0  0  0  0  0  0  0  0  0
   25.5542  -18.1145  -16.8328 C   0  0  1  0  0  0  0  0  0  0  0  0
   24.7381  -16.8839  -17.2861 C   0  0  0  0  0  0  0  0  0  0  0  0
   24.4052  -16.9479  -19.0591 S   0  0  0  0  0  0  0  0  0  0  0  0
   26.9718  -17.8606  -17.0735 C   0  0  0  0  0  0  0  0  0  0  0  0
   27.6796  -17.4224  -16.1419 O   0  0  0  0  0  0  0  0  0  0  0  0
   27.5624  -18.0894  -18.3014 O   0  0  0  0  0  0  0  0  0  0  0  0
  2  1  1  1
  2  3  1  0
  3  4  1  0
  5  4  1  0
  6  5  1  0
  7  6  1  0
  8  2  1  0
  8  9  2  0
 10  8  1  0
 11 10  1  0
 11 12  1  6
 13 14  2  0
 13 12  1  0
 15 14  1  0
 16 17  2  0
 16 15  1  0
 17 13  1  0
 18 11  1  0
 19 18  2  0
 20 18  1  0
 21 22  1  1
 21 20  1  0
 22 23  1  0
 24 21  1  0
 25 24  2  0
 26 24  1  0
M  END
$$$$
