KHC.pdb
     RDKit          3D

 26 26  0  0  1  0  0  0  0  0999 V2000
   20.4307  -22.4037  -16.3673 N   0  0  0  0  0  0  0  0  0  0  0  0
   20.5431  -21.1687  -15.6526 C   0  0  1  0  0  0  0  0  0  0  0  0
   20.9190  -21.4045  -14.2137 C   0  0  0  0  0  0  0  0  0  0  0  0
   19.8456  -21.2933  -13.2134 C   0  0  0  0  0  0  0  0  0  0  0  0
   18.7118  -22.2450  -13.2698 C   0  0  0  0  0  0  0  0  0  0  0  0
   17.6601  -22.0758  -12.2287 C   0  0  0  0  0  0  0  0  0  0  0  0
   16.6835  -23.1194  -12.2437 N   0  0  0  0  0  0  0  0  0  0  0  0
   21.5668  -20.2685  -16.2410 C   0  0  0  0  0  0  0  0  0  0  0  0
   22.5828  -20.8312  -16.7329 O   0  0  0  0  0  0  0  0  0  0  0  0
   21.5260  -18.8608  -16.3082 N   0  0  0  0  0  0  0  0  0  0  0  0
   22.4506  -18.0410  -17.0186 C   0  0  1  0  0  0  0  0  0  0  0  0
   21.8909  -16.7716  -17.5711 C   0  0  0  0  0  0  0  0  0  0  0  0
   21.0806  -16.9848  -18.7953 C   0  0  0  0  0  0  0  0  0  0  0  0
   20.8128  -18.1163  -19.5292 C   0  0  0  0  0  0  0  0  0  0  0  0
   20.0167  -17.8304  -20.5792 N   0  0  0  0  0  0  0  0  0  0  0  0
   19.7807  -16.5119  -20.5080 C   0  0  0  0  0  0  0  0  0  0  0  0
   20.4105  -15.9870  -19.4445 N   0  0  0  0  0  0  0  0  0  0  0  0
   23.5822  -17.6696  -16.1420 C   0  0  0  0  0  0  0  0  0  0  0  0
   23.3424  -17.4107  -14.9389 O   0  0  0  0  0  0  0  0  0  0  0  0
   24.9393  -17.5919  -16.5943 N   0  0  0  0  0  0  0  0  0  0  0  0
   26.0235  -17.2422  -15.6973 C   0  0  1  0  0  0  0  0  0  0  0  0
   26.1002  -18.2905  -14.5655 C   0  0  0  0  0  0  0  0  0  0  0  0
   27.5559  -18.0197  -13.5329 S   0  0  0  0  0  0  0  0  0  0  0  0
   27.3318  -17.1357  -16.3371 C   0  0  0  0  0  0  0  0  0  0  0  0
   27.6350  -17.9409  -17.2429 O   0  0  0  0  0  0  0  0  0  0  0  0
   28.2516  -16.1705  -15.9751 O   0  0  0  0  0  0  0  0  0  0  0  0
  2  1  1  6
  2  3  1  0
  3  4  1  0
  5  4  1  0
  6  5  1  0
  7  6  1  0
  8  2  1  0
  8  9  2  0
 10  8  1  0
 11 10  1  0
 11 12  1  1
 13 14  2  0
 13 12  1  0
 15 14  1  0
 16 17  2  0
 16 15  1  0
 17 13  1  0
 18 11  1  0
 19 18  2  0
 20 18  1  0
 21 22  1  1
 21 20  1  0
 22 23  1  0
 24 21  1  0
 25 24  2  0
 26 24  1  0
M  END
$$$$
