KHC.pdb
     RDKit          3D

 26 26  0  0  1  0  0  0  0  0999 V2000
   21.8239  -13.9038  -18.9855 N   0  0  0  0  0  0  0  0  0  0  0  0
   22.3156  -13.0187  -17.9739 C   0  0  1  0  0  0  0  0  0  0  0  0
   23.6099  -12.3751  -18.3958 C   0  0  0  0  0  0  0  0  0  0  0  0
   24.8498  -13.1166  -18.1163 C   0  0  0  0  0  0  0  0  0  0  0  0
   25.1351  -14.3512  -18.8836 C   0  0  0  0  0  0  0  0  0  0  0  0
   26.3722  -15.0890  -18.5042 C   0  0  0  0  0  0  0  0  0  0  0  0
   26.5480  -16.3031  -19.2377 N   0  0  0  0  0  0  0  0  0  0  0  0
   21.3551  -11.9302  -17.6624 C   0  0  0  0  0  0  0  0  0  0  0  0
   20.8876  -11.3034  -18.6521 O   0  0  0  0  0  0  0  0  0  0  0  0
   20.9123  -11.5238  -16.3870 N   0  0  0  0  0  0  0  0  0  0  0  0
   20.0002  -10.4590  -16.1303 C   0  0  1  0  0  0  0  0  0  0  0  0
   18.8216  -10.8127  -15.2841 C   0  0  0  0  0  0  0  0  0  0  0  0
   17.8129  -11.6212  -16.0117 C   0  0  0  0  0  0  0  0  0  0  0  0
   17.9213  -12.4566  -17.0984 C   0  0  0  0  0  0  0  0  0  0  0  0
   16.7232  -12.9858  -17.4188 N   0  0  0  0  0  0  0  0  0  0  0  0
   15.8540  -12.4821  -16.5300 C   0  0  0  0  0  0  0  0  0  0  0  0
   16.4890  -11.6613  -15.6776 N   0  0  0  0  0  0  0  0  0  0  0  0
   20.6963   -9.3412  -15.4573 C   0  0  0  0  0  0  0  0  0  0  0  0
   21.5918   -9.6142  -14.6234 O   0  0  0  0  0  0  0  0  0  0  0  0
   20.4030   -7.9618  -15.7094 N   0  0  0  0  0  0  0  0  0  0  0  0
   21.0541   -6.8964  -14.9722 C   0  0  1  0  0  0  0  0  0  0  0  0
   22.0313   -6.1565  -15.9122 C   0  0  0  0  0  0  0  0  0  0  0  0
   22.7429   -4.7124  -15.0957 S   0  0  0  0  0  0  0  0  0  0  0  0
   20.1422   -5.9256  -14.3737 C   0  0  0  0  0  0  0  0  0  0  0  0
   20.5840   -5.1086  -13.5381 O   0  0  0  0  0  0  0  0  0  0  0  0
   18.8008   -5.8772  -14.7005 O   0  0  0  0  0  0  0  0  0  0  0  0
  2  1  1  6
  2  3  1  0
  3  4  1  0
  5  4  1  0
  6  5  1  0
  7  6  1  0
  8  2  1  0
  8  9  2  0
 10  8  1  0
 11 10  1  0
 11 12  1  1
 13 14  2  0
 13 12  1  0
 15 14  1  0
 16 17  2  0
 16 15  1  0
 17 13  1  0
 18 11  1  0
 19 18  2  0
 20 18  1  0
 21 22  1  6
 21 20  1  0
 22 23  1  0
 24 21  1  0
 25 24  2  0
 26 24  1  0
M  END
$$$$
