KHC.pdb
     RDKit          3D

 26 26  0  0  1  0  0  0  0  0999 V2000
   21.1955  -19.7378  -13.3019 N   0  0  0  0  0  0  0  0  0  0  0  0
   20.8559  -19.4356  -14.6590 C   0  0  1  0  0  0  0  0  0  0  0  0
   19.4632  -19.9032  -14.9889 C   0  0  0  0  0  0  0  0  0  0  0  0
   19.1823  -21.3387  -14.8289 C   0  0  0  0  0  0  0  0  0  0  0  0
   19.9928  -22.3170  -15.5907 C   0  0  0  0  0  0  0  0  0  0  0  0
   19.6702  -23.7537  -15.3659 C   0  0  0  0  0  0  0  0  0  0  0  0
   20.3901  -24.6323  -16.2337 N   0  0  0  0  0  0  0  0  0  0  0  0
   20.9187  -17.9799  -14.9445 C   0  0  0  0  0  0  0  0  0  0  0  0
   20.4066  -17.2221  -14.0760 O   0  0  0  0  0  0  0  0  0  0  0  0
   21.4853  -17.3572  -16.0755 N   0  0  0  0  0  0  0  0  0  0  0  0
   21.4846  -15.9554  -16.3333 C   0  0  1  0  0  0  0  0  0  0  0  0
   22.2910  -15.5185  -17.5119 C   0  0  0  0  0  0  0  0  0  0  0  0
   22.3478  -14.0431  -17.6551 C   0  0  0  0  0  0  0  0  0  0  0  0
   21.8233  -13.0289  -16.8889 C   0  0  0  0  0  0  0  0  0  0  0  0
   22.1325  -11.8243  -17.4099 N   0  0  0  0  0  0  0  0  0  0  0  0
   22.8557  -12.0791  -18.5104 C   0  0  0  0  0  0  0  0  0  0  0  0
   22.9957  -13.4046  -18.6742 N   0  0  0  0  0  0  0  0  0  0  0  0
   20.1027  -15.4771  -16.5532 C   0  0  0  0  0  0  0  0  0  0  0  0
   19.3387  -16.1724  -17.2636 O   0  0  0  0  0  0  0  0  0  0  0  0
   19.5894  -14.2615  -15.9953 N   0  0  0  0  0  0  0  0  0  0  0  0
   18.2330  -13.8177  -16.2512 C   0  0  1  0  0  0  0  0  0  0  0  0
   17.3539  -14.1485  -15.0249 C   0  0  0  0  0  0  0  0  0  0  0  0
   15.7516  -13.3250  -15.1389 S   0  0  0  0  0  0  0  0  0  0  0  0
   18.1060  -12.3958  -16.5584 C   0  0  0  0  0  0  0  0  0  0  0  0
   17.0001  -11.9486  -16.9296 O   0  0  0  0  0  0  0  0  0  0  0  0
   19.1708  -11.5220  -16.4521 O   0  0  0  0  0  0  0  0  0  0  0  0
  2  1  1  1
  2  3  1  0
  3  4  1  0
  5  4  1  0
  6  5  1  0
  7  6  1  0
  8  2  1  0
  8  9  2  0
 10  8  1  0
 11 10  1  0
 11 12  1  6
 13 14  2  0
 13 12  1  0
 15 14  1  0
 16 17  2  0
 16 15  1  0
 17 13  1  0
 18 11  1  0
 19 18  2  0
 20 18  1  0
 21 22  1  1
 21 20  1  0
 22 23  1  0
 24 21  1  0
 25 24  2  0
 26 24  1  0
M  END
$$$$
