KHC.pdb
     RDKit          3D

 26 26  0  0  1  0  0  0  0  0999 V2000
   21.0974  -12.9181  -16.2552 N   0  0  0  0  0  0  0  0  0  0  0  0
   20.1693  -11.9587  -16.7716 C   0  0  1  0  0  0  0  0  0  0  0  0
   18.7558  -12.4719  -16.6939 C   0  0  0  0  0  0  0  0  0  0  0  0
   18.3840  -13.5551  -17.6179 C   0  0  0  0  0  0  0  0  0  0  0  0
   18.7727  -14.9454  -17.2859 C   0  0  0  0  0  0  0  0  0  0  0  0
   18.3300  -15.9974  -18.2430 C   0  0  0  0  0  0  0  0  0  0  0  0
   17.0276  -16.5088  -17.9508 N   0  0  0  0  0  0  0  0  0  0  0  0
   20.2196  -10.6720  -16.0324 C   0  0  0  0  0  0  0  0  0  0  0  0
   20.0085  -10.7375  -14.7906 O   0  0  0  0  0  0  0  0  0  0  0  0
   20.4758   -9.3924  -16.5660 N   0  0  0  0  0  0  0  0  0  0  0  0
   20.5513   -8.1841  -15.8136 C   0  0  1  0  0  0  0  0  0  0  0  0
   21.7944   -7.3806  -16.0118 C   0  0  0  0  0  0  0  0  0  0  0  0
   21.8322   -6.1617  -15.1671 C   0  0  0  0  0  0  0  0  0  0  0  0
   21.9101   -5.9953  -13.8044 C   0  0  0  0  0  0  0  0  0  0  0  0
   21.9163   -4.6866  -13.4799 N   0  0  0  0  0  0  0  0  0  0  0  0
   21.8420   -4.0233  -14.6434 C   0  0  0  0  0  0  0  0  0  0  0  0
   21.7907   -4.8911  -15.6670 N   0  0  0  0  0  0  0  0  0  0  0  0
   19.4099   -7.3041  -16.1447 C   0  0  0  0  0  0  0  0  0  0  0  0
   19.1011   -7.1591  -17.3511 O   0  0  0  0  0  0  0  0  0  0  0  0
   18.6361   -6.6097  -15.1590 N   0  0  0  0  0  0  0  0  0  0  0  0
   17.6523   -5.6101  -15.5269 C   0  0  1  0  0  0  0  0  0  0  0  0
   16.2638   -6.0578  -15.0191 C   0  0  0  0  0  0  0  0  0  0  0  0
   15.0180   -4.7939  -15.3492 S   0  0  0  0  0  0  0  0  0  0  0  0
   17.9324   -4.2676  -15.0254 C   0  0  0  0  0  0  0  0  0  0  0  0
   17.9493   -3.3087  -15.8261 O   0  0  0  0  0  0  0  0  0  0  0  0
   18.1802   -4.0180  -13.6893 O   0  0  0  0  0  0  0  0  0  0  0  0
  2  1  1  1
  2  3  1  0
  3  4  1  0
  5  4  1  0
  6  5  1  0
  7  6  1  0
  8  2  1  0
  8  9  2  0
 10  8  1  0
 11 10  1  0
 11 12  1  6
 13 14  2  0
 13 12  1  0
 15 14  1  0
 16 17  2  0
 16 15  1  0
 17 13  1  0
 18 11  1  0
 19 18  2  0
 20 18  1  0
 21 22  1  1
 21 20  1  0
 22 23  1  0
 24 21  1  0
 25 24  2  0
 26 24  1  0
M  END
$$$$
