KHC.pdb
     RDKit          3D

 26 26  0  0  1  0  0  0  0  0999 V2000
   26.2584  -17.7025  -19.1379 N   0  0  0  0  0  0  0  0  0  0  0  0
   25.1000  -17.4538  -18.3350 C   0  0  1  0  0  0  0  0  0  0  0  0
   23.8426  -17.5088  -19.1615 C   0  0  0  0  0  0  0  0  0  0  0  0
   23.7179  -18.6186  -20.1196 C   0  0  0  0  0  0  0  0  0  0  0  0
   22.6272  -18.5818  -21.1212 C   0  0  0  0  0  0  0  0  0  0  0  0
   22.5699  -19.7269  -22.0722 C   0  0  0  0  0  0  0  0  0  0  0  0
   21.5365  -19.5921  -23.0503 N   0  0  0  0  0  0  0  0  0  0  0  0
   24.9555  -18.4395  -17.2341 C   0  0  0  0  0  0  0  0  0  0  0  0
   24.7974  -19.6412  -17.5832 O   0  0  0  0  0  0  0  0  0  0  0  0
   24.9753  -18.1784  -15.8487 N   0  0  0  0  0  0  0  0  0  0  0  0
   24.8629  -19.1604  -14.8218 C   0  0  1  0  0  0  0  0  0  0  0  0
   25.3382  -18.7352  -13.4714 C   0  0  0  0  0  0  0  0  0  0  0  0
   25.4353  -19.8641  -12.5139 C   0  0  0  0  0  0  0  0  0  0  0  0
   25.3172  -21.2230  -12.6870 C   0  0  0  0  0  0  0  0  0  0  0  0
   25.4824  -21.8724  -11.5170 N   0  0  0  0  0  0  0  0  0  0  0  0
   25.7059  -20.9188  -10.6005 C   0  0  0  0  0  0  0  0  0  0  0  0
   25.6815  -19.7073  -11.1794 N   0  0  0  0  0  0  0  0  0  0  0  0
   23.4538  -19.5831  -14.6713 C   0  0  0  0  0  0  0  0  0  0  0  0
   22.5665  -18.6977  -14.6492 O   0  0  0  0  0  0  0  0  0  0  0  0
   23.0483  -20.9519  -14.5516 N   0  0  0  0  0  0  0  0  0  0  0  0
   21.6513  -21.3279  -14.4536 C   0  0  1  0  0  0  0  0  0  0  0  0
   21.5495  -22.8645  -14.3335 C   0  0  0  0  0  0  0  0  0  0  0  0
   19.8276  -23.3879  -14.1942 S   0  0  0  0  0  0  0  0  0  0  0  0
   20.9331  -20.7146  -13.3399 C   0  0  0  0  0  0  0  0  0  0  0  0
   21.4720  -20.6771  -12.2134 O   0  0  0  0  0  0  0  0  0  0  0  0
   19.6718  -20.1705  -13.4880 O   0  0  0  0  0  0  0  0  0  0  0  0
  2  1  1  6
  2  3  1  0
  3  4  1  0
  5  4  1  0
  6  5  1  0
  7  6  1  0
  8  2  1  0
  8  9  2  0
 10  8  1  0
 11 10  1  0
 11 12  1  1
 13 14  2  0
 13 12  1  0
 15 14  1  0
 16 17  2  0
 16 15  1  0
 17 13  1  0
 18 11  1  0
 19 18  2  0
 20 18  1  0
 21 22  1  1
 21 20  1  0
 22 23  1  0
 24 21  1  0
 25 24  2  0
 26 24  1  0
M  END
$$$$
