KHC.pdb
     RDKit          3D

 26 26  0  0  1  0  0  0  0  0999 V2000
   24.5303  -20.9101   -9.9778 N   0  0  0  0  0  0  0  0  0  0  0  0
   23.4850  -21.0937  -10.9380 C   0  0  1  0  0  0  0  0  0  0  0  0
   22.1747  -20.5572  -10.4258 C   0  0  0  0  0  0  0  0  0  0  0  0
   21.7147  -21.0480   -9.1171 C   0  0  0  0  0  0  0  0  0  0  0  0
   20.6655  -22.0928   -9.0717 C   0  0  0  0  0  0  0  0  0  0  0  0
   20.3308  -22.6291   -7.7230 C   0  0  0  0  0  0  0  0  0  0  0  0
   19.3301  -23.6492   -7.7579 N   0  0  0  0  0  0  0  0  0  0  0  0
   23.7757  -20.4118  -12.2245 C   0  0  0  0  0  0  0  0  0  0  0  0
   24.2889  -19.2628  -12.1392 O   0  0  0  0  0  0  0  0  0  0  0  0
   23.5408  -20.9072  -13.5234 N   0  0  0  0  0  0  0  0  0  0  0  0
   23.8272  -20.2143  -14.7356 C   0  0  1  0  0  0  0  0  0  0  0  0
   24.3611  -21.0573  -15.8467 C   0  0  0  0  0  0  0  0  0  0  0  0
   25.7428  -21.5346  -15.5939 C   0  0  0  0  0  0  0  0  0  0  0  0
   26.6420  -21.2451  -14.5948 C   0  0  0  0  0  0  0  0  0  0  0  0
   27.7938  -21.9228  -14.7740 N   0  0  0  0  0  0  0  0  0  0  0  0
   27.6210  -22.6439  -15.8918 C   0  0  0  0  0  0  0  0  0  0  0  0
   26.3967  -22.4243  -16.3981 N   0  0  0  0  0  0  0  0  0  0  0  0
   22.6081  -19.5495  -15.2442 C   0  0  0  0  0  0  0  0  0  0  0  0
   21.5756  -19.5765  -14.5336 O   0  0  0  0  0  0  0  0  0  0  0  0
   22.5449  -18.8738  -16.5059 N   0  0  0  0  0  0  0  0  0  0  0  0
   21.9198  -17.5728  -16.6440 C   0  0  1  0  0  0  0  0  0  0  0  0
   22.6977  -16.5462  -15.7914 C   0  0  0  0  0  0  0  0  0  0  0  0
   21.5955  -15.6936  -14.6438 S   0  0  0  0  0  0  0  0  0  0  0  0
   21.8324  -17.0827  -18.0167 C   0  0  0  0  0  0  0  0  0  0  0  0
   22.8178  -17.2108  -18.7739 O   0  0  0  0  0  0  0  0  0  0  0  0
   20.6921  -16.4795  -18.5116 O   0  0  0  0  0  0  0  0  0  0  0  0
  2  1  1  1
  2  3  1  0
  3  4  1  0
  5  4  1  0
  6  5  1  0
  7  6  1  0
  8  2  1  0
  8  9  2  0
 10  8  1  0
 11 10  1  0
 11 12  1  6
 13 14  2  0
 13 12  1  0
 15 14  1  0
 16 17  2  0
 16 15  1  0
 17 13  1  0
 18 11  1  0
 19 18  2  0
 20 18  1  0
 21 22  1  1
 21 20  1  0
 22 23  1  0
 24 21  1  0
 25 24  2  0
 26 24  1  0
M  END
$$$$
