KHC.pdb
     RDKit          3D

 26 26  0  0  1  0  0  0  0  0999 V2000
   26.9987  -21.1167  -16.0845 N   0  0  0  0  0  0  0  0  0  0  0  0
   25.7604  -21.1147  -16.8022 C   0  0  1  0  0  0  0  0  0  0  0  0
   25.4840  -22.4621  -17.4149 C   0  0  0  0  0  0  0  0  0  0  0  0
   26.5277  -23.0312  -18.2821 C   0  0  0  0  0  0  0  0  0  0  0  0
   27.4818  -24.0087  -17.7088 C   0  0  0  0  0  0  0  0  0  0  0  0
   28.5111  -24.5463  -18.6416 C   0  0  0  0  0  0  0  0  0  0  0  0
   29.5467  -25.2721  -17.9755 N   0  0  0  0  0  0  0  0  0  0  0  0
   24.6062  -20.7730  -15.9330 C   0  0  0  0  0  0  0  0  0  0  0  0
   24.8318  -20.7585  -14.6921 O   0  0  0  0  0  0  0  0  0  0  0  0
   23.2927  -20.4653  -16.3428 N   0  0  0  0  0  0  0  0  0  0  0  0
   22.2878  -19.8770  -15.5209 C   0  0  1  0  0  0  0  0  0  0  0  0
   21.7883  -18.5438  -15.9718 C   0  0  0  0  0  0  0  0  0  0  0  0
   22.7834  -17.4608  -15.7775 C   0  0  0  0  0  0  0  0  0  0  0  0
   24.0056  -17.4439  -15.1477 C   0  0  0  0  0  0  0  0  0  0  0  0
   24.5664  -16.2199  -15.2204 N   0  0  0  0  0  0  0  0  0  0  0  0
   23.6941  -15.4602  -15.8994 C   0  0  0  0  0  0  0  0  0  0  0  0
   22.6181  -16.1870  -16.2421 N   0  0  0  0  0  0  0  0  0  0  0  0
   21.1135  -20.7712  -15.4308 C   0  0  0  0  0  0  0  0  0  0  0  0
   20.5945  -21.1805  -16.4962 O   0  0  0  0  0  0  0  0  0  0  0  0
   20.5381  -21.1967  -14.1897 N   0  0  0  0  0  0  0  0  0  0  0  0
   19.3563  -22.0356  -14.1447 C   0  0  1  0  0  0  0  0  0  0  0  0
   19.3941  -22.8921  -12.8598 C   0  0  0  0  0  0  0  0  0  0  0  0
   20.8886  -23.9029  -12.8021 S   0  0  0  0  0  0  0  0  0  0  0  0
   18.0915  -21.3076  -14.1946 C   0  0  0  0  0  0  0  0  0  0  0  0
   17.9880  -20.2223  -13.5844 O   0  0  0  0  0  0  0  0  0  0  0  0
   16.9987  -21.7782  -14.8969 O   0  0  0  0  0  0  0  0  0  0  0  0
  2  1  1  1
  2  3  1  0
  3  4  1  0
  5  4  1  0
  6  5  1  0
  7  6  1  0
  8  2  1  0
  8  9  2  0
 10  8  1  0
 11 10  1  0
 11 12  1  6
 13 14  2  0
 13 12  1  0
 15 14  1  0
 16 17  2  0
 16 15  1  0
 17 13  1  0
 18 11  1  0
 19 18  2  0
 20 18  1  0
 21 22  1  1
 21 20  1  0
 22 23  1  0
 24 21  1  0
 25 24  2  0
 26 24  1  0
M  END
$$$$
