QMT.pdb
     RDKit          3D

 25 24  0  0  1  0  0  0  0  0999 V2000
   17.6040  -14.9361    4.9994 N   0  0  0  0  0  0  0  0  0  0  0  0
   16.9685  -14.7637    3.7450 C   0  0  0  0  0  0  0  0  0  0  0  0
   16.8604  -13.5966    3.3072 O   0  0  0  0  0  0  0  0  0  0  0  0
   16.4827  -15.9583    3.0476 C   0  0  0  0  0  0  0  0  0  0  0  0
   16.7864  -17.2465    3.7710 C   0  0  0  0  0  0  0  0  0  0  0  0
   16.1290  -18.3545    2.9494 C   0  0  2  0  0  0  0  0  0  0  0  0
   14.6931  -18.1826    2.9586 N   0  0  0  0  0  0  0  0  0  0  0  0
   16.5383  -19.7002    3.3545 C   0  0  0  0  0  0  0  0  0  0  0  0
   15.6791  -20.6081    3.4386 O   0  0  0  0  0  0  0  0  0  0  0  0
   21.1048  -23.8675    2.0533 C   0  0  0  0  0  0  0  0  0  0  0  0
   19.8669  -24.6592    3.0969 S   0  0  0  0  0  0  0  0  0  0  0  0
   19.2764  -23.4713    4.3461 C   0  0  0  0  0  0  0  0  0  0  0  0
   18.8132  -22.2499    3.6005 C   0  0  0  0  0  0  0  0  0  0  0  0
   18.2857  -21.1614    4.4672 C   0  0  2  0  0  0  0  0  0  0  0  0
   17.8919  -19.9983    3.6548 N   0  0  0  0  0  0  0  0  0  0  0  0
   19.1868  -20.7296    5.5593 C   0  0  0  0  0  0  0  0  0  0  0  0
   20.1111  -19.9176    5.4176 O   0  0  0  0  0  0  0  0  0  0  0  0
   18.6064  -18.7650    8.7054 C   0  0  0  0  0  0  0  0  0  0  0  0
   18.9814  -20.1989    9.0628 C   0  0  1  0  0  0  0  0  0  0  0  0
   17.8116  -20.9499    9.1959 O   0  0  0  0  0  0  0  0  0  0  0  0
   19.8180  -20.8290    7.9803 C   0  0  2  0  0  0  0  0  0  0  0  0
   19.0045  -21.2654    6.8712 N   0  0  0  0  0  0  0  0  0  0  0  0
   20.5125  -22.0121    8.5578 C   0  0  0  0  0  0  0  0  0  0  0  0
   20.2087  -23.1666    8.1836 O   0  0  0  0  0  0  0  0  0  0  0  0
   21.5032  -21.8287    9.5175 O   0  0  0  0  0  0  0  0  0  0  0  0
  2  1  1  0
  2  3  2  0
  4  2  1  0
  5  4  1  0
  6  5  1  0
  6  7  1  1
  8  6  1  0
  8  9  2  0
 10 11  1  0
 11 12  1  0
 14 13  1  6
 13 12  1  0
 14 15  1  0
 15  8  1  0
 16 14  1  0
 17 16  2  0
 19 18  1  6
 19 21  1  0
 20 19  1  0
 21 23  1  0
 21 22  1  6
 22 16  1  0
 23 25  1  0
 24 23  2  0
M  END
$$$$
