QMT.pdb
     RDKit          3D

 25 24  0  0  1  0  0  0  0  0999 V2000
   18.7511  -15.0270  -15.2138 N   0  0  0  0  0  0  0  0  0  0  0  0
   18.6500  -14.7111  -16.5911 C   0  0  0  0  0  0  0  0  0  0  0  0
   17.9684  -15.4746  -17.3109 O   0  0  0  0  0  0  0  0  0  0  0  0
   19.3474  -13.5171  -17.0782 C   0  0  0  0  0  0  0  0  0  0  0  0
   20.1530  -12.8116  -16.0160 C   0  0  0  0  0  0  0  0  0  0  0  0
   20.5499  -11.4635  -16.6162 C   0  0  2  0  0  0  0  0  0  0  0  0
   20.8437  -11.6231  -18.0232 N   0  0  0  0  0  0  0  0  0  0  0  0
   21.6299  -10.7972  -15.8868 C   0  0  0  0  0  0  0  0  0  0  0  0
   21.4921  -10.5535  -14.6656 O   0  0  0  0  0  0  0  0  0  0  0  0
   27.4504  -12.6507  -15.9254 C   0  0  0  0  0  0  0  0  0  0  0  0
   27.8747  -10.9014  -16.0135 S   0  0  0  0  0  0  0  0  0  0  0  0
   26.4479   -9.9028  -15.4772 C   0  0  0  0  0  0  0  0  0  0  0  0
   25.2417  -10.4489  -16.1909 C   0  0  0  0  0  0  0  0  0  0  0  0
   23.9575   -9.7947  -15.8207 C   0  0  2  0  0  0  0  0  0  0  0  0
   22.8331  -10.4204  -16.5363 N   0  0  0  0  0  0  0  0  0  0  0  0
   23.9181   -8.3269  -16.0084 C   0  0  0  0  0  0  0  0  0  0  0  0
   24.7474   -7.5424  -15.5282 O   0  0  0  0  0  0  0  0  0  0  0  0
   23.4345   -6.4321  -19.4441 C   0  0  0  0  0  0  0  0  0  0  0  0
   22.3690   -6.0218  -18.4337 C   0  0  1  0  0  0  0  0  0  0  0  0
   21.2039   -6.7480  -18.6886 O   0  0  0  0  0  0  0  0  0  0  0  0
   22.8082   -6.3261  -17.0254 C   0  0  2  0  0  0  0  0  0  0  0  0
   22.8695   -7.7481  -16.7873 N   0  0  0  0  0  0  0  0  0  0  0  0
   21.8179   -5.7274  -16.0892 C   0  0  0  0  0  0  0  0  0  0  0  0
   21.1136   -6.4620  -15.3615 O   0  0  0  0  0  0  0  0  0  0  0  0
   21.6782   -4.3444  -16.0263 O   0  0  0  0  0  0  0  0  0  0  0  0
  2  1  1  0
  2  3  2  0
  4  2  1  0
  5  4  1  0
  6  5  1  0
  6  7  1  6
  8  6  1  0
  8  9  2  0
 10 11  1  0
 11 12  1  0
 14 13  1  6
 13 12  1  0
 14 15  1  0
 15  8  1  0
 16 14  1  0
 17 16  2  0
 19 18  1  6
 19 21  1  0
 20 19  1  0
 21 23  1  0
 21 22  1  6
 22 16  1  0
 23 25  1  0
 24 23  2  0
M  END
$$$$
