QMT.pdb
     RDKit          3D

 25 24  0  0  1  0  0  0  0  0999 V2000
   12.6224  -12.7834   -9.2520 N   0  0  0  0  0  0  0  0  0  0  0  0
   12.7979  -13.2301  -10.5849 C   0  0  0  0  0  0  0  0  0  0  0  0
   12.1586  -14.2441  -10.9437 O   0  0  0  0  0  0  0  0  0  0  0  0
   13.7120  -12.4783  -11.4500 C   0  0  0  0  0  0  0  0  0  0  0  0
   14.3332  -11.2798  -10.7770 C   0  0  0  0  0  0  0  0  0  0  0  0
   15.7597  -11.1875  -11.3171 C   0  0  2  0  0  0  0  0  0  0  0  0
   16.3910  -12.4870  -11.2528 N   0  0  0  0  0  0  0  0  0  0  0  0
   16.5577  -10.1408  -10.6768 C   0  0  0  0  0  0  0  0  0  0  0  0
   17.6290  -10.4448  -10.1027 O   0  0  0  0  0  0  0  0  0  0  0  0
   22.0579   -5.8427  -11.5695 C   0  0  0  0  0  0  0  0  0  0  0  0
   20.7471   -7.0178  -11.9556 S   0  0  0  0  0  0  0  0  0  0  0  0
   19.2947   -6.6722  -10.9108 C   0  0  0  0  0  0  0  0  0  0  0  0
   18.3224   -7.7984  -11.1311 C   0  0  0  0  0  0  0  0  0  0  0  0
   17.0508   -7.6733  -10.3685 C   0  0  2  0  0  0  0  0  0  0  0  0
   16.1416   -8.7850  -10.6927 N   0  0  0  0  0  0  0  0  0  0  0  0
   16.3428   -6.3829  -10.5264 C   0  0  0  0  0  0  0  0  0  0  0  0
   15.8413   -5.9908  -11.5887 O   0  0  0  0  0  0  0  0  0  0  0  0
   13.6182   -5.0127   -7.8530 C   0  0  0  0  0  0  0  0  0  0  0  0
   14.7483   -4.0296   -8.1375 C   0  0  1  0  0  0  0  0  0  0  0  0
   15.7177   -4.1580   -7.1407 O   0  0  0  0  0  0  0  0  0  0  0  0
   15.4023   -4.3204   -9.4628 C   0  0  2  0  0  0  0  0  0  0  0  0
   16.2133   -5.5124   -9.4007 N   0  0  0  0  0  0  0  0  0  0  0  0
   16.2750   -3.1670   -9.8144 C   0  0  0  0  0  0  0  0  0  0  0  0
   17.5163   -3.3107   -9.8757 O   0  0  0  0  0  0  0  0  0  0  0  0
   15.7035   -1.9254  -10.0754 O   0  0  0  0  0  0  0  0  0  0  0  0
  2  1  1  0
  2  3  2  0
  4  2  1  0
  5  4  1  0
  6  5  1  0
  6  7  1  1
  8  6  1  0
  8  9  2  0
 10 11  1  0
 11 12  1  0
 14 13  1  6
 13 12  1  0
 14 15  1  0
 15  8  1  0
 16 14  1  0
 17 16  2  0
 19 18  1  1
 19 21  1  0
 20 19  1  0
 21 23  1  0
 21 22  1  1
 22 16  1  0
 23 25  1  0
 24 23  2  0
M  END
$$$$
