QMT.pdb
     RDKit          3D

 25 24  0  0  1  0  0  0  0  0999 V2000
   26.6799  -17.1873  -16.3871 N   0  0  0  0  0  0  0  0  0  0  0  0
   28.0580  -17.5019  -16.2924 C   0  0  0  0  0  0  0  0  0  0  0  0
   28.8561  -16.8119  -16.9652 O   0  0  0  0  0  0  0  0  0  0  0  0
   28.4545  -18.6092  -15.4172 C   0  0  0  0  0  0  0  0  0  0  0  0
   27.3050  -19.2184  -14.6540 C   0  0  0  0  0  0  0  0  0  0  0  0
   27.8987  -20.3782  -13.8557 C   0  0  2  0  0  0  0  0  0  0  0  0
   28.5140  -21.3269  -14.7573 N   0  0  0  0  0  0  0  0  0  0  0  0
   26.9421  -21.0065  -12.9432 C   0  0  0  0  0  0  0  0  0  0  0  0
   26.2923  -22.0080  -13.3231 O   0  0  0  0  0  0  0  0  0  0  0  0
   28.2143  -20.6204   -6.1054 C   0  0  0  0  0  0  0  0  0  0  0  0
   26.8389  -19.9940   -7.0872 S   0  0  0  0  0  0  0  0  0  0  0  0
   26.8032  -20.8481   -8.6965 C   0  0  0  0  0  0  0  0  0  0  0  0
   25.6477  -20.2729   -9.4688 C   0  0  0  0  0  0  0  0  0  0  0  0
   25.5165  -20.7892  -10.8582 C   0  0  2  0  0  0  0  0  0  0  0  0
   26.7349  -20.5030  -11.6336 N   0  0  0  0  0  0  0  0  0  0  0  0
   24.3262  -20.3151  -11.5995 C   0  0  0  0  0  0  0  0  0  0  0  0
   24.1812  -19.1569  -12.0135 O   0  0  0  0  0  0  0  0  0  0  0  0
   21.9465  -23.2121  -13.5429 C   0  0  0  0  0  0  0  0  0  0  0  0
   22.0782  -21.7454  -13.9378 C   0  0  1  0  0  0  0  0  0  0  0  0
   20.9495  -21.3740  -14.6714 O   0  0  0  0  0  0  0  0  0  0  0  0
   22.1554  -20.8590  -12.7224 C   0  0  2  0  0  0  0  0  0  0  0  0
   23.2601  -21.2270  -11.8701 N   0  0  0  0  0  0  0  0  0  0  0  0
   20.8890  -21.0101  -11.9547 C   0  0  0  0  0  0  0  0  0  0  0  0
   20.9065  -21.4797  -10.7952 O   0  0  0  0  0  0  0  0  0  0  0  0
   19.6831  -20.6262  -12.5329 O   0  0  0  0  0  0  0  0  0  0  0  0
  2  1  1  0
  2  3  2  0
  4  2  1  0
  5  4  1  0
  6  5  1  0
  6  7  1  6
  8  6  1  0
  8  9  2  0
 10 11  1  0
 11 12  1  0
 14 13  1  1
 13 12  1  0
 14 15  1  0
 15  8  1  0
 16 14  1  0
 17 16  2  0
 19 18  1  1
 19 21  1  0
 20 19  1  0
 21 23  1  0
 21 22  1  1
 22 16  1  0
 23 25  1  0
 24 23  2  0
M  END
$$$$
