QMT.pdb
     RDKit          3D

 25 24  0  0  1  0  0  0  0  0999 V2000
   22.1947  -17.0827  -18.2748 N   0  0  0  0  0  0  0  0  0  0  0  0
   21.1232  -16.7482  -19.1392 C   0  0  0  0  0  0  0  0  0  0  0  0
   20.8464  -17.5540  -20.0555 O   0  0  0  0  0  0  0  0  0  0  0  0
   20.4144  -15.4868  -18.9034 C   0  0  0  0  0  0  0  0  0  0  0  0
   20.9683  -14.6881  -17.7500 C   0  0  0  0  0  0  0  0  0  0  0  0
   21.2067  -13.2791  -18.2910 C   0  0  2  0  0  0  0  0  0  0  0  0
   22.1146  -13.3350  -19.4154 N   0  0  0  0  0  0  0  0  0  0  0  0
   21.6371  -12.3272  -17.2658 C   0  0  0  0  0  0  0  0  0  0  0  0
   20.9210  -12.1428  -16.2544 O   0  0  0  0  0  0  0  0  0  0  0  0
   27.6752  -13.6584  -15.1378 C   0  0  0  0  0  0  0  0  0  0  0  0
   27.0453  -12.1021  -15.7928 S   0  0  0  0  0  0  0  0  0  0  0  0
   25.2258  -12.0936  -15.6934 C   0  0  0  0  0  0  0  0  0  0  0  0
   24.7702  -10.7423  -16.1718 C   0  0  0  0  0  0  0  0  0  0  0  0
   23.3028  -10.6282  -16.3909 C   0  0  2  0  0  0  0  0  0  0  0  0
   22.8520  -11.6067  -17.3943 N   0  0  0  0  0  0  0  0  0  0  0  0
   22.8208   -9.2768  -16.7550 C   0  0  0  0  0  0  0  0  0  0  0  0
   23.2536   -8.6187  -17.7107 O   0  0  0  0  0  0  0  0  0  0  0  0
   19.8692   -7.9774  -18.1608 C   0  0  0  0  0  0  0  0  0  0  0  0
   19.9345   -7.3146  -16.7893 C   0  0  1  0  0  0  0  0  0  0  0  0
   19.1264   -8.0315  -15.9043 O   0  0  0  0  0  0  0  0  0  0  0  0
   21.3397   -7.3229  -16.2469 C   0  0  2  0  0  0  0  0  0  0  0  0
   21.7922   -8.6657  -15.9740 N   0  0  0  0  0  0  0  0  0  0  0  0
   21.3531   -6.5471  -14.9766 C   0  0  0  0  0  0  0  0  0  0  0  0
   21.5838   -7.1212  -13.8892 O   0  0  0  0  0  0  0  0  0  0  0  0
   21.1075   -5.1778  -15.0032 O   0  0  0  0  0  0  0  0  0  0  0  0
  2  1  1  0
  2  3  2  0
  4  2  1  0
  5  4  1  0
  6  5  1  0
  6  7  1  6
  8  6  1  0
  8  9  2  0
 10 11  1  0
 11 12  1  0
 14 13  1  6
 13 12  1  0
 14 15  1  0
 15  8  1  0
 16 14  1  0
 17 16  2  0
 19 18  1  6
 19 21  1  0
 20 19  1  0
 21 23  1  0
 21 22  1  1
 22 16  1  0
 23 25  1  0
 24 23  2  0
M  END
$$$$
