QMT.pdb
     RDKit          3D

 25 24  0  0  1  0  0  0  0  0999 V2000
   20.2944  -17.4229  -15.2527 N   0  0  0  0  0  0  0  0  0  0  0  0
   20.8726  -17.6782  -16.5206 C   0  0  0  0  0  0  0  0  0  0  0  0
   20.4828  -18.6931  -17.1400 O   0  0  0  0  0  0  0  0  0  0  0  0
   21.8837  -16.7410  -17.0192 C   0  0  0  0  0  0  0  0  0  0  0  0
   22.1633  -15.5958  -16.0782 C   0  0  0  0  0  0  0  0  0  0  0  0
   21.9866  -14.3218  -16.9032 C   0  0  2  0  0  0  0  0  0  0  0  0
   22.6015  -14.4914  -18.2011 N   0  0  0  0  0  0  0  0  0  0  0  0
   22.4462  -13.1145  -16.2150 C   0  0  0  0  0  0  0  0  0  0  0  0
   22.0589  -12.8845  -15.0459 O   0  0  0  0  0  0  0  0  0  0  0  0
   28.7436  -12.8469  -14.9240 C   0  0  0  0  0  0  0  0  0  0  0  0
   27.7772  -11.5840  -15.7721 S   0  0  0  0  0  0  0  0  0  0  0  0
   26.0015  -11.9162  -15.5336 C   0  0  0  0  0  0  0  0  0  0  0  0
   25.2544  -10.8346  -16.2647 C   0  0  0  0  0  0  0  0  0  0  0  0
   23.7728  -10.9543  -16.1965 C   0  0  2  0  0  0  0  0  0  0  0  0
   23.3237  -12.1966  -16.8466 N   0  0  0  0  0  0  0  0  0  0  0  0
   23.0194   -9.8019  -16.7402 C   0  0  0  0  0  0  0  0  0  0  0  0
   23.0433   -9.4544  -17.9287 O   0  0  0  0  0  0  0  0  0  0  0  0
   19.5914   -9.4434  -17.2787 C   0  0  0  0  0  0  0  0  0  0  0  0
   19.9154   -8.3118  -16.3097 C   0  0  1  0  0  0  0  0  0  0  0  0
   19.6235   -8.7341  -15.0110 O   0  0  0  0  0  0  0  0  0  0  0  0
   21.3766   -7.9502  -16.3638 C   0  0  2  0  0  0  0  0  0  0  0  0
   22.2043   -9.0214  -15.8640 N   0  0  0  0  0  0  0  0  0  0  0  0
   21.5901   -6.7460  -15.5152 C   0  0  0  0  0  0  0  0  0  0  0  0
   22.1840   -6.8444  -14.4186 O   0  0  0  0  0  0  0  0  0  0  0  0
   21.1255   -5.5077  -15.9474 O   0  0  0  0  0  0  0  0  0  0  0  0
  2  1  1  0
  2  3  2  0
  4  2  1  0
  5  4  1  0
  6  5  1  0
  6  7  1  6
  8  6  1  0
  8  9  2  0
 10 11  1  0
 11 12  1  0
 14 13  1  6
 13 12  1  0
 14 15  1  0
 15  8  1  0
 16 14  1  0
 17 16  2  0
 19 18  1  6
 19 21  1  0
 20 19  1  0
 21 23  1  0
 21 22  1  1
 22 16  1  0
 23 25  1  0
 24 23  2  0
M  END
$$$$
