QMT.pdb
     RDKit          3D

 25 24  0  0  1  0  0  0  0  0999 V2000
   17.6890  -14.6638  -15.8481 N   0  0  0  0  0  0  0  0  0  0  0  0
   17.0219  -13.8110  -16.7617 C   0  0  0  0  0  0  0  0  0  0  0  0
   15.8924  -14.1669  -17.1656 O   0  0  0  0  0  0  0  0  0  0  0  0
   17.6963  -12.5752  -17.1706 C   0  0  0  0  0  0  0  0  0  0  0  0
   19.0638  -12.4014  -16.5585 C   0  0  0  0  0  0  0  0  0  0  0  0
   19.6258  -11.1079  -17.1466 C   0  0  2  0  0  0  0  0  0  0  0  0
   20.2829  -11.3884  -18.4040 N   0  0  0  0  0  0  0  0  0  0  0  0
   20.4808  -10.3689  -16.2163 C   0  0  0  0  0  0  0  0  0  0  0  0
   20.0414  -10.0629  -15.0836 O   0  0  0  0  0  0  0  0  0  0  0  0
   26.7911  -10.6165  -16.7356 C   0  0  0  0  0  0  0  0  0  0  0  0
   26.6586  -10.0032  -15.0461 S   0  0  0  0  0  0  0  0  0  0  0  0
   25.0729   -9.1294  -14.8400 C   0  0  0  0  0  0  0  0  0  0  0  0
   24.0636   -9.8536  -15.6881 C   0  0  0  0  0  0  0  0  0  0  0  0
   22.6947   -9.2715  -15.6496 C   0  0  2  0  0  0  0  0  0  0  0  0
   21.8006   -9.9909  -16.5721 N   0  0  0  0  0  0  0  0  0  0  0  0
   22.6186   -7.8161  -15.9088 C   0  0  0  0  0  0  0  0  0  0  0  0
   22.9562   -7.2813  -16.9736 O   0  0  0  0  0  0  0  0  0  0  0  0
   20.0085   -5.6452  -16.5180 C   0  0  0  0  0  0  0  0  0  0  0  0
   20.6299   -5.0607  -15.2544 C   0  0  1  0  0  0  0  0  0  0  0  0
   19.9006   -5.5026  -14.1485 O   0  0  0  0  0  0  0  0  0  0  0  0
   22.0546   -5.5197  -15.0856 C   0  0  2  0  0  0  0  0  0  0  0  0
   22.1292   -6.9469  -14.8859 N   0  0  0  0  0  0  0  0  0  0  0  0
   22.6244   -4.8398  -13.8903 C   0  0  0  0  0  0  0  0  0  0  0  0
   22.8611   -5.4899  -12.8479 O   0  0  0  0  0  0  0  0  0  0  0  0
   22.8933   -3.4754  -13.9368 O   0  0  0  0  0  0  0  0  0  0  0  0
  2  1  1  0
  2  3  2  0
  4  2  1  0
  5  4  1  0
  6  5  1  0
  6  7  1  6
  8  6  1  0
  8  9  2  0
 10 11  1  0
 11 12  1  0
 14 13  1  6
 13 12  1  0
 14 15  1  0
 15  8  1  0
 16 14  1  0
 17 16  2  0
 19 18  1  6
 19 21  1  0
 20 19  1  0
 21 23  1  0
 21 22  1  1
 22 16  1  0
 23 25  1  0
 24 23  2  0
M  END
$$$$
