QMT.pdb
     RDKit          3D

 25 24  0  0  1  0  0  0  0  0999 V2000
   19.2437  -16.0549  -15.2056 N   0  0  0  0  0  0  0  0  0  0  0  0
   18.5447  -15.4598  -16.2846 C   0  0  0  0  0  0  0  0  0  0  0  0
   17.6929  -16.1589  -16.8774 O   0  0  0  0  0  0  0  0  0  0  0  0
   18.8646  -14.0721  -16.6326 C   0  0  0  0  0  0  0  0  0  0  0  0
   19.9106  -13.4507  -15.7411 C   0  0  0  0  0  0  0  0  0  0  0  0
   20.1323  -12.0367  -16.2763 C   0  0  2  0  0  0  0  0  0  0  0  0
   20.2029  -12.0669  -17.7204 N   0  0  0  0  0  0  0  0  0  0  0  0
   21.2786  -11.3580  -15.6699 C   0  0  0  0  0  0  0  0  0  0  0  0
   21.3061  -11.1801  -14.4299 O   0  0  0  0  0  0  0  0  0  0  0  0
   29.0128  -11.2838  -16.1595 C   0  0  0  0  0  0  0  0  0  0  0  0
   27.3806  -11.6795  -16.8132 S   0  0  0  0  0  0  0  0  0  0  0  0
   26.1240  -10.6744  -15.9582 C   0  0  0  0  0  0  0  0  0  0  0  0
   24.7821  -11.1509  -16.4427 C   0  0  0  0  0  0  0  0  0  0  0  0
   23.6227  -10.4139  -15.8710 C   0  0  2  0  0  0  0  0  0  0  0  0
   22.3622  -10.8959  -16.4596 N   0  0  0  0  0  0  0  0  0  0  0  0
   23.6956   -8.9393  -15.9778 C   0  0  0  0  0  0  0  0  0  0  0  0
   24.6449   -8.2587  -15.5661 O   0  0  0  0  0  0  0  0  0  0  0  0
   22.9919   -6.7413  -19.1803 C   0  0  0  0  0  0  0  0  0  0  0  0
   22.0804   -6.3344  -18.0279 C   0  0  1  0  0  0  0  0  0  0  0  0
   20.8358   -6.9433  -18.2023 O   0  0  0  0  0  0  0  0  0  0  0  0
   22.6393   -6.7888  -16.7050 C   0  0  2  0  0  0  0  0  0  0  0  0
   22.6184   -8.2270  -16.5893 N   0  0  0  0  0  0  0  0  0  0  0  0
   21.7989   -6.2102  -15.6212 C   0  0  0  0  0  0  0  0  0  0  0  0
   21.0891   -6.9539  -14.9083 O   0  0  0  0  0  0  0  0  0  0  0  0
   21.8059   -4.8360  -15.4034 O   0  0  0  0  0  0  0  0  0  0  0  0
  2  1  1  0
  2  3  2  0
  4  2  1  0
  5  4  1  0
  6  5  1  0
  6  7  1  6
  8  6  1  0
  8  9  2  0
 10 11  1  0
 11 12  1  0
 14 13  1  6
 13 12  1  0
 14 15  1  0
 15  8  1  0
 16 14  1  0
 17 16  2  0
 19 18  1  6
 19 21  1  0
 20 19  1  0
 21 23  1  0
 21 22  1  6
 22 16  1  0
 23 25  1  0
 24 23  2  0
M  END
$$$$
