QMT.pdb
     RDKit          3D

 25 24  0  0  1  0  0  0  0  0999 V2000
   25.2973  -19.8262  -17.4979 N   0  0  0  0  0  0  0  0  0  0  0  0
   26.5321  -20.0499  -18.1553 C   0  0  0  0  0  0  0  0  0  0  0  0
   26.5212  -20.0972  -19.4056 O   0  0  0  0  0  0  0  0  0  0  0  0
   27.7337  -20.2102  -17.3308 C   0  0  0  0  0  0  0  0  0  0  0  0
   27.5134  -19.8935  -15.8726 C   0  0  0  0  0  0  0  0  0  0  0  0
   27.7256  -21.2069  -15.1210 C   0  0  2  0  0  0  0  0  0  0  0  0
   27.7464  -22.3079  -16.0584 N   0  0  0  0  0  0  0  0  0  0  0  0
   26.7722  -21.4135  -14.0298 C   0  0  0  0  0  0  0  0  0  0  0  0
   25.7565  -22.1213  -14.2226 O   0  0  0  0  0  0  0  0  0  0  0  0
   25.6671  -20.4468   -6.2279 C   0  0  0  0  0  0  0  0  0  0  0  0
   26.6640  -20.2059   -7.7099 S   0  0  0  0  0  0  0  0  0  0  0  0
   25.6937  -20.6790   -9.1779 C   0  0  0  0  0  0  0  0  0  0  0  0
   26.6124  -20.5619  -10.3630 C   0  0  0  0  0  0  0  0  0  0  0  0
   25.9970  -20.9498  -11.6611 C   0  0  2  0  0  0  0  0  0  0  0  0
   26.9752  -20.8268  -12.7546 N   0  0  0  0  0  0  0  0  0  0  0  0
   24.7552  -20.2255  -12.0140 C   0  0  0  0  0  0  0  0  0  0  0  0
   24.6481  -18.9917  -12.0198 O   0  0  0  0  0  0  0  0  0  0  0  0
   23.0211  -19.9167  -15.1011 C   0  0  0  0  0  0  0  0  0  0  0  0
   21.9915  -20.5402  -14.1654 C   0  0  1  0  0  0  0  0  0  0  0  0
   21.9612  -21.9190  -14.3844 O   0  0  0  0  0  0  0  0  0  0  0  0
   22.3550  -20.3063  -12.7224 C   0  0  2  0  0  0  0  0  0  0  0  0
   23.5893  -20.9683  -12.3751 N   0  0  0  0  0  0  0  0  0  0  0  0
   21.2632  -20.8551  -11.8724 C   0  0  0  0  0  0  0  0  0  0  0  0
   21.4670  -21.8590  -11.1542 O   0  0  0  0  0  0  0  0  0  0  0  0
   20.0123  -20.2458  -11.8796 O   0  0  0  0  0  0  0  0  0  0  0  0
  2  1  1  0
  2  3  2  0
  4  2  1  0
  5  4  1  0
  6  5  1  0
  6  7  1  6
  8  6  1  0
  8  9  2  0
 10 11  1  0
 11 12  1  0
 14 13  1  1
 13 12  1  0
 14 15  1  0
 15  8  1  0
 16 14  1  0
 17 16  2  0
 19 18  1  6
 19 21  1  0
 20 19  1  0
 21 23  1  0
 21 22  1  1
 22 16  1  0
 23 25  1  0
 24 23  2  0
M  END
$$$$
