QMT.pdb
     RDKit          3D

 25 24  0  0  1  0  0  0  0  0999 V2000
   18.1649  -15.0080  -19.6699 N   0  0  0  0  0  0  0  0  0  0  0  0
   19.0666  -15.2720  -20.7303 C   0  0  0  0  0  0  0  0  0  0  0  0
   18.7984  -16.2269  -21.4930 O   0  0  0  0  0  0  0  0  0  0  0  0
   20.2474  -14.4132  -20.8619 C   0  0  0  0  0  0  0  0  0  0  0  0
   20.2362  -13.2232  -19.9352 C   0  0  0  0  0  0  0  0  0  0  0  0
   21.7011  -12.8464  -19.7180 C   0  0  2  0  0  0  0  0  0  0  0  0
   22.5385  -14.0090  -19.9144 N   0  0  0  0  0  0  0  0  0  0  0  0
   21.9477  -12.1842  -18.4362 C   0  0  0  0  0  0  0  0  0  0  0  0
   21.2539  -12.4907  -17.4389 O   0  0  0  0  0  0  0  0  0  0  0  0
   27.8989  -10.1621  -16.3382 C   0  0  0  0  0  0  0  0  0  0  0  0
   26.8510  -10.8353  -15.0356 S   0  0  0  0  0  0  0  0  0  0  0  0
   25.1286  -10.3060  -15.3076 C   0  0  0  0  0  0  0  0  0  0  0  0
   24.6832  -10.9240  -16.6045 C   0  0  0  0  0  0  0  0  0  0  0  0
   23.2922  -10.5801  -17.0059 C   0  0  2  0  0  0  0  0  0  0  0  0
   22.9590  -11.1993  -18.2994 N   0  0  0  0  0  0  0  0  0  0  0  0
   22.9857   -9.1325  -17.0480 C   0  0  0  0  0  0  0  0  0  0  0  0
   23.6409   -8.3018  -17.6918 O   0  0  0  0  0  0  0  0  0  0  0  0
   20.1025   -7.5021  -18.4498 C   0  0  0  0  0  0  0  0  0  0  0  0
   20.1139   -7.0809  -16.9846 C   0  0  1  0  0  0  0  0  0  0  0  0
   19.2322   -7.8986  -16.2746 O   0  0  0  0  0  0  0  0  0  0  0  0
   21.4850   -7.2420  -16.3823 C   0  0  2  0  0  0  0  0  0  0  0  0
   21.8699   -8.6308  -16.3100 N   0  0  0  0  0  0  0  0  0  0  0  0
   21.4566   -6.6819  -15.0034 C   0  0  0  0  0  0  0  0  0  0  0  0
   21.3466   -5.4484  -14.8258 O   0  0  0  0  0  0  0  0  0  0  0  0
   21.5530   -7.5375  -13.9104 O   0  0  0  0  0  0  0  0  0  0  0  0
  2  1  1  0
  2  3  2  0
  4  2  1  0
  5  4  1  0
  6  5  1  0
  6  7  1  1
  8  6  1  0
  8  9  2  0
 10 11  1  0
 11 12  1  0
 14 13  1  6
 13 12  1  0
 14 15  1  0
 15  8  1  0
 16 14  1  0
 17 16  2  0
 19 18  1  6
 19 21  1  0
 20 19  1  0
 21 23  1  0
 21 22  1  1
 22 16  1  0
 23 25  1  0
 24 23  2  0
M  END
$$$$
