QMT.pdb
     RDKit          3D

 25 24  0  0  1  0  0  0  0  0999 V2000
   26.8325  -20.9830  -19.0160 N   0  0  0  0  0  0  0  0  0  0  0  0
   28.1566  -20.6393  -18.6476 C   0  0  0  0  0  0  0  0  0  0  0  0
   28.9041  -20.1799  -19.5397 O   0  0  0  0  0  0  0  0  0  0  0  0
   28.5600  -20.8440  -17.2532 C   0  0  0  0  0  0  0  0  0  0  0  0
   27.4325  -21.2910  -16.3566 C   0  0  0  0  0  0  0  0  0  0  0  0
   28.0130  -21.3388  -14.9439 C   0  0  2  0  0  0  0  0  0  0  0  0
   29.0989  -22.2927  -14.8945 N   0  0  0  0  0  0  0  0  0  0  0  0
   27.0060  -21.5769  -13.9087 C   0  0  0  0  0  0  0  0  0  0  0  0
   26.1262  -22.4500  -14.0918 O   0  0  0  0  0  0  0  0  0  0  0  0
   27.7268  -20.7963   -7.4427 C   0  0  0  0  0  0  0  0  0  0  0  0
   26.1898  -19.9097   -7.7580 S   0  0  0  0  0  0  0  0  0  0  0  0
   25.4026  -20.5747   -9.2609 C   0  0  0  0  0  0  0  0  0  0  0  0
   26.4198  -20.4771  -10.3645 C   0  0  0  0  0  0  0  0  0  0  0  0
   25.9484  -20.9786  -11.6838 C   0  0  2  0  0  0  0  0  0  0  0  0
   27.0055  -20.8370  -12.6988 N   0  0  0  0  0  0  0  0  0  0  0  0
   24.6921  -20.3721  -12.1789 C   0  0  0  0  0  0  0  0  0  0  0  0
   24.5740  -19.1815  -12.4986 O   0  0  0  0  0  0  0  0  0  0  0  0
   22.9415  -21.1597  -15.2258 C   0  0  0  0  0  0  0  0  0  0  0  0
   21.9117  -21.3828  -14.1239 C   0  0  1  0  0  0  0  0  0  0  0  0
   21.8483  -22.7480  -13.8370 O   0  0  0  0  0  0  0  0  0  0  0  0
   22.3001  -20.6596  -12.8610 C   0  0  2  0  0  0  0  0  0  0  0  0
   23.5244  -21.1855  -12.3070 N   0  0  0  0  0  0  0  0  0  0  0  0
   21.2086  -20.8418  -11.8655 C   0  0  0  0  0  0  0  0  0  0  0  0
   21.4349  -21.4213  -10.7801 O   0  0  0  0  0  0  0  0  0  0  0  0
   19.9325  -20.3639  -12.1474 O   0  0  0  0  0  0  0  0  0  0  0  0
  2  1  1  0
  2  3  2  0
  4  2  1  0
  5  4  1  0
  6  5  1  0
  6  7  1  6
  8  6  1  0
  8  9  2  0
 10 11  1  0
 11 12  1  0
 14 13  1  1
 13 12  1  0
 14 15  1  0
 15  8  1  0
 16 14  1  0
 17 16  2  0
 19 18  1  6
 19 21  1  0
 20 19  1  0
 21 23  1  0
 21 22  1  1
 22 16  1  0
 23 25  1  0
 24 23  2  0
M  END
$$$$
