QMT.pdb
     RDKit          3D

 25 24  0  0  1  0  0  0  0  0999 V2000
   27.6118  -23.0119  -17.3204 N   0  0  0  0  0  0  0  0  0  0  0  0
   28.6352  -22.0329  -17.3558 C   0  0  0  0  0  0  0  0  0  0  0  0
   29.1021  -21.7249  -18.4750 O   0  0  0  0  0  0  0  0  0  0  0  0
   29.0764  -21.4496  -16.0852 C   0  0  0  0  0  0  0  0  0  0  0  0
   28.3043  -21.9492  -14.8897 C   0  0  0  0  0  0  0  0  0  0  0  0
   27.2704  -20.8687  -14.5762 C   0  0  2  0  0  0  0  0  0  0  0  0
   27.9421  -19.6482  -14.1880 N   0  0  0  0  0  0  0  0  0  0  0  0
   26.2633  -21.2921  -13.6021 C   0  0  0  0  0  0  0  0  0  0  0  0
   25.6054  -22.3383  -13.8087 O   0  0  0  0  0  0  0  0  0  0  0  0
   28.2110  -20.6350   -7.1343 C   0  0  0  0  0  0  0  0  0  0  0  0
   26.6731  -20.0885   -7.8985 S   0  0  0  0  0  0  0  0  0  0  0  0
   26.5044  -20.8583   -9.5415 C   0  0  0  0  0  0  0  0  0  0  0  0
   25.2214  -20.3432  -10.1338 C   0  0  0  0  0  0  0  0  0  0  0  0
   24.9197  -20.8603  -11.4961 C   0  0  2  0  0  0  0  0  0  0  0  0
   26.0158  -20.5400  -12.4254 N   0  0  0  0  0  0  0  0  0  0  0  0
   23.6290  -20.4169  -12.0695 C   0  0  0  0  0  0  0  0  0  0  0  0
   23.2903  -19.2312  -12.1842 O   0  0  0  0  0  0  0  0  0  0  0  0
   22.3670  -21.1518  -15.5087 C   0  0  0  0  0  0  0  0  0  0  0  0
   21.3245  -21.6729  -14.5258 C   0  0  1  0  0  0  0  0  0  0  0  0
   21.5161  -23.0453  -14.3525 O   0  0  0  0  0  0  0  0  0  0  0  0
   21.4650  -21.0100  -13.1806 C   0  0  2  0  0  0  0  0  0  0  0  0
   22.6936  -21.3945  -12.5285 N   0  0  0  0  0  0  0  0  0  0  0  0
   20.3197  -21.4352  -12.3301 C   0  0  0  0  0  0  0  0  0  0  0  0
   20.5134  -22.1537  -11.3244 O   0  0  0  0  0  0  0  0  0  0  0  0
   19.0299  -21.0293  -12.6586 O   0  0  0  0  0  0  0  0  0  0  0  0
  2  1  1  0
  2  3  2  0
  4  2  1  0
  5  4  1  0
  6  5  1  0
  6  7  1  1
  8  6  1  0
  8  9  2  0
 10 11  1  0
 11 12  1  0
 14 13  1  1
 13 12  1  0
 14 15  1  0
 15  8  1  0
 16 14  1  0
 17 16  2  0
 19 18  1  6
 19 21  1  0
 20 19  1  0
 21 23  1  0
 21 22  1  1
 22 16  1  0
 23 25  1  0
 24 23  2  0
M  END
$$$$
