QMT.pdb
     RDKit          3D

 25 24  0  0  1  0  0  0  0  0999 V2000
   28.0116  -21.2432  -18.2954 N   0  0  0  0  0  0  0  0  0  0  0  0
   28.9573  -20.3493  -17.7354 C   0  0  0  0  0  0  0  0  0  0  0  0
   29.9840  -20.0996  -18.4054 O   0  0  0  0  0  0  0  0  0  0  0  0
   28.6709  -19.7798  -16.4152 C   0  0  0  0  0  0  0  0  0  0  0  0
   27.3337  -20.1950  -15.8544 C   0  0  0  0  0  0  0  0  0  0  0  0
   27.6262  -20.8229  -14.4924 C   0  0  2  0  0  0  0  0  0  0  0  0
   28.5461  -21.9274  -14.6515 N   0  0  0  0  0  0  0  0  0  0  0  0
   26.4197  -21.1963  -13.7527 C   0  0  0  0  0  0  0  0  0  0  0  0
   25.5817  -21.9618  -14.2834 O   0  0  0  0  0  0  0  0  0  0  0  0
   26.6220  -19.0768   -7.7855 C   0  0  0  0  0  0  0  0  0  0  0  0
   26.3674  -20.8600   -7.8435 S   0  0  0  0  0  0  0  0  0  0  0  0
   26.3379  -21.4129   -9.5796 C   0  0  0  0  0  0  0  0  0  0  0  0
   25.1636  -20.7362  -10.2318 C   0  0  0  0  0  0  0  0  0  0  0  0
   24.9796  -21.0709  -11.6700 C   0  0  2  0  0  0  0  0  0  0  0  0
   26.1788  -20.7077  -12.4432 N   0  0  0  0  0  0  0  0  0  0  0  0
   23.7763  -20.4888  -12.3060 C   0  0  0  0  0  0  0  0  0  0  0  0
   23.6387  -19.2848  -12.5612 O   0  0  0  0  0  0  0  0  0  0  0  0
   22.3683  -21.0286  -15.6113 C   0  0  0  0  0  0  0  0  0  0  0  0
   21.2656  -21.4289  -14.6375 C   0  0  1  0  0  0  0  0  0  0  0  0
   21.2729  -22.8181  -14.4962 O   0  0  0  0  0  0  0  0  0  0  0  0
   21.4929  -20.8218  -13.2779 C   0  0  2  0  0  0  0  0  0  0  0  0
   22.6877  -21.3440  -12.6598 N   0  0  0  0  0  0  0  0  0  0  0  0
   20.3250  -21.1559  -12.4176 C   0  0  0  0  0  0  0  0  0  0  0  0
   20.4712  -21.8833  -11.4103 O   0  0  0  0  0  0  0  0  0  0  0  0
   19.0673  -20.6549  -12.7388 O   0  0  0  0  0  0  0  0  0  0  0  0
  2  1  1  0
  2  3  2  0
  4  2  1  0
  5  4  1  0
  6  5  1  0
  6  7  1  6
  8  6  1  0
  8  9  2  0
 10 11  1  0
 11 12  1  0
 14 13  1  1
 13 12  1  0
 14 15  1  0
 15  8  1  0
 16 14  1  0
 17 16  2  0
 19 18  1  6
 19 21  1  0
 20 19  1  0
 21 23  1  0
 21 22  1  1
 22 16  1  0
 23 25  1  0
 24 23  2  0
M  END
$$$$
