QMT.pdb
     RDKit          3D

 25 24  0  0  1  0  0  0  0  0999 V2000
   15.4746   -9.2032  -17.8214 N   0  0  0  0  0  0  0  0  0  0  0  0
   15.7375  -10.4361  -18.4681 C   0  0  0  0  0  0  0  0  0  0  0  0
   14.8884  -10.8515  -19.2879 O   0  0  0  0  0  0  0  0  0  0  0  0
   16.9802  -11.1388  -18.1349 C   0  0  0  0  0  0  0  0  0  0  0  0
   17.8226  -10.4242  -17.1078 C   0  0  0  0  0  0  0  0  0  0  0  0
   19.0475  -11.3089  -16.8803 C   0  0  2  0  0  0  0  0  0  0  0  0
   18.6251  -12.6466  -16.5288 N   0  0  0  0  0  0  0  0  0  0  0  0
   20.0002  -10.7481  -15.9209 C   0  0  0  0  0  0  0  0  0  0  0  0
   19.7953  -10.8886  -14.6929 O   0  0  0  0  0  0  0  0  0  0  0  0
   26.7599   -9.9928  -16.1350 C   0  0  0  0  0  0  0  0  0  0  0  0
   25.9173  -10.3992  -14.5945 S   0  0  0  0  0  0  0  0  0  0  0  0
   24.3894   -9.4154  -14.4604 C   0  0  0  0  0  0  0  0  0  0  0  0
   23.3656  -10.0796  -15.3396 C   0  0  0  0  0  0  0  0  0  0  0  0
   22.0637   -9.3634  -15.4196 C   0  0  2  0  0  0  0  0  0  0  0  0
   21.1541  -10.0466  -16.3543 N   0  0  0  0  0  0  0  0  0  0  0  0
   22.1523   -7.9266  -15.7646 C   0  0  0  0  0  0  0  0  0  0  0  0
   22.7627   -7.4842  -16.7472 O   0  0  0  0  0  0  0  0  0  0  0  0
   19.5012   -5.5068  -16.6459 C   0  0  0  0  0  0  0  0  0  0  0  0
   20.1821   -4.9689  -15.3923 C   0  0  1  0  0  0  0  0  0  0  0  0
   19.4238   -5.3323  -14.2774 O   0  0  0  0  0  0  0  0  0  0  0  0
   21.5605   -5.5536  -15.2279 C   0  0  2  0  0  0  0  0  0  0  0  0
   21.5034   -6.9646  -14.9310 N   0  0  0  0  0  0  0  0  0  0  0  0
   22.2311   -4.8545  -14.0977 C   0  0  0  0  0  0  0  0  0  0  0  0
   22.5158   -5.4772  -13.0506 O   0  0  0  0  0  0  0  0  0  0  0  0
   22.5408   -3.5027  -14.2105 O   0  0  0  0  0  0  0  0  0  0  0  0
  2  1  1  0
  2  3  2  0
  4  2  1  0
  5  4  1  0
  6  5  1  0
  6  7  1  1
  8  6  1  0
  8  9  2  0
 10 11  1  0
 11 12  1  0
 14 13  1  6
 13 12  1  0
 14 15  1  0
 15  8  1  0
 16 14  1  0
 17 16  2  0
 19 18  1  6
 19 21  1  0
 20 19  1  0
 21 23  1  0
 21 22  1  1
 22 16  1  0
 23 25  1  0
 24 23  2  0
M  END
$$$$
