IGK.pdb
     RDKit          3D

 22 21  0  0  1  0  0  0  0  0999 V2000
    7.7845  -11.8097   21.6954 C   0  0  0  0  0  0  0  0  0  0  0  0
    7.7796  -13.2804   21.9258 C   0  0  0  0  0  0  0  0  0  0  0  0
    8.0641  -14.1422   20.7505 C   0  0  2  0  0  0  0  0  0  0  0  0
    6.8898  -13.9257   19.7728 C   0  0  0  0  0  0  0  0  0  0  0  0
    8.1963  -15.6070   21.0247 C   0  0  2  0  0  0  0  0  0  0  0  0
    7.0214  -16.1319   21.7276 N   0  0  0  0  0  0  0  0  0  0  0  0
    9.4360  -16.0147   21.7053 C   0  0  0  0  0  0  0  0  0  0  0  0
   10.5499  -15.6673   21.2415 O   0  0  0  0  0  0  0  0  0  0  0  0
    9.4071  -16.8060   22.8936 N   0  0  0  0  0  0  0  0  0  0  0  0
   10.6617  -17.2608   23.4452 C   0  0  0  0  0  0  0  0  0  0  0  0
   11.0140  -16.4620   24.6576 C   0  0  0  0  0  0  0  0  0  0  0  0
   12.2090  -16.1437   24.9150 O   0  0  0  0  0  0  0  0  0  0  0  0
   10.0242  -16.0232   25.5764 N   0  0  0  0  0  0  0  0  0  0  0  0
   10.3456  -15.4344   26.8737 C   0  0  1  0  0  0  0  0  0  0  0  0
    9.6100  -14.1480   26.9757 C   0  0  0  0  0  0  0  0  0  0  0  0
    8.1861  -14.1500   26.5678 C   0  0  0  0  0  0  0  0  0  0  0  0
    7.4693  -12.8372   26.6248 C   0  0  0  0  0  0  0  0  0  0  0  0
    6.0124  -12.9705   26.1844 C   0  0  0  0  0  0  0  0  0  0  0  0
    5.4284  -11.6417   26.3722 N   0  0  0  0  0  0  0  0  0  0  0  0
   10.2322  -16.3849   27.9639 C   0  0  0  0  0  0  0  0  0  0  0  0
   10.5629  -16.1789   29.1517 O   0  0  0  0  0  0  0  0  0  0  0  0
    9.7092  -17.6721   27.7164 O   0  0  0  0  0  0  0  0  0  0  0  0
  2  1  1  0
  2  3  1  0
  3  4  1  6
  5  3  1  0
  5  7  1  0
  5  6  1  1
  7  9  1  0
  8  7  2  0
  9 10  1  0
 11 13  1  0
 11 10  1  0
 12 11  2  0
 14 13  1  0
 14 15  1  1
 15 16  1  0
 17 16  1  0
 17 18  1  0
 19 18  1  0
 20 14  1  0
 21 20  2  0
 22 20  1  0
M  END
$$$$
