IGK.pdb
     RDKit          3D

 22 21  0  0  1  0  0  0  0  0999 V2000
    7.2253  -12.2424   21.0225 C   0  0  0  0  0  0  0  0  0  0  0  0
    7.5537  -13.5258   20.3434 C   0  0  0  0  0  0  0  0  0  0  0  0
    8.7385  -13.5245   19.4483 C   0  0  2  0  0  0  0  0  0  0  0  0
    8.4125  -12.5276   18.3162 C   0  0  0  0  0  0  0  0  0  0  0  0
    9.1042  -14.8407   18.8381 C   0  0  2  0  0  0  0  0  0  0  0  0
    8.7229  -15.9607   19.7042 N   0  0  0  0  0  0  0  0  0  0  0  0
   10.5047  -14.9705   18.4044 C   0  0  0  0  0  0  0  0  0  0  0  0
   10.7729  -15.1258   17.1877 O   0  0  0  0  0  0  0  0  0  0  0  0
   11.5812  -14.9256   19.3414 N   0  0  0  0  0  0  0  0  0  0  0  0
   12.9138  -14.6779   18.8433 C   0  0  0  0  0  0  0  0  0  0  0  0
   13.8848  -14.6059   19.9764 C   0  0  0  0  0  0  0  0  0  0  0  0
   13.9734  -13.5789   20.7066 O   0  0  0  0  0  0  0  0  0  0  0  0
   14.7527  -15.6863   20.2861 N   0  0  0  0  0  0  0  0  0  0  0  0
   14.7735  -16.3439   21.5899 C   0  0  1  0  0  0  0  0  0  0  0  0
   13.5432  -17.1697   21.6941 C   0  0  0  0  0  0  0  0  0  0  0  0
   12.3835  -16.5687   22.3926 C   0  0  0  0  0  0  0  0  0  0  0  0
   11.1522  -17.4132   22.4989 C   0  0  0  0  0  0  0  0  0  0  0  0
   10.0605  -16.7187   23.3115 C   0  0  0  0  0  0  0  0  0  0  0  0
    8.9351  -17.6542   23.3263 N   0  0  0  0  0  0  0  0  0  0  0  0
   16.0511  -16.9654   21.8836 C   0  0  0  0  0  0  0  0  0  0  0  0
   16.8520  -17.4254   21.0411 O   0  0  0  0  0  0  0  0  0  0  0  0
   16.4762  -17.0883   23.2238 O   0  0  0  0  0  0  0  0  0  0  0  0
  2  1  1  0
  2  3  1  0
  3  4  1  6
  5  3  1  0
  5  7  1  0
  5  6  1  1
  7  9  1  0
  8  7  2  0
  9 10  1  0
 11 13  1  0
 11 10  1  0
 12 11  2  0
 14 13  1  0
 14 15  1  6
 15 16  1  0
 17 16  1  0
 17 18  1  0
 19 18  1  0
 20 14  1  0
 21 20  2  0
 22 20  1  0
M  END
$$$$
