IGK.pdb
     RDKit          3D

 22 21  0  0  1  0  0  0  0  0999 V2000
    6.0621  -11.2715   27.1878 C   0  0  0  0  0  0  0  0  0  0  0  0
    5.9107  -12.6450   26.6341 C   0  0  0  0  0  0  0  0  0  0  0  0
    7.0564  -13.1828   25.8576 C   0  0  2  0  0  0  0  0  0  0  0  0
    7.2284  -12.2393   24.6485 C   0  0  0  0  0  0  0  0  0  0  0  0
    6.9113  -14.5847   25.3554 C   0  0  2  0  0  0  0  0  0  0  0  0
    6.5521  -15.5095   26.4351 N   0  0  0  0  0  0  0  0  0  0  0  0
    8.0527  -15.1026   24.5839 C   0  0  0  0  0  0  0  0  0  0  0  0
    9.1635  -15.2722   25.1440 O   0  0  0  0  0  0  0  0  0  0  0  0
    7.9309  -15.4205   23.1971 N   0  0  0  0  0  0  0  0  0  0  0  0
    9.1313  -15.7300   22.4566 C   0  0  0  0  0  0  0  0  0  0  0  0
    9.7595  -16.9774   22.9870 C   0  0  0  0  0  0  0  0  0  0  0  0
    9.1190  -17.7775   23.7255 O   0  0  0  0  0  0  0  0  0  0  0  0
   11.1038  -17.3226   22.6868 N   0  0  0  0  0  0  0  0  0  0  0  0
   11.7296  -18.5613   23.1417 C   0  0  1  0  0  0  0  0  0  0  0  0
   12.4367  -19.1581   21.9797 C   0  0  0  0  0  0  0  0  0  0  0  0
   11.9568  -18.7805   20.6302 C   0  0  0  0  0  0  0  0  0  0  0  0
   12.6970  -19.3632   19.4669 C   0  0  0  0  0  0  0  0  0  0  0  0
   12.1898  -18.8040   18.1385 C   0  0  0  0  0  0  0  0  0  0  0  0
   13.0175  -19.4374   17.1111 N   0  0  0  0  0  0  0  0  0  0  0  0
   12.4581  -18.3970   24.3855 C   0  0  0  0  0  0  0  0  0  0  0  0
   12.8985  -17.3184   24.8386 O   0  0  0  0  0  0  0  0  0  0  0  0
   12.7215  -19.5231   25.1944 O   0  0  0  0  0  0  0  0  0  0  0  0
  2  1  1  0
  2  3  1  0
  3  4  1  6
  5  3  1  0
  5  7  1  0
  5  6  1  1
  7  9  1  0
  8  7  2  0
  9 10  1  0
 11 13  1  0
 11 10  1  0
 12 11  2  0
 14 13  1  0
 14 15  1  6
 15 16  1  0
 17 16  1  0
 17 18  1  0
 19 18  1  0
 20 14  1  0
 21 20  2  0
 22 20  1  0
M  END
$$$$
