IGK.pdb
     RDKit          3D

 22 21  0  0  1  0  0  0  0  0999 V2000
    7.0023  -12.1698   18.8229 C   0  0  0  0  0  0  0  0  0  0  0  0
    7.6311  -13.4266   19.3140 C   0  0  0  0  0  0  0  0  0  0  0  0
    7.4467  -13.7489   20.7517 C   0  0  2  0  0  0  0  0  0  0  0  0
    8.1899  -12.6440   21.5318 C   0  0  0  0  0  0  0  0  0  0  0  0
    7.9610  -15.0808   21.1990 C   0  0  2  0  0  0  0  0  0  0  0  0
    7.2302  -16.1818   20.5635 N   0  0  0  0  0  0  0  0  0  0  0  0
    8.0325  -15.2753   22.6562 C   0  0  0  0  0  0  0  0  0  0  0  0
    8.8636  -14.6246   23.3361 O   0  0  0  0  0  0  0  0  0  0  0  0
    7.1724  -16.1967   23.3272 N   0  0  0  0  0  0  0  0  0  0  0  0
    7.2315  -16.2649   24.7684 C   0  0  0  0  0  0  0  0  0  0  0  0
    8.0807  -17.4166   25.1977 C   0  0  0  0  0  0  0  0  0  0  0  0
    7.6029  -18.3782   25.8632 O   0  0  0  0  0  0  0  0  0  0  0  0
    9.4628  -17.4853   24.8788 N   0  0  0  0  0  0  0  0  0  0  0  0
   10.3006  -18.6358   25.2066 C   0  0  1  0  0  0  0  0  0  0  0  0
   11.1967  -18.8813   24.0477 C   0  0  0  0  0  0  0  0  0  0  0  0
   10.5804  -18.8598   22.7009 C   0  0  0  0  0  0  0  0  0  0  0  0
   11.5053  -19.0306   21.5365 C   0  0  0  0  0  0  0  0  0  0  0  0
   10.7759  -18.8510   20.2059 C   0  0  0  0  0  0  0  0  0  0  0  0
   11.7938  -19.0610   19.1755 N   0  0  0  0  0  0  0  0  0  0  0  0
   10.8895  -18.5412   26.5291 C   0  0  0  0  0  0  0  0  0  0  0  0
   10.9459  -17.5097   27.2330 O   0  0  0  0  0  0  0  0  0  0  0  0
   11.4654  -19.6860   27.1205 O   0  0  0  0  0  0  0  0  0  0  0  0
  2  1  1  0
  2  3  1  0
  3  4  1  1
  5  3  1  0
  5  7  1  0
  5  6  1  6
  7  9  1  0
  8  7  2  0
  9 10  1  0
 11 13  1  0
 11 10  1  0
 12 11  2  0
 14 13  1  0
 14 15  1  6
 15 16  1  0
 17 16  1  0
 17 18  1  0
 19 18  1  0
 20 14  1  0
 21 20  2  0
 22 20  1  0
M  END
$$$$
