IGK.pdb
     RDKit          3D

 22 21  0  0  1  0  0  0  0  0999 V2000
    7.4440  -11.6764   19.3158 C   0  0  0  0  0  0  0  0  0  0  0  0
    7.5462  -13.0842   18.8429 C   0  0  0  0  0  0  0  0  0  0  0  0
    7.9501  -14.0995   19.8484 C   0  0  2  0  0  0  0  0  0  0  0  0
    9.3288  -13.6483   20.3752 C   0  0  0  0  0  0  0  0  0  0  0  0
    8.0626  -15.5072   19.3542 C   0  0  2  0  0  0  0  0  0  0  0  0
    6.8276  -15.9482   18.6981 N   0  0  0  0  0  0  0  0  0  0  0  0
    8.5043  -16.4953   20.3516 C   0  0  0  0  0  0  0  0  0  0  0  0
    7.6929  -16.9317   21.2046 O   0  0  0  0  0  0  0  0  0  0  0  0
    9.8483  -16.9771   20.3773 N   0  0  0  0  0  0  0  0  0  0  0  0
   10.2257  -17.9005   21.4213 C   0  0  0  0  0  0  0  0  0  0  0  0
   10.7058  -17.1546   22.6235 C   0  0  0  0  0  0  0  0  0  0  0  0
   10.9209  -15.9104   22.5869 O   0  0  0  0  0  0  0  0  0  0  0  0
   10.9427  -17.8074   23.8621 N   0  0  0  0  0  0  0  0  0  0  0  0
   11.3645  -17.1002   25.0683 C   0  0  1  0  0  0  0  0  0  0  0  0
   10.7010  -17.7539   26.2253 C   0  0  0  0  0  0  0  0  0  0  0  0
    9.3128  -18.2311   26.0267 C   0  0  0  0  0  0  0  0  0  0  0  0
    8.6242  -18.8101   27.2230 C   0  0  0  0  0  0  0  0  0  0  0  0
    7.2516  -19.3774   26.8639 C   0  0  0  0  0  0  0  0  0  0  0  0
    7.3743  -20.8254   27.0373 N   0  0  0  0  0  0  0  0  0  0  0  0
   12.7990  -16.8895   25.1214 C   0  0  0  0  0  0  0  0  0  0  0  0
   13.4000  -16.1455   25.9263 O   0  0  0  0  0  0  0  0  0  0  0  0
   13.6375  -17.5591   24.2047 O   0  0  0  0  0  0  0  0  0  0  0  0
  2  1  1  0
  2  3  1  0
  3  4  1  6
  5  3  1  0
  5  7  1  0
  5  6  1  1
  7  9  1  0
  8  7  2  0
  9 10  1  0
 11 13  1  0
 11 10  1  0
 12 11  2  0
 14 13  1  0
 14 15  1  1
 15 16  1  0
 17 16  1  0
 17 18  1  0
 19 18  1  0
 20 14  1  0
 21 20  2  0
 22 20  1  0
M  END
$$$$
