IGK.pdb
     RDKit          3D

 22 21  0  0  1  0  0  0  0  0999 V2000
    6.2242  -11.3057   27.5630 C   0  0  0  0  0  0  0  0  0  0  0  0
    5.8889  -11.9708   26.2742 C   0  0  0  0  0  0  0  0  0  0  0  0
    7.0140  -12.5898   25.5287 C   0  0  2  0  0  0  0  0  0  0  0  0
    7.6137  -11.4659   24.6576 C   0  0  0  0  0  0  0  0  0  0  0  0
    6.6623  -13.7453   24.6457 C   0  0  2  0  0  0  0  0  0  0  0  0
    6.0385  -14.8335   25.4051 N   0  0  0  0  0  0  0  0  0  0  0  0
    7.7573  -14.2570   23.8058 C   0  0  0  0  0  0  0  0  0  0  0  0
    8.5067  -13.4558   23.1951 O   0  0  0  0  0  0  0  0  0  0  0  0
    7.9936  -15.6580   23.6631 N   0  0  0  0  0  0  0  0  0  0  0  0
    9.1522  -16.0851   22.9145 C   0  0  0  0  0  0  0  0  0  0  0  0
   10.0764  -16.8652   23.7916 C   0  0  0  0  0  0  0  0  0  0  0  0
   11.1029  -17.4367   23.3275 O   0  0  0  0  0  0  0  0  0  0  0  0
    9.8457  -17.0010   25.1862 N   0  0  0  0  0  0  0  0  0  0  0  0
    9.9402  -18.2775   25.8894 C   0  0  1  0  0  0  0  0  0  0  0  0
    8.6066  -18.9276   25.8178 C   0  0  0  0  0  0  0  0  0  0  0  0
    8.5004  -20.3105   26.3378 C   0  0  0  0  0  0  0  0  0  0  0  0
    8.2221  -20.4582   27.8011 C   0  0  0  0  0  0  0  0  0  0  0  0
    8.1250  -21.9269   28.2111 C   0  0  0  0  0  0  0  0  0  0  0  0
    7.9512  -21.9119   29.6642 N   0  0  0  0  0  0  0  0  0  0  0  0
   11.1070  -19.0467   25.4998 C   0  0  0  0  0  0  0  0  0  0  0  0
   11.3609  -19.4577   24.3468 O   0  0  0  0  0  0  0  0  0  0  0  0
   12.0729  -19.3900   26.4698 O   0  0  0  0  0  0  0  0  0  0  0  0
  2  1  1  0
  2  3  1  0
  3  4  1  6
  5  3  1  0
  5  7  1  0
  5  6  1  1
  7  9  1  0
  8  7  2  0
  9 10  1  0
 11 13  1  0
 11 10  1  0
 12 11  2  0
 14 13  1  0
 14 15  1  6
 15 16  1  0
 17 16  1  0
 17 18  1  0
 19 18  1  0
 20 14  1  0
 21 20  2  0
 22 20  1  0
M  END
$$$$
