IGK.pdb
     RDKit          3D

 22 21  0  0  1  0  0  0  0  0999 V2000
    6.0625  -11.1961   27.2538 C   0  0  0  0  0  0  0  0  0  0  0  0
    6.1702  -12.3209   26.2846 C   0  0  0  0  0  0  0  0  0  0  0  0
    6.8819  -13.5383   26.7498 C   0  0  2  0  0  0  0  0  0  0  0  0
    8.2899  -13.0696   27.1736 C   0  0  0  0  0  0  0  0  0  0  0  0
    7.0244  -14.6407   25.7484 C   0  0  2  0  0  0  0  0  0  0  0  0
    5.7266  -15.0318   25.1891 N   0  0  0  0  0  0  0  0  0  0  0  0
    7.7707  -15.8226   26.2093 C   0  0  0  0  0  0  0  0  0  0  0  0
    8.9739  -15.7112   26.5503 O   0  0  0  0  0  0  0  0  0  0  0  0
    7.1568  -17.1099   26.2792 N   0  0  0  0  0  0  0  0  0  0  0  0
    7.8878  -18.1849   26.9077 C   0  0  0  0  0  0  0  0  0  0  0  0
    8.9291  -18.7161   25.9774 C   0  0  0  0  0  0  0  0  0  0  0  0
    9.0484  -19.9541   25.7564 O   0  0  0  0  0  0  0  0  0  0  0  0
    9.8327  -17.8563   25.2986 N   0  0  0  0  0  0  0  0  0  0  0  0
   10.8656  -18.3436   24.3883 C   0  0  1  0  0  0  0  0  0  0  0  0
   10.7502  -17.5700   23.1256 C   0  0  0  0  0  0  0  0  0  0  0  0
   11.1286  -18.2625   21.8721 C   0  0  0  0  0  0  0  0  0  0  0  0
   10.2365  -18.0463   20.6898 C   0  0  0  0  0  0  0  0  0  0  0  0
   10.6195  -18.9529   19.5210 C   0  0  0  0  0  0  0  0  0  0  0  0
    9.5281  -18.8203   18.5550 N   0  0  0  0  0  0  0  0  0  0  0  0
   12.1671  -18.4457   25.0210 C   0  0  0  0  0  0  0  0  0  0  0  0
   12.4969  -17.9190   26.1057 O   0  0  0  0  0  0  0  0  0  0  0  0
   13.1894  -19.1937   24.3985 O   0  0  0  0  0  0  0  0  0  0  0  0
  2  1  1  0
  2  3  1  0
  3  4  1  6
  5  3  1  0
  5  7  1  0
  5  6  1  1
  7  9  1  0
  8  7  2  0
  9 10  1  0
 11 13  1  0
 11 10  1  0
 12 11  2  0
 14 13  1  0
 14 15  1  6
 15 16  1  0
 17 16  1  0
 17 18  1  0
 19 18  1  0
 20 14  1  0
 21 20  2  0
 22 20  1  0
M  END
$$$$
