IGK.pdb
     RDKit          3D

 22 21  0  0  1  0  0  0  0  0999 V2000
    7.2243  -11.8443   20.0043 C   0  0  0  0  0  0  0  0  0  0  0  0
    7.1774  -13.3274   19.8848 C   0  0  0  0  0  0  0  0  0  0  0  0
    7.9488  -14.1037   20.8885 C   0  0  2  0  0  0  0  0  0  0  0  0
    9.4254  -13.7009   20.6912 C   0  0  0  0  0  0  0  0  0  0  0  0
    7.8409  -15.5930   20.7936 C   0  0  2  0  0  0  0  0  0  0  0  0
    6.4430  -16.0348   20.8198 N   0  0  0  0  0  0  0  0  0  0  0  0
    8.6449  -16.3496   21.7669 C   0  0  0  0  0  0  0  0  0  0  0  0
    8.0775  -17.0684   22.6258 O   0  0  0  0  0  0  0  0  0  0  0  0
   10.0715  -16.2872   21.7625 N   0  0  0  0  0  0  0  0  0  0  0  0
   10.8045  -17.3042   22.4790 C   0  0  0  0  0  0  0  0  0  0  0  0
   10.7640  -17.0336   23.9477 C   0  0  0  0  0  0  0  0  0  0  0  0
   11.7052  -17.3894   24.7115 O   0  0  0  0  0  0  0  0  0  0  0  0
    9.6679  -16.3647   24.5540 N   0  0  0  0  0  0  0  0  0  0  0  0
    9.5370  -16.1960   25.9987 C   0  0  1  0  0  0  0  0  0  0  0  0
    8.2425  -15.5137   26.2539 C   0  0  0  0  0  0  0  0  0  0  0  0
    8.1944  -14.0504   26.0294 C   0  0  0  0  0  0  0  0  0  0  0  0
    6.9082  -13.3615   26.3638 C   0  0  0  0  0  0  0  0  0  0  0  0
    7.0419  -11.8422   26.2723 C   0  0  0  0  0  0  0  0  0  0  0  0
    5.7681  -11.3119   26.7603 N   0  0  0  0  0  0  0  0  0  0  0  0
    9.8360  -17.4104   26.7339 C   0  0  0  0  0  0  0  0  0  0  0  0
    9.5831  -18.5752   26.3569 O   0  0  0  0  0  0  0  0  0  0  0  0
   10.4674  -17.3267   27.9934 O   0  0  0  0  0  0  0  0  0  0  0  0
  2  1  1  0
  2  3  1  0
  3  4  1  6
  5  3  1  0
  5  7  1  0
  5  6  1  1
  7  9  1  0
  8  7  2  0
  9 10  1  0
 11 13  1  0
 11 10  1  0
 12 11  2  0
 14 13  1  0
 14 15  1  6
 15 16  1  0
 17 16  1  0
 17 18  1  0
 19 18  1  0
 20 14  1  0
 21 20  2  0
 22 20  1  0
M  END
$$$$
