IGK.pdb
     RDKit          3D

 22 21  0  0  1  0  0  0  0  0999 V2000
    6.0950  -11.7209   26.4877 C   0  0  0  0  0  0  0  0  0  0  0  0
    5.7628  -13.0102   25.8217 C   0  0  0  0  0  0  0  0  0  0  0  0
    6.8837  -13.7345   25.1705 C   0  0  2  0  0  0  0  0  0  0  0  0
    7.2417  -12.9165   23.9118 C   0  0  0  0  0  0  0  0  0  0  0  0
    6.6060  -15.1468   24.7620 C   0  0  2  0  0  0  0  0  0  0  0  0
    6.0739  -15.9357   25.8776 N   0  0  0  0  0  0  0  0  0  0  0  0
    7.7243  -15.8500   24.1131 C   0  0  0  0  0  0  0  0  0  0  0  0
    8.3302  -16.7640   24.7246 O   0  0  0  0  0  0  0  0  0  0  0  0
    8.1460  -15.5165   22.7903 N   0  0  0  0  0  0  0  0  0  0  0  0
    9.0476  -16.4167   22.1106 C   0  0  0  0  0  0  0  0  0  0  0  0
   10.3833  -16.4146   22.7799 C   0  0  0  0  0  0  0  0  0  0  0  0
   11.4222  -16.8146   22.1830 O   0  0  0  0  0  0  0  0  0  0  0  0
   10.5483  -15.9638   24.1163 N   0  0  0  0  0  0  0  0  0  0  0  0
   11.8544  -15.8207   24.7540 C   0  0  1  0  0  0  0  0  0  0  0  0
   11.6760  -14.9584   25.9503 C   0  0  0  0  0  0  0  0  0  0  0  0
   11.2298  -15.6190   27.1987 C   0  0  0  0  0  0  0  0  0  0  0  0
   11.0330  -14.7369   28.3919 C   0  0  0  0  0  0  0  0  0  0  0  0
   10.6239  -15.5401   29.6256 C   0  0  0  0  0  0  0  0  0  0  0  0
   10.5419  -14.5638   30.7129 N   0  0  0  0  0  0  0  0  0  0  0  0
   12.5431  -17.0879   24.9108 C   0  0  0  0  0  0  0  0  0  0  0  0
   13.7664  -17.2347   25.1225 O   0  0  0  0  0  0  0  0  0  0  0  0
   11.8149  -18.2938   24.8247 O   0  0  0  0  0  0  0  0  0  0  0  0
  2  1  1  0
  2  3  1  0
  3  4  1  6
  5  3  1  0
  5  7  1  0
  5  6  1  1
  7  9  1  0
  8  7  2  0
  9 10  1  0
 11 13  1  0
 11 10  1  0
 12 11  2  0
 14 13  1  0
 14 15  1  1
 15 16  1  0
 17 16  1  0
 17 18  1  0
 19 18  1  0
 20 14  1  0
 21 20  2  0
 22 20  1  0
M  END
$$$$
