IGK.pdb
     RDKit          3D

 22 21  0  0  1  0  0  0  0  0999 V2000
    7.1972  -12.4348   28.2486 C   0  0  0  0  0  0  0  0  0  0  0  0
    6.6664  -13.4488   27.2968 C   0  0  0  0  0  0  0  0  0  0  0  0
    7.1225  -13.3461   25.8874 C   0  0  2  0  0  0  0  0  0  0  0  0
    6.6021  -11.9877   25.3720 C   0  0  0  0  0  0  0  0  0  0  0  0
    6.6503  -14.4231   24.9624 C   0  0  2  0  0  0  0  0  0  0  0  0
    6.5030  -15.7051   25.6586 N   0  0  0  0  0  0  0  0  0  0  0  0
    7.4355  -14.5875   23.7284 C   0  0  0  0  0  0  0  0  0  0  0  0
    7.6233  -13.6056   22.9687 O   0  0  0  0  0  0  0  0  0  0  0  0
    7.9962  -15.8496   23.3656 N   0  0  0  0  0  0  0  0  0  0  0  0
    8.8670  -15.9077   22.2151 C   0  0  0  0  0  0  0  0  0  0  0  0
   10.2546  -16.2699   22.6339 C   0  0  0  0  0  0  0  0  0  0  0  0
   11.1971  -16.3530   21.7970 O   0  0  0  0  0  0  0  0  0  0  0  0
   10.5795  -16.5375   23.9901 N   0  0  0  0  0  0  0  0  0  0  0  0
   11.9046  -16.9749   24.4212 C   0  0  1  0  0  0  0  0  0  0  0  0
   12.1876  -16.3245   25.7263 C   0  0  0  0  0  0  0  0  0  0  0  0
   11.0240  -15.9778   26.5748 C   0  0  0  0  0  0  0  0  0  0  0  0
   11.3207  -15.3099   27.8811 C   0  0  0  0  0  0  0  0  0  0  0  0
   10.0410  -14.9653   28.6416 C   0  0  0  0  0  0  0  0  0  0  0  0
   10.4877  -14.4511   29.9370 N   0  0  0  0  0  0  0  0  0  0  0  0
   12.0846  -18.4101   24.3097 C   0  0  0  0  0  0  0  0  0  0  0  0
   11.1717  -19.2543   24.1804 O   0  0  0  0  0  0  0  0  0  0  0  0
   13.3858  -18.9555   24.3455 O   0  0  0  0  0  0  0  0  0  0  0  0
  2  1  1  0
  2  3  1  0
  3  4  1  6
  5  3  1  0
  5  7  1  0
  5  6  1  1
  7  9  1  0
  8  7  2  0
  9 10  1  0
 11 13  1  0
 11 10  1  0
 12 11  2  0
 14 13  1  0
 14 15  1  1
 15 16  1  0
 17 16  1  0
 17 18  1  0
 19 18  1  0
 20 14  1  0
 21 20  2  0
 22 20  1  0
M  END
$$$$
