IGK.pdb
     RDKit          3D

 22 21  0  0  1  0  0  0  0  0999 V2000
    6.1589  -11.8122   26.9514 C   0  0  0  0  0  0  0  0  0  0  0  0
    5.8491  -13.0786   26.2329 C   0  0  0  0  0  0  0  0  0  0  0  0
    6.9675  -13.7202   25.4965 C   0  0  2  0  0  0  0  0  0  0  0  0
    7.4010  -12.7057   24.4174 C   0  0  0  0  0  0  0  0  0  0  0  0
    6.6561  -15.0240   24.8319 C   0  0  2  0  0  0  0  0  0  0  0  0
    6.0636  -15.9803   25.7724 N   0  0  0  0  0  0  0  0  0  0  0  0
    7.7702  -15.6409   24.0940 C   0  0  0  0  0  0  0  0  0  0  0  0
    8.3293  -16.6699   24.5467 O   0  0  0  0  0  0  0  0  0  0  0  0
    8.2402  -15.0937   22.8617 N   0  0  0  0  0  0  0  0  0  0  0  0
    9.1126  -15.9009   22.0415 C   0  0  0  0  0  0  0  0  0  0  0  0
   10.4829  -15.9487   22.6348 C   0  0  0  0  0  0  0  0  0  0  0  0
   11.5180  -15.8968   21.9126 O   0  0  0  0  0  0  0  0  0  0  0  0
   10.6868  -16.0548   24.0361 N   0  0  0  0  0  0  0  0  0  0  0  0
   12.0059  -16.2246   24.6393 C   0  0  1  0  0  0  0  0  0  0  0  0
   11.8136  -16.3540   26.1065 C   0  0  0  0  0  0  0  0  0  0  0  0
   11.1862  -15.2108   26.8090 C   0  0  0  0  0  0  0  0  0  0  0  0
   11.0577  -15.3249   28.2959 C   0  0  0  0  0  0  0  0  0  0  0  0
   10.4124  -14.0802   28.9033 C   0  0  0  0  0  0  0  0  0  0  0  0
   10.3824  -14.3251   30.3459 N   0  0  0  0  0  0  0  0  0  0  0  0
   12.8103  -17.2202   23.9563 C   0  0  0  0  0  0  0  0  0  0  0  0
   13.9772  -17.0572   23.5386 O   0  0  0  0  0  0  0  0  0  0  0  0
   12.2759  -18.5039   23.7150 O   0  0  0  0  0  0  0  0  0  0  0  0
  2  1  1  0
  2  3  1  0
  3  4  1  6
  5  3  1  0
  5  7  1  0
  5  6  1  1
  7  9  1  0
  8  7  2  0
  9 10  1  0
 11 13  1  0
 11 10  1  0
 12 11  2  0
 14 13  1  0
 14 15  1  1
 15 16  1  0
 17 16  1  0
 17 18  1  0
 19 18  1  0
 20 14  1  0
 21 20  2  0
 22 20  1  0
M  END
$$$$
