IGK.pdb
     RDKit          3D

 22 21  0  0  1  0  0  0  0  0999 V2000
    6.3430  -11.5547   26.5793 C   0  0  0  0  0  0  0  0  0  0  0  0
    6.0142  -12.9537   26.1912 C   0  0  0  0  0  0  0  0  0  0  0  0
    6.8612  -13.5726   25.1403 C   0  0  2  0  0  0  0  0  0  0  0  0
    6.7326  -12.6609   23.9017 C   0  0  0  0  0  0  0  0  0  0  0  0
    6.5045  -14.9710   24.7459 C   0  0  2  0  0  0  0  0  0  0  0  0
    6.4134  -15.8536   25.9133 N   0  0  0  0  0  0  0  0  0  0  0  0
    7.3529  -15.5712   23.7037 C   0  0  0  0  0  0  0  0  0  0  0  0
    6.8282  -16.2068   22.7564 O   0  0  0  0  0  0  0  0  0  0  0  0
    8.7752  -15.4504   23.7409 N   0  0  0  0  0  0  0  0  0  0  0  0
    9.5244  -15.8025   22.5577 C   0  0  0  0  0  0  0  0  0  0  0  0
   10.9894  -15.7918   22.8505 C   0  0  0  0  0  0  0  0  0  0  0  0
   11.8475  -15.9301   21.9339 O   0  0  0  0  0  0  0  0  0  0  0  0
   11.4861  -15.6259   24.1704 N   0  0  0  0  0  0  0  0  0  0  0  0
   12.6878  -16.2959   24.6602 C   0  0  1  0  0  0  0  0  0  0  0  0
   12.5046  -16.5365   26.1144 C   0  0  0  0  0  0  0  0  0  0  0  0
   11.7393  -15.5223   26.8758 C   0  0  0  0  0  0  0  0  0  0  0  0
   11.6268  -15.7353   28.3531 C   0  0  0  0  0  0  0  0  0  0  0  0
   10.7482  -14.6724   29.0109 C   0  0  0  0  0  0  0  0  0  0  0  0
   10.6359  -15.0770   30.4129 N   0  0  0  0  0  0  0  0  0  0  0  0
   13.0912  -17.4078   23.8201 C   0  0  0  0  0  0  0  0  0  0  0  0
   12.3502  -18.3350   23.4277 O   0  0  0  0  0  0  0  0  0  0  0  0
   14.4285  -17.5001   23.3786 O   0  0  0  0  0  0  0  0  0  0  0  0
  2  1  1  0
  2  3  1  0
  3  4  1  6
  5  3  1  0
  5  7  1  0
  5  6  1  1
  7  9  1  0
  8  7  2  0
  9 10  1  0
 11 13  1  0
 11 10  1  0
 12 11  2  0
 14 13  1  0
 14 15  1  1
 15 16  1  0
 17 16  1  0
 17 18  1  0
 19 18  1  0
 20 14  1  0
 21 20  2  0
 22 20  1  0
M  END
$$$$
