IGK.pdb
     RDKit          3D

 22 21  0  0  1  0  0  0  0  0999 V2000
   -0.5840  -21.7386   21.4435 C   0  0  0  0  0  0  0  0  0  0  0  0
    0.8739  -21.5322   21.2248 C   0  0  0  0  0  0  0  0  0  0  0  0
    1.5825  -20.6741   22.2079 C   0  0  2  0  0  0  0  0  0  0  0  0
    0.9575  -19.2696   22.0718 C   0  0  0  0  0  0  0  0  0  0  0  0
    3.0640  -20.5589   22.0341 C   0  0  2  0  0  0  0  0  0  0  0  0
    3.7147  -21.8724   22.0708 N   0  0  0  0  0  0  0  0  0  0  0  0
    3.7374  -19.6182   22.9440 C   0  0  0  0  0  0  0  0  0  0  0  0
    4.0915  -19.9962   24.0877 O   0  0  0  0  0  0  0  0  0  0  0  0
    4.0017  -18.2692   22.5577 N   0  0  0  0  0  0  0  0  0  0  0  0
    4.5760  -17.3758   23.5360 C   0  0  0  0  0  0  0  0  0  0  0  0
    6.0408  -17.2130   23.2914 C   0  0  0  0  0  0  0  0  0  0  0  0
    6.6525  -17.9234   22.4446 O   0  0  0  0  0  0  0  0  0  0  0  0
    6.8139  -16.2538   23.9975 N   0  0  0  0  0  0  0  0  0  0  0  0
    8.2513  -16.0866   23.8003 C   0  0  1  0  0  0  0  0  0  0  0  0
    8.4535  -14.8404   23.0176 C   0  0  0  0  0  0  0  0  0  0  0  0
    7.8767  -14.7982   21.6539 C   0  0  0  0  0  0  0  0  0  0  0  0
    8.0972  -13.5421   20.8702 C   0  0  0  0  0  0  0  0  0  0  0  0
    7.3612  -13.5762   19.5316 C   0  0  0  0  0  0  0  0  0  0  0  0
    7.6711  -12.2992   18.8873 N   0  0  0  0  0  0  0  0  0  0  0  0
    9.0093  -16.2658   25.0242 C   0  0  0  0  0  0  0  0  0  0  0  0
    8.5503  -16.2023   26.1852 O   0  0  0  0  0  0  0  0  0  0  0  0
   10.3926  -16.5373   24.9554 O   0  0  0  0  0  0  0  0  0  0  0  0
  2  1  1  0
  2  3  1  0
  3  4  1  6
  5  3  1  0
  5  7  1  0
  5  6  1  1
  7  9  1  0
  8  7  2  0
  9 10  1  0
 11 13  1  0
 11 10  1  0
 12 11  2  0
 14 13  1  0
 14 15  1  1
 15 16  1  0
 17 16  1  0
 17 18  1  0
 19 18  1  0
 20 14  1  0
 21 20  2  0
 22 20  1  0
M  END
$$$$
