CLY.pdb
     RDKit          3D

 27 27  0  0  1  0  0  0  0  0999 V2000
   32.1058  -28.0495  -21.0063 N   0  0  0  0  0  0  0  0  0  0  0  0
   30.8179  -28.6368  -20.8224 C   0  0  1  0  0  0  0  0  0  0  0  0
   30.7147  -29.9423  -21.5861 C   0  0  0  0  0  0  0  0  0  0  0  0
   30.8564  -29.6686  -23.3738 S   0  0  0  0  0  0  0  0  0  0  0  0
   30.3889  -28.7559  -19.4307 C   0  0  0  0  0  0  0  0  0  0  0  0
   31.2785  -28.7992  -18.5386 O   0  0  0  0  0  0  0  0  0  0  0  0
   27.2609  -25.4474  -16.8425 C   0  0  0  0  0  0  0  0  0  0  0  0
   28.3034  -26.4565  -17.2854 C   0  0  1  0  0  0  0  0  0  0  0  0
   29.5465  -26.2021  -16.5015 C   0  0  0  0  0  0  0  0  0  0  0  0
   27.7768  -27.8723  -17.0982 C   0  0  0  0  0  0  0  0  0  0  0  0
   28.7271  -28.9087  -17.5971 C   0  0  2  0  0  0  0  0  0  0  0  0
   29.0591  -28.8286  -18.9767 N   0  0  0  0  0  0  0  0  0  0  0  0
   28.0865  -30.2574  -17.3745 C   0  0  0  0  0  0  0  0  0  0  0  0
   27.8064  -30.6212  -16.2038 O   0  0  0  0  0  0  0  0  0  0  0  0
   22.3470  -29.4837  -15.3552 O   0  0  0  0  0  0  0  0  0  0  0  0
   23.1983  -30.2393  -16.1681 C   0  0  0  0  0  0  0  0  0  0  0  0
   23.3576  -31.5860  -15.9182 C   0  0  0  0  0  0  0  0  0  0  0  0
   24.1995  -32.3216  -16.7261 C   0  0  0  0  0  0  0  0  0  0  0  0
   24.8982  -31.7547  -17.7893 C   0  0  0  0  0  0  0  0  0  0  0  0
   25.8111  -32.5564  -18.6189 C   0  0  0  0  0  0  0  0  0  0  0  0
   27.2095  -32.4493  -18.1237 C   0  0  2  0  0  0  0  0  0  0  0  0
   27.7854  -31.1332  -18.4206 N   0  0  0  0  0  0  0  0  0  0  0  0
   28.0957  -33.5281  -18.5770 C   0  0  0  0  0  0  0  0  0  0  0  0
   27.6988  -34.8372  -18.4253 O   0  0  0  0  0  0  0  0  0  0  0  0
   24.7331  -30.4086  -18.0318 C   0  0  0  0  0  0  0  0  0  0  0  0
   23.8899  -29.6675  -17.2240 C   0  0  0  0  0  0  0  0  0  0  0  0
   29.1902  -33.2737  -19.0916 O   0  0  0  0  0  0  0  0  0  0  0  0
  2  1  1  1
  3  2  1  0
  3  4  1  0
  5  6  2  0
  5  2  1  0
  8  7  1  1
  8  9  1  0
 11 10  1  6
 10  8  1  0
 11 12  1  0
 12  5  1  0
 13 11  1  0
 14 13  2  0
 16 17  2  0
 16 15  1  0
 18 17  1  0
 19 18  2  0
 20 19  1  0
 21 20  1  6
 21 22  1  0
 22 13  1  0
 23 21  1  0
 24 23  1  0
 25 19  1  0
 25 26  2  0
 26 16  1  0
 27 23  2  0
M  END
$$$$
