CLY.pdb
     RDKit          3D

 27 27  0  0  1  0  0  0  0  0999 V2000
   26.2025  -22.7157  -19.7520 N   0  0  0  0  0  0  0  0  0  0  0  0
   25.3446  -22.1048  -18.7885 C   0  0  1  0  0  0  0  0  0  0  0  0
   24.2174  -23.0446  -18.4086 C   0  0  0  0  0  0  0  0  0  0  0  0
   22.9019  -23.0288  -19.6576 S   0  0  0  0  0  0  0  0  0  0  0  0
   26.0279  -21.5370  -17.6285 C   0  0  0  0  0  0  0  0  0  0  0  0
   27.1179  -22.0585  -17.2695 O   0  0  0  0  0  0  0  0  0  0  0  0
   26.8132  -16.1759  -16.6919 C   0  0  0  0  0  0  0  0  0  0  0  0
   26.9576  -17.6772  -16.8536 C   0  0  1  0  0  0  0  0  0  0  0  0
   28.4124  -17.9860  -16.9674 C   0  0  0  0  0  0  0  0  0  0  0  0
   26.2997  -18.3970  -15.6849 C   0  0  0  0  0  0  0  0  0  0  0  0
   26.3672  -19.8819  -15.8139 C   0  0  2  0  0  0  0  0  0  0  0  0
   25.5846  -20.4470  -16.8571 N   0  0  0  0  0  0  0  0  0  0  0  0
   25.8688  -20.4738  -14.5176 C   0  0  0  0  0  0  0  0  0  0  0  0
   24.6380  -20.6838  -14.3687 O   0  0  0  0  0  0  0  0  0  0  0  0
   25.2077  -20.4900   -5.8204 O   0  0  0  0  0  0  0  0  0  0  0  0
   25.7135  -20.5689   -7.1221 C   0  0  0  0  0  0  0  0  0  0  0  0
   25.6880  -21.7758   -7.7887 C   0  0  0  0  0  0  0  0  0  0  0  0
   26.1894  -21.8422   -9.0719 C   0  0  0  0  0  0  0  0  0  0  0  0
   26.7229  -20.7330   -9.7238 C   0  0  0  0  0  0  0  0  0  0  0  0
   27.2762  -20.8373  -11.0830 C   0  0  0  0  0  0  0  0  0  0  0  0
   26.1882  -20.8846  -12.0960 C   0  0  2  0  0  0  0  0  0  0  0  0
   26.7207  -20.8042  -13.4606 N   0  0  0  0  0  0  0  0  0  0  0  0
   25.1229  -19.8969  -11.8856 C   0  0  0  0  0  0  0  0  0  0  0  0
   23.9513  -20.2859  -11.2770 O   0  0  0  0  0  0  0  0  0  0  0  0
   26.7445  -19.5313   -9.0503 C   0  0  0  0  0  0  0  0  0  0  0  0
   26.2428  -19.4604   -7.7636 C   0  0  0  0  0  0  0  0  0  0  0  0
   25.2669  -18.7241  -12.2480 O   0  0  0  0  0  0  0  0  0  0  0  0
  2  1  1  6
  3  2  1  0
  3  4  1  0
  5  6  2  0
  5  2  1  0
  8  7  1  1
  8  9  1  0
 11 10  1  1
 10  8  1  0
 11 12  1  0
 12  5  1  0
 13 11  1  0
 14 13  2  0
 16 17  2  0
 16 15  1  0
 18 17  1  0
 19 18  2  0
 20 19  1  0
 21 20  1  1
 21 22  1  0
 22 13  1  0
 23 21  1  0
 24 23  1  0
 25 19  1  0
 25 26  2  0
 26 16  1  0
 27 23  2  0
M  END
$$$$
