CLY.pdb
     RDKit          3D

 27 27  0  0  1  0  0  0  0  0999 V2000
   28.5684  -20.1428  -15.6941 N   0  0  0  0  0  0  0  0  0  0  0  0
   27.8232  -19.6691  -14.5726 C   0  0  1  0  0  0  0  0  0  0  0  0
   26.7079  -18.7479  -15.0260 C   0  0  0  0  0  0  0  0  0  0  0  0
   27.3481  -17.4059  -16.0653 S   0  0  0  0  0  0  0  0  0  0  0  0
   27.3648  -20.7093  -13.6546 C   0  0  0  0  0  0  0  0  0  0  0  0
   27.2021  -21.8727  -14.1119 O   0  0  0  0  0  0  0  0  0  0  0  0
   26.3692  -20.3096   -7.8667 C   0  0  0  0  0  0  0  0  0  0  0  0
   25.9227  -20.6187   -9.2831 C   0  0  1  0  0  0  0  0  0  0  0  0
   25.6594  -19.3220   -9.9717 C   0  0  0  0  0  0  0  0  0  0  0  0
   26.9778  -21.4525   -9.9963 C   0  0  0  0  0  0  0  0  0  0  0  0
   26.6894  -21.6215  -11.4504 C   0  0  2  0  0  0  0  0  0  0  0  0
   27.0811  -20.5412  -12.2868 N   0  0  0  0  0  0  0  0  0  0  0  0
   25.1956  -21.7785  -11.6021 C   0  0  0  0  0  0  0  0  0  0  0  0
   24.5995  -22.6694  -10.9448 O   0  0  0  0  0  0  0  0  0  0  0  0
   16.6610  -20.4955  -12.8806 O   0  0  0  0  0  0  0  0  0  0  0  0
   18.0386  -20.3813  -12.6673 C   0  0  0  0  0  0  0  0  0  0  0  0
   18.5606  -20.6792  -11.4262 C   0  0  0  0  0  0  0  0  0  0  0  0
   19.9205  -20.5631  -11.2268 C   0  0  0  0  0  0  0  0  0  0  0  0
   20.7910  -20.1550  -12.2345 C   0  0  0  0  0  0  0  0  0  0  0  0
   22.2344  -20.0132  -11.9876 C   0  0  0  0  0  0  0  0  0  0  0  0
   22.9828  -21.1752  -12.5371 C   0  0  2  0  0  0  0  0  0  0  0  0
   24.4328  -20.9707  -12.4492 N   0  0  0  0  0  0  0  0  0  0  0  0
   22.5854  -21.5623  -13.8961 C   0  0  0  0  0  0  0  0  0  0  0  0
   21.5970  -22.5045  -14.0685 O   0  0  0  0  0  0  0  0  0  0  0  0
   20.2609  -19.8593  -13.4713 C   0  0  0  0  0  0  0  0  0  0  0  0
   18.8979  -19.9744  -13.6753 C   0  0  0  0  0  0  0  0  0  0  0  0
   23.1272  -21.0527  -14.8832 O   0  0  0  0  0  0  0  0  0  0  0  0
  2  1  1  6
  3  2  1  0
  3  4  1  0
  5  6  2  0
  5  2  1  0
  8  7  1  1
  8  9  1  0
 11 10  1  1
 10  8  1  0
 11 12  1  0
 12  5  1  0
 13 11  1  0
 14 13  2  0
 16 17  2  0
 16 15  1  0
 18 17  1  0
 19 18  2  0
 20 19  1  0
 21 20  1  6
 21 22  1  0
 22 13  1  0
 23 21  1  0
 24 23  1  0
 25 19  1  0
 25 26  2  0
 26 16  1  0
 27 23  2  0
M  END
$$$$
