CLY.pdb
     RDKit          3D

 27 27  0  0  1  0  0  0  0  0999 V2000
   25.1304  -20.5460   -9.3868 N   0  0  0  0  0  0  0  0  0  0  0  0
   24.6518  -20.7107  -10.7214 C   0  0  1  0  0  0  0  0  0  0  0  0
   23.1447  -20.5545  -10.7690 C   0  0  0  0  0  0  0  0  0  0  0  0
   22.3399  -21.5742   -9.5028 S   0  0  0  0  0  0  0  0  0  0  0  0
   25.3399  -19.9030  -11.7260 C   0  0  0  0  0  0  0  0  0  0  0  0
   25.6271  -18.7112  -11.4321 O   0  0  0  0  0  0  0  0  0  0  0  0
   28.6741  -22.0616  -13.9904 C   0  0  0  0  0  0  0  0  0  0  0  0
   28.3683  -20.8250  -13.1668 C   0  0  1  0  0  0  0  0  0  0  0  0
   29.6098  -20.4485  -12.4309 C   0  0  0  0  0  0  0  0  0  0  0  0
   27.8634  -19.7061  -14.0668 C   0  0  0  0  0  0  0  0  0  0  0  0
   26.3957  -19.4763  -13.9283 C   0  0  2  0  0  0  0  0  0  0  0  0
   25.7214  -20.3281  -13.0118 N   0  0  0  0  0  0  0  0  0  0  0  0
   25.7705  -19.7026  -15.2836 C   0  0  0  0  0  0  0  0  0  0  0  0
   26.1217  -20.6986  -15.9661 O   0  0  0  0  0  0  0  0  0  0  0  0
   17.7159  -22.0757  -16.2719 O   0  0  0  0  0  0  0  0  0  0  0  0
   18.9853  -21.5755  -15.9642 C   0  0  0  0  0  0  0  0  0  0  0  0
   20.0897  -22.3879  -16.1122 C   0  0  0  0  0  0  0  0  0  0  0  0
   21.3368  -21.8844  -15.8058 C   0  0  0  0  0  0  0  0  0  0  0  0
   21.5251  -20.5815  -15.3508 C   0  0  0  0  0  0  0  0  0  0  0  0
   22.8635  -20.0779  -15.0050 C   0  0  0  0  0  0  0  0  0  0  0  0
   23.4778  -19.3693  -16.1595 C   0  0  2  0  0  0  0  0  0  0  0  0
   24.8070  -18.8472  -15.8240 N   0  0  0  0  0  0  0  0  0  0  0  0
   22.6318  -18.3230  -16.7462 C   0  0  0  0  0  0  0  0  0  0  0  0
   21.8903  -18.6052  -17.8709 O   0  0  0  0  0  0  0  0  0  0  0  0
   20.4162  -19.7768  -15.2058 C   0  0  0  0  0  0  0  0  0  0  0  0
   19.1641  -20.2779  -15.5119 C   0  0  0  0  0  0  0  0  0  0  0  0
   22.5789  -17.1956  -16.2424 O   0  0  0  0  0  0  0  0  0  0  0  0
  2  1  1  1
  3  2  1  0
  3  4  1  0
  5  6  2  0
  5  2  1  0
  8  7  1  6
  8  9  1  0
 11 10  1  6
 10  8  1  0
 11 12  1  0
 12  5  1  0
 13 11  1  0
 14 13  2  0
 16 17  2  0
 16 15  1  0
 18 17  1  0
 19 18  2  0
 20 19  1  0
 21 20  1  1
 21 22  1  0
 22 13  1  0
 23 21  1  0
 24 23  1  0
 25 19  1  0
 25 26  2  0
 26 16  1  0
 27 23  2  0
M  END
$$$$
