CLY.pdb
     RDKit          3D

 27 27  0  0  1  0  0  0  0  0999 V2000
   18.7731  -14.4967  -17.5374 N   0  0  0  0  0  0  0  0  0  0  0  0
   19.1493  -13.1888  -17.9680 C   0  0  1  0  0  0  0  0  0  0  0  0
   17.9310  -12.4054  -18.4154 C   0  0  0  0  0  0  0  0  0  0  0  0
   17.3205  -13.0010  -20.0165 S   0  0  0  0  0  0  0  0  0  0  0  0
   19.9882  -12.4490  -17.0279 C   0  0  0  0  0  0  0  0  0  0  0  0
   19.5701  -12.3058  -15.8473 O   0  0  0  0  0  0  0  0  0  0  0  0
   23.7605  -10.7724  -13.9725 C   0  0  0  0  0  0  0  0  0  0  0  0
   24.1515  -10.3675  -15.3811 C   0  0  1  0  0  0  0  0  0  0  0  0
   25.6371  -10.4524  -15.4844 C   0  0  0  0  0  0  0  0  0  0  0  0
   23.4459  -11.2541  -16.3974 C   0  0  0  0  0  0  0  0  0  0  0  0
   21.9617  -11.1081  -16.3539 C   0  0  2  0  0  0  0  0  0  0  0  0
   21.2384  -11.8693  -17.3118 N   0  0  0  0  0  0  0  0  0  0  0  0
   21.6404   -9.6555  -16.6102 C   0  0  0  0  0  0  0  0  0  0  0  0
   21.6307   -9.2253  -17.7917 O   0  0  0  0  0  0  0  0  0  0  0  0
   18.1022   -2.1712  -18.2256 O   0  0  0  0  0  0  0  0  0  0  0  0
   18.5166   -3.4645  -17.8908 C   0  0  0  0  0  0  0  0  0  0  0  0
   19.7714   -3.8946  -18.2676 C   0  0  0  0  0  0  0  0  0  0  0  0
   20.1698   -5.1718  -17.9321 C   0  0  0  0  0  0  0  0  0  0  0  0
   19.3505   -6.0481  -17.2245 C   0  0  0  0  0  0  0  0  0  0  0  0
   19.7897   -7.4150  -16.9031 C   0  0  0  0  0  0  0  0  0  0  0  0
   20.9011   -7.3961  -15.9148 C   0  0  2  0  0  0  0  0  0  0  0  0
   21.3490   -8.7533  -15.5839 N   0  0  0  0  0  0  0  0  0  0  0  0
   20.6168   -6.6228  -14.7000 C   0  0  0  0  0  0  0  0  0  0  0  0
   20.8195   -5.2614  -14.7028 O   0  0  0  0  0  0  0  0  0  0  0  0
   18.0985   -5.6102  -16.8521 C   0  0  0  0  0  0  0  0  0  0  0  0
   17.6953   -4.3303  -17.1864 C   0  0  0  0  0  0  0  0  0  0  0  0
   20.1988   -7.1795  -13.6788 O   0  0  0  0  0  0  0  0  0  0  0  0
  2  1  1  1
  3  2  1  0
  3  4  1  0
  5  6  2  0
  5  2  1  0
  8  7  1  1
  8  9  1  0
 11 10  1  6
 10  8  1  0
 11 12  1  0
 12  5  1  0
 13 11  1  0
 14 13  2  0
 16 17  2  0
 16 15  1  0
 18 17  1  0
 19 18  2  0
 20 19  1  0
 21 20  1  6
 21 22  1  0
 22 13  1  0
 23 21  1  0
 24 23  1  0
 25 19  1  0
 25 26  2  0
 26 16  1  0
 27 23  2  0
M  END
$$$$
