CLY.pdb
     RDKit          3D

 27 27  0  0  1  0  0  0  0  0999 V2000
   27.8709  -21.5912  -15.8540 N   0  0  0  0  0  0  0  0  0  0  0  0
   27.2834  -20.5454  -15.0804 C   0  0  1  0  0  0  0  0  0  0  0  0
   26.9330  -19.3637  -15.9629 C   0  0  0  0  0  0  0  0  0  0  0  0
   27.4797  -17.8033  -15.2164 S   0  0  0  0  0  0  0  0  0  0  0  0
   26.1774  -20.9623  -14.2214 C   0  0  0  0  0  0  0  0  0  0  0  0
   25.4235  -21.8850  -14.6328 O   0  0  0  0  0  0  0  0  0  0  0  0
   25.9916  -20.3033   -8.5854 C   0  0  0  0  0  0  0  0  0  0  0  0
   26.0624  -20.7905  -10.0202 C   0  0  1  0  0  0  0  0  0  0  0  0
   26.3529  -22.2532   -9.9915 C   0  0  0  0  0  0  0  0  0  0  0  0
   24.7652  -20.4690  -10.7487 C   0  0  0  0  0  0  0  0  0  0  0  0
   24.7815  -20.9132  -12.1729 C   0  0  2  0  0  0  0  0  0  0  0  0
   25.8624  -20.4285  -12.9582 N   0  0  0  0  0  0  0  0  0  0  0  0
   23.5098  -20.4177  -12.8180 C   0  0  0  0  0  0  0  0  0  0  0  0
   23.3340  -19.1812  -12.9644 O   0  0  0  0  0  0  0  0  0  0  0  0
   17.4121  -18.4805  -18.4469 O   0  0  0  0  0  0  0  0  0  0  0  0
   18.4685  -19.0461  -17.7255 C   0  0  0  0  0  0  0  0  0  0  0  0
   18.4509  -19.0008  -16.3474 C   0  0  0  0  0  0  0  0  0  0  0  0
   19.4978  -19.5616  -15.6459 C   0  0  0  0  0  0  0  0  0  0  0  0
   20.5770  -20.1746  -16.2780 C   0  0  0  0  0  0  0  0  0  0  0  0
   21.6944  -20.7411  -15.5066 C   0  0  0  0  0  0  0  0  0  0  0  0
   21.3867  -20.7431  -14.0514 C   0  0  2  0  0  0  0  0  0  0  0  0
   22.5046  -21.2782  -13.2666 N   0  0  0  0  0  0  0  0  0  0  0  0
   20.1276  -21.4112  -13.7007 C   0  0  0  0  0  0  0  0  0  0  0  0
   19.0434  -20.6531  -13.3208 O   0  0  0  0  0  0  0  0  0  0  0  0
   20.5865  -20.2153  -17.6551 C   0  0  0  0  0  0  0  0  0  0  0  0
   19.5387  -19.6541  -18.3621 C   0  0  0  0  0  0  0  0  0  0  0  0
   20.0315  -22.6427  -13.7429 O   0  0  0  0  0  0  0  0  0  0  0  0
  2  1  1  6
  3  2  1  0
  3  4  1  0
  5  6  2  0
  5  2  1  0
  8  7  1  1
  8  9  1  0
 11 10  1  1
 10  8  1  0
 11 12  1  0
 12  5  1  0
 13 11  1  0
 14 13  2  0
 16 17  2  0
 16 15  1  0
 18 17  1  0
 19 18  2  0
 20 19  1  0
 21 20  1  6
 21 22  1  0
 22 13  1  0
 23 21  1  0
 24 23  1  0
 25 19  1  0
 25 26  2  0
 26 16  1  0
 27 23  2  0
M  END
$$$$
