CLY.pdb
     RDKit          3D

 27 27  0  0  1  0  0  0  0  0999 V2000
   27.7193  -20.7363  -15.4339 N   0  0  0  0  0  0  0  0  0  0  0  0
   27.0454  -19.9102  -14.4847 C   0  0  1  0  0  0  0  0  0  0  0  0
   26.5039  -18.6629  -15.1550 C   0  0  0  0  0  0  0  0  0  0  0  0
   27.8441  -17.5255  -15.6031 S   0  0  0  0  0  0  0  0  0  0  0  0
   26.0463  -20.5981  -13.6701 C   0  0  0  0  0  0  0  0  0  0  0  0
   25.4902  -21.6208  -14.1537 O   0  0  0  0  0  0  0  0  0  0  0  0
   26.2450  -20.3773   -8.2148 C   0  0  0  0  0  0  0  0  0  0  0  0
   26.2101  -20.6025   -9.7145 C   0  0  1  0  0  0  0  0  0  0  0  0
   27.1718  -21.6969  -10.0340 C   0  0  0  0  0  0  0  0  0  0  0  0
   24.7920  -20.9243  -10.1645 C   0  0  0  0  0  0  0  0  0  0  0  0
   24.6549  -20.9579  -11.6498 C   0  0  2  0  0  0  0  0  0  0  0  0
   25.6342  -20.2281  -12.3766 N   0  0  0  0  0  0  0  0  0  0  0  0
   23.3122  -20.3609  -11.9957 C   0  0  0  0  0  0  0  0  0  0  0  0
   23.1236  -19.1291  -11.8281 O   0  0  0  0  0  0  0  0  0  0  0  0
   22.3774  -21.9814  -19.0006 O   0  0  0  0  0  0  0  0  0  0  0  0
   22.1293  -21.3615  -17.7716 C   0  0  0  0  0  0  0  0  0  0  0  0
   20.8853  -21.4819  -17.1890 C   0  0  0  0  0  0  0  0  0  0  0  0
   20.6515  -20.8665  -15.9769 C   0  0  0  0  0  0  0  0  0  0  0  0
   21.6274  -20.1248  -15.3153 C   0  0  0  0  0  0  0  0  0  0  0  0
   21.3435  -19.4557  -14.0362 C   0  0  0  0  0  0  0  0  0  0  0  0
   21.0383  -20.4508  -12.9737 C   0  0  2  0  0  0  0  0  0  0  0  0
   22.2542  -21.1213  -12.5003 N   0  0  0  0  0  0  0  0  0  0  0  0
   20.0047  -21.4270  -13.3386 C   0  0  0  0  0  0  0  0  0  0  0  0
   18.7034  -21.0066  -13.4953 O   0  0  0  0  0  0  0  0  0  0  0  0
   22.8674  -20.0097  -15.9046 C   0  0  0  0  0  0  0  0  0  0  0  0
   23.1058  -20.6253  -17.1198 C   0  0  0  0  0  0  0  0  0  0  0  0
   20.2899  -22.6179  -13.5059 O   0  0  0  0  0  0  0  0  0  0  0  0
  2  1  1  6
  3  2  1  0
  3  4  1  0
  5  6  2  0
  5  2  1  0
  8  7  1  1
  8  9  1  0
 11 10  1  1
 10  8  1  0
 11 12  1  0
 12  5  1  0
 13 11  1  0
 14 13  2  0
 16 17  2  0
 16 15  1  0
 18 17  1  0
 19 18  2  0
 20 19  1  0
 21 20  1  6
 21 22  1  0
 22 13  1  0
 23 21  1  0
 24 23  1  0
 25 19  1  0
 25 26  2  0
 26 16  1  0
 27 23  2  0
M  END
$$$$
