CLY.pdb
     RDKit          3D

 27 27  0  0  1  0  0  0  0  0999 V2000
   22.0246  -13.9988  -20.3741 N   0  0  0  0  0  0  0  0  0  0  0  0
   22.8483  -12.8577  -20.1358 C   0  0  1  0  0  0  0  0  0  0  0  0
   22.4719  -11.7255  -21.0709 C   0  0  0  0  0  0  0  0  0  0  0  0
   22.9500  -12.1007  -22.7801 S   0  0  0  0  0  0  0  0  0  0  0  0
   22.9300  -12.4388  -18.7384 C   0  0  0  0  0  0  0  0  0  0  0  0
   21.8524  -12.2835  -18.1029 O   0  0  0  0  0  0  0  0  0  0  0  0
   25.6890  -14.1679  -16.5635 C   0  0  0  0  0  0  0  0  0  0  0  0
   25.7043  -13.1630  -15.4274 C   0  0  1  0  0  0  0  0  0  0  0  0
   27.0377  -13.2447  -14.7640 C   0  0  0  0  0  0  0  0  0  0  0  0
   25.4019  -11.7679  -15.9559 C   0  0  0  0  0  0  0  0  0  0  0  0
   24.1001  -11.6989  -16.6815 C   0  0  2  0  0  0  0  0  0  0  0  0
   24.1111  -12.1862  -18.0166 N   0  0  0  0  0  0  0  0  0  0  0  0
   23.6916  -10.2469  -16.7447 C   0  0  0  0  0  0  0  0  0  0  0  0
   24.1196   -9.5263  -17.6820 O   0  0  0  0  0  0  0  0  0  0  0  0
   19.6530   -2.9362  -18.0767 O   0  0  0  0  0  0  0  0  0  0  0  0
   20.1937   -4.2157  -17.9130 C   0  0  0  0  0  0  0  0  0  0  0  0
   19.4702   -5.3162  -18.3215 C   0  0  0  0  0  0  0  0  0  0  0  0
   20.0130   -6.5733  -18.1552 C   0  0  0  0  0  0  0  0  0  0  0  0
   21.2691   -6.7755  -17.5883 C   0  0  0  0  0  0  0  0  0  0  0  0
   21.8134   -8.1289  -17.3975 C   0  0  0  0  0  0  0  0  0  0  0  0
   22.3493   -8.2954  -16.0201 C   0  0  2  0  0  0  0  0  0  0  0  0
   22.8492   -9.6568  -15.7990 N   0  0  0  0  0  0  0  0  0  0  0  0
   21.4196   -7.8950  -14.9572 C   0  0  0  0  0  0  0  0  0  0  0  0
   20.4966   -8.8026  -14.4894 O   0  0  0  0  0  0  0  0  0  0  0  0
   21.9850   -5.6704  -17.1830 C   0  0  0  0  0  0  0  0  0  0  0  0
   21.4443   -4.4083  -17.3480 C   0  0  0  0  0  0  0  0  0  0  0  0
   21.4571   -6.7555  -14.4798 O   0  0  0  0  0  0  0  0  0  0  0  0
  2  1  1  1
  3  2  1  0
  3  4  1  0
  5  6  2  0
  5  2  1  0
  8  7  1  6
  8  9  1  0
 11 10  1  6
 10  8  1  0
 11 12  1  0
 12  5  1  0
 13 11  1  0
 14 13  2  0
 16 17  2  0
 16 15  1  0
 18 17  1  0
 19 18  2  0
 20 19  1  0
 21 20  1  6
 21 22  1  0
 22 13  1  0
 23 21  1  0
 24 23  1  0
 25 19  1  0
 25 26  2  0
 26 16  1  0
 27 23  2  0
M  END
$$$$
