CLY.pdb
     RDKit          3D

 27 27  0  0  1  0  0  0  0  0999 V2000
   25.2223  -17.8003  -20.7208 N   0  0  0  0  0  0  0  0  0  0  0  0
   25.5534  -17.5569  -19.3539 C   0  0  1  0  0  0  0  0  0  0  0  0
   24.9444  -16.2508  -18.8836 C   0  0  0  0  0  0  0  0  0  0  0  0
   23.1547  -16.4138  -18.6360 S   0  0  0  0  0  0  0  0  0  0  0  0
   25.2824  -18.6704  -18.4474 C   0  0  0  0  0  0  0  0  0  0  0  0
   24.3189  -19.4358  -18.7213 O   0  0  0  0  0  0  0  0  0  0  0  0
   27.6939  -21.8721  -17.4973 C   0  0  0  0  0  0  0  0  0  0  0  0
   27.2823  -21.9462  -16.0392 C   0  0  1  0  0  0  0  0  0  0  0  0
   28.4665  -22.3987  -15.2533 C   0  0  0  0  0  0  0  0  0  0  0  0
   26.7556  -20.5964  -15.5729 C   0  0  0  0  0  0  0  0  0  0  0  0
   25.6588  -20.0773  -16.4409 C   0  0  2  0  0  0  0  0  0  0  0  0
   26.0009  -18.9809  -17.2782 N   0  0  0  0  0  0  0  0  0  0  0  0
   24.5448  -19.6106  -15.5352 C   0  0  0  0  0  0  0  0  0  0  0  0
   24.6247  -18.4791  -14.9925 O   0  0  0  0  0  0  0  0  0  0  0  0
   17.4025  -16.3107  -12.4125 O   0  0  0  0  0  0  0  0  0  0  0  0
   18.5067  -16.8555  -13.0760 C   0  0  0  0  0  0  0  0  0  0  0  0
   19.7787  -16.5629  -12.6310 C   0  0  0  0  0  0  0  0  0  0  0  0
   20.8605  -17.1056  -13.2926 C   0  0  0  0  0  0  0  0  0  0  0  0
   20.7177  -17.9414  -14.3976 C   0  0  0  0  0  0  0  0  0  0  0  0
   21.8894  -18.4852  -15.1020 C   0  0  0  0  0  0  0  0  0  0  0  0
   22.2887  -19.7990  -14.5305 C   0  0  2  0  0  0  0  0  0  0  0  0
   23.4137  -20.3856  -15.2670 N   0  0  0  0  0  0  0  0  0  0  0  0
   21.1871  -20.7597  -14.3959 C   0  0  0  0  0  0  0  0  0  0  0  0
   20.4237  -20.7562  -13.2506 O   0  0  0  0  0  0  0  0  0  0  0  0
   19.4433  -18.2283  -14.8355 C   0  0  0  0  0  0  0  0  0  0  0  0
   18.3561  -17.6862  -14.1748 C   0  0  0  0  0  0  0  0  0  0  0  0
   20.9391  -21.5684  -15.2970 O   0  0  0  0  0  0  0  0  0  0  0  0
  2  1  1  6
  3  2  1  0
  3  4  1  0
  5  6  2  0
  5  2  1  0
  8  7  1  6
  8  9  1  0
 11 10  1  1
 10  8  1  0
 11 12  1  0
 12  5  1  0
 13 11  1  0
 14 13  2  0
 16 17  2  0
 16 15  1  0
 18 17  1  0
 19 18  2  0
 20 19  1  0
 21 20  1  6
 21 22  1  0
 22 13  1  0
 23 21  1  0
 24 23  1  0
 25 19  1  0
 25 26  2  0
 26 16  1  0
 27 23  2  0
M  END
$$$$
