CLY.pdb
     RDKit          3D

 27 27  0  0  1  0  0  0  0  0999 V2000
   25.4424  -24.2913  -17.6620 N   0  0  0  0  0  0  0  0  0  0  0  0
   24.9809  -22.9575  -17.8753 C   0  0  1  0  0  0  0  0  0  0  0  0
   23.7531  -22.9554  -18.7645 C   0  0  0  0  0  0  0  0  0  0  0  0
   24.2051  -22.7164  -20.5050 S   0  0  0  0  0  0  0  0  0  0  0  0
   24.8051  -22.1655  -16.6601 C   0  0  0  0  0  0  0  0  0  0  0  0
   24.3630  -22.7474  -15.6329 O   0  0  0  0  0  0  0  0  0  0  0  0
   28.0810  -18.0103  -15.3427 C   0  0  0  0  0  0  0  0  0  0  0  0
   27.2288  -19.2607  -15.4488 C   0  0  1  0  0  0  0  0  0  0  0  0
   27.8584  -20.3150  -14.6022 C   0  0  0  0  0  0  0  0  0  0  0  0
   25.7968  -18.9575  -15.0314 C   0  0  0  0  0  0  0  0  0  0  0  0
   24.8680  -20.0940  -15.2991 C   0  0  2  0  0  0  0  0  0  0  0  0
   25.0842  -20.7938  -16.5171 N   0  0  0  0  0  0  0  0  0  0  0  0
   23.4676  -19.5330  -15.3546 C   0  0  0  0  0  0  0  0  0  0  0  0
   23.2142  -18.5843  -16.1402 O   0  0  0  0  0  0  0  0  0  0  0  0
   15.5648  -19.5048  -18.2452 O   0  0  0  0  0  0  0  0  0  0  0  0
   16.8703  -19.7098  -17.7869 C   0  0  0  0  0  0  0  0  0  0  0  0
   17.7829  -18.6779  -17.8522 C   0  0  0  0  0  0  0  0  0  0  0  0
   19.0675  -18.8910  -17.3974 C   0  0  0  0  0  0  0  0  0  0  0  0
   19.4811  -20.1130  -16.8725 C   0  0  0  0  0  0  0  0  0  0  0  0
   20.8651  -20.3220  -16.4195 C   0  0  0  0  0  0  0  0  0  0  0  0
   21.0372  -19.8671  -15.0138 C   0  0  2  0  0  0  0  0  0  0  0  0
   22.4249  -20.0235  -14.5646 N   0  0  0  0  0  0  0  0  0  0  0  0
   20.1017  -20.4782  -14.0619 C   0  0  0  0  0  0  0  0  0  0  0  0
   18.9245  -19.8313  -13.7616 O   0  0  0  0  0  0  0  0  0  0  0  0
   18.5629  -21.1383  -16.8111 C   0  0  0  0  0  0  0  0  0  0  0  0
   17.2738  -20.9288  -17.2660 C   0  0  0  0  0  0  0  0  0  0  0  0
   20.3594  -21.5634  -13.5296 O   0  0  0  0  0  0  0  0  0  0  0  0
  2  1  1  1
  3  2  1  0
  3  4  1  0
  5  6  2  0
  5  2  1  0
  8  7  1  1
  8  9  1  0
 11 10  1  6
 10  8  1  0
 11 12  1  0
 12  5  1  0
 13 11  1  0
 14 13  2  0
 16 17  2  0
 16 15  1  0
 18 17  1  0
 19 18  2  0
 20 19  1  0
 21 20  1  6
 21 22  1  0
 22 13  1  0
 23 21  1  0
 24 23  1  0
 25 19  1  0
 25 26  2  0
 26 16  1  0
 27 23  2  0
M  END
$$$$
