CLY.pdb
     RDKit          3D

 27 27  0  0  1  0  0  0  0  0999 V2000
   26.8277  -33.9116   -8.2580 N   0  0  0  0  0  0  0  0  0  0  0  0
   25.4389  -34.1718   -8.0560 C   0  0  1  0  0  0  0  0  0  0  0  0
   25.0777  -34.0240   -6.5911 C   0  0  0  0  0  0  0  0  0  0  0  0
   23.7297  -35.1477   -6.1318 S   0  0  0  0  0  0  0  0  0  0  0  0
   24.5396  -33.4351   -8.9412 C   0  0  0  0  0  0  0  0  0  0  0  0
   24.8209  -32.2351   -9.2054 O   0  0  0  0  0  0  0  0  0  0  0  0
   22.0686  -33.3477  -14.1923 C   0  0  0  0  0  0  0  0  0  0  0  0
   22.3653  -32.7003  -12.8530 C   0  0  1  0  0  0  0  0  0  0  0  0
   21.4078  -31.5715  -12.6698 C   0  0  0  0  0  0  0  0  0  0  0  0
   22.2688  -33.7320  -11.7380 C   0  0  0  0  0  0  0  0  0  0  0  0
   22.5498  -33.1511  -10.3927 C   0  0  2  0  0  0  0  0  0  0  0  0
   23.3699  -33.9384   -9.5397 N   0  0  0  0  0  0  0  0  0  0  0  0
   21.2258  -32.9714   -9.6899 C   0  0  0  0  0  0  0  0  0  0  0  0
   20.5784  -33.9860   -9.3258 O   0  0  0  0  0  0  0  0  0  0  0  0
   14.3030  -30.3219   -5.1918 O   0  0  0  0  0  0  0  0  0  0  0  0
   15.5427  -30.3520   -5.8389 C   0  0  0  0  0  0  0  0  0  0  0  0
   15.7302  -29.6044   -6.9823 C   0  0  0  0  0  0  0  0  0  0  0  0
   16.9567  -29.6415   -7.6124 C   0  0  0  0  0  0  0  0  0  0  0  0
   18.0179  -30.4079   -7.1366 C   0  0  0  0  0  0  0  0  0  0  0  0
   19.3077  -30.4508   -7.8432 C   0  0  0  0  0  0  0  0  0  0  0  0
   19.3701  -31.6185   -8.7623 C   0  0  2  0  0  0  0  0  0  0  0  0
   20.6774  -31.7149   -9.4207 N   0  0  0  0  0  0  0  0  0  0  0  0
   18.2793  -31.6749   -9.7429 C   0  0  0  0  0  0  0  0  0  0  0  0
   17.1315  -32.3706   -9.4377 O   0  0  0  0  0  0  0  0  0  0  0  0
   17.8217  -31.1516   -5.9937 C   0  0  0  0  0  0  0  0  0  0  0  0
   16.5935  -31.1173   -5.3590 C   0  0  0  0  0  0  0  0  0  0  0  0
   18.3807  -31.1063  -10.8356 O   0  0  0  0  0  0  0  0  0  0  0  0
  2  1  1  1
  3  2  1  0
  3  4  1  0
  5  6  2  0
  5  2  1  0
  8  7  1  6
  8  9  1  0
 11 10  1  6
 10  8  1  0
 11 12  1  0
 12  5  1  0
 13 11  1  0
 14 13  2  0
 16 17  2  0
 16 15  1  0
 18 17  1  0
 19 18  2  0
 20 19  1  0
 21 20  1  6
 21 22  1  0
 22 13  1  0
 23 21  1  0
 24 23  1  0
 25 19  1  0
 25 26  2  0
 26 16  1  0
 27 23  2  0
M  END
$$$$
