CLY.pdb
     RDKit          3D

 27 27  0  0  1  0  0  0  0  0999 V2000
   27.4450  -21.3856  -17.4269 N   0  0  0  0  0  0  0  0  0  0  0  0
   26.8202  -20.3834  -16.6253 C   0  0  1  0  0  0  0  0  0  0  0  0
   25.8674  -19.5516  -17.4611 C   0  0  0  0  0  0  0  0  0  0  0  0
   25.1716  -18.1832  -16.4945 S   0  0  0  0  0  0  0  0  0  0  0  0
   26.2141  -20.8735  -15.3894 C   0  0  0  0  0  0  0  0  0  0  0  0
   25.7336  -22.0389  -15.3872 O   0  0  0  0  0  0  0  0  0  0  0  0
   25.6391  -22.2496  -10.4120 C   0  0  0  0  0  0  0  0  0  0  0  0
   25.2300  -20.7938  -10.5322 C   0  0  1  0  0  0  0  0  0  0  0  0
   25.5546  -20.1206   -9.2414 C   0  0  0  0  0  0  0  0  0  0  0  0
   25.9314  -20.1473  -11.7183 C   0  0  0  0  0  0  0  0  0  0  0  0
   25.4833  -20.7087  -13.0260 C   0  0  2  0  0  0  0  0  0  0  0  0
   26.1104  -20.1635  -14.1790 N   0  0  0  0  0  0  0  0  0  0  0  0
   24.0046  -20.4336  -13.1557 C   0  0  0  0  0  0  0  0  0  0  0  0
   23.6012  -19.2438  -13.2087 O   0  0  0  0  0  0  0  0  0  0  0  0
   20.7436  -22.9526   -7.1589 O   0  0  0  0  0  0  0  0  0  0  0  0
   20.8808  -22.2770   -8.3759 C   0  0  0  0  0  0  0  0  0  0  0  0
   21.9963  -21.4972   -8.5977 C   0  0  0  0  0  0  0  0  0  0  0  0
   22.1215  -20.8353   -9.8014 C   0  0  0  0  0  0  0  0  0  0  0  0
   21.1610  -20.9242  -10.8061 C   0  0  0  0  0  0  0  0  0  0  0  0
   21.3059  -20.1860  -12.0705 C   0  0  0  0  0  0  0  0  0  0  0  0
   21.6225  -21.1113  -13.1912 C   0  0  2  0  0  0  0  0  0  0  0  0
   23.0493  -21.4511  -13.2206 N   0  0  0  0  0  0  0  0  0  0  0  0
   21.1626  -20.6480  -14.5059 C   0  0  0  0  0  0  0  0  0  0  0  0
   22.0466  -20.6227  -15.5606 O   0  0  0  0  0  0  0  0  0  0  0  0
   20.0497  -21.7054  -10.5760 C   0  0  0  0  0  0  0  0  0  0  0  0
   19.9204  -22.3707   -9.3705 C   0  0  0  0  0  0  0  0  0  0  0  0
   19.9943  -20.2819  -14.6747 O   0  0  0  0  0  0  0  0  0  0  0  0
  2  1  1  6
  3  2  1  0
  3  4  1  0
  5  6  2  0
  5  2  1  0
  8  7  1  1
  8  9  1  0
 11 10  1  1
 10  8  1  0
 11 12  1  0
 12  5  1  0
 13 11  1  0
 14 13  2  0
 16 17  2  0
 16 15  1  0
 18 17  1  0
 19 18  2  0
 20 19  1  0
 21 20  1  1
 21 22  1  0
 22 13  1  0
 23 21  1  0
 24 23  1  0
 25 19  1  0
 25 26  2  0
 26 16  1  0
 27 23  2  0
M  END
$$$$
