CLY.pdb
     RDKit          3D

 27 27  0  0  1  0  0  0  0  0999 V2000
   28.0120  -20.9920  -15.9988 N   0  0  0  0  0  0  0  0  0  0  0  0
   27.5988  -20.2681  -14.8401 C   0  0  1  0  0  0  0  0  0  0  0  0
   27.1518  -18.8697  -15.2181 C   0  0  0  0  0  0  0  0  0  0  0  0
   28.5117  -17.9248  -15.9587 S   0  0  0  0  0  0  0  0  0  0  0  0
   26.6345  -20.9640  -13.9911 C   0  0  0  0  0  0  0  0  0  0  0  0
   25.8345  -21.7686  -14.5404 O   0  0  0  0  0  0  0  0  0  0  0  0
   26.5116  -20.4819   -8.3532 C   0  0  0  0  0  0  0  0  0  0  0  0
   26.7431  -20.6480   -9.8431 C   0  0  1  0  0  0  0  0  0  0  0  0
   28.1833  -20.9780  -10.0470 C   0  0  0  0  0  0  0  0  0  0  0  0
   25.8161  -21.7177  -10.4027 C   0  0  0  0  0  0  0  0  0  0  0  0
   25.5133  -21.5151  -11.8495 C   0  0  2  0  0  0  0  0  0  0  0  0
   26.5056  -20.8247  -12.5969 N   0  0  0  0  0  0  0  0  0  0  0  0
   24.2460  -20.6996  -11.9387 C   0  0  0  0  0  0  0  0  0  0  0  0
   24.2695  -19.4860  -11.6101 O   0  0  0  0  0  0  0  0  0  0  0  0
   19.6953  -17.4013  -18.2574 O   0  0  0  0  0  0  0  0  0  0  0  0
   20.5228  -18.0432  -17.3302 C   0  0  0  0  0  0  0  0  0  0  0  0
   20.6812  -19.4115  -17.3943 C   0  0  0  0  0  0  0  0  0  0  0  0
   21.4995  -20.0343  -16.4750 C   0  0  0  0  0  0  0  0  0  0  0  0
   22.1753  -19.3318  -15.4800 C   0  0  0  0  0  0  0  0  0  0  0  0
   23.0208  -20.0239  -14.4948 C   0  0  0  0  0  0  0  0  0  0  0  0
   22.2122  -20.4900  -13.3367 C   0  0  2  0  0  0  0  0  0  0  0  0
   23.0315  -21.2351  -12.3746 N   0  0  0  0  0  0  0  0  0  0  0  0
   21.0097  -21.2471  -13.7046 C   0  0  0  0  0  0  0  0  0  0  0  0
   21.1129  -22.5948  -13.9645 O   0  0  0  0  0  0  0  0  0  0  0  0
   22.0113  -17.9651  -15.4234 C   0  0  0  0  0  0  0  0  0  0  0  0
   21.1917  -17.3369  -16.3432 C   0  0  0  0  0  0  0  0  0  0  0  0
   19.9098  -20.6888  -13.7829 O   0  0  0  0  0  0  0  0  0  0  0  0
  2  1  1  6
  3  2  1  0
  3  4  1  0
  5  6  2  0
  5  2  1  0
  8  7  1  1
  8  9  1  0
 11 10  1  1
 10  8  1  0
 11 12  1  0
 12  5  1  0
 13 11  1  0
 14 13  2  0
 16 17  2  0
 16 15  1  0
 18 17  1  0
 19 18  2  0
 20 19  1  0
 21 20  1  6
 21 22  1  0
 22 13  1  0
 23 21  1  0
 24 23  1  0
 25 19  1  0
 25 26  2  0
 26 16  1  0
 27 23  2  0
M  END
$$$$
