CLY.pdb
     RDKit          3D

 27 27  0  0  1  0  0  0  0  0999 V2000
   27.3833  -20.4943  -16.3485 N   0  0  0  0  0  0  0  0  0  0  0  0
   26.4522  -19.6727  -15.6445 C   0  0  1  0  0  0  0  0  0  0  0  0
   25.7385  -18.7380  -16.6010 C   0  0  0  0  0  0  0  0  0  0  0  0
   26.8903  -17.5397  -17.3280 S   0  0  0  0  0  0  0  0  0  0  0  0
   25.5362  -20.3954  -14.7650 C   0  0  0  0  0  0  0  0  0  0  0  0
   25.0506  -21.4822  -15.1802 O   0  0  0  0  0  0  0  0  0  0  0  0
   25.7935  -20.3855   -9.2164 C   0  0  0  0  0  0  0  0  0  0  0  0
   25.7280  -20.7556  -10.6860 C   0  0  1  0  0  0  0  0  0  0  0  0
   26.1878  -22.1680  -10.8217 C   0  0  0  0  0  0  0  0  0  0  0  0
   24.3164  -20.5497  -11.2171 C   0  0  0  0  0  0  0  0  0  0  0  0
   24.2231  -20.7519  -12.6924 C   0  0  2  0  0  0  0  0  0  0  0  0
   25.1335  -19.9942  -13.4779 N   0  0  0  0  0  0  0  0  0  0  0  0
   22.8316  -20.3506  -13.1188 C   0  0  0  0  0  0  0  0  0  0  0  0
   22.4913  -19.1419  -13.0534 O   0  0  0  0  0  0  0  0  0  0  0  0
   15.4915  -18.7622  -17.2858 O   0  0  0  0  0  0  0  0  0  0  0  0
   16.7470  -19.1840  -16.8362 C   0  0  0  0  0  0  0  0  0  0  0  0
   17.6631  -18.2484  -16.4039 C   0  0  0  0  0  0  0  0  0  0  0  0
   18.8983  -18.6754  -15.9627 C   0  0  0  0  0  0  0  0  0  0  0  0
   19.2580  -20.0207  -15.9366 C   0  0  0  0  0  0  0  0  0  0  0  0
   20.5922  -20.4473  -15.4867 C   0  0  0  0  0  0  0  0  0  0  0  0
   20.5771  -20.7985  -14.0414 C   0  0  2  0  0  0  0  0  0  0  0  0
   21.8906  -21.2700  -13.5893 N   0  0  0  0  0  0  0  0  0  0  0  0
   19.5176  -21.7398  -13.6591 C   0  0  0  0  0  0  0  0  0  0  0  0
   19.6823  -23.0823  -13.9141 O   0  0  0  0  0  0  0  0  0  0  0  0
   18.3366  -20.9486  -16.3704 C   0  0  0  0  0  0  0  0  0  0  0  0
   17.0971  -20.5246  -16.8135 C   0  0  0  0  0  0  0  0  0  0  0  0
   18.4834  -21.3406  -13.1127 O   0  0  0  0  0  0  0  0  0  0  0  0
  2  1  1  6
  3  2  1  0
  3  4  1  0
  5  6  2  0
  5  2  1  0
  8  7  1  1
  8  9  1  0
 11 10  1  1
 10  8  1  0
 11 12  1  0
 12  5  1  0
 13 11  1  0
 14 13  2  0
 16 17  2  0
 16 15  1  0
 18 17  1  0
 19 18  2  0
 20 19  1  0
 21 20  1  6
 21 22  1  0
 22 13  1  0
 23 21  1  0
 24 23  1  0
 25 19  1  0
 25 26  2  0
 26 16  1  0
 27 23  2  0
M  END
$$$$
