SMN.pdb
     RDKit          3D

 23 22  0  0  1  0  0  0  0  0999 V2000
    8.0594  -16.9537   20.2094 O   0  0  0  0  0  0  0  0  0  0  0  0
    6.8347  -16.2928   20.3059 C   0  0  0  0  0  0  0  0  0  0  0  0
    7.1274  -14.8173   20.5244 C   0  0  2  0  0  0  0  0  0  0  0  0
    7.7875  -14.2830   19.3649 N   0  0  0  0  0  0  0  0  0  0  0  0
    7.9331  -14.6159   21.7653 C   0  0  0  0  0  0  0  0  0  0  0  0
    9.1690  -14.3445   21.6684 O   0  0  0  0  0  0  0  0  0  0  0  0
    6.0132  -10.2068   26.7429 C   0  0  0  0  0  0  0  0  0  0  0  0
    6.6559  -11.8967   26.9734 S   0  0  0  0  0  0  0  0  0  0  0  0
    6.6799  -12.7362   25.3920 C   0  0  0  0  0  0  0  0  0  0  0  0
    7.1709  -14.1219   25.3621 C   0  0  0  0  0  0  0  0  0  0  0  0
    8.0898  -14.5785   24.2888 C   0  0  2  0  0  0  0  0  0  0  0  0
    7.3243  -14.7264   23.0317 N   0  0  0  0  0  0  0  0  0  0  0  0
    8.7917  -15.8120   24.6051 C   0  0  0  0  0  0  0  0  0  0  0  0
    8.2060  -16.9105   24.4775 O   0  0  0  0  0  0  0  0  0  0  0  0
   11.4150  -17.6032   22.7091 N   0  0  0  0  0  0  0  0  0  0  0  0
   12.4540  -17.3906   23.6419 C   0  0  0  0  0  0  0  0  0  0  0  0
   13.6338  -17.3903   23.1565 O   0  0  0  0  0  0  0  0  0  0  0  0
   12.2013  -17.1811   25.0725 C   0  0  0  0  0  0  0  0  0  0  0  0
   10.7463  -17.1308   25.4077 C   0  0  2  0  0  0  0  0  0  0  0  0
   10.1416  -15.8626   25.0644 N   0  0  0  0  0  0  0  0  0  0  0  0
   10.4067  -17.5052   26.7841 C   0  0  0  0  0  0  0  0  0  0  0  0
   10.0859  -16.5699   27.5930 O   0  0  0  0  0  0  0  0  0  0  0  0
   10.4000  -18.7680   27.2927 O   0  0  0  0  0  0  0  0  0  0  0  0
  2  1  1  0
  3  2  1  0
  3  5  1  0
  3  4  1  6
  5  6  2  0
  5 12  1  0
  7  8  1  0
  8  9  1  0
 11 10  1  1
 10  9  1  0
 11 13  1  0
 12 11  1  0
 13 20  1  0
 14 13  2  0
 16 15  1  0
 17 16  2  0
 18 16  1  0
 19 21  1  0
 19 18  1  1
 20 19  1  0
 21 23  1  0
 22 21  2  0
M  END
$$$$
