SMN.pdb
     RDKit          3D

 23 22  0  0  1  0  0  0  0  0999 V2000
    9.3735  -18.3271   20.7076 O   0  0  0  0  0  0  0  0  0  0  0  0
    8.3678  -17.5498   20.1328 C   0  0  0  0  0  0  0  0  0  0  0  0
    8.8260  -16.1012   20.1804 C   0  0  2  0  0  0  0  0  0  0  0  0
   10.0029  -15.9442   19.3706 N   0  0  0  0  0  0  0  0  0  0  0  0
    9.0584  -15.6660   21.5897 C   0  0  0  0  0  0  0  0  0  0  0  0
   10.2401  -15.6582   22.0524 O   0  0  0  0  0  0  0  0  0  0  0  0
    7.1275  -12.1894   28.0488 C   0  0  0  0  0  0  0  0  0  0  0  0
    7.5292  -12.4732   26.2937 S   0  0  0  0  0  0  0  0  0  0  0  0
    6.7105  -13.9656   25.7383 C   0  0  0  0  0  0  0  0  0  0  0  0
    6.8582  -14.3392   24.3238 C   0  0  0  0  0  0  0  0  0  0  0  0
    8.1514  -14.8528   23.8055 C   0  0  2  0  0  0  0  0  0  0  0  0
    7.9738  -15.2676   22.3969 N   0  0  0  0  0  0  0  0  0  0  0  0
    8.7046  -15.9441   24.5913 C   0  0  0  0  0  0  0  0  0  0  0  0
    8.1157  -17.0478   24.6230 O   0  0  0  0  0  0  0  0  0  0  0  0
   12.6185  -15.3351   25.5969 N   0  0  0  0  0  0  0  0  0  0  0  0
   12.6717  -16.6928   25.2118 C   0  0  0  0  0  0  0  0  0  0  0  0
   13.7445  -17.0530   24.6226 O   0  0  0  0  0  0  0  0  0  0  0  0
   11.5734  -17.6316   25.4704 C   0  0  0  0  0  0  0  0  0  0  0  0
   10.3874  -16.9824   26.1059 C   0  0  2  0  0  0  0  0  0  0  0  0
    9.9075  -15.8450   25.3523 N   0  0  0  0  0  0  0  0  0  0  0  0
   10.5485  -16.6298   27.5200 C   0  0  0  0  0  0  0  0  0  0  0  0
   10.9963  -17.5285   28.3100 O   0  0  0  0  0  0  0  0  0  0  0  0
   10.2634  -15.4234   28.0827 O   0  0  0  0  0  0  0  0  0  0  0  0
  2  1  1  0
  3  2  1  0
  3  5  1  0
  3  4  1  6
  5  6  2  0
  5 12  1  0
  7  8  1  0
  8  9  1  0
 11 10  1  1
 10  9  1  0
 11 13  1  0
 12 11  1  0
 13 20  1  0
 14 13  2  0
 16 15  1  0
 17 16  2  0
 18 16  1  0
 19 21  1  0
 19 18  1  6
 20 19  1  0
 21 23  1  0
 22 21  2  0
M  END
$$$$
