SMN.pdb
     RDKit          3D

 23 22  0  0  1  0  0  0  0  0999 V2000
    8.3526  -18.0916   18.8929 O   0  0  0  0  0  0  0  0  0  0  0  0
    8.1166  -17.5666   20.1636 C   0  0  0  0  0  0  0  0  0  0  0  0
    8.6418  -16.1402   20.1737 C   0  0  2  0  0  0  0  0  0  0  0  0
    9.6995  -16.0123   19.2091 N   0  0  0  0  0  0  0  0  0  0  0  0
    9.0887  -15.7507   21.5442 C   0  0  0  0  0  0  0  0  0  0  0  0
   10.2769  -16.0077   21.9084 O   0  0  0  0  0  0  0  0  0  0  0  0
    7.0090  -11.5418   27.9368 C   0  0  0  0  0  0  0  0  0  0  0  0
    6.3999  -12.2876   26.3893 S   0  0  0  0  0  0  0  0  0  0  0  0
    7.5851  -13.5016   25.8169 C   0  0  0  0  0  0  0  0  0  0  0  0
    7.5511  -13.8707   24.3939 C   0  0  0  0  0  0  0  0  0  0  0  0
    8.5516  -14.8117   23.8298 C   0  0  2  0  0  0  0  0  0  0  0  0
    8.1974  -15.1034   22.4235 N   0  0  0  0  0  0  0  0  0  0  0  0
    8.6861  -16.0457   24.5870 C   0  0  0  0  0  0  0  0  0  0  0  0
    7.8865  -16.9876   24.3874 O   0  0  0  0  0  0  0  0  0  0  0  0
   12.8048  -19.5561   25.5016 N   0  0  0  0  0  0  0  0  0  0  0  0
   11.9641  -18.4527   25.2362 C   0  0  0  0  0  0  0  0  0  0  0  0
   12.5643  -17.3554   24.9843 O   0  0  0  0  0  0  0  0  0  0  0  0
   10.4999  -18.5541   25.2453 C   0  0  0  0  0  0  0  0  0  0  0  0
    9.8521  -17.5754   26.1696 C   0  0  2  0  0  0  0  0  0  0  0  0
    9.6948  -16.2680   25.5713 N   0  0  0  0  0  0  0  0  0  0  0  0
   10.4687  -17.4621   27.4951 C   0  0  0  0  0  0  0  0  0  0  0  0
   10.7970  -16.2960   27.9008 O   0  0  0  0  0  0  0  0  0  0  0  0
   10.7302  -18.4906   28.3479 O   0  0  0  0  0  0  0  0  0  0  0  0
  2  1  1  0
  3  2  1  0
  3  5  1  0
  3  4  1  6
  5  6  2  0
  5 12  1  0
  7  8  1  0
  8  9  1  0
 11 10  1  1
 10  9  1  0
 11 13  1  0
 12 11  1  0
 13 20  1  0
 14 13  2  0
 16 15  1  0
 17 16  2  0
 18 16  1  0
 19 21  1  0
 19 18  1  6
 20 19  1  0
 21 23  1  0
 22 21  2  0
M  END
$$$$
