SMN.pdb
     RDKit          3D

 23 22  0  0  1  0  0  0  0  0999 V2000
    8.9898  -18.8587   20.3076 O   0  0  0  0  0  0  0  0  0  0  0  0
    9.5085  -18.1684   21.4034 C   0  0  0  0  0  0  0  0  0  0  0  0
    8.7677  -16.8447   21.5021 C   0  0  2  0  0  0  0  0  0  0  0  0
    8.9436  -16.1052   20.2824 N   0  0  0  0  0  0  0  0  0  0  0  0
    9.2258  -16.0698   22.6934 C   0  0  0  0  0  0  0  0  0  0  0  0
   10.4672  -15.8734   22.8691 O   0  0  0  0  0  0  0  0  0  0  0  0
    5.3442  -11.5040   26.6088 C   0  0  0  0  0  0  0  0  0  0  0  0
    7.1582  -11.6678   26.6761 S   0  0  0  0  0  0  0  0  0  0  0  0
    7.5913  -13.4052   26.6659 C   0  0  0  0  0  0  0  0  0  0  0  0
    7.5067  -14.1223   25.3850 C   0  0  0  0  0  0  0  0  0  0  0  0
    8.6934  -14.8163   24.8240 C   0  0  2  0  0  0  0  0  0  0  0  0
    8.2862  -15.5617   23.6130 N   0  0  0  0  0  0  0  0  0  0  0  0
    9.3538  -15.7025   25.7688 C   0  0  0  0  0  0  0  0  0  0  0  0
    8.9311  -16.8700   25.9255 O   0  0  0  0  0  0  0  0  0  0  0  0
   13.2686  -18.0605   25.3739 N   0  0  0  0  0  0  0  0  0  0  0  0
   12.6498  -17.8912   26.6321 C   0  0  0  0  0  0  0  0  0  0  0  0
   12.2584  -18.9653   27.1985 O   0  0  0  0  0  0  0  0  0  0  0  0
   12.4682  -16.5737   27.2529 C   0  0  0  0  0  0  0  0  0  0  0  0
   11.0356  -16.2478   27.5234 C   0  0  2  0  0  0  0  0  0  0  0  0
   10.4839  -15.3264   26.5545 N   0  0  0  0  0  0  0  0  0  0  0  0
   10.7422  -15.7949   28.8868 C   0  0  0  0  0  0  0  0  0  0  0  0
   10.3918  -14.5767   29.0465 O   0  0  0  0  0  0  0  0  0  0  0  0
   10.8080  -16.5539   30.0150 O   0  0  0  0  0  0  0  0  0  0  0  0
  2  1  1  0
  3  2  1  0
  3  5  1  0
  3  4  1  6
  5  6  2  0
  5 12  1  0
  7  8  1  0
  8  9  1  0
 11 10  1  1
 10  9  1  0
 11 13  1  0
 12 11  1  0
 13 20  1  0
 14 13  2  0
 16 15  1  0
 17 16  2  0
 18 16  1  0
 19 21  1  0
 19 18  1  1
 20 19  1  0
 21 23  1  0
 22 21  2  0
M  END
$$$$
