SMN.pdb
     RDKit          3D

 23 22  0  0  1  0  0  0  0  0999 V2000
    9.9412  -18.2555   21.1415 O   0  0  0  0  0  0  0  0  0  0  0  0
    9.0229  -17.4679   20.4469 C   0  0  0  0  0  0  0  0  0  0  0  0
    9.4427  -16.0171   20.6187 C   0  0  2  0  0  0  0  0  0  0  0  0
   10.6934  -15.7974   19.9458 N   0  0  0  0  0  0  0  0  0  0  0  0
    9.5186  -15.6563   22.0657 C   0  0  0  0  0  0  0  0  0  0  0  0
   10.5948  -15.8667   22.7045 O   0  0  0  0  0  0  0  0  0  0  0  0
    8.0400  -11.7707   27.3122 C   0  0  0  0  0  0  0  0  0  0  0  0
    6.5258  -12.3153   26.4563 S   0  0  0  0  0  0  0  0  0  0  0  0
    6.7178  -14.0231   25.9537 C   0  0  0  0  0  0  0  0  0  0  0  0
    7.0552  -14.2869   24.5470 C   0  0  0  0  0  0  0  0  0  0  0  0
    8.3507  -14.9140   24.1820 C   0  0  2  0  0  0  0  0  0  0  0  0
    8.4041  -15.0870   22.7140 N   0  0  0  0  0  0  0  0  0  0  0  0
    8.5971  -16.1804   24.8527 C   0  0  0  0  0  0  0  0  0  0  0  0
    8.1968  -17.2466   24.3339 O   0  0  0  0  0  0  0  0  0  0  0  0
   12.8893  -19.4766   25.8805 N   0  0  0  0  0  0  0  0  0  0  0  0
   11.4844  -19.3326   25.8797 C   0  0  0  0  0  0  0  0  0  0  0  0
   10.8292  -20.3542   26.2731 O   0  0  0  0  0  0  0  0  0  0  0  0
   10.8168  -18.0949   25.4592 C   0  0  0  0  0  0  0  0  0  0  0  0
    9.8716  -17.5628   26.4865 C   0  0  2  0  0  0  0  0  0  0  0  0
    9.2837  -16.2997   26.0978 N   0  0  0  0  0  0  0  0  0  0  0  0
   10.4072  -17.4816   27.8490 C   0  0  0  0  0  0  0  0  0  0  0  0
   10.6726  -16.3223   28.3158 O   0  0  0  0  0  0  0  0  0  0  0  0
   10.6538  -18.5336   28.6771 O   0  0  0  0  0  0  0  0  0  0  0  0
  2  1  1  0
  3  2  1  0
  3  5  1  0
  3  4  1  1
  5  6  2  0
  5 12  1  0
  7  8  1  0
  8  9  1  0
 11 10  1  6
 10  9  1  0
 11 13  1  0
 12 11  1  0
 13 20  1  0
 14 13  2  0
 16 15  1  0
 17 16  2  0
 18 16  1  0
 19 21  1  0
 19 18  1  6
 20 19  1  0
 21 23  1  0
 22 21  2  0
M  END
$$$$
