SMN.pdb
     RDKit          3D

 23 22  0  0  1  0  0  0  0  0999 V2000
    8.2626  -18.3765   22.2603 O   0  0  0  0  0  0  0  0  0  0  0  0
    7.5669  -18.1600   21.0706 C   0  0  0  0  0  0  0  0  0  0  0  0
    8.0032  -16.8100   20.5251 C   0  0  2  0  0  0  0  0  0  0  0  0
    9.0263  -17.0016   19.5342 N   0  0  0  0  0  0  0  0  0  0  0  0
    8.4596  -15.9154   21.6301 C   0  0  0  0  0  0  0  0  0  0  0  0
    9.7004  -15.6965   21.7822 O   0  0  0  0  0  0  0  0  0  0  0  0
    6.7232  -11.4897   27.7515 C   0  0  0  0  0  0  0  0  0  0  0  0
    6.3335  -12.8980   26.6621 S   0  0  0  0  0  0  0  0  0  0  0  0
    6.8967  -12.5296   25.0027 C   0  0  0  0  0  0  0  0  0  0  0  0
    6.7588  -13.5826   23.9856 C   0  0  0  0  0  0  0  0  0  0  0  0
    7.9224  -14.4186   23.5961 C   0  0  2  0  0  0  0  0  0  0  0  0
    7.5192  -15.3202   22.4950 N   0  0  0  0  0  0  0  0  0  0  0  0
    8.4892  -15.1814   24.6966 C   0  0  0  0  0  0  0  0  0  0  0  0
    9.0182  -14.5831   25.6600 O   0  0  0  0  0  0  0  0  0  0  0  0
    6.8975  -19.3196   28.0873 N   0  0  0  0  0  0  0  0  0  0  0  0
    8.0602  -18.6539   27.6402 C   0  0  0  0  0  0  0  0  0  0  0  0
    8.7782  -18.1316   28.5563 O   0  0  0  0  0  0  0  0  0  0  0  0
    8.4251  -18.5670   26.2212 C   0  0  0  0  0  0  0  0  0  0  0  0
    9.1123  -17.2872   25.8720 C   0  0  2  0  0  0  0  0  0  0  0  0
    8.4859  -16.6069   24.7599 N   0  0  0  0  0  0  0  0  0  0  0  0
   10.5597  -17.3900   25.6610 C   0  0  0  0  0  0  0  0  0  0  0  0
   11.2564  -17.9452   26.5768 O   0  0  0  0  0  0  0  0  0  0  0  0
   11.2443  -16.9458   24.5715 O   0  0  0  0  0  0  0  0  0  0  0  0
  2  1  1  0
  3  2  1  0
  3  5  1  0
  3  4  1  6
  5  6  2  0
  5 12  1  0
  7  8  1  0
  8  9  1  0
 11 10  1  1
 10  9  1  0
 11 13  1  0
 12 11  1  0
 13 20  1  0
 14 13  2  0
 16 15  1  0
 17 16  2  0
 18 16  1  0
 19 21  1  0
 19 18  1  6
 20 19  1  0
 21 23  1  0
 22 21  2  0
M  END
$$$$
