SMN.pdb
     RDKit          3D

 23 22  0  0  1  0  0  0  0  0999 V2000
    8.3612  -18.3817   20.2157 O   0  0  0  0  0  0  0  0  0  0  0  0
    7.3383  -17.4638   19.9765 C   0  0  0  0  0  0  0  0  0  0  0  0
    7.9691  -16.0821   19.9153 C   0  0  2  0  0  0  0  0  0  0  0  0
    8.9536  -16.0509   18.8688 N   0  0  0  0  0  0  0  0  0  0  0  0
    8.5514  -15.7073   21.2382 C   0  0  0  0  0  0  0  0  0  0  0  0
    9.7917  -15.8795   21.4441 O   0  0  0  0  0  0  0  0  0  0  0  0
    7.0487  -11.5305   27.8053 C   0  0  0  0  0  0  0  0  0  0  0  0
    6.3281  -12.3452   26.3428 S   0  0  0  0  0  0  0  0  0  0  0  0
    7.5417  -13.4522   25.6302 C   0  0  0  0  0  0  0  0  0  0  0  0
    7.2203  -14.0774   24.3387 C   0  0  0  0  0  0  0  0  0  0  0  0
    8.2405  -14.8659   23.6023 C   0  0  2  0  0  0  0  0  0  0  0  0
    7.7291  -15.1672   22.2475 N   0  0  0  0  0  0  0  0  0  0  0  0
    8.6357  -16.0897   24.2807 C   0  0  0  0  0  0  0  0  0  0  0  0
    8.4672  -17.1946   23.7177 O   0  0  0  0  0  0  0  0  0  0  0  0
   12.1381  -18.3125   22.8186 N   0  0  0  0  0  0  0  0  0  0  0  0
   11.3929  -18.2397   24.0161 C   0  0  0  0  0  0  0  0  0  0  0  0
   10.7386  -19.2924   24.3183 O   0  0  0  0  0  0  0  0  0  0  0  0
   11.3699  -17.0400   24.8613 C   0  0  0  0  0  0  0  0  0  0  0  0
   10.2777  -17.0641   25.8803 C   0  0  2  0  0  0  0  0  0  0  0  0
    9.2200  -16.1237   25.5820 N   0  0  0  0  0  0  0  0  0  0  0  0
   10.7155  -16.9191   27.2722 C   0  0  0  0  0  0  0  0  0  0  0  0
   11.2513  -17.9327   27.8359 O   0  0  0  0  0  0  0  0  0  0  0  0
   10.6056  -15.7962   28.0341 O   0  0  0  0  0  0  0  0  0  0  0  0
  2  1  1  0
  3  2  1  0
  3  5  1  0
  3  4  1  6
  5  6  2  0
  5 12  1  0
  7  8  1  0
  8  9  1  0
 11 10  1  1
 10  9  1  0
 11 13  1  0
 12 11  1  0
 13 20  1  0
 14 13  2  0
 16 15  1  0
 17 16  2  0
 18 16  1  0
 19 21  1  0
 19 18  1  6
 20 19  1  0
 21 23  1  0
 22 21  2  0
M  END
$$$$
