SMN.pdb
     RDKit          3D

 23 22  0  0  1  0  0  0  0  0999 V2000
    7.6200  -17.9503   20.1933 O   0  0  0  0  0  0  0  0  0  0  0  0
    6.9269  -16.7920   19.8411 C   0  0  0  0  0  0  0  0  0  0  0  0
    7.9275  -15.6478   19.8238 C   0  0  2  0  0  0  0  0  0  0  0  0
    8.9816  -15.9473   18.8939 N   0  0  0  0  0  0  0  0  0  0  0  0
    8.4543  -15.3850   21.1961 C   0  0  0  0  0  0  0  0  0  0  0  0
    9.6572  -15.6831   21.4691 O   0  0  0  0  0  0  0  0  0  0  0  0
    6.6249  -11.0787   27.1847 C   0  0  0  0  0  0  0  0  0  0  0  0
    7.7934  -11.9169   26.0649 S   0  0  0  0  0  0  0  0  0  0  0  0
    7.2119  -13.5806   25.7484 C   0  0  0  0  0  0  0  0  0  0  0  0
    6.9883  -13.9709   24.3485 C   0  0  0  0  0  0  0  0  0  0  0  0
    8.0164  -14.7384   23.6011 C   0  0  2  0  0  0  0  0  0  0  0  0
    7.6215  -14.8107   22.1774 N   0  0  0  0  0  0  0  0  0  0  0  0
    8.2520  -16.0715   24.1319 C   0  0  0  0  0  0  0  0  0  0  0  0
    7.7816  -17.0684   23.5394 O   0  0  0  0  0  0  0  0  0  0  0  0
    9.3252  -19.4558   22.3562 N   0  0  0  0  0  0  0  0  0  0  0  0
    9.8642  -19.1226   23.6184 C   0  0  0  0  0  0  0  0  0  0  0  0
    9.8629  -20.0637   24.4798 O   0  0  0  0  0  0  0  0  0  0  0  0
   10.3935  -17.7884   23.9249 C   0  0  0  0  0  0  0  0  0  0  0  0
   10.0544  -17.3281   25.3051 C   0  0  2  0  0  0  0  0  0  0  0  0
    9.0040  -16.3338   25.3157 N   0  0  0  0  0  0  0  0  0  0  0  0
   11.1925  -16.8806   26.1141 C   0  0  0  0  0  0  0  0  0  0  0  0
   11.2692  -17.3025   27.3176 O   0  0  0  0  0  0  0  0  0  0  0  0
   12.1888  -16.0482   25.7047 O   0  0  0  0  0  0  0  0  0  0  0  0
  2  1  1  0
  3  2  1  0
  3  5  1  0
  3  4  1  6
  5  6  2  0
  5 12  1  0
  7  8  1  0
  8  9  1  0
 11 10  1  1
 10  9  1  0
 11 13  1  0
 12 11  1  0
 13 20  1  0
 14 13  2  0
 16 15  1  0
 17 16  2  0
 18 16  1  0
 19 21  1  0
 19 18  1  6
 20 19  1  0
 21 23  1  0
 22 21  2  0
M  END
$$$$
