SMN.pdb
     RDKit          3D

 23 22  0  0  1  0  0  0  0  0999 V2000
    7.9684  -17.4848   19.5571 O   0  0  0  0  0  0  0  0  0  0  0  0
    6.8282  -16.6989   19.3882 C   0  0  0  0  0  0  0  0  0  0  0  0
    7.2730  -15.2454   19.3734 C   0  0  2  0  0  0  0  0  0  0  0  0
    8.1779  -15.0325   18.2774 N   0  0  0  0  0  0  0  0  0  0  0  0
    7.8847  -14.8660   20.6816 C   0  0  0  0  0  0  0  0  0  0  0  0
    9.1480  -14.8005   20.7828 O   0  0  0  0  0  0  0  0  0  0  0  0
    7.7877  -12.1772   27.8046 C   0  0  0  0  0  0  0  0  0  0  0  0
    7.6668  -13.4058   26.4638 S   0  0  0  0  0  0  0  0  0  0  0  0
    6.9391  -12.6318   25.0224 C   0  0  0  0  0  0  0  0  0  0  0  0
    6.5768  -13.4991   23.8916 C   0  0  0  0  0  0  0  0  0  0  0  0
    7.6242  -14.2007   23.1072 C   0  0  2  0  0  0  0  0  0  0  0  0
    7.0646  -14.5833   21.7925 N   0  0  0  0  0  0  0  0  0  0  0  0
    8.1797  -15.3632   23.7814 C   0  0  0  0  0  0  0  0  0  0  0  0
    7.6247  -16.4779   23.6569 O   0  0  0  0  0  0  0  0  0  0  0  0
   13.5659  -17.6324   24.3604 N   0  0  0  0  0  0  0  0  0  0  0  0
   12.1913  -17.7125   24.0461 C   0  0  0  0  0  0  0  0  0  0  0  0
   11.7248  -18.8941   23.9279 O   0  0  0  0  0  0  0  0  0  0  0  0
   11.3503  -16.5228   23.8685 C   0  0  0  0  0  0  0  0  0  0  0  0
   10.1580  -16.5105   24.7685 C   0  0  2  0  0  0  0  0  0  0  0  0
    9.3479  -15.3242   24.5997 N   0  0  0  0  0  0  0  0  0  0  0  0
   10.4419  -16.7400   26.1886 C   0  0  0  0  0  0  0  0  0  0  0  0
   10.4382  -17.9466   26.6085 O   0  0  0  0  0  0  0  0  0  0  0  0
   10.7120  -15.7817   27.1169 O   0  0  0  0  0  0  0  0  0  0  0  0
  2  1  1  0
  3  2  1  0
  3  5  1  0
  3  4  1  6
  5  6  2  0
  5 12  1  0
  7  8  1  0
  8  9  1  0
 11 10  1  1
 10  9  1  0
 11 13  1  0
 12 11  1  0
 13 20  1  0
 14 13  2  0
 16 15  1  0
 17 16  2  0
 18 16  1  0
 19 21  1  0
 19 18  1  6
 20 19  1  0
 21 23  1  0
 22 21  2  0
M  END
$$$$
