SMN.pdb
     RDKit          3D

 23 22  0  0  1  0  0  0  0  0999 V2000
    7.8605  -17.5601   20.4679 O   0  0  0  0  0  0  0  0  0  0  0  0
    6.9494  -16.6176   19.9906 C   0  0  0  0  0  0  0  0  0  0  0  0
    7.6441  -15.2655   19.9983 C   0  0  2  0  0  0  0  0  0  0  0  0
    8.5894  -15.2064   18.9173 N   0  0  0  0  0  0  0  0  0  0  0  0
    8.2928  -15.0116   21.3190 C   0  0  0  0  0  0  0  0  0  0  0  0
    9.5378  -15.2186   21.4516 O   0  0  0  0  0  0  0  0  0  0  0  0
    6.8334  -10.5037   26.6269 C   0  0  0  0  0  0  0  0  0  0  0  0
    6.3547  -12.2411   26.8996 S   0  0  0  0  0  0  0  0  0  0  0  0
    7.4802  -13.3074   26.0037 C   0  0  0  0  0  0  0  0  0  0  0  0
    7.1615  -13.6112   24.6007 C   0  0  0  0  0  0  0  0  0  0  0  0
    8.0921  -14.4143   23.7679 C   0  0  2  0  0  0  0  0  0  0  0  0
    7.5274  -14.5459   22.4071 N   0  0  0  0  0  0  0  0  0  0  0  0
    8.3919  -15.7243   24.3231 C   0  0  0  0  0  0  0  0  0  0  0  0
    7.8975  -16.7486   23.8008 O   0  0  0  0  0  0  0  0  0  0  0  0
   11.9888  -19.3223   23.7745 N   0  0  0  0  0  0  0  0  0  0  0  0
   12.1367  -18.0916   24.4514 C   0  0  0  0  0  0  0  0  0  0  0  0
   13.2025  -17.9715   25.1422 O   0  0  0  0  0  0  0  0  0  0  0  0
   11.1383  -17.0189   24.3685 C   0  0  0  0  0  0  0  0  0  0  0  0
   10.1469  -17.0559   25.4855 C   0  0  2  0  0  0  0  0  0  0  0  0
    9.2350  -15.9336   25.4550 N   0  0  0  0  0  0  0  0  0  0  0  0
   10.7186  -17.2160   26.8262 C   0  0  0  0  0  0  0  0  0  0  0  0
   11.1234  -16.1652   27.4296 O   0  0  0  0  0  0  0  0  0  0  0  0
   10.8635  -18.3896   27.5007 O   0  0  0  0  0  0  0  0  0  0  0  0
  2  1  1  0
  3  2  1  0
  3  5  1  0
  3  4  1  6
  5  6  2  0
  5 12  1  0
  7  8  1  0
  8  9  1  0
 11 10  1  1
 10  9  1  0
 11 13  1  0
 12 11  1  0
 13 20  1  0
 14 13  2  0
 16 15  1  0
 17 16  2  0
 18 16  1  0
 19 21  1  0
 19 18  1  6
 20 19  1  0
 21 23  1  0
 22 21  2  0
M  END
$$$$
