SMN.pdb
     RDKit          3D

 23 22  0  0  1  0  0  0  0  0999 V2000
    8.5649  -18.0166   21.9054 O   0  0  0  0  0  0  0  0  0  0  0  0
    8.8491  -17.3091   20.7372 C   0  0  0  0  0  0  0  0  0  0  0  0
    8.1409  -15.9674   20.8315 C   0  0  2  0  0  0  0  0  0  0  0  0
    8.4347  -15.1872   19.6608 N   0  0  0  0  0  0  0  0  0  0  0  0
    8.5242  -15.2540   22.0861 C   0  0  0  0  0  0  0  0  0  0  0  0
    9.5483  -14.5045   22.0883 O   0  0  0  0  0  0  0  0  0  0  0  0
    6.1140  -10.6348   26.8600 C   0  0  0  0  0  0  0  0  0  0  0  0
    7.1328  -12.1234   26.5994 S   0  0  0  0  0  0  0  0  0  0  0  0
    6.2166  -13.2942   25.6015 C   0  0  0  0  0  0  0  0  0  0  0  0
    6.8403  -14.5989   25.3346 C   0  0  0  0  0  0  0  0  0  0  0  0
    8.0716  -14.6971   24.5107 C   0  0  2  0  0  0  0  0  0  0  0  0
    7.7541  -15.4129   23.2558 N   0  0  0  0  0  0  0  0  0  0  0  0
    9.1835  -15.3377   25.1944 C   0  0  0  0  0  0  0  0  0  0  0  0
    9.3472  -15.1544   26.4215 O   0  0  0  0  0  0  0  0  0  0  0  0
   11.2325  -18.8519   28.2578 N   0  0  0  0  0  0  0  0  0  0  0  0
   10.8155  -19.0154   26.9183 C   0  0  0  0  0  0  0  0  0  0  0  0
   11.1470  -20.1200   26.3729 O   0  0  0  0  0  0  0  0  0  0  0  0
   10.0510  -17.9905   26.1976 C   0  0  0  0  0  0  0  0  0  0  0  0
   10.9044  -17.1341   25.3201 C   0  0  2  0  0  0  0  0  0  0  0  0
   10.1308  -16.1867   24.5481 N   0  0  0  0  0  0  0  0  0  0  0  0
   11.8394  -17.8594   24.4542 C   0  0  0  0  0  0  0  0  0  0  0  0
   13.0766  -17.8475   24.7728 O   0  0  0  0  0  0  0  0  0  0  0  0
   11.5156  -18.5531   23.3285 O   0  0  0  0  0  0  0  0  0  0  0  0
  2  1  1  0
  3  2  1  0
  3  5  1  0
  3  4  1  6
  5  6  2  0
  5 12  1  0
  7  8  1  0
  8  9  1  0
 11 10  1  1
 10  9  1  0
 11 13  1  0
 12 11  1  0
 13 20  1  0
 14 13  2  0
 16 15  1  0
 17 16  2  0
 18 16  1  0
 19 21  1  0
 19 18  1  6
 20 19  1  0
 21 23  1  0
 22 21  2  0
M  END
$$$$
