SMN.pdb
     RDKit          3D

 23 22  0  0  1  0  0  0  0  0999 V2000
    8.1623  -17.5556   20.0315 O   0  0  0  0  0  0  0  0  0  0  0  0
    6.9306  -16.9011   20.0575 C   0  0  0  0  0  0  0  0  0  0  0  0
    7.2076  -15.4070   20.0983 C   0  0  2  0  0  0  0  0  0  0  0  0
    7.8940  -15.0141   18.8983 N   0  0  0  0  0  0  0  0  0  0  0  0
    7.9794  -15.0454   21.3243 C   0  0  0  0  0  0  0  0  0  0  0  0
    9.2454  -14.9789   21.2664 O   0  0  0  0  0  0  0  0  0  0  0  0
    7.3382  -11.5933   28.4225 C   0  0  0  0  0  0  0  0  0  0  0  0
    6.4878  -12.1437   26.9073 S   0  0  0  0  0  0  0  0  0  0  0  0
    7.5424  -13.2918   26.0266 C   0  0  0  0  0  0  0  0  0  0  0  0
    7.0863  -13.7669   24.7118 C   0  0  0  0  0  0  0  0  0  0  0  0
    8.0278  -14.4341   23.7774 C   0  0  2  0  0  0  0  0  0  0  0  0
    7.3058  -14.7804   22.5337 N   0  0  0  0  0  0  0  0  0  0  0  0
    8.6711  -15.6119   24.3370 C   0  0  0  0  0  0  0  0  0  0  0  0
    8.0881  -16.7184   24.2930 O   0  0  0  0  0  0  0  0  0  0  0  0
   11.6594  -17.9162   22.8839 N   0  0  0  0  0  0  0  0  0  0  0  0
   12.2321  -16.9827   23.7757 C   0  0  0  0  0  0  0  0  0  0  0  0
   13.0127  -16.1252   23.2435 O   0  0  0  0  0  0  0  0  0  0  0  0
   11.9514  -16.9905   25.2163 C   0  0  0  0  0  0  0  0  0  0  0  0
   10.5024  -16.8065   25.5302 C   0  0  2  0  0  0  0  0  0  0  0  0
    9.9587  -15.5975   24.9516 N   0  0  0  0  0  0  0  0  0  0  0  0
   10.1521  -16.8977   26.9511 C   0  0  0  0  0  0  0  0  0  0  0  0
    9.7811  -15.8275   27.5421 O   0  0  0  0  0  0  0  0  0  0  0  0
   10.1843  -18.0249   27.7137 O   0  0  0  0  0  0  0  0  0  0  0  0
  2  1  1  0
  3  2  1  0
  3  5  1  0
  3  4  1  6
  5  6  2  0
  5 12  1  0
  7  8  1  0
  8  9  1  0
 11 10  1  1
 10  9  1  0
 11 13  1  0
 12 11  1  0
 13 20  1  0
 14 13  2  0
 16 15  1  0
 17 16  2  0
 18 16  1  0
 19 21  1  0
 19 18  1  1
 20 19  1  0
 21 23  1  0
 22 21  2  0
M  END
$$$$
