SMN.pdb
     RDKit          3D

 23 22  0  0  1  0  0  0  0  0999 V2000
    8.6153  -15.5409   18.9624 O   0  0  0  0  0  0  0  0  0  0  0  0
    7.3112  -15.0564   19.0661 C   0  0  0  0  0  0  0  0  0  0  0  0
    7.3887  -13.6577   19.6561 C   0  0  2  0  0  0  0  0  0  0  0  0
    8.0648  -12.7859   18.7349 N   0  0  0  0  0  0  0  0  0  0  0  0
    8.0575  -13.6829   20.9909 C   0  0  0  0  0  0  0  0  0  0  0  0
    9.3208  -13.5818   21.0567 O   0  0  0  0  0  0  0  0  0  0  0  0
    7.3691  -11.0591   27.7293 C   0  0  0  0  0  0  0  0  0  0  0  0
    6.2791  -12.3341   27.0163 S   0  0  0  0  0  0  0  0  0  0  0  0
    7.2427  -13.3981   25.9460 C   0  0  0  0  0  0  0  0  0  0  0  0
    6.9167  -13.3999   24.5122 C   0  0  0  0  0  0  0  0  0  0  0  0
    7.9090  -13.8617   23.5088 C   0  0  2  0  0  0  0  0  0  0  0  0
    7.2907  -13.8175   22.1658 N   0  0  0  0  0  0  0  0  0  0  0  0
    8.4418  -15.1872   23.7802 C   0  0  0  0  0  0  0  0  0  0  0  0
    7.7871  -16.2003   23.4471 O   0  0  0  0  0  0  0  0  0  0  0  0
   12.3818  -18.8070   25.3957 N   0  0  0  0  0  0  0  0  0  0  0  0
   12.1572  -18.2422   24.1209 C   0  0  0  0  0  0  0  0  0  0  0  0
   12.4855  -18.9771   23.1311 O   0  0  0  0  0  0  0  0  0  0  0  0
   11.5835  -16.9035   23.9392 C   0  0  0  0  0  0  0  0  0  0  0  0
   10.2155  -16.7697   24.5244 C   0  0  2  0  0  0  0  0  0  0  0  0
    9.6959  -15.4241   24.4182 N   0  0  0  0  0  0  0  0  0  0  0  0
   10.0682  -17.2697   25.8949 C   0  0  0  0  0  0  0  0  0  0  0  0
   10.4862  -18.4507   26.1454 O   0  0  0  0  0  0  0  0  0  0  0  0
    9.5220  -16.5913   26.9412 O   0  0  0  0  0  0  0  0  0  0  0  0
  2  1  1  0
  3  2  1  0
  3  5  1  0
  3  4  1  6
  5  6  2  0
  5 12  1  0
  7  8  1  0
  8  9  1  0
 11 10  1  1
 10  9  1  0
 11 13  1  0
 12 11  1  0
 13 20  1  0
 14 13  2  0
 16 15  1  0
 17 16  2  0
 18 16  1  0
 19 21  1  0
 19 18  1  1
 20 19  1  0
 21 23  1  0
 22 21  2  0
M  END
$$$$
