SMN.pdb
     RDKit          3D

 23 22  0  0  1  0  0  0  0  0999 V2000
    8.8708  -18.3467   21.8277 O   0  0  0  0  0  0  0  0  0  0  0  0
    8.0549  -17.8058   20.8338 C   0  0  0  0  0  0  0  0  0  0  0  0
    8.6182  -16.4409   20.4725 C   0  0  2  0  0  0  0  0  0  0  0  0
    9.8168  -16.6073   19.6971 N   0  0  0  0  0  0  0  0  0  0  0  0
    8.8586  -15.6260   21.7004 C   0  0  0  0  0  0  0  0  0  0  0  0
   10.0498  -15.4071   22.0794 O   0  0  0  0  0  0  0  0  0  0  0  0
    6.7341  -11.5424   27.7272 C   0  0  0  0  0  0  0  0  0  0  0  0
    6.9074  -12.9951   26.6402 S   0  0  0  0  0  0  0  0  0  0  0  0
    6.6223  -12.4963   24.9443 C   0  0  0  0  0  0  0  0  0  0  0  0
    6.6857  -13.5366   23.9069 C   0  0  0  0  0  0  0  0  0  0  0  0
    7.9598  -14.2414   23.6158 C   0  0  2  0  0  0  0  0  0  0  0  0
    7.7709  -15.1053   22.4301 N   0  0  0  0  0  0  0  0  0  0  0  0
    8.4678  -15.0180   24.7353 C   0  0  0  0  0  0  0  0  0  0  0  0
    8.8212  -14.4364   25.7855 O   0  0  0  0  0  0  0  0  0  0  0  0
    6.3135  -17.7472   25.1512 N   0  0  0  0  0  0  0  0  0  0  0  0
    7.1090  -18.6680   25.8681 C   0  0  0  0  0  0  0  0  0  0  0  0
    6.4711  -19.6134   26.4398 O   0  0  0  0  0  0  0  0  0  0  0  0
    8.5698  -18.5532   25.9520 C   0  0  0  0  0  0  0  0  0  0  0  0
    9.0484  -17.1388   25.9055 C   0  0  2  0  0  0  0  0  0  0  0  0
    8.5964  -16.4390   24.7231 N   0  0  0  0  0  0  0  0  0  0  0  0
   10.4922  -16.9590   26.0876 C   0  0  0  0  0  0  0  0  0  0  0  0
   11.2194  -16.8872   25.0396 O   0  0  0  0  0  0  0  0  0  0  0  0
   11.1436  -16.8605   27.2788 O   0  0  0  0  0  0  0  0  0  0  0  0
  2  1  1  0
  3  2  1  0
  3  5  1  0
  3  4  1  1
  5  6  2  0
  5 12  1  0
  7  8  1  0
  8  9  1  0
 11 10  1  1
 10  9  1  0
 11 13  1  0
 12 11  1  0
 13 20  1  0
 14 13  2  0
 16 15  1  0
 17 16  2  0
 18 16  1  0
 19 21  1  0
 19 18  1  6
 20 19  1  0
 21 23  1  0
 22 21  2  0
M  END
$$$$
