SMN.pdb
     RDKit          3D

 23 22  0  0  1  0  0  0  0  0999 V2000
    7.7014  -14.7513   17.6419 O   0  0  0  0  0  0  0  0  0  0  0  0
    7.9236  -14.2674   18.9313 C   0  0  0  0  0  0  0  0  0  0  0  0
    8.0796  -15.4684   19.8498 C   0  0  2  0  0  0  0  0  0  0  0  0
    6.8357  -16.1852   19.9165 N   0  0  0  0  0  0  0  0  0  0  0  0
    8.5497  -15.0430   21.2017 C   0  0  0  0  0  0  0  0  0  0  0  0
    9.7355  -14.6134   21.3421 O   0  0  0  0  0  0  0  0  0  0  0  0
    7.0192  -11.8985   28.0519 C   0  0  0  0  0  0  0  0  0  0  0  0
    6.7305  -12.1167   26.2655 S   0  0  0  0  0  0  0  0  0  0  0  0
    7.0326  -13.8262   25.8267 C   0  0  0  0  0  0  0  0  0  0  0  0
    6.9275  -14.1955   24.4073 C   0  0  0  0  0  0  0  0  0  0  0  0
    8.1058  -14.7174   23.6696 C   0  0  2  0  0  0  0  0  0  0  0  0
    7.6825  -15.1185   22.3102 N   0  0  0  0  0  0  0  0  0  0  0  0
    8.7743  -15.8206   24.3405 C   0  0  0  0  0  0  0  0  0  0  0  0
    8.2747  -16.9673   24.2997 O   0  0  0  0  0  0  0  0  0  0  0  0
   12.8122  -16.2243   23.0452 N   0  0  0  0  0  0  0  0  0  0  0  0
   12.3311  -17.2153   23.9289 C   0  0  0  0  0  0  0  0  0  0  0  0
   12.1375  -18.3644   23.4096 O   0  0  0  0  0  0  0  0  0  0  0  0
   12.0716  -16.9498   25.3490 C   0  0  0  0  0  0  0  0  0  0  0  0
   10.6157  -16.8467   25.6676 C   0  0  2  0  0  0  0  0  0  0  0  0
    9.9967  -15.6869   25.0642 N   0  0  0  0  0  0  0  0  0  0  0  0
   10.2785  -16.9251   27.0924 C   0  0  0  0  0  0  0  0  0  0  0  0
    9.7774  -15.8870   27.6431 O   0  0  0  0  0  0  0  0  0  0  0  0
   10.4497  -18.0091   27.8980 O   0  0  0  0  0  0  0  0  0  0  0  0
  2  1  1  0
  3  2  1  0
  3  5  1  0
  3  4  1  1
  5  6  2  0
  5 12  1  0
  7  8  1  0
  8  9  1  0
 11 10  1  1
 10  9  1  0
 11 13  1  0
 12 11  1  0
 13 20  1  0
 14 13  2  0
 16 15  1  0
 17 16  2  0
 18 16  1  0
 19 21  1  0
 19 18  1  1
 20 19  1  0
 21 23  1  0
 22 21  2  0
M  END
$$$$
