WKL.pdb
     RDKit          3D

 32 33  0  0  1  0  0  0  0  0999 V2000
   25.0034  -18.9780  -11.3953 N   0  0  0  0  0  0  0  0  0  0  0  0
   25.9725  -20.0145  -11.6950 C   0  0  1  0  0  0  0  0  0  0  0  0
   25.7333  -21.1722  -10.7851 C   0  0  0  0  0  0  0  0  0  0  0  0
   25.9712  -20.7284   -9.3892 C   0  0  0  0  0  0  0  0  0  0  0  0
   25.0698  -20.3313   -8.4261 C   0  0  0  0  0  0  0  0  0  0  0  0
   25.7212  -20.0078   -7.2869 N   0  0  0  0  0  0  0  0  0  0  0  0
   27.0415  -20.1805   -7.4678 C   0  0  0  0  0  0  0  0  0  0  0  0
   28.1310  -20.0100   -6.6758 C   0  0  0  0  0  0  0  0  0  0  0  0
   29.4198  -20.2608   -7.1008 C   0  0  0  0  0  0  0  0  0  0  0  0
   29.5689  -20.7096   -8.4126 C   0  0  0  0  0  0  0  0  0  0  0  0
   28.4904  -20.8891   -9.2281 C   0  0  0  0  0  0  0  0  0  0  0  0
   27.2219  -20.6302   -8.7741 C   0  0  0  0  0  0  0  0  0  0  0  0
   25.9178  -20.4149  -13.1401 C   0  0  0  0  0  0  0  0  0  0  0  0
   24.9743  -20.0074  -13.8229 O   0  0  0  0  0  0  0  0  0  0  0  0
   26.9019  -21.2263  -13.7086 N   0  0  0  0  0  0  0  0  0  0  0  0
   27.1302  -21.5318  -15.0913 C   0  0  1  0  0  0  0  0  0  0  0  0
   28.4638  -22.1152  -15.4446 C   0  0  0  0  0  0  0  0  0  0  0  0
   28.7545  -22.3524  -16.8671 C   0  0  0  0  0  0  0  0  0  0  0  0
   30.1713  -22.8526  -17.1204 C   0  0  0  0  0  0  0  0  0  0  0  0
   30.2994  -22.9011  -18.6501 C   0  0  0  0  0  0  0  0  0  0  0  0
   31.5685  -23.4833  -19.0477 N   0  0  0  0  0  0  0  0  0  0  0  0
   25.9712  -22.1769  -15.7149 C   0  0  0  0  0  0  0  0  0  0  0  0
   25.6071  -23.3266  -15.2886 O   0  0  0  0  0  0  0  0  0  0  0  0
   21.1728  -19.9576  -17.3057 C   0  0  0  0  0  0  0  0  0  0  0  0
   21.7473  -21.3402  -17.2731 C   0  0  2  0  0  0  0  0  0  0  0  0
   21.9706  -21.6853  -15.7918 C   0  0  0  0  0  0  0  0  0  0  0  0
   23.0277  -21.5047  -17.9974 C   0  0  0  0  0  0  0  0  0  0  0  0
   24.0852  -22.3375  -17.3768 C   0  0  2  0  0  0  0  0  0  0  0  0
   25.1890  -21.6449  -16.7709 N   0  0  0  0  0  0  0  0  0  0  0  0
   24.6633  -23.3368  -18.3231 C   0  0  0  0  0  0  0  0  0  0  0  0
   24.2264  -24.5257  -18.3825 O   0  0  0  0  0  0  0  0  0  0  0  0
   25.7048  -23.0312  -19.1892 O   0  0  0  0  0  0  0  0  0  0  0  0
  2  1  1  6
  2 13  1  0
  2  3  1  0
  4  5  2  0
  4  3  1  0
  6  5  1  0
  7 12  2  0
  7  6  1  0
  8  7  1  0
  9 10  1  0
  9  8  2  0
 10 11  2  0
 11 12  1  0
 12  4  1  0
 13 14  2  0
 15 16  1  0
 15 13  1  0
 16 17  1  1
 18 17  1  0
 19 20  1  0
 19 18  1  0
 21 20  1  0
 22 16  1  0
 22 23  2  0
 25 24  1  1
 25 26  1  0
 25 27  1  0
 28 27  1  6
 28 29  1  0
 28 30  1  0
 29 22  1  0
 30 31  2  0
 30 32  1  0
M  END
$$$$
