WKL.pdb
     RDKit          3D

 32 33  0  0  1  0  0  0  0  0999 V2000
   27.4791  -19.5666  -11.3609 N   0  0  0  0  0  0  0  0  0  0  0  0
   26.6640  -20.7643  -11.2942 C   0  0  1  0  0  0  0  0  0  0  0  0
   26.1385  -20.9100   -9.9056 C   0  0  0  0  0  0  0  0  0  0  0  0
   27.2195  -20.5498   -8.9550 C   0  0  0  0  0  0  0  0  0  0  0  0
   27.2378  -19.5926   -7.9645 C   0  0  0  0  0  0  0  0  0  0  0  0
   28.4324  -19.6025   -7.3324 N   0  0  0  0  0  0  0  0  0  0  0  0
   29.2150  -20.5478   -7.8801 C   0  0  0  0  0  0  0  0  0  0  0  0
   30.4802  -20.9781   -7.6406 C   0  0  0  0  0  0  0  0  0  0  0  0
   31.0808  -21.9928   -8.3578 C   0  0  0  0  0  0  0  0  0  0  0  0
   30.3194  -22.5790   -9.3682 C   0  0  0  0  0  0  0  0  0  0  0  0
   29.0462  -22.1650   -9.6283 C   0  0  0  0  0  0  0  0  0  0  0  0
   28.4785  -21.1529   -8.8963 C   0  0  0  0  0  0  0  0  0  0  0  0
   25.5617  -20.7346  -12.3119 C   0  0  0  0  0  0  0  0  0  0  0  0
   25.0024  -19.6576  -12.5348 O   0  0  0  0  0  0  0  0  0  0  0  0
   25.1703  -21.8879  -12.9952 N   0  0  0  0  0  0  0  0  0  0  0  0
   24.2519  -22.0196  -14.0891 C   0  0  1  0  0  0  0  0  0  0  0  0
   24.4866  -23.1551  -15.0373 C   0  0  0  0  0  0  0  0  0  0  0  0
   25.7927  -23.2288  -15.7104 C   0  0  0  0  0  0  0  0  0  0  0  0
   25.8801  -24.3471  -16.7417 C   0  0  0  0  0  0  0  0  0  0  0  0
   27.3296  -24.2980  -17.2472 C   0  0  0  0  0  0  0  0  0  0  0  0
   27.5838  -25.3618  -18.2019 N   0  0  0  0  0  0  0  0  0  0  0  0
   22.8611  -21.8197  -13.6719 C   0  0  0  0  0  0  0  0  0  0  0  0
   22.4302  -22.4580  -12.6507 O   0  0  0  0  0  0  0  0  0  0  0  0
   20.2549  -18.6080  -11.6303 C   0  0  0  0  0  0  0  0  0  0  0  0
   20.4706  -18.3816  -13.0948 C   0  0  2  0  0  0  0  0  0  0  0  0
   19.7435  -17.0735  -13.4460 C   0  0  0  0  0  0  0  0  0  0  0  0
   19.9654  -19.4575  -13.9770 C   0  0  0  0  0  0  0  0  0  0  0  0
   20.5609  -20.8089  -13.8506 C   0  0  2  0  0  0  0  0  0  0  0  0
   21.9167  -20.9686  -14.2994 N   0  0  0  0  0  0  0  0  0  0  0  0
   19.7497  -21.8633  -14.5277 C   0  0  0  0  0  0  0  0  0  0  0  0
   20.1416  -22.4175  -15.5987 O   0  0  0  0  0  0  0  0  0  0  0  0
   18.5278  -22.2996  -14.0329 O   0  0  0  0  0  0  0  0  0  0  0  0
  2  1  1  1
  2 13  1  0
  2  3  1  0
  4  5  2  0
  4  3  1  0
  6  5  1  0
  7 12  2  0
  7  6  1  0
  8  7  1  0
  9 10  1  0
  9  8  2  0
 10 11  2  0
 11 12  1  0
 12  4  1  0
 13 14  2  0
 15 16  1  0
 15 13  1  0
 16 17  1  1
 18 17  1  0
 19 20  1  0
 19 18  1  0
 21 20  1  0
 22 16  1  0
 22 23  2  0
 25 24  1  1
 25 26  1  0
 25 27  1  0
 28 27  1  6
 28 29  1  0
 28 30  1  0
 29 22  1  0
 30 31  2  0
 30 32  1  0
M  END
$$$$
