WKL.pdb
     RDKit          3D

 32 33  0  0  1  0  0  0  0  0999 V2000
   26.9323  -20.8213  -15.9784 N   0  0  0  0  0  0  0  0  0  0  0  0
   26.3927  -21.3082  -14.7234 C   0  0  1  0  0  0  0  0  0  0  0  0
   26.3387  -20.1760  -13.7534 C   0  0  0  0  0  0  0  0  0  0  0  0
   27.6522  -20.0816  -13.0693 C   0  0  0  0  0  0  0  0  0  0  0  0
   28.8265  -19.5005  -13.4948 C   0  0  0  0  0  0  0  0  0  0  0  0
   29.7835  -19.6451  -12.5515 N   0  0  0  0  0  0  0  0  0  0  0  0
   29.2733  -20.3117  -11.5020 C   0  0  0  0  0  0  0  0  0  0  0  0
   29.7785  -20.7204  -10.3100 C   0  0  0  0  0  0  0  0  0  0  0  0
   29.0364  -21.4087   -9.3718 C   0  0  0  0  0  0  0  0  0  0  0  0
   27.7084  -21.6779   -9.7009 C   0  0  0  0  0  0  0  0  0  0  0  0
   27.1772  -21.2778  -10.8917 C   0  0  0  0  0  0  0  0  0  0  0  0
   27.9428  -20.5952  -11.8028 C   0  0  0  0  0  0  0  0  0  0  0  0
   25.0492  -21.9480  -14.9156 C   0  0  0  0  0  0  0  0  0  0  0  0
   24.1695  -21.2974  -15.4859 O   0  0  0  0  0  0  0  0  0  0  0  0
   24.7890  -23.2442  -14.4659 N   0  0  0  0  0  0  0  0  0  0  0  0
   23.5289  -23.9169  -14.3349 C   0  0  1  0  0  0  0  0  0  0  0  0
   23.5716  -25.3721  -13.9823 C   0  0  0  0  0  0  0  0  0  0  0  0
   22.3382  -26.1559  -14.1510 C   0  0  0  0  0  0  0  0  0  0  0  0
   22.1467  -26.6862  -15.5666 C   0  0  0  0  0  0  0  0  0  0  0  0
   20.7961  -27.4164  -15.5294 C   0  0  0  0  0  0  0  0  0  0  0  0
   20.4992  -28.0268  -16.8127 N   0  0  0  0  0  0  0  0  0  0  0  0
   22.5469  -23.1152  -13.5992 C   0  0  0  0  0  0  0  0  0  0  0  0
   22.8851  -22.6164  -12.4710 O   0  0  0  0  0  0  0  0  0  0  0  0
   19.6390  -18.3066  -13.5356 C   0  0  0  0  0  0  0  0  0  0  0  0
   20.0360  -19.4455  -12.6478 C   0  0  2  0  0  0  0  0  0  0  0  0
   20.8032  -18.8307  -11.4660 C   0  0  0  0  0  0  0  0  0  0  0  0
   20.8908  -20.4709  -13.2873 C   0  0  0  0  0  0  0  0  0  0  0  0
   20.3754  -21.8574  -13.3817 C   0  0  2  0  0  0  0  0  0  0  0  0
   21.2238  -22.8264  -14.0191 N   0  0  0  0  0  0  0  0  0  0  0  0
   19.0441  -21.9343  -14.0524 C   0  0  0  0  0  0  0  0  0  0  0  0
   18.9391  -22.1443  -15.2985 O   0  0  0  0  0  0  0  0  0  0  0  0
   17.8490  -21.7828  -13.3617 O   0  0  0  0  0  0  0  0  0  0  0  0
  2  1  1  6
  2 13  1  0
  2  3  1  0
  4  5  2  0
  4  3  1  0
  6  5  1  0
  7 12  2  0
  7  6  1  0
  8  7  1  0
  9 10  1  0
  9  8  2  0
 10 11  2  0
 11 12  1  0
 12  4  1  0
 13 14  2  0
 15 16  1  0
 15 13  1  0
 16 17  1  1
 18 17  1  0
 19 20  1  0
 19 18  1  0
 21 20  1  0
 22 16  1  0
 22 23  2  0
 25 24  1  6
 25 26  1  0
 25 27  1  0
 28 27  1  6
 28 29  1  0
 28 30  1  0
 29 22  1  0
 30 31  2  0
 30 32  1  0
M  END
$$$$
