WKL.pdb
     RDKit          3D

 32 33  0  0  1  0  0  0  0  0999 V2000
   25.6447  -18.5540   -8.9556 N   0  0  0  0  0  0  0  0  0  0  0  0
   26.6403  -19.4399   -9.5277 C   0  0  1  0  0  0  0  0  0  0  0  0
   27.0017  -20.4731   -8.5141 C   0  0  0  0  0  0  0  0  0  0  0  0
   27.4220  -19.7825   -7.2697 C   0  0  0  0  0  0  0  0  0  0  0  0
   26.9484  -18.6179   -6.7065 C   0  0  0  0  0  0  0  0  0  0  0  0
   27.6192  -18.3493   -5.5643 N   0  0  0  0  0  0  0  0  0  0  0  0
   28.5330  -19.3113   -5.3512 C   0  0  0  0  0  0  0  0  0  0  0  0
   29.4555  -19.5356   -4.3806 C   0  0  0  0  0  0  0  0  0  0  0  0
   30.3033  -20.6247   -4.3823 C   0  0  0  0  0  0  0  0  0  0  0  0
   30.1754  -21.5143   -5.4485 C   0  0  0  0  0  0  0  0  0  0  0  0
   29.2565  -21.3114   -6.4357 C   0  0  0  0  0  0  0  0  0  0  0  0
   28.4285  -20.2178   -6.4040 C   0  0  0  0  0  0  0  0  0  0  0  0
   26.1566  -20.0540  -10.8084 C   0  0  0  0  0  0  0  0  0  0  0  0
   24.9434  -20.0541  -11.0335 O   0  0  0  0  0  0  0  0  0  0  0  0
   27.0453  -20.6135  -11.7288 N   0  0  0  0  0  0  0  0  0  0  0  0
   26.7881  -21.0819  -13.0600 C   0  0  1  0  0  0  0  0  0  0  0  0
   27.9811  -21.3734  -13.9176 C   0  0  0  0  0  0  0  0  0  0  0  0
   27.7414  -21.8197  -15.2987 C   0  0  0  0  0  0  0  0  0  0  0  0
   29.0136  -22.2221  -16.0344 C   0  0  0  0  0  0  0  0  0  0  0  0
   29.0700  -21.2895  -17.2533 C   0  0  0  0  0  0  0  0  0  0  0  0
   30.2598  -21.5412  -18.0462 N   0  0  0  0  0  0  0  0  0  0  0  0
   25.7204  -22.0853  -13.0976 C   0  0  0  0  0  0  0  0  0  0  0  0
   25.7863  -23.0801  -12.2963 O   0  0  0  0  0  0  0  0  0  0  0  0
   20.6127  -21.4706  -12.5511 C   0  0  0  0  0  0  0  0  0  0  0  0
   21.6411  -20.4923  -12.0734 C   0  0  2  0  0  0  0  0  0  0  0  0
   21.1307  -19.0962  -12.4652 C   0  0  0  0  0  0  0  0  0  0  0  0
   22.9957  -20.6792  -12.6402 C   0  0  0  0  0  0  0  0  0  0  0  0
   23.2431  -21.8639  -13.4959 C   0  0  2  0  0  0  0  0  0  0  0  0
   24.5900  -22.0682  -13.9532 N   0  0  0  0  0  0  0  0  0  0  0  0
   22.3626  -21.9002  -14.7008 C   0  0  0  0  0  0  0  0  0  0  0  0
   22.6191  -21.2086  -15.7321 O   0  0  0  0  0  0  0  0  0  0  0  0
   21.2193  -22.6855  -14.7680 O   0  0  0  0  0  0  0  0  0  0  0  0
  2  1  1  1
  2 13  1  0
  2  3  1  0
  4  5  2  0
  4  3  1  0
  6  5  1  0
  7 12  2  0
  7  6  1  0
  8  7  1  0
  9 10  1  0
  9  8  2  0
 10 11  2  0
 11 12  1  0
 12  4  1  0
 13 14  2  0
 15 16  1  0
 15 13  1  0
 16 17  1  1
 18 17  1  0
 19 20  1  0
 19 18  1  0
 21 20  1  0
 22 16  1  0
 22 23  2  0
 25 24  1  6
 25 26  1  0
 25 27  1  0
 28 27  1  6
 28 29  1  0
 28 30  1  0
 29 22  1  0
 30 31  2  0
 30 32  1  0
M  END
$$$$
