WKL.pdb
     RDKit          3D

 32 33  0  0  1  0  0  0  0  0999 V2000
   28.4507  -20.2799  -17.1455 N   0  0  0  0  0  0  0  0  0  0  0  0
   27.9079  -21.2488  -16.2127 C   0  0  1  0  0  0  0  0  0  0  0  0
   28.9904  -22.1988  -15.8241 C   0  0  0  0  0  0  0  0  0  0  0  0
   29.3881  -22.9735  -17.0257 C   0  0  0  0  0  0  0  0  0  0  0  0
   30.5979  -23.0188  -17.6831 C   0  0  0  0  0  0  0  0  0  0  0  0
   30.5211  -23.8606  -18.7376 N   0  0  0  0  0  0  0  0  0  0  0  0
   29.2834  -24.3805  -18.7996 C   0  0  0  0  0  0  0  0  0  0  0  0
   28.6712  -25.2580  -19.6353 C   0  0  0  0  0  0  0  0  0  0  0  0
   27.3551  -25.6468  -19.4890 C   0  0  0  0  0  0  0  0  0  0  0  0
   26.6542  -25.0899  -18.4199 C   0  0  0  0  0  0  0  0  0  0  0  0
   27.2466  -24.2064  -17.5663 C   0  0  0  0  0  0  0  0  0  0  0  0
   28.5574  -23.8406  -17.7400 C   0  0  0  0  0  0  0  0  0  0  0  0
   27.2948  -20.5769  -15.0193 C   0  0  0  0  0  0  0  0  0  0  0  0
   27.8297  -19.5520  -14.5881 O   0  0  0  0  0  0  0  0  0  0  0  0
   26.1498  -21.0878  -14.4045 N   0  0  0  0  0  0  0  0  0  0  0  0
   25.3189  -20.4843  -13.4030 C   0  0  1  0  0  0  0  0  0  0  0  0
   23.8984  -20.1994  -13.7834 C   0  0  0  0  0  0  0  0  0  0  0  0
   23.6600  -19.3423  -14.9550 C   0  0  0  0  0  0  0  0  0  0  0  0
   22.1854  -19.2010  -15.3119 C   0  0  0  0  0  0  0  0  0  0  0  0
   22.1664  -18.2548  -16.5215 C   0  0  0  0  0  0  0  0  0  0  0  0
   20.8097  -18.0358  -16.9894 N   0  0  0  0  0  0  0  0  0  0  0  0
   25.5118  -21.0920  -12.0833 C   0  0  0  0  0  0  0  0  0  0  0  0
   25.3632  -22.3568  -11.9638 O   0  0  0  0  0  0  0  0  0  0  0  0
   28.6266  -21.1542   -8.5624 C   0  0  0  0  0  0  0  0  0  0  0  0
   27.7417  -19.9460   -8.5571 C   0  0  2  0  0  0  0  0  0  0  0  0
   28.1705  -19.0962   -7.3499 C   0  0  0  0  0  0  0  0  0  0  0  0
   26.2931  -20.2299   -8.4476 C   0  0  0  0  0  0  0  0  0  0  0  0
   25.6258  -20.9273   -9.5724 C   0  0  2  0  0  0  0  0  0  0  0  0
   25.8557  -20.4055  -10.8915 N   0  0  0  0  0  0  0  0  0  0  0  0
   24.1470  -21.0276   -9.3942 C   0  0  0  0  0  0  0  0  0  0  0  0
   23.6351  -21.7383   -8.4774 O   0  0  0  0  0  0  0  0  0  0  0  0
   23.2481  -20.3559  -10.2121 O   0  0  0  0  0  0  0  0  0  0  0  0
  2  1  1  6
  2 13  1  0
  2  3  1  0
  4  5  2  0
  4  3  1  0
  6  5  1  0
  7 12  2  0
  7  6  1  0
  8  7  1  0
  9 10  1  0
  9  8  2  0
 10 11  2  0
 11 12  1  0
 12  4  1  0
 13 14  2  0
 15 16  1  0
 15 13  1  0
 16 17  1  6
 18 17  1  0
 19 20  1  0
 19 18  1  0
 21 20  1  0
 22 16  1  0
 22 23  2  0
 25 24  1  1
 25 26  1  0
 25 27  1  0
 28 27  1  1
 28 29  1  0
 28 30  1  0
 29 22  1  0
 30 31  2  0
 30 32  1  0
M  END
$$$$
