WKL.pdb
     RDKit          3D

 32 33  0  0  1  0  0  0  0  0999 V2000
   19.6992  -20.1494  -15.5835 N   0  0  0  0  0  0  0  0  0  0  0  0
   20.6371  -19.0529  -15.7291 C   0  0  1  0  0  0  0  0  0  0  0  0
   20.2996  -17.9974  -14.7304 C   0  0  0  0  0  0  0  0  0  0  0  0
   19.1514  -17.2124  -15.2476 C   0  0  0  0  0  0  0  0  0  0  0  0
   17.8078  -17.3286  -14.9665 C   0  0  0  0  0  0  0  0  0  0  0  0
   17.1072  -16.4060  -15.6626 N   0  0  0  0  0  0  0  0  0  0  0  0
   17.9552  -15.6737  -16.4047 C   0  0  0  0  0  0  0  0  0  0  0  0
   17.7975  -14.6393  -17.2698 C   0  0  0  0  0  0  0  0  0  0  0  0
   18.8513  -14.0382  -17.9277 C   0  0  0  0  0  0  0  0  0  0  0  0
   20.1232  -14.5459  -17.6648 C   0  0  0  0  0  0  0  0  0  0  0  0
   20.3080  -15.5841  -16.7998 C   0  0  0  0  0  0  0  0  0  0  0  0
   19.2382  -16.1595  -16.1619 C   0  0  0  0  0  0  0  0  0  0  0  0
   22.0556  -19.5229  -15.5924 C   0  0  0  0  0  0  0  0  0  0  0  0
   22.2910  -20.4464  -14.8088 O   0  0  0  0  0  0  0  0  0  0  0  0
   23.0900  -18.9390  -16.3266 N   0  0  0  0  0  0  0  0  0  0  0  0
   24.4945  -19.2282  -16.2921 C   0  0  1  0  0  0  0  0  0  0  0  0
   25.3529  -18.5392  -17.3080 C   0  0  0  0  0  0  0  0  0  0  0  0
   26.7819  -18.8863  -17.3484 C   0  0  0  0  0  0  0  0  0  0  0  0
   27.0524  -20.3666  -17.1085 C   0  0  0  0  0  0  0  0  0  0  0  0
   28.5739  -20.5134  -17.2578 C   0  0  0  0  0  0  0  0  0  0  0  0
   29.0015  -21.8605  -16.9260 N   0  0  0  0  0  0  0  0  0  0  0  0
   25.0226  -19.2479  -14.9250 C   0  0  0  0  0  0  0  0  0  0  0  0
   24.7568  -18.2645  -14.1515 O   0  0  0  0  0  0  0  0  0  0  0  0
   26.3801  -20.6446   -9.8683 C   0  0  0  0  0  0  0  0  0  0  0  0
   25.3104  -19.9014  -10.6071 C   0  0  2  0  0  0  0  0  0  0  0  0
   24.0207  -20.0619   -9.7860 C   0  0  0  0  0  0  0  0  0  0  0  0
   25.0569  -20.3738  -11.9869 C   0  0  0  0  0  0  0  0  0  0  0  0
   26.1723  -20.3292  -12.9619 C   0  0  2  0  0  0  0  0  0  0  0  0
   25.8197  -20.2719  -14.3538 N   0  0  0  0  0  0  0  0  0  0  0  0
   27.1271  -21.4651  -12.7998 C   0  0  0  0  0  0  0  0  0  0  0  0
   26.8208  -22.6453  -13.1477 O   0  0  0  0  0  0  0  0  0  0  0  0
   28.3978  -21.3031  -12.2636 O   0  0  0  0  0  0  0  0  0  0  0  0
  2  1  1  1
  2 13  1  0
  2  3  1  0
  4  5  2  0
  4  3  1  0
  6  5  1  0
  7 12  2  0
  7  6  1  0
  8  7  1  0
  9 10  1  0
  9  8  2  0
 10 11  2  0
 11 12  1  0
 12  4  1  0
 13 14  2  0
 15 16  1  0
 15 13  1  0
 16 17  1  6
 18 17  1  0
 19 20  1  0
 19 18  1  0
 21 20  1  0
 22 16  1  0
 22 23  2  0
 25 24  1  1
 25 26  1  0
 25 27  1  0
 28 27  1  1
 28 29  1  0
 28 30  1  0
 29 22  1  0
 30 31  2  0
 30 32  1  0
M  END
$$$$
