WKL.pdb
     RDKit          3D

 32 33  0  0  1  0  0  0  0  0999 V2000
   25.1989  -19.6021  -11.2952 N   0  0  0  0  0  0  0  0  0  0  0  0
   26.2982  -20.4700  -11.6714 C   0  0  1  0  0  0  0  0  0  0  0  0
   26.3847  -21.5881  -10.6876 C   0  0  0  0  0  0  0  0  0  0  0  0
   26.5537  -21.0081   -9.3322 C   0  0  0  0  0  0  0  0  0  0  0  0
   25.6222  -20.8115   -8.3365 C   0  0  0  0  0  0  0  0  0  0  0  0
   26.2098  -20.2504   -7.2564 N   0  0  0  0  0  0  0  0  0  0  0  0
   27.5170  -20.0673   -7.5089 C   0  0  0  0  0  0  0  0  0  0  0  0
   28.5516  -19.5555   -6.7942 C   0  0  0  0  0  0  0  0  0  0  0  0
   29.8390  -19.4715   -7.2843 C   0  0  0  0  0  0  0  0  0  0  0  0
   30.0467  -19.9453   -8.5792 C   0  0  0  0  0  0  0  0  0  0  0  0
   29.0240  -20.4641   -9.3176 C   0  0  0  0  0  0  0  0  0  0  0  0
   27.7552  -20.5330   -8.8002 C   0  0  0  0  0  0  0  0  0  0  0  0
   26.1455  -20.9697  -13.0780 C   0  0  0  0  0  0  0  0  0  0  0  0
   25.0069  -21.1946  -13.4968 O   0  0  0  0  0  0  0  0  0  0  0  0
   27.2543  -21.1787  -13.9008 N   0  0  0  0  0  0  0  0  0  0  0  0
   27.2918  -21.5041  -15.2973 C   0  0  1  0  0  0  0  0  0  0  0  0
   28.6283  -21.4437  -15.9709 C   0  0  0  0  0  0  0  0  0  0  0  0
   28.6970  -21.8090  -17.3943 C   0  0  0  0  0  0  0  0  0  0  0  0
   30.1007  -21.7076  -17.9784 C   0  0  0  0  0  0  0  0  0  0  0  0
   29.8883  -21.6789  -19.4993 C   0  0  0  0  0  0  0  0  0  0  0  0
   31.1577  -21.7201  -20.2025 N   0  0  0  0  0  0  0  0  0  0  0  0
   26.4749  -22.6789  -15.6145 C   0  0  0  0  0  0  0  0  0  0  0  0
   26.6232  -23.7363  -14.9103 O   0  0  0  0  0  0  0  0  0  0  0  0
   21.1609  -24.1501  -14.6185 C   0  0  0  0  0  0  0  0  0  0  0  0
   22.2911  -24.5281  -15.5254 C   0  0  2  0  0  0  0  0  0  0  0  0
   22.8341  -25.8707  -15.0098 C   0  0  0  0  0  0  0  0  0  0  0  0
   23.4047  -23.5544  -15.5792 C   0  0  0  0  0  0  0  0  0  0  0  0
   24.4200  -23.7051  -16.6485 C   0  0  2  0  0  0  0  0  0  0  0  0
   25.5100  -22.7686  -16.6494 N   0  0  0  0  0  0  0  0  0  0  0  0
   23.8249  -23.6837  -18.0174 C   0  0  0  0  0  0  0  0  0  0  0  0
   23.6166  -24.7519  -18.6679 O   0  0  0  0  0  0  0  0  0  0  0  0
   23.4652  -22.5054  -18.6580 O   0  0  0  0  0  0  0  0  0  0  0  0
  2  1  1  1
  2 13  1  0
  2  3  1  0
  4  5  2  0
  4  3  1  0
  6  5  1  0
  7 12  2  0
  7  6  1  0
  8  7  1  0
  9 10  1  0
  9  8  2  0
 10 11  2  0
 11 12  1  0
 12  4  1  0
 13 14  2  0
 15 16  1  0
 15 13  1  0
 16 17  1  1
 18 17  1  0
 19 20  1  0
 19 18  1  0
 21 20  1  0
 22 16  1  0
 22 23  2  0
 25 24  1  1
 25 26  1  0
 25 27  1  0
 28 27  1  1
 28 29  1  0
 28 30  1  0
 29 22  1  0
 30 31  2  0
 30 32  1  0
M  END
$$$$
