WKL.pdb
     RDKit          3D

 32 33  0  0  1  0  0  0  0  0999 V2000
   27.2291  -19.2046  -16.6074 N   0  0  0  0  0  0  0  0  0  0  0  0
   26.3906  -19.4729  -15.4549 C   0  0  1  0  0  0  0  0  0  0  0  0
   26.7276  -18.4959  -14.3790 C   0  0  0  0  0  0  0  0  0  0  0  0
   28.0846  -18.8108  -13.8679 C   0  0  0  0  0  0  0  0  0  0  0  0
   29.3051  -18.2825  -14.2272 C   0  0  0  0  0  0  0  0  0  0  0  0
   30.2908  -18.8597  -13.5048 N   0  0  0  0  0  0  0  0  0  0  0  0
   29.7546  -19.7645  -12.6682 C   0  0  0  0  0  0  0  0  0  0  0  0
   30.2701  -20.6113  -11.7406 C   0  0  0  0  0  0  0  0  0  0  0  0
   29.4941  -21.4682  -10.9869 C   0  0  0  0  0  0  0  0  0  0  0  0
   28.1194  -21.4331  -11.2183 C   0  0  0  0  0  0  0  0  0  0  0  0
   27.5770  -20.5914  -12.1443 C   0  0  0  0  0  0  0  0  0  0  0  0
   28.3772  -19.7518  -12.8772 C   0  0  0  0  0  0  0  0  0  0  0  0
   24.9345  -19.4322  -15.8150 C   0  0  0  0  0  0  0  0  0  0  0  0
   24.4417  -18.3458  -16.1302 O   0  0  0  0  0  0  0  0  0  0  0  0
   24.1477  -20.5858  -15.7978 N   0  0  0  0  0  0  0  0  0  0  0  0
   22.7184  -20.7015  -15.7651 C   0  0  1  0  0  0  0  0  0  0  0  0
   22.0580  -21.2802  -16.9786 C   0  0  0  0  0  0  0  0  0  0  0  0
   20.6390  -20.9646  -17.2044 C   0  0  0  0  0  0  0  0  0  0  0  0
   19.7033  -21.6349  -16.2059 C   0  0  0  0  0  0  0  0  0  0  0  0
   18.2917  -21.2932  -16.7052 C   0  0  0  0  0  0  0  0  0  0  0  0
   17.6339  -22.4675  -17.2492 N   0  0  0  0  0  0  0  0  0  0  0  0
   22.2328  -21.2069  -14.4778 C   0  0  0  0  0  0  0  0  0  0  0  0
   22.5170  -22.4088  -14.1451 O   0  0  0  0  0  0  0  0  0  0  0  0
   23.5206  -22.1448  -10.6658 C   0  0  0  0  0  0  0  0  0  0  0  0
   23.1609  -20.7047  -10.8640 C   0  0  2  0  0  0  0  0  0  0  0  0
   23.6319  -19.9598   -9.6044 C   0  0  0  0  0  0  0  0  0  0  0  0
   21.7179  -20.4398  -11.0608 C   0  0  0  0  0  0  0  0  0  0  0  0
   21.0558  -21.0060  -12.2599 C   0  0  2  0  0  0  0  0  0  0  0  0
   21.4593  -20.4826  -13.5360 N   0  0  0  0  0  0  0  0  0  0  0  0
   19.5675  -20.9079  -12.1986 C   0  0  0  0  0  0  0  0  0  0  0  0
   18.9018  -21.4730  -11.2793 O   0  0  0  0  0  0  0  0  0  0  0  0
   18.8258  -20.1988  -13.1342 O   0  0  0  0  0  0  0  0  0  0  0  0
  2  1  1  6
  2 13  1  0
  2  3  1  0
  4  5  2  0
  4  3  1  0
  6  5  1  0
  7 12  2  0
  7  6  1  0
  8  7  1  0
  9 10  1  0
  9  8  2  0
 10 11  2  0
 11 12  1  0
 12  4  1  0
 13 14  2  0
 15 16  1  0
 15 13  1  0
 16 17  1  6
 18 17  1  0
 19 20  1  0
 19 18  1  0
 21 20  1  0
 22 16  1  0
 22 23  2  0
 25 24  1  1
 25 26  1  0
 25 27  1  0
 28 27  1  1
 28 29  1  0
 28 30  1  0
 29 22  1  0
 30 31  2  0
 30 32  1  0
M  END
$$$$
