WKL.pdb
     RDKit          3D

 32 33  0  0  1  0  0  0  0  0999 V2000
   27.0931  -19.8534  -10.9124 N   0  0  0  0  0  0  0  0  0  0  0  0
   26.5031  -21.1764  -10.9821 C   0  0  1  0  0  0  0  0  0  0  0  0
   25.9914  -21.5450   -9.6301 C   0  0  0  0  0  0  0  0  0  0  0  0
   26.3470  -20.4600   -8.6823 C   0  0  0  0  0  0  0  0  0  0  0  0
   25.6556  -19.3137   -8.3571 C   0  0  0  0  0  0  0  0  0  0  0  0
   26.3479  -18.5986   -7.4427 N   0  0  0  0  0  0  0  0  0  0  0  0
   27.4897  -19.2435   -7.1488 C   0  0  0  0  0  0  0  0  0  0  0  0
   28.5306  -18.9839   -6.3167 C   0  0  0  0  0  0  0  0  0  0  0  0
   29.6193  -19.8220   -6.1856 C   0  0  0  0  0  0  0  0  0  0  0  0
   29.6127  -20.9807   -6.9614 C   0  0  0  0  0  0  0  0  0  0  0  0
   28.5789  -21.2642   -7.8047 C   0  0  0  0  0  0  0  0  0  0  0  0
   27.5112  -20.4093   -7.9114 C   0  0  0  0  0  0  0  0  0  0  0  0
   25.4285  -21.2432  -12.0272 C   0  0  0  0  0  0  0  0  0  0  0  0
   24.6963  -20.2610  -12.1745 O   0  0  0  0  0  0  0  0  0  0  0  0
   25.2516  -22.3804  -12.8181 N   0  0  0  0  0  0  0  0  0  0  0  0
   24.2651  -22.6309  -13.8288 C   0  0  1  0  0  0  0  0  0  0  0  0
   24.5073  -23.7970  -14.7371 C   0  0  0  0  0  0  0  0  0  0  0  0
   25.2655  -23.5574  -15.9748 C   0  0  0  0  0  0  0  0  0  0  0  0
   26.6895  -23.0744  -15.7287 C   0  0  0  0  0  0  0  0  0  0  0  0
   27.3331  -23.0333  -17.1226 C   0  0  0  0  0  0  0  0  0  0  0  0
   28.7042  -22.5619  -17.0487 N   0  0  0  0  0  0  0  0  0  0  0  0
   22.8990  -22.5021  -13.3135 C   0  0  0  0  0  0  0  0  0  0  0  0
   22.7078  -22.6035  -12.0529 O   0  0  0  0  0  0  0  0  0  0  0  0
   20.3490  -17.5505  -13.7581 C   0  0  0  0  0  0  0  0  0  0  0  0
   20.2140  -18.8895  -13.1011 C   0  0  2  0  0  0  0  0  0  0  0  0
   20.3772  -18.6531  -11.5909 C   0  0  0  0  0  0  0  0  0  0  0  0
   21.2030  -19.9027  -13.5328 C   0  0  0  0  0  0  0  0  0  0  0  0
   20.7355  -21.2911  -13.7577 C   0  0  2  0  0  0  0  0  0  0  0  0
   21.7344  -22.2701  -14.0880 N   0  0  0  0  0  0  0  0  0  0  0  0
   19.6737  -21.3810  -14.8031 C   0  0  0  0  0  0  0  0  0  0  0  0
   18.5054  -20.9303  -14.6038 O   0  0  0  0  0  0  0  0  0  0  0  0
   19.8958  -21.9573  -16.0468 O   0  0  0  0  0  0  0  0  0  0  0  0
  2  1  1  1
  2 13  1  0
  2  3  1  0
  4  5  2  0
  4  3  1  0
  6  5  1  0
  7 12  2  0
  7  6  1  0
  8  7  1  0
  9 10  1  0
  9  8  2  0
 10 11  2  0
 11 12  1  0
 12  4  1  0
 13 14  2  0
 15 16  1  0
 15 13  1  0
 16 17  1  1
 18 17  1  0
 19 20  1  0
 19 18  1  0
 21 20  1  0
 22 16  1  0
 22 23  2  0
 25 24  1  6
 25 26  1  0
 25 27  1  0
 28 27  1  6
 28 29  1  0
 28 30  1  0
 29 22  1  0
 30 31  2  0
 30 32  1  0
M  END
$$$$
