WKL.pdb
     RDKit          3D

 32 33  0  0  1  0  0  0  0  0999 V2000
   25.1496  -19.4413  -12.3433 N   0  0  0  0  0  0  0  0  0  0  0  0
   26.1419  -20.4629  -12.6171 C   0  0  1  0  0  0  0  0  0  0  0  0
   25.9451  -21.5910  -11.6609 C   0  0  0  0  0  0  0  0  0  0  0  0
   26.1313  -21.0749  -10.2822 C   0  0  0  0  0  0  0  0  0  0  0  0
   25.1909  -20.6899   -9.3520 C   0  0  0  0  0  0  0  0  0  0  0  0
   25.8015  -20.2808   -8.2177 N   0  0  0  0  0  0  0  0  0  0  0  0
   27.1327  -20.3842   -8.3697 C   0  0  0  0  0  0  0  0  0  0  0  0
   28.1957  -20.1170   -7.5685 C   0  0  0  0  0  0  0  0  0  0  0  0
   29.5044  -20.3106   -7.9614 C   0  0  0  0  0  0  0  0  0  0  0  0
   29.7032  -20.8057   -9.2498 C   0  0  0  0  0  0  0  0  0  0  0  0
   28.6522  -21.0821  -10.0738 C   0  0  0  0  0  0  0  0  0  0  0  0
   27.3627  -20.8781   -9.6520 C   0  0  0  0  0  0  0  0  0  0  0  0
   26.0793  -20.9193  -14.0452 C   0  0  0  0  0  0  0  0  0  0  0  0
   25.0801  -20.6273  -14.7075 O   0  0  0  0  0  0  0  0  0  0  0  0
   27.1174  -21.6551  -14.6206 N   0  0  0  0  0  0  0  0  0  0  0  0
   27.0647  -22.5908  -15.7064 C   0  0  1  0  0  0  0  0  0  0  0  0
   27.7457  -23.9086  -15.4982 C   0  0  0  0  0  0  0  0  0  0  0  0
   28.0304  -24.7295  -16.6853 C   0  0  0  0  0  0  0  0  0  0  0  0
   27.1087  -25.9350  -16.8231 C   0  0  0  0  0  0  0  0  0  0  0  0
   27.7479  -26.7896  -17.9276 C   0  0  0  0  0  0  0  0  0  0  0  0
   28.4044  -27.9570  -17.3676 N   0  0  0  0  0  0  0  0  0  0  0  0
   25.7346  -22.6547  -16.3187 C   0  0  0  0  0  0  0  0  0  0  0  0
   25.4301  -21.7927  -17.2132 O   0  0  0  0  0  0  0  0  0  0  0  0
   21.7979  -20.4048  -13.5325 C   0  0  0  0  0  0  0  0  0  0  0  0
   21.9052  -21.7526  -14.1763 C   0  0  2  0  0  0  0  0  0  0  0  0
   21.4679  -22.7780  -13.1178 C   0  0  0  0  0  0  0  0  0  0  0  0
   23.2585  -22.1128  -14.6560 C   0  0  0  0  0  0  0  0  0  0  0  0
   23.3905  -23.2413  -15.6078 C   0  0  2  0  0  0  0  0  0  0  0  0
   24.7215  -23.5988  -16.0148 N   0  0  0  0  0  0  0  0  0  0  0  0
   22.5914  -23.0433  -16.8530 C   0  0  0  0  0  0  0  0  0  0  0  0
   22.8062  -22.0660  -17.6318 O   0  0  0  0  0  0  0  0  0  0  0  0
   21.5734  -23.9076  -17.2336 O   0  0  0  0  0  0  0  0  0  0  0  0
  2  1  1  6
  2 13  1  0
  2  3  1  0
  4  5  2  0
  4  3  1  0
  6  5  1  0
  7 12  2  0
  7  6  1  0
  8  7  1  0
  9 10  1  0
  9  8  2  0
 10 11  2  0
 11 12  1  0
 12  4  1  0
 13 14  2  0
 15 16  1  0
 15 13  1  0
 16 17  1  1
 18 17  1  0
 19 20  1  0
 19 18  1  0
 21 20  1  0
 22 16  1  0
 22 23  2  0
 25 24  1  1
 25 26  1  0
 25 27  1  0
 28 27  1  6
 28 29  1  0
 28 30  1  0
 29 22  1  0
 30 31  2  0
 30 32  1  0
M  END
$$$$
