WKL.pdb
     RDKit          3D

 32 33  0  0  1  0  0  0  0  0999 V2000
   15.1891  -16.0387    3.5809 N   0  0  0  0  0  0  0  0  0  0  0  0
   16.5598  -16.3677    3.9218 C   0  0  1  0  0  0  0  0  0  0  0  0
   17.4741  -15.5877    3.0379 C   0  0  0  0  0  0  0  0  0  0  0  0
   18.0639  -16.5136    2.0395 C   0  0  0  0  0  0  0  0  0  0  0  0
   17.4989  -17.5958    1.4011 C   0  0  0  0  0  0  0  0  0  0  0  0
   18.3975  -18.1615    0.5648 N   0  0  0  0  0  0  0  0  0  0  0  0
   19.5535  -17.4793    0.6303 C   0  0  0  0  0  0  0  0  0  0  0  0
   20.7588  -17.6078    0.0187 C   0  0  0  0  0  0  0  0  0  0  0  0
   21.8210  -16.7599    0.2585 C   0  0  0  0  0  0  0  0  0  0  0  0
   21.6066  -15.7348    1.1791 C   0  0  0  0  0  0  0  0  0  0  0  0
   20.4050  -15.5843    1.8066 C   0  0  0  0  0  0  0  0  0  0  0  0
   19.3691  -16.4452    1.5455 C   0  0  0  0  0  0  0  0  0  0  0  0
   16.8376  -16.1207    5.3755 C   0  0  0  0  0  0  0  0  0  0  0  0
   16.9676  -14.9537    5.7545 O   0  0  0  0  0  0  0  0  0  0  0  0
   16.9482  -17.1746    6.2850 N   0  0  0  0  0  0  0  0  0  0  0  0
   17.2322  -17.1266    7.6902 C   0  0  1  0  0  0  0  0  0  0  0  0
   16.2981  -17.8692    8.5955 C   0  0  0  0  0  0  0  0  0  0  0  0
   16.5159  -17.7596   10.0463 C   0  0  0  0  0  0  0  0  0  0  0  0
   15.5038  -18.5446   10.8716 C   0  0  0  0  0  0  0  0  0  0  0  0
   15.9056  -18.2841   12.3309 C   0  0  0  0  0  0  0  0  0  0  0  0
   16.1193  -19.5315   13.0421 N   0  0  0  0  0  0  0  0  0  0  0  0
   18.6599  -17.2995    7.9731 C   0  0  0  0  0  0  0  0  0  0  0  0
   19.3423  -18.0806    7.2246 O   0  0  0  0  0  0  0  0  0  0  0  0
   23.3261  -15.5533   11.7598 C   0  0  0  0  0  0  0  0  0  0  0  0
   22.8985  -16.2041   10.4806 C   0  0  2  0  0  0  0  0  0  0  0  0
   23.8635  -15.7050    9.3931 C   0  0  0  0  0  0  0  0  0  0  0  0
   21.5115  -15.9059   10.0582 C   0  0  0  0  0  0  0  0  0  0  0  0
   20.7652  -16.9449    9.3096 C   0  0  2  0  0  0  0  0  0  0  0  0
   19.3842  -16.6738    9.0189 N   0  0  0  0  0  0  0  0  0  0  0  0
   20.8179  -18.2827    9.9699 C   0  0  0  0  0  0  0  0  0  0  0  0
   20.1098  -18.5497   10.9872 O   0  0  0  0  0  0  0  0  0  0  0  0
   21.6368  -19.3085    9.5167 O   0  0  0  0  0  0  0  0  0  0  0  0
  2  1  1  6
  2 13  1  0
  2  3  1  0
  4  5  2  0
  4  3  1  0
  6  5  1  0
  7 12  2  0
  7  6  1  0
  8  7  1  0
  9 10  1  0
  9  8  2  0
 10 11  2  0
 11 12  1  0
 12  4  1  0
 13 14  2  0
 15 16  1  0
 15 13  1  0
 16 17  1  1
 18 17  1  0
 19 20  1  0
 19 18  1  0
 21 20  1  0
 22 16  1  0
 22 23  2  0
 25 24  1  1
 25 26  1  0
 25 27  1  0
 28 27  1  1
 28 29  1  0
 28 30  1  0
 29 22  1  0
 30 31  2  0
 30 32  1  0
M  END
$$$$
