NYE.pdb
     RDKit          3D

 30 30  0  0  1  0  0  0  0  0999 V2000
   19.4174  -10.7952  -14.5306 N   0  0  0  0  0  0  0  0  0  0  0  0
   19.8175   -9.5179  -14.0585 C   0  0  0  0  0  0  0  0  0  0  0  0
   21.0306   -9.3418  -13.8095 O   0  0  0  0  0  0  0  0  0  0  0  0
   18.8588   -8.4238  -13.8607 C   0  0  0  0  0  0  0  0  0  0  0  0
   17.4508   -8.7128  -14.2190 C   0  0  2  0  0  0  0  0  0  0  0  0
   17.2299   -9.1290  -15.5651 N   0  0  0  0  0  0  0  0  0  0  0  0
   16.5150   -7.6069  -13.8062 C   0  0  0  0  0  0  0  0  0  0  0  0
   16.3799   -6.6074  -14.5378 O   0  0  0  0  0  0  0  0  0  0  0  0
   12.4369  -12.3044   -9.8233 O   0  0  0  0  0  0  0  0  0  0  0  0
   12.6921  -11.0842  -10.4749 C   0  0  0  0  0  0  0  0  0  0  0  0
   12.3002   -9.9062   -9.8877 C   0  0  0  0  0  0  0  0  0  0  0  0
   12.5415   -8.7201  -10.5088 C   0  0  0  0  0  0  0  0  0  0  0  0
   13.1862   -8.6310  -11.7497 C   0  0  0  0  0  0  0  0  0  0  0  0
   13.4199   -7.2948  -12.3372 C   0  0  0  0  0  0  0  0  0  0  0  0
   14.8440   -6.7933  -12.0915 C   0  0  2  0  0  0  0  0  0  0  0  0
   15.8008   -7.7082  -12.5999 N   0  0  0  0  0  0  0  0  0  0  0  0
   15.0523   -6.3615  -10.7023 C   0  0  0  0  0  0  0  0  0  0  0  0
   15.7688   -7.0307   -9.8900 O   0  0  0  0  0  0  0  0  0  0  0  0
   13.5659   -9.8178  -12.3114 C   0  0  0  0  0  0  0  0  0  0  0  0
   13.3207  -11.0449  -11.6780 C   0  0  0  0  0  0  0  0  0  0  0  0
   14.4362   -5.1699  -10.2678 N   0  0  0  0  0  0  0  0  0  0  0  0
   14.6319   -4.6863   -8.8719 C   0  0  1  0  0  0  0  0  0  0  0  0
   15.3841   -3.4196   -8.9419 C   0  0  0  0  0  0  0  0  0  0  0  0
   15.6413   -2.6588   -7.6870 C   0  0  0  0  0  0  0  0  0  0  0  0
   16.3293   -1.3765   -7.8948 C   0  0  0  0  0  0  0  0  0  0  0  0
   16.6507   -1.0281   -9.0529 O   0  0  0  0  0  0  0  0  0  0  0  0
   13.3590   -4.7674   -8.2124 C   0  0  0  0  0  0  0  0  0  0  0  0
   12.2791   -4.9382   -8.8558 O   0  0  0  0  0  0  0  0  0  0  0  0
   16.6483   -0.5003   -6.8426 O   0  0  0  0  0  0  0  0  0  0  0  0
   13.2092   -4.6744   -6.8415 O   0  0  0  0  0  0  0  0  0  0  0  0
  2  1  1  0
  2  3  2  0
  4  2  1  0
  5  4  1  0
  5  6  1  6
  7  5  1  0
  7  8  2  0
 10 20  2  0
 10  9  1  0
 11 10  1  0
 12 13  1  0
 12 11  2  0
 13 19  2  0
 14 13  1  0
 15 14  1  1
 15 16  1  0
 16  7  1  0
 17 15  1  0
 17 18  2  0
 19 20  1  0
 21 22  1  0
 21 17  1  0
 22 23  1  6
 23 24  1  0
 24 25  1  0
 25 29  1  0
 25 26  2  0
 27 22  1  0
 28 27  2  0
 30 27  1  0
M  END
$$$$
