NYE.pdb
     RDKit          3D

 30 30  0  0  1  0  0  0  0  0999 V2000
   31.2992  -22.1604  -20.1243 N   0  0  0  0  0  0  0  0  0  0  0  0
   29.9201  -21.8269  -20.0905 C   0  0  0  0  0  0  0  0  0  0  0  0
   29.4246  -21.2902  -21.1060 O   0  0  0  0  0  0  0  0  0  0  0  0
   29.0817  -22.0928  -18.9151 C   0  0  0  0  0  0  0  0  0  0  0  0
   28.4015  -20.9210  -18.3161 C   0  0  2  0  0  0  0  0  0  0  0  0
   29.2116  -19.7604  -18.1414 N   0  0  0  0  0  0  0  0  0  0  0  0
   27.6416  -21.2762  -17.0649 C   0  0  0  0  0  0  0  0  0  0  0  0
   26.9184  -22.2907  -17.0489 O   0  0  0  0  0  0  0  0  0  0  0  0
   25.1512  -20.6013   -8.5532 O   0  0  0  0  0  0  0  0  0  0  0  0
   25.8392  -20.5168   -9.7772 C   0  0  0  0  0  0  0  0  0  0  0  0
   25.6665  -19.4148  -10.5784 C   0  0  0  0  0  0  0  0  0  0  0  0
   26.3265  -19.3225  -11.7644 C   0  0  0  0  0  0  0  0  0  0  0  0
   27.1976  -20.3175  -12.2272 C   0  0  0  0  0  0  0  0  0  0  0  0
   27.8836  -20.1187  -13.5215 C   0  0  0  0  0  0  0  0  0  0  0  0
   27.0397  -20.5949  -14.7052 C   0  0  2  0  0  0  0  0  0  0  0  0
   27.7519  -20.4622  -15.9244 N   0  0  0  0  0  0  0  0  0  0  0  0
   25.6867  -20.0213  -14.6934 C   0  0  0  0  0  0  0  0  0  0  0  0
   25.4687  -18.8053  -15.0013 O   0  0  0  0  0  0  0  0  0  0  0  0
   27.3518  -21.4026  -11.4106 C   0  0  0  0  0  0  0  0  0  0  0  0
   26.6749  -21.5059  -10.1864 C   0  0  0  0  0  0  0  0  0  0  0  0
   24.6065  -20.8513  -14.3293 N   0  0  0  0  0  0  0  0  0  0  0  0
   23.2145  -20.3191  -14.3286 C   0  0  1  0  0  0  0  0  0  0  0  0
   22.6981  -20.4242  -15.7062 C   0  0  0  0  0  0  0  0  0  0  0  0
   22.0129  -19.2496  -16.3151 C   0  0  0  0  0  0  0  0  0  0  0  0
   21.3187  -19.5491  -17.5757 C   0  0  0  0  0  0  0  0  0  0  0  0
   20.7736  -18.6227  -18.2164 O   0  0  0  0  0  0  0  0  0  0  0  0
   22.5290  -20.9254  -13.2222 C   0  0  0  0  0  0  0  0  0  0  0  0
   22.9308  -22.0067  -12.6943 O   0  0  0  0  0  0  0  0  0  0  0  0
   21.2360  -20.8452  -18.1142 O   0  0  0  0  0  0  0  0  0  0  0  0
   21.3954  -20.3843  -12.6454 O   0  0  0  0  0  0  0  0  0  0  0  0
  2  1  1  0
  2  3  2  0
  4  2  1  0
  5  4  1  0
  5  6  1  1
  7  5  1  0
  7  8  2  0
 10 20  2  0
 10  9  1  0
 11 10  1  0
 12 13  1  0
 12 11  2  0
 13 19  2  0
 14 13  1  0
 15 14  1  1
 15 16  1  0
 16  7  1  0
 17 15  1  0
 17 18  2  0
 19 20  1  0
 21 22  1  0
 21 17  1  0
 22 23  1  6
 23 24  1  0
 24 25  1  0
 25 29  1  0
 25 26  2  0
 27 22  1  0
 28 27  2  0
 30 27  1  0
M  END
$$$$
