NYE.pdb
     RDKit          3D

 30 30  0  0  1  0  0  0  0  0999 V2000
   19.0647  -23.9389  -11.7036 N   0  0  0  0  0  0  0  0  0  0  0  0
   18.9083  -23.2325  -12.9247 C   0  0  0  0  0  0  0  0  0  0  0  0
   18.0134  -23.6162  -13.7101 O   0  0  0  0  0  0  0  0  0  0  0  0
   19.7556  -22.0868  -13.2773 C   0  0  0  0  0  0  0  0  0  0  0  0
   20.8210  -21.7365  -12.3094 C   0  0  2  0  0  0  0  0  0  0  0  0
   20.3728  -21.3524  -11.0112 N   0  0  0  0  0  0  0  0  0  0  0  0
   21.8150  -20.7584  -12.8790 C   0  0  0  0  0  0  0  0  0  0  0  0
   21.6175  -19.5345  -12.7543 O   0  0  0  0  0  0  0  0  0  0  0  0
   25.9931  -20.5050   -7.8925 O   0  0  0  0  0  0  0  0  0  0  0  0
   25.8470  -20.5936   -9.2887 C   0  0  0  0  0  0  0  0  0  0  0  0
   25.7232  -21.8263   -9.8814 C   0  0  0  0  0  0  0  0  0  0  0  0
   25.5817  -21.9241  -11.2309 C   0  0  0  0  0  0  0  0  0  0  0  0
   25.5545  -20.8052  -12.0738 C   0  0  0  0  0  0  0  0  0  0  0  0
   25.3785  -21.0117  -13.5270 C   0  0  0  0  0  0  0  0  0  0  0  0
   24.0446  -20.4612  -14.0345 C   0  0  2  0  0  0  0  0  0  0  0  0
   22.9577  -21.2309  -13.5472 N   0  0  0  0  0  0  0  0  0  0  0  0
   24.0545  -20.2213  -15.4844 C   0  0  0  0  0  0  0  0  0  0  0  0
   23.8931  -21.1650  -16.3237 O   0  0  0  0  0  0  0  0  0  0  0  0
   25.6791  -19.5913  -11.4584 C   0  0  0  0  0  0  0  0  0  0  0  0
   25.8257  -19.4815  -10.0678 C   0  0  0  0  0  0  0  0  0  0  0  0
   24.2488  -18.9038  -15.9477 N   0  0  0  0  0  0  0  0  0  0  0  0
   24.0404  -18.5725  -17.3856 C   0  0  1  0  0  0  0  0  0  0  0  0
   23.2859  -17.3066  -17.4450 C   0  0  0  0  0  0  0  0  0  0  0  0
   22.8889  -16.7609  -18.7733 C   0  0  0  0  0  0  0  0  0  0  0  0
   22.2139  -15.4568  -18.7071 C   0  0  0  0  0  0  0  0  0  0  0  0
   21.6698  -15.0960  -17.6396 O   0  0  0  0  0  0  0  0  0  0  0  0
   25.3080  -18.7219  -18.0434 C   0  0  0  0  0  0  0  0  0  0  0  0
   26.4059  -18.5330  -17.4366 O   0  0  0  0  0  0  0  0  0  0  0  0
   22.1487  -14.5729  -19.7985 O   0  0  0  0  0  0  0  0  0  0  0  0
   25.4338  -19.0857  -19.3710 O   0  0  0  0  0  0  0  0  0  0  0  0
  2  1  1  0
  2  3  2  0
  4  2  1  0
  5  4  1  0
  5  6  1  1
  7  5  1  0
  7  8  2  0
 10 20  2  0
 10  9  1  0
 11 10  1  0
 12 13  1  0
 12 11  2  0
 13 19  2  0
 14 13  1  0
 15 14  1  6
 15 16  1  0
 16  7  1  0
 17 15  1  0
 17 18  2  0
 19 20  1  0
 21 22  1  0
 21 17  1  0
 22 23  1  1
 23 24  1  0
 24 25  1  0
 25 29  1  0
 25 26  2  0
 27 22  1  0
 28 27  2  0
 30 27  1  0
M  END
$$$$
