NYE.pdb
     RDKit          3D

 30 30  0  0  1  0  0  0  0  0999 V2000
   33.2861  -25.2779  -16.1377 N   0  0  0  0  0  0  0  0  0  0  0  0
   32.2244  -25.9507  -16.7968 C   0  0  0  0  0  0  0  0  0  0  0  0
   32.4503  -27.0949  -17.2489 O   0  0  0  0  0  0  0  0  0  0  0  0
   30.8964  -25.3453  -16.9555 C   0  0  0  0  0  0  0  0  0  0  0  0
   30.7340  -23.9718  -16.4246 C   0  0  2  0  0  0  0  0  0  0  0  0
   31.2565  -23.7507  -15.1161 N   0  0  0  0  0  0  0  0  0  0  0  0
   29.3223  -23.4655  -16.5648 C   0  0  0  0  0  0  0  0  0  0  0  0
   28.3849  -24.2769  -16.6891 O   0  0  0  0  0  0  0  0  0  0  0  0
   26.8313  -21.5754  -10.2854 O   0  0  0  0  0  0  0  0  0  0  0  0
   27.0218  -21.2434  -11.6389 C   0  0  0  0  0  0  0  0  0  0  0  0
   28.2538  -20.8111  -12.0649 C   0  0  0  0  0  0  0  0  0  0  0  0
   28.4495  -20.4869  -13.3716 C   0  0  0  0  0  0  0  0  0  0  0  0
   27.4351  -20.5720  -14.3344 C   0  0  0  0  0  0  0  0  0  0  0  0
   27.7492  -20.2149  -15.7342 C   0  0  0  0  0  0  0  0  0  0  0  0
   27.8092  -21.4410  -16.6469 C   0  0  2  0  0  0  0  0  0  0  0  0
   29.0706  -22.0827  -16.5552 N   0  0  0  0  0  0  0  0  0  0  0  0
   27.3428  -21.1468  -18.0091 C   0  0  0  0  0  0  0  0  0  0  0  0
   28.1536  -20.8999  -18.9592 O   0  0  0  0  0  0  0  0  0  0  0  0
   26.2196  -21.0052  -13.8840 C   0  0  0  0  0  0  0  0  0  0  0  0
   26.0092  -21.3412  -12.5385 C   0  0  0  0  0  0  0  0  0  0  0  0
   25.9551  -21.1410  -18.2593 N   0  0  0  0  0  0  0  0  0  0  0  0
   25.4351  -21.4233  -19.6270 C   0  0  1  0  0  0  0  0  0  0  0  0
   26.1515  -22.6065  -20.1391 C   0  0  0  0  0  0  0  0  0  0  0  0
   25.7928  -23.1467  -21.4805 C   0  0  0  0  0  0  0  0  0  0  0  0
   26.6488  -22.6580  -22.5709 C   0  0  0  0  0  0  0  0  0  0  0  0
   27.8892  -22.8051  -22.4964 O   0  0  0  0  0  0  0  0  0  0  0  0
   24.0017  -21.3888  -19.5514 C   0  0  0  0  0  0  0  0  0  0  0  0
   23.3791  -21.6575  -18.4793 O   0  0  0  0  0  0  0  0  0  0  0  0
   26.1393  -22.0253  -23.7185 O   0  0  0  0  0  0  0  0  0  0  0  0
   23.1947  -21.0576  -20.6237 O   0  0  0  0  0  0  0  0  0  0  0  0
  2  1  1  0
  2  3  2  0
  4  2  1  0
  5  4  1  0
  5  6  1  1
  7  5  1  0
  7  8  2  0
 10 20  2  0
 10  9  1  0
 11 10  1  0
 12 13  1  0
 12 11  2  0
 13 19  2  0
 14 13  1  0
 15 14  1  1
 15 16  1  0
 16  7  1  0
 17 15  1  0
 17 18  2  0
 19 20  1  0
 21 22  1  0
 21 17  1  0
 22 23  1  1
 23 24  1  0
 24 25  1  0
 25 29  1  0
 25 26  2  0
 27 22  1  0
 28 27  2  0
 30 27  1  0
M  END
$$$$
