NYE.pdb
     RDKit          3D

 30 30  0  0  1  0  0  0  0  0999 V2000
   17.7858  -13.9224  -18.3651 N   0  0  0  0  0  0  0  0  0  0  0  0
   17.4256  -12.6418  -18.8599 C   0  0  0  0  0  0  0  0  0  0  0  0
   16.6791  -12.5925  -19.8624 O   0  0  0  0  0  0  0  0  0  0  0  0
   17.9004  -11.4017  -18.2338 C   0  0  0  0  0  0  0  0  0  0  0  0
   18.8334  -11.5581  -17.0938 C   0  0  2  0  0  0  0  0  0  0  0  0
   18.3383  -12.3146  -15.9909 N   0  0  0  0  0  0  0  0  0  0  0  0
   19.4327  -10.2464  -16.6586 C   0  0  0  0  0  0  0  0  0  0  0  0
   18.8131   -9.5200  -15.8581 O   0  0  0  0  0  0  0  0  0  0  0  0
   25.7612   -3.8932  -16.8469 O   0  0  0  0  0  0  0  0  0  0  0  0
   25.0352   -5.0978  -16.8704 C   0  0  0  0  0  0  0  0  0  0  0  0
   24.9438   -5.8125  -18.0395 C   0  0  0  0  0  0  0  0  0  0  0  0
   24.2440   -6.9787  -18.0741 C   0  0  0  0  0  0  0  0  0  0  0  0
   23.5928   -7.5061  -16.9512 C   0  0  0  0  0  0  0  0  0  0  0  0
   22.8719   -8.7900  -17.0829 C   0  0  0  0  0  0  0  0  0  0  0  0
   21.3615   -8.6292  -16.9024 C   0  0  2  0  0  0  0  0  0  0  0  0
   20.6854   -9.8495  -17.1575 N   0  0  0  0  0  0  0  0  0  0  0  0
   20.8367   -7.4518  -17.6083 C   0  0  0  0  0  0  0  0  0  0  0  0
   20.6146   -7.4625  -18.8618 O   0  0  0  0  0  0  0  0  0  0  0  0
   23.7002   -6.7755  -15.8011 C   0  0  0  0  0  0  0  0  0  0  0  0
   24.4194   -5.5721  -15.7569 C   0  0  0  0  0  0  0  0  0  0  0  0
   20.5751   -6.2823  -16.8652 N   0  0  0  0  0  0  0  0  0  0  0  0
   20.0516   -5.0617  -17.5411 C   0  0  1  0  0  0  0  0  0  0  0  0
   18.6311   -4.9229  -17.1697 C   0  0  0  0  0  0  0  0  0  0  0  0
   17.8736   -3.7272  -17.6350 C   0  0  0  0  0  0  0  0  0  0  0  0
   16.4828   -3.6785  -17.1617 C   0  0  0  0  0  0  0  0  0  0  0  0
   16.0881   -2.6903  -16.5035 O   0  0  0  0  0  0  0  0  0  0  0  0
   20.9960   -4.0067  -17.3025 C   0  0  0  0  0  0  0  0  0  0  0  0
   21.1712   -3.0621  -18.1310 O   0  0  0  0  0  0  0  0  0  0  0  0
   15.5516   -4.7004  -17.4174 O   0  0  0  0  0  0  0  0  0  0  0  0
   21.7750   -3.9313  -16.1632 O   0  0  0  0  0  0  0  0  0  0  0  0
  2  1  1  0
  2  3  2  0
  4  2  1  0
  5  4  1  0
  5  6  1  1
  7  5  1  0
  7  8  2  0
 10 20  2  0
 10  9  1  0
 11 10  1  0
 12 13  1  0
 12 11  2  0
 13 19  2  0
 14 13  1  0
 15 14  1  6
 15 16  1  0
 16  7  1  0
 17 15  1  0
 17 18  2  0
 19 20  1  0
 21 22  1  0
 21 17  1  0
 22 23  1  1
 23 24  1  0
 24 25  1  0
 25 29  1  0
 25 26  2  0
 27 22  1  0
 28 27  2  0
 30 27  1  0
M  END
$$$$
