NYE.pdb
     RDKit          3D

 30 30  0  0  1  0  0  0  0  0999 V2000
   28.0016  -20.4137  -19.4024 N   0  0  0  0  0  0  0  0  0  0  0  0
   26.6227  -20.2716  -19.0976 C   0  0  0  0  0  0  0  0  0  0  0  0
   25.9146  -19.6134  -19.8913 O   0  0  0  0  0  0  0  0  0  0  0  0
   26.0236  -20.8678  -17.8972 C   0  0  0  0  0  0  0  0  0  0  0  0
   26.9328  -21.6550  -17.0323 C   0  0  2  0  0  0  0  0  0  0  0  0
   27.3968  -22.8856  -17.5839 N   0  0  0  0  0  0  0  0  0  0  0  0
   26.3917  -21.8270  -15.6370 C   0  0  0  0  0  0  0  0  0  0  0  0
   25.5362  -22.7040  -15.4104 O   0  0  0  0  0  0  0  0  0  0  0  0
   25.7528  -20.4314   -6.8969 O   0  0  0  0  0  0  0  0  0  0  0  0
   26.1489  -20.3646   -8.2449 C   0  0  0  0  0  0  0  0  0  0  0  0
   26.9016  -21.3800   -8.7824 C   0  0  0  0  0  0  0  0  0  0  0  0
   27.2907  -21.3259  -10.0848 C   0  0  0  0  0  0  0  0  0  0  0  0
   26.9567  -20.2615  -10.9327 C   0  0  0  0  0  0  0  0  0  0  0  0
   27.4108  -20.3009  -12.3390 C   0  0  0  0  0  0  0  0  0  0  0  0
   26.3823  -20.9551  -13.2633 C   0  0  2  0  0  0  0  0  0  0  0  0
   26.8538  -20.9982  -14.6001 N   0  0  0  0  0  0  0  0  0  0  0  0
   25.0343  -20.3986  -13.0819 C   0  0  0  0  0  0  0  0  0  0  0  0
   24.6966  -19.2772  -13.5813 O   0  0  0  0  0  0  0  0  0  0  0  0
   26.2071  -19.2652  -10.3729 C   0  0  0  0  0  0  0  0  0  0  0  0
   25.8020  -19.3130   -9.0309 C   0  0  0  0  0  0  0  0  0  0  0  0
   24.0962  -21.1370  -12.3316 N   0  0  0  0  0  0  0  0  0  0  0  0
   22.7146  -20.6158  -12.1305 C   0  0  1  0  0  0  0  0  0  0  0  0
   21.8569  -21.2194  -13.1674 C   0  0  0  0  0  0  0  0  0  0  0  0
   21.3426  -20.3620  -14.2721 C   0  0  0  0  0  0  0  0  0  0  0  0
   20.3484  -21.0232  -15.1295 C   0  0  0  0  0  0  0  0  0  0  0  0
   20.0653  -22.2262  -14.9333 O   0  0  0  0  0  0  0  0  0  0  0  0
   22.4100  -20.7494  -10.7336 C   0  0  0  0  0  0  0  0  0  0  0  0
   23.1005  -21.4831   -9.9629 O   0  0  0  0  0  0  0  0  0  0  0  0
   19.6814  -20.3631  -16.1764 O   0  0  0  0  0  0  0  0  0  0  0  0
   21.3585  -20.0930  -10.1219 O   0  0  0  0  0  0  0  0  0  0  0  0
  2  1  1  0
  2  3  2  0
  4  2  1  0
  5  4  1  0
  5  6  1  6
  7  5  1  0
  7  8  2  0
 10 20  2  0
 10  9  1  0
 11 10  1  0
 12 13  1  0
 12 11  2  0
 13 19  2  0
 14 13  1  0
 15 14  1  1
 15 16  1  0
 16  7  1  0
 17 15  1  0
 17 18  2  0
 19 20  1  0
 21 22  1  0
 21 17  1  0
 22 23  1  6
 23 24  1  0
 24 25  1  0
 25 29  1  0
 25 26  2  0
 27 22  1  0
 28 27  2  0
 30 27  1  0
M  END
$$$$
