NYE.pdb
     RDKit          3D

 30 30  0  0  1  0  0  0  0  0999 V2000
   21.1600  -13.3081  -20.9197 N   0  0  0  0  0  0  0  0  0  0  0  0
   20.7194  -13.5423  -19.5910 C   0  0  0  0  0  0  0  0  0  0  0  0
   20.5072  -14.7260  -19.2468 O   0  0  0  0  0  0  0  0  0  0  0  0
   20.5121  -12.4488  -18.6336 C   0  0  0  0  0  0  0  0  0  0  0  0
   21.6115  -12.2019  -17.6719 C   0  0  2  0  0  0  0  0  0  0  0  0
   22.0313  -13.3331  -16.9115 N   0  0  0  0  0  0  0  0  0  0  0  0
   21.3549  -10.9982  -16.8034 C   0  0  0  0  0  0  0  0  0  0  0  0
   20.3055  -10.9318  -16.1348 O   0  0  0  0  0  0  0  0  0  0  0  0
   23.3723   -2.4809  -14.9051 O   0  0  0  0  0  0  0  0  0  0  0  0
   23.3946   -3.8748  -15.0919 C   0  0  0  0  0  0  0  0  0  0  0  0
   23.8655   -4.3939  -16.2731 C   0  0  0  0  0  0  0  0  0  0  0  0
   23.8914   -5.7405  -16.4650 C   0  0  0  0  0  0  0  0  0  0  0  0
   23.4520   -6.6533  -15.4971 C   0  0  0  0  0  0  0  0  0  0  0  0
   23.5361   -8.0997  -15.7910 C   0  0  0  0  0  0  0  0  0  0  0  0
   22.1663   -8.7130  -16.0863 C   0  0  2  0  0  0  0  0  0  0  0  0
   22.2987   -9.9580  -16.7525 N   0  0  0  0  0  0  0  0  0  0  0  0
   21.2469   -7.7519  -16.7114 C   0  0  0  0  0  0  0  0  0  0  0  0
   21.2864   -7.4960  -17.9580 O   0  0  0  0  0  0  0  0  0  0  0  0
   22.9891   -6.1103  -14.3313 C   0  0  0  0  0  0  0  0  0  0  0  0
   22.9586   -4.7232  -14.1254 C   0  0  0  0  0  0  0  0  0  0  0  0
   20.2976   -7.1006  -15.8971 N   0  0  0  0  0  0  0  0  0  0  0  0
   19.3184   -6.1494  -16.4950 C   0  0  1  0  0  0  0  0  0  0  0  0
   18.1689   -6.9388  -16.9754 C   0  0  0  0  0  0  0  0  0  0  0  0
   16.9864   -6.2285  -17.5384 C   0  0  0  0  0  0  0  0  0  0  0  0
   15.8875   -7.1194  -17.9379 C   0  0  0  0  0  0  0  0  0  0  0  0
   15.9888   -8.3513  -17.7435 O   0  0  0  0  0  0  0  0  0  0  0  0
   19.1505   -5.0711  -15.5618 C   0  0  0  0  0  0  0  0  0  0  0  0
   19.6743   -5.0950  -14.4067 O   0  0  0  0  0  0  0  0  0  0  0  0
   14.7030   -6.6528  -18.5346 O   0  0  0  0  0  0  0  0  0  0  0  0
   18.4206   -3.9319  -15.8446 O   0  0  0  0  0  0  0  0  0  0  0  0
  2  1  1  0
  2  3  2  0
  4  2  1  0
  5  4  1  0
  5  6  1  1
  7  5  1  0
  7  8  2  0
 10 20  2  0
 10  9  1  0
 11 10  1  0
 12 13  1  0
 12 11  2  0
 13 19  2  0
 14 13  1  0
 15 14  1  6
 15 16  1  0
 16  7  1  0
 17 15  1  0
 17 18  2  0
 19 20  1  0
 21 22  1  0
 21 17  1  0
 22 23  1  1
 23 24  1  0
 24 25  1  0
 25 29  1  0
 25 26  2  0
 27 22  1  0
 28 27  2  0
 30 27  1  0
M  END
$$$$
