NYE.pdb
     RDKit          3D

 30 30  0  0  1  0  0  0  0  0999 V2000
   27.1191  -12.5320  -16.3944 N   0  0  0  0  0  0  0  0  0  0  0  0
   26.0674  -13.0493  -17.1949 C   0  0  0  0  0  0  0  0  0  0  0  0
   26.2796  -14.1104  -17.8224 O   0  0  0  0  0  0  0  0  0  0  0  0
   24.7648  -12.3802  -17.2993 C   0  0  0  0  0  0  0  0  0  0  0  0
   24.6146  -11.1156  -16.5424 C   0  0  2  0  0  0  0  0  0  0  0  0
   24.8982  -11.1947  -15.1470 N   0  0  0  0  0  0  0  0  0  0  0  0
   23.2986  -10.4357  -16.8163 C   0  0  0  0  0  0  0  0  0  0  0  0
   22.9095  -10.2945  -17.9915 O   0  0  0  0  0  0  0  0  0  0  0  0
   18.1232  -14.7331  -17.1955 O   0  0  0  0  0  0  0  0  0  0  0  0
   18.6709  -13.5729  -16.6190 C   0  0  0  0  0  0  0  0  0  0  0  0
   18.1573  -12.3429  -16.9501 C   0  0  0  0  0  0  0  0  0  0  0  0
   18.6794  -11.2140  -16.3990 C   0  0  0  0  0  0  0  0  0  0  0  0
   19.7423  -11.2370  -15.4862 C   0  0  0  0  0  0  0  0  0  0  0  0
   20.2296   -9.9582  -14.9273 C   0  0  0  0  0  0  0  0  0  0  0  0
   21.2726   -9.2915  -15.8260 C   0  0  2  0  0  0  0  0  0  0  0  0
   22.5183   -9.9647  -15.7464 N   0  0  0  0  0  0  0  0  0  0  0  0
   21.3236   -7.8349  -15.6373 C   0  0  0  0  0  0  0  0  0  0  0  0
   22.0876   -7.2947  -14.7739 O   0  0  0  0  0  0  0  0  0  0  0  0
   20.2339  -12.4734  -15.1738 C   0  0  0  0  0  0  0  0  0  0  0  0
   19.7017  -13.6423  -15.7377 C   0  0  0  0  0  0  0  0  0  0  0  0
   20.4984   -7.0223  -16.4416 N   0  0  0  0  0  0  0  0  0  0  0  0
   20.6182   -5.5379  -16.3855 C   0  0  1  0  0  0  0  0  0  0  0  0
   20.5920   -5.0374  -17.7726 C   0  0  0  0  0  0  0  0  0  0  0  0
   20.7128   -3.5727  -18.0171 C   0  0  0  0  0  0  0  0  0  0  0  0
   20.6172   -3.1926  -19.4338 C   0  0  0  0  0  0  0  0  0  0  0  0
   20.4465   -4.0782  -20.3012 O   0  0  0  0  0  0  0  0  0  0  0  0
   19.6802   -5.0735  -15.4025 C   0  0  0  0  0  0  0  0  0  0  0  0
   18.6831   -5.7708  -15.0435 O   0  0  0  0  0  0  0  0  0  0  0  0
   20.7043   -1.8608  -19.8761 O   0  0  0  0  0  0  0  0  0  0  0  0
   19.7896   -3.8489  -14.7708 O   0  0  0  0  0  0  0  0  0  0  0  0
  2  1  1  0
  2  3  2  0
  4  2  1  0
  5  4  1  0
  5  6  1  1
  7  5  1  0
  7  8  2  0
 10 20  2  0
 10  9  1  0
 11 10  1  0
 12 13  1  0
 12 11  2  0
 13 19  2  0
 14 13  1  0
 15 14  1  1
 15 16  1  0
 16  7  1  0
 17 15  1  0
 17 18  2  0
 19 20  1  0
 21 22  1  0
 21 17  1  0
 22 23  1  6
 23 24  1  0
 24 25  1  0
 25 29  1  0
 25 26  2  0
 27 22  1  0
 28 27  2  0
 30 27  1  0
M  END
$$$$
