NYE.pdb
     RDKit          3D

 30 30  0  0  1  0  0  0  0  0999 V2000
   22.0291  -15.9561  -15.1598 N   0  0  0  0  0  0  0  0  0  0  0  0
   21.5973  -14.7669  -15.8032 C   0  0  0  0  0  0  0  0  0  0  0  0
   20.6397  -14.8514  -16.6036 O   0  0  0  0  0  0  0  0  0  0  0  0
   22.2365  -13.4690  -15.5543 C   0  0  0  0  0  0  0  0  0  0  0  0
   21.9628  -12.4024  -16.5452 C   0  0  2  0  0  0  0  0  0  0  0  0
   22.3279  -12.7022  -17.8908 N   0  0  0  0  0  0  0  0  0  0  0  0
   22.4828  -11.0600  -16.1019 C   0  0  0  0  0  0  0  0  0  0  0  0
   22.2767  -10.6725  -14.9357 O   0  0  0  0  0  0  0  0  0  0  0  0
   28.2448  -13.1420  -14.8411 O   0  0  0  0  0  0  0  0  0  0  0  0
   27.4910  -12.1181  -15.4427 C   0  0  0  0  0  0  0  0  0  0  0  0
   27.1942  -10.9838  -14.7275 C   0  0  0  0  0  0  0  0  0  0  0  0
   26.4656   -9.9872  -15.2990 C   0  0  0  0  0  0  0  0  0  0  0  0
   25.9875  -10.0555  -16.6143 C   0  0  0  0  0  0  0  0  0  0  0  0
   25.2193   -8.9135  -17.1538 C   0  0  0  0  0  0  0  0  0  0  0  0
   23.7428   -8.9678  -16.7577 C   0  0  2  0  0  0  0  0  0  0  0  0
   23.1963  -10.2529  -17.0048 N   0  0  0  0  0  0  0  0  0  0  0  0
   22.9771   -7.8362  -17.2991 C   0  0  0  0  0  0  0  0  0  0  0  0
   22.5042   -7.8479  -18.4811 O   0  0  0  0  0  0  0  0  0  0  0  0
   26.2974  -11.1944  -17.3035 C   0  0  0  0  0  0  0  0  0  0  0  0
   27.0478  -12.2267  -16.7217 C   0  0  0  0  0  0  0  0  0  0  0  0
   22.7661   -6.7107  -16.4763 N   0  0  0  0  0  0  0  0  0  0  0  0
   21.8481   -5.6206  -16.9120 C   0  0  1  0  0  0  0  0  0  0  0  0
   21.1435   -5.1278  -15.7137 C   0  0  0  0  0  0  0  0  0  0  0  0
   20.1515   -4.0255  -15.8580 C   0  0  0  0  0  0  0  0  0  0  0  0
   18.7674   -4.4237  -15.5639 C   0  0  0  0  0  0  0  0  0  0  0  0
   17.8600   -4.1563  -16.3829 O   0  0  0  0  0  0  0  0  0  0  0  0
   22.6069   -4.7375  -17.7523 C   0  0  0  0  0  0  0  0  0  0  0  0
   23.8354   -4.5012  -17.5421 O   0  0  0  0  0  0  0  0  0  0  0  0
   18.4008   -5.1065  -14.3908 O   0  0  0  0  0  0  0  0  0  0  0  0
   22.0701   -4.0875  -18.8477 O   0  0  0  0  0  0  0  0  0  0  0  0
  2  1  1  0
  2  3  2  0
  4  2  1  0
  5  4  1  0
  5  6  1  6
  7  5  1  0
  7  8  2  0
 10 20  2  0
 10  9  1  0
 11 10  1  0
 12 13  1  0
 12 11  2  0
 13 19  2  0
 14 13  1  0
 15 14  1  6
 15 16  1  0
 16  7  1  0
 17 15  1  0
 17 18  2  0
 19 20  1  0
 21 22  1  0
 21 17  1  0
 22 23  1  1
 23 24  1  0
 24 25  1  0
 25 29  1  0
 25 26  2  0
 27 22  1  0
 28 27  2  0
 30 27  1  0
M  END
$$$$
