NYE.pdb
     RDKit          3D

 30 30  0  0  1  0  0  0  0  0999 V2000
   29.5938  -22.0421  -19.3217 N   0  0  0  0  0  0  0  0  0  0  0  0
   28.4018  -22.8101  -19.3824 C   0  0  0  0  0  0  0  0  0  0  0  0
   28.2220  -23.5296  -20.3897 O   0  0  0  0  0  0  0  0  0  0  0  0
   27.3980  -22.7785  -18.3116 C   0  0  0  0  0  0  0  0  0  0  0  0
   27.6956  -21.8960  -17.1595 C   0  0  2  0  0  0  0  0  0  0  0  0
   29.0059  -22.0198  -16.6102 N   0  0  0  0  0  0  0  0  0  0  0  0
   26.6278  -21.9571  -16.0989 C   0  0  0  0  0  0  0  0  0  0  0  0
   25.6273  -22.6796  -16.2710 O   0  0  0  0  0  0  0  0  0  0  0  0
   23.1227  -20.5186   -8.0328 O   0  0  0  0  0  0  0  0  0  0  0  0
   23.9316  -20.4812   -9.1829 C   0  0  0  0  0  0  0  0  0  0  0  0
   25.1316  -21.1491   -9.1909 C   0  0  0  0  0  0  0  0  0  0  0  0
   25.9223  -21.1196  -10.2975 C   0  0  0  0  0  0  0  0  0  0  0  0
   25.5703  -20.4260  -11.4630 C   0  0  0  0  0  0  0  0  0  0  0  0
   26.4875  -20.4675  -12.6216 C   0  0  0  0  0  0  0  0  0  0  0  0
   25.8397  -21.1036  -13.8527 C   0  0  2  0  0  0  0  0  0  0  0  0
   26.7653  -21.1997  -14.9228 N   0  0  0  0  0  0  0  0  0  0  0  0
   24.5463  -20.4892  -14.1837 C   0  0  0  0  0  0  0  0  0  0  0  0
   24.4621  -19.3055  -14.6448 O   0  0  0  0  0  0  0  0  0  0  0  0
   24.3714  -19.7707  -11.4284 C   0  0  0  0  0  0  0  0  0  0  0  0
   23.5504  -19.7957  -10.2914 C   0  0  0  0  0  0  0  0  0  0  0  0
   23.3715  -21.2423  -13.9811 N   0  0  0  0  0  0  0  0  0  0  0  0
   22.0359  -20.6455  -14.2654 C   0  0  1  0  0  0  0  0  0  0  0  0
   21.5803  -21.1747  -15.5645 C   0  0  0  0  0  0  0  0  0  0  0  0
   20.2103  -20.8385  -16.0440 C   0  0  0  0  0  0  0  0  0  0  0  0
   19.8375  -21.5005  -17.3024 C   0  0  0  0  0  0  0  0  0  0  0  0
   20.6037  -22.3541  -17.8023 O   0  0  0  0  0  0  0  0  0  0  0  0
   21.2441  -20.7918  -13.0764 C   0  0  0  0  0  0  0  0  0  0  0  0
   20.3286  -19.9676  -12.7736 O   0  0  0  0  0  0  0  0  0  0  0  0
   18.6405  -21.2247  -17.9864 O   0  0  0  0  0  0  0  0  0  0  0  0
   21.4078  -21.8321  -12.1811 O   0  0  0  0  0  0  0  0  0  0  0  0
  2  1  1  0
  2  3  2  0
  4  2  1  0
  5  4  1  0
  5  6  1  1
  7  5  1  0
  7  8  2  0
 10 20  2  0
 10  9  1  0
 11 10  1  0
 12 13  1  0
 12 11  2  0
 13 19  2  0
 14 13  1  0
 15 14  1  1
 15 16  1  0
 16  7  1  0
 17 15  1  0
 17 18  2  0
 19 20  1  0
 21 22  1  0
 21 17  1  0
 22 23  1  6
 23 24  1  0
 24 25  1  0
 25 29  1  0
 25 26  2  0
 27 22  1  0
 28 27  2  0
 30 27  1  0
M  END
$$$$
