NYE.pdb
     RDKit          3D

 30 30  0  0  1  0  0  0  0  0999 V2000
   39.6751   -6.8881   -9.5967 N   0  0  0  0  0  0  0  0  0  0  0  0
   38.3172   -7.1803   -9.3050 C   0  0  0  0  0  0  0  0  0  0  0  0
   37.7468   -8.0532   -9.9961 O   0  0  0  0  0  0  0  0  0  0  0  0
   37.5845   -6.4950   -8.2332 C   0  0  0  0  0  0  0  0  0  0  0  0
   38.3725   -5.5665   -7.3898 C   0  0  2  0  0  0  0  0  0  0  0  0
   39.4623   -6.1521   -6.6803 N   0  0  0  0  0  0  0  0  0  0  0  0
   37.5013   -4.7233   -6.4959 C   0  0  0  0  0  0  0  0  0  0  0  0
   36.5804   -4.0463   -6.9919 O   0  0  0  0  0  0  0  0  0  0  0  0
   34.6288   -1.4957    1.3240 O   0  0  0  0  0  0  0  0  0  0  0  0
   35.2235   -2.2613    0.3047 C   0  0  0  0  0  0  0  0  0  0  0  0
   36.5815   -2.1950    0.1105 C   0  0  0  0  0  0  0  0  0  0  0  0
   37.1674   -2.9308   -0.8724 C   0  0  0  0  0  0  0  0  0  0  0  0
   36.4419   -3.7765   -1.7218 C   0  0  0  0  0  0  0  0  0  0  0  0
   37.1703   -4.5502   -2.7495 C   0  0  0  0  0  0  0  0  0  0  0  0
   37.0560   -3.9215   -4.1393 C   0  0  2  0  0  0  0  0  0  0  0  0
   37.7319   -4.7046   -5.1095 N   0  0  0  0  0  0  0  0  0  0  0  0
   37.3879   -2.4899   -4.1339 C   0  0  0  0  0  0  0  0  0  0  0  0
   38.5920   -2.0782   -4.1728 O   0  0  0  0  0  0  0  0  0  0  0  0
   35.0930   -3.8241   -1.5066 C   0  0  0  0  0  0  0  0  0  0  0  0
   34.4808   -3.0687   -0.4957 C   0  0  0  0  0  0  0  0  0  0  0  0
   36.3339   -1.5544   -4.0845 N   0  0  0  0  0  0  0  0  0  0  0  0
   36.6207   -0.0930   -4.1384 C   0  0  1  0  0  0  0  0  0  0  0  0
   36.1995    0.3936   -5.4654 C   0  0  0  0  0  0  0  0  0  0  0  0
   36.2368    1.8563   -5.7465 C   0  0  0  0  0  0  0  0  0  0  0  0
   35.8804    2.2094   -7.1282 C   0  0  0  0  0  0  0  0  0  0  0  0
   35.5378    1.3096   -7.9274 O   0  0  0  0  0  0  0  0  0  0  0  0
   36.1058    0.4852   -2.9291 C   0  0  0  0  0  0  0  0  0  0  0  0
   36.5712    1.5632   -2.4490 O   0  0  0  0  0  0  0  0  0  0  0  0
   35.8994    3.5304   -7.6093 O   0  0  0  0  0  0  0  0  0  0  0  0
   35.0706   -0.0739   -2.2035 O   0  0  0  0  0  0  0  0  0  0  0  0
  2  1  1  0
  2  3  2  0
  4  2  1  0
  5  4  1  0
  5  6  1  1
  7  5  1  0
  7  8  2  0
 10 20  2  0
 10  9  1  0
 11 10  1  0
 12 13  1  0
 12 11  2  0
 13 19  2  0
 14 13  1  0
 15 14  1  1
 15 16  1  0
 16  7  1  0
 17 15  1  0
 17 18  2  0
 19 20  1  0
 21 22  1  0
 21 17  1  0
 22 23  1  6
 23 24  1  0
 24 25  1  0
 25 29  1  0
 25 26  2  0
 27 22  1  0
 28 27  2  0
 30 27  1  0
M  END
$$$$
