NYE.pdb
     RDKit          3D

 30 30  0  0  1  0  0  0  0  0999 V2000
   27.7772  -33.2811  -17.1889 N   0  0  0  0  0  0  0  0  0  0  0  0
   26.3762  -33.0997  -17.0514 C   0  0  0  0  0  0  0  0  0  0  0  0
   25.6231  -33.8744  -17.6818 O   0  0  0  0  0  0  0  0  0  0  0  0
   25.8055  -32.0455  -16.2040 C   0  0  0  0  0  0  0  0  0  0  0  0
   24.3321  -31.8972  -16.2445 C   0  0  2  0  0  0  0  0  0  0  0  0
   23.7850  -31.5184  -17.5059 N   0  0  0  0  0  0  0  0  0  0  0  0
   23.8102  -31.0419  -15.1198 C   0  0  0  0  0  0  0  0  0  0  0  0
   24.3470  -29.9436  -14.8791 O   0  0  0  0  0  0  0  0  0  0  0  0
   18.9288  -26.3094   -9.8583 O   0  0  0  0  0  0  0  0  0  0  0  0
   19.6204  -27.0681  -10.8197 C   0  0  0  0  0  0  0  0  0  0  0  0
   18.9202  -27.6979  -11.8194 C   0  0  0  0  0  0  0  0  0  0  0  0
   19.5786  -28.4347  -12.7545 C   0  0  0  0  0  0  0  0  0  0  0  0
   20.9710  -28.5912  -12.7545 C   0  0  0  0  0  0  0  0  0  0  0  0
   21.5978  -29.3970  -13.8238 C   0  0  0  0  0  0  0  0  0  0  0  0
   22.0474  -30.7721  -13.3269 C   0  0  2  0  0  0  0  0  0  0  0  0
   22.7225  -31.4870  -14.3488 N   0  0  0  0  0  0  0  0  0  0  0  0
   20.9673  -31.5013  -12.6477 C   0  0  0  0  0  0  0  0  0  0  0  0
   20.0140  -32.0459  -13.2924 O   0  0  0  0  0  0  0  0  0  0  0  0
   21.6431  -27.9538  -11.7495 C   0  0  0  0  0  0  0  0  0  0  0  0
   20.9721  -27.1925  -10.7813 C   0  0  0  0  0  0  0  0  0  0  0  0
   20.9984  -31.5943  -11.2410 N   0  0  0  0  0  0  0  0  0  0  0  0
   19.9827  -32.4103  -10.5174 C   0  0  1  0  0  0  0  0  0  0  0  0
   20.6591  -33.0479   -9.3723 C   0  0  0  0  0  0  0  0  0  0  0  0
   19.9202  -34.0592   -8.5653 C   0  0  0  0  0  0  0  0  0  0  0  0
   20.0172  -33.8529   -7.1131 C   0  0  0  0  0  0  0  0  0  0  0  0
   20.9676  -33.1866   -6.6457 O   0  0  0  0  0  0  0  0  0  0  0  0
   18.8232  -31.5827  -10.3380 C   0  0  0  0  0  0  0  0  0  0  0  0
   18.9117  -30.3262  -10.1878 O   0  0  0  0  0  0  0  0  0  0  0  0
   19.0790  -34.3701   -6.2027 O   0  0  0  0  0  0  0  0  0  0  0  0
   17.5334  -32.0797  -10.3216 O   0  0  0  0  0  0  0  0  0  0  0  0
  2  1  1  0
  2  3  2  0
  4  2  1  0
  5  4  1  0
  5  6  1  6
  7  5  1  0
  7  8  2  0
 10 20  2  0
 10  9  1  0
 11 10  1  0
 12 13  1  0
 12 11  2  0
 13 19  2  0
 14 13  1  0
 15 14  1  6
 15 16  1  0
 16  7  1  0
 17 15  1  0
 17 18  2  0
 19 20  1  0
 21 22  1  0
 21 17  1  0
 22 23  1  1
 23 24  1  0
 24 25  1  0
 25 29  1  0
 25 26  2  0
 27 22  1  0
 28 27  2  0
 30 27  1  0
M  END
$$$$
