WHL.pdb
     RDKit          3D

 33 35  0  0  1  0  0  0  0  0999 V2000
    9.9131  -16.6149   20.6821 N   0  0  0  0  0  0  0  0  0  0  0  0
    8.9093  -16.1006   21.5505 C   0  0  1  0  0  0  0  0  0  0  0  0
    7.5189  -16.1713   21.0225 C   0  0  0  0  0  0  0  0  0  0  0  0
    7.3847  -15.3903   19.7723 C   0  0  0  0  0  0  0  0  0  0  0  0
    6.8707  -15.8741   18.5604 C   0  0  0  0  0  0  0  0  0  0  0  0
    6.8725  -14.8935   17.6475 N   0  0  0  0  0  0  0  0  0  0  0  0
    7.3669  -13.7685   18.1928 C   0  0  0  0  0  0  0  0  0  0  0  0
    7.5731  -12.5092   17.6616 C   0  0  0  0  0  0  0  0  0  0  0  0
    8.1072  -11.5306   18.4508 C   0  0  0  0  0  0  0  0  0  0  0  0
    8.4233  -11.8228   19.7439 C   0  0  0  0  0  0  0  0  0  0  0  0
    8.2301  -13.0700   20.3063 C   0  0  0  0  0  0  0  0  0  0  0  0
    7.6896  -14.0724   19.5220 C   0  0  0  0  0  0  0  0  0  0  0  0
    8.9867  -16.8393   22.8613 C   0  0  0  0  0  0  0  0  0  0  0  0
    7.9595  -16.9199   23.5998 O   0  0  0  0  0  0  0  0  0  0  0  0
   10.1683  -17.4586   23.3188 N   0  0  0  0  0  0  0  0  0  0  0  0
   10.2395  -17.9918   24.6556 C   0  0  1  0  0  0  0  0  0  0  0  0
   11.3754  -18.9373   24.8631 C   0  0  0  0  0  0  0  0  0  0  0  0
   11.4067  -19.5706   26.2029 C   0  0  0  0  0  0  0  0  0  0  0  0
   10.4942  -19.3929   27.2316 C   0  0  0  0  0  0  0  0  0  0  0  0
   10.8438  -20.1268   28.3025 N   0  0  0  0  0  0  0  0  0  0  0  0
   11.9716  -20.7762   27.9771 C   0  0  0  0  0  0  0  0  0  0  0  0
   12.3118  -20.4405   26.7090 N   0  0  0  0  0  0  0  0  0  0  0  0
   10.4496  -16.8614   25.6228 C   0  0  0  0  0  0  0  0  0  0  0  0
   11.4702  -16.1299   25.5073 O   0  0  0  0  0  0  0  0  0  0  0  0
    8.4219  -12.8376   25.7919 C   0  0  0  0  0  0  0  0  0  0  0  0
    7.7825  -14.0786   26.3388 C   0  0  2  0  0  0  0  0  0  0  0  0
    6.3447  -13.6706   26.7376 C   0  0  0  0  0  0  0  0  0  0  0  0
    8.3994  -14.6523   27.5371 C   0  0  0  0  0  0  0  0  0  0  0  0
    9.7080  -15.3330   27.4939 C   0  0  2  0  0  0  0  0  0  0  0  0
    9.5554  -16.5762   26.6609 N   0  0  0  0  0  0  0  0  0  0  0  0
   10.3612  -15.7553   28.7083 C   0  0  0  0  0  0  0  0  0  0  0  0
   10.5783  -17.0461   29.1581 O   0  0  0  0  0  0  0  0  0  0  0  0
   10.8158  -14.8621   29.5195 O   0  0  0  0  0  0  0  0  0  0  0  0
  2  1  1  6
  2 13  1  0
  2  3  1  0
  4  5  2  0
  4  3  1  0
  6  5  1  0
  7 12  2  0
  7  6  1  0
  8  7  1  0
  9 10  1  0
  9  8  2  0
 10 11  2  0
 11 12  1  0
 12  4  1  0
 13 14  2  0
 15 13  1  0
 15 16  1  0
 16 17  1  6
 18 22  1  0
 18 17  1  0
 19 18  2  0
 20 19  1  0
 20 21  1  0
 21 22  2  0
 23 24  2  0
 23 16  1  0
 26 25  1  1
 26 27  1  0
 26 28  1  0
 29 28  1  1
 29 30  1  0
 30 23  1  0
 31 32  1  0
 31 29  1  0
 33 31  2  0
M  END
$$$$
