WHL.pdb
     RDKit          3D

 33 35  0  0  1  0  0  0  0  0999 V2000
    6.4690  -18.0029   24.3624 N   0  0  0  0  0  0  0  0  0  0  0  0
    7.4950  -17.0604   24.0707 C   0  0  1  0  0  0  0  0  0  0  0  0
    7.5641  -15.8942   24.9939 C   0  0  0  0  0  0  0  0  0  0  0  0
    7.0121  -14.6778   24.3562 C   0  0  0  0  0  0  0  0  0  0  0  0
    5.9154  -13.9389   24.8234 C   0  0  0  0  0  0  0  0  0  0  0  0
    5.7052  -12.8885   24.0189 N   0  0  0  0  0  0  0  0  0  0  0  0
    6.6138  -12.8883   23.0281 C   0  0  0  0  0  0  0  0  0  0  0  0
    6.8052  -12.0278   21.9634 C   0  0  0  0  0  0  0  0  0  0  0  0
    7.8211  -12.2699   21.0832 C   0  0  0  0  0  0  0  0  0  0  0  0
    8.6208  -13.3561   21.2786 C   0  0  0  0  0  0  0  0  0  0  0  0
    8.4575  -14.2357   22.3317 C   0  0  0  0  0  0  0  0  0  0  0  0
    7.4345  -14.0053   23.2330 C   0  0  0  0  0  0  0  0  0  0  0  0
    8.8189  -17.7795   24.0703 C   0  0  0  0  0  0  0  0  0  0  0  0
    8.9822  -18.7977   24.8076 O   0  0  0  0  0  0  0  0  0  0  0  0
    9.9092  -17.3691   23.2754 N   0  0  0  0  0  0  0  0  0  0  0  0
   11.2524  -17.7530   23.6288 C   0  0  1  0  0  0  0  0  0  0  0  0
   12.2871  -17.2583   22.6738 C   0  0  0  0  0  0  0  0  0  0  0  0
   12.0631  -17.6638   21.2658 C   0  0  0  0  0  0  0  0  0  0  0  0
   11.9787  -18.9571   20.7730 C   0  0  0  0  0  0  0  0  0  0  0  0
   11.7713  -18.9418   19.4448 N   0  0  0  0  0  0  0  0  0  0  0  0
   11.7208  -17.6536   19.0742 C   0  0  0  0  0  0  0  0  0  0  0  0
   11.8969  -16.8814   20.1738 N   0  0  0  0  0  0  0  0  0  0  0  0
   11.5949  -17.1600   24.9662 C   0  0  0  0  0  0  0  0  0  0  0  0
   12.4355  -16.2223   25.0302 O   0  0  0  0  0  0  0  0  0  0  0  0
    9.0274  -13.6306   28.2283 C   0  0  0  0  0  0  0  0  0  0  0  0
   10.0882  -14.6742   28.4122 C   0  0  2  0  0  0  0  0  0  0  0  0
   11.4242  -13.9020   28.5198 C   0  0  0  0  0  0  0  0  0  0  0  0
   10.2501  -15.6347   27.3181 C   0  0  0  0  0  0  0  0  0  0  0  0
   11.1473  -16.8011   27.4274 C   0  0  2  0  0  0  0  0  0  0  0  0
   11.0188  -17.6038   26.1618 N   0  0  0  0  0  0  0  0  0  0  0  0
   11.0002  -17.7474   28.5057 C   0  0  0  0  0  0  0  0  0  0  0  0
    9.8984  -18.5252   28.8165 O   0  0  0  0  0  0  0  0  0  0  0  0
   11.9842  -17.9300   29.3187 O   0  0  0  0  0  0  0  0  0  0  0  0
  2  1  1  1
  2 13  1  0
  2  3  1  0
  4  5  2  0
  4  3  1  0
  6  5  1  0
  7 12  2  0
  7  6  1  0
  8  7  1  0
  9 10  1  0
  9  8  2  0
 10 11  2  0
 11 12  1  0
 12  4  1  0
 13 14  2  0
 15 13  1  0
 15 16  1  0
 16 17  1  6
 18 22  1  0
 18 17  1  0
 19 18  2  0
 20 19  1  0
 20 21  1  0
 21 22  2  0
 23 24  2  0
 23 16  1  0
 26 25  1  6
 26 27  1  0
 26 28  1  0
 29 28  1  1
 29 30  1  0
 30 23  1  0
 31 32  1  0
 31 29  1  0
 33 31  2  0
M  END
$$$$
