WHL.pdb
     RDKit          3D

 33 35  0  0  1  0  0  0  0  0999 V2000
    7.7932  -17.8991   21.6400 N   0  0  0  0  0  0  0  0  0  0  0  0
    8.5949  -16.8110   22.0867 C   0  0  1  0  0  0  0  0  0  0  0  0
    7.8384  -15.6455   22.6217 C   0  0  0  0  0  0  0  0  0  0  0  0
    7.2188  -14.8658   21.5265 C   0  0  0  0  0  0  0  0  0  0  0  0
    5.8729  -14.9338   21.1381 C   0  0  0  0  0  0  0  0  0  0  0  0
    5.6512  -14.0772   20.1321 N   0  0  0  0  0  0  0  0  0  0  0  0
    6.7916  -13.4348   19.8252 C   0  0  0  0  0  0  0  0  0  0  0  0
    7.0717  -12.4748   18.8709 C   0  0  0  0  0  0  0  0  0  0  0  0
    8.3432  -11.9869   18.7674 C   0  0  0  0  0  0  0  0  0  0  0  0
    9.3041  -12.4608   19.6097 C   0  0  0  0  0  0  0  0  0  0  0  0
    9.0584  -13.4192   20.5743 C   0  0  0  0  0  0  0  0  0  0  0  0
    7.7765  -13.9236   20.6936 C   0  0  0  0  0  0  0  0  0  0  0  0
    9.5458  -17.3183   23.1394 C   0  0  0  0  0  0  0  0  0  0  0  0
    9.1149  -18.0628   24.0705 O   0  0  0  0  0  0  0  0  0  0  0  0
   10.9198  -17.0003   23.1425 N   0  0  0  0  0  0  0  0  0  0  0  0
   11.7603  -17.4163   24.2366 C   0  0  1  0  0  0  0  0  0  0  0  0
   13.2082  -17.1238   24.0238 C   0  0  0  0  0  0  0  0  0  0  0  0
   13.8472  -17.9391   22.9635 C   0  0  0  0  0  0  0  0  0  0  0  0
   13.3178  -19.0573   22.3375 C   0  0  0  0  0  0  0  0  0  0  0  0
   14.1813  -19.5396   21.4269 N   0  0  0  0  0  0  0  0  0  0  0  0
   15.2622  -18.7457   21.4577 C   0  0  0  0  0  0  0  0  0  0  0  0
   15.0607  -17.7789   22.3857 N   0  0  0  0  0  0  0  0  0  0  0  0
   11.3566  -16.6684   25.4756 C   0  0  0  0  0  0  0  0  0  0  0  0
   11.2811  -15.4101   25.4418 O   0  0  0  0  0  0  0  0  0  0  0  0
    9.9622  -13.4054   28.0811 C   0  0  0  0  0  0  0  0  0  0  0  0
    9.4369  -14.3682   27.0588 C   0  0  2  0  0  0  0  0  0  0  0  0
    7.9827  -13.9257   26.7718 C   0  0  0  0  0  0  0  0  0  0  0  0
    9.3711  -15.7741   27.4650 C   0  0  0  0  0  0  0  0  0  0  0  0
   10.5724  -16.5273   27.8740 C   0  0  2  0  0  0  0  0  0  0  0  0
   11.0561  -17.3087   26.6832 N   0  0  0  0  0  0  0  0  0  0  0  0
   10.5171  -17.4710   28.9631 C   0  0  0  0  0  0  0  0  0  0  0  0
   10.6524  -17.2222   30.3178 O   0  0  0  0  0  0  0  0  0  0  0  0
   10.3255  -18.7191   28.7025 O   0  0  0  0  0  0  0  0  0  0  0  0
  2  1  1  1
  2 13  1  0
  2  3  1  0
  4  5  2  0
  4  3  1  0
  6  5  1  0
  7 12  2  0
  7  6  1  0
  8  7  1  0
  9 10  1  0
  9  8  2  0
 10 11  2  0
 11 12  1  0
 12  4  1  0
 13 14  2  0
 15 13  1  0
 15 16  1  0
 16 17  1  6
 18 22  1  0
 18 17  1  0
 19 18  2  0
 20 19  1  0
 20 21  1  0
 21 22  2  0
 23 24  2  0
 23 16  1  0
 26 25  1  1
 26 27  1  0
 26 28  1  0
 29 28  1  6
 29 30  1  0
 30 23  1  0
 31 32  1  0
 31 29  1  0
 33 31  2  0
M  END
$$$$
