WHL.pdb
     RDKit          3D

 33 35  0  0  1  0  0  0  0  0999 V2000
    8.6477  -17.8863   19.9774 N   0  0  0  0  0  0  0  0  0  0  0  0
    8.7408  -16.9431   21.0395 C   0  0  1  0  0  0  0  0  0  0  0  0
    7.4587  -16.2870   21.4172 C   0  0  0  0  0  0  0  0  0  0  0  0
    7.5789  -14.8128   21.3598 C   0  0  0  0  0  0  0  0  0  0  0  0
    7.7520  -14.0541   20.1931 C   0  0  0  0  0  0  0  0  0  0  0  0
    7.7976  -12.7521   20.5057 N   0  0  0  0  0  0  0  0  0  0  0  0
    7.6631  -12.6009   21.8348 C   0  0  0  0  0  0  0  0  0  0  0  0
    7.6515  -11.4701   22.6296 C   0  0  0  0  0  0  0  0  0  0  0  0
    7.5034  -11.6049   23.9807 C   0  0  0  0  0  0  0  0  0  0  0  0
    7.3710  -12.8537   24.5102 C   0  0  0  0  0  0  0  0  0  0  0  0
    7.3781  -14.0042   23.7450 C   0  0  0  0  0  0  0  0  0  0  0  0
    7.5262  -13.8863   22.3753 C   0  0  0  0  0  0  0  0  0  0  0  0
    9.3243  -17.6352   22.2438 C   0  0  0  0  0  0  0  0  0  0  0  0
    8.6967  -18.5953   22.7834 O   0  0  0  0  0  0  0  0  0  0  0  0
   10.5589  -17.2616   22.8141 N   0  0  0  0  0  0  0  0  0  0  0  0
   10.9844  -17.8331   24.0666 C   0  0  1  0  0  0  0  0  0  0  0  0
   12.3863  -18.3445   24.0455 C   0  0  0  0  0  0  0  0  0  0  0  0
   12.5672  -19.6008   23.2799 C   0  0  0  0  0  0  0  0  0  0  0  0
   12.1658  -19.8489   21.9762 C   0  0  0  0  0  0  0  0  0  0  0  0
   12.4954  -21.1005   21.6126 N   0  0  0  0  0  0  0  0  0  0  0  0
   13.1050  -21.6636   22.6666 C   0  0  0  0  0  0  0  0  0  0  0  0
   13.1485  -20.7579   23.6738 N   0  0  0  0  0  0  0  0  0  0  0  0
   10.9385  -16.7719   25.1293 C   0  0  0  0  0  0  0  0  0  0  0  0
   11.5751  -15.6969   24.9582 O   0  0  0  0  0  0  0  0  0  0  0  0
   10.0408  -12.6675   26.9917 C   0  0  0  0  0  0  0  0  0  0  0  0
    9.1566  -13.7457   26.4407 C   0  0  2  0  0  0  0  0  0  0  0  0
    7.7272  -13.1546   26.4323 C   0  0  0  0  0  0  0  0  0  0  0  0
    9.0884  -14.9876   27.2146 C   0  0  0  0  0  0  0  0  0  0  0  0
   10.2613  -15.8659   27.3893 C   0  0  2  0  0  0  0  0  0  0  0  0
   10.2137  -16.9200   26.3173 N   0  0  0  0  0  0  0  0  0  0  0  0
   10.4737  -16.5770   28.6258 C   0  0  0  0  0  0  0  0  0  0  0  0
   11.0220  -16.0997   29.8035 O   0  0  0  0  0  0  0  0  0  0  0  0
   10.1347  -17.8188   28.7016 O   0  0  0  0  0  0  0  0  0  0  0  0
  2  1  1  6
  2 13  1  0
  2  3  1  0
  4  5  2  0
  4  3  1  0
  6  5  1  0
  7 12  2  0
  7  6  1  0
  8  7  1  0
  9 10  1  0
  9  8  2  0
 10 11  2  0
 11 12  1  0
 12  4  1  0
 13 14  2  0
 15 13  1  0
 15 16  1  0
 16 17  1  6
 18 22  1  0
 18 17  1  0
 19 18  2  0
 20 19  1  0
 20 21  1  0
 21 22  2  0
 23 24  2  0
 23 16  1  0
 26 25  1  1
 26 27  1  0
 26 28  1  0
 29 28  1  1
 29 30  1  0
 30 23  1  0
 31 32  1  0
 31 29  1  0
 33 31  2  0
M  END
$$$$
