WHL.pdb
     RDKit          3D

 33 35  0  0  1  0  0  0  0  0999 V2000
    6.3494  -18.0979   23.7118 N   0  0  0  0  0  0  0  0  0  0  0  0
    7.2108  -16.9649   23.7263 C   0  0  1  0  0  0  0  0  0  0  0  0
    7.5543  -16.4484   25.0799 C   0  0  0  0  0  0  0  0  0  0  0  0
    6.6100  -15.3887   25.4999 C   0  0  0  0  0  0  0  0  0  0  0  0
    5.4157  -15.5945   26.2059 C   0  0  0  0  0  0  0  0  0  0  0  0
    4.8230  -14.4160   26.4403 N   0  0  0  0  0  0  0  0  0  0  0  0
    5.5672  -13.4240   25.9213 C   0  0  0  0  0  0  0  0  0  0  0  0
    5.3784  -12.0549   25.8996 C   0  0  0  0  0  0  0  0  0  0  0  0
    6.3062  -11.2623   25.2858 C   0  0  0  0  0  0  0  0  0  0  0  0
    7.3958  -11.8441   24.7098 C   0  0  0  0  0  0  0  0  0  0  0  0
    7.6153  -13.2083   24.7136 C   0  0  0  0  0  0  0  0  0  0  0  0
    6.6866  -14.0257   25.3312 C   0  0  0  0  0  0  0  0  0  0  0  0
    8.4759  -17.3164   22.9874 C   0  0  0  0  0  0  0  0  0  0  0  0
    8.9346  -18.4965   23.0509 O   0  0  0  0  0  0  0  0  0  0  0  0
    9.1913  -16.3801   22.2125 N   0  0  0  0  0  0  0  0  0  0  0  0
   10.6008  -16.5601   21.9724 C   0  0  1  0  0  0  0  0  0  0  0  0
   11.1998  -15.5033   21.1054 C   0  0  0  0  0  0  0  0  0  0  0  0
   12.5967  -15.7734   20.6892 C   0  0  0  0  0  0  0  0  0  0  0  0
   13.1383  -16.9977   20.3286 C   0  0  0  0  0  0  0  0  0  0  0  0
   14.4379  -16.8623   20.0121 N   0  0  0  0  0  0  0  0  0  0  0  0
   14.7417  -15.5646   20.1642 C   0  0  0  0  0  0  0  0  0  0  0  0
   13.6297  -14.9066   20.5731 N   0  0  0  0  0  0  0  0  0  0  0  0
   11.3326  -16.4953   23.2830 C   0  0  0  0  0  0  0  0  0  0  0  0
   12.5828  -16.6586   23.3023 O   0  0  0  0  0  0  0  0  0  0  0  0
   10.0184  -14.9275   29.1186 C   0  0  0  0  0  0  0  0  0  0  0  0
   11.1082  -15.0921   28.1020 C   0  0  2  0  0  0  0  0  0  0  0  0
   11.8894  -13.7570   28.1024 C   0  0  0  0  0  0  0  0  0  0  0  0
   10.6778  -15.3216   26.7207 C   0  0  0  0  0  0  0  0  0  0  0  0
   11.4658  -16.1435   25.7821 C   0  0  2  0  0  0  0  0  0  0  0  0
   10.6856  -16.2594   24.5013 N   0  0  0  0  0  0  0  0  0  0  0  0
   11.8537  -17.4895   26.1253 C   0  0  0  0  0  0  0  0  0  0  0  0
   13.0277  -17.9154   26.7216 O   0  0  0  0  0  0  0  0  0  0  0  0
   11.0478  -18.4610   25.8621 O   0  0  0  0  0  0  0  0  0  0  0  0
  2  1  1  1
  2 13  1  0
  2  3  1  0
  4  5  2  0
  4  3  1  0
  6  5  1  0
  7 12  2  0
  7  6  1  0
  8  7  1  0
  9 10  1  0
  9  8  2  0
 10 11  2  0
 11 12  1  0
 12  4  1  0
 13 14  2  0
 15 13  1  0
 15 16  1  0
 16 17  1  6
 18 22  1  0
 18 17  1  0
 19 18  2  0
 20 19  1  0
 20 21  1  0
 21 22  2  0
 23 24  2  0
 23 16  1  0
 26 25  1  1
 26 27  1  0
 26 28  1  0
 29 28  1  1
 29 30  1  0
 30 23  1  0
 31 32  1  0
 31 29  1  0
 33 31  2  0
M  END
$$$$
