WHL.pdb
     RDKit          3D

 33 35  0  0  1  0  0  0  0  0999 V2000
    6.1620  -16.9351   23.6896 N   0  0  0  0  0  0  0  0  0  0  0  0
    7.4174  -16.3542   24.0255 C   0  0  1  0  0  0  0  0  0  0  0  0
    7.5635  -15.9425   25.4489 C   0  0  0  0  0  0  0  0  0  0  0  0
    6.5827  -14.8914   25.8016 C   0  0  0  0  0  0  0  0  0  0  0  0
    5.3743  -15.0999   26.4823 C   0  0  0  0  0  0  0  0  0  0  0  0
    4.7471  -13.9286   26.6545 N   0  0  0  0  0  0  0  0  0  0  0  0
    5.4817  -12.9388   26.1178 C   0  0  0  0  0  0  0  0  0  0  0  0
    5.2609  -11.5766   26.0378 C   0  0  0  0  0  0  0  0  0  0  0  0
    6.1864  -10.7851   25.4193 C   0  0  0  0  0  0  0  0  0  0  0  0
    7.3054  -11.3610   24.8961 C   0  0  0  0  0  0  0  0  0  0  0  0
    7.5572  -12.7181   24.9588 C   0  0  0  0  0  0  0  0  0  0  0  0
    6.6314  -13.5343   25.5822 C   0  0  0  0  0  0  0  0  0  0  0  0
    8.5070  -17.3327   23.6717 C   0  0  0  0  0  0  0  0  0  0  0  0
    8.7525  -18.3076   24.4440 O   0  0  0  0  0  0  0  0  0  0  0  0
    9.2847  -17.2172   22.5008 N   0  0  0  0  0  0  0  0  0  0  0  0
   10.3539  -16.2538   22.4298 C   0  0  1  0  0  0  0  0  0  0  0  0
    9.8831  -14.8500   22.2426 C   0  0  0  0  0  0  0  0  0  0  0  0
    9.1544  -14.6138   20.9736 C   0  0  0  0  0  0  0  0  0  0  0  0
    8.0659  -13.7772   20.7794 C   0  0  0  0  0  0  0  0  0  0  0  0
    7.6655  -13.8163   19.4966 N   0  0  0  0  0  0  0  0  0  0  0  0
    8.4829  -14.6685   18.8602 C   0  0  0  0  0  0  0  0  0  0  0  0
    9.3823  -15.1504   19.7520 N   0  0  0  0  0  0  0  0  0  0  0  0
   11.1172  -16.2736   23.7239 C   0  0  0  0  0  0  0  0  0  0  0  0
   12.1152  -15.5159   23.8653 O   0  0  0  0  0  0  0  0  0  0  0  0
   11.8863  -14.3426   27.6306 C   0  0  0  0  0  0  0  0  0  0  0  0
   10.6402  -15.1128   27.3108 C   0  0  2  0  0  0  0  0  0  0  0  0
    9.6983  -14.9108   28.5211 C   0  0  0  0  0  0  0  0  0  0  0  0
   10.7967  -16.5595   27.1427 C   0  0  0  0  0  0  0  0  0  0  0  0
   11.6013  -17.1375   26.0490 C   0  0  2  0  0  0  0  0  0  0  0  0
   10.7702  -17.1038   24.7957 N   0  0  0  0  0  0  0  0  0  0  0  0
   12.1140  -18.4823   26.1405 C   0  0  0  0  0  0  0  0  0  0  0  0
   13.1644  -18.9463   26.9132 O   0  0  0  0  0  0  0  0  0  0  0  0
   11.5687  -19.4113   25.4318 O   0  0  0  0  0  0  0  0  0  0  0  0
  2  1  1  1
  2 13  1  0
  2  3  1  0
  4  5  2  0
  4  3  1  0
  6  5  1  0
  7 12  2  0
  7  6  1  0
  8  7  1  0
  9 10  1  0
  9  8  2  0
 10 11  2  0
 11 12  1  0
 12  4  1  0
 13 14  2  0
 15 13  1  0
 15 16  1  0
 16 17  1  1
 18 22  1  0
 18 17  1  0
 19 18  2  0
 20 19  1  0
 20 21  1  0
 21 22  2  0
 23 24  2  0
 23 16  1  0
 26 25  1  1
 26 27  1  0
 26 28  1  0
 29 28  1  1
 29 30  1  0
 30 23  1  0
 31 32  1  0
 31 29  1  0
 33 31  2  0
M  END
$$$$
