WHL.pdb
     RDKit          3D

 33 35  0  0  1  0  0  0  0  0999 V2000
    6.3686  -17.1057   24.2181 N   0  0  0  0  0  0  0  0  0  0  0  0
    7.4640  -16.2018   24.1220 C   0  0  1  0  0  0  0  0  0  0  0  0
    7.7847  -15.4611   25.3731 C   0  0  0  0  0  0  0  0  0  0  0  0
    6.7763  -14.4116   25.6429 C   0  0  0  0  0  0  0  0  0  0  0  0
    5.5819  -14.5930   26.3553 C   0  0  0  0  0  0  0  0  0  0  0  0
    4.9215  -13.4297   26.4299 N   0  0  0  0  0  0  0  0  0  0  0  0
    5.6203  -12.4713   25.7971 C   0  0  0  0  0  0  0  0  0  0  0  0
    5.3576  -11.1289   25.5981 C   0  0  0  0  0  0  0  0  0  0  0  0
    6.2523  -10.3696   24.8991 C   0  0  0  0  0  0  0  0  0  0  0  0
    7.3827  -10.9574   24.4151 C   0  0  0  0  0  0  0  0  0  0  0  0
    7.6760  -12.2955   24.5960 C   0  0  0  0  0  0  0  0  0  0  0  0
    6.7817  -13.0789   25.3021 C   0  0  0  0  0  0  0  0  0  0  0  0
    8.6785  -16.9688   23.6674 C   0  0  0  0  0  0  0  0  0  0  0  0
    8.8307  -18.1755   24.0246 O   0  0  0  0  0  0  0  0  0  0  0  0
    9.6760  -16.4011   22.8479 N   0  0  0  0  0  0  0  0  0  0  0  0
   11.0325  -16.8830   22.9133 C   0  0  1  0  0  0  0  0  0  0  0  0
   11.9600  -16.1897   21.9718 C   0  0  0  0  0  0  0  0  0  0  0  0
   11.5803  -16.3053   20.5437 C   0  0  0  0  0  0  0  0  0  0  0  0
   12.3846  -16.7321   19.4981 C   0  0  0  0  0  0  0  0  0  0  0  0
   11.7033  -16.7060   18.3394 N   0  0  0  0  0  0  0  0  0  0  0  0
   10.4682  -16.2671   18.6248 C   0  0  0  0  0  0  0  0  0  0  0  0
   10.3936  -16.0250   19.9561 N   0  0  0  0  0  0  0  0  0  0  0  0
   11.5726  -16.6387   24.2939 C   0  0  0  0  0  0  0  0  0  0  0  0
   11.8374  -15.4599   24.6551 O   0  0  0  0  0  0  0  0  0  0  0  0
   12.1792  -14.7933   28.2098 C   0  0  0  0  0  0  0  0  0  0  0  0
   10.9519  -15.0970   27.4037 C   0  0  2  0  0  0  0  0  0  0  0  0
    9.7530  -14.6971   28.2956 C   0  0  0  0  0  0  0  0  0  0  0  0
   10.7474  -16.5003   27.0369 C   0  0  0  0  0  0  0  0  0  0  0  0
   11.8721  -17.3897   26.6883 C   0  0  2  0  0  0  0  0  0  0  0  0
   11.7999  -17.6700   25.2122 N   0  0  0  0  0  0  0  0  0  0  0  0
   12.0200  -18.6765   27.3225 C   0  0  0  0  0  0  0  0  0  0  0  0
   11.3055  -19.8367   27.0796 O   0  0  0  0  0  0  0  0  0  0  0  0
   12.9102  -18.8234   28.2435 O   0  0  0  0  0  0  0  0  0  0  0  0
  2  1  1  1
  2 13  1  0
  2  3  1  0
  4  5  2  0
  4  3  1  0
  6  5  1  0
  7 12  2  0
  7  6  1  0
  8  7  1  0
  9 10  1  0
  9  8  2  0
 10 11  2  0
 11 12  1  0
 12  4  1  0
 13 14  2  0
 15 13  1  0
 15 16  1  0
 16 17  1  6
 18 22  1  0
 18 17  1  0
 19 18  2  0
 20 19  1  0
 20 21  1  0
 21 22  2  0
 23 24  2  0
 23 16  1  0
 26 25  1  1
 26 27  1  0
 26 28  1  0
 29 28  1  1
 29 30  1  0
 30 23  1  0
 31 32  1  0
 31 29  1  0
 33 31  2  0
M  END
$$$$
