WHL.pdb
     RDKit          3D

 33 35  0  0  1  0  0  0  0  0999 V2000
    9.0117  -16.0922   21.4335 N   0  0  0  0  0  0  0  0  0  0  0  0
    8.9840  -16.3363   22.8356 C   0  0  1  0  0  0  0  0  0  0  0  0
    7.6846  -16.0474   23.5027 C   0  0  0  0  0  0  0  0  0  0  0  0
    7.3518  -14.6077   23.4173 C   0  0  0  0  0  0  0  0  0  0  0  0
    7.3961  -13.8287   22.2519 C   0  0  0  0  0  0  0  0  0  0  0  0
    7.0095  -12.5770   22.5324 N   0  0  0  0  0  0  0  0  0  0  0  0
    6.7069  -12.4789   23.8386 C   0  0  0  0  0  0  0  0  0  0  0  0
    6.2718  -11.4092   24.5983 C   0  0  0  0  0  0  0  0  0  0  0  0
    6.0419  -11.5875   25.9329 C   0  0  0  0  0  0  0  0  0  0  0  0
    6.2483  -12.8181   26.4810 C   0  0  0  0  0  0  0  0  0  0  0  0
    6.6822  -13.9079   25.7509 C   0  0  0  0  0  0  0  0  0  0  0  0
    6.9191  -13.7457   24.3983 C   0  0  0  0  0  0  0  0  0  0  0  0
    9.3642  -17.7739   23.0782 C   0  0  0  0  0  0  0  0  0  0  0  0
    9.1585  -18.6401   22.1759 O   0  0  0  0  0  0  0  0  0  0  0  0
    9.9492  -18.2147   24.2834 N   0  0  0  0  0  0  0  0  0  0  0  0
   11.3828  -18.2625   24.4214 C   0  0  1  0  0  0  0  0  0  0  0  0
   12.0992  -17.2646   23.5739 C   0  0  0  0  0  0  0  0  0  0  0  0
   12.4219  -17.7419   22.2082 C   0  0  0  0  0  0  0  0  0  0  0  0
   12.0540  -18.9510   21.6379 C   0  0  0  0  0  0  0  0  0  0  0  0
   12.5260  -19.0419   20.3824 N   0  0  0  0  0  0  0  0  0  0  0  0
   13.1944  -17.9053   20.1353 C   0  0  0  0  0  0  0  0  0  0  0  0
   13.1316  -17.1199   21.2379 N   0  0  0  0  0  0  0  0  0  0  0  0
   11.7481  -17.9472   25.8443 C   0  0  0  0  0  0  0  0  0  0  0  0
   12.9592  -17.9804   26.1940 O   0  0  0  0  0  0  0  0  0  0  0  0
   12.4890  -14.3191   27.7281 C   0  0  0  0  0  0  0  0  0  0  0  0
   11.1153  -14.9198   27.7212 C   0  0  2  0  0  0  0  0  0  0  0  0
   10.1593  -13.7895   28.1699 C   0  0  0  0  0  0  0  0  0  0  0  0
   10.8926  -16.0408   28.6375 C   0  0  0  0  0  0  0  0  0  0  0  0
   11.1910  -17.4346   28.2555 C   0  0  2  0  0  0  0  0  0  0  0  0
   10.7967  -17.6139   26.8149 N   0  0  0  0  0  0  0  0  0  0  0  0
   10.5919  -18.5388   28.9638 C   0  0  0  0  0  0  0  0  0  0  0  0
   10.8822  -18.9962   30.2374 O   0  0  0  0  0  0  0  0  0  0  0  0
    9.6677  -19.2275   28.3858 O   0  0  0  0  0  0  0  0  0  0  0  0
  2  1  1  6
  2 13  1  0
  2  3  1  0
  4  5  2  0
  4  3  1  0
  6  5  1  0
  7 12  2  0
  7  6  1  0
  8  7  1  0
  9 10  1  0
  9  8  2  0
 10 11  2  0
 11 12  1  0
 12  4  1  0
 13 14  2  0
 15 13  1  0
 15 16  1  0
 16 17  1  6
 18 22  1  0
 18 17  1  0
 19 18  2  0
 20 19  1  0
 20 21  1  0
 21 22  2  0
 23 24  2  0
 23 16  1  0
 26 25  1  1
 26 27  1  0
 26 28  1  0
 29 28  1  1
 29 30  1  0
 30 23  1  0
 31 32  1  0
 31 29  1  0
 33 31  2  0
M  END
$$$$
