WHL.pdb
     RDKit          3D

 33 35  0  0  1  0  0  0  0  0999 V2000
    6.4720  -17.7575   22.0049 N   0  0  0  0  0  0  0  0  0  0  0  0
    7.2455  -16.7520   22.6504 C   0  0  1  0  0  0  0  0  0  0  0  0
    6.5604  -16.0473   23.7689 C   0  0  0  0  0  0  0  0  0  0  0  0
    7.0507  -14.6569   23.9008 C   0  0  0  0  0  0  0  0  0  0  0  0
    7.8020  -13.9632   22.9409 C   0  0  0  0  0  0  0  0  0  0  0  0
    8.0529  -12.7216   23.3773 N   0  0  0  0  0  0  0  0  0  0  0  0
    7.5028  -12.5490   24.5918 C   0  0  0  0  0  0  0  0  0  0  0  0
    7.4910  -11.4605   25.4436 C   0  0  0  0  0  0  0  0  0  0  0  0
    6.8508  -11.5603   26.6460 C   0  0  0  0  0  0  0  0  0  0  0  0
    6.2393  -12.7332   26.9744 C   0  0  0  0  0  0  0  0  0  0  0  0
    6.2318  -13.8396   26.1469 C   0  0  0  0  0  0  0  0  0  0  0  0
    6.8744  -13.7561   24.9254 C   0  0  0  0  0  0  0  0  0  0  0  0
    8.5182  -17.3793   23.1570 C   0  0  0  0  0  0  0  0  0  0  0  0
    8.4620  -18.3197   24.0052 O   0  0  0  0  0  0  0  0  0  0  0  0
    9.7960  -16.9649   22.7274 N   0  0  0  0  0  0  0  0  0  0  0  0
   10.9815  -17.5430   23.3077 C   0  0  1  0  0  0  0  0  0  0  0  0
   12.1936  -17.4136   22.4465 C   0  0  0  0  0  0  0  0  0  0  0  0
   12.1376  -18.1985   21.1904 C   0  0  0  0  0  0  0  0  0  0  0  0
   11.8412  -17.7237   19.9219 C   0  0  0  0  0  0  0  0  0  0  0  0
   11.8823  -18.7233   19.0239 N   0  0  0  0  0  0  0  0  0  0  0  0
   12.2019  -19.8382   19.6979 C   0  0  0  0  0  0  0  0  0  0  0  0
   12.3562  -19.5216   21.0065 N   0  0  0  0  0  0  0  0  0  0  0  0
   11.2973  -16.8275   24.5906 C   0  0  0  0  0  0  0  0  0  0  0  0
   11.6955  -15.6317   24.5503 O   0  0  0  0  0  0  0  0  0  0  0  0
    9.9135  -15.2263   29.5966 C   0  0  0  0  0  0  0  0  0  0  0  0
   10.2097  -14.6360   28.2506 C   0  0  2  0  0  0  0  0  0  0  0  0
    9.0119  -13.7139   27.9225 C   0  0  0  0  0  0  0  0  0  0  0  0
   10.3232  -15.5820   27.1379 C   0  0  0  0  0  0  0  0  0  0  0  0
   11.3549  -16.6367   27.1100 C   0  0  2  0  0  0  0  0  0  0  0  0
   11.1695  -17.4316   25.8465 N   0  0  0  0  0  0  0  0  0  0  0  0
   11.4466  -17.6083   28.1717 C   0  0  0  0  0  0  0  0  0  0  0  0
   10.7334  -18.7854   28.3176 O   0  0  0  0  0  0  0  0  0  0  0  0
   12.2764  -17.4058   29.1375 O   0  0  0  0  0  0  0  0  0  0  0  0
  2  1  1  1
  2 13  1  0
  2  3  1  0
  4  5  2  0
  4  3  1  0
  6  5  1  0
  7 12  2  0
  7  6  1  0
  8  7  1  0
  9 10  1  0
  9  8  2  0
 10 11  2  0
 11 12  1  0
 12  4  1  0
 13 14  2  0
 15 13  1  0
 15 16  1  0
 16 17  1  6
 18 22  1  0
 18 17  1  0
 19 18  2  0
 20 19  1  0
 20 21  1  0
 21 22  2  0
 23 24  2  0
 23 16  1  0
 26 25  1  1
 26 27  1  0
 26 28  1  0
 29 28  1  1
 29 30  1  0
 30 23  1  0
 31 32  1  0
 31 29  1  0
 33 31  2  0
M  END
$$$$
