WHL.pdb
     RDKit          3D

 33 35  0  0  1  0  0  0  0  0999 V2000
    6.7281  -17.3451   24.1316 N   0  0  0  0  0  0  0  0  0  0  0  0
    7.8657  -16.5365   23.8523 C   0  0  1  0  0  0  0  0  0  0  0  0
    7.9689  -15.2891   24.6587 C   0  0  0  0  0  0  0  0  0  0  0  0
    7.0919  -14.2290   24.1126 C   0  0  0  0  0  0  0  0  0  0  0  0
    6.0455  -13.6008   24.8035 C   0  0  0  0  0  0  0  0  0  0  0  0
    5.4793  -12.6752   24.0176 N   0  0  0  0  0  0  0  0  0  0  0  0
    6.0996  -12.6533   22.8251 C   0  0  0  0  0  0  0  0  0  0  0  0
    5.8817  -11.8874   21.6953 C   0  0  0  0  0  0  0  0  0  0  0  0
    6.6700  -12.0787   20.5964 C   0  0  0  0  0  0  0  0  0  0  0  0
    7.6526  -13.0220   20.6434 C   0  0  0  0  0  0  0  0  0  0  0  0
    7.8974  -13.8041   21.7559 C   0  0  0  0  0  0  0  0  0  0  0  0
    7.1094  -13.6232   22.8776 C   0  0  0  0  0  0  0  0  0  0  0  0
    9.1053  -17.3688   24.0544 C   0  0  0  0  0  0  0  0  0  0  0  0
    9.0913  -18.3272   24.8839 O   0  0  0  0  0  0  0  0  0  0  0  0
   10.3058  -17.1310   23.3537 N   0  0  0  0  0  0  0  0  0  0  0  0
   11.5455  -17.6976   23.8212 C   0  0  1  0  0  0  0  0  0  0  0  0
   12.7170  -17.3703   22.9564 C   0  0  0  0  0  0  0  0  0  0  0  0
   12.6167  -17.8863   21.5704 C   0  0  0  0  0  0  0  0  0  0  0  0
   11.8209  -18.9303   21.1240 C   0  0  0  0  0  0  0  0  0  0  0  0
   11.9904  -19.1199   19.8039 N   0  0  0  0  0  0  0  0  0  0  0  0
   12.8866  -18.2103   19.3927 C   0  0  0  0  0  0  0  0  0  0  0  0
   13.2650  -17.4650   20.4595 N   0  0  0  0  0  0  0  0  0  0  0  0
   11.8564  -17.1396   25.1812 C   0  0  0  0  0  0  0  0  0  0  0  0
   12.3414  -15.9796   25.2780 O   0  0  0  0  0  0  0  0  0  0  0  0
    8.5916  -14.6892   28.5220 C   0  0  0  0  0  0  0  0  0  0  0  0
    9.8913  -15.4126   28.7105 C   0  0  2  0  0  0  0  0  0  0  0  0
   10.9478  -14.3160   28.9826 C   0  0  0  0  0  0  0  0  0  0  0  0
   10.3775  -16.1830   27.5634 C   0  0  0  0  0  0  0  0  0  0  0  0
   11.4907  -17.1444   27.6819 C   0  0  2  0  0  0  0  0  0  0  0  0
   11.6311  -17.8543   26.3632 N   0  0  0  0  0  0  0  0  0  0  0  0
   11.4666  -18.1825   28.6826 C   0  0  0  0  0  0  0  0  0  0  0  0
   12.0973  -18.1976   29.9145 O   0  0  0  0  0  0  0  0  0  0  0  0
   10.7936  -19.2584   28.4544 O   0  0  0  0  0  0  0  0  0  0  0  0
  2  1  1  1
  2 13  1  0
  2  3  1  0
  4  5  2  0
  4  3  1  0
  6  5  1  0
  7 12  2  0
  7  6  1  0
  8  7  1  0
  9 10  1  0
  9  8  2  0
 10 11  2  0
 11 12  1  0
 12  4  1  0
 13 14  2  0
 15 13  1  0
 15 16  1  0
 16 17  1  6
 18 22  1  0
 18 17  1  0
 19 18  2  0
 20 19  1  0
 20 21  1  0
 21 22  2  0
 23 24  2  0
 23 16  1  0
 26 25  1  6
 26 27  1  0
 26 28  1  0
 29 28  1  6
 29 30  1  0
 30 23  1  0
 31 32  1  0
 31 29  1  0
 33 31  2  0
M  END
$$$$
