WHL.pdb
     RDKit          3D

 33 35  0  0  1  0  0  0  0  0999 V2000
    7.1931  -18.7612   21.4762 N   0  0  0  0  0  0  0  0  0  0  0  0
    7.7106  -17.4601   21.7321 C   0  0  1  0  0  0  0  0  0  0  0  0
    6.6996  -16.4460   22.1400 C   0  0  0  0  0  0  0  0  0  0  0  0
    6.5321  -15.4119   21.0943 C   0  0  0  0  0  0  0  0  0  0  0  0
    5.6097  -15.4619   20.0391 C   0  0  0  0  0  0  0  0  0  0  0  0
    5.7141  -14.3511   19.2973 N   0  0  0  0  0  0  0  0  0  0  0  0
    6.6689  -13.5542   19.8078 C   0  0  0  0  0  0  0  0  0  0  0  0
    7.1443  -12.3215   19.4015 C   0  0  0  0  0  0  0  0  0  0  0  0
    8.1461  -11.7245   20.1127 C   0  0  0  0  0  0  0  0  0  0  0  0
    8.6513  -12.3618   21.2063 C   0  0  0  0  0  0  0  0  0  0  0  0
    8.1993  -13.5935   21.6397 C   0  0  0  0  0  0  0  0  0  0  0  0
    7.1850  -14.2120   20.9321 C   0  0  0  0  0  0  0  0  0  0  0  0
    8.7710  -17.5682   22.7969 C   0  0  0  0  0  0  0  0  0  0  0  0
    8.5930  -18.3405   23.7862 O   0  0  0  0  0  0  0  0  0  0  0  0
    9.9769  -16.8385   22.7488 N   0  0  0  0  0  0  0  0  0  0  0  0
   11.0104  -17.0760   23.7245 C   0  0  1  0  0  0  0  0  0  0  0  0
   12.3628  -16.6216   23.2864 C   0  0  0  0  0  0  0  0  0  0  0  0
   12.9017  -17.3493   22.1129 C   0  0  0  0  0  0  0  0  0  0  0  0
   12.3297  -18.4366   21.4702 C   0  0  0  0  0  0  0  0  0  0  0  0
   13.1016  -18.8363   20.4446 N   0  0  0  0  0  0  0  0  0  0  0  0
   14.1655  -18.0196   20.4176 C   0  0  0  0  0  0  0  0  0  0  0  0
   14.0450  -17.1213   21.4251 N   0  0  0  0  0  0  0  0  0  0  0  0
   10.6905  -16.3048   24.9737 C   0  0  0  0  0  0  0  0  0  0  0  0
   11.3902  -15.3006   25.2772 O   0  0  0  0  0  0  0  0  0  0  0  0
    8.4733  -12.8666   26.6929 C   0  0  0  0  0  0  0  0  0  0  0  0
    7.8333  -14.1669   26.3084 C   0  0  2  0  0  0  0  0  0  0  0  0
    6.3079  -13.9330   26.4152 C   0  0  0  0  0  0  0  0  0  0  0  0
    8.1382  -15.3177   27.1619 C   0  0  0  0  0  0  0  0  0  0  0  0
    9.4640  -15.9657   27.1572 C   0  0  2  0  0  0  0  0  0  0  0  0
    9.6390  -16.6512   25.8297 N   0  0  0  0  0  0  0  0  0  0  0  0
    9.8080  -16.9507   28.1528 C   0  0  0  0  0  0  0  0  0  0  0  0
   10.1685  -16.7427   29.4727 O   0  0  0  0  0  0  0  0  0  0  0  0
    9.8020  -18.1987   27.8289 O   0  0  0  0  0  0  0  0  0  0  0  0
  2  1  1  1
  2 13  1  0
  2  3  1  0
  4  5  2  0
  4  3  1  0
  6  5  1  0
  7 12  2  0
  7  6  1  0
  8  7  1  0
  9 10  1  0
  9  8  2  0
 10 11  2  0
 11 12  1  0
 12  4  1  0
 13 14  2  0
 15 13  1  0
 15 16  1  0
 16 17  1  6
 18 22  1  0
 18 17  1  0
 19 18  2  0
 20 19  1  0
 20 21  1  0
 21 22  2  0
 23 24  2  0
 23 16  1  0
 26 25  1  1
 26 27  1  0
 26 28  1  0
 29 28  1  1
 29 30  1  0
 30 23  1  0
 31 32  1  0
 31 29  1  0
 33 31  2  0
M  END
$$$$
