APP.pdb
     RDKit          3D

 20 21  0  0  1  0  0  0  0  0999 V2000
    7.0490  -16.1720   22.1357 C   0  0  0  0  0  0  0  0  0  0  0  0
    7.4067  -14.7007   22.1504 C   0  0  2  0  0  0  0  0  0  0  0  0
    8.1287  -14.3047   20.9892 N   0  0  0  0  0  0  0  0  0  0  0  0
    8.0063  -14.2606   23.3998 C   0  0  0  0  0  0  0  0  0  0  0  0
    9.2988  -14.3369   23.3913 O   0  0  0  0  0  0  0  0  0  0  0  0
    7.3728  -13.7818   24.5686 N   0  0  0  0  0  0  0  0  0  0  0  0
    5.9713  -13.5432   24.8086 C   0  0  0  0  0  0  0  0  0  0  0  0
    5.9722  -12.5875   26.0185 C   0  0  0  0  0  0  0  0  0  0  0  0
    7.0533  -13.2379   26.8502 C   0  0  0  0  0  0  0  0  0  0  0  0
    8.1359  -13.4372   25.7805 C   0  0  1  0  0  0  0  0  0  0  0  0
    8.8747  -14.6569   26.1923 C   0  0  0  0  0  0  0  0  0  0  0  0
    8.9406  -15.6027   25.3476 O   0  0  0  0  0  0  0  0  0  0  0  0
    9.4945  -14.8161   27.4459 N   0  0  0  0  0  0  0  0  0  0  0  0
    9.1702  -14.0270   28.6101 C   0  0  0  0  0  0  0  0  0  0  0  0
   10.5783  -13.5717   29.0147 C   0  0  0  0  0  0  0  0  0  0  0  0
   11.3514  -14.8614   28.8399 C   0  0  0  0  0  0  0  0  0  0  0  0
   10.5265  -15.7217   27.8724 C   0  0  1  0  0  0  0  0  0  0  0  0
    9.9489  -16.8186   28.7314 C   0  0  0  0  0  0  0  0  0  0  0  0
    8.5929  -16.7528   29.0285 O   0  0  0  0  0  0  0  0  0  0  0  0
   10.6170  -17.7613   29.1779 O   0  0  0  0  0  0  0  0  0  0  0  0
  2  1  1  1
  2  4  1  0
  3  2  1  0
  4  5  2  0
  6 10  1  0
  6  4  1  0
  7  6  1  0
  8  9  1  0
  8  7  1  0
  9 10  1  0
 10 11  1  1
 11 13  1  0
 11 12  2  0
 13 17  1  0
 14 13  1  0
 14 15  1  0
 15 16  1  0
 17 16  1  0
 18 19  1  0
 17 18  1  1
 20 18  2  0
M  END
$$$$
