APP.pdb
     RDKit          3D

 20 21  0  0  1  0  0  0  0  0999 V2000
   11.0361  -18.0711   22.0753 C   0  0  0  0  0  0  0  0  0  0  0  0
   10.7350  -16.8618   21.2152 C   0  0  2  0  0  0  0  0  0  0  0  0
   11.8834  -16.3899   20.5189 N   0  0  0  0  0  0  0  0  0  0  0  0
    9.9959  -15.8218   21.9127 C   0  0  0  0  0  0  0  0  0  0  0  0
   10.7630  -15.0268   22.5879 O   0  0  0  0  0  0  0  0  0  0  0  0
    8.6025  -15.5881   21.9389 N   0  0  0  0  0  0  0  0  0  0  0  0
    7.5513  -16.2898   21.2454 C   0  0  0  0  0  0  0  0  0  0  0  0
    6.3762  -15.2921   21.2714 C   0  0  0  0  0  0  0  0  0  0  0  0
    6.5042  -14.7917   22.6915 C   0  0  0  0  0  0  0  0  0  0  0  0
    8.0112  -14.5052   22.7436 C   0  0  1  0  0  0  0  0  0  0  0  0
    8.4076  -14.7435   24.1540 C   0  0  0  0  0  0  0  0  0  0  0  0
    9.3779  -15.5379   24.3529 O   0  0  0  0  0  0  0  0  0  0  0  0
    7.7763  -14.1456   25.2607 N   0  0  0  0  0  0  0  0  0  0  0  0
    6.5684  -13.3606   25.1712 C   0  0  0  0  0  0  0  0  0  0  0  0
    7.0181  -12.1060   25.9313 C   0  0  0  0  0  0  0  0  0  0  0  0
    7.7426  -12.7326   27.1035 C   0  0  0  0  0  0  0  0  0  0  0  0
    8.1283  -14.1491   26.6548 C   0  0  1  0  0  0  0  0  0  0  0  0
    7.2117  -15.0607   27.4316 C   0  0  0  0  0  0  0  0  0  0  0  0
    6.0447  -15.4813   26.8051 O   0  0  0  0  0  0  0  0  0  0  0  0
    7.4471  -15.4462   28.5851 O   0  0  0  0  0  0  0  0  0  0  0  0
  2  1  1  1
  2  4  1  0
  3  2  1  0
  4  5  2  0
  6 10  1  0
  6  4  1  0
  7  6  1  0
  8  9  1  0
  8  7  1  0
  9 10  1  0
 10 11  1  1
 11 13  1  0
 11 12  2  0
 13 17  1  0
 14 13  1  0
 14 15  1  0
 15 16  1  0
 17 16  1  0
 18 19  1  0
 17 18  1  1
 20 18  2  0
M  END
$$$$
