APP.pdb
     RDKit          3D

 20 21  0  0  1  0  0  0  0  0999 V2000
    7.0139  -15.9305   22.0051 C   0  0  0  0  0  0  0  0  0  0  0  0
    7.4021  -14.4695   22.0917 C   0  0  2  0  0  0  0  0  0  0  0  0
    8.1423  -14.0349   20.9561 N   0  0  0  0  0  0  0  0  0  0  0  0
    7.9998  -14.1013   23.3652 C   0  0  0  0  0  0  0  0  0  0  0  0
    9.2839  -14.2656   23.3838 O   0  0  0  0  0  0  0  0  0  0  0  0
    7.3721  -13.6082   24.5311 N   0  0  0  0  0  0  0  0  0  0  0  0
    5.9838  -13.2851   24.7472 C   0  0  0  0  0  0  0  0  0  0  0  0
    6.0186  -12.3581   25.9787 C   0  0  0  0  0  0  0  0  0  0  0  0
    7.0369  -13.0948   26.8176 C   0  0  0  0  0  0  0  0  0  0  0  0
    8.1283  -13.3401   25.7666 C   0  0  1  0  0  0  0  0  0  0  0  0
    8.7781  -14.6136   26.1653 C   0  0  0  0  0  0  0  0  0  0  0  0
    8.6885  -15.5848   25.3523 O   0  0  0  0  0  0  0  0  0  0  0  0
    9.4755  -14.7966   27.3740 N   0  0  0  0  0  0  0  0  0  0  0  0
    9.2665  -13.9917   28.5537 C   0  0  0  0  0  0  0  0  0  0  0  0
   10.7174  -13.5967   28.8580 C   0  0  0  0  0  0  0  0  0  0  0  0
   11.4205  -14.9189   28.6372 C   0  0  0  0  0  0  0  0  0  0  0  0
   10.4947  -15.7450   27.7332 C   0  0  1  0  0  0  0  0  0  0  0  0
    9.9311  -16.8139   28.6357 C   0  0  0  0  0  0  0  0  0  0  0  0
   10.7267  -17.9253   28.8872 O   0  0  0  0  0  0  0  0  0  0  0  0
    8.8086  -16.7484   29.1555 O   0  0  0  0  0  0  0  0  0  0  0  0
  2  1  1  1
  2  4  1  0
  3  2  1  0
  4  5  2  0
  6 10  1  0
  6  4  1  0
  7  6  1  0
  8  9  1  0
  8  7  1  0
  9 10  1  0
 10 11  1  1
 11 13  1  0
 11 12  2  0
 13 17  1  0
 14 13  1  0
 14 15  1  0
 15 16  1  0
 17 16  1  0
 18 19  1  0
 17 18  1  1
 20 18  2  0
M  END
$$$$
