APP.pdb
     RDKit          3D

 20 21  0  0  1  0  0  0  0  0999 V2000
   11.8342  -16.1544   19.6146 C   0  0  0  0  0  0  0  0  0  0  0  0
   11.5863  -14.6638   19.5173 C   0  0  2  0  0  0  0  0  0  0  0  0
   12.7945  -13.9155   19.4362 N   0  0  0  0  0  0  0  0  0  0  0  0
   10.6455  -14.1650   20.5075 C   0  0  0  0  0  0  0  0  0  0  0  0
   11.2020  -13.9195   21.6505 O   0  0  0  0  0  0  0  0  0  0  0  0
    9.2588  -13.9281   20.3747 N   0  0  0  0  0  0  0  0  0  0  0  0
    8.4105  -14.1240   19.2257 C   0  0  0  0  0  0  0  0  0  0  0  0
    7.1820  -13.2443   19.5326 C   0  0  0  0  0  0  0  0  0  0  0  0
    7.0042  -13.5656   20.9984 C   0  0  0  0  0  0  0  0  0  0  0  0
    8.4497  -13.4048   21.4889 C   0  0  1  0  0  0  0  0  0  0  0  0
    8.5903  -14.3599   22.6162 C   0  0  0  0  0  0  0  0  0  0  0  0
    9.3975  -15.3266   22.4546 O   0  0  0  0  0  0  0  0  0  0  0  0
    7.8892  -14.2515   23.8319 N   0  0  0  0  0  0  0  0  0  0  0  0
    6.9662  -13.1843   24.1362 C   0  0  0  0  0  0  0  0  0  0  0  0
    7.5245  -12.7385   25.4940 C   0  0  0  0  0  0  0  0  0  0  0  0
    7.7828  -14.0802   26.1455 C   0  0  0  0  0  0  0  0  0  0  0  0
    7.8997  -15.0929   24.9977 C   0  0  1  0  0  0  0  0  0  0  0  0
    6.6334  -15.9085   25.0753 C   0  0  0  0  0  0  0  0  0  0  0  0
    6.2920  -16.6690   23.9633 O   0  0  0  0  0  0  0  0  0  0  0  0
    5.8946  -15.9318   26.0693 O   0  0  0  0  0  0  0  0  0  0  0  0
  2  1  1  1
  2  4  1  0
  3  2  1  0
  4  5  2  0
  6 10  1  0
  6  4  1  0
  7  6  1  0
  8  9  1  0
  8  7  1  0
  9 10  1  0
 10 11  1  1
 11 13  1  0
 11 12  2  0
 13 17  1  0
 14 13  1  0
 14 15  1  0
 15 16  1  0
 17 16  1  0
 18 19  1  0
 17 18  1  6
 20 18  2  0
M  END
$$$$
