APP.pdb
     RDKit          3D

 20 21  0  0  1  0  0  0  0  0999 V2000
    7.8546  -16.8036   21.9716 C   0  0  0  0  0  0  0  0  0  0  0  0
    7.9499  -15.2924   21.9897 C   0  0  2  0  0  0  0  0  0  0  0  0
    8.6145  -14.7755   20.8419 N   0  0  0  0  0  0  0  0  0  0  0  0
    8.4387  -14.7558   23.2496 C   0  0  0  0  0  0  0  0  0  0  0  0
    9.7315  -14.7301   23.3171 O   0  0  0  0  0  0  0  0  0  0  0  0
    7.7020  -14.2812   24.3580 N   0  0  0  0  0  0  0  0  0  0  0  0
    6.2733  -14.1819   24.5231 C   0  0  0  0  0  0  0  0  0  0  0  0
    6.1145  -13.1631   25.6694 C   0  0  0  0  0  0  0  0  0  0  0  0
    7.2162  -13.6435   26.5854 C   0  0  0  0  0  0  0  0  0  0  0  0
    8.3646  -13.7864   25.5771 C   0  0  1  0  0  0  0  0  0  0  0  0
    9.2068  -14.8932   26.0956 C   0  0  0  0  0  0  0  0  0  0  0  0
    9.5108  -15.8166   25.2789 O   0  0  0  0  0  0  0  0  0  0  0  0
    9.6772  -14.9704   27.4199 N   0  0  0  0  0  0  0  0  0  0  0  0
    9.1265  -14.2087   28.5153 C   0  0  0  0  0  0  0  0  0  0  0  0
   10.4158  -13.5984   29.0802 C   0  0  0  0  0  0  0  0  0  0  0  0
   11.3379  -14.7981   29.0342 C   0  0  0  0  0  0  0  0  0  0  0  0
   10.7380  -15.7535   27.9932 C   0  0  1  0  0  0  0  0  0  0  0  0
   10.1770  -16.8974   28.8004 C   0  0  0  0  0  0  0  0  0  0  0  0
    8.7991  -16.9436   28.9746 O   0  0  0  0  0  0  0  0  0  0  0  0
   10.8771  -17.7845   29.3079 O   0  0  0  0  0  0  0  0  0  0  0  0
  2  1  1  1
  2  4  1  0
  3  2  1  0
  4  5  2  0
  6 10  1  0
  6  4  1  0
  7  6  1  0
  8  9  1  0
  8  7  1  0
  9 10  1  0
 10 11  1  1
 11 13  1  0
 11 12  2  0
 13 17  1  0
 14 13  1  0
 14 15  1  0
 15 16  1  0
 17 16  1  0
 18 19  1  0
 17 18  1  1
 20 18  2  0
M  END
$$$$
