APP.pdb
     RDKit          3D

 20 21  0  0  1  0  0  0  0  0999 V2000
    7.0841  -16.1629   22.0627 C   0  0  0  0  0  0  0  0  0  0  0  0
    7.3861  -14.6796   22.1033 C   0  0  2  0  0  0  0  0  0  0  0  0
    8.0701  -14.2316   20.9381 N   0  0  0  0  0  0  0  0  0  0  0  0
    7.9924  -14.2438   23.3509 C   0  0  0  0  0  0  0  0  0  0  0  0
    9.2856  -14.3039   23.3292 O   0  0  0  0  0  0  0  0  0  0  0  0
    7.3645  -13.7837   24.5302 N   0  0  0  0  0  0  0  0  0  0  0  0
    5.9636  -13.5551   24.7828 C   0  0  0  0  0  0  0  0  0  0  0  0
    5.9682  -12.6159   26.0054 C   0  0  0  0  0  0  0  0  0  0  0  0
    7.0578  -13.2722   26.8211 C   0  0  0  0  0  0  0  0  0  0  0  0
    8.1341  -13.4519   25.7417 C   0  0  1  0  0  0  0  0  0  0  0  0
    8.8813  -14.6736   26.1319 C   0  0  0  0  0  0  0  0  0  0  0  0
    8.9506  -15.6054   25.2722 O   0  0  0  0  0  0  0  0  0  0  0  0
    9.5056  -14.8490   27.3811 N   0  0  0  0  0  0  0  0  0  0  0  0
    9.1591  -14.1012   28.5661 C   0  0  0  0  0  0  0  0  0  0  0  0
   10.5538  -13.6170   28.9837 C   0  0  0  0  0  0  0  0  0  0  0  0
   11.3633  -14.8790   28.7745 C   0  0  0  0  0  0  0  0  0  0  0  0
   10.5632  -15.7360   27.7836 C   0  0  1  0  0  0  0  0  0  0  0  0
   10.0172  -16.8717   28.6123 C   0  0  0  0  0  0  0  0  0  0  0  0
    8.6771  -16.8133   28.9756 O   0  0  0  0  0  0  0  0  0  0  0  0
   10.6976  -17.8399   28.9786 O   0  0  0  0  0  0  0  0  0  0  0  0
  2  1  1  1
  2  4  1  0
  3  2  1  0
  4  5  2  0
  6 10  1  0
  6  4  1  0
  7  6  1  0
  8  9  1  0
  8  7  1  0
  9 10  1  0
 10 11  1  1
 11 13  1  0
 11 12  2  0
 13 17  1  0
 14 13  1  0
 14 15  1  0
 15 16  1  0
 17 16  1  0
 18 19  1  0
 17 18  1  1
 20 18  2  0
M  END
$$$$
