APP.pdb
     RDKit          3D

 20 21  0  0  1  0  0  0  0  0999 V2000
    7.1883  -16.2101   22.0585 C   0  0  0  0  0  0  0  0  0  0  0  0
    7.4697  -14.7245   22.1391 C   0  0  2  0  0  0  0  0  0  0  0  0
    8.1652  -14.2397   20.9956 N   0  0  0  0  0  0  0  0  0  0  0  0
    8.0512  -14.3108   23.4061 C   0  0  0  0  0  0  0  0  0  0  0  0
    9.3380  -14.4503   23.4378 O   0  0  0  0  0  0  0  0  0  0  0  0
    7.4060  -13.7983   24.5539 N   0  0  0  0  0  0  0  0  0  0  0  0
    6.0101  -13.4968   24.7521 C   0  0  0  0  0  0  0  0  0  0  0  0
    6.0184  -12.5357   25.9577 C   0  0  0  0  0  0  0  0  0  0  0  0
    7.0451  -13.2287   26.8231 C   0  0  0  0  0  0  0  0  0  0  0  0
    8.1483  -13.4812   25.7862 C   0  0  1  0  0  0  0  0  0  0  0  0
    8.8202  -14.7301   26.2241 C   0  0  0  0  0  0  0  0  0  0  0  0
    8.7819  -15.7155   25.4242 O   0  0  0  0  0  0  0  0  0  0  0  0
    9.4852  -14.8758   27.4560 N   0  0  0  0  0  0  0  0  0  0  0  0
    9.2417  -14.0383   28.6061 C   0  0  0  0  0  0  0  0  0  0  0  0
   10.6826  -13.6289   28.9380 C   0  0  0  0  0  0  0  0  0  0  0  0
   11.3957  -14.9541   28.7740 C   0  0  0  0  0  0  0  0  0  0  0  0
   10.4975  -15.8094   27.8695 C   0  0  1  0  0  0  0  0  0  0  0  0
    9.9132  -16.8544   28.7867 C   0  0  0  0  0  0  0  0  0  0  0  0
   10.7019  -17.9594   29.0839 O   0  0  0  0  0  0  0  0  0  0  0  0
    8.7797  -16.7748   29.2801 O   0  0  0  0  0  0  0  0  0  0  0  0
  2  1  1  1
  2  4  1  0
  3  2  1  0
  4  5  2  0
  6 10  1  0
  6  4  1  0
  7  6  1  0
  8  9  1  0
  8  7  1  0
  9 10  1  0
 10 11  1  1
 11 13  1  0
 11 12  2  0
 13 17  1  0
 14 13  1  0
 14 15  1  0
 15 16  1  0
 17 16  1  0
 18 19  1  0
 17 18  1  1
 20 18  2  0
M  END
$$$$
