APP.pdb
     RDKit          3D

 20 21  0  0  1  0  0  0  0  0999 V2000
    8.2783  -19.1629   24.0677 C   0  0  0  0  0  0  0  0  0  0  0  0
    6.9204  -18.5062   24.2019 C   0  0  2  0  0  0  0  0  0  0  0  0
    5.8545  -19.3862   23.8617 N   0  0  0  0  0  0  0  0  0  0  0  0
    6.8395  -17.2025   23.5630 C   0  0  0  0  0  0  0  0  0  0  0  0
    6.2789  -17.2482   22.3968 O   0  0  0  0  0  0  0  0  0  0  0  0
    7.2810  -15.9492   24.0436 N   0  0  0  0  0  0  0  0  0  0  0  0
    7.7241  -15.5895   25.3675 C   0  0  0  0  0  0  0  0  0  0  0  0
    7.5815  -14.0545   25.3889 C   0  0  0  0  0  0  0  0  0  0  0  0
    8.1161  -13.7343   24.0123 C   0  0  0  0  0  0  0  0  0  0  0  0
    7.3416  -14.7612   23.1747 C   0  0  1  0  0  0  0  0  0  0  0  0
    8.2366  -15.0966   22.0391 C   0  0  0  0  0  0  0  0  0  0  0  0
    8.6692  -16.2889   21.9796 O   0  0  0  0  0  0  0  0  0  0  0  0
    8.6226  -14.1794   21.0437 N   0  0  0  0  0  0  0  0  0  0  0  0
    8.3274  -12.7674   21.0921 C   0  0  0  0  0  0  0  0  0  0  0  0
    7.7015  -12.5859   19.7031 C   0  0  0  0  0  0  0  0  0  0  0  0
    8.6567  -13.3996   18.8564 C   0  0  0  0  0  0  0  0  0  0  0  0
    9.3471  -14.3774   19.8176 C   0  0  1  0  0  0  0  0  0  0  0  0
   10.7576  -13.8589   19.9447 C   0  0  0  0  0  0  0  0  0  0  0  0
   11.0662  -13.1114   21.0749 O   0  0  0  0  0  0  0  0  0  0  0  0
   11.6409  -14.0653   19.1011 O   0  0  0  0  0  0  0  0  0  0  0  0
  2  1  1  6
  2  4  1  0
  3  2  1  0
  4  5  2  0
  6 10  1  0
  6  4  1  0
  7  6  1  0
  8  9  1  0
  8  7  1  0
  9 10  1  0
 10 11  1  6
 11 13  1  0
 11 12  2  0
 13 17  1  0
 14 13  1  0
 14 15  1  0
 15 16  1  0
 17 16  1  0
 18 19  1  0
 17 18  1  1
 20 18  2  0
M  END
$$$$
