APP.pdb
     RDKit          3D

 20 21  0  0  1  0  0  0  0  0999 V2000
    7.0444  -16.1386   22.1087 C   0  0  0  0  0  0  0  0  0  0  0  0
    7.5082  -14.6974   22.1350 C   0  0  2  0  0  0  0  0  0  0  0  0
    8.3420  -14.3738   21.0276 N   0  0  0  0  0  0  0  0  0  0  0  0
    8.0441  -14.2826   23.4215 C   0  0  0  0  0  0  0  0  0  0  0  0
    9.3295  -14.4182   23.4979 O   0  0  0  0  0  0  0  0  0  0  0  0
    7.3579  -13.7725   24.5465 N   0  0  0  0  0  0  0  0  0  0  0  0
    5.9589  -13.4550   24.6893 C   0  0  0  0  0  0  0  0  0  0  0  0
    5.9287  -12.5054   25.9036 C   0  0  0  0  0  0  0  0  0  0  0  0
    6.9096  -13.2196   26.8042 C   0  0  0  0  0  0  0  0  0  0  0  0
    8.0520  -13.4766   25.8117 C   0  0  1  0  0  0  0  0  0  0  0  0
    8.6893  -14.7381   26.2649 C   0  0  0  0  0  0  0  0  0  0  0  0
    8.5624  -15.7509   25.5098 O   0  0  0  0  0  0  0  0  0  0  0  0
    9.4135  -14.8672   27.4649 N   0  0  0  0  0  0  0  0  0  0  0  0
    9.2069  -14.0317   28.6235 C   0  0  0  0  0  0  0  0  0  0  0  0
   10.6531  -13.5927   28.8875 C   0  0  0  0  0  0  0  0  0  0  0  0
   11.3843  -14.9038   28.6929 C   0  0  0  0  0  0  0  0  0  0  0  0
   10.4624  -15.7793   27.8326 C   0  0  1  0  0  0  0  0  0  0  0  0
    9.9424  -16.8333   28.7777 C   0  0  0  0  0  0  0  0  0  0  0  0
    8.6177  -16.7313   29.1852 O   0  0  0  0  0  0  0  0  0  0  0  0
   10.6309  -17.7720   29.2013 O   0  0  0  0  0  0  0  0  0  0  0  0
  2  1  1  1
  2  4  1  0
  3  2  1  0
  4  5  2  0
  6 10  1  0
  6  4  1  0
  7  6  1  0
  8  9  1  0
  8  7  1  0
  9 10  1  0
 10 11  1  1
 11 13  1  0
 11 12  2  0
 13 17  1  0
 14 13  1  0
 14 15  1  0
 15 16  1  0
 17 16  1  0
 18 19  1  0
 17 18  1  1
 20 18  2  0
M  END
$$$$
