APP.pdb
     RDKit          3D

 20 21  0  0  1  0  0  0  0  0999 V2000
    7.4119  -16.5586   22.1039 C   0  0  0  0  0  0  0  0  0  0  0  0
    7.6237  -15.0593   22.1190 C   0  0  2  0  0  0  0  0  0  0  0  0
    8.3056  -14.5945   20.9592 N   0  0  0  0  0  0  0  0  0  0  0  0
    8.1749  -14.5627   23.3696 C   0  0  0  0  0  0  0  0  0  0  0  0
    9.4690  -14.5947   23.3963 O   0  0  0  0  0  0  0  0  0  0  0  0
    7.4949  -14.0720   24.5069 N   0  0  0  0  0  0  0  0  0  0  0  0
    6.0791  -13.8913   24.7102 C   0  0  0  0  0  0  0  0  0  0  0  0
    6.0096  -12.8932   25.8833 C   0  0  0  0  0  0  0  0  0  0  0  0
    7.1017  -13.4610   26.7599 C   0  0  0  0  0  0  0  0  0  0  0  0
    8.2150  -13.6478   25.7199 C   0  0  1  0  0  0  0  0  0  0  0  0
    9.0007  -14.8154   26.1914 C   0  0  0  0  0  0  0  0  0  0  0  0
    9.1508  -15.7760   25.3748 O   0  0  0  0  0  0  0  0  0  0  0  0
    9.5774  -14.9108   27.4718 N   0  0  0  0  0  0  0  0  0  0  0  0
    9.1784  -14.0994   28.5968 C   0  0  0  0  0  0  0  0  0  0  0  0
   10.5514  -13.5762   29.0386 C   0  0  0  0  0  0  0  0  0  0  0  0
   11.3796  -14.8390   28.9349 C   0  0  0  0  0  0  0  0  0  0  0  0
   10.6263  -15.7611   27.9659 C   0  0  1  0  0  0  0  0  0  0  0  0
   10.0586  -16.8527   28.8380 C   0  0  0  0  0  0  0  0  0  0  0  0
    8.6954  -16.8151   29.1058 O   0  0  0  0  0  0  0  0  0  0  0  0
   10.7407  -17.7677   29.3197 O   0  0  0  0  0  0  0  0  0  0  0  0
  2  1  1  1
  2  4  1  0
  3  2  1  0
  4  5  2  0
  6 10  1  0
  6  4  1  0
  7  6  1  0
  8  9  1  0
  8  7  1  0
  9 10  1  0
 10 11  1  1
 11 13  1  0
 11 12  2  0
 13 17  1  0
 14 13  1  0
 14 15  1  0
 15 16  1  0
 17 16  1  0
 18 19  1  0
 17 18  1  1
 20 18  2  0
M  END
$$$$
