APP.pdb
     RDKit          3D

 20 21  0  0  1  0  0  0  0  0999 V2000
    1.6609  -18.6131   21.9889 C   0  0  0  0  0  0  0  0  0  0  0  0
    2.7818  -18.9373   21.0238 C   0  0  2  0  0  0  0  0  0  0  0  0
    2.5849  -20.1807   20.3592 N   0  0  0  0  0  0  0  0  0  0  0  0
    4.1080  -18.7754   21.5975 C   0  0  0  0  0  0  0  0  0  0  0  0
    4.4778  -19.7952   22.3043 O   0  0  0  0  0  0  0  0  0  0  0  0
    4.9994  -17.6853   21.4798 N   0  0  0  0  0  0  0  0  0  0  0  0
    4.8017  -16.4181   20.8214 C   0  0  0  0  0  0  0  0  0  0  0  0
    6.2371  -15.8988   20.6043 C   0  0  0  0  0  0  0  0  0  0  0  0
    6.8425  -16.2721   21.9376 C   0  0  0  0  0  0  0  0  0  0  0  0
    6.3519  -17.7211   22.0623 C   0  0  1  0  0  0  0  0  0  0  0  0
    6.1933  -17.9578   23.5190 C   0  0  0  0  0  0  0  0  0  0  0  0
    5.0904  -17.6084   24.0423 O   0  0  0  0  0  0  0  0  0  0  0  0
    7.1825  -18.5388   24.3344 N   0  0  0  0  0  0  0  0  0  0  0  0
    8.4255  -19.0749   23.8336 C   0  0  0  0  0  0  0  0  0  0  0  0
    8.3923  -20.4615   24.4894 C   0  0  0  0  0  0  0  0  0  0  0  0
    7.9250  -20.1015   25.8835 C   0  0  0  0  0  0  0  0  0  0  0  0
    7.2233  -18.7421   25.7571 C   0  0  1  0  0  0  0  0  0  0  0  0
    8.1670  -17.7613   26.4068 C   0  0  0  0  0  0  0  0  0  0  0  0
    7.9637  -17.4703   27.7504 O   0  0  0  0  0  0  0  0  0  0  0  0
    9.1011  -17.2111   25.8074 O   0  0  0  0  0  0  0  0  0  0  0  0
  2  1  1  1
  2  4  1  0
  3  2  1  0
  4  5  2  0
  6 10  1  0
  6  4  1  0
  7  6  1  0
  8  9  1  0
  8  7  1  0
  9 10  1  0
 10 11  1  1
 11 13  1  0
 11 12  2  0
 13 17  1  0
 14 13  1  0
 14 15  1  0
 15 16  1  0
 17 16  1  0
 18 19  1  0
 17 18  1  1
 20 18  2  0
M  END
$$$$
