APP.pdb
     RDKit          3D

 20 21  0  0  1  0  0  0  0  0999 V2000
    7.4337  -16.6589   22.0857 C   0  0  0  0  0  0  0  0  0  0  0  0
    7.6750  -15.1642   22.0636 C   0  0  2  0  0  0  0  0  0  0  0  0
    8.3718  -14.7428   20.8960 N   0  0  0  0  0  0  0  0  0  0  0  0
    8.2295  -14.6464   23.3040 C   0  0  0  0  0  0  0  0  0  0  0  0
    9.5242  -14.6495   23.3157 O   0  0  0  0  0  0  0  0  0  0  0  0
    7.5520  -14.1627   24.4458 N   0  0  0  0  0  0  0  0  0  0  0  0
    6.1346  -14.0225   24.6688 C   0  0  0  0  0  0  0  0  0  0  0  0
    6.0524  -13.0127   25.8310 C   0  0  0  0  0  0  0  0  0  0  0  0
    7.1743  -13.5364   26.6973 C   0  0  0  0  0  0  0  0  0  0  0  0
    8.2771  -13.7020   25.6426 C   0  0  1  0  0  0  0  0  0  0  0  0
    9.1050  -14.8394   26.1156 C   0  0  0  0  0  0  0  0  0  0  0  0
    9.3491  -15.7616   25.2776 O   0  0  0  0  0  0  0  0  0  0  0  0
    9.6241  -14.9464   27.4195 N   0  0  0  0  0  0  0  0  0  0  0  0
    9.1812  -14.1390   28.5309 C   0  0  0  0  0  0  0  0  0  0  0  0
   10.5368  -13.6276   29.0359 C   0  0  0  0  0  0  0  0  0  0  0  0
   11.3606  -14.8954   28.9608 C   0  0  0  0  0  0  0  0  0  0  0  0
   10.6448  -15.8066   27.9539 C   0  0  1  0  0  0  0  0  0  0  0  0
   10.0321  -16.8995   28.7934 C   0  0  0  0  0  0  0  0  0  0  0  0
   10.8202  -18.0089   29.0754 O   0  0  0  0  0  0  0  0  0  0  0  0
    8.8763  -16.8550   29.2367 O   0  0  0  0  0  0  0  0  0  0  0  0
  2  1  1  1
  2  4  1  0
  3  2  1  0
  4  5  2  0
  6 10  1  0
  6  4  1  0
  7  6  1  0
  8  9  1  0
  8  7  1  0
  9 10  1  0
 10 11  1  1
 11 13  1  0
 11 12  2  0
 13 17  1  0
 14 13  1  0
 14 15  1  0
 15 16  1  0
 17 16  1  0
 18 19  1  0
 17 18  1  1
 20 18  2  0
M  END
$$$$
