APP.pdb
     RDKit          3D

 20 21  0  0  1  0  0  0  0  0999 V2000
   10.7259  -18.3168   22.1926 C   0  0  0  0  0  0  0  0  0  0  0  0
   10.7235  -17.0022   21.4410 C   0  0  2  0  0  0  0  0  0  0  0  0
   12.0159  -16.6478   20.9609 N   0  0  0  0  0  0  0  0  0  0  0  0
   10.0386  -15.9307   22.1461 C   0  0  0  0  0  0  0  0  0  0  0  0
   10.7925  -15.3402   23.0175 O   0  0  0  0  0  0  0  0  0  0  0  0
    8.7078  -15.4793   21.9986 N   0  0  0  0  0  0  0  0  0  0  0  0
    7.7011  -15.9120   21.0616 C   0  0  0  0  0  0  0  0  0  0  0  0
    6.6905  -14.7476   21.0578 C   0  0  0  0  0  0  0  0  0  0  0  0
    6.6453  -14.4507   22.5388 C   0  0  0  0  0  0  0  0  0  0  0  0
    8.1468  -14.4206   22.8556 C   0  0  1  0  0  0  0  0  0  0  0  0
    8.2613  -14.8894   24.2593 C   0  0  0  0  0  0  0  0  0  0  0  0
    8.9970  -15.9027   24.4697 O   0  0  0  0  0  0  0  0  0  0  0  0
    7.6097  -14.2805   25.3481 N   0  0  0  0  0  0  0  0  0  0  0  0
    6.6303  -13.2287   25.2142 C   0  0  0  0  0  0  0  0  0  0  0  0
    7.2171  -12.2025   26.1921 C   0  0  0  0  0  0  0  0  0  0  0  0
    7.5957  -13.1020   27.3492 C   0  0  0  0  0  0  0  0  0  0  0  0
    7.7301  -14.5139   26.7617 C   0  0  1  0  0  0  0  0  0  0  0  0
    6.5275  -15.2616   27.2808 C   0  0  0  0  0  0  0  0  0  0  0  0
    6.6707  -15.9539   28.4772 O   0  0  0  0  0  0  0  0  0  0  0  0
    5.4342  -15.2869   26.6988 O   0  0  0  0  0  0  0  0  0  0  0  0
  2  1  1  1
  2  4  1  0
  3  2  1  0
  4  5  2  0
  6 10  1  0
  6  4  1  0
  7  6  1  0
  8  9  1  0
  8  7  1  0
  9 10  1  0
 10 11  1  1
 11 13  1  0
 11 12  2  0
 13 17  1  0
 14 13  1  0
 14 15  1  0
 15 16  1  0
 17 16  1  0
 18 19  1  0
 17 18  1  1
 20 18  2  0
M  END
$$$$
