APP.pdb
     RDKit          3D

 20 21  0  0  1  0  0  0  0  0999 V2000
   10.3852  -18.4591   22.1411 C   0  0  0  0  0  0  0  0  0  0  0  0
   10.5514  -17.1437   21.4096 C   0  0  2  0  0  0  0  0  0  0  0  0
   11.8817  -16.9447   20.9436 N   0  0  0  0  0  0  0  0  0  0  0  0
    9.9981  -16.0060   22.1264 C   0  0  0  0  0  0  0  0  0  0  0  0
   10.8251  -15.5032   22.9865 O   0  0  0  0  0  0  0  0  0  0  0  0
    8.7221  -15.4122   22.0002 N   0  0  0  0  0  0  0  0  0  0  0  0
    7.6830  -15.6892   21.0400 C   0  0  0  0  0  0  0  0  0  0  0  0
    6.7980  -14.4278   21.0953 C   0  0  0  0  0  0  0  0  0  0  0  0
    6.7729  -14.2051   22.5897 C   0  0  0  0  0  0  0  0  0  0  0  0
    8.2672  -14.3471   22.9105 C   0  0  1  0  0  0  0  0  0  0  0  0
    8.3224  -14.8974   24.2878 C   0  0  0  0  0  0  0  0  0  0  0  0
    8.9403  -15.9955   24.4448 O   0  0  0  0  0  0  0  0  0  0  0  0
    7.7372  -14.2768   25.4074 N   0  0  0  0  0  0  0  0  0  0  0  0
    6.9364  -13.0782   25.3362 C   0  0  0  0  0  0  0  0  0  0  0  0
    7.6420  -12.2315   26.4036 C   0  0  0  0  0  0  0  0  0  0  0  0
    7.8398  -13.2626   27.4941 C   0  0  0  0  0  0  0  0  0  0  0  0
    7.7742  -14.6305   26.8006 C   0  0  1  0  0  0  0  0  0  0  0  0
    6.4546  -15.2179   27.2345 C   0  0  0  0  0  0  0  0  0  0  0  0
    6.4641  -16.0788   28.3253 O   0  0  0  0  0  0  0  0  0  0  0  0
    5.3785  -14.9722   26.6720 O   0  0  0  0  0  0  0  0  0  0  0  0
  2  1  1  1
  2  4  1  0
  3  2  1  0
  4  5  2  0
  6 10  1  0
  6  4  1  0
  7  6  1  0
  8  9  1  0
  8  7  1  0
  9 10  1  0
 10 11  1  1
 11 13  1  0
 11 12  2  0
 13 17  1  0
 14 13  1  0
 14 15  1  0
 15 16  1  0
 17 16  1  0
 18 19  1  0
 17 18  1  1
 20 18  2  0
M  END
$$$$
