TRR.pdb
     RDKit          3D

 30 29  0  0  1  0  0  0  0  0999 V2000
   13.2746  -12.1010  -14.9295 C   0  0  0  0  0  0  0  0  0  0  0  0
   13.9581  -11.0694  -14.0302 C   0  0  1  0  0  0  0  0  0  0  0  0
   13.0514  -10.5624  -13.1213 O   0  0  0  0  0  0  0  0  0  0  0  0
   15.1476  -11.6431  -13.3298 C   0  0  2  0  0  0  0  0  0  0  0  0
   14.7120  -12.6622  -12.3487 N   0  0  0  0  0  0  0  0  0  0  0  0
   15.9227  -10.5964  -12.6542 C   0  0  0  0  0  0  0  0  0  0  0  0
   15.7201  -10.3604  -11.4326 O   0  0  0  0  0  0  0  0  0  0  0  0
   23.6577   -8.3026  -15.1796 N   0  0  0  0  0  0  0  0  0  0  0  0
   22.3278   -8.0022  -15.6156 C   0  0  0  0  0  0  0  0  0  0  0  0
   22.1270   -7.6412  -16.8139 N   0  0  0  0  0  0  0  0  0  0  0  0
   21.2560   -8.1069  -14.7154 N   0  0  0  0  0  0  0  0  0  0  0  0
   21.0523   -7.0744  -13.6507 C   0  0  0  0  0  0  0  0  0  0  0  0
   19.8385   -7.4659  -12.9305 C   0  0  0  0  0  0  0  0  0  0  0  0
   18.8907   -8.4754  -13.3609 C   0  0  0  0  0  0  0  0  0  0  0  0
   17.6907   -8.7990  -12.6134 C   0  0  2  0  0  0  0  0  0  0  0  0
   16.8962   -9.8347  -13.2965 N   0  0  0  0  0  0  0  0  0  0  0  0
   16.8517   -7.7057  -12.1469 C   0  0  0  0  0  0  0  0  0  0  0  0
   15.9262   -7.2222  -12.8164 O   0  0  0  0  0  0  0  0  0  0  0  0
   21.1809   -7.6091  -17.2145 N   0  0  0  0  0  0  0  0  0  0  0  0
   13.2373   -5.3519   -4.5710 C   0  0  0  0  0  0  0  0  0  0  0  0
   12.9371   -4.3031   -5.4981 N   0  0  0  0  0  0  0  0  0  0  0  0
   12.1315   -3.3477   -5.1911 N   0  0  0  0  0  0  0  0  0  0  0  0
   13.5392   -4.3190   -6.7794 C   0  0  0  0  0  0  0  0  0  0  0  0
   14.2354   -5.4922   -7.2537 C   0  0  0  0  0  0  0  0  0  0  0  0
   14.8470   -5.1776   -8.6162 C   0  0  0  0  0  0  0  0  0  0  0  0
   15.6624   -6.3277   -9.1198 C   0  0  1  0  0  0  0  0  0  0  0  0
   16.2717   -5.9918  -10.4576 N   0  0  0  0  0  0  0  0  0  0  0  0
   17.0857   -7.1392  -10.8387 C   0  0  0  0  0  0  0  0  0  0  0  0
   17.0975   -4.7890  -10.3511 O   0  0  0  0  0  0  0  0  0  0  0  0
   18.3463   -4.7394  -10.2841 O   0  0  0  0  0  0  0  0  0  0  0  0
  2  1  1  1
  2  3  1  0
  4  5  1  1
  4  2  1  0
  6  7  2  0
  6  4  1  0
  9  8  1  0
 10  9  2  0
 11  9  1  0
 12 11  1  0
 13 12  1  0
 13 14  1  0
 15 14  1  6
 15 17  1  0
 15 16  1  0
 16  6  1  0
 17 27  1  0
 18 17  2  0
 20 19  1  0
 20 22  1  0
 21 20  2  0
 23 22  1  0
 23 24  1  0
 24 25  1  0
 26 25  1  6
 26 28  1  0
 27 26  1  0
 28 29  2  0
 28 30  1  0
M  END
$$$$
