TRR.pdb
     RDKit          3D

 30 29  0  0  1  0  0  0  0  0999 V2000
   21.0327  -21.7679  -12.8264 C   0  0  0  0  0  0  0  0  0  0  0  0
   20.9045  -21.1710  -11.4238 C   0  0  1  0  0  0  0  0  0  0  0  0
   21.3552  -22.0757  -10.4837 O   0  0  0  0  0  0  0  0  0  0  0  0
   21.6345  -19.8721  -11.3031 C   0  0  2  0  0  0  0  0  0  0  0  0
   20.9415  -18.8290  -12.0921 N   0  0  0  0  0  0  0  0  0  0  0  0
   23.0251  -19.9999  -11.7536 C   0  0  0  0  0  0  0  0  0  0  0  0
   23.3004  -19.8586  -12.9756 O   0  0  0  0  0  0  0  0  0  0  0  0
   32.1873  -22.6277   -9.9571 N   0  0  0  0  0  0  0  0  0  0  0  0
   31.0701  -22.0602   -9.2652 C   0  0  0  0  0  0  0  0  0  0  0  0
   30.9868  -22.1771   -8.0059 N   0  0  0  0  0  0  0  0  0  0  0  0
   30.0742  -21.3803   -9.9836 N   0  0  0  0  0  0  0  0  0  0  0  0
   28.7774  -21.0170   -9.3297 C   0  0  0  0  0  0  0  0  0  0  0  0
   27.7813  -20.9633  -10.4022 C   0  0  0  0  0  0  0  0  0  0  0  0
   26.3838  -20.6126  -10.2389 C   0  0  0  0  0  0  0  0  0  0  0  0
   25.4607  -20.5152  -11.3533 C   0  0  2  0  0  0  0  0  0  0  0  0
   24.0843  -20.2683  -10.8896 N   0  0  0  0  0  0  0  0  0  0  0  0
   25.5007  -21.5495  -12.3757 C   0  0  0  0  0  0  0  0  0  0  0  0
   25.0164  -22.6809  -12.2211 O   0  0  0  0  0  0  0  0  0  0  0  0
   30.1922  -21.7898   -7.4812 N   0  0  0  0  0  0  0  0  0  0  0  0
   21.9469  -24.7325  -18.9038 C   0  0  0  0  0  0  0  0  0  0  0  0
   21.7047  -25.1370  -17.5520 N   0  0  0  0  0  0  0  0  0  0  0  0
   21.0463  -26.2091  -17.2812 N   0  0  0  0  0  0  0  0  0  0  0  0
   22.1995  -24.3396  -16.4919 C   0  0  0  0  0  0  0  0  0  0  0  0
   22.8521  -23.0791  -16.7585 C   0  0  0  0  0  0  0  0  0  0  0  0
   24.2933  -23.1630  -16.2632 C   0  0  0  0  0  0  0  0  0  0  0  0
   24.5417  -22.1837  -15.1584 C   0  0  1  0  0  0  0  0  0  0  0  0
   25.9749  -22.2670  -14.6969 N   0  0  0  0  0  0  0  0  0  0  0  0
   26.1275  -21.2681  -13.6466 C   0  0  0  0  0  0  0  0  0  0  0  0
   26.8828  -21.9857  -15.8090 O   0  0  0  0  0  0  0  0  0  0  0  0
   27.3775  -20.8768  -16.1120 O   0  0  0  0  0  0  0  0  0  0  0  0
  2  1  1  6
  2  3  1  0
  4  5  1  6
  4  2  1  0
  6  7  2  0
  6  4  1  0
  9  8  1  0
 10  9  2  0
 11  9  1  0
 12 11  1  0
 13 12  1  0
 13 14  1  0
 15 14  1  1
 15 17  1  0
 15 16  1  0
 16  6  1  0
 17 27  1  0
 18 17  2  0
 20 19  1  0
 20 22  1  0
 21 20  2  0
 23 22  1  0
 23 24  1  0
 24 25  1  0
 26 25  1  1
 26 28  1  0
 27 26  1  0
 28 29  2  0
 28 30  1  0
M  END
$$$$
