TRR.pdb
     RDKit          3D

 30 29  0  0  1  0  0  0  0  0999 V2000
   30.7109  -25.2373  -16.4791 C   0  0  0  0  0  0  0  0  0  0  0  0
   29.4469  -25.5337  -17.2880 C   0  0  1  0  0  0  0  0  0  0  0  0
   29.7277  -25.4772  -18.6384 O   0  0  0  0  0  0  0  0  0  0  0  0
   28.8511  -26.8557  -16.9247 C   0  0  2  0  0  0  0  0  0  0  0  0
   29.6555  -27.9501  -17.5130 N   0  0  0  0  0  0  0  0  0  0  0  0
   27.4601  -26.9553  -17.3810 C   0  0  0  0  0  0  0  0  0  0  0  0
   27.2153  -27.3362  -18.5574 O   0  0  0  0  0  0  0  0  0  0  0  0
   23.8562  -33.4061  -16.9059 N   0  0  0  0  0  0  0  0  0  0  0  0
   23.5580  -32.1717  -16.2454 C   0  0  0  0  0  0  0  0  0  0  0  0
   22.8797  -32.1809  -15.1748 N   0  0  0  0  0  0  0  0  0  0  0  0
   24.0156  -30.9602  -16.7868 N   0  0  0  0  0  0  0  0  0  0  0  0
   25.2937  -30.3462  -16.3063 C   0  0  0  0  0  0  0  0  0  0  0  0
   24.9647  -28.9733  -15.9163 C   0  0  0  0  0  0  0  0  0  0  0  0
   24.3587  -27.9744  -16.7754 C   0  0  0  0  0  0  0  0  0  0  0  0
   24.9750  -26.6899  -17.0462 C   0  0  2  0  0  0  0  0  0  0  0  0
   26.3687  -26.6527  -16.5700 N   0  0  0  0  0  0  0  0  0  0  0  0
   24.2520  -25.4842  -16.6717 C   0  0  0  0  0  0  0  0  0  0  0  0
   24.3082  -24.9784  -15.5406 O   0  0  0  0  0  0  0  0  0  0  0  0
   22.6458  -31.3115  -14.6788 N   0  0  0  0  0  0  0  0  0  0  0  0
   22.3634  -19.9190  -22.8044 C   0  0  0  0  0  0  0  0  0  0  0  0
   21.1738  -20.6491  -22.4856 N   0  0  0  0  0  0  0  0  0  0  0  0
   20.1154  -20.5553  -23.2115 N   0  0  0  0  0  0  0  0  0  0  0  0
   21.1628  -21.4908  -21.3472 C   0  0  0  0  0  0  0  0  0  0  0  0
   22.2550  -21.4695  -20.4025 C   0  0  0  0  0  0  0  0  0  0  0  0
   21.9525  -22.4655  -19.2863 C   0  0  0  0  0  0  0  0  0  0  0  0
   23.0995  -22.5682  -18.3297 C   0  0  1  0  0  0  0  0  0  0  0  0
   22.7902  -23.5710  -17.2467 N   0  0  0  0  0  0  0  0  0  0  0  0
   23.4221  -24.8207  -17.6507 C   0  0  0  0  0  0  0  0  0  0  0  0
   21.3438  -23.7458  -17.1155 O   0  0  0  0  0  0  0  0  0  0  0  0
   20.6706  -24.7338  -17.4855 O   0  0  0  0  0  0  0  0  0  0  0  0
  2  1  1  1
  2  3  1  0
  4  5  1  6
  4  2  1  0
  6  7  2  0
  6  4  1  0
  9  8  1  0
 10  9  2  0
 11  9  1  0
 12 11  1  0
 13 12  1  0
 13 14  1  0
 15 14  1  1
 15 17  1  0
 15 16  1  0
 16  6  1  0
 17 27  1  0
 18 17  2  0
 20 19  1  0
 20 22  1  0
 21 20  2  0
 23 22  1  0
 23 24  1  0
 24 25  1  0
 26 25  1  1
 26 28  1  0
 27 26  1  0
 28 29  2  0
 28 30  1  0
M  END
$$$$
