TRR.pdb
     RDKit          3D

 30 29  0  0  1  0  0  0  0  0999 V2000
   26.9165  -18.1066  -15.4570 C   0  0  0  0  0  0  0  0  0  0  0  0
   27.3798  -19.2867  -16.3129 C   0  0  1  0  0  0  0  0  0  0  0  0
   28.4127  -18.8925  -17.1394 O   0  0  0  0  0  0  0  0  0  0  0  0
   27.7872  -20.4557  -15.4749 C   0  0  2  0  0  0  0  0  0  0  0  0
   28.2080  -21.5771  -16.3443 N   0  0  0  0  0  0  0  0  0  0  0  0
   26.6941  -20.8862  -14.5958 C   0  0  0  0  0  0  0  0  0  0  0  0
   25.7083  -21.5030  -15.0823 O   0  0  0  0  0  0  0  0  0  0  0  0
   27.6302  -21.0405   -6.7206 N   0  0  0  0  0  0  0  0  0  0  0  0
   27.1621  -19.8104   -7.2833 C   0  0  0  0  0  0  0  0  0  0  0  0
   27.6189  -18.7094   -6.8523 N   0  0  0  0  0  0  0  0  0  0  0  0
   26.2006  -19.8298   -8.3057 N   0  0  0  0  0  0  0  0  0  0  0  0
   25.2559  -20.9834   -8.4406 C   0  0  0  0  0  0  0  0  0  0  0  0
   24.9655  -21.1068   -9.8709 C   0  0  0  0  0  0  0  0  0  0  0  0
   25.9126  -20.8853  -10.9463 C   0  0  0  0  0  0  0  0  0  0  0  0
   25.5674  -21.0464  -12.3456 C   0  0  2  0  0  0  0  0  0  0  0  0
   26.6844  -20.6536  -13.2223 N   0  0  0  0  0  0  0  0  0  0  0  0
   24.3045  -20.4958  -12.8133 C   0  0  0  0  0  0  0  0  0  0  0  0
   24.0959  -19.2799  -12.9415 O   0  0  0  0  0  0  0  0  0  0  0  0
   27.3485  -17.8125   -7.2754 N   0  0  0  0  0  0  0  0  0  0  0  0
   17.1157  -22.6731  -15.6705 C   0  0  0  0  0  0  0  0  0  0  0  0
   17.3726  -21.8165  -16.7885 N   0  0  0  0  0  0  0  0  0  0  0  0
   16.4162  -21.2186  -17.4081 N   0  0  0  0  0  0  0  0  0  0  0  0
   18.7070  -21.6247  -17.2210 C   0  0  0  0  0  0  0  0  0  0  0  0
   19.8077  -22.2358  -16.5133 C   0  0  0  0  0  0  0  0  0  0  0  0
   20.3141  -21.2540  -15.4601 C   0  0  0  0  0  0  0  0  0  0  0  0
   21.6001  -21.7264  -14.8567 C   0  0  1  0  0  0  0  0  0  0  0  0
   22.0339  -20.7954  -13.7525 N   0  0  0  0  0  0  0  0  0  0  0  0
   23.2231  -21.3905  -13.1562 C   0  0  0  0  0  0  0  0  0  0  0  0
   20.9716  -20.6614  -12.7557 O   0  0  0  0  0  0  0  0  0  0  0  0
   19.9657  -19.9202  -12.8258 O   0  0  0  0  0  0  0  0  0  0  0  0
  2  1  1  1
  2  3  1  0
  4  5  1  6
  4  2  1  0
  6  7  2  0
  6  4  1  0
  9  8  1  0
 10  9  2  0
 11  9  1  0
 12 11  1  0
 13 12  1  0
 13 14  1  0
 15 14  1  1
 15 17  1  0
 15 16  1  0
 16  6  1  0
 17 27  1  0
 18 17  2  0
 20 19  1  0
 20 22  1  0
 21 20  2  0
 23 22  1  0
 23 24  1  0
 24 25  1  0
 26 25  1  6
 26 28  1  0
 27 26  1  0
 28 29  2  0
 28 30  1  0
M  END
$$$$
