TRR.pdb
     RDKit          3D

 30 29  0  0  1  0  0  0  0  0999 V2000
   23.4017  -20.6166   -9.5771 C   0  0  0  0  0  0  0  0  0  0  0  0
   24.8426  -20.3963   -9.1132 C   0  0  1  0  0  0  0  0  0  0  0  0
   24.9674  -20.7426   -7.7828 O   0  0  0  0  0  0  0  0  0  0  0  0
   25.8196  -21.1545   -9.9529 C   0  0  2  0  0  0  0  0  0  0  0  0
   27.1942  -20.9339   -9.4505 N   0  0  0  0  0  0  0  0  0  0  0  0
   25.7312  -20.7555  -11.3622 C   0  0  0  0  0  0  0  0  0  0  0  0
   26.7868  -20.5913  -12.0314 O   0  0  0  0  0  0  0  0  0  0  0  0
   29.2144  -22.0003  -17.3086 N   0  0  0  0  0  0  0  0  0  0  0  0
   27.9200  -22.0138  -17.9196 C   0  0  0  0  0  0  0  0  0  0  0  0
   27.8091  -21.7757  -19.1596 N   0  0  0  0  0  0  0  0  0  0  0  0
   26.7830  -22.2883  -17.1438 N   0  0  0  0  0  0  0  0  0  0  0  0
   26.6434  -21.7147  -15.7680 C   0  0  0  0  0  0  0  0  0  0  0  0
   25.4168  -22.2885  -15.2099 C   0  0  0  0  0  0  0  0  0  0  0  0
   24.9037  -22.0473  -13.8752 C   0  0  0  0  0  0  0  0  0  0  0  0
   24.3408  -20.7751  -13.4657 C   0  0  2  0  0  0  0  0  0  0  0  0
   24.5214  -20.5488  -12.0211 N   0  0  0  0  0  0  0  0  0  0  0  0
   22.9880  -20.4495  -13.8905 C   0  0  0  0  0  0  0  0  0  0  0  0
   21.9748  -20.9715  -13.4012 O   0  0  0  0  0  0  0  0  0  0  0  0
   26.8965  -21.7986  -19.6321 N   0  0  0  0  0  0  0  0  0  0  0  0
   20.4141  -13.0989  -18.2858 C   0  0  0  0  0  0  0  0  0  0  0  0
   19.3441  -13.4854  -17.4166 N   0  0  0  0  0  0  0  0  0  0  0  0
   18.2876  -12.7613  -17.2916 N   0  0  0  0  0  0  0  0  0  0  0  0
   19.4522  -14.6891  -16.6792 C   0  0  0  0  0  0  0  0  0  0  0  0
   20.6807  -15.4486  -16.6811 C   0  0  0  0  0  0  0  0  0  0  0  0
   20.4813  -16.6987  -15.8285 C   0  0  0  0  0  0  0  0  0  0  0  0
   21.7024  -17.5645  -15.8473 C   0  0  2  0  0  0  0  0  0  0  0  0
   21.5220  -18.7447  -14.9260 N   0  0  0  0  0  0  0  0  0  0  0  0
   22.7873  -19.4681  -14.9316 C   0  0  0  0  0  0  0  0  0  0  0  0
   20.4382  -19.6019  -15.4062 O   0  0  0  0  0  0  0  0  0  0  0  0
   20.5163  -20.4890  -16.2855 O   0  0  0  0  0  0  0  0  0  0  0  0
  2  1  1  6
  2  3  1  0
  4  5  1  1
  4  2  1  0
  6  7  2  0
  6  4  1  0
  9  8  1  0
 10  9  2  0
 11  9  1  0
 12 11  1  0
 13 12  1  0
 13 14  1  0
 15 14  1  1
 15 17  1  0
 15 16  1  0
 16  6  1  0
 17 27  1  0
 18 17  2  0
 20 19  1  0
 20 22  1  0
 21 20  2  0
 23 22  1  0
 23 24  1  0
 24 25  1  0
 26 25  1  1
 26 28  1  0
 27 26  1  0
 28 29  2  0
 28 30  1  0
M  END
$$$$
