TRR.pdb
     RDKit          3D

 30 29  0  0  1  0  0  0  0  0999 V2000
   26.0379  -22.6688  -11.6349 C   0  0  0  0  0  0  0  0  0  0  0  0
   26.1577  -21.5928  -10.5542 C   0  0  1  0  0  0  0  0  0  0  0  0
   27.2321  -21.8681   -9.7323 O   0  0  0  0  0  0  0  0  0  0  0  0
   26.2767  -20.2239  -11.1427 C   0  0  2  0  0  0  0  0  0  0  0  0
   26.4265  -19.2222  -10.0634 N   0  0  0  0  0  0  0  0  0  0  0  0
   25.1098  -19.8978  -11.9704 C   0  0  0  0  0  0  0  0  0  0  0  0
   24.0099  -19.6255  -11.4182 O   0  0  0  0  0  0  0  0  0  0  0  0
   20.4269  -19.0755  -17.0141 N   0  0  0  0  0  0  0  0  0  0  0  0
   20.8355  -18.2554  -18.1138 C   0  0  0  0  0  0  0  0  0  0  0  0
   20.1079  -18.1863  -19.1493 N   0  0  0  0  0  0  0  0  0  0  0  0
   22.0381  -17.5351  -18.0405 N   0  0  0  0  0  0  0  0  0  0  0  0
   22.8013  -17.4566  -16.7549 C   0  0  0  0  0  0  0  0  0  0  0  0
   23.3758  -18.7867  -16.5404 C   0  0  0  0  0  0  0  0  0  0  0  0
   24.3445  -19.1325  -15.5182 C   0  0  0  0  0  0  0  0  0  0  0  0
   23.9647  -19.5913  -14.1959 C   0  0  2  0  0  0  0  0  0  0  0  0
   25.1485  -19.8646  -13.3625 N   0  0  0  0  0  0  0  0  0  0  0  0
   22.9818  -20.6587  -14.0910 C   0  0  0  0  0  0  0  0  0  0  0  0
   23.2594  -21.8588  -14.2365 O   0  0  0  0  0  0  0  0  0  0  0  0
   20.3799  -17.6169  -19.9607 N   0  0  0  0  0  0  0  0  0  0  0  0
   18.7624  -23.9362   -7.8761 C   0  0  0  0  0  0  0  0  0  0  0  0
   17.8135  -24.1286   -8.9308 N   0  0  0  0  0  0  0  0  0  0  0  0
   16.6739  -24.6853   -8.7134 N   0  0  0  0  0  0  0  0  0  0  0  0
   18.1375  -23.6978  -10.2400 C   0  0  0  0  0  0  0  0  0  0  0  0
   19.4029  -23.0581  -10.5149 C   0  0  0  0  0  0  0  0  0  0  0  0
   19.4578  -22.7060  -11.9990 C   0  0  0  0  0  0  0  0  0  0  0  0
   20.7217  -21.9769  -12.3338 C   0  0  1  0  0  0  0  0  0  0  0  0
   20.6581  -21.4368  -13.7403 N   0  0  0  0  0  0  0  0  0  0  0  0
   21.6053  -20.3307  -13.7994 C   0  0  0  0  0  0  0  0  0  0  0  0
   19.3050  -20.9710  -14.0439 O   0  0  0  0  0  0  0  0  0  0  0  0
   18.8492  -19.8196  -13.8629 O   0  0  0  0  0  0  0  0  0  0  0  0
  2  1  1  6
  2  3  1  0
  4  5  1  1
  4  2  1  0
  6  7  2  0
  6  4  1  0
  9  8  1  0
 10  9  2  0
 11  9  1  0
 12 11  1  0
 13 12  1  0
 13 14  1  0
 15 14  1  6
 15 17  1  0
 15 16  1  0
 16  6  1  0
 17 27  1  0
 18 17  2  0
 20 19  1  0
 20 22  1  0
 21 20  2  0
 23 22  1  0
 23 24  1  0
 24 25  1  0
 26 25  1  6
 26 28  1  0
 27 26  1  0
 28 29  2  0
 28 30  1  0
M  END
$$$$
