TRR.pdb
     RDKit          3D

 30 29  0  0  1  0  0  0  0  0999 V2000
   28.8873  -17.9433  -16.6559 C   0  0  0  0  0  0  0  0  0  0  0  0
   27.6050  -18.6344  -16.1888 C   0  0  1  0  0  0  0  0  0  0  0  0
   26.6108  -18.4699  -17.1321 O   0  0  0  0  0  0  0  0  0  0  0  0
   27.8279  -20.0840  -15.8998 C   0  0  2  0  0  0  0  0  0  0  0  0
   28.1639  -20.8016  -17.1500 N   0  0  0  0  0  0  0  0  0  0  0  0
   26.6455  -20.6898  -15.2769 C   0  0  0  0  0  0  0  0  0  0  0  0
   25.8606  -21.3867  -15.9750 O   0  0  0  0  0  0  0  0  0  0  0  0
   25.4223  -21.0755   -6.6969 N   0  0  0  0  0  0  0  0  0  0  0  0
   24.3233  -21.1624   -7.6099 C   0  0  0  0  0  0  0  0  0  0  0  0
   23.1582  -21.3959   -7.1687 N   0  0  0  0  0  0  0  0  0  0  0  0
   24.5415  -20.9909   -8.9858 N   0  0  0  0  0  0  0  0  0  0  0  0
   25.8997  -20.6304   -9.5022 C   0  0  0  0  0  0  0  0  0  0  0  0
   25.7426  -20.4087  -10.9414 C   0  0  0  0  0  0  0  0  0  0  0  0
   25.3313  -21.4074  -11.9090 C   0  0  0  0  0  0  0  0  0  0  0  0
   25.1210  -21.1054  -13.3118 C   0  0  2  0  0  0  0  0  0  0  0  0
   26.3354  -20.5418  -13.9269 N   0  0  0  0  0  0  0  0  0  0  0  0
   23.9352  -20.3499  -13.6856 C   0  0  0  0  0  0  0  0  0  0  0  0
   23.8123  -19.1314  -13.4891 O   0  0  0  0  0  0  0  0  0  0  0  0
   22.3545  -21.4994   -7.8011 N   0  0  0  0  0  0  0  0  0  0  0  0
   20.4853  -18.7494  -20.4259 C   0  0  0  0  0  0  0  0  0  0  0  0
   19.4786  -19.7054  -20.0760 N   0  0  0  0  0  0  0  0  0  0  0  0
   18.6742  -20.1848  -20.9588 N   0  0  0  0  0  0  0  0  0  0  0  0
   19.3662  -20.1308  -18.7303 C   0  0  0  0  0  0  0  0  0  0  0  0
   20.1607  -19.5158  -17.6927 C   0  0  0  0  0  0  0  0  0  0  0  0
   19.8416  -20.1994  -16.3660 C   0  0  0  0  0  0  0  0  0  0  0  0
   21.0211  -20.9692  -15.8587 C   0  0  2  0  0  0  0  0  0  0  0  0
   21.7042  -20.2103  -14.7490 N   0  0  0  0  0  0  0  0  0  0  0  0
   22.8315  -21.0301  -14.3232 C   0  0  0  0  0  0  0  0  0  0  0  0
   20.7778  -19.9938  -13.6377 O   0  0  0  0  0  0  0  0  0  0  0  0
   19.9129  -19.0940  -13.5459 O   0  0  0  0  0  0  0  0  0  0  0  0
  2  1  1  6
  2  3  1  0
  4  5  1  6
  4  2  1  0
  6  7  2  0
  6  4  1  0
  9  8  1  0
 10  9  2  0
 11  9  1  0
 12 11  1  0
 13 12  1  0
 13 14  1  0
 15 14  1  1
 15 17  1  0
 15 16  1  0
 16  6  1  0
 17 27  1  0
 18 17  2  0
 20 19  1  0
 20 22  1  0
 21 20  2  0
 23 22  1  0
 23 24  1  0
 24 25  1  0
 26 25  1  6
 26 28  1  0
 27 26  1  0
 28 29  2  0
 28 30  1  0
M  END
$$$$
