TRR.pdb
     RDKit          3D

 30 29  0  0  1  0  0  0  0  0999 V2000
   26.5219  -22.6521  -16.2812 C   0  0  0  0  0  0  0  0  0  0  0  0
   25.1867  -23.3953  -16.2105 C   0  0  1  0  0  0  0  0  0  0  0  0
   24.5361  -23.3116  -17.4250 O   0  0  0  0  0  0  0  0  0  0  0  0
   25.3651  -24.8219  -15.8011 C   0  0  2  0  0  0  0  0  0  0  0  0
   26.0225  -25.5803  -16.8890 N   0  0  0  0  0  0  0  0  0  0  0  0
   24.0792  -25.4429  -15.4638 C   0  0  0  0  0  0  0  0  0  0  0  0
   23.5226  -26.2139  -16.2913 O   0  0  0  0  0  0  0  0  0  0  0  0
   20.2956  -30.6046  -11.9869 N   0  0  0  0  0  0  0  0  0  0  0  0
   19.2849  -29.8221  -11.3426 C   0  0  0  0  0  0  0  0  0  0  0  0
   18.0924  -30.2494  -11.3005 N   0  0  0  0  0  0  0  0  0  0  0  0
   19.6187  -28.5877  -10.7638 N   0  0  0  0  0  0  0  0  0  0  0  0
   21.0038  -28.0349  -10.8951 C   0  0  0  0  0  0  0  0  0  0  0  0
   21.0282  -27.2930  -12.1578 C   0  0  0  0  0  0  0  0  0  0  0  0
   22.1465  -26.5182  -12.6596 C   0  0  0  0  0  0  0  0  0  0  0  0
   22.1135  -25.8191  -13.9298 C   0  0  2  0  0  0  0  0  0  0  0  0
   23.4251  -25.2305  -14.2523 N   0  0  0  0  0  0  0  0  0  0  0  0
   21.0327  -24.8755  -14.1710 C   0  0  0  0  0  0  0  0  0  0  0  0
   20.9660  -23.7614  -13.6299 O   0  0  0  0  0  0  0  0  0  0  0  0
   17.3386  -29.6988  -10.8701 N   0  0  0  0  0  0  0  0  0  0  0  0
   18.9973  -20.0915  -19.0611 C   0  0  0  0  0  0  0  0  0  0  0  0
   19.6073  -21.1485  -19.8096 N   0  0  0  0  0  0  0  0  0  0  0  0
   20.1690  -20.9271  -20.9461 N   0  0  0  0  0  0  0  0  0  0  0  0
   19.5909  -22.4646  -19.2879 C   0  0  0  0  0  0  0  0  0  0  0  0
   18.7413  -22.8055  -18.1708 C   0  0  0  0  0  0  0  0  0  0  0  0
   19.0144  -24.2544  -17.7762 C   0  0  0  0  0  0  0  0  0  0  0  0
   18.2145  -24.6454  -16.5726 C   0  0  2  0  0  0  0  0  0  0  0  0
   18.9312  -24.2341  -15.3111 N   0  0  0  0  0  0  0  0  0  0  0  0
   19.9725  -25.2288  -15.0867 C   0  0  0  0  0  0  0  0  0  0  0  0
   17.9982  -24.2041  -14.1847 O   0  0  0  0  0  0  0  0  0  0  0  0
   17.8133  -25.1079  -13.3390 O   0  0  0  0  0  0  0  0  0  0  0  0
  2  1  1  6
  2  3  1  0
  4  5  1  6
  4  2  1  0
  6  7  2  0
  6  4  1  0
  9  8  1  0
 10  9  2  0
 11  9  1  0
 12 11  1  0
 13 12  1  0
 13 14  1  0
 15 14  1  1
 15 17  1  0
 15 16  1  0
 16  6  1  0
 17 27  1  0
 18 17  2  0
 20 19  1  0
 20 22  1  0
 21 20  2  0
 23 22  1  0
 23 24  1  0
 24 25  1  0
 26 25  1  6
 26 28  1  0
 27 26  1  0
 28 29  2  0
 28 30  1  0
M  END
$$$$
