TRR.pdb
     RDKit          3D

 30 29  0  0  1  0  0  0  0  0999 V2000
   29.7233  -21.5070  -18.7213 C   0  0  0  0  0  0  0  0  0  0  0  0
   28.4730  -21.6224  -17.8476 C   0  0  1  0  0  0  0  0  0  0  0  0
   27.4010  -22.0377  -18.6116 O   0  0  0  0  0  0  0  0  0  0  0  0
   28.6870  -22.5423  -16.6888 C   0  0  2  0  0  0  0  0  0  0  0  0
   28.9023  -23.9237  -17.1748 N   0  0  0  0  0  0  0  0  0  0  0  0
   27.5473  -22.5080  -15.7654 C   0  0  0  0  0  0  0  0  0  0  0  0
   26.6219  -23.3556  -15.8848 O   0  0  0  0  0  0  0  0  0  0  0  0
   24.0590  -21.6157   -7.8293 N   0  0  0  0  0  0  0  0  0  0  0  0
   23.2841  -20.9430   -8.8273 C   0  0  0  0  0  0  0  0  0  0  0  0
   22.0308  -20.8286   -8.6768 N   0  0  0  0  0  0  0  0  0  0  0  0
   23.9146  -20.4166   -9.9655 N   0  0  0  0  0  0  0  0  0  0  0  0
   25.0362  -21.1568  -10.6254 C   0  0  0  0  0  0  0  0  0  0  0  0
   25.4855  -20.3115  -11.7340 C   0  0  0  0  0  0  0  0  0  0  0  0
   26.5086  -20.6608  -12.7004 C   0  0  0  0  0  0  0  0  0  0  0  0
   26.2447  -21.4859  -13.8636 C   0  0  2  0  0  0  0  0  0  0  0  0
   27.4279  -21.5762  -14.7367 N   0  0  0  0  0  0  0  0  0  0  0  0
   25.0350  -21.2315  -14.6308 C   0  0  0  0  0  0  0  0  0  0  0  0
   24.9435  -20.3353  -15.4834 O   0  0  0  0  0  0  0  0  0  0  0  0
   21.4395  -20.3985   -9.3993 N   0  0  0  0  0  0  0  0  0  0  0  0
   16.9151  -25.0550  -14.7638 C   0  0  0  0  0  0  0  0  0  0  0  0
   16.9232  -24.0128  -15.7454 N   0  0  0  0  0  0  0  0  0  0  0  0
   15.8975  -23.7840  -16.4881 N   0  0  0  0  0  0  0  0  0  0  0  0
   18.0848  -23.2186  -15.9017 C   0  0  0  0  0  0  0  0  0  0  0  0
   19.2641  -23.4705  -15.1069 C   0  0  0  0  0  0  0  0  0  0  0  0
   20.3443  -22.4697  -15.5081 C   0  0  0  0  0  0  0  0  0  0  0  0
   21.6057  -22.6990  -14.7352 C   0  0  2  0  0  0  0  0  0  0  0  0
   22.6582  -21.6983  -15.1413 N   0  0  0  0  0  0  0  0  0  0  0  0
   23.8676  -22.0535  -14.4097 C   0  0  0  0  0  0  0  0  0  0  0  0
   22.2289  -20.3429  -14.7968 O   0  0  0  0  0  0  0  0  0  0  0  0
   22.2516  -19.8138  -13.6629 O   0  0  0  0  0  0  0  0  0  0  0  0
  2  1  1  6
  2  3  1  0
  4  5  1  6
  4  2  1  0
  6  7  2  0
  6  4  1  0
  9  8  1  0
 10  9  2  0
 11  9  1  0
 12 11  1  0
 13 12  1  0
 13 14  1  0
 15 14  1  1
 15 17  1  0
 15 16  1  0
 16  6  1  0
 17 27  1  0
 18 17  2  0
 20 19  1  0
 20 22  1  0
 21 20  2  0
 23 22  1  0
 23 24  1  0
 24 25  1  0
 26 25  1  6
 26 28  1  0
 27 26  1  0
 28 29  2  0
 28 30  1  0
M  END
$$$$
