TRR.pdb
     RDKit          3D

 30 29  0  0  1  0  0  0  0  0999 V2000
   17.0664  -20.7302    4.6563 C   0  0  0  0  0  0  0  0  0  0  0  0
   17.9134  -20.6021    3.3889 C   0  0  1  0  0  0  0  0  0  0  0  0
   18.1289  -21.8494    2.8382 O   0  0  0  0  0  0  0  0  0  0  0  0
   17.2863  -19.6824    2.3912 C   0  0  2  0  0  0  0  0  0  0  0  0
   18.0789  -19.6785    1.1412 N   0  0  0  0  0  0  0  0  0  0  0  0
   17.1782  -18.3181    2.9202 C   0  0  0  0  0  0  0  0  0  0  0  0
   18.1477  -17.5221    2.7955 O   0  0  0  0  0  0  0  0  0  0  0  0
   13.3123  -13.1517    6.9721 N   0  0  0  0  0  0  0  0  0  0  0  0
   12.8861  -12.2909    5.9108 C   0  0  0  0  0  0  0  0  0  0  0  0
   12.7437  -11.0503    6.1281 N   0  0  0  0  0  0  0  0  0  0  0  0
   12.6271  -12.8243    4.6386 N   0  0  0  0  0  0  0  0  0  0  0  0
   12.6033  -14.3058    4.4246 C   0  0  0  0  0  0  0  0  0  0  0  0
   14.0023  -14.7226    4.3045 C   0  0  0  0  0  0  0  0  0  0  0  0
   14.4594  -16.0602    3.9810 C   0  0  0  0  0  0  0  0  0  0  0  0
   15.8624  -16.4252    3.9419 C   0  0  2  0  0  0  0  0  0  0  0  0
   16.0387  -17.8376    3.5614 N   0  0  0  0  0  0  0  0  0  0  0  0
   16.7002  -16.0712    5.0775 C   0  0  0  0  0  0  0  0  0  0  0  0
   17.0479  -16.8830    5.9484 O   0  0  0  0  0  0  0  0  0  0  0  0
   12.4681  -10.4015    5.3800 N   0  0  0  0  0  0  0  0  0  0  0  0
   22.5139   -9.4817    6.6096 C   0  0  0  0  0  0  0  0  0  0  0  0
   22.1570  -10.0438    7.8771 N   0  0  0  0  0  0  0  0  0  0  0  0
   22.5744   -9.5285    8.9800 N   0  0  0  0  0  0  0  0  0  0  0  0
   21.3283  -11.1910    7.9165 C   0  0  0  0  0  0  0  0  0  0  0  0
   20.6034  -11.6189    6.7429 C   0  0  0  0  0  0  0  0  0  0  0  0
   19.7528  -12.8314    7.1116 C   0  0  0  0  0  0  0  0  0  0  0  0
   18.8614  -13.2299    5.9768 C   0  0  1  0  0  0  0  0  0  0  0  0
   18.0183  -14.4183    6.3652 N   0  0  0  0  0  0  0  0  0  0  0  0
   17.1674  -14.7114    5.2188 C   0  0  0  0  0  0  0  0  0  0  0  0
   17.2061  -14.1015    7.5400 O   0  0  0  0  0  0  0  0  0  0  0  0
   16.0197  -13.7032    7.5470 O   0  0  0  0  0  0  0  0  0  0  0  0
  2  1  1  1
  2  3  1  0
  4  5  1  6
  4  2  1  0
  6  7  2  0
  6  4  1  0
  9  8  1  0
 10  9  2  0
 11  9  1  0
 12 11  1  0
 13 12  1  0
 13 14  1  0
 15 14  1  1
 15 17  1  0
 15 16  1  0
 16  6  1  0
 17 27  1  0
 18 17  2  0
 20 19  1  0
 20 22  1  0
 21 20  2  0
 23 22  1  0
 23 24  1  0
 24 25  1  0
 26 25  1  6
 26 28  1  0
 27 26  1  0
 28 29  2  0
 28 30  1  0
M  END
$$$$
