NRV.pdb
     RDKit          3D

 27 26  0  0  1  0  0  0  0  0999 V2000
   29.1934  -21.0337  -17.5968 N   0  0  0  0  0  0  0  0  0  0  0  0
   28.4438  -22.2616  -17.5620 C   0  0  0  0  0  0  0  0  0  0  0  0
   28.8671  -23.2289  -18.2217 O   0  0  0  0  0  0  0  0  0  0  0  0
   27.2386  -22.2607  -16.7395 C   0  0  0  0  0  0  0  0  0  0  0  0
   26.9192  -20.9718  -16.0352 C   0  0  2  0  0  0  0  0  0  0  0  0
   27.9945  -20.7573  -15.0509 N   0  0  0  0  0  0  0  0  0  0  0  0
   25.6259  -21.1080  -15.3066 C   0  0  0  0  0  0  0  0  0  0  0  0
   24.5946  -21.4682  -15.9105 O   0  0  0  0  0  0  0  0  0  0  0  0
   20.9629  -20.0244   -8.6437 N   0  0  0  0  0  0  0  0  0  0  0  0
   21.7161  -21.1603   -8.1674 C   0  0  0  0  0  0  0  0  0  0  0  0
   21.1832  -22.0294   -7.3848 N   0  0  0  0  0  0  0  0  0  0  0  0
   23.0723  -21.3503   -8.5572 N   0  0  0  0  0  0  0  0  0  0  0  0
   23.7602  -20.4160   -9.3972 C   0  0  0  0  0  0  0  0  0  0  0  0
   23.3003  -20.4562  -10.8529 C   0  0  0  0  0  0  0  0  0  0  0  0
   24.5223  -20.7323  -11.6667 C   0  0  0  0  0  0  0  0  0  0  0  0
   24.3409  -20.8195  -13.1353 C   0  0  2  0  0  0  0  0  0  0  0  0
   25.5595  -20.8262  -13.9130 N   0  0  0  0  0  0  0  0  0  0  0  0
   23.3556  -19.8567  -13.7003 C   0  0  0  0  0  0  0  0  0  0  0  0
   23.6021  -18.6054  -13.6232 O   0  0  0  0  0  0  0  0  0  0  0  0
   21.7631  -22.8004   -7.0080 C   0  0  0  0  0  0  0  0  0  0  0  0
   22.0305  -19.0528  -17.1291 C   0  0  2  0  0  0  0  0  0  0  0  0
   20.8282  -19.3760  -16.2213 C   0  0  0  0  0  0  0  0  0  0  0  0
   20.3547  -20.7500  -16.6153 C   0  0  2  0  0  0  0  0  0  0  0  0
   21.1869  -19.2337  -14.7842 N   0  0  0  0  0  0  0  0  0  0  0  0
   22.1369  -20.2395  -14.3296 C   0  0  0  0  0  0  0  0  0  0  0  0
   19.9325  -19.3439  -13.9278 O   0  0  0  0  0  0  0  0  0  0  0  0
   19.0330  -18.4823  -14.0029 O   0  0  0  0  0  0  0  0  0  0  0  0
  2  1  1  0
  3  2  2  0
  4  2  1  0
  4  5  1  0
  5  6  1  1
  5  7  1  0
  7  8  2  0
 10  9  1  0
 10 12  1  0
 11 10  2  0
 13 12  1  0
 13 14  1  0
 15 14  1  0
 16 15  1  1
 17  7  1  0
 17 16  1  0
 18 16  1  0
 18 19  2  0
 21 20  1  6
 21 23  1  0
 22 21  1  0
 23 24  1  1
 23 25  1  0
 24 18  1  0
 25 27  1  0
 26 25  2  0
M  END
$$$$
