NRV.pdb
     RDKit          3D

 27 26  0  0  1  0  0  0  0  0999 V2000
   11.8711  -14.0285  -12.5635 N   0  0  0  0  0  0  0  0  0  0  0  0
   11.6931  -13.2774  -11.3490 C   0  0  0  0  0  0  0  0  0  0  0  0
   10.6286  -13.4198  -10.7192 O   0  0  0  0  0  0  0  0  0  0  0  0
   12.7970  -12.4065  -10.9591 C   0  0  0  0  0  0  0  0  0  0  0  0
   13.9926  -12.4059  -11.8701 C   0  0  2  0  0  0  0  0  0  0  0  0
   14.6334  -13.7240  -11.7175 N   0  0  0  0  0  0  0  0  0  0  0  0
   14.9541  -11.3546  -11.4316 C   0  0  0  0  0  0  0  0  0  0  0  0
   15.7675  -11.5847  -10.5133 O   0  0  0  0  0  0  0  0  0  0  0  0
   19.9925   -8.2093  -16.8063 N   0  0  0  0  0  0  0  0  0  0  0  0
   18.6082   -8.6176  -16.8454 C   0  0  0  0  0  0  0  0  0  0  0  0
   17.9237   -8.5406  -17.9305 N   0  0  0  0  0  0  0  0  0  0  0  0
   17.9642   -9.1217  -15.6800 N   0  0  0  0  0  0  0  0  0  0  0  0
   18.6813   -9.3835  -14.4679 C   0  0  0  0  0  0  0  0  0  0  0  0
   17.7975   -9.9208  -13.3443 C   0  0  0  0  0  0  0  0  0  0  0  0
   16.8662   -8.8105  -12.9817 C   0  0  0  0  0  0  0  0  0  0  0  0
   15.9476   -9.0542  -11.8441 C   0  0  2  0  0  0  0  0  0  0  0  0
   14.9490  -10.0772  -12.0594 N   0  0  0  0  0  0  0  0  0  0  0  0
   15.3346   -7.8276  -11.2637 C   0  0  0  0  0  0  0  0  0  0  0  0
   14.3040   -7.3265  -11.8287 O   0  0  0  0  0  0  0  0  0  0  0  0
   16.9338   -8.8452  -17.9322 C   0  0  0  0  0  0  0  0  0  0  0  0
   13.8777   -7.1326   -7.7762 C   0  0  2  0  0  0  0  0  0  0  0  0
   14.9083   -6.0401   -8.1206 C   0  0  0  0  0  0  0  0  0  0  0  0
   16.1310   -6.3321   -7.2917 C   0  0  2  0  0  0  0  0  0  0  0  0
   15.1552   -5.9778   -9.5867 N   0  0  0  0  0  0  0  0  0  0  0  0
   15.8259   -7.1622  -10.1045 C   0  0  0  0  0  0  0  0  0  0  0  0
   16.0158   -4.7644   -9.9121 O   0  0  0  0  0  0  0  0  0  0  0  0
   17.1859   -4.9055  -10.3220 O   0  0  0  0  0  0  0  0  0  0  0  0
  2  1  1  0
  3  2  2  0
  4  2  1  0
  4  5  1  0
  5  6  1  1
  5  7  1  0
  7  8  2  0
 10  9  1  0
 10 12  1  0
 11 10  2  0
 13 12  1  0
 13 14  1  0
 15 14  1  0
 16 15  1  6
 17  7  1  0
 17 16  1  0
 18 16  1  0
 18 19  2  0
 21 20  1  1
 21 23  1  0
 22 21  1  0
 23 24  1  6
 23 25  1  0
 24 18  1  0
 25 27  1  0
 26 25  2  0
M  END
$$$$
