NRV.pdb
     RDKit          3D

 27 26  0  0  1  0  0  0  0  0999 V2000
   27.4865  -19.0202  -16.8409 N   0  0  0  0  0  0  0  0  0  0  0  0
   27.4845  -20.1336  -17.7526 C   0  0  0  0  0  0  0  0  0  0  0  0
   28.5805  -20.6036  -18.1105 O   0  0  0  0  0  0  0  0  0  0  0  0
   26.1760  -20.6196  -18.1776 C   0  0  0  0  0  0  0  0  0  0  0  0
   24.9866  -19.8780  -17.6346 C   0  0  2  0  0  0  0  0  0  0  0  0
   25.4812  -18.5607  -17.1971 N   0  0  0  0  0  0  0  0  0  0  0  0
   24.4453  -20.6020  -16.4493 C   0  0  0  0  0  0  0  0  0  0  0  0
   24.0073  -21.7651  -16.5642 O   0  0  0  0  0  0  0  0  0  0  0  0
   27.7855  -21.2528   -8.9037 N   0  0  0  0  0  0  0  0  0  0  0  0
   27.7036  -21.0416  -10.3296 C   0  0  0  0  0  0  0  0  0  0  0  0
   28.7278  -21.2153  -11.0864 N   0  0  0  0  0  0  0  0  0  0  0  0
   26.4809  -20.6381  -10.9373 N   0  0  0  0  0  0  0  0  0  0  0  0
   25.2287  -21.2494  -10.6054 C   0  0  0  0  0  0  0  0  0  0  0  0
   24.0605  -20.7319  -11.4419 C   0  0  0  0  0  0  0  0  0  0  0  0
   24.6516  -20.2474  -12.7254 C   0  0  0  0  0  0  0  0  0  0  0  0
   23.9101  -20.5731  -13.9670 C   0  0  2  0  0  0  0  0  0  0  0  0
   24.4240  -19.9679  -15.1751 N   0  0  0  0  0  0  0  0  0  0  0  0
   22.4337  -20.4030  -13.8744 C   0  0  0  0  0  0  0  0  0  0  0  0
   21.9555  -19.2255  -13.7433 O   0  0  0  0  0  0  0  0  0  0  0  0
   28.6693  -20.9656  -12.0898 C   0  0  0  0  0  0  0  0  0  0  0  0
   20.0032  -23.0538  -15.4999 C   0  0  2  0  0  0  0  0  0  0  0  0
   19.2724  -21.8439  -14.8864 C   0  0  0  0  0  0  0  0  0  0  0  0
   17.9124  -22.3359  -14.4674 C   0  0  2  0  0  0  0  0  0  0  0  0
   20.0730  -21.2316  -13.7918 N   0  0  0  0  0  0  0  0  0  0  0  0
   21.5023  -21.4792  -13.9212 C   0  0  0  0  0  0  0  0  0  0  0  0
   19.6151  -21.7843  -12.4487 O   0  0  0  0  0  0  0  0  0  0  0  0
   20.1002  -22.8415  -11.9968 O   0  0  0  0  0  0  0  0  0  0  0  0
  2  1  1  0
  3  2  2  0
  4  2  1  0
  4  5  1  0
  5  6  1  1
  5  7  1  0
  7  8  2  0
 10  9  1  0
 10 12  1  0
 11 10  2  0
 13 12  1  0
 13 14  1  0
 15 14  1  0
 16 15  1  1
 17  7  1  0
 17 16  1  0
 18 16  1  0
 18 19  2  0
 21 20  1  6
 21 23  1  0
 22 21  1  0
 23 24  1  6
 23 25  1  0
 24 18  1  0
 25 27  1  0
 26 25  2  0
M  END
$$$$
