NRV.pdb
     RDKit          3D

 27 26  0  0  1  0  0  0  0  0999 V2000
   26.0900  -15.8729  -20.7565 N   0  0  0  0  0  0  0  0  0  0  0  0
   24.8762  -16.5793  -21.0704 C   0  0  0  0  0  0  0  0  0  0  0  0
   24.0252  -16.0040  -21.7739 O   0  0  0  0  0  0  0  0  0  0  0  0
   24.7548  -17.9290  -20.5296 C   0  0  0  0  0  0  0  0  0  0  0  0
   25.9456  -18.4483  -19.7735 C   0  0  2  0  0  0  0  0  0  0  0  0
   26.5176  -19.5328  -20.5908 N   0  0  0  0  0  0  0  0  0  0  0  0
   25.4999  -19.0178  -18.4700 C   0  0  0  0  0  0  0  0  0  0  0  0
   24.9023  -20.1128  -18.4294 O   0  0  0  0  0  0  0  0  0  0  0  0
   25.4292  -20.5884  -10.6237 N   0  0  0  0  0  0  0  0  0  0  0  0
   26.0983  -21.2794  -11.7005 C   0  0  0  0  0  0  0  0  0  0  0  0
   25.9634  -22.5474  -11.8608 N   0  0  0  0  0  0  0  0  0  0  0  0
   26.9244  -20.5709  -12.6185 N   0  0  0  0  0  0  0  0  0  0  0  0
   26.9343  -19.1401  -12.6848 C   0  0  0  0  0  0  0  0  0  0  0  0
   25.7432  -18.5597  -13.4442 C   0  0  0  0  0  0  0  0  0  0  0  0
   26.2286  -18.2848  -14.8300 C   0  0  0  0  0  0  0  0  0  0  0  0
   25.3881  -18.7858  -15.9435 C   0  0  2  0  0  0  0  0  0  0  0  0
   25.7534  -18.3126  -17.2598 N   0  0  0  0  0  0  0  0  0  0  0  0
   23.9209  -18.6608  -15.7226 C   0  0  0  0  0  0  0  0  0  0  0  0
   23.4216  -17.4992  -15.5383 O   0  0  0  0  0  0  0  0  0  0  0  0
   26.5104  -23.0300  -12.5959 C   0  0  0  0  0  0  0  0  0  0  0  0
   21.0822  -21.9527  -15.9008 C   0  0  2  0  0  0  0  0  0  0  0  0
   20.7065  -20.4746  -16.1203 C   0  0  0  0  0  0  0  0  0  0  0  0
   19.2517  -20.3464  -15.7534 C   0  0  1  0  0  0  0  0  0  0  0  0
   21.6167  -19.5714  -15.3654 N   0  0  0  0  0  0  0  0  0  0  0  0
   23.0207  -19.7640  -15.7006 C   0  0  0  0  0  0  0  0  0  0  0  0
   21.4491  -19.8052  -13.8700 O   0  0  0  0  0  0  0  0  0  0  0  0
   22.3134  -20.4308  -13.2229 O   0  0  0  0  0  0  0  0  0  0  0  0
  2  1  1  0
  3  2  2  0
  4  2  1  0
  4  5  1  0
  5  6  1  6
  5  7  1  0
  7  8  2  0
 10  9  1  0
 10 12  1  0
 11 10  2  0
 13 12  1  0
 13 14  1  0
 15 14  1  0
 16 15  1  1
 17  7  1  0
 17 16  1  0
 18 16  1  0
 18 19  2  0
 21 20  1  6
 21 23  1  0
 22 21  1  0
 23 24  1  6
 23 25  1  0
 24 18  1  0
 25 27  1  0
 26 25  2  0
M  END
$$$$
