NRV.pdb
     RDKit          3D

 27 26  0  0  1  0  0  0  0  0999 V2000
   27.9303  -11.4516  -15.7819 N   0  0  0  0  0  0  0  0  0  0  0  0
   26.5390  -11.8028  -15.6740 C   0  0  0  0  0  0  0  0  0  0  0  0
   26.2496  -12.9640  -15.3304 O   0  0  0  0  0  0  0  0  0  0  0  0
   25.5795  -10.7466  -15.9784 C   0  0  0  0  0  0  0  0  0  0  0  0
   24.5301  -11.0809  -17.0013 C   0  0  2  0  0  0  0  0  0  0  0  0
   25.2221  -11.1520  -18.3003 N   0  0  0  0  0  0  0  0  0  0  0  0
   23.5209   -9.9852  -17.0579 C   0  0  0  0  0  0  0  0  0  0  0  0
   23.8385   -8.8539  -17.4790 O   0  0  0  0  0  0  0  0  0  0  0  0
   18.3633  -14.4045  -17.9714 N   0  0  0  0  0  0  0  0  0  0  0  0
   18.3727  -13.9627  -16.5969 C   0  0  0  0  0  0  0  0  0  0  0  0
   18.3357  -14.8064  -15.6281 N   0  0  0  0  0  0  0  0  0  0  0  0
   18.4274  -12.5763  -16.2777 N   0  0  0  0  0  0  0  0  0  0  0  0
   18.2179  -11.5598  -17.2649 C   0  0  0  0  0  0  0  0  0  0  0  0
   19.5061  -10.8684  -17.7066 C   0  0  0  0  0  0  0  0  0  0  0  0
   19.7511   -9.7761  -16.7174 C   0  0  0  0  0  0  0  0  0  0  0  0
   21.1296   -9.2356  -16.6473 C   0  0  2  0  0  0  0  0  0  0  0  0
   22.1847  -10.2237  -16.6295 N   0  0  0  0  0  0  0  0  0  0  0  0
   21.3444   -8.2102  -15.5892 C   0  0  0  0  0  0  0  0  0  0  0  0
   21.5965   -8.5968  -14.3978 O   0  0  0  0  0  0  0  0  0  0  0  0
   18.4067  -14.4667  -14.6523 C   0  0  0  0  0  0  0  0  0  0  0  0
   22.1659   -4.0449  -16.2407 C   0  0  2  0  0  0  0  0  0  0  0  0
   22.4428   -4.8229  -14.9398 C   0  0  0  0  0  0  0  0  0  0  0  0
   22.5504   -3.7955  -13.8443 C   0  0  1  0  0  0  0  0  0  0  0  0
   21.4090   -5.8678  -14.7087 N   0  0  0  0  0  0  0  0  0  0  0  0
   21.2860   -6.8056  -15.8161 C   0  0  0  0  0  0  0  0  0  0  0  0
   20.0529   -5.2101  -14.4906 O   0  0  0  0  0  0  0  0  0  0  0  0
   19.1497   -5.3156  -15.3451 O   0  0  0  0  0  0  0  0  0  0  0  0
  2  1  1  0
  3  2  2  0
  4  2  1  0
  4  5  1  0
  5  6  1  6
  5  7  1  0
  7  8  2  0
 10  9  1  0
 10 12  1  0
 11 10  2  0
 13 12  1  0
 13 14  1  0
 15 14  1  0
 16 15  1  1
 17  7  1  0
 17 16  1  0
 18 16  1  0
 18 19  2  0
 21 20  1  6
 21 23  1  0
 22 21  1  0
 23 24  1  6
 23 25  1  0
 24 18  1  0
 25 27  1  0
 26 25  2  0
M  END
$$$$
