NRV.pdb
     RDKit          3D

 27 26  0  0  1  0  0  0  0  0999 V2000
   28.3308  -21.0772  -20.5103 N   0  0  0  0  0  0  0  0  0  0  0  0
   28.4280  -20.6808  -19.1304 C   0  0  0  0  0  0  0  0  0  0  0  0
   29.4431  -20.0584  -18.7666 O   0  0  0  0  0  0  0  0  0  0  0  0
   27.3070  -21.0474  -18.2713 C   0  0  0  0  0  0  0  0  0  0  0  0
   27.6624  -21.5823  -16.9123 C   0  0  2  0  0  0  0  0  0  0  0  0
   28.1616  -22.9529  -17.1214 N   0  0  0  0  0  0  0  0  0  0  0  0
   26.4380  -21.6448  -16.0644 C   0  0  0  0  0  0  0  0  0  0  0  0
   25.5708  -22.5188  -16.2692 O   0  0  0  0  0  0  0  0  0  0  0  0
   23.2894  -20.7354   -8.9727 N   0  0  0  0  0  0  0  0  0  0  0  0
   24.6362  -20.7885   -8.4552 C   0  0  0  0  0  0  0  0  0  0  0  0
   24.8872  -21.3163   -7.3106 N   0  0  0  0  0  0  0  0  0  0  0  0
   25.7257  -20.2596   -9.2038 N   0  0  0  0  0  0  0  0  0  0  0  0
   25.5438  -19.6632  -10.4934 C   0  0  0  0  0  0  0  0  0  0  0  0
   25.3398  -20.6843  -11.6106 C   0  0  0  0  0  0  0  0  0  0  0  0
   25.2779  -19.9019  -12.8817 C   0  0  0  0  0  0  0  0  0  0  0  0
   25.1026  -20.6755  -14.1340 C   0  0  2  0  0  0  0  0  0  0  0  0
   26.2500  -20.7039  -15.0130 N   0  0  0  0  0  0  0  0  0  0  0  0
   23.8603  -20.3614  -14.8924 C   0  0  0  0  0  0  0  0  0  0  0  0
   23.8110  -19.2831  -15.5759 O   0  0  0  0  0  0  0  0  0  0  0  0
   25.8383  -21.2352   -6.9086 C   0  0  0  0  0  0  0  0  0  0  0  0
   22.0096  -21.7883  -17.7801 C   0  0  2  0  0  0  0  0  0  0  0  0
   21.0086  -21.7020  -16.6119 C   0  0  0  0  0  0  0  0  0  0  0  0
   20.7978  -23.1120  -16.1272 C   0  0  2  0  0  0  0  0  0  0  0  0
   21.4821  -20.7533  -15.5680 N   0  0  0  0  0  0  0  0  0  0  0  0
   22.7038  -21.1921  -14.9081 C   0  0  0  0  0  0  0  0  0  0  0  0
   20.4051  -20.5783  -14.5057 O   0  0  0  0  0  0  0  0  0  0  0  0
   19.3063  -20.0610  -14.7925 O   0  0  0  0  0  0  0  0  0  0  0  0
  2  1  1  0
  3  2  2  0
  4  2  1  0
  4  5  1  0
  5  6  1  6
  5  7  1  0
  7  8  2  0
 10  9  1  0
 10 12  1  0
 11 10  2  0
 13 12  1  0
 13 14  1  0
 15 14  1  0
 16 15  1  1
 17  7  1  0
 17 16  1  0
 18 16  1  0
 18 19  2  0
 21 20  1  6
 21 23  1  0
 22 21  1  0
 23 24  1  1
 23 25  1  0
 24 18  1  0
 25 27  1  0
 26 25  2  0
M  END
$$$$
