NRV.pdb
     RDKit          3D

 27 26  0  0  1  0  0  0  0  0999 V2000
   23.0352  -18.4075  -19.0856 N   0  0  0  0  0  0  0  0  0  0  0  0
   23.1151  -19.8442  -19.1051 C   0  0  0  0  0  0  0  0  0  0  0  0
   22.5256  -20.4545  -20.0162 O   0  0  0  0  0  0  0  0  0  0  0  0
   23.8964  -20.4633  -18.0396 C   0  0  0  0  0  0  0  0  0  0  0  0
   24.4989  -19.5259  -17.0308 C   0  0  2  0  0  0  0  0  0  0  0  0
   25.6223  -18.8529  -17.7064 N   0  0  0  0  0  0  0  0  0  0  0  0
   25.0339  -20.3076  -15.8798 C   0  0  0  0  0  0  0  0  0  0  0  0
   24.3148  -21.1423  -15.2933 O   0  0  0  0  0  0  0  0  0  0  0  0
   31.2775  -20.3994  -10.3035 N   0  0  0  0  0  0  0  0  0  0  0  0
   31.6712  -21.6352  -10.9378 C   0  0  0  0  0  0  0  0  0  0  0  0
   32.3723  -22.5100  -10.3093 N   0  0  0  0  0  0  0  0  0  0  0  0
   31.2881  -21.9199  -12.2792 N   0  0  0  0  0  0  0  0  0  0  0  0
   30.5505  -20.9842  -13.0742 C   0  0  0  0  0  0  0  0  0  0  0  0
   29.0390  -21.0802  -12.8778 C   0  0  0  0  0  0  0  0  0  0  0  0
   28.4249  -20.6720  -14.1770 C   0  0  0  0  0  0  0  0  0  0  0  0
   26.9447  -20.6985  -14.2534 C   0  0  2  0  0  0  0  0  0  0  0  0
   26.3727  -20.1049  -15.4410 N   0  0  0  0  0  0  0  0  0  0  0  0
   26.2483  -20.2143  -13.0296 C   0  0  0  0  0  0  0  0  0  0  0  0
   26.3610  -18.9847  -12.7015 O   0  0  0  0  0  0  0  0  0  0  0  0
   32.6475  -23.3850  -10.7903 C   0  0  0  0  0  0  0  0  0  0  0  0
   22.8173  -20.3088   -9.5264 C   0  0  2  0  0  0  0  0  0  0  0  0
   23.4265  -20.9244  -10.8009 C   0  0  0  0  0  0  0  0  0  0  0  0
   22.5118  -20.5457  -11.9354 C   0  0  1  0  0  0  0  0  0  0  0  0
   24.8414  -20.4997  -10.9789 N   0  0  0  0  0  0  0  0  0  0  0  0
   25.4535  -21.0403  -12.1846 C   0  0  0  0  0  0  0  0  0  0  0  0
   25.6684  -20.9520   -9.7828 O   0  0  0  0  0  0  0  0  0  0  0  0
   26.3014  -22.0269   -9.8167 O   0  0  0  0  0  0  0  0  0  0  0  0
  2  1  1  0
  3  2  2  0
  4  2  1  0
  4  5  1  0
  5  6  1  6
  5  7  1  0
  7  8  2  0
 10  9  1  0
 10 12  1  0
 11 10  2  0
 13 12  1  0
 13 14  1  0
 15 14  1  0
 16 15  1  1
 17  7  1  0
 17 16  1  0
 18 16  1  0
 18 19  2  0
 21 20  1  1
 21 23  1  0
 22 21  1  0
 23 24  1  1
 23 25  1  0
 24 18  1  0
 25 27  1  0
 26 25  2  0
M  END
$$$$
