NRV.pdb
     RDKit          3D

 27 26  0  0  1  0  0  0  0  0999 V2000
   19.6542  -17.2026  -16.6444 N   0  0  0  0  0  0  0  0  0  0  0  0
   20.0157  -17.2084  -15.2515 C   0  0  0  0  0  0  0  0  0  0  0  0
   19.4589  -16.3911  -14.4952 O   0  0  0  0  0  0  0  0  0  0  0  0
   21.0155  -18.1910  -14.8466 C   0  0  0  0  0  0  0  0  0  0  0  0
   21.5511  -19.0773  -15.9361 C   0  0  2  0  0  0  0  0  0  0  0  0
   20.4776  -20.0329  -16.2612 N   0  0  0  0  0  0  0  0  0  0  0  0
   22.7285  -19.8373  -15.4281 C   0  0  0  0  0  0  0  0  0  0  0  0
   22.5802  -20.7390  -14.5778 O   0  0  0  0  0  0  0  0  0  0  0  0
   29.8295  -22.9465  -17.5238 N   0  0  0  0  0  0  0  0  0  0  0  0
   28.9292  -22.2915  -18.4430 C   0  0  0  0  0  0  0  0  0  0  0  0
   28.5625  -22.8634  -19.5340 N   0  0  0  0  0  0  0  0  0  0  0  0
   28.4191  -20.9924  -18.1619 N   0  0  0  0  0  0  0  0  0  0  0  0
   28.7409  -20.2941  -16.9534 C   0  0  0  0  0  0  0  0  0  0  0  0
   27.7280  -20.5216  -15.8333 C   0  0  0  0  0  0  0  0  0  0  0  0
   26.4104  -20.0602  -16.3652 C   0  0  0  0  0  0  0  0  0  0  0  0
   25.2437  -20.1861  -15.4595 C   0  0  2  0  0  0  0  0  0  0  0  0
   24.0333  -19.5372  -15.9109 N   0  0  0  0  0  0  0  0  0  0  0  0
   25.5223  -19.8578  -14.0341 C   0  0  0  0  0  0  0  0  0  0  0  0
   25.5377  -18.6317  -13.6752 O   0  0  0  0  0  0  0  0  0  0  0  0
   27.9418  -22.3583  -20.1915 C   0  0  0  0  0  0  0  0  0  0  0  0
   24.9918  -22.3190  -10.5900 C   0  0  2  0  0  0  0  0  0  0  0  0
   25.2144  -20.7949  -10.6357 C   0  0  0  0  0  0  0  0  0  0  0  0
   25.6084  -20.3805   -9.2427 C   0  0  1  0  0  0  0  0  0  0  0  0
   26.1963  -20.4271  -11.6915 N   0  0  0  0  0  0  0  0  0  0  0  0
   25.7785  -20.8312  -13.0268 C   0  0  0  0  0  0  0  0  0  0  0  0
   27.5389  -21.0819  -11.3956 O   0  0  0  0  0  0  0  0  0  0  0  0
   28.0012  -21.9573  -12.1552 O   0  0  0  0  0  0  0  0  0  0  0  0
  2  1  1  0
  3  2  2  0
  4  2  1  0
  4  5  1  0
  5  6  1  1
  5  7  1  0
  7  8  2  0
 10  9  1  0
 10 12  1  0
 11 10  2  0
 13 12  1  0
 13 14  1  0
 15 14  1  0
 16 15  1  6
 17  7  1  0
 17 16  1  0
 18 16  1  0
 18 19  2  0
 21 20  1  1
 21 23  1  0
 22 21  1  0
 23 24  1  6
 23 25  1  0
 24 18  1  0
 25 27  1  0
 26 25  2  0
M  END
$$$$
