NRV.pdb
     RDKit          3D

 27 26  0  0  1  0  0  0  0  0999 V2000
   20.4387  -22.3146  -12.1711 N   0  0  0  0  0  0  0  0  0  0  0  0
   19.4479  -21.7350  -11.3032 C   0  0  0  0  0  0  0  0  0  0  0  0
   19.3494  -20.4943  -11.2678 O   0  0  0  0  0  0  0  0  0  0  0  0
   18.6338  -22.6708  -10.5348 C   0  0  0  0  0  0  0  0  0  0  0  0
   18.8980  -24.1306  -10.7766 C   0  0  2  0  0  0  0  0  0  0  0  0
   18.3643  -24.4344  -12.1160 N   0  0  0  0  0  0  0  0  0  0  0  0
   18.1572  -24.9453   -9.7718 C   0  0  0  0  0  0  0  0  0  0  0  0
   16.9122  -24.8867   -9.7040 O   0  0  0  0  0  0  0  0  0  0  0  0
   21.8703  -29.8667  -10.6010 N   0  0  0  0  0  0  0  0  0  0  0  0
   20.9206  -30.9508  -10.6871 C   0  0  0  0  0  0  0  0  0  0  0  0
   20.9992  -31.8296  -11.6216 N   0  0  0  0  0  0  0  0  0  0  0  0
   19.8712  -31.0774   -9.7333 N   0  0  0  0  0  0  0  0  0  0  0  0
   19.7105  -30.1517   -8.6521 C   0  0  0  0  0  0  0  0  0  0  0  0
   18.9730  -28.8752   -9.0510 C   0  0  0  0  0  0  0  0  0  0  0  0
   18.9036  -28.0337   -7.8187 C   0  0  0  0  0  0  0  0  0  0  0  0
   18.2461  -26.7115   -7.9493 C   0  0  2  0  0  0  0  0  0  0  0  0
   18.8682  -25.7970   -8.8803 N   0  0  0  0  0  0  0  0  0  0  0  0
   17.9477  -26.0331   -6.6578 C   0  0  0  0  0  0  0  0  0  0  0  0
   18.9065  -25.4925   -6.0091 O   0  0  0  0  0  0  0  0  0  0  0  0
   20.3237  -32.6144  -11.6425 C   0  0  0  0  0  0  0  0  0  0  0  0
   14.9823  -23.5125   -5.8394 C   0  0  2  0  0  0  0  0  0  0  0  0
   15.1242  -24.5727   -4.7303 C   0  0  0  0  0  0  0  0  0  0  0  0
   13.9294  -25.4807   -4.8544 C   0  0  2  0  0  0  0  0  0  0  0  0
   16.4386  -25.2649   -4.8143 N   0  0  0  0  0  0  0  0  0  0  0  0
   16.6469  -25.9447   -6.0852 C   0  0  0  0  0  0  0  0  0  0  0  0
   16.5481  -26.2972   -3.7001 O   0  0  0  0  0  0  0  0  0  0  0  0
   16.5750  -27.5168   -3.9629 O   0  0  0  0  0  0  0  0  0  0  0  0
  2  1  1  0
  3  2  2  0
  4  2  1  0
  4  5  1  0
  5  6  1  6
  5  7  1  0
  7  8  2  0
 10  9  1  0
 10 12  1  0
 11 10  2  0
 13 12  1  0
 13 14  1  0
 15 14  1  0
 16 15  1  1
 17  7  1  0
 17 16  1  0
 18 16  1  0
 18 19  2  0
 21 20  1  1
 21 23  1  0
 22 21  1  0
 23 24  1  1
 23 25  1  0
 24 18  1  0
 25 27  1  0
 26 25  2  0
M  END
$$$$
