NRV.pdb
     RDKit          3D

 27 26  0  0  1  0  0  0  0  0999 V2000
   18.4003  -30.5206   -2.3424 N   0  0  0  0  0  0  0  0  0  0  0  0
   17.1680  -29.8557   -2.0107 C   0  0  0  0  0  0  0  0  0  0  0  0
   16.2356  -30.5395   -1.5490 O   0  0  0  0  0  0  0  0  0  0  0  0
   17.1257  -28.4163   -2.2462 C   0  0  0  0  0  0  0  0  0  0  0  0
   18.3752  -27.8016   -2.8120 C   0  0  2  0  0  0  0  0  0  0  0  0
   19.3385  -27.7175   -1.7001 N   0  0  0  0  0  0  0  0  0  0  0  0
   18.0796  -26.4217   -3.2923 C   0  0  0  0  0  0  0  0  0  0  0  0
   18.0926  -25.4591   -2.4979 O   0  0  0  0  0  0  0  0  0  0  0  0
   19.7827  -26.2743  -10.8993 N   0  0  0  0  0  0  0  0  0  0  0  0
   18.5944  -25.4743  -11.0794 C   0  0  0  0  0  0  0  0  0  0  0  0
   17.9725  -25.4530  -12.2039 N   0  0  0  0  0  0  0  0  0  0  0  0
   18.0764  -24.6886  -10.0109 N   0  0  0  0  0  0  0  0  0  0  0  0
   18.7677  -24.5503   -8.7641 C   0  0  0  0  0  0  0  0  0  0  0  0
   18.1339  -25.3491   -7.6272 C   0  0  0  0  0  0  0  0  0  0  0  0
   18.2526  -24.4977   -6.4054 C   0  0  0  0  0  0  0  0  0  0  0  0
   17.4487  -24.9038   -5.2280 C   0  0  2  0  0  0  0  0  0  0  0  0
   17.7787  -26.1936   -4.6647 N   0  0  0  0  0  0  0  0  0  0  0  0
   15.9765  -24.7597   -5.3983 C   0  0  0  0  0  0  0  0  0  0  0  0
   15.3071  -25.7522   -5.8448 O   0  0  0  0  0  0  0  0  0  0  0  0
   17.1251  -24.8666  -12.3075 C   0  0  0  0  0  0  0  0  0  0  0  0
   13.7770  -21.7865   -3.3963 C   0  0  2  0  0  0  0  0  0  0  0  0
   13.1568  -23.1052   -3.8971 C   0  0  0  0  0  0  0  0  0  0  0  0
   11.6731  -22.8675   -3.9946 C   0  0  1  0  0  0  0  0  0  0  0  0
   13.7963  -23.5522   -5.1641 N   0  0  0  0  0  0  0  0  0  0  0  0
   15.2508  -23.5727   -5.0945 C   0  0  0  0  0  0  0  0  0  0  0  0
   13.3883  -22.6248   -6.3010 O   0  0  0  0  0  0  0  0  0  0  0  0
   14.2056  -21.8171   -6.7878 O   0  0  0  0  0  0  0  0  0  0  0  0
  2  1  1  0
  3  2  2  0
  4  2  1  0
  4  5  1  0
  5  6  1  1
  5  7  1  0
  7  8  2  0
 10  9  1  0
 10 12  1  0
 11 10  2  0
 13 12  1  0
 13 14  1  0
 15 14  1  0
 16 15  1  6
 17  7  1  0
 17 16  1  0
 18 16  1  0
 18 19  2  0
 21 20  1  1
 21 23  1  0
 22 21  1  0
 23 24  1  1
 23 25  1  0
 24 18  1  0
 25 27  1  0
 26 25  2  0
M  END
$$$$
