NRV.pdb
     RDKit          3D

 27 26  0  0  1  0  0  0  0  0999 V2000
   16.6498  -15.1806  -17.5220 N   0  0  0  0  0  0  0  0  0  0  0  0
   16.4278  -13.8646  -18.0602 C   0  0  0  0  0  0  0  0  0  0  0  0
   15.6000  -13.7370  -18.9813 O   0  0  0  0  0  0  0  0  0  0  0  0
   17.2036  -12.7823  -17.4637 C   0  0  0  0  0  0  0  0  0  0  0  0
   17.1523  -11.4604  -18.1774 C   0  0  2  0  0  0  0  0  0  0  0  0
   17.8659  -11.6476  -19.4530 N   0  0  0  0  0  0  0  0  0  0  0  0
   17.8724  -10.4312  -17.3747 C   0  0  0  0  0  0  0  0  0  0  0  0
   17.4820  -10.1379  -16.2260 O   0  0  0  0  0  0  0  0  0  0  0  0
   26.2450   -9.6009  -16.8304 N   0  0  0  0  0  0  0  0  0  0  0  0
   25.3898   -9.6710  -15.6692 C   0  0  0  0  0  0  0  0  0  0  0  0
   25.7853  -10.2399  -14.5868 N   0  0  0  0  0  0  0  0  0  0  0  0
   24.0832   -9.1060  -15.6917 N   0  0  0  0  0  0  0  0  0  0  0  0
   23.5758   -8.4085  -16.8354 C   0  0  0  0  0  0  0  0  0  0  0  0
   22.1324   -7.9384  -16.6680 C   0  0  0  0  0  0  0  0  0  0  0  0
   21.2768   -8.9997  -17.2790 C   0  0  0  0  0  0  0  0  0  0  0  0
   19.8100   -8.7981  -17.2075 C   0  0  2  0  0  0  0  0  0  0  0  0
   19.0130   -9.7742  -17.9162 N   0  0  0  0  0  0  0  0  0  0  0  0
   19.3547   -7.4148  -17.5176 C   0  0  0  0  0  0  0  0  0  0  0  0
   19.4349   -6.9943  -18.7215 O   0  0  0  0  0  0  0  0  0  0  0  0
   25.1521  -10.2755  -13.7681 C   0  0  0  0  0  0  0  0  0  0  0  0
   16.1081   -5.7609  -17.6180 C   0  0  2  0  0  0  0  0  0  0  0  0
   16.9890   -4.8910  -16.7006 C   0  0  0  0  0  0  0  0  0  0  0  0
   16.5186   -5.1456  -15.2930 C   0  0  2  0  0  0  0  0  0  0  0  0
   18.4340   -5.1627  -16.9286 N   0  0  0  0  0  0  0  0  0  0  0  0
   18.8290   -6.5123  -16.5497 C   0  0  0  0  0  0  0  0  0  0  0  0
   19.2750   -4.1789  -16.1263 O   0  0  0  0  0  0  0  0  0  0  0  0
   19.2386   -2.9573  -16.3782 O   0  0  0  0  0  0  0  0  0  0  0  0
  2  1  1  0
  3  2  2  0
  4  2  1  0
  4  5  1  0
  5  6  1  6
  5  7  1  0
  7  8  2  0
 10  9  1  0
 10 12  1  0
 11 10  2  0
 13 12  1  0
 13 14  1  0
 15 14  1  0
 16 15  1  6
 17  7  1  0
 17 16  1  0
 18 16  1  0
 18 19  2  0
 21 20  1  6
 21 23  1  0
 22 21  1  0
 23 24  1  6
 23 25  1  0
 24 18  1  0
 25 27  1  0
 26 25  2  0
M  END
$$$$
