NRV.pdb
     RDKit          3D

 27 26  0  0  1  0  0  0  0  0999 V2000
   29.5870  -23.8498  -16.4749 N   0  0  0  0  0  0  0  0  0  0  0  0
   28.8229  -22.9016  -17.2416 C   0  0  0  0  0  0  0  0  0  0  0  0
   29.3440  -22.4124  -18.2611 O   0  0  0  0  0  0  0  0  0  0  0  0
   27.4839  -22.5989  -16.7473 C   0  0  0  0  0  0  0  0  0  0  0  0
   27.0748  -23.2926  -15.4781 C   0  0  2  0  0  0  0  0  0  0  0  0
   26.8278  -24.7010  -15.8341 N   0  0  0  0  0  0  0  0  0  0  0  0
   25.8048  -22.6989  -14.9716 C   0  0  0  0  0  0  0  0  0  0  0  0
   24.7029  -23.1191  -15.3805 O   0  0  0  0  0  0  0  0  0  0  0  0
   24.3562  -22.0342   -7.6757 N   0  0  0  0  0  0  0  0  0  0  0  0
   23.4299  -21.0231   -8.1276 C   0  0  0  0  0  0  0  0  0  0  0  0
   22.2495  -20.9329   -7.6273 N   0  0  0  0  0  0  0  0  0  0  0  0
   23.8027  -20.0937   -9.1397 N   0  0  0  0  0  0  0  0  0  0  0  0
   25.0708  -20.1592   -9.8026 C   0  0  0  0  0  0  0  0  0  0  0  0
   25.0826  -21.1111  -10.9968 C   0  0  0  0  0  0  0  0  0  0  0  0
   24.8699  -20.2614  -12.2069 C   0  0  0  0  0  0  0  0  0  0  0  0
   24.6746  -20.9698  -13.4943 C   0  0  2  0  0  0  0  0  0  0  0  0
   25.8419  -21.6448  -14.0158 N   0  0  0  0  0  0  0  0  0  0  0  0
   24.0090  -20.1641  -14.5549 C   0  0  0  0  0  0  0  0  0  0  0  0
   24.6471  -19.1906  -15.0818 O   0  0  0  0  0  0  0  0  0  0  0  0
   21.5987  -20.2095   -7.9819 C   0  0  0  0  0  0  0  0  0  0  0  0
   23.0505  -20.8733  -17.9531 C   0  0  2  0  0  0  0  0  0  0  0  0
   21.7783  -20.2895  -17.3089 C   0  0  0  0  0  0  0  0  0  0  0  0
   20.8235  -21.4405  -17.1336 C   0  0  2  0  0  0  0  0  0  0  0  0
   22.0996  -19.5557  -16.0549 N   0  0  0  0  0  0  0  0  0  0  0  0
   22.6885  -20.4060  -15.0297 C   0  0  0  0  0  0  0  0  0  0  0  0
   20.8325  -18.9325  -15.4848 O   0  0  0  0  0  0  0  0  0  0  0  0
   20.3773  -19.3087  -14.3856 O   0  0  0  0  0  0  0  0  0  0  0  0
  2  1  1  0
  3  2  2  0
  4  2  1  0
  4  5  1  0
  5  6  1  6
  5  7  1  0
  7  8  2  0
 10  9  1  0
 10 12  1  0
 11 10  2  0
 13 12  1  0
 13 14  1  0
 15 14  1  0
 16 15  1  1
 17  7  1  0
 17 16  1  0
 18 16  1  0
 18 19  2  0
 21 20  1  6
 21 23  1  0
 22 21  1  0
 23 24  1  6
 23 25  1  0
 24 18  1  0
 25 27  1  0
 26 25  2  0
M  END
$$$$
