NRV.pdb
     RDKit          3D

 27 26  0  0  1  0  0  0  0  0999 V2000
   18.9504  -27.5940   -3.8503 N   0  0  0  0  0  0  0  0  0  0  0  0
   17.7763  -28.0555   -4.5427 C   0  0  0  0  0  0  0  0  0  0  0  0
   17.2888  -29.1516   -4.2095 O   0  0  0  0  0  0  0  0  0  0  0  0
   17.2544  -27.1794   -5.5863 C   0  0  0  0  0  0  0  0  0  0  0  0
   18.0558  -25.9401   -5.8716 C   0  0  2  0  0  0  0  0  0  0  0  0
   17.7699  -24.9976   -4.7756 N   0  0  0  0  0  0  0  0  0  0  0  0
   17.5979  -25.3335   -7.1539 C   0  0  0  0  0  0  0  0  0  0  0  0
   16.5379  -24.6760   -7.1996 O   0  0  0  0  0  0  0  0  0  0  0  0
   20.7664  -22.6381  -15.0527 N   0  0  0  0  0  0  0  0  0  0  0  0
   19.5788  -22.0052  -14.5296 C   0  0  0  0  0  0  0  0  0  0  0  0
   18.9413  -21.1225  -15.2124 N   0  0  0  0  0  0  0  0  0  0  0  0
   19.0789  -22.3465  -13.2409 N   0  0  0  0  0  0  0  0  0  0  0  0
   19.7478  -23.2844  -12.3897 C   0  0  0  0  0  0  0  0  0  0  0  0
   18.8677  -24.4614  -11.9741 C   0  0  0  0  0  0  0  0  0  0  0  0
   19.1971  -24.7414  -10.5442 C   0  0  0  0  0  0  0  0  0  0  0  0
   18.0536  -24.9014   -9.6145 C   0  0  2  0  0  0  0  0  0  0  0  0
   18.3694  -25.5021   -8.3381 N   0  0  0  0  0  0  0  0  0  0  0  0
   16.8459  -25.5328  -10.2143 C   0  0  0  0  0  0  0  0  0  0  0  0
   16.8493  -26.7928  -10.4261 O   0  0  0  0  0  0  0  0  0  0  0  0
   18.0781  -20.7022  -14.8241 C   0  0  0  0  0  0  0  0  0  0  0  0
   13.2483  -25.9220   -9.1452 C   0  0  2  0  0  0  0  0  0  0  0  0
   13.2551  -25.2790  -10.5455 C   0  0  0  0  0  0  0  0  0  0  0  0
   12.8838  -23.8327  -10.3513 C   0  0  2  0  0  0  0  0  0  0  0  0
   14.5582  -25.4966  -11.2300 N   0  0  0  0  0  0  0  0  0  0  0  0
   15.6683  -24.8182  -10.5756 C   0  0  0  0  0  0  0  0  0  0  0  0
   14.4751  -24.9952  -12.6655 O   0  0  0  0  0  0  0  0  0  0  0  0
   15.1696  -24.0299  -13.0436 O   0  0  0  0  0  0  0  0  0  0  0  0
  2  1  1  0
  3  2  2  0
  4  2  1  0
  4  5  1  0
  5  6  1  1
  5  7  1  0
  7  8  2  0
 10  9  1  0
 10 12  1  0
 11 10  2  0
 13 12  1  0
 13 14  1  0
 15 14  1  0
 16 15  1  6
 17  7  1  0
 17 16  1  0
 18 16  1  0
 18 19  2  0
 21 20  1  6
 21 23  1  0
 22 21  1  0
 23 24  1  6
 23 25  1  0
 24 18  1  0
 25 27  1  0
 26 25  2  0
M  END
$$$$
