NRV.pdb
     RDKit          3D

 27 26  0  0  1  0  0  0  0  0999 V2000
   18.7419  -24.0596   -7.2211 N   0  0  0  0  0  0  0  0  0  0  0  0
   18.3851  -23.4420   -8.4709 C   0  0  0  0  0  0  0  0  0  0  0  0
   17.2704  -22.8947   -8.5602 O   0  0  0  0  0  0  0  0  0  0  0  0
   19.3812  -23.5118   -9.5348 C   0  0  0  0  0  0  0  0  0  0  0  0
   18.8538  -23.7666  -10.9191 C   0  0  2  0  0  0  0  0  0  0  0  0
   18.4400  -25.1804  -10.9537 N   0  0  0  0  0  0  0  0  0  0  0  0
   19.9451  -23.5646  -11.9143 C   0  0  0  0  0  0  0  0  0  0  0  0
   20.9270  -24.3346  -11.9412 O   0  0  0  0  0  0  0  0  0  0  0  0
   19.3294  -19.7811  -19.8539 N   0  0  0  0  0  0  0  0  0  0  0  0
   20.7360  -20.0964  -19.7715 C   0  0  0  0  0  0  0  0  0  0  0  0
   21.5158  -19.9204  -20.7778 N   0  0  0  0  0  0  0  0  0  0  0  0
   21.2985  -20.6082  -18.5679 N   0  0  0  0  0  0  0  0  0  0  0  0
   20.4987  -20.8854  -17.4124 C   0  0  0  0  0  0  0  0  0  0  0  0
   21.3066  -21.4088  -16.2267 C   0  0  0  0  0  0  0  0  0  0  0  0
   20.3131  -21.7410  -15.1618 C   0  0  0  0  0  0  0  0  0  0  0  0
   20.8557  -22.2245  -13.8698 C   0  0  2  0  0  0  0  0  0  0  0  0
   19.8734  -22.4878  -12.8424 N   0  0  0  0  0  0  0  0  0  0  0  0
   21.9874  -21.4219  -13.3292 C   0  0  0  0  0  0  0  0  0  0  0  0
   21.7339  -20.3170  -12.7399 O   0  0  0  0  0  0  0  0  0  0  0  0
   22.5136  -20.1876  -20.7032 C   0  0  0  0  0  0  0  0  0  0  0  0
   25.8438  -22.8840  -12.2406 C   0  0  2  0  0  0  0  0  0  0  0  0
   25.1690  -21.5759  -11.7846 C   0  0  0  0  0  0  0  0  0  0  0  0
   26.2599  -20.7130  -11.2078 C   0  0  1  0  0  0  0  0  0  0  0  0
   24.4073  -20.9482  -12.8981 N   0  0  0  0  0  0  0  0  0  0  0  0
   23.3553  -21.8057  -13.4261 C   0  0  0  0  0  0  0  0  0  0  0  0
   25.3552  -20.6023  -14.0386 O   0  0  0  0  0  0  0  0  0  0  0  0
   25.6017  -21.4339  -14.9356 O   0  0  0  0  0  0  0  0  0  0  0  0
  2  1  1  0
  3  2  2  0
  4  2  1  0
  4  5  1  0
  5  6  1  1
  5  7  1  0
  7  8  2  0
 10  9  1  0
 10 12  1  0
 11 10  2  0
 13 12  1  0
 13 14  1  0
 15 14  1  0
 16 15  1  6
 17  7  1  0
 17 16  1  0
 18 16  1  0
 18 19  2  0
 21 20  1  1
 21 23  1  0
 22 21  1  0
 23 24  1  1
 23 25  1  0
 24 18  1  0
 25 27  1  0
 26 25  2  0
M  END
$$$$
