WAV.pdb
     RDKit          3D

 27 28  0  0  1  0  0  0  0  0999 V2000
   27.6678  -22.2859  -10.2338 N   0  0  0  0  0  0  0  0  0  0  0  0
   26.6458  -21.4057   -9.7829 C   0  0  1  0  0  0  0  0  0  0  0  0
   27.1410  -19.9879   -9.5032 C   0  0  0  0  0  0  0  0  0  0  0  0
   28.1877  -19.9693   -8.4695 C   0  0  0  0  0  0  0  0  0  0  0  0
   29.5363  -19.9268   -8.6629 C   0  0  0  0  0  0  0  0  0  0  0  0
   30.1735  -19.9153   -7.4968 N   0  0  0  0  0  0  0  0  0  0  0  0
   29.2173  -19.9504   -6.5323 C   0  0  0  0  0  0  0  0  0  0  0  0
   29.3270  -19.9555   -5.1596 C   0  0  0  0  0  0  0  0  0  0  0  0
   28.2351  -19.9938   -4.3422 C   0  0  0  0  0  0  0  0  0  0  0  0
   26.9892  -20.0275   -4.9421 C   0  0  0  0  0  0  0  0  0  0  0  0
   26.8473  -20.0243   -6.3008 C   0  0  0  0  0  0  0  0  0  0  0  0
   27.9647  -19.9851   -7.1132 C   0  0  0  0  0  0  0  0  0  0  0  0
   25.4486  -21.3169  -10.6175 C   0  0  0  0  0  0  0  0  0  0  0  0
   25.5208  -21.1612  -11.8683 O   0  0  0  0  0  0  0  0  0  0  0  0
   21.7969  -21.8441  -10.0437 C   0  0  0  0  0  0  0  0  0  0  0  0
   22.9308  -21.4168  -10.9311 C   0  0  2  0  0  0  0  0  0  0  0  0
   24.1229  -21.4028  -10.0858 N   0  0  0  0  0  0  0  0  0  0  0  0
   22.6968  -20.1340  -11.6072 C   0  0  0  0  0  0  0  0  0  0  0  0
   22.9224  -19.0311  -11.0369 O   0  0  0  0  0  0  0  0  0  0  0  0
   22.3216  -20.2313  -15.8200 C   0  0  0  0  0  0  0  0  0  0  0  0
   22.7224  -18.9713  -15.0338 C   0  0  2  0  0  0  0  0  0  0  0  0
   24.2194  -19.0429  -14.8535 C   0  0  0  0  0  0  0  0  0  0  0  0
   22.0057  -18.9281  -13.7267 C   0  0  2  0  0  0  0  0  0  0  0  0
   22.2075  -20.1228  -12.9254 N   0  0  0  0  0  0  0  0  0  0  0  0
   20.5336  -18.6986  -13.9308 C   0  0  0  0  0  0  0  0  0  0  0  0
   19.7889  -19.7009  -13.9038 O   0  0  0  0  0  0  0  0  0  0  0  0
   19.9721  -17.4536  -14.1433 O   0  0  0  0  0  0  0  0  0  0  0  0
  2 13  1  0
  2  1  1  6
  3  2  1  0
  4  3  1  0
  5  4  2  0
  6  5  1  0
  7  6  1  0
  7 12  2  0
  8  9  2  0
  8  7  1  0
  9 10  1  0
 10 11  2  0
 12 11  1  0
 12  4  1  0
 13 14  2  0
 16 15  1  1
 17 13  1  0
 17 16  1  0
 18 19  2  0
 18 16  1  0
 21 20  1  1
 21 23  1  0
 22 21  1  0
 23 24  1  6
 24 18  1  0
 25 23  1  0
 26 25  2  0
 27 25  1  0
M  END
$$$$
