WAV.pdb
     RDKit          3D

 27 28  0  0  1  0  0  0  0  0999 V2000
   28.5611  -19.0683  -12.5435 N   0  0  0  0  0  0  0  0  0  0  0  0
   27.7699  -20.1917  -12.9103 C   0  0  1  0  0  0  0  0  0  0  0  0
   26.9586  -20.7710  -11.7527 C   0  0  0  0  0  0  0  0  0  0  0  0
   27.7694  -20.9083  -10.5328 C   0  0  0  0  0  0  0  0  0  0  0  0
   27.4101  -20.5706   -9.2621 C   0  0  0  0  0  0  0  0  0  0  0  0
   28.3953  -20.8415   -8.4123 N   0  0  0  0  0  0  0  0  0  0  0  0
   29.4096  -21.3648   -9.1492 C   0  0  0  0  0  0  0  0  0  0  0  0
   30.6553  -21.8134   -8.7704 C   0  0  0  0  0  0  0  0  0  0  0  0
   31.5529  -22.3136   -9.6681 C   0  0  0  0  0  0  0  0  0  0  0  0
   31.1697  -22.3593  -10.9964 C   0  0  0  0  0  0  0  0  0  0  0  0
   29.9415  -21.9213  -11.4038 C   0  0  0  0  0  0  0  0  0  0  0  0
   29.0451  -21.4178  -10.4804 C   0  0  0  0  0  0  0  0  0  0  0  0
   26.8753  -20.0123  -14.0527 C   0  0  0  0  0  0  0  0  0  0  0  0
   26.2431  -18.9354  -14.2387 O   0  0  0  0  0  0  0  0  0  0  0  0
   25.9023  -22.0639  -17.0270 C   0  0  0  0  0  0  0  0  0  0  0  0
   25.6885  -20.8854  -16.1208 C   0  0  2  0  0  0  0  0  0  0  0  0
   26.6556  -21.0297  -15.0346 N   0  0  0  0  0  0  0  0  0  0  0  0
   24.3067  -20.7568  -15.6398 C   0  0  0  0  0  0  0  0  0  0  0  0
   23.8976  -21.3761  -14.6193 O   0  0  0  0  0  0  0  0  0  0  0  0
   21.8638  -17.6103  -17.2864 C   0  0  0  0  0  0  0  0  0  0  0  0
   21.6601  -18.2495  -15.9020 C   0  0  2  0  0  0  0  0  0  0  0  0
   22.5325  -17.4739  -14.9449 C   0  0  0  0  0  0  0  0  0  0  0  0
   22.0250  -19.6949  -15.9414 C   0  0  2  0  0  0  0  0  0  0  0  0
   23.4064  -19.9244  -16.3281 N   0  0  0  0  0  0  0  0  0  0  0  0
   21.1094  -20.4532  -16.8622 C   0  0  0  0  0  0  0  0  0  0  0  0
   21.5051  -20.6473  -18.0307 O   0  0  0  0  0  0  0  0  0  0  0  0
   19.8711  -20.9387  -16.4859 O   0  0  0  0  0  0  0  0  0  0  0  0
  2 13  1  0
  2  1  1  1
  3  2  1  0
  4  3  1  0
  5  4  2  0
  6  5  1  0
  7  6  1  0
  7 12  2  0
  8  9  2  0
  8  7  1  0
  9 10  1  0
 10 11  2  0
 12 11  1  0
 12  4  1  0
 13 14  2  0
 16 15  1  6
 17 13  1  0
 17 16  1  0
 18 19  2  0
 18 16  1  0
 21 20  1  6
 21 23  1  0
 22 21  1  0
 23 24  1  6
 24 18  1  0
 25 23  1  0
 26 25  2  0
 27 25  1  0
M  END
$$$$
