WAV.pdb
     RDKit          3D

 27 28  0  0  1  0  0  0  0  0999 V2000
   19.5336  -11.7222  -19.1981 N   0  0  0  0  0  0  0  0  0  0  0  0
   19.2659  -11.3415  -17.8543 C   0  0  1  0  0  0  0  0  0  0  0  0
   20.1645  -12.0359  -16.8326 C   0  0  0  0  0  0  0  0  0  0  0  0
   20.1032  -13.5005  -16.9580 C   0  0  0  0  0  0  0  0  0  0  0  0
   20.9858  -14.3095  -17.6094 C   0  0  0  0  0  0  0  0  0  0  0  0
   20.6138  -15.5813  -17.5078 N   0  0  0  0  0  0  0  0  0  0  0  0
   19.4693  -15.5929  -16.7759 C   0  0  0  0  0  0  0  0  0  0  0  0
   18.6704  -16.6409  -16.3761 C   0  0  0  0  0  0  0  0  0  0  0  0
   17.5415  -16.4533  -15.6329 C   0  0  0  0  0  0  0  0  0  0  0  0
   17.2148  -15.1553  -15.2843 C   0  0  0  0  0  0  0  0  0  0  0  0
   17.9863  -14.0945  -15.6662 C   0  0  0  0  0  0  0  0  0  0  0  0
   19.1264  -14.3034  -16.4187 C   0  0  0  0  0  0  0  0  0  0  0  0
   19.2725   -9.9072  -17.5708 C   0  0  0  0  0  0  0  0  0  0  0  0
   20.2368   -9.1670  -17.9117 O   0  0  0  0  0  0  0  0  0  0  0  0
   16.7288   -7.4340  -16.4809 C   0  0  0  0  0  0  0  0  0  0  0  0
   18.1718   -7.7981  -16.6832 C   0  0  2  0  0  0  0  0  0  0  0  0
   18.1981   -9.2434  -16.8979 N   0  0  0  0  0  0  0  0  0  0  0  0
   19.0459   -7.3696  -15.5833 C   0  0  0  0  0  0  0  0  0  0  0  0
   19.3444   -8.1426  -14.6316 O   0  0  0  0  0  0  0  0  0  0  0  0
   22.9121   -4.8468  -14.2392 C   0  0  0  0  0  0  0  0  0  0  0  0
   21.9026   -5.3554  -15.2826 C   0  0  2  0  0  0  0  0  0  0  0  0
   21.8474   -4.3052  -16.3655 C   0  0  0  0  0  0  0  0  0  0  0  0
   20.5701   -5.5727  -14.6493 C   0  0  2  0  0  0  0  0  0  0  0  0
   19.5692   -6.0644  -15.5802 N   0  0  0  0  0  0  0  0  0  0  0  0
   20.0764   -4.3119  -13.9951 C   0  0  0  0  0  0  0  0  0  0  0  0
   19.2756   -3.6063  -14.6437 O   0  0  0  0  0  0  0  0  0  0  0  0
   20.4582   -3.9013  -12.7317 O   0  0  0  0  0  0  0  0  0  0  0  0
  2 13  1  0
  2  1  1  6
  3  2  1  0
  4  3  1  0
  5  4  2  0
  6  5  1  0
  7  6  1  0
  7 12  2  0
  8  9  2  0
  8  7  1  0
  9 10  1  0
 10 11  2  0
 12 11  1  0
 12  4  1  0
 13 14  2  0
 16 15  1  1
 17 13  1  0
 17 16  1  0
 18 19  2  0
 18 16  1  0
 21 20  1  1
 21 23  1  0
 22 21  1  0
 23 24  1  6
 24 18  1  0
 25 23  1  0
 26 25  2  0
 27 25  1  0
M  END
$$$$
