WAV.pdb
     RDKit          3D

 27 28  0  0  1  0  0  0  0  0999 V2000
   24.5187  -22.3247  -12.8434 N   0  0  0  0  0  0  0  0  0  0  0  0
   25.1549  -21.2070  -12.2362 C   0  0  1  0  0  0  0  0  0  0  0  0
   24.1776  -20.1395  -11.7475 C   0  0  0  0  0  0  0  0  0  0  0  0
   23.3504  -19.6135  -12.8444 C   0  0  0  0  0  0  0  0  0  0  0  0
   22.0151  -19.8084  -13.0362 C   0  0  0  0  0  0  0  0  0  0  0  0
   21.6047  -19.1756  -14.1303 N   0  0  0  0  0  0  0  0  0  0  0  0
   22.6965  -18.5598  -14.6542 C   0  0  0  0  0  0  0  0  0  0  0  0
   22.8313  -17.7744  -15.7774 C   0  0  0  0  0  0  0  0  0  0  0  0
   24.0283  -17.2350  -16.1490 C   0  0  0  0  0  0  0  0  0  0  0  0
   25.1253  -17.5035  -15.3505 C   0  0  0  0  0  0  0  0  0  0  0  0
   25.0242  -18.2795  -14.2306 C   0  0  0  0  0  0  0  0  0  0  0  0
   23.8035  -18.8174  -13.8694 C   0  0  0  0  0  0  0  0  0  0  0  0
   26.0922  -21.5010  -11.1533 C   0  0  0  0  0  0  0  0  0  0  0  0
   25.7165  -22.0499  -10.0801 O   0  0  0  0  0  0  0  0  0  0  0  0
   29.7513  -20.9367  -10.5837 C   0  0  0  0  0  0  0  0  0  0  0  0
   28.3777  -21.2645  -10.0724 C   0  0  2  0  0  0  0  0  0  0  0  0
   27.4882  -21.1959  -11.2299 N   0  0  0  0  0  0  0  0  0  0  0  0
   27.9409  -20.4022   -8.9665 C   0  0  0  0  0  0  0  0  0  0  0  0
   27.0957  -19.4805   -9.1359 O   0  0  0  0  0  0  0  0  0  0  0  0
   26.9655  -19.4913   -4.3711 C   0  0  0  0  0  0  0  0  0  0  0  0
   27.3068  -20.4527   -5.5225 C   0  0  2  0  0  0  0  0  0  0  0  0
   27.9929  -21.6408   -4.8930 C   0  0  0  0  0  0  0  0  0  0  0  0
   28.1785  -19.7721   -6.5229 C   0  0  2  0  0  0  0  0  0  0  0  0
   28.4730  -20.5996   -7.6799 N   0  0  0  0  0  0  0  0  0  0  0  0
   29.4627  -19.3128   -5.8894 C   0  0  0  0  0  0  0  0  0  0  0  0
   30.4739  -20.0244   -6.0647 O   0  0  0  0  0  0  0  0  0  0  0  0
   29.5782  -18.1606   -5.1347 O   0  0  0  0  0  0  0  0  0  0  0  0
  2 13  1  0
  2  1  1  1
  3  2  1  0
  4  3  1  0
  5  4  2  0
  6  5  1  0
  7  6  1  0
  7 12  2  0
  8  9  2  0
  8  7  1  0
  9 10  1  0
 10 11  2  0
 12 11  1  0
 12  4  1  0
 13 14  2  0
 16 15  1  6
 17 13  1  0
 17 16  1  0
 18 19  2  0
 18 16  1  0
 21 20  1  1
 21 23  1  0
 22 21  1  0
 23 24  1  6
 24 18  1  0
 25 23  1  0
 26 25  2  0
 27 25  1  0
M  END
$$$$
