WAV.pdb
     RDKit          3D

 27 28  0  0  1  0  0  0  0  0999 V2000
   17.0570  -14.2277    7.9730 N   0  0  0  0  0  0  0  0  0  0  0  0
   17.5198  -15.3930    7.3019 C   0  0  1  0  0  0  0  0  0  0  0  0
   18.8916  -15.2192    6.6526 C   0  0  0  0  0  0  0  0  0  0  0  0
   18.8379  -14.3077    5.4991 C   0  0  0  0  0  0  0  0  0  0  0  0
   19.0807  -12.9665    5.4966 C   0  0  0  0  0  0  0  0  0  0  0  0
   18.9448  -12.4711    4.2709 N   0  0  0  0  0  0  0  0  0  0  0  0
   18.6085  -13.5133    3.4670 C   0  0  0  0  0  0  0  0  0  0  0  0
   18.3524  -13.5572    2.1146 C   0  0  0  0  0  0  0  0  0  0  0  0
   18.0248  -14.7161    1.4730 C   0  0  0  0  0  0  0  0  0  0  0  0
   17.9559  -15.8695    2.2333 C   0  0  0  0  0  0  0  0  0  0  0  0
   18.2035  -15.8586    3.5768 C   0  0  0  0  0  0  0  0  0  0  0  0
   18.5341  -14.6754    4.2098 C   0  0  0  0  0  0  0  0  0  0  0  0
   17.5348  -16.6299    8.0814 C   0  0  0  0  0  0  0  0  0  0  0  0
   18.1788  -16.7257    9.1632 O   0  0  0  0  0  0  0  0  0  0  0  0
   15.7679  -19.9105    7.9363 C   0  0  0  0  0  0  0  0  0  0  0  0
   16.9185  -19.0708    8.4125 C   0  0  2  0  0  0  0  0  0  0  0  0
   16.8265  -17.8077    7.6831 N   0  0  0  0  0  0  0  0  0  0  0  0
   18.2254  -19.7234    8.2591 C   0  0  0  0  0  0  0  0  0  0  0  0
   18.9272  -19.5703    7.2215 O   0  0  0  0  0  0  0  0  0  0  0  0
   21.1618  -19.6442   10.6910 C   0  0  0  0  0  0  0  0  0  0  0  0
   20.7872  -21.1213   10.4806 C   0  0  2  0  0  0  0  0  0  0  0  0
   22.0891  -21.8805   10.3961 C   0  0  0  0  0  0  0  0  0  0  0  0
   19.9710  -21.2761    9.2422 C   0  0  2  0  0  0  0  0  0  0  0  0
   18.7173  -20.5438    9.2897 N   0  0  0  0  0  0  0  0  0  0  0  0
   19.6985  -22.7275    8.9587 C   0  0  0  0  0  0  0  0  0  0  0  0
   18.6549  -23.2183    9.4380 O   0  0  0  0  0  0  0  0  0  0  0  0
   20.5320  -23.5331    8.2058 O   0  0  0  0  0  0  0  0  0  0  0  0
  2 13  1  0
  2  1  1  1
  3  2  1  0
  4  3  1  0
  5  4  2  0
  6  5  1  0
  7  6  1  0
  7 12  2  0
  8  9  2  0
  8  7  1  0
  9 10  1  0
 10 11  2  0
 12 11  1  0
 12  4  1  0
 13 14  2  0
 16 15  1  6
 17 13  1  0
 17 16  1  0
 18 19  2  0
 18 16  1  0
 21 20  1  6
 21 23  1  0
 22 21  1  0
 23 24  1  1
 24 18  1  0
 25 23  1  0
 26 25  2  0
 27 25  1  0
M  END
$$$$
