WAV.pdb
     RDKit          3D

 27 28  0  0  1  0  0  0  0  0999 V2000
    9.6137  -20.2255   -2.3498 N   0  0  0  0  0  0  0  0  0  0  0  0
   10.9522  -20.7061   -2.3469 C   0  0  1  0  0  0  0  0  0  0  0  0
   11.9425  -19.7582   -3.0210 C   0  0  0  0  0  0  0  0  0  0  0  0
   11.6312  -19.5667   -4.4461 C   0  0  0  0  0  0  0  0  0  0  0  0
   10.7444  -18.6825   -4.9843 C   0  0  0  0  0  0  0  0  0  0  0  0
   10.7305  -18.7855   -6.3092 N   0  0  0  0  0  0  0  0  0  0  0  0
   11.6263  -19.7545   -6.6319 C   0  0  0  0  0  0  0  0  0  0  0  0
   12.0021  -20.2569   -7.8578 C   0  0  0  0  0  0  0  0  0  0  0  0
   12.9335  -21.2460   -7.9846 C   0  0  0  0  0  0  0  0  0  0  0  0
   13.5022  -21.7403   -6.8246 C   0  0  0  0  0  0  0  0  0  0  0  0
   13.1500  -21.2634   -5.5938 C   0  0  0  0  0  0  0  0  0  0  0  0
   12.2048  -20.2611   -5.4845 C   0  0  0  0  0  0  0  0  0  0  0  0
   11.5010  -21.0952   -1.0488 C   0  0  0  0  0  0  0  0  0  0  0  0
   11.4675  -20.3189   -0.0537 O   0  0  0  0  0  0  0  0  0  0  0  0
   12.9641  -24.2188    0.3935 C   0  0  0  0  0  0  0  0  0  0  0  0
   12.6771  -22.7471    0.4795 C   0  0  2  0  0  0  0  0  0  0  0  0
   12.1056  -22.3703   -0.8117 N   0  0  0  0  0  0  0  0  0  0  0  0
   13.8498  -21.9397    0.8408 C   0  0  0  0  0  0  0  0  0  0  0  0
   14.6368  -21.4822   -0.0331 O   0  0  0  0  0  0  0  0  0  0  0  0
   13.8885  -18.8530    3.0869 C   0  0  0  0  0  0  0  0  0  0  0  0
   14.8667  -19.8718    3.6965 C   0  0  2  0  0  0  0  0  0  0  0  0
   16.0610  -19.0803    4.1716 C   0  0  0  0  0  0  0  0  0  0  0  0
   15.2457  -20.8959    2.6809 C   0  0  2  0  0  0  0  0  0  0  0  0
   14.1126  -21.6637    2.1943 N   0  0  0  0  0  0  0  0  0  0  0  0
   16.2920  -21.8285    3.2259 C   0  0  0  0  0  0  0  0  0  0  0  0
   17.4343  -21.3600    3.4141 O   0  0  0  0  0  0  0  0  0  0  0  0
   16.0565  -23.1574    3.5244 O   0  0  0  0  0  0  0  0  0  0  0  0
  2 13  1  0
  2  1  1  1
  3  2  1  0
  4  3  1  0
  5  4  2  0
  6  5  1  0
  7  6  1  0
  7 12  2  0
  8  9  2  0
  8  7  1  0
  9 10  1  0
 10 11  2  0
 12 11  1  0
 12  4  1  0
 13 14  2  0
 16 15  1  6
 17 13  1  0
 17 16  1  0
 18 19  2  0
 18 16  1  0
 21 20  1  6
 21 23  1  0
 22 21  1  0
 23 24  1  1
 24 18  1  0
 25 23  1  0
 26 25  2  0
 27 25  1  0
M  END
$$$$
