WAV.pdb
     RDKit          3D

 27 28  0  0  1  0  0  0  0  0999 V2000
   26.7165  -17.7396   -9.4656 N   0  0  0  0  0  0  0  0  0  0  0  0
   26.9371  -19.1373   -9.6072 C   0  0  1  0  0  0  0  0  0  0  0  0
   26.7006  -19.9261   -8.3205 C   0  0  0  0  0  0  0  0  0  0  0  0
   27.5165  -19.4138   -7.2085 C   0  0  0  0  0  0  0  0  0  0  0  0
   27.8349  -18.1139   -6.9507 C   0  0  0  0  0  0  0  0  0  0  0  0
   28.5840  -18.0264   -5.8564 N   0  0  0  0  0  0  0  0  0  0  0  0
   28.7513  -19.2947   -5.3991 C   0  0  0  0  0  0  0  0  0  0  0  0
   29.4373  -19.7705   -4.3039 C   0  0  0  0  0  0  0  0  0  0  0  0
   29.4933  -21.0999   -4.0013 C   0  0  0  0  0  0  0  0  0  0  0  0
   28.8284  -21.9747   -4.8413 C   0  0  0  0  0  0  0  0  0  0  0  0
   28.1398  -21.5339   -5.9359 C   0  0  0  0  0  0  0  0  0  0  0  0
   28.0938  -20.1836   -6.2269 C   0  0  0  0  0  0  0  0  0  0  0  0
   26.2174  -19.8030  -10.6919 C   0  0  0  0  0  0  0  0  0  0  0  0
   24.9644  -19.7079  -10.8143 O   0  0  0  0  0  0  0  0  0  0  0  0
   27.2026  -21.8967  -13.6375 C   0  0  0  0  0  0  0  0  0  0  0  0
   26.2092  -21.0346  -12.9125 C   0  0  2  0  0  0  0  0  0  0  0  0
   26.8720  -20.5983  -11.6852 N   0  0  0  0  0  0  0  0  0  0  0  0
   24.9254  -21.7020  -12.6602 C   0  0  0  0  0  0  0  0  0  0  0  0
   24.8195  -22.6488  -11.8327 O   0  0  0  0  0  0  0  0  0  0  0  0
   21.3306  -20.0214  -14.4529 C   0  0  0  0  0  0  0  0  0  0  0  0
   21.3810  -20.7904  -13.1215 C   0  0  2  0  0  0  0  0  0  0  0  0
   21.6456  -19.7624  -12.0484 C   0  0  0  0  0  0  0  0  0  0  0  0
   22.4455  -21.8339  -13.1675 C   0  0  2  0  0  0  0  0  0  0  0  0
   23.7766  -21.2832  -13.3548 N   0  0  0  0  0  0  0  0  0  0  0  0
   22.1594  -22.8432  -14.2448 C   0  0  0  0  0  0  0  0  0  0  0  0
   22.8100  -22.7471  -15.3066 O   0  0  0  0  0  0  0  0  0  0  0  0
   21.2273  -23.8563  -14.1209 O   0  0  0  0  0  0  0  0  0  0  0  0
  2 13  1  0
  2  1  1  1
  3  2  1  0
  4  3  1  0
  5  4  2  0
  6  5  1  0
  7  6  1  0
  7 12  2  0
  8  9  2  0
  8  7  1  0
  9 10  1  0
 10 11  2  0
 12 11  1  0
 12  4  1  0
 13 14  2  0
 16 15  1  1
 17 13  1  0
 17 16  1  0
 18 19  2  0
 18 16  1  0
 21 20  1  6
 21 23  1  0
 22 21  1  0
 23 24  1  6
 24 18  1  0
 25 23  1  0
 26 25  2  0
 27 25  1  0
M  END
$$$$
