WAV.pdb
     RDKit          3D

 27 28  0  0  1  0  0  0  0  0999 V2000
   28.0951  -19.8268  -10.2224 N   0  0  0  0  0  0  0  0  0  0  0  0
   27.1294  -20.8708  -10.2094 C   0  0  1  0  0  0  0  0  0  0  0  0
   26.3760  -20.9888   -8.8858 C   0  0  0  0  0  0  0  0  0  0  0  0
   26.9511  -20.1158   -7.8506 C   0  0  0  0  0  0  0  0  0  0  0  0
   26.8722  -18.7568   -7.7817 C   0  0  0  0  0  0  0  0  0  0  0  0
   27.5051  -18.3079   -6.7028 N   0  0  0  0  0  0  0  0  0  0  0  0
   28.0013  -19.3988   -6.0629 C   0  0  0  0  0  0  0  0  0  0  0  0
   28.7340  -19.5018   -4.9014 C   0  0  0  0  0  0  0  0  0  0  0  0
   29.1494  -20.7038   -4.4070 C   0  0  0  0  0  0  0  0  0  0  0  0
   28.8072  -21.8396   -5.1183 C   0  0  0  0  0  0  0  0  0  0  0  0
   28.0820  -21.7705   -6.2740 C   0  0  0  0  0  0  0  0  0  0  0  0
   27.6696  -20.5442   -6.7598 C   0  0  0  0  0  0  0  0  0  0  0  0
   26.1505  -20.8651  -11.2954 C   0  0  0  0  0  0  0  0  0  0  0  0
   25.3797  -19.8842  -11.4899 O   0  0  0  0  0  0  0  0  0  0  0  0
   25.2411  -23.2090  -14.0702 C   0  0  0  0  0  0  0  0  0  0  0  0
   24.9837  -21.9698  -13.2615 C   0  0  2  0  0  0  0  0  0  0  0  0
   25.9978  -21.9555  -12.2093 N   0  0  0  0  0  0  0  0  0  0  0  0
   23.6151  -21.8854  -12.7349 C   0  0  0  0  0  0  0  0  0  0  0  0
   23.3829  -21.8050  -11.4971 O   0  0  0  0  0  0  0  0  0  0  0  0
   22.1642  -19.5708  -11.7982 C   0  0  0  0  0  0  0  0  0  0  0  0
   21.3621  -19.7979  -13.0911 C   0  0  2  0  0  0  0  0  0  0  0  0
   20.0134  -19.1569  -12.8709 C   0  0  0  0  0  0  0  0  0  0  0  0
   21.2451  -21.2569  -13.3770 C   0  0  2  0  0  0  0  0  0  0  0  0
   22.5266  -21.8944  -13.6251 N   0  0  0  0  0  0  0  0  0  0  0  0
   20.3245  -21.5022  -14.5405 C   0  0  0  0  0  0  0  0  0  0  0  0
   20.7527  -21.2185  -15.6789 O   0  0  0  0  0  0  0  0  0  0  0  0
   19.0483  -22.0180  -14.4152 O   0  0  0  0  0  0  0  0  0  0  0  0
  2 13  1  0
  2  1  1  1
  3  2  1  0
  4  3  1  0
  5  4  2  0
  6  5  1  0
  7  6  1  0
  7 12  2  0
  8  9  2  0
  8  7  1  0
  9 10  1  0
 10 11  2  0
 12 11  1  0
 12  4  1  0
 13 14  2  0
 16 15  1  1
 17 13  1  0
 17 16  1  0
 18 19  2  0
 18 16  1  0
 21 20  1  1
 21 23  1  0
 22 21  1  0
 23 24  1  6
 24 18  1  0
 25 23  1  0
 26 25  2  0
 27 25  1  0
M  END
$$$$
