WAV.pdb
     RDKit          3D

 27 28  0  0  1  0  0  0  0  0999 V2000
   27.8487  -19.3222  -10.2888 N   0  0  0  0  0  0  0  0  0  0  0  0
   26.9234  -20.3625   -9.9987 C   0  0  1  0  0  0  0  0  0  0  0  0
   26.3487  -20.2916   -8.5851 C   0  0  0  0  0  0  0  0  0  0  0  0
   27.3118  -19.7177   -7.6325 C   0  0  0  0  0  0  0  0  0  0  0  0
   28.1255  -18.6422   -7.8304 C   0  0  0  0  0  0  0  0  0  0  0  0
   28.8575  -18.4067   -6.7465 N   0  0  0  0  0  0  0  0  0  0  0  0
   28.5086  -19.3482   -5.8313 C   0  0  0  0  0  0  0  0  0  0  0  0
   28.9578  -19.5613   -4.5471 C   0  0  0  0  0  0  0  0  0  0  0  0
   28.4810  -20.5749   -3.7679 C   0  0  0  0  0  0  0  0  0  0  0  0
   27.5140  -21.3994   -4.3139 C   0  0  0  0  0  0  0  0  0  0  0  0
   27.0485  -21.2146   -5.5849 C   0  0  0  0  0  0  0  0  0  0  0  0
   27.5429  -20.1825   -6.3597 C   0  0  0  0  0  0  0  0  0  0  0  0
   25.8142  -20.5269  -10.9370 C   0  0  0  0  0  0  0  0  0  0  0  0
   24.9678  -19.6106  -11.1321 O   0  0  0  0  0  0  0  0  0  0  0  0
   24.7459  -23.2037  -13.3292 C   0  0  0  0  0  0  0  0  0  0  0  0
   24.5732  -21.8420  -12.7197 C   0  0  2  0  0  0  0  0  0  0  0  0
   25.6103  -21.7220  -11.6970 N   0  0  0  0  0  0  0  0  0  0  0  0
   23.2234  -21.6006  -12.1931 C   0  0  0  0  0  0  0  0  0  0  0  0
   22.9089  -21.8988  -11.0079 O   0  0  0  0  0  0  0  0  0  0  0  0
   20.5725  -19.0942  -14.4454 C   0  0  0  0  0  0  0  0  0  0  0  0
   20.4152  -19.3875  -12.9435 C   0  0  2  0  0  0  0  0  0  0  0  0
   21.2423  -18.3520  -12.2209 C   0  0  0  0  0  0  0  0  0  0  0  0
   20.8686  -20.7748  -12.6376 C   0  0  2  0  0  0  0  0  0  0  0  0
   22.2469  -21.0229  -13.0238 N   0  0  0  0  0  0  0  0  0  0  0  0
   19.9700  -21.7880  -13.2913 C   0  0  0  0  0  0  0  0  0  0  0  0
   18.8305  -21.9414  -12.8038 O   0  0  0  0  0  0  0  0  0  0  0  0
   20.3362  -22.5461  -14.3876 O   0  0  0  0  0  0  0  0  0  0  0  0
  2 13  1  0
  2  1  1  6
  3  2  1  0
  4  3  1  0
  5  4  2  0
  6  5  1  0
  7  6  1  0
  7 12  2  0
  8  9  2  0
  8  7  1  0
  9 10  1  0
 10 11  2  0
 12 11  1  0
 12  4  1  0
 13 14  2  0
 16 15  1  1
 17 13  1  0
 17 16  1  0
 18 19  2  0
 18 16  1  0
 21 20  1  6
 21 23  1  0
 22 21  1  0
 23 24  1  6
 24 18  1  0
 25 23  1  0
 26 25  2  0
 27 25  1  0
M  END
$$$$
