WAV.pdb
     RDKit          3D

 27 28  0  0  1  0  0  0  0  0999 V2000
   23.8660  -17.5972  -15.2859 N   0  0  0  0  0  0  0  0  0  0  0  0
   23.7686  -18.9751  -15.6243 C   0  0  1  0  0  0  0  0  0  0  0  0
   23.3501  -19.2197  -17.0730 C   0  0  0  0  0  0  0  0  0  0  0  0
   22.2084  -18.3771  -17.4610 C   0  0  0  0  0  0  0  0  0  0  0  0
   22.2337  -17.2697  -18.2553 C   0  0  0  0  0  0  0  0  0  0  0  0
   21.0109  -16.7680  -18.3936 N   0  0  0  0  0  0  0  0  0  0  0  0
   20.1805  -17.5677  -17.6750 C   0  0  0  0  0  0  0  0  0  0  0  0
   18.8190  -17.5020  -17.4785 C   0  0  0  0  0  0  0  0  0  0  0  0
   18.1495  -18.4103  -16.7114 C   0  0  0  0  0  0  0  0  0  0  0  0
   18.8905  -19.4202  -16.1246 C   0  0  0  0  0  0  0  0  0  0  0  0
   20.2423  -19.5121  -16.2996 C   0  0  0  0  0  0  0  0  0  0  0  0
   20.9037  -18.5831  -17.0802 C   0  0  0  0  0  0  0  0  0  0  0  0
   24.9425  -19.7993  -15.3407 C   0  0  0  0  0  0  0  0  0  0  0  0
   25.0062  -21.0092  -15.6956 O   0  0  0  0  0  0  0  0  0  0  0  0
   28.4313  -19.2598  -14.2784 C   0  0  0  0  0  0  0  0  0  0  0  0
   27.2224  -20.1510  -14.2796 C   0  0  2  0  0  0  0  0  0  0  0  0
   26.0935  -19.3009  -14.6518 N   0  0  0  0  0  0  0  0  0  0  0  0
   27.0103  -20.8554  -13.0082 C   0  0  0  0  0  0  0  0  0  0  0  0
   27.7541  -21.8072  -12.6434 O   0  0  0  0  0  0  0  0  0  0  0  0
   25.9681  -20.9968   -8.4025 C   0  0  0  0  0  0  0  0  0  0  0  0
   26.2952  -20.3104   -9.7398 C   0  0  2  0  0  0  0  0  0  0  0  0
   25.7714  -18.8990   -9.6308 C   0  0  0  0  0  0  0  0  0  0  0  0
   25.6647  -21.0526  -10.8693 C   0  0  2  0  0  0  0  0  0  0  0  0
   25.9519  -20.4674  -12.1675 N   0  0  0  0  0  0  0  0  0  0  0  0
   24.1766  -21.1543  -10.6785 C   0  0  0  0  0  0  0  0  0  0  0  0
   23.7695  -21.6536   -9.6085 O   0  0  0  0  0  0  0  0  0  0  0  0
   23.2511  -20.7295  -11.6131 O   0  0  0  0  0  0  0  0  0  0  0  0
  2 13  1  0
  2  1  1  6
  3  2  1  0
  4  3  1  0
  5  4  2  0
  6  5  1  0
  7  6  1  0
  7 12  2  0
  8  9  2  0
  8  7  1  0
  9 10  1  0
 10 11  2  0
 12 11  1  0
 12  4  1  0
 13 14  2  0
 16 15  1  1
 17 13  1  0
 17 16  1  0
 18 19  2  0
 18 16  1  0
 21 20  1  1
 21 23  1  0
 22 21  1  0
 23 24  1  6
 24 18  1  0
 25 23  1  0
 26 25  2  0
 27 25  1  0
M  END
$$$$
