WAV.pdb
     RDKit          3D

 27 28  0  0  1  0  0  0  0  0999 V2000
   25.4570  -18.9664  -11.4656 N   0  0  0  0  0  0  0  0  0  0  0  0
   26.4296  -19.9601  -11.7642 C   0  0  1  0  0  0  0  0  0  0  0  0
   26.2536  -21.2474  -10.9608 C   0  0  0  0  0  0  0  0  0  0  0  0
   26.1175  -20.9778   -9.5209 C   0  0  0  0  0  0  0  0  0  0  0  0
   24.9898  -21.0926   -8.7640 C   0  0  0  0  0  0  0  0  0  0  0  0
   25.2434  -20.7723   -7.4994 N   0  0  0  0  0  0  0  0  0  0  0  0
   26.5606  -20.4452   -7.4393 C   0  0  0  0  0  0  0  0  0  0  0  0
   27.3375  -20.0419   -6.3762 C   0  0  0  0  0  0  0  0  0  0  0  0
   28.6640  -19.7528   -6.5123 C   0  0  0  0  0  0  0  0  0  0  0  0
   29.2190  -19.8788   -7.7730 C   0  0  0  0  0  0  0  0  0  0  0  0
   28.4748  -20.2759   -8.8477 C   0  0  0  0  0  0  0  0  0  0  0  0
   27.1324  -20.5647   -8.6909 C   0  0  0  0  0  0  0  0  0  0  0  0
   26.5838  -20.3167  -13.1738 C   0  0  0  0  0  0  0  0  0  0  0  0
   25.7333  -19.9755  -14.0422 O   0  0  0  0  0  0  0  0  0  0  0  0
   29.4596  -21.7090  -15.1139 C   0  0  0  0  0  0  0  0  0  0  0  0
   28.1269  -21.0182  -15.0643 C   0  0  2  0  0  0  0  0  0  0  0  0
   27.6981  -21.0660  -13.6680 N   0  0  0  0  0  0  0  0  0  0  0  0
   27.1346  -21.5887  -15.9848 C   0  0  0  0  0  0  0  0  0  0  0  0
   26.5625  -22.6882  -15.7475 O   0  0  0  0  0  0  0  0  0  0  0  0
   25.4021  -18.9442  -18.7217 C   0  0  0  0  0  0  0  0  0  0  0  0
   24.7504  -20.2915  -18.3660 C   0  0  2  0  0  0  0  0  0  0  0  0
   23.9076  -20.0433  -17.1386 C   0  0  0  0  0  0  0  0  0  0  0  0
   25.7984  -21.3241  -18.1223 C   0  0  2  0  0  0  0  0  0  0  0  0
   26.8061  -20.8999  -17.1658 N   0  0  0  0  0  0  0  0  0  0  0  0
   26.4616  -21.7279  -19.4101 C   0  0  0  0  0  0  0  0  0  0  0  0
   25.7966  -22.4295  -20.2010 O   0  0  0  0  0  0  0  0  0  0  0  0
   27.7500  -21.3671  -19.7571 O   0  0  0  0  0  0  0  0  0  0  0  0
  2 13  1  0
  2  1  1  6
  3  2  1  0
  4  3  1  0
  5  4  2  0
  6  5  1  0
  7  6  1  0
  7 12  2  0
  8  9  2  0
  8  7  1  0
  9 10  1  0
 10 11  2  0
 12 11  1  0
 12  4  1  0
 13 14  2  0
 16 15  1  1
 17 13  1  0
 17 16  1  0
 18 19  2  0
 18 16  1  0
 21 20  1  1
 21 23  1  0
 22 21  1  0
 23 24  1  1
 24 18  1  0
 25 23  1  0
 26 25  2  0
 27 25  1  0
M  END
$$$$
