WAV.pdb
     RDKit          3D

 27 28  0  0  1  0  0  0  0  0999 V2000
   26.5770  -19.6479  -11.8268 N   0  0  0  0  0  0  0  0  0  0  0  0
   25.6907  -20.7597  -11.7976 C   0  0  1  0  0  0  0  0  0  0  0  0
   25.6157  -21.4449  -10.4344 C   0  0  0  0  0  0  0  0  0  0  0  0
   26.5896  -20.8820   -9.4862 C   0  0  0  0  0  0  0  0  0  0  0  0
   26.3361  -20.0298   -8.4531 C   0  0  0  0  0  0  0  0  0  0  0  0
   27.4588  -19.7369   -7.8052 N   0  0  0  0  0  0  0  0  0  0  0  0
   28.4559  -20.4139   -8.4322 C   0  0  0  0  0  0  0  0  0  0  0  0
   29.8070  -20.4664   -8.1713 C   0  0  0  0  0  0  0  0  0  0  0  0
   30.6651  -21.2146   -8.9234 C   0  0  0  0  0  0  0  0  0  0  0  0
   30.1301  -21.9342   -9.9766 C   0  0  0  0  0  0  0  0  0  0  0  0
   28.7944  -21.9022  -10.2615 C   0  0  0  0  0  0  0  0  0  0  0  0
   27.9400  -21.1388   -9.4887 C   0  0  0  0  0  0  0  0  0  0  0  0
   24.3266  -20.5167  -12.2644 C   0  0  0  0  0  0  0  0  0  0  0  0
   23.5935  -19.6313  -11.7422 O   0  0  0  0  0  0  0  0  0  0  0  0
   23.5345  -19.3837  -14.7777 C   0  0  0  0  0  0  0  0  0  0  0  0
   22.8430  -20.6365  -14.3217 C   0  0  2  0  0  0  0  0  0  0  0  0
   23.7299  -21.2525  -13.3369 N   0  0  0  0  0  0  0  0  0  0  0  0
   22.4913  -21.5467  -15.4195 C   0  0  0  0  0  0  0  0  0  0  0  0
   21.8279  -21.1568  -16.4197 O   0  0  0  0  0  0  0  0  0  0  0  0
   21.6625  -26.4834  -15.4657 C   0  0  0  0  0  0  0  0  0  0  0  0
   22.5519  -25.3021  -15.0417 C   0  0  2  0  0  0  0  0  0  0  0  0
   22.5269  -25.2734  -13.5327 C   0  0  0  0  0  0  0  0  0  0  0  0
   22.0395  -24.0318  -15.6313 C   0  0  2  0  0  0  0  0  0  0  0  0
   22.8990  -22.8914  -15.3645 N   0  0  0  0  0  0  0  0  0  0  0  0
   20.6466  -23.7399  -15.1457 C   0  0  0  0  0  0  0  0  0  0  0  0
   19.7113  -23.9047  -15.9568 O   0  0  0  0  0  0  0  0  0  0  0  0
   20.3539  -23.3053  -13.8666 O   0  0  0  0  0  0  0  0  0  0  0  0
  2 13  1  0
  2  1  1  1
  3  2  1  0
  4  3  1  0
  5  4  2  0
  6  5  1  0
  7  6  1  0
  7 12  2  0
  8  9  2  0
  8  7  1  0
  9 10  1  0
 10 11  2  0
 12 11  1  0
 12  4  1  0
 13 14  2  0
 16 15  1  6
 17 13  1  0
 17 16  1  0
 18 19  2  0
 18 16  1  0
 21 20  1  6
 21 23  1  0
 22 21  1  0
 23 24  1  1
 24 18  1  0
 25 23  1  0
 26 25  2  0
 27 25  1  0
M  END
$$$$
