WAV.pdb
     RDKit          3D

 27 28  0  0  1  0  0  0  0  0999 V2000
   26.7027  -19.7880  -11.6162 N   0  0  0  0  0  0  0  0  0  0  0  0
   26.2206  -21.1258  -11.6007 C   0  0  1  0  0  0  0  0  0  0  0  0
   25.7868  -21.6023  -10.2156 C   0  0  0  0  0  0  0  0  0  0  0  0
   26.6752  -21.0920   -9.1599 C   0  0  0  0  0  0  0  0  0  0  0  0
   26.3181  -20.3719   -8.0591 C   0  0  0  0  0  0  0  0  0  0  0  0
   27.3865  -20.0888   -7.3213 N   0  0  0  0  0  0  0  0  0  0  0  0
   28.4536  -20.6377   -7.9582 C   0  0  0  0  0  0  0  0  0  0  0  0
   29.7905  -20.6430   -7.6279 C   0  0  0  0  0  0  0  0  0  0  0  0
   30.7297  -21.2568   -8.4045 C   0  0  0  0  0  0  0  0  0  0  0  0
   30.2937  -21.8869   -9.5560 C   0  0  0  0  0  0  0  0  0  0  0  0
   28.9746  -21.8985   -9.9115 C   0  0  0  0  0  0  0  0  0  0  0  0
   28.0372  -21.2717   -9.1125 C   0  0  0  0  0  0  0  0  0  0  0  0
   25.1550  -21.4445  -12.5498 C   0  0  0  0  0  0  0  0  0  0  0  0
   24.2711  -20.5997  -12.8645 O   0  0  0  0  0  0  0  0  0  0  0  0
   24.3377  -24.3857  -14.7177 C   0  0  0  0  0  0  0  0  0  0  0  0
   24.0363  -23.0038  -14.2126 C   0  0  2  0  0  0  0  0  0  0  0  0
   25.0386  -22.7202  -13.1875 N   0  0  0  0  0  0  0  0  0  0  0  0
   22.6605  -22.8437  -13.7237 C   0  0  0  0  0  0  0  0  0  0  0  0
   22.3537  -23.0602  -12.5189 O   0  0  0  0  0  0  0  0  0  0  0  0
   20.2742  -19.8193  -14.7128 C   0  0  0  0  0  0  0  0  0  0  0  0
   19.5897  -21.1630  -15.0170 C   0  0  2  0  0  0  0  0  0  0  0  0
   18.1418  -20.9995  -14.6230 C   0  0  0  0  0  0  0  0  0  0  0  0
   20.2520  -22.2635  -14.2593 C   0  0  2  0  0  0  0  0  0  0  0  0
   21.6497  -22.4396  -14.6138 N   0  0  0  0  0  0  0  0  0  0  0  0
   19.5154  -23.5611  -14.4466 C   0  0  0  0  0  0  0  0  0  0  0  0
   19.7642  -24.2166  -15.4800 O   0  0  0  0  0  0  0  0  0  0  0  0
   18.5912  -24.0569  -13.5462 O   0  0  0  0  0  0  0  0  0  0  0  0
  2 13  1  0
  2  1  1  1
  3  2  1  0
  4  3  1  0
  5  4  2  0
  6  5  1  0
  7  6  1  0
  7 12  2  0
  8  9  2  0
  8  7  1  0
  9 10  1  0
 10 11  2  0
 12 11  1  0
 12  4  1  0
 13 14  2  0
 16 15  1  1
 17 13  1  0
 17 16  1  0
 18 19  2  0
 18 16  1  0
 21 20  1  1
 21 23  1  0
 22 21  1  0
 23 24  1  6
 24 18  1  0
 25 23  1  0
 26 25  2  0
 27 25  1  0
M  END
$$$$
