WAV.pdb
     RDKit          3D

 27 28  0  0  1  0  0  0  0  0999 V2000
   40.7188   -8.4996   -6.2309 N   0  0  0  0  0  0  0  0  0  0  0  0
   39.7676   -7.6873   -6.9075 C   0  0  1  0  0  0  0  0  0  0  0  0
   38.3208   -8.1189   -6.6747 C   0  0  0  0  0  0  0  0  0  0  0  0
   38.0672   -9.4755   -7.1841 C   0  0  0  0  0  0  0  0  0  0  0  0
   37.9997  -10.6284   -6.4602 C   0  0  0  0  0  0  0  0  0  0  0  0
   37.7473  -11.6630   -7.2552 N   0  0  0  0  0  0  0  0  0  0  0  0
   37.6494  -11.1677   -8.5164 C   0  0  0  0  0  0  0  0  0  0  0  0
   37.3996  -11.8022   -9.7129 C   0  0  0  0  0  0  0  0  0  0  0  0
   37.3377  -11.1260  -10.8964 C   0  0  0  0  0  0  0  0  0  0  0  0
   37.5363   -9.7576  -10.8612 C   0  0  0  0  0  0  0  0  0  0  0  0
   37.7869   -9.0992   -9.6907 C   0  0  0  0  0  0  0  0  0  0  0  0
   37.8458   -9.8006   -8.5013 C   0  0  0  0  0  0  0  0  0  0  0  0
   39.8595   -6.2467   -6.6749 C   0  0  0  0  0  0  0  0  0  0  0  0
   39.9709   -5.7674   -5.5122 O   0  0  0  0  0  0  0  0  0  0  0  0
   40.3721   -3.2343   -8.7882 C   0  0  0  0  0  0  0  0  0  0  0  0
   39.9050   -3.8451   -7.4981 C   0  0  2  0  0  0  0  0  0  0  0  0
   39.8344   -5.2856   -7.7346 N   0  0  0  0  0  0  0  0  0  0  0  0
   38.6385   -3.2857   -7.0075 C   0  0  0  0  0  0  0  0  0  0  0  0
   37.5252   -3.6476   -7.4786 O   0  0  0  0  0  0  0  0  0  0  0  0
   38.7682   -0.7959   -3.4625 C   0  0  0  0  0  0  0  0  0  0  0  0
   37.5807   -1.6848   -3.8699 C   0  0  2  0  0  0  0  0  0  0  0  0
   37.8369   -3.0406   -3.2579 C   0  0  0  0  0  0  0  0  0  0  0  0
   37.4743   -1.7558   -5.3558 C   0  0  2  0  0  0  0  0  0  0  0  0
   38.6555   -2.3193   -5.9862 N   0  0  0  0  0  0  0  0  0  0  0  0
   37.1892   -0.3987   -5.9374 C   0  0  0  0  0  0  0  0  0  0  0  0
   38.1422    0.2072   -6.4706 O   0  0  0  0  0  0  0  0  0  0  0  0
   35.9447    0.2023   -5.9120 O   0  0  0  0  0  0  0  0  0  0  0  0
  2 13  1  0
  2  1  1  1
  3  2  1  0
  4  3  1  0
  5  4  2  0
  6  5  1  0
  7  6  1  0
  7 12  2  0
  8  9  2  0
  8  7  1  0
  9 10  1  0
 10 11  2  0
 12 11  1  0
 12  4  1  0
 13 14  2  0
 16 15  1  6
 17 13  1  0
 17 16  1  0
 18 19  2  0
 18 16  1  0
 21 20  1  6
 21 23  1  0
 22 21  1  0
 23 24  1  6
 24 18  1  0
 25 23  1  0
 26 25  2  0
 27 25  1  0
M  END
$$$$
