VDV.pdb
     RDKit          3D

 23 22  0  0  1  0  0  0  0  0999 V2000
   18.0735  -11.9087    9.2308 C   0  0  0  0  0  0  0  0  0  0  0  0
   18.6575  -10.7207    9.9928 C   0  0  2  0  0  0  0  0  0  0  0  0
   17.6227   -9.6225   10.0879 C   0  0  0  0  0  0  0  0  0  0  0  0
   19.9218  -10.2400    9.3089 C   0  0  2  0  0  0  0  0  0  0  0  0
   19.5858   -9.7601    7.9874 N   0  0  0  0  0  0  0  0  0  0  0  0
   20.9788  -11.2712    9.2778 C   0  0  0  0  0  0  0  0  0  0  0  0
   21.4054  -11.7959    8.2283 O   0  0  0  0  0  0  0  0  0  0  0  0
   21.5746  -11.7222   10.5058 N   0  0  0  0  0  0  0  0  0  0  0  0
   22.6855  -12.6643   10.4961 C   0  0  1  0  0  0  0  0  0  0  0  0
   23.7524  -12.3052   11.5074 C   0  0  0  0  0  0  0  0  0  0  0  0
   24.7377  -11.3307   10.9823 C   0  0  0  0  0  0  0  0  0  0  0  0
   24.7452  -11.0698    9.7542 O   0  0  0  0  0  0  0  0  0  0  0  0
   22.1655  -14.0207   10.7508 C   0  0  0  0  0  0  0  0  0  0  0  0
   21.2568  -14.1938   11.5698 O   0  0  0  0  0  0  0  0  0  0  0  0
   25.6596  -10.6844   11.7732 O   0  0  0  0  0  0  0  0  0  0  0  0
   22.7296  -17.3484    8.0281 C   0  0  0  0  0  0  0  0  0  0  0  0
   21.7269  -17.2382    9.1260 C   0  0  2  0  0  0  0  0  0  0  0  0
   20.5143  -16.5097    8.6203 C   0  0  0  0  0  0  0  0  0  0  0  0
   22.2300  -16.5154   10.3498 C   0  0  2  0  0  0  0  0  0  0  0  0
   22.6709  -15.1801   10.0818 N   0  0  0  0  0  0  0  0  0  0  0  0
   23.2019  -17.3191   11.1182 C   0  0  0  0  0  0  0  0  0  0  0  0
   24.3899  -16.9187   11.1718 O   0  0  0  0  0  0  0  0  0  0  0  0
   22.9153  -18.4935   11.7954 O   0  0  0  0  0  0  0  0  0  0  0  0
  2  1  1  6
  2  3  1  0
  4  6  1  0
  4  2  1  0
  4  5  1  6
  6  7  2  0
  6  8  1  0
  8  9  1  0
  9 13  1  0
  9 10  1  1
 11 10  1  0
 12 11  2  0
 13 14  2  0
 13 20  1  0
 15 11  1  0
 17 16  1  6
 17 18  1  0
 19 21  1  0
 19 17  1  0
 19 20  1  6
 21 23  1  0
 22 21  2  0
M  END
$$$$
