VDV.pdb
     RDKit          3D

 23 22  0  0  1  0  0  0  0  0999 V2000
   18.8161  -12.0817  -20.1200 C   0  0  0  0  0  0  0  0  0  0  0  0
   19.0852  -12.8491  -18.8271 C   0  0  2  0  0  0  0  0  0  0  0  0
   17.8041  -12.9682  -18.0332 C   0  0  0  0  0  0  0  0  0  0  0  0
   20.1734  -12.1553  -18.0322 C   0  0  2  0  0  0  0  0  0  0  0  0
   20.6517  -13.0564  -17.0079 N   0  0  0  0  0  0  0  0  0  0  0  0
   19.7333  -10.8595  -17.4765 C   0  0  0  0  0  0  0  0  0  0  0  0
   19.4322   -9.8707  -18.1768 O   0  0  0  0  0  0  0  0  0  0  0  0
   19.6338  -10.6885  -16.0528 N   0  0  0  0  0  0  0  0  0  0  0  0
   19.1880   -9.4251  -15.4807 C   0  0  1  0  0  0  0  0  0  0  0  0
   18.2163   -9.6229  -14.3376 C   0  0  0  0  0  0  0  0  0  0  0  0
   16.9180  -10.1861  -14.7776 C   0  0  0  0  0  0  0  0  0  0  0  0
   16.1677   -9.4946  -15.5090 O   0  0  0  0  0  0  0  0  0  0  0  0
   20.3665   -8.6600  -15.0327 C   0  0  0  0  0  0  0  0  0  0  0  0
   21.2787   -9.2259  -14.4210 O   0  0  0  0  0  0  0  0  0  0  0  0
   16.4790  -11.4419  -14.4264 O   0  0  0  0  0  0  0  0  0  0  0  0
   23.7228   -5.3187  -15.8402 C   0  0  0  0  0  0  0  0  0  0  0  0
   22.4981   -6.1068  -16.1598 C   0  0  2  0  0  0  0  0  0  0  0  0
   21.6106   -5.3008  -17.0651 C   0  0  0  0  0  0  0  0  0  0  0  0
   21.6913   -6.5090  -14.9512 C   0  0  2  0  0  0  0  0  0  0  0  0
   20.5149   -7.2576  -15.2749 N   0  0  0  0  0  0  0  0  0  0  0  0
   21.4418   -5.3751  -14.0385 C   0  0  0  0  0  0  0  0  0  0  0  0
   20.2935   -4.8693  -14.0233 O   0  0  0  0  0  0  0  0  0  0  0  0
   22.3759   -4.8111  -13.1846 O   0  0  0  0  0  0  0  0  0  0  0  0
  2  1  1  6
  2  3  1  0
  4  6  1  0
  4  2  1  0
  4  5  1  1
  6  7  2  0
  6  8  1  0
  8  9  1  0
  9 13  1  0
  9 10  1  1
 11 10  1  0
 12 11  2  0
 13 14  2  0
 13 20  1  0
 15 11  1  0
 17 16  1  1
 17 18  1  0
 19 21  1  0
 19 17  1  0
 19 20  1  6
 21 23  1  0
 22 21  2  0
M  END
$$$$
