VDV.pdb
     RDKit          3D

 23 22  0  0  1  0  0  0  0  0999 V2000
   18.1458  -11.6945  -16.8429 C   0  0  0  0  0  0  0  0  0  0  0  0
   19.0372  -11.2688  -18.0079 C   0  0  2  0  0  0  0  0  0  0  0  0
   19.9992  -12.3858  -18.3434 C   0  0  0  0  0  0  0  0  0  0  0  0
   19.7677   -9.9879  -17.6575 C   0  0  2  0  0  0  0  0  0  0  0  0
   20.7598  -10.2764  -16.6463 N   0  0  0  0  0  0  0  0  0  0  0  0
   18.8513   -8.9040  -17.2490 C   0  0  0  0  0  0  0  0  0  0  0  0
   17.9686   -8.4254  -17.9910 O   0  0  0  0  0  0  0  0  0  0  0  0
   18.9506   -8.3425  -15.9295 N   0  0  0  0  0  0  0  0  0  0  0  0
   17.9728   -7.3731  -15.4538 C   0  0  1  0  0  0  0  0  0  0  0  0
   17.7134   -7.5002  -13.9684 C   0  0  0  0  0  0  0  0  0  0  0  0
   16.8889   -8.6835  -13.6278 C   0  0  0  0  0  0  0  0  0  0  0  0
   17.0059   -9.2040  -12.4913 O   0  0  0  0  0  0  0  0  0  0  0  0
   18.4450   -6.0154  -15.7833 C   0  0  0  0  0  0  0  0  0  0  0  0
   19.6369   -5.7213  -15.6436 O   0  0  0  0  0  0  0  0  0  0  0  0
   15.9883   -9.2550  -14.4971 O   0  0  0  0  0  0  0  0  0  0  0  0
   15.8308   -3.0918  -17.7916 C   0  0  0  0  0  0  0  0  0  0  0  0
   17.3102   -3.2049  -17.9377 C   0  0  2  0  0  0  0  0  0  0  0  0
   17.6278   -4.1480  -19.0633 C   0  0  0  0  0  0  0  0  0  0  0  0
   18.0156   -3.6995  -16.7003 C   0  0  2  0  0  0  0  0  0  0  0  0
   17.5726   -4.9909  -16.2698 N   0  0  0  0  0  0  0  0  0  0  0  0
   18.0375   -2.6892  -15.6234 C   0  0  0  0  0  0  0  0  0  0  0  0
   18.6740   -1.6261  -15.8221 O   0  0  0  0  0  0  0  0  0  0  0  0
   17.4089   -2.8116  -14.3947 O   0  0  0  0  0  0  0  0  0  0  0  0
  2  1  1  1
  2  3  1  0
  4  6  1  0
  4  2  1  0
  4  5  1  1
  6  7  2  0
  6  8  1  0
  8  9  1  0
  9 13  1  0
  9 10  1  1
 11 10  1  0
 12 11  2  0
 13 14  2  0
 13 20  1  0
 15 11  1  0
 17 16  1  1
 17 18  1  0
 19 21  1  0
 19 17  1  0
 19 20  1  1
 21 23  1  0
 22 21  2  0
M  END
$$$$
