VDV.pdb
     RDKit          3D

 23 22  0  0  1  0  0  0  0  0999 V2000
   18.3602  -12.4811  -18.8889 C   0  0  0  0  0  0  0  0  0  0  0  0
   19.8398  -12.4659  -19.2681 C   0  0  2  0  0  0  0  0  0  0  0  0
   20.2678  -13.8525  -19.6922 C   0  0  0  0  0  0  0  0  0  0  0  0
   20.6658  -11.9574  -18.1035 C   0  0  2  0  0  0  0  0  0  0  0  0
   20.7326  -12.9877  -17.0917 N   0  0  0  0  0  0  0  0  0  0  0  0
   20.1629  -10.6769  -17.5658 C   0  0  0  0  0  0  0  0  0  0  0  0
   20.0492   -9.6359  -18.2455 O   0  0  0  0  0  0  0  0  0  0  0  0
   19.7723  -10.5848  -16.1855 N   0  0  0  0  0  0  0  0  0  0  0  0
   19.2222   -9.3490  -15.6449 C   0  0  1  0  0  0  0  0  0  0  0  0
   18.1968   -9.6022  -14.5612 C   0  0  0  0  0  0  0  0  0  0  0  0
   16.9624  -10.2408  -15.0755 C   0  0  0  0  0  0  0  0  0  0  0  0
   16.4509   -9.8145  -16.1399 O   0  0  0  0  0  0  0  0  0  0  0  0
   20.3265   -8.5183  -15.1297 C   0  0  0  0  0  0  0  0  0  0  0  0
   21.1727   -9.0086  -14.3748 O   0  0  0  0  0  0  0  0  0  0  0  0
   16.3333  -11.2901  -14.4458 O   0  0  0  0  0  0  0  0  0  0  0  0
   23.6132   -5.0262  -15.7357 C   0  0  0  0  0  0  0  0  0  0  0  0
   22.4622   -5.8702  -16.1670 C   0  0  2  0  0  0  0  0  0  0  0  0
   21.6215   -5.1012  -17.1462 C   0  0  0  0  0  0  0  0  0  0  0  0
   21.5705   -6.3200  -15.0374 C   0  0  2  0  0  0  0  0  0  0  0  0
   20.4751   -7.1356  -15.4665 N   0  0  0  0  0  0  0  0  0  0  0  0
   21.1711   -5.2036  -14.1570 C   0  0  0  0  0  0  0  0  0  0  0  0
   20.0095   -4.7437  -14.2745 O   0  0  0  0  0  0  0  0  0  0  0  0
   21.9761   -4.6093  -13.1985 O   0  0  0  0  0  0  0  0  0  0  0  0
  2  1  1  1
  2  3  1  0
  4  6  1  0
  4  2  1  0
  4  5  1  1
  6  7  2  0
  6  8  1  0
  8  9  1  0
  9 13  1  0
  9 10  1  1
 11 10  1  0
 12 11  2  0
 13 14  2  0
 13 20  1  0
 15 11  1  0
 17 16  1  1
 17 18  1  0
 19 21  1  0
 19 17  1  0
 19 20  1  6
 21 23  1  0
 22 21  2  0
M  END
$$$$
