VDV.pdb
     RDKit          3D

 23 22  0  0  1  0  0  0  0  0999 V2000
   17.4030  -12.6023  -16.4719 C   0  0  0  0  0  0  0  0  0  0  0  0
   17.6615  -12.0497  -17.8722 C   0  0  2  0  0  0  0  0  0  0  0  0
   18.1086  -13.1699  -18.7837 C   0  0  0  0  0  0  0  0  0  0  0  0
   18.6895  -10.9379  -17.8066 C   0  0  2  0  0  0  0  0  0  0  0  0
   19.9915  -11.5179  -17.5653 N   0  0  0  0  0  0  0  0  0  0  0  0
   18.3449   -9.9026  -16.8111 C   0  0  0  0  0  0  0  0  0  0  0  0
   17.2843   -9.2444  -16.8335 O   0  0  0  0  0  0  0  0  0  0  0  0
   19.2576   -9.6078  -15.7405 N   0  0  0  0  0  0  0  0  0  0  0  0
   19.0517   -8.4508  -14.8797 C   0  0  1  0  0  0  0  0  0  0  0  0
   18.3431   -8.8112  -13.5921 C   0  0  0  0  0  0  0  0  0  0  0  0
   18.0375   -7.6283  -12.7534 C   0  0  0  0  0  0  0  0  0  0  0  0
   17.9314   -6.5026  -13.2990 O   0  0  0  0  0  0  0  0  0  0  0  0
   20.3575   -7.8268  -14.5956 C   0  0  0  0  0  0  0  0  0  0  0  0
   21.3946   -8.4939  -14.6729 O   0  0  0  0  0  0  0  0  0  0  0  0
   17.8604   -7.6913  -11.3903 O   0  0  0  0  0  0  0  0  0  0  0  0
   21.9740   -5.0161  -16.6219 C   0  0  0  0  0  0  0  0  0  0  0  0
   22.4998   -5.8672  -15.5163 C   0  0  2  0  0  0  0  0  0  0  0  0
   22.4646   -7.3084  -15.9388 C   0  0  0  0  0  0  0  0  0  0  0  0
   21.7344   -5.7401  -14.2235 C   0  0  2  0  0  0  0  0  0  0  0  0
   20.4921   -6.4515  -14.2247 N   0  0  0  0  0  0  0  0  0  0  0  0
   21.6159   -4.3380  -13.7752 C   0  0  0  0  0  0  0  0  0  0  0  0
   22.6700   -3.7088  -13.5154 O   0  0  0  0  0  0  0  0  0  0  0  0
   20.4273   -3.6445  -13.6133 O   0  0  0  0  0  0  0  0  0  0  0  0
  2  1  1  1
  2  3  1  0
  4  6  1  0
  4  2  1  0
  4  5  1  1
  6  7  2  0
  6  8  1  0
  8  9  1  0
  9 13  1  0
  9 10  1  1
 11 10  1  0
 12 11  2  0
 13 14  2  0
 13 20  1  0
 15 11  1  0
 17 16  1  6
 17 18  1  0
 19 21  1  0
 19 17  1  0
 19 20  1  6
 21 23  1  0
 22 21  2  0
M  END
$$$$
