VDV.pdb
     RDKit          3D

 23 22  0  0  1  0  0  0  0  0999 V2000
   14.9706  -11.4116  -17.3415 C   0  0  0  0  0  0  0  0  0  0  0  0
   15.2836  -10.1686  -16.5109 C   0  0  2  0  0  0  0  0  0  0  0  0
   14.4437   -9.0097  -16.9981 C   0  0  0  0  0  0  0  0  0  0  0  0
   16.7648   -9.8566  -16.5870 C   0  0  2  0  0  0  0  0  0  0  0  0
   17.5122  -11.0584  -16.2925 N   0  0  0  0  0  0  0  0  0  0  0  0
   17.1538   -8.7284  -15.7166 C   0  0  0  0  0  0  0  0  0  0  0  0
   16.6395   -7.5926  -15.7817 O   0  0  0  0  0  0  0  0  0  0  0  0
   18.1794   -8.9097  -14.7260 N   0  0  0  0  0  0  0  0  0  0  0  0
   18.5493   -7.8261  -13.8255 C   0  0  1  0  0  0  0  0  0  0  0  0
   18.5827   -8.2675  -12.3784 C   0  0  0  0  0  0  0  0  0  0  0  0
   17.2302   -8.4162  -11.7912 C   0  0  0  0  0  0  0  0  0  0  0  0
   16.5956   -9.4830  -11.9794 O   0  0  0  0  0  0  0  0  0  0  0  0
   19.8610   -7.2902  -14.2344 C   0  0  0  0  0  0  0  0  0  0  0  0
   20.7582   -8.0565  -14.6010 O   0  0  0  0  0  0  0  0  0  0  0  0
   16.6187   -7.4390  -11.0400 O   0  0  0  0  0  0  0  0  0  0  0  0
   20.3667   -3.0912  -15.3214 C   0  0  0  0  0  0  0  0  0  0  0  0
   21.1355   -4.2746  -15.8026 C   0  0  2  0  0  0  0  0  0  0  0  0
   20.3997   -4.9139  -16.9458 C   0  0  0  0  0  0  0  0  0  0  0  0
   21.3686   -5.3279  -14.7492 C   0  0  2  0  0  0  0  0  0  0  0  0
   20.1595   -5.8908  -14.2292 N   0  0  0  0  0  0  0  0  0  0  0  0
   22.3128   -4.8806  -13.7056 C   0  0  0  0  0  0  0  0  0  0  0  0
   21.8700   -4.6982  -12.5457 O   0  0  0  0  0  0  0  0  0  0  0  0
   23.6643   -4.6405  -13.8950 O   0  0  0  0  0  0  0  0  0  0  0  0
  2  1  1  6
  2  3  1  0
  4  6  1  0
  4  2  1  0
  4  5  1  1
  6  7  2  0
  6  8  1  0
  8  9  1  0
  9 13  1  0
  9 10  1  1
 11 10  1  0
 12 11  2  0
 13 14  2  0
 13 20  1  0
 15 11  1  0
 17 16  1  1
 17 18  1  0
 19 21  1  0
 19 17  1  0
 19 20  1  1
 21 23  1  0
 22 21  2  0
M  END
$$$$
