VDV.pdb
     RDKit          3D

 23 22  0  0  1  0  0  0  0  0999 V2000
   22.8437  -16.9929  -17.9894 C   0  0  0  0  0  0  0  0  0  0  0  0
   24.0274  -17.2204  -17.0513 C   0  0  2  0  0  0  0  0  0  0  0  0
   25.2722  -17.4943  -17.8644 C   0  0  0  0  0  0  0  0  0  0  0  0
   23.7198  -18.3587  -16.0990 C   0  0  2  0  0  0  0  0  0  0  0  0
   23.6605  -19.5933  -16.8487 N   0  0  0  0  0  0  0  0  0  0  0  0
   22.4939  -18.1241  -15.3093 C   0  0  0  0  0  0  0  0  0  0  0  0
   22.3351  -17.1471  -14.5484 O   0  0  0  0  0  0  0  0  0  0  0  0
   21.3991  -19.0517  -15.3953 N   0  0  0  0  0  0  0  0  0  0  0  0
   20.1501  -18.8019  -14.6886 C   0  0  1  0  0  0  0  0  0  0  0  0
   19.0811  -18.2313  -15.5950 C   0  0  0  0  0  0  0  0  0  0  0  0
   17.8124  -17.9511  -14.8822 C   0  0  0  0  0  0  0  0  0  0  0  0
   16.7223  -18.2047  -15.4510 O   0  0  0  0  0  0  0  0  0  0  0  0
   19.6892  -20.0596  -14.0715 C   0  0  0  0  0  0  0  0  0  0  0  0
   19.7184  -21.1142  -14.7145 O   0  0  0  0  0  0  0  0  0  0  0  0
   17.7572  -17.4209  -13.6137 O   0  0  0  0  0  0  0  0  0  0  0  0
   20.4146  -21.0343  -10.1797 C   0  0  0  0  0  0  0  0  0  0  0  0
   19.0106  -21.3221  -10.5906 C   0  0  2  0  0  0  0  0  0  0  0  0
   18.5973  -22.6595  -10.0452 C   0  0  0  0  0  0  0  0  0  0  0  0
   18.7966  -21.3394  -12.0830 C   0  0  2  0  0  0  0  0  0  0  0  0
   19.1960  -20.1265  -12.7300 N   0  0  0  0  0  0  0  0  0  0  0  0
   17.4396  -21.7907  -12.4516 C   0  0  0  0  0  0  0  0  0  0  0  0
   16.5390  -20.9245  -12.5675 O   0  0  0  0  0  0  0  0  0  0  0  0
   17.0659  -23.1044  -12.6846 O   0  0  0  0  0  0  0  0  0  0  0  0
  2  1  1  6
  2  3  1  0
  4  6  1  0
  4  2  1  0
  4  5  1  6
  6  7  2  0
  6  8  1  0
  8  9  1  0
  9 13  1  0
  9 10  1  6
 11 10  1  0
 12 11  2  0
 13 14  2  0
 13 20  1  0
 15 11  1  0
 17 16  1  6
 17 18  1  0
 19 21  1  0
 19 17  1  0
 19 20  1  1
 21 23  1  0
 22 21  2  0
M  END
$$$$
