VDV.pdb
     RDKit          3D

 23 22  0  0  1  0  0  0  0  0999 V2000
   25.5981  -19.5885  -14.2281 C   0  0  0  0  0  0  0  0  0  0  0  0
   27.1136  -19.7634  -14.1533 C   0  0  2  0  0  0  0  0  0  0  0  0
   27.6032  -20.4711  -15.3963 C   0  0  0  0  0  0  0  0  0  0  0  0
   27.4840  -20.5227  -12.8949 C   0  0  2  0  0  0  0  0  0  0  0  0
   26.9210  -21.8521  -12.9675 N   0  0  0  0  0  0  0  0  0  0  0  0
   27.0841  -19.8121  -11.6634 C   0  0  0  0  0  0  0  0  0  0  0  0
   27.4111  -18.6354  -11.4041 O   0  0  0  0  0  0  0  0  0  0  0  0
   26.2719  -20.4804  -10.6836 N   0  0  0  0  0  0  0  0  0  0  0  0
   25.8972  -19.8149   -9.4432 C   0  0  1  0  0  0  0  0  0  0  0  0
   24.4001  -19.8106   -9.2229 C   0  0  0  0  0  0  0  0  0  0  0  0
   23.6860  -20.7610  -10.1077 C   0  0  0  0  0  0  0  0  0  0  0  0
   24.2737  -21.8037  -10.4865 O   0  0  0  0  0  0  0  0  0  0  0  0
   26.5848  -20.4759   -8.3184 C   0  0  0  0  0  0  0  0  0  0  0  0
   26.7727  -21.6969   -8.3365 O   0  0  0  0  0  0  0  0  0  0  0  0
   22.3964  -20.5655  -10.5459 O   0  0  0  0  0  0  0  0  0  0  0  0
   29.2857  -18.5044   -5.5470 C   0  0  0  0  0  0  0  0  0  0  0  0
   29.1133  -19.9563   -5.8390 C   0  0  2  0  0  0  0  0  0  0  0  0
   29.8832  -20.3085   -7.0801 C   0  0  0  0  0  0  0  0  0  0  0  0
   27.6801  -20.3780   -6.0425 C   0  0  2  0  0  0  0  0  0  0  0  0
   27.0595  -19.7593   -7.1745 N   0  0  0  0  0  0  0  0  0  0  0  0
   26.8840  -20.2826   -4.8023 C   0  0  0  0  0  0  0  0  0  0  0  0
   25.8337  -19.5963   -4.8246 O   0  0  0  0  0  0  0  0  0  0  0  0
   27.1975  -20.8921   -3.5981 O   0  0  0  0  0  0  0  0  0  0  0  0
  2  1  1  6
  2  3  1  0
  4  6  1  0
  4  2  1  0
  4  5  1  6
  6  7  2  0
  6  8  1  0
  8  9  1  0
  9 13  1  0
  9 10  1  1
 11 10  1  0
 12 11  2  0
 13 14  2  0
 13 20  1  0
 15 11  1  0
 17 16  1  6
 17 18  1  0
 19 21  1  0
 19 17  1  0
 19 20  1  6
 21 23  1  0
 22 21  2  0
M  END
$$$$
