VDV.pdb
     RDKit          3D

 23 22  0  0  1  0  0  0  0  0999 V2000
   16.4987  -13.0948  -15.7408 C   0  0  0  0  0  0  0  0  0  0  0  0
   17.2499  -11.8337  -16.1632 C   0  0  2  0  0  0  0  0  0  0  0  0
   18.3434  -11.5370  -15.1622 C   0  0  0  0  0  0  0  0  0  0  0  0
   16.2812  -10.6752  -16.2930 C   0  0  2  0  0  0  0  0  0  0  0  0
   15.3254  -10.9786  -17.3342 N   0  0  0  0  0  0  0  0  0  0  0  0
   16.9644   -9.3853  -16.5190 C   0  0  0  0  0  0  0  0  0  0  0  0
   17.4821   -9.0556  -17.6062 O   0  0  0  0  0  0  0  0  0  0  0  0
   17.0589   -8.4290  -15.4501 N   0  0  0  0  0  0  0  0  0  0  0  0
   17.7126   -7.1431  -15.6527 C   0  0  1  0  0  0  0  0  0  0  0  0
   16.7389   -5.9866  -15.5868 C   0  0  0  0  0  0  0  0  0  0  0  0
   17.3956   -4.6708  -15.7701 C   0  0  0  0  0  0  0  0  0  0  0  0
   18.4426   -4.6005  -16.4593 O   0  0  0  0  0  0  0  0  0  0  0  0
   18.7769   -6.9827  -14.6444 C   0  0  0  0  0  0  0  0  0  0  0  0
   18.5709   -7.2994  -13.4681 O   0  0  0  0  0  0  0  0  0  0  0  0
   16.9185   -3.5029  -15.2211 O   0  0  0  0  0  0  0  0  0  0  0  0
   22.5133   -8.4428  -13.1880 C   0  0  0  0  0  0  0  0  0  0  0  0
   22.1705   -7.5970  -14.3670 C   0  0  2  0  0  0  0  0  0  0  0  0
   23.4235   -6.9718  -14.9113 C   0  0  0  0  0  0  0  0  0  0  0  0
   21.1886   -6.4924  -14.0684 C   0  0  2  0  0  0  0  0  0  0  0  0
   20.0721   -6.4653  -14.9639 N   0  0  0  0  0  0  0  0  0  0  0  0
   21.8491   -5.1821  -13.9021 C   0  0  0  0  0  0  0  0  0  0  0  0
   22.6116   -5.0243  -12.9181 O   0  0  0  0  0  0  0  0  0  0  0  0
   21.7003   -4.0948  -14.7481 O   0  0  0  0  0  0  0  0  0  0  0  0
  2  1  1  1
  2  3  1  0
  4  6  1  0
  4  2  1  0
  4  5  1  6
  6  7  2  0
  6  8  1  0
  8  9  1  0
  9 13  1  0
  9 10  1  1
 11 10  1  0
 12 11  2  0
 13 14  2  0
 13 20  1  0
 15 11  1  0
 17 16  1  1
 17 18  1  0
 19 21  1  0
 19 17  1  0
 19 20  1  6
 21 23  1  0
 22 21  2  0
M  END
$$$$
