VDV.pdb
     RDKit          3D

 23 22  0  0  1  0  0  0  0  0999 V2000
   14.3796  -10.1569  -15.7733 C   0  0  0  0  0  0  0  0  0  0  0  0
   14.9517  -11.4040  -16.4443 C   0  0  2  0  0  0  0  0  0  0  0  0
   14.3394  -12.6389  -15.8232 C   0  0  0  0  0  0  0  0  0  0  0  0
   16.4626  -11.4079  -16.3235 C   0  0  2  0  0  0  0  0  0  0  0  0
   16.8246  -11.8344  -14.9906 N   0  0  0  0  0  0  0  0  0  0  0  0
   17.0647  -10.1065  -16.6776 C   0  0  0  0  0  0  0  0  0  0  0  0
   16.8856   -9.5341  -17.7726 O   0  0  0  0  0  0  0  0  0  0  0  0
   17.9113   -9.4295  -15.7335 N   0  0  0  0  0  0  0  0  0  0  0  0
   18.4267   -8.0961  -16.0133 C   0  0  1  0  0  0  0  0  0  0  0  0
   17.3221   -7.0726  -16.1623 C   0  0  0  0  0  0  0  0  0  0  0  0
   17.8346   -5.7089  -16.4343 C   0  0  0  0  0  0  0  0  0  0  0  0
   18.1323   -4.9635  -15.4690 O   0  0  0  0  0  0  0  0  0  0  0  0
   19.3537   -7.7050  -14.9350 C   0  0  0  0  0  0  0  0  0  0  0  0
   18.9732   -7.7015  -13.7596 O   0  0  0  0  0  0  0  0  0  0  0  0
   18.0064   -5.2030  -17.7023 O   0  0  0  0  0  0  0  0  0  0  0  0
   23.5896   -8.0343  -15.5318 C   0  0  0  0  0  0  0  0  0  0  0  0
   22.8439   -8.0890  -14.2419 C   0  0  2  0  0  0  0  0  0  0  0  0
   22.3088   -9.4776  -14.0357 C   0  0  0  0  0  0  0  0  0  0  0  0
   21.6877   -7.1250  -14.1572 C   0  0  2  0  0  0  0  0  0  0  0  0
   20.7086   -7.3181  -15.1836 N   0  0  0  0  0  0  0  0  0  0  0  0
   22.1324   -5.7239  -14.0161 C   0  0  0  0  0  0  0  0  0  0  0  0
   21.9964   -4.9578  -15.0006 O   0  0  0  0  0  0  0  0  0  0  0  0
   22.6949   -5.1709  -12.8769 O   0  0  0  0  0  0  0  0  0  0  0  0
  2  1  1  1
  2  3  1  0
  4  6  1  0
  4  2  1  0
  4  5  1  1
  6  7  2  0
  6  8  1  0
  8  9  1  0
  9 13  1  0
  9 10  1  1
 11 10  1  0
 12 11  2  0
 13 14  2  0
 13 20  1  0
 15 11  1  0
 17 16  1  6
 17 18  1  0
 19 21  1  0
 19 17  1  0
 19 20  1  6
 21 23  1  0
 22 21  2  0
M  END
$$$$
