VDV.pdb
     RDKit          3D

 23 22  0  0  1  0  0  0  0  0999 V2000
   13.5547  -11.1180  -16.6369 C   0  0  0  0  0  0  0  0  0  0  0  0
   15.0680  -11.0595  -16.4378 C   0  0  2  0  0  0  0  0  0  0  0  0
   15.5134   -9.6165  -16.3658 C   0  0  0  0  0  0  0  0  0  0  0  0
   15.7651  -11.8046  -17.5586 C   0  0  2  0  0  0  0  0  0  0  0  0
   15.4382  -13.2094  -17.4611 N   0  0  0  0  0  0  0  0  0  0  0  0
   17.2232  -11.5694  -17.5771 C   0  0  0  0  0  0  0  0  0  0  0  0
   18.0590  -12.3551  -17.0843 O   0  0  0  0  0  0  0  0  0  0  0  0
   17.7480  -10.3789  -18.1884 N   0  0  0  0  0  0  0  0  0  0  0  0
   19.1830  -10.1334  -18.2367 C   0  0  1  0  0  0  0  0  0  0  0  0
   19.5914   -9.3525  -19.4669 C   0  0  0  0  0  0  0  0  0  0  0  0
   21.0579   -9.1653  -19.5686 C   0  0  0  0  0  0  0  0  0  0  0  0
   21.8073   -9.7469  -18.7461 O   0  0  0  0  0  0  0  0  0  0  0  0
   19.5884   -9.4197  -17.0114 C   0  0  0  0  0  0  0  0  0  0  0  0
   18.8537   -8.5534  -16.5254 O   0  0  0  0  0  0  0  0  0  0  0  0
   21.6568   -8.3794  -20.5261 O   0  0  0  0  0  0  0  0  0  0  0  0
   22.2178   -9.4688  -12.8247 C   0  0  0  0  0  0  0  0  0  0  0  0
   22.0014   -9.9960  -14.2024 C   0  0  2  0  0  0  0  0  0  0  0  0
   23.3320  -10.2350  -14.8577 C   0  0  0  0  0  0  0  0  0  0  0  0
   21.1991   -9.0816  -15.0932 C   0  0  2  0  0  0  0  0  0  0  0  0
   20.8217   -9.6838  -16.3358 N   0  0  0  0  0  0  0  0  0  0  0  0
   21.8236   -7.7517  -15.2427 C   0  0  0  0  0  0  0  0  0  0  0  0
   22.4506   -7.5080  -16.3020 O   0  0  0  0  0  0  0  0  0  0  0  0
   21.7785   -6.7333  -14.3042 O   0  0  0  0  0  0  0  0  0  0  0  0
  2  1  1  6
  2  3  1  0
  4  6  1  0
  4  2  1  0
  4  5  1  1
  6  7  2  0
  6  8  1  0
  8  9  1  0
  9 13  1  0
  9 10  1  6
 11 10  1  0
 12 11  2  0
 13 14  2  0
 13 20  1  0
 15 11  1  0
 17 16  1  1
 17 18  1  0
 19 21  1  0
 19 17  1  0
 19 20  1  6
 21 23  1  0
 22 21  2  0
M  END
$$$$
