VDV.pdb
     RDKit          3D

 23 22  0  0  1  0  0  0  0  0999 V2000
   13.0885  -11.6385  -15.2326 C   0  0  0  0  0  0  0  0  0  0  0  0
   13.7456  -10.9696  -14.0269 C   0  0  2  0  0  0  0  0  0  0  0  0
   13.1511   -9.5943  -13.8248 C   0  0  0  0  0  0  0  0  0  0  0  0
   15.2467  -10.9060  -14.2266 C   0  0  2  0  0  0  0  0  0  0  0  0
   15.7686  -12.2528  -14.2858 N   0  0  0  0  0  0  0  0  0  0  0  0
   15.9231  -10.0885  -13.1990 C   0  0  0  0  0  0  0  0  0  0  0  0
   16.2088  -10.5061  -12.0577 O   0  0  0  0  0  0  0  0  0  0  0  0
   16.2889   -8.7298  -13.4926 N   0  0  0  0  0  0  0  0  0  0  0  0
   16.9490   -7.9005  -12.4934 C   0  0  1  0  0  0  0  0  0  0  0  0
   18.0160   -7.0131  -13.0968 C   0  0  0  0  0  0  0  0  0  0  0  0
   19.2421   -7.7586  -13.4670 C   0  0  0  0  0  0  0  0  0  0  0  0
   19.2500   -8.4370  -14.5234 O   0  0  0  0  0  0  0  0  0  0  0  0
   15.9329   -7.0893  -11.7972 C   0  0  0  0  0  0  0  0  0  0  0  0
   15.0159   -6.5614  -12.4350 O   0  0  0  0  0  0  0  0  0  0  0  0
   20.3908   -7.7514  -12.7097 O   0  0  0  0  0  0  0  0  0  0  0  0
   15.5103   -6.9655   -7.3894 C   0  0  0  0  0  0  0  0  0  0  0  0
   14.4724   -6.7056   -8.4278 C   0  0  2  0  0  0  0  0  0  0  0  0
   13.8173   -8.0021   -8.8111 C   0  0  0  0  0  0  0  0  0  0  0  0
   15.0042   -6.0615   -9.6830 C   0  0  2  0  0  0  0  0  0  0  0  0
   15.9523   -6.8744  -10.3827 N   0  0  0  0  0  0  0  0  0  0  0  0
   15.4634   -4.6767   -9.4538 C   0  0  0  0  0  0  0  0  0  0  0  0
   16.6897   -4.4341   -9.5629 O   0  0  0  0  0  0  0  0  0  0  0  0
   14.6492   -3.6051   -9.1239 O   0  0  0  0  0  0  0  0  0  0  0  0
  2  1  1  6
  2  3  1  0
  4  6  1  0
  4  2  1  0
  4  5  1  1
  6  7  2  0
  6  8  1  0
  8  9  1  0
  9 13  1  0
  9 10  1  6
 11 10  1  0
 12 11  2  0
 13 14  2  0
 13 20  1  0
 15 11  1  0
 17 16  1  1
 17 18  1  0
 19 21  1  0
 19 17  1  0
 19 20  1  1
 21 23  1  0
 22 21  2  0
M  END
$$$$
