VDV.pdb
     RDKit          3D

 23 22  0  0  1  0  0  0  0  0999 V2000
   20.5037  -14.5917  -18.6458 C   0  0  0  0  0  0  0  0  0  0  0  0
   20.1566  -13.6777  -17.4723 C   0  0  2  0  0  0  0  0  0  0  0  0
   19.1340  -14.3552  -16.5885 C   0  0  0  0  0  0  0  0  0  0  0  0
   19.6539  -12.3441  -17.9881 C   0  0  2  0  0  0  0  0  0  0  0  0
   20.5192  -11.8994  -19.0573 N   0  0  0  0  0  0  0  0  0  0  0  0
   19.5215  -11.3340  -16.9186 C   0  0  0  0  0  0  0  0  0  0  0  0
   18.8046  -11.4841  -15.9075 O   0  0  0  0  0  0  0  0  0  0  0  0
   20.2438  -10.0947  -17.0117 N   0  0  0  0  0  0  0  0  0  0  0  0
   20.0174   -9.0232  -16.0511 C   0  0  1  0  0  0  0  0  0  0  0  0
   21.2616   -8.6916  -15.2562 C   0  0  0  0  0  0  0  0  0  0  0  0
   21.0340   -7.6287  -14.2489 C   0  0  0  0  0  0  0  0  0  0  0  0
   19.9652   -7.6290  -13.5903 O   0  0  0  0  0  0  0  0  0  0  0  0
   19.5282   -7.8317  -16.7694 C   0  0  0  0  0  0  0  0  0  0  0  0
   20.1215   -7.4248  -17.7738 O   0  0  0  0  0  0  0  0  0  0  0  0
   21.9390   -6.6255  -13.9883 O   0  0  0  0  0  0  0  0  0  0  0  0
   16.4073   -7.2346  -18.5891 C   0  0  0  0  0  0  0  0  0  0  0  0
   16.5068   -6.1110  -17.6141 C   0  0  2  0  0  0  0  0  0  0  0  0
   16.1220   -4.8277  -18.2938 C   0  0  0  0  0  0  0  0  0  0  0  0
   17.8805   -5.9313  -17.0191 C   0  0  2  0  0  0  0  0  0  0  0  0
   18.3706   -7.1004  -16.3540 N   0  0  0  0  0  0  0  0  0  0  0  0
   17.9872   -4.6995  -16.2116 C   0  0  0  0  0  0  0  0  0  0  0  0
   17.6684   -4.7571  -14.9993 O   0  0  0  0  0  0  0  0  0  0  0  0
   18.4140   -3.4671  -16.6796 O   0  0  0  0  0  0  0  0  0  0  0  0
  2  1  1  6
  2  3  1  0
  4  6  1  0
  4  2  1  0
  4  5  1  6
  6  7  2  0
  6  8  1  0
  8  9  1  0
  9 13  1  0
  9 10  1  6
 11 10  1  0
 12 11  2  0
 13 14  2  0
 13 20  1  0
 15 11  1  0
 17 16  1  6
 17 18  1  0
 19 21  1  0
 19 17  1  0
 19 20  1  1
 21 23  1  0
 22 21  2  0
M  END
$$$$
