CKQ.pdb
     RDKit          3D

 25 24  0  0  1  0  0  0  0  0999 V2000
    7.5401  -14.1222   17.9396 N   0  0  0  0  0  0  0  0  0  0  0  0
    8.6183  -14.0724   18.8750 C   0  0  1  0  0  0  0  0  0  0  0  0
    8.8303  -12.6332   19.2913 C   0  0  0  0  0  0  0  0  0  0  0  0
   10.2442  -12.4767   20.3837 S   0  0  0  0  0  0  0  0  0  0  0  0
    8.3173  -14.9322   20.0309 C   0  0  0  0  0  0  0  0  0  0  0  0
    7.1742  -14.9683   20.5328 O   0  0  0  0  0  0  0  0  0  0  0  0
    9.3358  -15.7323   20.5861 N   0  0  0  0  0  0  0  0  0  0  0  0
    9.1491  -16.5475   21.7823 C   0  0  1  0  0  0  0  0  0  0  0  0
    9.8459  -17.8492   21.6920 C   0  0  0  0  0  0  0  0  0  0  0  0
    9.6741  -18.7205   22.9052 C   0  0  0  0  0  0  0  0  0  0  0  0
   10.4167  -20.0415   22.7327 C   0  0  0  0  0  0  0  0  0  0  0  0
   10.0176  -20.8968   23.9382 C   0  0  0  0  0  0  0  0  0  0  0  0
   10.7755  -22.1342   23.8530 N   0  0  0  0  0  0  0  0  0  0  0  0
    9.4972  -15.7289   22.9694 C   0  0  0  0  0  0  0  0  0  0  0  0
   10.5044  -14.9862   23.0633 O   0  0  0  0  0  0  0  0  0  0  0  0
    5.3155  -12.7768   25.8658 N   0  0  0  0  0  0  0  0  0  0  0  0
    6.3668  -12.3827   26.7269 C   0  0  0  0  0  0  0  0  0  0  0  0
    6.1917  -11.4837   27.5726 O   0  0  0  0  0  0  0  0  0  0  0  0
    7.6850  -13.0913   26.5732 C   0  0  0  0  0  0  0  0  0  0  0  0
    7.5552  -14.0416   25.4249 C   0  0  0  0  0  0  0  0  0  0  0  0
    8.8155  -14.8113   25.2120 C   0  0  2  0  0  0  0  0  0  0  0  0
    8.6435  -15.7641   24.1118 N   0  0  0  0  0  0  0  0  0  0  0  0
    9.3285  -15.4897   26.4117 C   0  0  0  0  0  0  0  0  0  0  0  0
    9.4932  -16.8885   26.4454 O   0  0  0  0  0  0  0  0  0  0  0  0
    9.6390  -14.8783   27.4413 O   0  0  0  0  0  0  0  0  0  0  0  0
  2  1  1  6
  2  3  1  0
  3  4  1  0
  5  2  1  0
  6  5  2  0
  7  5  1  0
  8  7  1  0
  8  9  1  6
 10 11  1  0
 10  9  1  0
 12 11  1  0
 13 12  1  0
 14 22  1  0
 14  8  1  0
 15 14  2  0
 17 16  1  0
 18 17  2  0
 19 17  1  0
 21 20  1  1
 20 19  1  0
 21 23  1  0
 21 22  1  0
 23 24  1  0
 25 23  2  0
M  END
$$$$
