CKQ.pdb
     RDKit          3D

 25 24  0  0  1  0  0  0  0  0999 V2000
    6.6222  -14.6318   20.0029 N   0  0  0  0  0  0  0  0  0  0  0  0
    8.0300  -14.5194   20.2159 C   0  0  1  0  0  0  0  0  0  0  0  0
    8.3613  -13.0707   20.5003 C   0  0  0  0  0  0  0  0  0  0  0  0
    8.1866  -12.0649   19.0257 S   0  0  0  0  0  0  0  0  0  0  0  0
    8.4394  -15.3966   21.3245 C   0  0  0  0  0  0  0  0  0  0  0  0
    7.7874  -15.4450   22.3886 O   0  0  0  0  0  0  0  0  0  0  0  0
    9.5892  -16.1997   21.1875 N   0  0  0  0  0  0  0  0  0  0  0  0
   10.0219  -17.1557   22.2019 C   0  0  1  0  0  0  0  0  0  0  0  0
   10.5690  -18.3963   21.6107 C   0  0  0  0  0  0  0  0  0  0  0  0
   11.0435  -19.3998   22.6248 C   0  0  0  0  0  0  0  0  0  0  0  0
   11.5388  -20.6692   21.9397 C   0  0  0  0  0  0  0  0  0  0  0  0
   11.9274  -21.6222   23.0733 C   0  0  0  0  0  0  0  0  0  0  0  0
   12.3746  -22.8597   22.4559 N   0  0  0  0  0  0  0  0  0  0  0  0
   10.9253  -16.4597   23.1504 C   0  0  0  0  0  0  0  0  0  0  0  0
   11.9279  -15.7791   22.8242 O   0  0  0  0  0  0  0  0  0  0  0  0
    9.7417  -13.3082   27.9919 N   0  0  0  0  0  0  0  0  0  0  0  0
    9.7604  -14.6261   28.5065 C   0  0  0  0  0  0  0  0  0  0  0  0
    9.2873  -14.8748   29.6327 O   0  0  0  0  0  0  0  0  0  0  0  0
   10.3700  -15.6947   27.6406 C   0  0  0  0  0  0  0  0  0  0  0  0
   10.9193  -15.0271   26.4195 C   0  0  0  0  0  0  0  0  0  0  0  0
   11.6098  -16.0056   25.5298 C   0  0  2  0  0  0  0  0  0  0  0  0
   10.6649  -16.5491   24.5501 N   0  0  0  0  0  0  0  0  0  0  0  0
   12.3065  -17.0906   26.2373 C   0  0  0  0  0  0  0  0  0  0  0  0
   11.8173  -18.4115   26.2113 O   0  0  0  0  0  0  0  0  0  0  0  0
   13.3447  -16.9053   26.8839 O   0  0  0  0  0  0  0  0  0  0  0  0
  2  1  1  1
  2  3  1  0
  3  4  1  0
  5  2  1  0
  6  5  2  0
  7  5  1  0
  8  7  1  0
  8  9  1  6
 10 11  1  0
 10  9  1  0
 12 11  1  0
 13 12  1  0
 14 22  1  0
 14  8  1  0
 15 14  2  0
 17 16  1  0
 18 17  2  0
 19 17  1  0
 21 20  1  1
 20 19  1  0
 21 23  1  0
 21 22  1  0
 23 24  1  0
 25 23  2  0
M  END
$$$$
