CKQ.pdb
     RDKit          3D

 25 24  0  0  1  0  0  0  0  0999 V2000
    7.8241  -13.6772   18.6207 N   0  0  0  0  0  0  0  0  0  0  0  0
    8.9318  -13.8167   19.5115 C   0  0  1  0  0  0  0  0  0  0  0  0
    9.2844  -12.4517   20.0610 C   0  0  0  0  0  0  0  0  0  0  0  0
   10.1782  -11.4770   18.8494 S   0  0  0  0  0  0  0  0  0  0  0  0
    8.5923  -14.7625   20.5868 C   0  0  0  0  0  0  0  0  0  0  0  0
    7.5320  -14.6522   21.2374 O   0  0  0  0  0  0  0  0  0  0  0  0
    9.4782  -15.8151   20.8921 N   0  0  0  0  0  0  0  0  0  0  0  0
    9.2094  -16.8121   21.9236 C   0  0  1  0  0  0  0  0  0  0  0  0
    9.2227  -18.1921   21.3910 C   0  0  0  0  0  0  0  0  0  0  0  0
    8.0391  -18.5254   20.5260 C   0  0  0  0  0  0  0  0  0  0  0  0
    8.1576  -19.9399   19.9678 C   0  0  0  0  0  0  0  0  0  0  0  0
    6.8764  -20.1717   19.1622 C   0  0  0  0  0  0  0  0  0  0  0  0
    6.9903  -21.4840   18.5479 N   0  0  0  0  0  0  0  0  0  0  0  0
   10.1264  -16.5694   23.0640 C   0  0  0  0  0  0  0  0  0  0  0  0
   11.3621  -16.3733   22.9669 O   0  0  0  0  0  0  0  0  0  0  0  0
    8.5238  -13.8752   28.2337 N   0  0  0  0  0  0  0  0  0  0  0  0
    9.8312  -14.2366   28.6367 C   0  0  0  0  0  0  0  0  0  0  0  0
   10.2767  -13.8764   29.7438 O   0  0  0  0  0  0  0  0  0  0  0  0
   10.6434  -15.0636   27.6776 C   0  0  0  0  0  0  0  0  0  0  0  0
    9.7731  -15.3749   26.5011 C   0  0  0  0  0  0  0  0  0  0  0  0
   10.4616  -16.2878   25.5428 C   0  0  2  0  0  0  0  0  0  0  0  0
    9.5973  -16.5506   24.3887 N   0  0  0  0  0  0  0  0  0  0  0  0
   10.9385  -17.5478   26.1327 C   0  0  0  0  0  0  0  0  0  0  0  0
   10.3345  -18.7792   25.8111 O   0  0  0  0  0  0  0  0  0  0  0  0
   11.8822  -17.5943   26.9312 O   0  0  0  0  0  0  0  0  0  0  0  0
  2  1  1  6
  2  3  1  0
  3  4  1  0
  5  2  1  0
  6  5  2  0
  7  5  1  0
  8  7  1  0
  8  9  1  6
 10 11  1  0
 10  9  1  0
 12 11  1  0
 13 12  1  0
 14 22  1  0
 14  8  1  0
 15 14  2  0
 17 16  1  0
 18 17  2  0
 19 17  1  0
 21 20  1  1
 20 19  1  0
 21 23  1  0
 21 22  1  0
 23 24  1  0
 25 23  2  0
M  END
$$$$
