CKQ.pdb
     RDKit          3D

 25 24  0  0  1  0  0  0  0  0999 V2000
    7.0942  -13.1599   18.5766 N   0  0  0  0  0  0  0  0  0  0  0  0
    7.9338  -14.2662   18.9098 C   0  0  1  0  0  0  0  0  0  0  0  0
    9.3729  -13.7986   18.9058 C   0  0  0  0  0  0  0  0  0  0  0  0
    9.6145  -12.4367   20.0475 S   0  0  0  0  0  0  0  0  0  0  0  0
    7.5450  -14.8120   20.2201 C   0  0  0  0  0  0  0  0  0  0  0  0
    6.9640  -14.1059   21.0708 O   0  0  0  0  0  0  0  0  0  0  0  0
    7.8319  -16.1574   20.5256 N   0  0  0  0  0  0  0  0  0  0  0  0
    7.3785  -16.8135   21.7480 C   0  0  1  0  0  0  0  0  0  0  0  0
    7.1989  -18.2712   21.5723 C   0  0  0  0  0  0  0  0  0  0  0  0
    6.0643  -18.8486   22.3721 C   0  0  0  0  0  0  0  0  0  0  0  0
    5.8613  -20.3228   22.0378 C   0  0  0  0  0  0  0  0  0  0  0  0
    4.7072  -20.7903   22.9286 C   0  0  0  0  0  0  0  0  0  0  0  0
    4.3797  -22.1478   22.5253 N   0  0  0  0  0  0  0  0  0  0  0  0
    8.2824  -16.4206   22.8567 C   0  0  0  0  0  0  0  0  0  0  0  0
    9.5280  -16.2999   22.7637 O   0  0  0  0  0  0  0  0  0  0  0  0
    8.0955  -12.6548   29.1265 N   0  0  0  0  0  0  0  0  0  0  0  0
    7.8137  -12.9427   27.7701 C   0  0  0  0  0  0  0  0  0  0  0  0
    6.9316  -12.3105   27.1568 O   0  0  0  0  0  0  0  0  0  0  0  0
    8.6187  -14.0323   27.1159 C   0  0  0  0  0  0  0  0  0  0  0  0
    7.8050  -14.5773   25.9848 C   0  0  0  0  0  0  0  0  0  0  0  0
    8.5577  -15.6189   25.2268 C   0  0  2  0  0  0  0  0  0  0  0  0
    7.7273  -16.1513   24.1429 N   0  0  0  0  0  0  0  0  0  0  0  0
    9.0946  -16.7099   26.0542 C   0  0  0  0  0  0  0  0  0  0  0  0
   10.3394  -16.5897   26.7030 O   0  0  0  0  0  0  0  0  0  0  0  0
    8.4914  -17.7766   26.2232 O   0  0  0  0  0  0  0  0  0  0  0  0
  2  1  1  1
  2  3  1  0
  3  4  1  0
  5  2  1  0
  6  5  2  0
  7  5  1  0
  8  7  1  0
  8  9  1  6
 10 11  1  0
 10  9  1  0
 12 11  1  0
 13 12  1  0
 14 22  1  0
 14  8  1  0
 15 14  2  0
 17 16  1  0
 18 17  2  0
 19 17  1  0
 21 20  1  1
 20 19  1  0
 21 23  1  0
 21 22  1  0
 23 24  1  0
 25 23  2  0
M  END
$$$$
