CKQ.pdb
     RDKit          3D

 25 24  0  0  1  0  0  0  0  0999 V2000
    7.7990  -13.7033   18.6880 N   0  0  0  0  0  0  0  0  0  0  0  0
    9.0367  -14.0765   19.2951 C   0  0  1  0  0  0  0  0  0  0  0  0
    9.7627  -12.8200   19.7236 C   0  0  0  0  0  0  0  0  0  0  0  0
   11.2304  -12.5490   18.7291 S   0  0  0  0  0  0  0  0  0  0  0  0
    8.7841  -14.9720   20.4354 C   0  0  0  0  0  0  0  0  0  0  0  0
    7.8001  -14.8049   21.1863 O   0  0  0  0  0  0  0  0  0  0  0  0
    9.6672  -16.0404   20.6894 N   0  0  0  0  0  0  0  0  0  0  0  0
    9.4559  -17.0160   21.7542 C   0  0  1  0  0  0  0  0  0  0  0  0
    9.6225  -18.4086   21.2841 C   0  0  0  0  0  0  0  0  0  0  0  0
    9.5044  -19.4397   22.3720 C   0  0  0  0  0  0  0  0  0  0  0  0
    9.5920  -20.8486   21.7944 C   0  0  0  0  0  0  0  0  0  0  0  0
    9.5019  -21.7914   22.9973 C   0  0  0  0  0  0  0  0  0  0  0  0
    9.5798  -23.1485   22.4826 N   0  0  0  0  0  0  0  0  0  0  0  0
   10.3007  -16.6384   22.9136 C   0  0  0  0  0  0  0  0  0  0  0  0
   11.5172  -16.3366   22.8519 O   0  0  0  0  0  0  0  0  0  0  0  0
    8.4623  -13.8846   27.9744 N   0  0  0  0  0  0  0  0  0  0  0  0
    9.6950  -14.3421   28.4972 C   0  0  0  0  0  0  0  0  0  0  0  0
   10.0531  -14.0255   29.6485 O   0  0  0  0  0  0  0  0  0  0  0  0
   10.5381  -15.2155   27.6085 C   0  0  0  0  0  0  0  0  0  0  0  0
    9.7657  -15.4580   26.3503 C   0  0  0  0  0  0  0  0  0  0  0  0
   10.5324  -16.3143   25.3990 C   0  0  2  0  0  0  0  0  0  0  0  0
    9.7184  -16.6053   24.2155 N   0  0  0  0  0  0  0  0  0  0  0  0
   11.0623  -17.5556   25.9834 C   0  0  0  0  0  0  0  0  0  0  0  0
   12.3469  -17.6008   26.5601 O   0  0  0  0  0  0  0  0  0  0  0  0
   10.4186  -18.6118   26.0003 O   0  0  0  0  0  0  0  0  0  0  0  0
  2  1  1  1
  2  3  1  0
  3  4  1  0
  5  2  1  0
  6  5  2  0
  7  5  1  0
  8  7  1  0
  8  9  1  6
 10 11  1  0
 10  9  1  0
 12 11  1  0
 13 12  1  0
 14 22  1  0
 14  8  1  0
 15 14  2  0
 17 16  1  0
 18 17  2  0
 19 17  1  0
 21 20  1  1
 20 19  1  0
 21 23  1  0
 21 22  1  0
 23 24  1  0
 25 23  2  0
M  END
$$$$
