CKQ.pdb
     RDKit          3D

 25 24  0  0  1  0  0  0  0  0999 V2000
    5.2567  -13.7828   26.6022 N   0  0  0  0  0  0  0  0  0  0  0  0
    6.3228  -13.1063   25.9347 C   0  0  1  0  0  0  0  0  0  0  0  0
    7.3628  -12.7130   26.9610 C   0  0  0  0  0  0  0  0  0  0  0  0
    7.0077  -11.0987   27.6571 S   0  0  0  0  0  0  0  0  0  0  0  0
    6.8916  -13.9758   24.8925 C   0  0  0  0  0  0  0  0  0  0  0  0
    7.1260  -15.1830   25.1110 O   0  0  0  0  0  0  0  0  0  0  0  0
    7.1796  -13.4404   23.6211 N   0  0  0  0  0  0  0  0  0  0  0  0
    7.7566  -14.2263   22.5350 C   0  0  1  0  0  0  0  0  0  0  0  0
    7.7766  -13.4877   21.2535 C   0  0  0  0  0  0  0  0  0  0  0  0
    8.2263  -14.3121   20.0793 C   0  0  0  0  0  0  0  0  0  0  0  0
    8.1751  -13.4947   18.7926 C   0  0  0  0  0  0  0  0  0  0  0  0
    8.6166  -14.4510   17.6814 C   0  0  0  0  0  0  0  0  0  0  0  0
    8.5424  -13.7147   16.4304 N   0  0  0  0  0  0  0  0  0  0  0  0
    9.0714  -14.7501   22.9794 C   0  0  0  0  0  0  0  0  0  0  0  0
    9.9703  -14.0694   23.5302 O   0  0  0  0  0  0  0  0  0  0  0  0
   11.8376  -18.9180   27.2160 N   0  0  0  0  0  0  0  0  0  0  0  0
   10.7592  -18.3207   26.5216 C   0  0  0  0  0  0  0  0  0  0  0  0
    9.5838  -18.6599   26.7612 O   0  0  0  0  0  0  0  0  0  0  0  0
   11.0965  -17.2728   25.4961 C   0  0  0  0  0  0  0  0  0  0  0  0
   10.5357  -17.7270   24.1855 C   0  0  0  0  0  0  0  0  0  0  0  0
   10.6848  -16.6757   23.1375 C   0  0  2  0  0  0  0  0  0  0  0  0
    9.3719  -16.1305   22.7811 N   0  0  0  0  0  0  0  0  0  0  0  0
   11.4115  -17.1092   21.9345 C   0  0  0  0  0  0  0  0  0  0  0  0
   12.8198  -17.1204   21.8966 O   0  0  0  0  0  0  0  0  0  0  0  0
   10.8345  -17.4822   20.9059 O   0  0  0  0  0  0  0  0  0  0  0  0
  2  1  1  1
  2  3  1  0
  3  4  1  0
  5  2  1  0
  6  5  2  0
  7  5  1  0
  8  7  1  0
  8  9  1  6
 10 11  1  0
 10  9  1  0
 12 11  1  0
 13 12  1  0
 14 22  1  0
 14  8  1  0
 15 14  2  0
 17 16  1  0
 18 17  2  0
 19 17  1  0
 21 20  1  1
 20 19  1  0
 21 23  1  0
 21 22  1  0
 23 24  1  0
 25 23  2  0
M  END
$$$$
