CKQ.pdb
     RDKit          3D

 25 24  0  0  1  0  0  0  0  0999 V2000
    5.4592  -14.4981   26.6550 N   0  0  0  0  0  0  0  0  0  0  0  0
    6.3337  -13.6380   25.9235 C   0  0  1  0  0  0  0  0  0  0  0  0
    7.3628  -13.0714   26.8772 C   0  0  0  0  0  0  0  0  0  0  0  0
    6.9937  -11.3652   27.2892 S   0  0  0  0  0  0  0  0  0  0  0  0
    6.9665  -14.3856   24.8251 C   0  0  0  0  0  0  0  0  0  0  0  0
    7.3591  -15.5608   24.9815 O   0  0  0  0  0  0  0  0  0  0  0  0
    7.1353  -13.7673   23.5700 N   0  0  0  0  0  0  0  0  0  0  0  0
    7.7900  -14.4188   22.4398 C   0  0  1  0  0  0  0  0  0  0  0  0
    7.7321  -13.6025   21.2076 C   0  0  0  0  0  0  0  0  0  0  0  0
    8.2978  -14.2861   19.9938 C   0  0  0  0  0  0  0  0  0  0  0  0
    8.1439  -13.4075   18.7567 C   0  0  0  0  0  0  0  0  0  0  0  0
    8.6533  -14.2537   17.5867 C   0  0  0  0  0  0  0  0  0  0  0  0
    8.6935  -13.3881   16.4198 N   0  0  0  0  0  0  0  0  0  0  0  0
    9.1523  -14.8305   22.8579 C   0  0  0  0  0  0  0  0  0  0  0  0
    9.9464  -14.1244   23.5254 O   0  0  0  0  0  0  0  0  0  0  0  0
   10.0689  -19.0697   26.2582 N   0  0  0  0  0  0  0  0  0  0  0  0
   11.4442  -19.0073   25.9313 C   0  0  0  0  0  0  0  0  0  0  0  0
   12.2809  -19.6689   26.5763 O   0  0  0  0  0  0  0  0  0  0  0  0
   11.8396  -18.1169   24.7849 C   0  0  0  0  0  0  0  0  0  0  0  0
   10.5879  -17.5148   24.2287 C   0  0  0  0  0  0  0  0  0  0  0  0
   10.8789  -16.6525   23.0464 C   0  0  2  0  0  0  0  0  0  0  0  0
    9.6306  -16.1232   22.4900 N   0  0  0  0  0  0  0  0  0  0  0  0
   11.6814  -17.3012   21.9984 C   0  0  0  0  0  0  0  0  0  0  0  0
   13.0806  -17.4157   22.1159 O   0  0  0  0  0  0  0  0  0  0  0  0
   11.1789  -17.7746   20.9719 O   0  0  0  0  0  0  0  0  0  0  0  0
  2  1  1  1
  2  3  1  0
  3  4  1  0
  5  2  1  0
  6  5  2  0
  7  5  1  0
  8  7  1  0
  8  9  1  6
 10 11  1  0
 10  9  1  0
 12 11  1  0
 13 12  1  0
 14 22  1  0
 14  8  1  0
 15 14  2  0
 17 16  1  0
 18 17  2  0
 19 17  1  0
 21 20  1  1
 20 19  1  0
 21 23  1  0
 21 22  1  0
 23 24  1  0
 25 23  2  0
M  END
$$$$
