CKQ.pdb
     RDKit          3D

 25 24  0  0  1  0  0  0  0  0999 V2000
   10.7863  -18.5942   17.2474 N   0  0  0  0  0  0  0  0  0  0  0  0
    9.8640  -18.6063   18.3378 C   0  0  1  0  0  0  0  0  0  0  0  0
    9.8802  -19.9815   18.9688 C   0  0  0  0  0  0  0  0  0  0  0  0
    9.1785  -21.2087   17.8650 S   0  0  0  0  0  0  0  0  0  0  0  0
   10.2241  -17.5604   19.3086 C   0  0  0  0  0  0  0  0  0  0  0  0
   11.4131  -17.2230   19.4880 O   0  0  0  0  0  0  0  0  0  0  0  0
    9.2107  -16.9242   20.0531 N   0  0  0  0  0  0  0  0  0  0  0  0
    9.4769  -15.8719   21.0288 C   0  0  1  0  0  0  0  0  0  0  0  0
    8.4542  -14.8036   20.9991 C   0  0  0  0  0  0  0  0  0  0  0  0
    8.3163  -14.1258   19.6642 C   0  0  0  0  0  0  0  0  0  0  0  0
    7.1873  -13.1007   19.6916 C   0  0  0  0  0  0  0  0  0  0  0  0
    7.0344  -12.6202   18.2459 C   0  0  0  0  0  0  0  0  0  0  0  0
    5.9936  -11.6056   18.2413 N   0  0  0  0  0  0  0  0  0  0  0  0
    9.6897  -16.5018   22.3548 C   0  0  0  0  0  0  0  0  0  0  0  0
    8.8691  -17.2515   22.9375 O   0  0  0  0  0  0  0  0  0  0  0  0
   11.9187  -20.7395   21.6390 N   0  0  0  0  0  0  0  0  0  0  0  0
   12.4671  -20.8435   22.9392 C   0  0  0  0  0  0  0  0  0  0  0  0
   13.0323  -21.8916   23.3080 O   0  0  0  0  0  0  0  0  0  0  0  0
   12.3360  -19.6454   23.8396 C   0  0  0  0  0  0  0  0  0  0  0  0
   11.6727  -18.5597   23.0523 C   0  0  0  0  0  0  0  0  0  0  0  0
   11.5434  -17.3085   23.8545 C   0  0  2  0  0  0  0  0  0  0  0  0
   10.9108  -16.2586   23.0512 N   0  0  0  0  0  0  0  0  0  0  0  0
   12.8020  -16.8257   24.4427 C   0  0  0  0  0  0  0  0  0  0  0  0
   13.4487  -15.6783   23.9428 O   0  0  0  0  0  0  0  0  0  0  0  0
   13.3530  -17.3922   25.3944 O   0  0  0  0  0  0  0  0  0  0  0  0
  2  1  1  6
  2  3  1  0
  3  4  1  0
  5  2  1  0
  6  5  2  0
  7  5  1  0
  8  7  1  0
  8  9  1  1
 10 11  1  0
 10  9  1  0
 12 11  1  0
 13 12  1  0
 14 22  1  0
 14  8  1  0
 15 14  2  0
 17 16  1  0
 18 17  2  0
 19 17  1  0
 21 20  1  6
 20 19  1  0
 21 23  1  0
 21 22  1  0
 23 24  1  0
 25 23  2  0
M  END
$$$$
