CKQ.pdb
     RDKit          3D

 25 24  0  0  1  0  0  0  0  0999 V2000
    4.4513  -23.1837   16.9897 N   0  0  0  0  0  0  0  0  0  0  0  0
    5.6493  -22.4807   17.3218 C   0  0  1  0  0  0  0  0  0  0  0  0
    5.8839  -21.4076   16.2812 C   0  0  0  0  0  0  0  0  0  0  0  0
    7.6192  -20.9641   16.1881 S   0  0  0  0  0  0  0  0  0  0  0  0
    5.5352  -21.9094   18.6733 C   0  0  0  0  0  0  0  0  0  0  0  0
    6.3516  -21.0612   19.0904 O   0  0  0  0  0  0  0  0  0  0  0  0
    4.4859  -22.3245   19.5173 N   0  0  0  0  0  0  0  0  0  0  0  0
    4.2591  -21.7636   20.8455 C   0  0  1  0  0  0  0  0  0  0  0  0
    2.8438  -21.8608   21.2646 C   0  0  0  0  0  0  0  0  0  0  0  0
    1.9192  -20.9432   20.5139 C   0  0  0  0  0  0  0  0  0  0  0  0
    0.4678  -21.1949   20.9095 C   0  0  0  0  0  0  0  0  0  0  0  0
   -0.3597  -20.2062   20.0839 C   0  0  0  0  0  0  0  0  0  0  0  0
   -1.7567  -20.4456   20.4062 N   0  0  0  0  0  0  0  0  0  0  0  0
    5.2358  -22.3671   21.7848 C   0  0  0  0  0  0  0  0  0  0  0  0
    5.4384  -23.5978   21.9226 O   0  0  0  0  0  0  0  0  0  0  0  0
   10.8378  -21.1130   25.7218 N   0  0  0  0  0  0  0  0  0  0  0  0
   10.1352  -20.4224   24.7062 C   0  0  0  0  0  0  0  0  0  0  0  0
   10.7442  -19.7078   23.8861 O   0  0  0  0  0  0  0  0  0  0  0  0
    8.6408  -20.5910   24.6662 C   0  0  0  0  0  0  0  0  0  0  0  0
    8.3042  -21.3366   23.4134 C   0  0  0  0  0  0  0  0  0  0  0  0
    7.0085  -22.0642   23.5460 C   0  0  2  0  0  0  0  0  0  0  0  0
    6.0234  -21.5122   22.6119 N   0  0  0  0  0  0  0  0  0  0  0  0
    6.4649  -22.1024   24.9121 C   0  0  0  0  0  0  0  0  0  0  0  0
    6.6444  -23.2295   25.7381 O   0  0  0  0  0  0  0  0  0  0  0  0
    5.8302  -21.1610   25.4031 O   0  0  0  0  0  0  0  0  0  0  0  0
  2  1  1  6
  2  3  1  0
  3  4  1  0
  5  2  1  0
  6  5  2  0
  7  5  1  0
  8  7  1  0
  8  9  1  1
 10 11  1  0
 10  9  1  0
 12 11  1  0
 13 12  1  0
 14 22  1  0
 14  8  1  0
 15 14  2  0
 17 16  1  0
 18 17  2  0
 19 17  1  0
 21 20  1  1
 20 19  1  0
 21 23  1  0
 21 22  1  0
 23 24  1  0
 25 23  2  0
M  END
$$$$
