CKQ.pdb
     RDKit          3D

 25 24  0  0  1  0  0  0  0  0999 V2000
   14.3075  -17.8144   15.2669 N   0  0  0  0  0  0  0  0  0  0  0  0
   14.7477  -18.6634   16.3277 C   0  0  1  0  0  0  0  0  0  0  0  0
   16.2539  -18.5641   16.4323 C   0  0  0  0  0  0  0  0  0  0  0  0
   17.0431  -20.0724   15.8675 S   0  0  0  0  0  0  0  0  0  0  0  0
   14.0903  -18.2735   17.5854 C   0  0  0  0  0  0  0  0  0  0  0  0
   14.1162  -17.0931   17.9925 O   0  0  0  0  0  0  0  0  0  0  0  0
   13.4170  -19.2479   18.3490 N   0  0  0  0  0  0  0  0  0  0  0  0
   12.7626  -18.9551   19.6204 C   0  0  1  0  0  0  0  0  0  0  0  0
   11.5824  -19.8146   19.8582 C   0  0  0  0  0  0  0  0  0  0  0  0
   10.8765  -19.5388   21.1567 C   0  0  0  0  0  0  0  0  0  0  0  0
    9.6199  -20.3941   21.2821 C   0  0  0  0  0  0  0  0  0  0  0  0
    8.9912  -20.0052   22.6228 C   0  0  0  0  0  0  0  0  0  0  0  0
    7.7705  -20.7817   22.7628 N   0  0  0  0  0  0  0  0  0  0  0  0
   13.7860  -18.9812   20.6940 C   0  0  0  0  0  0  0  0  0  0  0  0
   14.6970  -19.8374   20.8015 O   0  0  0  0  0  0  0  0  0  0  0  0
   18.8360  -15.3350   22.6239 N   0  0  0  0  0  0  0  0  0  0  0  0
   17.4414  -15.3853   22.3899 C   0  0  0  0  0  0  0  0  0  0  0  0
   16.7767  -14.3358   22.2865 O   0  0  0  0  0  0  0  0  0  0  0  0
   16.8113  -16.7465   22.2739 C   0  0  0  0  0  0  0  0  0  0  0  0
   15.4386  -16.6599   22.8628 C   0  0  0  0  0  0  0  0  0  0  0  0
   14.7354  -17.9740   22.7964 C   0  0  2  0  0  0  0  0  0  0  0  0
   13.7632  -17.9698   21.6998 N   0  0  0  0  0  0  0  0  0  0  0  0
   14.0981  -18.3916   24.0544 C   0  0  0  0  0  0  0  0  0  0  0  0
   12.6976  -18.4991   24.1629 O   0  0  0  0  0  0  0  0  0  0  0  0
   14.7474  -18.6672   25.0707 O   0  0  0  0  0  0  0  0  0  0  0  0
  2  1  1  6
  2  3  1  0
  3  4  1  0
  5  2  1  0
  6  5  2  0
  7  5  1  0
  8  7  1  0
  8  9  1  1
 10 11  1  0
 10  9  1  0
 12 11  1  0
 13 12  1  0
 14 22  1  0
 14  8  1  0
 15 14  2  0
 17 16  1  0
 18 17  2  0
 19 17  1  0
 21 20  1  1
 20 19  1  0
 21 23  1  0
 21 22  1  0
 23 24  1  0
 25 23  2  0
M  END
$$$$
