CKQ.pdb
     RDKit          3D

 25 24  0  0  1  0  0  0  0  0999 V2000
    7.5364  -14.8348   18.1051 N   0  0  0  0  0  0  0  0  0  0  0  0
    8.4942  -14.4382   19.0875 C   0  0  1  0  0  0  0  0  0  0  0  0
    8.2164  -13.0038   19.4813 C   0  0  0  0  0  0  0  0  0  0  0  0
    9.3200  -11.8737   18.6318 S   0  0  0  0  0  0  0  0  0  0  0  0
    8.4243  -15.3417   20.2470 C   0  0  0  0  0  0  0  0  0  0  0  0
    7.3289  -15.6693   20.7495 O   0  0  0  0  0  0  0  0  0  0  0  0
    9.6143  -15.8499   20.8052 N   0  0  0  0  0  0  0  0  0  0  0  0
    9.6435  -16.6782   22.0066 C   0  0  1  0  0  0  0  0  0  0  0  0
   10.6282  -17.7777   21.9096 C   0  0  0  0  0  0  0  0  0  0  0  0
   10.7073  -18.6384   23.1398 C   0  0  0  0  0  0  0  0  0  0  0  0
   11.7613  -19.7279   22.9715 C   0  0  0  0  0  0  0  0  0  0  0  0
   11.6646  -20.5905   24.2328 C   0  0  0  0  0  0  0  0  0  0  0  0
   12.5804  -21.7055   24.0584 N   0  0  0  0  0  0  0  0  0  0  0  0
    9.8042  -15.7925   23.1856 C   0  0  0  0  0  0  0  0  0  0  0  0
   10.7833  -15.0348   23.3907 O   0  0  0  0  0  0  0  0  0  0  0  0
    6.1062  -11.1710   27.2267 N   0  0  0  0  0  0  0  0  0  0  0  0
    6.2209  -12.3581   26.4652 C   0  0  0  0  0  0  0  0  0  0  0  0
    5.2427  -12.8052   25.8351 O   0  0  0  0  0  0  0  0  0  0  0  0
    7.5607  -13.0424   26.4544 C   0  0  0  0  0  0  0  0  0  0  0  0
    7.5268  -14.0836   25.3804 C   0  0  0  0  0  0  0  0  0  0  0  0
    8.8268  -14.8095   25.2868 C   0  0  2  0  0  0  0  0  0  0  0  0
    8.7860  -15.7748   24.1847 N   0  0  0  0  0  0  0  0  0  0  0  0
    9.2549  -15.4618   26.5335 C   0  0  0  0  0  0  0  0  0  0  0  0
   10.4985  -16.1174   26.6248 O   0  0  0  0  0  0  0  0  0  0  0  0
    8.5569  -15.4700   27.5547 O   0  0  0  0  0  0  0  0  0  0  0  0
  2  1  1  6
  2  3  1  0
  3  4  1  0
  5  2  1  0
  6  5  2  0
  7  5  1  0
  8  7  1  0
  8  9  1  6
 10 11  1  0
 10  9  1  0
 12 11  1  0
 13 12  1  0
 14 22  1  0
 14  8  1  0
 15 14  2  0
 17 16  1  0
 18 17  2  0
 19 17  1  0
 21 20  1  1
 20 19  1  0
 21 23  1  0
 21 22  1  0
 23 24  1  0
 25 23  2  0
M  END
$$$$
