YQV.pdb
     RDKit          3D

 29 29  0  0  1  0  0  0  0  0999 V2000
   29.4848  -14.9314  -18.9133 O   0  0  0  0  0  0  0  0  0  0  0  0
   28.8093  -15.8805  -18.1672 C   0  0  0  0  0  0  0  0  0  0  0  0
   28.4533  -17.1055  -18.7416 C   0  0  0  0  0  0  0  0  0  0  0  0
   27.7816  -18.0167  -17.9560 C   0  0  0  0  0  0  0  0  0  0  0  0
   27.4660  -17.7413  -16.6480 C   0  0  0  0  0  0  0  0  0  0  0  0
   26.7537  -18.7331  -15.8493 C   0  0  0  0  0  0  0  0  0  0  0  0
   27.6551  -19.6757  -15.1042 C   0  0  2  0  0  0  0  0  0  0  0  0
   28.4093  -20.4399  -16.0903 N   0  0  0  0  0  0  0  0  0  0  0  0
   26.8030  -20.6280  -14.3522 C   0  0  0  0  0  0  0  0  0  0  0  0
   27.1714  -21.8254  -14.2830 O   0  0  0  0  0  0  0  0  0  0  0  0
   27.8302  -16.5260  -16.1113 C   0  0  0  0  0  0  0  0  0  0  0  0
   28.5079  -15.5759  -16.8627 C   0  0  0  0  0  0  0  0  0  0  0  0
   24.9314  -21.5644   -9.2260 N   0  0  0  0  0  0  0  0  0  0  0  0
   25.8922  -20.5483   -9.5489 C   0  0  0  0  0  0  0  0  0  0  0  0
   26.2153  -19.7678   -8.6091 O   0  0  0  0  0  0  0  0  0  0  0  0
   26.4637  -20.4366  -10.9184 C   0  0  0  0  0  0  0  0  0  0  0  0
   25.9277  -21.5910  -11.7235 C   0  0  0  0  0  0  0  0  0  0  0  0
   24.9675  -21.1624  -12.8009 C   0  0  2  0  0  0  0  0  0  0  0  0
   25.5971  -20.2515  -13.7105 N   0  0  0  0  0  0  0  0  0  0  0  0
   23.7026  -20.6104  -12.2363 C   0  0  0  0  0  0  0  0  0  0  0  0
   23.7663  -19.5757  -11.5512 O   0  0  0  0  0  0  0  0  0  0  0  0
   20.9269  -19.7994  -15.6292 C   0  0  0  0  0  0  0  0  0  0  0  0
   21.9022  -20.5332  -14.7482 C   0  0  2  0  0  0  0  0  0  0  0  0
   22.0311  -21.9400  -15.2935 C   0  0  0  0  0  0  0  0  0  0  0  0
   21.4603  -20.6169  -13.3188 C   0  0  2  0  0  0  0  0  0  0  0  0
   22.4535  -21.2408  -12.4684 N   0  0  0  0  0  0  0  0  0  0  0  0
   20.2152  -21.4253  -13.2633 C   0  0  0  0  0  0  0  0  0  0  0  0
   18.9539  -20.8465  -13.2571 O   0  0  0  0  0  0  0  0  0  0  0  0
   20.2581  -22.6854  -13.2190 O   0  0  0  0  0  0  0  0  0  0  0  0
  2  1  1  0
  2  3  2  0
  4  3  1  0
  5  4  2  0
  6  5  1  0
  7  6  1  0
  7  8  1  6
  9  7  1  0
  9 10  2  0
 11 12  2  0
 11  5  1  0
 12  2  1  0
 14 16  1  0
 14 13  1  0
 15 14  2  0
 18 17  1  1
 17 16  1  0
 18 19  1  0
 19  9  1  0
 20 18  1  0
 21 20  2  0
 23 22  1  6
 23 25  1  0
 24 23  1  0
 25 26  1  1
 26 20  1  0
 27 25  1  0
 27 28  1  0
 29 27  2  0
M  END
$$$$
