YQV.pdb
     RDKit          3D

 29 29  0  0  1  0  0  0  0  0999 V2000
   34.4093  -26.3200  -20.7347 O   0  0  0  0  0  0  0  0  0  0  0  0
   33.7245  -27.4841  -20.4351 C   0  0  0  0  0  0  0  0  0  0  0  0
   34.2760  -28.7287  -20.7575 C   0  0  0  0  0  0  0  0  0  0  0  0
   33.5538  -29.8579  -20.4379 C   0  0  0  0  0  0  0  0  0  0  0  0
   32.3292  -29.7757  -19.8216 C   0  0  0  0  0  0  0  0  0  0  0  0
   31.5957  -30.9953  -19.4996 C   0  0  0  0  0  0  0  0  0  0  0  0
   31.3994  -31.2166  -18.0269 C   0  0  2  0  0  0  0  0  0  0  0  0
   32.6594  -31.7049  -17.4804 N   0  0  0  0  0  0  0  0  0  0  0  0
   30.3884  -32.2873  -17.8542 C   0  0  0  0  0  0  0  0  0  0  0  0
   30.7879  -33.4334  -17.5359 O   0  0  0  0  0  0  0  0  0  0  0  0
   31.8129  -28.5354  -19.5169 C   0  0  0  0  0  0  0  0  0  0  0  0
   32.5027  -27.3694  -19.8190 C   0  0  0  0  0  0  0  0  0  0  0  0
   25.5530  -32.2071  -14.6156 N   0  0  0  0  0  0  0  0  0  0  0  0
   26.0631  -33.5485  -14.6411 C   0  0  0  0  0  0  0  0  0  0  0  0
   25.7145  -34.2957  -13.6835 O   0  0  0  0  0  0  0  0  0  0  0  0
   26.9506  -34.0138  -15.7413 C   0  0  0  0  0  0  0  0  0  0  0  0
   27.1462  -32.8533  -16.6808 C   0  0  0  0  0  0  0  0  0  0  0  0
   28.0883  -33.1643  -17.8132 C   0  0  2  0  0  0  0  0  0  0  0  0
   28.9982  -32.0786  -18.0307 N   0  0  0  0  0  0  0  0  0  0  0  0
   27.3612  -33.5476  -19.0573 C   0  0  0  0  0  0  0  0  0  0  0  0
   26.9560  -32.6415  -19.8048 O   0  0  0  0  0  0  0  0  0  0  0  0
   27.4647  -37.5142  -20.5384 C   0  0  0  0  0  0  0  0  0  0  0  0
   27.0217  -36.3419  -21.3723 C   0  0  2  0  0  0  0  0  0  0  0  0
   28.2567  -35.7688  -22.0352 C   0  0  0  0  0  0  0  0  0  0  0  0
   26.3682  -35.2586  -20.5693 C   0  0  2  0  0  0  0  0  0  0  0  0
   27.1320  -34.9072  -19.3894 N   0  0  0  0  0  0  0  0  0  0  0  0
   25.0301  -35.7405  -20.1401 C   0  0  0  0  0  0  0  0  0  0  0  0
   23.9407  -35.7695  -20.9995 O   0  0  0  0  0  0  0  0  0  0  0  0
   24.8308  -36.1469  -18.9625 O   0  0  0  0  0  0  0  0  0  0  0  0
  2  1  1  0
  2  3  2  0
  4  3  1  0
  5  4  2  0
  6  5  1  0
  7  6  1  0
  7  8  1  6
  9  7  1  0
  9 10  2  0
 11 12  2  0
 11  5  1  0
 12  2  1  0
 14 16  1  0
 14 13  1  0
 15 14  2  0
 18 17  1  1
 17 16  1  0
 18 19  1  0
 19  9  1  0
 20 18  1  0
 21 20  2  0
 23 22  1  1
 23 25  1  0
 24 23  1  0
 25 26  1  1
 26 20  1  0
 27 25  1  0
 27 28  1  0
 29 27  2  0
M  END
$$$$
