YQV.pdb
     RDKit          3D

 29 29  0  0  1  0  0  0  0  0999 V2000
   28.6353  -20.4156  -20.3557 O   0  0  0  0  0  0  0  0  0  0  0  0
   28.1273  -20.1068  -19.1066 C   0  0  0  0  0  0  0  0  0  0  0  0
   28.7034  -19.0845  -18.3449 C   0  0  0  0  0  0  0  0  0  0  0  0
   28.1602  -18.8162  -17.1073 C   0  0  0  0  0  0  0  0  0  0  0  0
   27.0861  -19.5243  -16.6264 C   0  0  0  0  0  0  0  0  0  0  0  0
   26.5399  -19.2093  -15.3105 C   0  0  0  0  0  0  0  0  0  0  0  0
   27.2317  -19.9155  -14.1796 C   0  0  2  0  0  0  0  0  0  0  0  0
   27.1823  -21.3463  -14.4543 N   0  0  0  0  0  0  0  0  0  0  0  0
   26.4560  -19.6678  -12.9405 C   0  0  0  0  0  0  0  0  0  0  0  0
   25.5471  -18.8035  -12.9734 O   0  0  0  0  0  0  0  0  0  0  0  0
   26.5411  -20.5251  -17.4004 C   0  0  0  0  0  0  0  0  0  0  0  0
   27.0533  -20.8323  -18.6533 C   0  0  0  0  0  0  0  0  0  0  0  0
   23.0687  -21.9802  -13.1091 N   0  0  0  0  0  0  0  0  0  0  0  0
   22.9283  -20.5544  -13.0232 C   0  0  0  0  0  0  0  0  0  0  0  0
   22.1497  -20.0193  -13.8625 O   0  0  0  0  0  0  0  0  0  0  0  0
   23.6661  -19.7687  -11.9970 C   0  0  0  0  0  0  0  0  0  0  0  0
   24.3852  -20.7515  -11.1112 C   0  0  0  0  0  0  0  0  0  0  0  0
   25.7360  -20.2613  -10.6622 C   0  0  2  0  0  0  0  0  0  0  0  0
   26.6916  -20.3581  -11.7257 N   0  0  0  0  0  0  0  0  0  0  0  0
   26.1991  -20.9515   -9.4243 C   0  0  0  0  0  0  0  0  0  0  0  0
   26.3531  -22.1840   -9.4605 O   0  0  0  0  0  0  0  0  0  0  0  0
   27.2273  -18.7879   -5.7617 C   0  0  0  0  0  0  0  0  0  0  0  0
   27.8126  -20.1063   -6.1918 C   0  0  2  0  0  0  0  0  0  0  0  0
   29.0488  -19.8038   -7.0123 C   0  0  0  0  0  0  0  0  0  0  0  0
   26.8761  -20.9240   -7.0283 C   0  0  2  0  0  0  0  0  0  0  0  0
   26.4602  -20.2311   -8.2309 N   0  0  0  0  0  0  0  0  0  0  0  0
   25.6698  -21.2263   -6.2158 C   0  0  0  0  0  0  0  0  0  0  0  0
   25.7246  -22.0004   -5.0651 O   0  0  0  0  0  0  0  0  0  0  0  0
   24.5348  -20.7849   -6.5453 O   0  0  0  0  0  0  0  0  0  0  0  0
  2  1  1  0
  2  3  2  0
  4  3  1  0
  5  4  2  0
  6  5  1  0
  7  6  1  0
  7  8  1  6
  9  7  1  0
  9 10  2  0
 11 12  2  0
 11  5  1  0
 12  2  1  0
 14 16  1  0
 14 13  1  0
 15 14  2  0
 18 17  1  6
 17 16  1  0
 18 19  1  0
 19  9  1  0
 20 18  1  0
 21 20  2  0
 23 22  1  6
 23 25  1  0
 24 23  1  0
 25 26  1  6
 26 20  1  0
 27 25  1  0
 27 28  1  0
 29 27  2  0
M  END
$$$$
