YQV.pdb
     RDKit          3D

 29 29  0  0  1  0  0  0  0  0999 V2000
   30.5886  -15.1814  -19.3192 O   0  0  0  0  0  0  0  0  0  0  0  0
   29.7691  -15.9937  -18.5560 C   0  0  0  0  0  0  0  0  0  0  0  0
   28.4188  -16.1446  -18.8896 C   0  0  0  0  0  0  0  0  0  0  0  0
   27.6453  -16.9649  -18.0975 C   0  0  0  0  0  0  0  0  0  0  0  0
   28.1732  -17.6191  -17.0113 C   0  0  0  0  0  0  0  0  0  0  0  0
   27.3204  -18.4790  -16.1974 C   0  0  0  0  0  0  0  0  0  0  0  0
   27.9403  -19.8043  -15.8573 C   0  0  2  0  0  0  0  0  0  0  0  0
   28.0158  -20.5862  -17.0852 N   0  0  0  0  0  0  0  0  0  0  0  0
   27.0281  -20.5128  -14.9276 C   0  0  0  0  0  0  0  0  0  0  0  0
   26.0242  -21.0915  -15.4088 O   0  0  0  0  0  0  0  0  0  0  0  0
   29.5064  -17.4500  -16.7087 C   0  0  0  0  0  0  0  0  0  0  0  0
   30.3259  -16.6343  -17.4766 C   0  0  0  0  0  0  0  0  0  0  0  0
   24.1828  -21.2011   -8.3802 N   0  0  0  0  0  0  0  0  0  0  0  0
   25.2071  -20.8480   -9.3214 C   0  0  0  0  0  0  0  0  0  0  0  0
   25.6578  -19.6702   -9.2392 O   0  0  0  0  0  0  0  0  0  0  0  0
   25.6973  -21.8271  -10.3292 C   0  0  0  0  0  0  0  0  0  0  0  0
   26.6465  -21.0951  -11.2409 C   0  0  0  0  0  0  0  0  0  0  0  0
   26.2225  -21.1318  -12.6850 C   0  0  2  0  0  0  0  0  0  0  0  0
   27.2354  -20.5672  -13.5270 N   0  0  0  0  0  0  0  0  0  0  0  0
   24.8933  -20.4895  -12.8948 C   0  0  0  0  0  0  0  0  0  0  0  0
   24.8453  -19.2508  -12.9808 O   0  0  0  0  0  0  0  0  0  0  0  0
   22.8751  -20.0786  -15.6553 C   0  0  0  0  0  0  0  0  0  0  0  0
   21.9831  -20.7826  -14.6681 C   0  0  2  0  0  0  0  0  0  0  0  0
   20.5994  -20.1827  -14.8041 C   0  0  0  0  0  0  0  0  0  0  0  0
   22.4320  -20.6228  -13.2474 C   0  0  2  0  0  0  0  0  0  0  0  0
   23.7078  -21.2615  -12.9952 N   0  0  0  0  0  0  0  0  0  0  0  0
   21.4105  -21.2420  -12.3642 C   0  0  0  0  0  0  0  0  0  0  0  0
   20.4630  -20.4898  -11.6840 O   0  0  0  0  0  0  0  0  0  0  0  0
   21.3652  -22.4916  -12.1969 O   0  0  0  0  0  0  0  0  0  0  0  0
  2  1  1  0
  2  3  2  0
  4  3  1  0
  5  4  2  0
  6  5  1  0
  7  6  1  0
  7  8  1  6
  9  7  1  0
  9 10  2  0
 11 12  2  0
 11  5  1  0
 12  2  1  0
 14 16  1  0
 14 13  1  0
 15 14  2  0
 18 17  1  1
 17 16  1  0
 18 19  1  0
 19  9  1  0
 20 18  1  0
 21 20  2  0
 23 22  1  6
 23 25  1  0
 24 23  1  0
 25 26  1  6
 26 20  1  0
 27 25  1  0
 27 28  1  0
 29 27  2  0
M  END
$$$$
