YQV.pdb
     RDKit          3D

 29 29  0  0  1  0  0  0  0  0999 V2000
   27.2445  -17.2195  -15.8046 O   0  0  0  0  0  0  0  0  0  0  0  0
   26.3735  -16.1769  -16.0654 C   0  0  0  0  0  0  0  0  0  0  0  0
   26.0465  -15.8454  -17.3846 C   0  0  0  0  0  0  0  0  0  0  0  0
   25.1744  -14.7987  -17.5907 C   0  0  0  0  0  0  0  0  0  0  0  0
   24.6366  -14.0954  -16.5406 C   0  0  0  0  0  0  0  0  0  0  0  0
   23.7166  -12.9933  -16.8009 C   0  0  0  0  0  0  0  0  0  0  0  0
   22.2700  -13.3502  -16.6104 C   0  0  2  0  0  0  0  0  0  0  0  0
   21.8938  -14.2626  -17.6833 N   0  0  0  0  0  0  0  0  0  0  0  0
   21.4672  -12.1137  -16.7686 C   0  0  0  0  0  0  0  0  0  0  0  0
   21.2452  -11.6961  -17.9307 O   0  0  0  0  0  0  0  0  0  0  0  0
   24.9783  -14.4462  -15.2530 C   0  0  0  0  0  0  0  0  0  0  0  0
   25.8525  -15.4929  -14.9948 C   0  0  0  0  0  0  0  0  0  0  0  0
   16.5021  -10.0981  -13.9107 N   0  0  0  0  0  0  0  0  0  0  0  0
   16.6803  -11.1645  -14.8546 C   0  0  0  0  0  0  0  0  0  0  0  0
   15.7120  -11.9668  -14.9787 O   0  0  0  0  0  0  0  0  0  0  0  0
   17.9412  -11.3006  -15.6333 C   0  0  0  0  0  0  0  0  0  0  0  0
   18.8815  -10.2257  -15.1555 C   0  0  0  0  0  0  0  0  0  0  0  0
   20.1787  -10.1956  -15.9190 C   0  0  2  0  0  0  0  0  0  0  0  0
   20.9409  -11.3842  -15.6739 N   0  0  0  0  0  0  0  0  0  0  0  0
   20.9621   -8.9573  -15.6432 C   0  0  0  0  0  0  0  0  0  0  0  0
   21.8001   -8.9831  -14.7261 O   0  0  0  0  0  0  0  0  0  0  0  0
   21.0044   -5.6835  -18.4530 C   0  0  0  0  0  0  0  0  0  0  0  0
   22.1188   -6.0636  -17.5152 C   0  0  2  0  0  0  0  0  0  0  0  0
   22.9542   -7.1168  -18.2122 C   0  0  0  0  0  0  0  0  0  0  0  0
   21.6311   -6.6281  -16.2157 C   0  0  2  0  0  0  0  0  0  0  0  0
   20.7649   -7.7747  -16.4010 N   0  0  0  0  0  0  0  0  0  0  0  0
   20.8685   -5.5694  -15.5055 C   0  0  0  0  0  0  0  0  0  0  0  0
   21.4902   -4.4875  -14.8978 O   0  0  0  0  0  0  0  0  0  0  0  0
   19.6101   -5.6144  -15.4268 O   0  0  0  0  0  0  0  0  0  0  0  0
  2  1  1  0
  2  3  2  0
  4  3  1  0
  5  4  2  0
  6  5  1  0
  7  6  1  0
  7  8  1  6
  9  7  1  0
  9 10  2  0
 11 12  2  0
 11  5  1  0
 12  2  1  0
 14 16  1  0
 14 13  1  0
 15 14  2  0
 18 17  1  1
 17 16  1  0
 18 19  1  0
 19  9  1  0
 20 18  1  0
 21 20  2  0
 23 22  1  6
 23 25  1  0
 24 23  1  0
 25 26  1  6
 26 20  1  0
 27 25  1  0
 27 28  1  0
 29 27  2  0
M  END
$$$$
