YQV.pdb
     RDKit          3D

 29 29  0  0  1  0  0  0  0  0999 V2000
   31.1739  -16.4216  -18.8748 O   0  0  0  0  0  0  0  0  0  0  0  0
   30.1990  -17.1195  -18.1847 C   0  0  0  0  0  0  0  0  0  0  0  0
   29.2576  -17.8872  -18.8787 C   0  0  0  0  0  0  0  0  0  0  0  0
   28.3074  -18.5631  -18.1447 C   0  0  0  0  0  0  0  0  0  0  0  0
   28.2760  -18.4926  -16.7734 C   0  0  0  0  0  0  0  0  0  0  0  0
   27.2533  -19.2236  -16.0326 C   0  0  0  0  0  0  0  0  0  0  0  0
   27.7954  -20.3421  -15.1892 C   0  0  2  0  0  0  0  0  0  0  0  0
   28.2958  -21.3735  -16.0896 N   0  0  0  0  0  0  0  0  0  0  0  0
   26.6698  -20.9238  -14.4192 C   0  0  0  0  0  0  0  0  0  0  0  0
   26.0412  -21.8853  -14.9238 O   0  0  0  0  0  0  0  0  0  0  0  0
   29.2168  -17.7282  -16.1190 C   0  0  0  0  0  0  0  0  0  0  0  0
   30.1936  -17.0292  -16.8145 C   0  0  0  0  0  0  0  0  0  0  0  0
   25.3970  -20.4287   -8.3657 N   0  0  0  0  0  0  0  0  0  0  0  0
   26.5837  -20.9059   -9.0168 C   0  0  0  0  0  0  0  0  0  0  0  0
   27.5927  -21.0830   -8.2769 O   0  0  0  0  0  0  0  0  0  0  0  0
   26.6047  -21.1710  -10.4810 C   0  0  0  0  0  0  0  0  0  0  0  0
   25.2242  -20.8822  -11.0089 C   0  0  0  0  0  0  0  0  0  0  0  0
   25.1247  -21.0195  -12.5048 C   0  0  2  0  0  0  0  0  0  0  0  0
   26.2718  -20.4473  -13.1456 N   0  0  0  0  0  0  0  0  0  0  0  0
   23.8472  -20.4622  -13.0345 C   0  0  0  0  0  0  0  0  0  0  0  0
   23.8046  -19.2526  -13.3154 O   0  0  0  0  0  0  0  0  0  0  0  0
   19.9349  -20.6748  -15.7416 C   0  0  0  0  0  0  0  0  0  0  0  0
   21.2229  -21.2013  -15.1674 C   0  0  2  0  0  0  0  0  0  0  0  0
   21.1251  -22.7123  -15.1534 C   0  0  0  0  0  0  0  0  0  0  0  0
   21.4831  -20.7296  -13.7691 C   0  0  2  0  0  0  0  0  0  0  0  0
   22.7039  -21.2813  -13.2174 N   0  0  0  0  0  0  0  0  0  0  0  0
   20.3441  -21.1543  -12.9153 C   0  0  0  0  0  0  0  0  0  0  0  0
   19.1821  -20.4041  -12.8005 O   0  0  0  0  0  0  0  0  0  0  0  0
   20.3907  -22.2273  -12.2533 O   0  0  0  0  0  0  0  0  0  0  0  0
  2  1  1  0
  2  3  2  0
  4  3  1  0
  5  4  2  0
  6  5  1  0
  7  6  1  0
  7  8  1  6
  9  7  1  0
  9 10  2  0
 11 12  2  0
 11  5  1  0
 12  2  1  0
 14 16  1  0
 14 13  1  0
 15 14  2  0
 18 17  1  1
 17 16  1  0
 18 19  1  0
 19  9  1  0
 20 18  1  0
 21 20  2  0
 23 22  1  1
 23 25  1  0
 24 23  1  0
 25 26  1  1
 26 20  1  0
 27 25  1  0
 27 28  1  0
 29 27  2  0
M  END
$$$$
