YQV.pdb
     RDKit          3D

 29 29  0  0  1  0  0  0  0  0999 V2000
   30.7754  -16.8872  -19.6097 O   0  0  0  0  0  0  0  0  0  0  0  0
   29.8481  -17.6546  -18.9277 C   0  0  0  0  0  0  0  0  0  0  0  0
   29.5906  -18.9699  -19.3288 C   0  0  0  0  0  0  0  0  0  0  0  0
   28.6580  -19.6919  -18.6163 C   0  0  0  0  0  0  0  0  0  0  0  0
   27.9956  -19.1470  -17.5436 C   0  0  0  0  0  0  0  0  0  0  0  0
   27.0149  -19.9448  -16.8151 C   0  0  0  0  0  0  0  0  0  0  0  0
   27.5855  -20.6857  -15.6396 C   0  0  2  0  0  0  0  0  0  0  0  0
   28.1445  -21.9379  -16.1340 N   0  0  0  0  0  0  0  0  0  0  0  0
   26.4696  -21.0216  -14.7228 C   0  0  0  0  0  0  0  0  0  0  0  0
   25.8514  -22.0970  -14.9112 O   0  0  0  0  0  0  0  0  0  0  0  0
   28.2712  -17.8491  -17.1733 C   0  0  0  0  0  0  0  0  0  0  0  0
   29.2023  -17.0820  -17.8598 C   0  0  0  0  0  0  0  0  0  0  0  0
   25.9708  -21.6951   -9.5185 N   0  0  0  0  0  0  0  0  0  0  0  0
   24.5856  -21.3198   -9.5041 C   0  0  0  0  0  0  0  0  0  0  0  0
   23.8653  -21.8800   -8.6299 O   0  0  0  0  0  0  0  0  0  0  0  0
   24.0472  -20.3257  -10.4719 C   0  0  0  0  0  0  0  0  0  0  0  0
   25.1649  -19.9681  -11.4158 C   0  0  0  0  0  0  0  0  0  0  0  0
   25.0336  -20.6296  -12.7618 C   0  0  2  0  0  0  0  0  0  0  0  0
   26.0699  -20.1890  -13.6483 N   0  0  0  0  0  0  0  0  0  0  0  0
   23.6750  -20.4434  -13.3471 C   0  0  0  0  0  0  0  0  0  0  0  0
   23.3853  -19.3314  -13.8199 O   0  0  0  0  0  0  0  0  0  0  0  0
   22.1688  -22.3094  -16.1848 C   0  0  0  0  0  0  0  0  0  0  0  0
   21.1694  -22.3440  -15.0596 C   0  0  2  0  0  0  0  0  0  0  0  0
   19.8066  -22.0683  -15.6594 C   0  0  0  0  0  0  0  0  0  0  0  0
   21.4373  -21.3194  -13.9994 C   0  0  2  0  0  0  0  0  0  0  0  0
   22.7294  -21.5002  -13.3694 N   0  0  0  0  0  0  0  0  0  0  0  0
   20.3833  -21.4394  -12.9595 C   0  0  0  0  0  0  0  0  0  0  0  0
   19.3219  -20.5495  -12.8721 O   0  0  0  0  0  0  0  0  0  0  0  0
   20.4136  -22.3672  -12.1051 O   0  0  0  0  0  0  0  0  0  0  0  0
  2  1  1  0
  2  3  2  0
  4  3  1  0
  5  4  2  0
  6  5  1  0
  7  6  1  0
  7  8  1  6
  9  7  1  0
  9 10  2  0
 11 12  2  0
 11  5  1  0
 12  2  1  0
 14 16  1  0
 14 13  1  0
 15 14  2  0
 18 17  1  1
 17 16  1  0
 18 19  1  0
 19  9  1  0
 20 18  1  0
 21 20  2  0
 23 22  1  6
 23 25  1  0
 24 23  1  0
 25 26  1  1
 26 20  1  0
 27 25  1  0
 27 28  1  0
 29 27  2  0
M  END
$$$$
