YQV.pdb
     RDKit          3D

 29 29  0  0  1  0  0  0  0  0999 V2000
   29.3179  -14.6569  -19.0448 O   0  0  0  0  0  0  0  0  0  0  0  0
   28.5481  -15.5747  -18.3529 C   0  0  0  0  0  0  0  0  0  0  0  0
   27.7149  -16.4598  -19.0453 C   0  0  0  0  0  0  0  0  0  0  0  0
   26.9686  -17.3544  -18.3095 C   0  0  0  0  0  0  0  0  0  0  0  0
   27.0330  -17.3850  -16.9380 C   0  0  0  0  0  0  0  0  0  0  0  0
   26.2265  -18.3478  -16.1952 C   0  0  0  0  0  0  0  0  0  0  0  0
   27.0255  -19.4514  -15.5628 C   0  0  2  0  0  0  0  0  0  0  0  0
   27.4265  -20.3704  -16.6210 N   0  0  0  0  0  0  0  0  0  0  0  0
   26.1343  -20.1915  -14.6374 C   0  0  0  0  0  0  0  0  0  0  0  0
   25.5563  -21.2191  -15.0666 O   0  0  0  0  0  0  0  0  0  0  0  0
   27.8630  -16.5004  -16.2850 C   0  0  0  0  0  0  0  0  0  0  0  0
   28.6341  -15.5809  -16.9824 C   0  0  0  0  0  0  0  0  0  0  0  0
   26.1104  -20.1861   -8.4476 N   0  0  0  0  0  0  0  0  0  0  0  0
   25.0339  -21.0928   -8.7286 C   0  0  0  0  0  0  0  0  0  0  0  0
   24.5193  -21.6734   -7.7311 O   0  0  0  0  0  0  0  0  0  0  0  0
   24.5649  -21.3225  -10.1221 C   0  0  0  0  0  0  0  0  0  0  0  0
   25.4590  -20.5240  -11.0336 C   0  0  0  0  0  0  0  0  0  0  0  0
   25.0216  -20.5666  -12.4735 C   0  0  2  0  0  0  0  0  0  0  0  0
   25.9051  -19.7949  -13.2966 N   0  0  0  0  0  0  0  0  0  0  0  0
   23.5972  -20.1574  -12.6383 C   0  0  0  0  0  0  0  0  0  0  0  0
   23.3129  -18.9539  -12.5169 O   0  0  0  0  0  0  0  0  0  0  0  0
   20.7560  -22.4715  -14.7703 C   0  0  0  0  0  0  0  0  0  0  0  0
   20.6349  -21.0158  -14.4069 C   0  0  2  0  0  0  0  0  0  0  0  0
   21.3990  -20.2266  -15.4491 C   0  0  0  0  0  0  0  0  0  0  0  0
   21.2023  -20.6943  -13.0578 C   0  0  2  0  0  0  0  0  0  0  0  0
   22.5846  -21.1078  -12.9261 N   0  0  0  0  0  0  0  0  0  0  0  0
   20.3963  -21.4055  -12.0325 C   0  0  0  0  0  0  0  0  0  0  0  0
   20.8926  -22.4856  -11.3160 O   0  0  0  0  0  0  0  0  0  0  0  0
   19.2145  -21.0500  -11.7709 O   0  0  0  0  0  0  0  0  0  0  0  0
  2  1  1  0
  2  3  2  0
  4  3  1  0
  5  4  2  0
  6  5  1  0
  7  6  1  0
  7  8  1  6
  9  7  1  0
  9 10  2  0
 11 12  2  0
 11  5  1  0
 12  2  1  0
 14 16  1  0
 14 13  1  0
 15 14  2  0
 18 17  1  1
 17 16  1  0
 18 19  1  0
 19  9  1  0
 20 18  1  0
 21 20  2  0
 23 22  1  6
 23 25  1  0
 24 23  1  0
 25 26  1  6
 26 20  1  0
 27 25  1  0
 27 28  1  0
 29 27  2  0
M  END
$$$$
