DFM.pdb
     RDKit          3D

 28 28  0  0  1  0  0  0  0  0999 V2000
   23.1390  -11.5766  -19.0076 N   0  0  0  0  0  0  0  0  0  0  0  0
   22.6669  -10.2677  -19.3443 C   0  0  1  0  0  0  0  0  0  0  0  0
   21.4702  -10.3812  -20.2478 C   0  0  0  0  0  0  0  0  0  0  0  0
   21.7932  -10.7082  -21.6438 C   0  0  0  0  0  0  0  0  0  0  0  0
   22.9947  -10.9560  -21.9193 O   0  0  0  0  0  0  0  0  0  0  0  0
   22.3243   -9.4959  -18.1224 C   0  0  0  0  0  0  0  0  0  0  0  0
   21.5844   -9.9341  -17.2135 O   0  0  0  0  0  0  0  0  0  0  0  0
   20.8986  -10.7704  -22.6951 O   0  0  0  0  0  0  0  0  0  0  0  0
   22.8658   -8.1758  -17.9750 N   0  0  0  0  0  0  0  0  0  0  0  0
   22.6125   -7.3845  -16.7895 C   0  0  1  0  0  0  0  0  0  0  0  0
   23.9161   -6.9952  -16.1611 C   0  0  0  0  0  0  0  0  0  0  0  0
   24.7571   -8.0828  -15.6786 C   0  0  0  0  0  0  0  0  0  0  0  0
   25.9501   -8.4037  -16.2530 C   0  0  0  0  0  0  0  0  0  0  0  0
   26.7353   -9.4673  -15.7937 C   0  0  0  0  0  0  0  0  0  0  0  0
   26.2957  -10.2220  -14.7243 C   0  0  0  0  0  0  0  0  0  0  0  0
   25.0856   -9.9113  -14.1268 C   0  0  0  0  0  0  0  0  0  0  0  0
   24.3251   -8.8415  -14.6105 C   0  0  0  0  0  0  0  0  0  0  0  0
   21.9574   -6.1089  -17.2671 C   0  0  0  0  0  0  0  0  0  0  0  0
   22.4006   -5.5643  -18.2991 O   0  0  0  0  0  0  0  0  0  0  0  0
   15.9573   -2.7916  -19.8791 C   0  0  0  0  0  0  0  0  0  0  0  0
   16.8846   -4.2276  -19.3097 S   0  0  0  0  0  0  0  0  0  0  0  0
   18.0283   -3.7216  -18.0161 C   0  0  0  0  0  0  0  0  0  0  0  0
   18.8928   -4.9095  -17.6671 C   0  0  0  0  0  0  0  0  0  0  0  0
   20.1383   -4.3966  -16.9738 C   0  0  2  0  0  0  0  0  0  0  0  0
   20.8886   -5.5869  -16.5450 N   0  0  0  0  0  0  0  0  0  0  0  0
   19.8432   -3.5645  -15.7971 C   0  0  0  0  0  0  0  0  0  0  0  0
   19.9367   -2.1868  -15.8617 O   0  0  0  0  0  0  0  0  0  0  0  0
   19.5011   -4.0976  -14.7140 O   0  0  0  0  0  0  0  0  0  0  0  0
  2  1  1  1
  2  6  1  0
  3  2  1  0
  4  3  1  0
  4  8  1  0
  5  4  2  0
  6  7  2  0
  6  9  1  0
  9 10  1  0
 10 11  1  6
 11 12  1  0
 12 17  2  0
 13 12  1  0
 13 14  2  0
 14 15  1  0
 15 16  2  0
 17 16  1  0
 18 10  1  0
 18 19  2  0
 20 21  1  0
 21 22  1  0
 24 23  1  1
 23 22  1  0
 24 25  1  0
 25 18  1  0
 26 24  1  0
 27 26  1  0
 28 26  2  0
M  END
$$$$
