DFM.pdb
     RDKit          3D

 28 28  0  0  1  0  0  0  0  0999 V2000
   27.3287  -22.5693  -16.2945 N   0  0  0  0  0  0  0  0  0  0  0  0
   26.4412  -21.4702  -16.0621 C   0  0  1  0  0  0  0  0  0  0  0  0
   25.6203  -21.2166  -17.2962 C   0  0  0  0  0  0  0  0  0  0  0  0
   26.3907  -20.7215  -18.4458 C   0  0  0  0  0  0  0  0  0  0  0  0
   26.5804  -21.5146  -19.4027 O   0  0  0  0  0  0  0  0  0  0  0  0
   25.5593  -21.7367  -14.8970 C   0  0  0  0  0  0  0  0  0  0  0  0
   25.1594  -22.8791  -14.5804 O   0  0  0  0  0  0  0  0  0  0  0  0
   26.9335  -19.4580  -18.5809 O   0  0  0  0  0  0  0  0  0  0  0  0
   25.1389  -20.6266  -14.0917 N   0  0  0  0  0  0  0  0  0  0  0  0
   24.3118  -20.8160  -12.9187 C   0  0  1  0  0  0  0  0  0  0  0  0
   24.6343  -19.7606  -11.9048 C   0  0  0  0  0  0  0  0  0  0  0  0
   24.7191  -20.1951  -10.5167 C   0  0  0  0  0  0  0  0  0  0  0  0
   25.8984  -20.5161   -9.9147 C   0  0  0  0  0  0  0  0  0  0  0  0
   25.9614  -20.9559   -8.5876 C   0  0  0  0  0  0  0  0  0  0  0  0
   24.7962  -21.0716   -7.8558 C   0  0  0  0  0  0  0  0  0  0  0  0
   23.5874  -20.7498   -8.4501 C   0  0  0  0  0  0  0  0  0  0  0  0
   23.5596  -20.3131   -9.7787 C   0  0  0  0  0  0  0  0  0  0  0  0
   22.8878  -20.5755  -13.3646 C   0  0  0  0  0  0  0  0  0  0  0  0
   22.6515  -19.5867  -14.0888 O   0  0  0  0  0  0  0  0  0  0  0  0
   15.9990  -24.1817  -14.1480 C   0  0  0  0  0  0  0  0  0  0  0  0
   17.7271  -24.2595  -13.6439 S   0  0  0  0  0  0  0  0  0  0  0  0
   18.4171  -22.5978  -13.6294 C   0  0  0  0  0  0  0  0  0  0  0  0
   19.8837  -22.7049  -13.2865 C   0  0  0  0  0  0  0  0  0  0  0  0
   20.4837  -21.3153  -13.3500 C   0  0  2  0  0  0  0  0  0  0  0  0
   21.8934  -21.4587  -12.9555 N   0  0  0  0  0  0  0  0  0  0  0  0
   19.8260  -20.3601  -12.4450 C   0  0  0  0  0  0  0  0  0  0  0  0
   18.7964  -19.5534  -12.8924 O   0  0  0  0  0  0  0  0  0  0  0  0
   20.1929  -20.2651  -11.2489 O   0  0  0  0  0  0  0  0  0  0  0  0
  2  1  1  6
  2  6  1  0
  3  2  1  0
  4  3  1  0
  4  8  1  0
  5  4  2  0
  6  7  2  0
  6  9  1  0
  9 10  1  0
 10 11  1  1
 11 12  1  0
 12 17  2  0
 13 12  1  0
 13 14  2  0
 14 15  1  0
 15 16  2  0
 17 16  1  0
 18 10  1  0
 18 19  2  0
 20 21  1  0
 21 22  1  0
 24 23  1  1
 23 22  1  0
 24 25  1  0
 25 18  1  0
 26 24  1  0
 27 26  1  0
 28 26  2  0
M  END
$$$$
