DFM.pdb
     RDKit          3D

 28 28  0  0  1  0  0  0  0  0999 V2000
   27.6231  -21.9478  -13.7778 N   0  0  0  0  0  0  0  0  0  0  0  0
   27.6057  -20.7655  -12.9708 C   0  0  1  0  0  0  0  0  0  0  0  0
   26.6490  -19.7670  -13.5614 C   0  0  0  0  0  0  0  0  0  0  0  0
   27.0508  -19.2463  -14.8758 C   0  0  0  0  0  0  0  0  0  0  0  0
   26.1715  -19.1933  -15.7730 O   0  0  0  0  0  0  0  0  0  0  0  0
   27.2259  -21.0836  -11.5705 C   0  0  0  0  0  0  0  0  0  0  0  0
   26.2822  -21.8471  -11.2672 O   0  0  0  0  0  0  0  0  0  0  0  0
   28.3121  -18.8052  -15.2278 O   0  0  0  0  0  0  0  0  0  0  0  0
   27.9769  -20.4823  -10.5066 N   0  0  0  0  0  0  0  0  0  0  0  0
   27.6332  -20.7092   -9.1186 C   0  0  1  0  0  0  0  0  0  0  0  0
   28.5838  -19.9549   -8.2393 C   0  0  0  0  0  0  0  0  0  0  0  0
   28.3037  -19.9746   -6.8096 C   0  0  0  0  0  0  0  0  0  0  0  0
   28.4056  -21.1031   -6.0531 C   0  0  0  0  0  0  0  0  0  0  0  0
   28.1092  -21.1118   -4.6854 C   0  0  0  0  0  0  0  0  0  0  0  0
   27.6993  -19.9441   -4.0731 C   0  0  0  0  0  0  0  0  0  0  0  0
   27.5896  -18.7863   -4.8252 C   0  0  0  0  0  0  0  0  0  0  0  0
   27.8938  -18.8120   -6.1904 C   0  0  0  0  0  0  0  0  0  0  0  0
   26.2673  -20.0941   -8.9174 C   0  0  0  0  0  0  0  0  0  0  0  0
   26.1076  -18.8925   -9.2152 O   0  0  0  0  0  0  0  0  0  0  0  0
   22.7923  -20.0744  -12.8242 C   0  0  0  0  0  0  0  0  0  0  0  0
   21.4268  -20.4880  -11.7238 S   0  0  0  0  0  0  0  0  0  0  0  0
   21.9451  -20.2477  -10.0176 C   0  0  0  0  0  0  0  0  0  0  0  0
   23.3992  -20.6410   -9.9122 C   0  0  0  0  0  0  0  0  0  0  0  0
   23.8240  -20.4863   -8.4663 C   0  0  2  0  0  0  0  0  0  0  0  0
   25.2394  -20.8827   -8.4100 N   0  0  0  0  0  0  0  0  0  0  0  0
   23.0509  -21.3316   -7.5434 C   0  0  0  0  0  0  0  0  0  0  0  0
   23.6365  -22.4146   -6.9149 O   0  0  0  0  0  0  0  0  0  0  0  0
   21.8435  -21.0788   -7.3136 O   0  0  0  0  0  0  0  0  0  0  0  0
  2  1  1  6
  2  6  1  0
  3  2  1  0
  4  3  1  0
  4  8  1  0
  5  4  2  0
  6  7  2  0
  6  9  1  0
  9 10  1  0
 10 11  1  1
 11 12  1  0
 12 17  2  0
 13 12  1  0
 13 14  2  0
 14 15  1  0
 15 16  2  0
 17 16  1  0
 18 10  1  0
 18 19  2  0
 20 21  1  0
 21 22  1  0
 24 23  1  6
 23 22  1  0
 24 25  1  0
 25 18  1  0
 26 24  1  0
 27 26  1  0
 28 26  2  0
M  END
$$$$
