DFM.pdb
     RDKit          3D

 28 28  0  0  1  0  0  0  0  0999 V2000
   25.7896  -21.0591  -18.0682 N   0  0  0  0  0  0  0  0  0  0  0  0
   25.1679  -20.7912  -16.8067 C   0  0  1  0  0  0  0  0  0  0  0  0
   23.7668  -21.3369  -16.8101 C   0  0  0  0  0  0  0  0  0  0  0  0
   22.7301  -20.3441  -17.1260 C   0  0  0  0  0  0  0  0  0  0  0  0
   22.8298  -19.7272  -18.2171 O   0  0  0  0  0  0  0  0  0  0  0  0
   25.9526  -21.3809  -15.6919 C   0  0  0  0  0  0  0  0  0  0  0  0
   26.1681  -22.6076  -15.5722 O   0  0  0  0  0  0  0  0  0  0  0  0
   21.6456  -20.0169  -16.3346 O   0  0  0  0  0  0  0  0  0  0  0  0
   26.4904  -20.5003  -14.6957 N   0  0  0  0  0  0  0  0  0  0  0  0
   27.3088  -20.9989  -13.6105 C   0  0  1  0  0  0  0  0  0  0  0  0
   28.5972  -20.2348  -13.5651 C   0  0  0  0  0  0  0  0  0  0  0  0
   29.5679  -20.6536  -12.5625 C   0  0  0  0  0  0  0  0  0  0  0  0
   29.9967  -19.8335  -11.5626 C   0  0  0  0  0  0  0  0  0  0  0  0
   30.9484  -20.2418  -10.6214 C   0  0  0  0  0  0  0  0  0  0  0  0
   31.4763  -21.5153  -10.6997 C   0  0  0  0  0  0  0  0  0  0  0  0
   31.0529  -22.3640  -11.7089 C   0  0  0  0  0  0  0  0  0  0  0  0
   30.0998  -21.9244  -12.6337 C   0  0  0  0  0  0  0  0  0  0  0  0
   26.5618  -20.6754  -12.3371 C   0  0  0  0  0  0  0  0  0  0  0  0
   26.1836  -19.5001  -12.1528 O   0  0  0  0  0  0  0  0  0  0  0  0
   28.7637  -19.9149   -7.3339 C   0  0  0  0  0  0  0  0  0  0  0  0
   27.0860  -19.3516   -6.9952 S   0  0  0  0  0  0  0  0  0  0  0  0
   25.9282  -20.2980   -7.9957 C   0  0  0  0  0  0  0  0  0  0  0  0
   26.6362  -20.7095   -9.2644 C   0  0  0  0  0  0  0  0  0  0  0  0
   25.6482  -21.4641  -10.1301 C   0  0  2  0  0  0  0  0  0  0  0  0
   26.3216  -21.6920  -11.4178 N   0  0  0  0  0  0  0  0  0  0  0  0
   24.4005  -20.7209  -10.3650 C   0  0  0  0  0  0  0  0  0  0  0  0
   23.3794  -20.7378   -9.4334 O   0  0  0  0  0  0  0  0  0  0  0  0
   24.2466  -20.0586  -11.4195 O   0  0  0  0  0  0  0  0  0  0  0  0
  2  1  1  6
  2  6  1  0
  3  2  1  0
  4  3  1  0
  4  8  1  0
  5  4  2  0
  6  7  2  0
  6  9  1  0
  9 10  1  0
 10 11  1  1
 11 12  1  0
 12 17  2  0
 13 12  1  0
 13 14  2  0
 14 15  1  0
 15 16  2  0
 17 16  1  0
 18 10  1  0
 18 19  2  0
 20 21  1  0
 21 22  1  0
 24 23  1  1
 23 22  1  0
 24 25  1  0
 25 18  1  0
 26 24  1  0
 27 26  1  0
 28 26  2  0
M  END
$$$$
