DFM.pdb
     RDKit          3D

 28 28  0  0  1  0  0  0  0  0999 V2000
   27.7832  -21.7190  -16.6334 N   0  0  0  0  0  0  0  0  0  0  0  0
   27.5389  -20.6197  -15.7495 C   0  0  1  0  0  0  0  0  0  0  0  0
   26.8076  -19.5330  -16.4879 C   0  0  0  0  0  0  0  0  0  0  0  0
   27.6161  -18.8365  -17.4985 C   0  0  0  0  0  0  0  0  0  0  0  0
   28.7640  -19.2905  -17.7377 O   0  0  0  0  0  0  0  0  0  0  0  0
   26.7604  -21.0557  -14.5620 C   0  0  0  0  0  0  0  0  0  0  0  0
   25.6659  -21.6573  -14.6364 O   0  0  0  0  0  0  0  0  0  0  0  0
   27.2368  -17.7202  -18.2192 O   0  0  0  0  0  0  0  0  0  0  0  0
   27.2870  -20.7702  -13.2587 N   0  0  0  0  0  0  0  0  0  0  0  0
   26.5422  -21.0865  -12.0582 C   0  0  1  0  0  0  0  0  0  0  0  0
   27.3779  -20.7718  -10.8547 C   0  0  0  0  0  0  0  0  0  0  0  0
   26.6861  -20.7342   -9.5730 C   0  0  0  0  0  0  0  0  0  0  0  0
   25.6896  -21.6039   -9.2465 C   0  0  0  0  0  0  0  0  0  0  0  0
   25.0172  -21.5395   -8.0208 C   0  0  0  0  0  0  0  0  0  0  0  0
   25.3676  -20.5668   -7.1056 C   0  0  0  0  0  0  0  0  0  0  0  0
   26.3784  -19.6734   -7.4190 C   0  0  0  0  0  0  0  0  0  0  0  0
   27.0305  -19.7655   -8.6532 C   0  0  0  0  0  0  0  0  0  0  0  0
   25.3633  -20.1408  -12.0331 C   0  0  0  0  0  0  0  0  0  0  0  0
   25.5875  -18.9134  -11.9968 O   0  0  0  0  0  0  0  0  0  0  0  0
   20.7691  -18.9517  -15.8676 C   0  0  0  0  0  0  0  0  0  0  0  0
   20.9710  -20.7072  -15.5157 S   0  0  0  0  0  0  0  0  0  0  0  0
   21.5836  -20.9098  -13.8361 C   0  0  0  0  0  0  0  0  0  0  0  0
   22.4389  -19.7106  -13.5039 C   0  0  0  0  0  0  0  0  0  0  0  0
   22.8678  -19.8262  -12.0555 C   0  0  2  0  0  0  0  0  0  0  0  0
   24.0751  -20.6664  -12.0510 N   0  0  0  0  0  0  0  0  0  0  0  0
   21.8464  -20.4475  -11.1984 C   0  0  0  0  0  0  0  0  0  0  0  0
   20.7908  -19.7057  -10.7021 O   0  0  0  0  0  0  0  0  0  0  0  0
   21.9206  -21.6653  -10.9054 O   0  0  0  0  0  0  0  0  0  0  0  0
  2  1  1  6
  2  6  1  0
  3  2  1  0
  4  3  1  0
  4  8  1  0
  5  4  2  0
  6  7  2  0
  6  9  1  0
  9 10  1  0
 10 11  1  1
 11 12  1  0
 12 17  2  0
 13 12  1  0
 13 14  2  0
 14 15  1  0
 15 16  2  0
 17 16  1  0
 18 10  1  0
 18 19  2  0
 20 21  1  0
 21 22  1  0
 24 23  1  6
 23 22  1  0
 24 25  1  0
 25 18  1  0
 26 24  1  0
 27 26  1  0
 28 26  2  0
M  END
$$$$
