DFM.pdb
     RDKit          3D

 28 28  0  0  1  0  0  0  0  0999 V2000
   27.2705    4.4395  -10.0953 N   0  0  0  0  0  0  0  0  0  0  0  0
   27.8562    3.5785   -9.1129 C   0  0  1  0  0  0  0  0  0  0  0  0
   29.1789    4.1429   -8.6734 C   0  0  0  0  0  0  0  0  0  0  0  0
   30.2486    4.0317   -9.6752 C   0  0  0  0  0  0  0  0  0  0  0  0
   29.9492    3.5383  -10.7922 O   0  0  0  0  0  0  0  0  0  0  0  0
   26.9507    3.4086   -7.9478 C   0  0  0  0  0  0  0  0  0  0  0  0
   26.2574    4.3345   -7.4710 O   0  0  0  0  0  0  0  0  0  0  0  0
   31.5647    4.4187   -9.5097 O   0  0  0  0  0  0  0  0  0  0  0  0
   26.8670    2.1160   -7.3316 N   0  0  0  0  0  0  0  0  0  0  0  0
   25.9482    1.8571   -6.2433 C   0  0  1  0  0  0  0  0  0  0  0  0
   25.0212    0.7437   -6.6267 C   0  0  0  0  0  0  0  0  0  0  0  0
   23.9417    1.0818   -7.5448 C   0  0  0  0  0  0  0  0  0  0  0  0
   24.0838    1.0379   -8.8991 C   0  0  0  0  0  0  0  0  0  0  0  0
   23.0450    1.3896   -9.7685 C   0  0  0  0  0  0  0  0  0  0  0  0
   21.8327    1.7956   -9.2470 C   0  0  0  0  0  0  0  0  0  0  0  0
   21.6686    1.8467   -7.8727 C   0  0  0  0  0  0  0  0  0  0  0  0
   22.7274    1.4882   -7.0317 C   0  0  0  0  0  0  0  0  0  0  0  0
   26.7892    1.3515   -5.0937 C   0  0  0  0  0  0  0  0  0  0  0  0
   27.8460    0.7406   -5.3550 O   0  0  0  0  0  0  0  0  0  0  0  0
   31.8747    3.5160   -0.7239 C   0  0  0  0  0  0  0  0  0  0  0  0
   30.6343    3.6518   -2.0237 S   0  0  0  0  0  0  0  0  0  0  0  0
   29.3125    2.4723   -1.7091 C   0  0  0  0  0  0  0  0  0  0  0  0
   28.3893    2.4768   -2.9040 C   0  0  0  0  0  0  0  0  0  0  0  0
   27.2582    1.5077   -2.6274 C   0  0  2  0  0  0  0  0  0  0  0  0
   26.3605    1.5823   -3.7903 N   0  0  0  0  0  0  0  0  0  0  0  0
   26.4986    1.8382   -1.4117 C   0  0  0  0  0  0  0  0  0  0  0  0
   26.8669    1.3219   -0.1834 O   0  0  0  0  0  0  0  0  0  0  0  0
   25.5014    2.5972   -1.4745 O   0  0  0  0  0  0  0  0  0  0  0  0
  2  1  1  6
  2  6  1  0
  3  2  1  0
  4  3  1  0
  4  8  1  0
  5  4  2  0
  6  7  2  0
  6  9  1  0
  9 10  1  0
 10 11  1  6
 11 12  1  0
 12 17  2  0
 13 12  1  0
 13 14  2  0
 14 15  1  0
 15 16  2  0
 17 16  1  0
 18 10  1  0
 18 19  2  0
 20 21  1  0
 21 22  1  0
 24 23  1  6
 23 22  1  0
 24 25  1  0
 25 18  1  0
 26 24  1  0
 27 26  1  0
 28 26  2  0
M  END
$$$$
