DFM.pdb
     RDKit          3D

 28 28  0  0  1  0  0  0  0  0999 V2000
   24.8418  -21.4351  -10.2913 N   0  0  0  0  0  0  0  0  0  0  0  0
   24.9754  -21.5446  -11.7125 C   0  0  1  0  0  0  0  0  0  0  0  0
   23.8870  -22.4300  -12.2535 C   0  0  0  0  0  0  0  0  0  0  0  0
   24.3379  -23.3956  -13.2657 C   0  0  0  0  0  0  0  0  0  0  0  0
   25.5513  -23.3688  -13.5941 O   0  0  0  0  0  0  0  0  0  0  0  0
   24.9247  -20.2066  -12.3555 C   0  0  0  0  0  0  0  0  0  0  0  0
   24.0299  -19.3631  -12.1252 O   0  0  0  0  0  0  0  0  0  0  0  0
   23.5527  -24.3395  -13.8996 O   0  0  0  0  0  0  0  0  0  0  0  0
   25.9529  -19.8614  -13.2941 N   0  0  0  0  0  0  0  0  0  0  0  0
   25.9435  -18.5923  -13.9906 C   0  0  1  0  0  0  0  0  0  0  0  0
   27.3183  -18.2970  -14.5088 C   0  0  0  0  0  0  0  0  0  0  0  0
   27.4636  -17.0983  -15.3242 C   0  0  0  0  0  0  0  0  0  0  0  0
   27.1562  -15.8526  -14.8662 C   0  0  0  0  0  0  0  0  0  0  0  0
   27.2774  -14.7131  -15.6696 C   0  0  0  0  0  0  0  0  0  0  0  0
   27.7221  -14.8448  -16.9702 C   0  0  0  0  0  0  0  0  0  0  0  0
   28.0397  -16.1029  -17.4542 C   0  0  0  0  0  0  0  0  0  0  0  0
   27.9074  -17.2214  -16.6245 C   0  0  0  0  0  0  0  0  0  0  0  0
   25.0513  -18.7804  -15.1960 C   0  0  0  0  0  0  0  0  0  0  0  0
   25.1306  -19.8516  -15.8319 O   0  0  0  0  0  0  0  0  0  0  0  0
   18.9601  -16.1593  -15.9905 C   0  0  0  0  0  0  0  0  0  0  0  0
   19.9723  -15.6030  -17.3735 S   0  0  0  0  0  0  0  0  0  0  0  0
   21.2745  -16.8066  -17.6786 C   0  0  0  0  0  0  0  0  0  0  0  0
   22.2555  -16.7327  -16.5330 C   0  0  0  0  0  0  0  0  0  0  0  0
   23.2537  -17.8605  -16.6959 C   0  0  2  0  0  0  0  0  0  0  0  0
   24.1764  -17.7596  -15.5548 N   0  0  0  0  0  0  0  0  0  0  0  0
   24.0240  -17.7742  -17.9462 C   0  0  0  0  0  0  0  0  0  0  0  0
   24.8505  -16.6948  -18.1964 O   0  0  0  0  0  0  0  0  0  0  0  0
   23.9402  -18.6842  -18.8060 O   0  0  0  0  0  0  0  0  0  0  0  0
  2  1  1  1
  2  6  1  0
  3  2  1  0
  4  3  1  0
  4  8  1  0
  5  4  2  0
  6  7  2  0
  6  9  1  0
  9 10  1  0
 10 11  1  6
 11 12  1  0
 12 17  2  0
 13 12  1  0
 13 14  2  0
 14 15  1  0
 15 16  2  0
 17 16  1  0
 18 10  1  0
 18 19  2  0
 20 21  1  0
 21 22  1  0
 24 23  1  1
 23 22  1  0
 24 25  1  0
 25 18  1  0
 26 24  1  0
 27 26  1  0
 28 26  2  0
M  END
$$$$
