DFM.pdb
     RDKit          3D

 28 28  0  0  1  0  0  0  0  0999 V2000
   27.6150  -17.2988  -17.7821 N   0  0  0  0  0  0  0  0  0  0  0  0
   27.8569  -18.5018  -17.0446 C   0  0  1  0  0  0  0  0  0  0  0  0
   29.3230  -18.6129  -16.7296 C   0  0  0  0  0  0  0  0  0  0  0  0
   30.1832  -18.8036  -17.9061 C   0  0  0  0  0  0  0  0  0  0  0  0
   29.6536  -18.6770  -19.0394 O   0  0  0  0  0  0  0  0  0  0  0  0
   27.0534  -18.5299  -15.7956 C   0  0  0  0  0  0  0  0  0  0  0  0
   27.0446  -17.5996  -14.9590 O   0  0  0  0  0  0  0  0  0  0  0  0
   31.5301  -19.1119  -17.8906 O   0  0  0  0  0  0  0  0  0  0  0  0
   26.2462  -19.6853  -15.5295 N   0  0  0  0  0  0  0  0  0  0  0  0
   25.2931  -19.7051  -14.4400 C   0  0  1  0  0  0  0  0  0  0  0  0
   24.0790  -20.4807  -14.8528 C   0  0  0  0  0  0  0  0  0  0  0  0
   23.0373  -20.6439  -13.8474 C   0  0  0  0  0  0  0  0  0  0  0  0
   22.1163  -19.6775  -13.5754 C   0  0  0  0  0  0  0  0  0  0  0  0
   21.1367  -19.8390  -12.5891 C   0  0  0  0  0  0  0  0  0  0  0  0
   21.0935  -21.0123  -11.8623 C   0  0  0  0  0  0  0  0  0  0  0  0
   22.0211  -22.0068  -12.1241 C   0  0  0  0  0  0  0  0  0  0  0  0
   22.9873  -21.8132  -13.1171 C   0  0  0  0  0  0  0  0  0  0  0  0
   25.9494  -20.4804  -13.3208 C   0  0  0  0  0  0  0  0  0  0  0  0
   26.5074  -21.5625  -13.5959 O   0  0  0  0  0  0  0  0  0  0  0  0
   30.2091  -19.9592   -8.1820 C   0  0  0  0  0  0  0  0  0  0  0  0
   28.5131  -19.5917   -7.6973 S   0  0  0  0  0  0  0  0  0  0  0  0
   27.3849  -20.5958   -8.6753 C   0  0  0  0  0  0  0  0  0  0  0  0
   27.1316  -19.8770   -9.9789 C   0  0  0  0  0  0  0  0  0  0  0  0
   26.2521  -20.7607  -10.8395 C   0  0  2  0  0  0  0  0  0  0  0  0
   25.9101  -19.9655  -12.0287 N   0  0  0  0  0  0  0  0  0  0  0  0
   25.0120  -21.1740  -10.1646 C   0  0  0  0  0  0  0  0  0  0  0  0
   24.9695  -22.3275   -9.4040 O   0  0  0  0  0  0  0  0  0  0  0  0
   23.9715  -20.4810  -10.2713 O   0  0  0  0  0  0  0  0  0  0  0  0
  2  1  1  1
  2  6  1  0
  3  2  1  0
  4  3  1  0
  4  8  1  0
  5  4  2  0
  6  7  2  0
  6  9  1  0
  9 10  1  0
 10 11  1  6
 11 12  1  0
 12 17  2  0
 13 12  1  0
 13 14  2  0
 14 15  1  0
 15 16  2  0
 17 16  1  0
 18 10  1  0
 18 19  2  0
 20 21  1  0
 21 22  1  0
 24 23  1  1
 23 22  1  0
 24 25  1  0
 25 18  1  0
 26 24  1  0
 27 26  1  0
 28 26  2  0
M  END
$$$$
