DFM.pdb
     RDKit          3D

 28 28  0  0  1  0  0  0  0  0999 V2000
   28.8391  -20.9981  -15.1485 N   0  0  0  0  0  0  0  0  0  0  0  0
   27.8809  -20.1120  -14.5600 C   0  0  1  0  0  0  0  0  0  0  0  0
   27.1627  -19.3560  -15.6434 C   0  0  0  0  0  0  0  0  0  0  0  0
   28.0218  -18.4578  -16.4279 C   0  0  0  0  0  0  0  0  0  0  0  0
   28.1926  -18.7319  -17.6430 O   0  0  0  0  0  0  0  0  0  0  0  0
   26.9122  -20.8601  -13.7185 C   0  0  0  0  0  0  0  0  0  0  0  0
   26.5972  -22.0536  -13.9230 O   0  0  0  0  0  0  0  0  0  0  0  0
   28.6680  -17.3304  -15.9579 O   0  0  0  0  0  0  0  0  0  0  0  0
   26.3004  -20.1798  -12.6139 N   0  0  0  0  0  0  0  0  0  0  0  0
   25.2898  -20.8207  -11.7992 C   0  0  1  0  0  0  0  0  0  0  0  0
   25.3191  -20.2394  -10.4182 C   0  0  0  0  0  0  0  0  0  0  0  0
   26.4806  -20.5623   -9.6000 C   0  0  0  0  0  0  0  0  0  0  0  0
   27.3769  -21.5303   -9.9404 C   0  0  0  0  0  0  0  0  0  0  0  0
   28.4745  -21.8464   -9.1316 C   0  0  0  0  0  0  0  0  0  0  0  0
   28.6642  -21.1607   -7.9482 C   0  0  0  0  0  0  0  0  0  0  0  0
   27.7640  -20.1730   -7.5849 C   0  0  0  0  0  0  0  0  0  0  0  0
   26.6774  -19.8817   -8.4164 C   0  0  0  0  0  0  0  0  0  0  0  0
   23.9581  -20.4429  -12.4060 C   0  0  0  0  0  0  0  0  0  0  0  0
   23.7428  -19.2406  -12.6636 O   0  0  0  0  0  0  0  0  0  0  0  0
   18.8823  -24.3587  -14.8712 C   0  0  0  0  0  0  0  0  0  0  0  0
   19.9507  -24.8069  -13.4913 S   0  0  0  0  0  0  0  0  0  0  0  0
   20.6339  -23.3121  -12.7589 C   0  0  0  0  0  0  0  0  0  0  0  0
   21.2504  -22.4903  -13.8656 C   0  0  0  0  0  0  0  0  0  0  0  0
   21.7131  -21.1754  -13.2723 C   0  0  2  0  0  0  0  0  0  0  0  0
   23.0219  -21.4415  -12.6560 N   0  0  0  0  0  0  0  0  0  0  0  0
   20.7973  -20.6496  -12.2481 C   0  0  0  0  0  0  0  0  0  0  0  0
   19.6239  -20.0125  -12.6063 O   0  0  0  0  0  0  0  0  0  0  0  0
   21.0710  -20.7735  -11.0299 O   0  0  0  0  0  0  0  0  0  0  0  0
  2  1  1  6
  2  6  1  0
  3  2  1  0
  4  3  1  0
  4  8  1  0
  5  4  2  0
  6  7  2  0
  6  9  1  0
  9 10  1  0
 10 11  1  1
 11 12  1  0
 12 17  2  0
 13 12  1  0
 13 14  2  0
 14 15  1  0
 15 16  2  0
 17 16  1  0
 18 10  1  0
 18 19  2  0
 20 21  1  0
 21 22  1  0
 24 23  1  1
 23 22  1  0
 24 25  1  0
 25 18  1  0
 26 24  1  0
 27 26  1  0
 28 26  2  0
M  END
$$$$
