DFM.pdb
     RDKit          3D

 28 28  0  0  1  0  0  0  0  0999 V2000
   27.9603  -21.9535  -18.5420 N   0  0  0  0  0  0  0  0  0  0  0  0
   27.4148  -20.8730  -17.7774 C   0  0  1  0  0  0  0  0  0  0  0  0
   26.4264  -20.1114  -18.6165 C   0  0  0  0  0  0  0  0  0  0  0  0
   27.0367  -19.2008  -19.5956 C   0  0  0  0  0  0  0  0  0  0  0  0
   26.6159  -19.2540  -20.7793 O   0  0  0  0  0  0  0  0  0  0  0  0
   26.7676  -21.3731  -16.5376 C   0  0  0  0  0  0  0  0  0  0  0  0
   26.0768  -22.4153  -16.4912 O   0  0  0  0  0  0  0  0  0  0  0  0
   28.0380  -18.2828  -19.3425 O   0  0  0  0  0  0  0  0  0  0  0  0
   26.9384  -20.6215  -15.3279 N   0  0  0  0  0  0  0  0  0  0  0  0
   26.2806  -21.0110  -14.0985 C   0  0  1  0  0  0  0  0  0  0  0  0
   26.9389  -20.3238  -12.9408 C   0  0  0  0  0  0  0  0  0  0  0  0
   26.3159  -20.5045  -11.6361 C   0  0  0  0  0  0  0  0  0  0  0  0
   26.3849  -21.6743  -10.9411 C   0  0  0  0  0  0  0  0  0  0  0  0
   25.7602  -21.8407   -9.6999 C   0  0  0  0  0  0  0  0  0  0  0  0
   25.0484  -20.7915   -9.1531 C   0  0  0  0  0  0  0  0  0  0  0  0
   24.9668  -19.5942   -9.8443 C   0  0  0  0  0  0  0  0  0  0  0  0
   25.6032  -19.4610  -11.0829 C   0  0  0  0  0  0  0  0  0  0  0  0
   24.8716  -20.4710  -14.1858 C   0  0  0  0  0  0  0  0  0  0  0  0
   24.7113  -19.2852  -14.5410 O   0  0  0  0  0  0  0  0  0  0  0  0
   19.8638  -24.3392  -15.2062 C   0  0  0  0  0  0  0  0  0  0  0  0
   19.2637  -22.6941  -15.6307 S   0  0  0  0  0  0  0  0  0  0  0  0
   20.1817  -21.4656  -14.6897 C   0  0  0  0  0  0  0  0  0  0  0  0
   21.6403  -21.8557  -14.7118 C   0  0  0  0  0  0  0  0  0  0  0  0
   22.4064  -20.8571  -13.8686 C   0  0  2  0  0  0  0  0  0  0  0  0
   23.8064  -21.3083  -13.8692 N   0  0  0  0  0  0  0  0  0  0  0  0
   21.9254  -20.7839  -12.4803 C   0  0  0  0  0  0  0  0  0  0  0  0
   21.0044  -19.8263  -12.0987 O   0  0  0  0  0  0  0  0  0  0  0  0
   22.3473  -21.5942  -11.6202 O   0  0  0  0  0  0  0  0  0  0  0  0
  2  1  1  6
  2  6  1  0
  3  2  1  0
  4  3  1  0
  4  8  1  0
  5  4  2  0
  6  7  2  0
  6  9  1  0
  9 10  1  0
 10 11  1  1
 11 12  1  0
 12 17  2  0
 13 12  1  0
 13 14  2  0
 14 15  1  0
 15 16  2  0
 17 16  1  0
 18 10  1  0
 18 19  2  0
 20 21  1  0
 21 22  1  0
 24 23  1  6
 23 22  1  0
 24 25  1  0
 25 18  1  0
 26 24  1  0
 27 26  1  0
 28 26  2  0
M  END
$$$$
