DFM.pdb
     RDKit          3D

 28 28  0  0  1  0  0  0  0  0999 V2000
   39.9652  -25.2376    4.7844 N   0  0  0  0  0  0  0  0  0  0  0  0
   38.6367  -25.5398    5.2239 C   0  0  1  0  0  0  0  0  0  0  0  0
   38.6930  -26.5355    6.3493 C   0  0  0  0  0  0  0  0  0  0  0  0
   38.9558  -27.9175    5.9236 C   0  0  0  0  0  0  0  0  0  0  0  0
   39.1467  -28.1213    4.6976 O   0  0  0  0  0  0  0  0  0  0  0  0
   37.9266  -24.3083    5.6546 C   0  0  0  0  0  0  0  0  0  0  0  0
   38.4745  -23.3829    6.2940 O   0  0  0  0  0  0  0  0  0  0  0  0
   39.0139  -29.0271    6.7450 O   0  0  0  0  0  0  0  0  0  0  0  0
   36.5374  -24.1711    5.3247 N   0  0  0  0  0  0  0  0  0  0  0  0
   35.7926  -22.9805    5.6763 C   0  0  1  0  0  0  0  0  0  0  0  0
   34.6517  -22.8050    4.7205 C   0  0  0  0  0  0  0  0  0  0  0  0
   33.7551  -21.6851    4.9750 C   0  0  0  0  0  0  0  0  0  0  0  0
   34.1691  -20.3874    4.9479 C   0  0  0  0  0  0  0  0  0  0  0  0
   33.3015  -19.3233    5.2190 C   0  0  0  0  0  0  0  0  0  0  0  0
   31.9810  -19.5864    5.5250 C   0  0  0  0  0  0  0  0  0  0  0  0
   31.5409  -20.8992    5.5574 C   0  0  0  0  0  0  0  0  0  0  0  0
   32.4343  -21.9396    5.2812 C   0  0  0  0  0  0  0  0  0  0  0  0
   35.1887  -23.2480    7.0358 C   0  0  0  0  0  0  0  0  0  0  0  0
   34.7275  -24.3846    7.2673 O   0  0  0  0  0  0  0  0  0  0  0  0
   38.2584  -23.5056   12.9127 C   0  0  0  0  0  0  0  0  0  0  0  0
   37.6863  -22.2587   11.7447 S   0  0  0  0  0  0  0  0  0  0  0  0
   35.9397  -22.5225   11.4021 C   0  0  0  0  0  0  0  0  0  0  0  0
   35.5476  -21.6199   10.2568 C   0  0  0  0  0  0  0  0  0  0  0  0
   34.6305  -22.3995    9.3370 C   0  0  2  0  0  0  0  0  0  0  0  0
   35.1670  -22.2249    7.9785 N   0  0  0  0  0  0  0  0  0  0  0  0
   33.2390  -21.9233    9.3693 C   0  0  0  0  0  0  0  0  0  0  0  0
   32.1858  -22.8159    9.4406 O   0  0  0  0  0  0  0  0  0  0  0  0
   32.9890  -20.6943    9.3326 O   0  0  0  0  0  0  0  0  0  0  0  0
  2  1  1  1
  2  6  1  0
  3  2  1  0
  4  3  1  0
  4  8  1  0
  5  4  2  0
  6  7  2  0
  6  9  1  0
  9 10  1  0
 10 11  1  6
 11 12  1  0
 12 17  2  0
 13 12  1  0
 13 14  2  0
 14 15  1  0
 15 16  2  0
 17 16  1  0
 18 10  1  0
 18 19  2  0
 20 21  1  0
 21 22  1  0
 24 23  1  1
 23 22  1  0
 24 25  1  0
 25 18  1  0
 26 24  1  0
 27 26  1  0
 28 26  2  0
M  END
$$$$
