DFM.pdb
     RDKit          3D

 28 28  0  0  1  0  0  0  0  0999 V2000
   16.5023  -13.0487  -16.1596 N   0  0  0  0  0  0  0  0  0  0  0  0
   16.4743  -11.6181  -16.2068 C   0  0  1  0  0  0  0  0  0  0  0  0
   15.0495  -11.1450  -16.2908 C   0  0  0  0  0  0  0  0  0  0  0  0
   14.3566  -11.5244  -17.5303 C   0  0  0  0  0  0  0  0  0  0  0  0
   13.4702  -12.4126  -17.4516 O   0  0  0  0  0  0  0  0  0  0  0  0
   17.1466  -11.0341  -15.0180 C   0  0  0  0  0  0  0  0  0  0  0  0
   17.0566  -11.5167  -13.8671 O   0  0  0  0  0  0  0  0  0  0  0  0
   14.5853  -10.9971  -18.7869 O   0  0  0  0  0  0  0  0  0  0  0  0
   17.9391   -9.8517  -15.1946 N   0  0  0  0  0  0  0  0  0  0  0  0
   18.6492   -9.2471  -14.0873 C   0  0  1  0  0  0  0  0  0  0  0  0
   19.8919   -8.5810  -14.5952 C   0  0  0  0  0  0  0  0  0  0  0  0
   20.6746   -7.8325  -13.6206 C   0  0  0  0  0  0  0  0  0  0  0  0
   21.3714   -8.4332  -12.6157 C   0  0  0  0  0  0  0  0  0  0  0  0
   22.0988   -7.6993  -11.6719 C   0  0  0  0  0  0  0  0  0  0  0  0
   22.1174   -6.3210  -11.7529 C   0  0  0  0  0  0  0  0  0  0  0  0
   21.4154   -5.6917  -12.7675 C   0  0  0  0  0  0  0  0  0  0  0  0
   20.6986   -6.4553  -13.6949 C   0  0  0  0  0  0  0  0  0  0  0  0
   17.7504   -8.1534  -13.5578 C   0  0  0  0  0  0  0  0  0  0  0  0
   17.0518   -7.5136  -14.3707 O   0  0  0  0  0  0  0  0  0  0  0  0
   13.9721   -6.0363   -7.0907 C   0  0  0  0  0  0  0  0  0  0  0  0
   15.0287   -7.2084   -7.9603 S   0  0  0  0  0  0  0  0  0  0  0  0
   15.5649   -6.4833   -9.5173 C   0  0  0  0  0  0  0  0  0  0  0  0
   16.4636   -7.4792  -10.2105 C   0  0  0  0  0  0  0  0  0  0  0  0
   16.8233   -6.9195  -11.5715 C   0  0  2  0  0  0  0  0  0  0  0  0
   17.7314   -7.8974  -12.1902 N   0  0  0  0  0  0  0  0  0  0  0  0
   17.4988   -5.6147  -11.4994 C   0  0  0  0  0  0  0  0  0  0  0  0
   16.7703   -4.4406  -11.4587 O   0  0  0  0  0  0  0  0  0  0  0  0
   18.7517   -5.5505  -11.4736 O   0  0  0  0  0  0  0  0  0  0  0  0
  2  1  1  1
  2  6  1  0
  3  2  1  0
  4  3  1  0
  4  8  1  0
  5  4  2  0
  6  7  2  0
  6  9  1  0
  9 10  1  0
 10 11  1  6
 11 12  1  0
 12 17  2  0
 13 12  1  0
 13 14  2  0
 14 15  1  0
 15 16  2  0
 17 16  1  0
 18 10  1  0
 18 19  2  0
 20 21  1  0
 21 22  1  0
 24 23  1  1
 23 22  1  0
 24 25  1  0
 25 18  1  0
 26 24  1  0
 27 26  1  0
 28 26  2  0
M  END
$$$$
