DFM.pdb
     RDKit          3D

 28 28  0  0  1  0  0  0  0  0999 V2000
   26.6477  -19.6352  -13.5328 N   0  0  0  0  0  0  0  0  0  0  0  0
   26.7441  -21.0429  -13.2904 C   0  0  1  0  0  0  0  0  0  0  0  0
   28.0629  -21.5526  -13.8023 C   0  0  0  0  0  0  0  0  0  0  0  0
   28.4260  -21.0600  -15.1386 C   0  0  0  0  0  0  0  0  0  0  0  0
   27.6222  -21.2854  -16.0789 O   0  0  0  0  0  0  0  0  0  0  0  0
   26.5967  -21.3441  -11.8434 C   0  0  0  0  0  0  0  0  0  0  0  0
   26.7303  -22.4901  -11.3594 O   0  0  0  0  0  0  0  0  0  0  0  0
   29.5751  -20.3672  -15.4683 O   0  0  0  0  0  0  0  0  0  0  0  0
   26.2808  -20.2665  -10.9510 N   0  0  0  0  0  0  0  0  0  0  0  0
   25.8821  -20.5135   -9.5813 C   0  0  1  0  0  0  0  0  0  0  0  0
   26.2319  -19.3254   -8.7376 C   0  0  0  0  0  0  0  0  0  0  0  0
   26.7423  -19.6029   -7.4014 C   0  0  0  0  0  0  0  0  0  0  0  0
   25.9281  -19.8270   -6.3323 C   0  0  0  0  0  0  0  0  0  0  0  0
   26.4330  -20.0677   -5.0494 C   0  0  0  0  0  0  0  0  0  0  0  0
   27.7993  -20.0807   -4.8501 C   0  0  0  0  0  0  0  0  0  0  0  0
   28.6435  -19.8552   -5.9246 C   0  0  0  0  0  0  0  0  0  0  0  0
   28.1060  -19.6179   -7.1940 C   0  0  0  0  0  0  0  0  0  0  0  0
   24.3741  -20.6142   -9.5936 C   0  0  0  0  0  0  0  0  0  0  0  0
   23.7490  -20.0501  -10.5151 O   0  0  0  0  0  0  0  0  0  0  0  0
   18.5208  -24.4099   -5.9797 C   0  0  0  0  0  0  0  0  0  0  0  0
   20.2441  -23.8846   -5.9547 S   0  0  0  0  0  0  0  0  0  0  0  0
   20.5399  -22.7520   -7.3212 C   0  0  0  0  0  0  0  0  0  0  0  0
   22.0154  -22.4323   -7.3508 C   0  0  0  0  0  0  0  0  0  0  0  0
   22.2895  -21.5930   -8.5818 C   0  0  2  0  0  0  0  0  0  0  0  0
   23.7364  -21.3277   -8.5836 N   0  0  0  0  0  0  0  0  0  0  0  0
   21.5660  -20.3122   -8.5806 C   0  0  0  0  0  0  0  0  0  0  0  0
   20.2910  -20.2178   -9.1064 O   0  0  0  0  0  0  0  0  0  0  0  0
   22.0996  -19.2835   -8.0996 O   0  0  0  0  0  0  0  0  0  0  0  0
  2  1  1  1
  2  6  1  0
  3  2  1  0
  4  3  1  0
  4  8  1  0
  5  4  2  0
  6  7  2  0
  6  9  1  0
  9 10  1  0
 10 11  1  1
 11 12  1  0
 12 17  2  0
 13 12  1  0
 13 14  2  0
 14 15  1  0
 15 16  2  0
 17 16  1  0
 18 10  1  0
 18 19  2  0
 20 21  1  0
 21 22  1  0
 24 23  1  1
 23 22  1  0
 24 25  1  0
 25 18  1  0
 26 24  1  0
 27 26  1  0
 28 26  2  0
M  END
$$$$
