MHA.pdb
     RDKit          3D

 24 24  0  0  1  0  0  0  0  0999 V2000
   24.2186  -14.8121  -14.4945 C   0  0  0  0  0  0  0  0  0  0  0  0
   23.4818  -13.3956  -15.3586 S   0  0  0  0  0  0  0  0  0  0  0  0
   24.7996  -12.2060  -15.6954 C   0  0  0  0  0  0  0  0  0  0  0  0
   24.2945  -10.9287  -16.2753 C   0  0  0  0  0  0  0  0  0  0  0  0
   23.1607  -11.0863  -17.2570 C   0  0  2  0  0  0  0  0  0  0  0  0
   23.7064  -11.7993  -18.3962 N   0  0  0  0  0  0  0  0  0  0  0  0
   22.6199   -9.7629  -17.6434 C   0  0  0  0  0  0  0  0  0  0  0  0
   23.0872   -9.1573  -18.6324 O   0  0  0  0  0  0  0  0  0  0  0  0
   21.5492   -9.1512  -16.8898 N   0  0  0  0  0  0  0  0  0  0  0  0
   20.9752   -7.9034  -17.3173 C   0  0  1  0  0  0  0  0  0  0  0  0
   19.5720   -7.9615  -17.7843 C   0  0  0  0  0  0  0  0  0  0  0  0
   19.2575   -8.8903  -18.8581 C   0  0  0  0  0  0  0  0  0  0  0  0
   19.6951   -9.0339  -20.1424 C   0  0  0  0  0  0  0  0  0  0  0  0
   19.0857  -10.0910  -20.7304 N   0  0  0  0  0  0  0  0  0  0  0  0
   18.2745  -10.5917  -19.7979 C   0  0  0  0  0  0  0  0  0  0  0  0
   18.3541   -9.8988  -18.6717 N   0  0  0  0  0  0  0  0  0  0  0  0
   21.1970   -6.8955  -16.2462 C   0  0  0  0  0  0  0  0  0  0  0  0
   20.4931   -6.8954  -15.1882 O   0  0  0  0  0  0  0  0  0  0  0  0
   21.1632   -3.9249  -15.3503 C   0  0  0  0  0  0  0  0  0  0  0  0
   22.3559   -4.8801  -15.2681 C   0  0  2  0  0  0  0  0  0  0  0  0
   22.1911   -5.8809  -16.3265 N   0  0  0  0  0  0  0  0  0  0  0  0
   22.3698   -5.4908  -13.9365 C   0  0  0  0  0  0  0  0  0  0  0  0
   22.5061   -4.7603  -12.7679 O   0  0  0  0  0  0  0  0  0  0  0  0
   22.2530   -6.7354  -13.8434 O   0  0  0  0  0  0  0  0  0  0  0  0
  2  1  1  0
  3  2  1  0
  4  5  1  0
  4  3  1  0
  5  7  1  0
  5  6  1  6
  7  8  2  0
  9  7  1  0
  9 10  1  0
 10 17  1  0
 10 11  1  1
 12 11  1  0
 12 16  1  0
 13 14  1  0
 13 12  2  0
 14 15  1  0
 15 16  2  0
 17 18  2  0
 20 19  1  1
 21 20  1  0
 21 17  1  0
 22 23  1  0
 22 20  1  0
 24 22  2  0
M  END
$$$$
