MHA.pdb
     RDKit          3D

 24 24  0  0  1  0  0  0  0  0999 V2000
   20.2481  -14.9567  -20.3868 C   0  0  0  0  0  0  0  0  0  0  0  0
   19.2853  -15.4287  -18.9220 S   0  0  0  0  0  0  0  0  0  0  0  0
   18.6854  -13.9132  -18.1418 C   0  0  0  0  0  0  0  0  0  0  0  0
   19.7397  -13.2062  -17.3597 C   0  0  0  0  0  0  0  0  0  0  0  0
   19.7419  -11.7063  -17.5158 C   0  0  2  0  0  0  0  0  0  0  0  0
   20.0947  -11.4425  -18.8978 N   0  0  0  0  0  0  0  0  0  0  0  0
   20.7029  -11.0871  -16.5744 C   0  0  0  0  0  0  0  0  0  0  0  0
   20.6092  -11.3048  -15.3468 O   0  0  0  0  0  0  0  0  0  0  0  0
   21.7596  -10.2259  -17.0539 N   0  0  0  0  0  0  0  0  0  0  0  0
   22.6510   -9.5786  -16.1288 C   0  0  1  0  0  0  0  0  0  0  0  0
   24.0919   -9.8641  -16.3093 C   0  0  0  0  0  0  0  0  0  0  0  0
   24.5347  -11.2369  -16.1252 C   0  0  0  0  0  0  0  0  0  0  0  0
   23.9158  -12.3838  -15.7217 C   0  0  0  0  0  0  0  0  0  0  0  0
   24.7892  -13.4190  -15.7377 N   0  0  0  0  0  0  0  0  0  0  0  0
   25.9440  -12.8975  -16.1535 C   0  0  0  0  0  0  0  0  0  0  0  0
   25.8249  -11.6001  -16.3926 N   0  0  0  0  0  0  0  0  0  0  0  0
   22.3368   -8.1249  -16.1162 C   0  0  0  0  0  0  0  0  0  0  0  0
   22.0819   -7.4984  -17.1920 O   0  0  0  0  0  0  0  0  0  0  0  0
   20.4661   -5.8226  -15.3122 C   0  0  0  0  0  0  0  0  0  0  0  0
   21.9486   -5.9241  -14.9466 C   0  0  2  0  0  0  0  0  0  0  0  0
   22.2995   -7.3474  -14.9253 N   0  0  0  0  0  0  0  0  0  0  0  0
   22.1480   -5.2929  -13.6397 C   0  0  0  0  0  0  0  0  0  0  0  0
   22.1665   -3.9206  -13.4545 O   0  0  0  0  0  0  0  0  0  0  0  0
   22.3104   -6.0254  -12.6355 O   0  0  0  0  0  0  0  0  0  0  0  0
  2  1  1  0
  3  2  1  0
  4  5  1  0
  4  3  1  0
  5  7  1  0
  5  6  1  6
  7  8  2  0
  9  7  1  0
  9 10  1  0
 10 17  1  0
 10 11  1  6
 12 11  1  0
 12 16  1  0
 13 14  1  0
 13 12  2  0
 14 15  1  0
 15 16  2  0
 17 18  2  0
 20 19  1  1
 21 20  1  0
 21 17  1  0
 22 23  1  0
 22 20  1  0
 24 22  2  0
M  END
$$$$
