MHA.pdb
     RDKit          3D

 24 24  0  0  1  0  0  0  0  0999 V2000
   21.5613  -20.4656  -21.3114 C   0  0  0  0  0  0  0  0  0  0  0  0
   21.9058  -19.4007  -19.8821 S   0  0  0  0  0  0  0  0  0  0  0  0
   20.4891  -19.4983  -18.7647 C   0  0  0  0  0  0  0  0  0  0  0  0
   20.6370  -18.6291  -17.5622 C   0  0  0  0  0  0  0  0  0  0  0  0
   22.0603  -18.2779  -17.2090 C   0  0  2  0  0  0  0  0  0  0  0  0
   22.5195  -19.3105  -16.2996 N   0  0  0  0  0  0  0  0  0  0  0  0
   22.1262  -16.9328  -16.5930 C   0  0  0  0  0  0  0  0  0  0  0  0
   21.8216  -16.7765  -15.3904 O   0  0  0  0  0  0  0  0  0  0  0  0
   22.5410  -15.7837  -17.3650 N   0  0  0  0  0  0  0  0  0  0  0  0
   22.7131  -14.5028  -16.7335 C   0  0  1  0  0  0  0  0  0  0  0  0
   24.1051  -14.0090  -16.6376 C   0  0  0  0  0  0  0  0  0  0  0  0
   25.0799  -14.8659  -15.9819 C   0  0  0  0  0  0  0  0  0  0  0  0
   25.0141  -16.0955  -15.3943 C   0  0  0  0  0  0  0  0  0  0  0  0
   26.2354  -16.4638  -14.9389 N   0  0  0  0  0  0  0  0  0  0  0  0
   27.0465  -15.4527  -15.2520 C   0  0  0  0  0  0  0  0  0  0  0  0
   26.3883  -14.4859  -15.8740 N   0  0  0  0  0  0  0  0  0  0  0  0
   21.7891  -13.5341  -17.3816 C   0  0  0  0  0  0  0  0  0  0  0  0
   21.7435  -13.4146  -18.6459 O   0  0  0  0  0  0  0  0  0  0  0  0
   18.7135  -11.6828  -16.7044 C   0  0  0  0  0  0  0  0  0  0  0  0
   20.1187  -11.6455  -17.3090 C   0  0  2  0  0  0  0  0  0  0  0  0
   20.9087  -12.6896  -16.6495 N   0  0  0  0  0  0  0  0  0  0  0  0
   20.6834  -10.3119  -17.0878 C   0  0  0  0  0  0  0  0  0  0  0  0
   21.8140  -10.0840  -16.3213 O   0  0  0  0  0  0  0  0  0  0  0  0
   20.1202   -9.3242  -17.6156 O   0  0  0  0  0  0  0  0  0  0  0  0
  2  1  1  0
  3  2  1  0
  4  5  1  0
  4  3  1  0
  5  7  1  0
  5  6  1  1
  7  8  2  0
  9  7  1  0
  9 10  1  0
 10 17  1  0
 10 11  1  6
 12 11  1  0
 12 16  1  0
 13 14  1  0
 13 12  2  0
 14 15  1  0
 15 16  2  0
 17 18  2  0
 20 19  1  1
 21 20  1  0
 21 17  1  0
 22 23  1  0
 22 20  1  0
 24 22  2  0
M  END
$$$$
