MHA.pdb
     RDKit          3D

 24 24  0  0  1  0  0  0  0  0999 V2000
   22.5640  -17.2997  -14.2786 C   0  0  0  0  0  0  0  0  0  0  0  0
   22.6850  -17.1606  -16.0847 S   0  0  0  0  0  0  0  0  0  0  0  0
   22.1398  -15.5018  -16.5499 C   0  0  0  0  0  0  0  0  0  0  0  0
   22.9209  -14.4241  -15.8780 C   0  0  0  0  0  0  0  0  0  0  0  0
   22.4773  -13.0219  -16.2114 C   0  0  2  0  0  0  0  0  0  0  0  0
   22.4554  -12.9365  -17.6591 N   0  0  0  0  0  0  0  0  0  0  0  0
   23.4004  -12.0291  -15.6151 C   0  0  0  0  0  0  0  0  0  0  0  0
   23.5535  -11.9785  -14.3753 O   0  0  0  0  0  0  0  0  0  0  0  0
   24.1363  -11.1069  -16.4495 N   0  0  0  0  0  0  0  0  0  0  0  0
   24.9820  -10.1036  -15.8600 C   0  0  1  0  0  0  0  0  0  0  0  0
   26.3854  -10.0811  -16.3295 C   0  0  0  0  0  0  0  0  0  0  0  0
   27.1817  -11.2814  -16.1298 C   0  0  0  0  0  0  0  0  0  0  0  0
   26.9554  -12.4729  -15.5049 C   0  0  0  0  0  0  0  0  0  0  0  0
   28.0387  -13.2775  -15.6222 N   0  0  0  0  0  0  0  0  0  0  0  0
   28.9267  -12.5706  -16.3224 C   0  0  0  0  0  0  0  0  0  0  0  0
   28.4461  -11.3777  -16.6397 N   0  0  0  0  0  0  0  0  0  0  0  0
   24.3004   -8.7873  -15.9815 C   0  0  0  0  0  0  0  0  0  0  0  0
   24.8494   -7.7217  -15.5597 O   0  0  0  0  0  0  0  0  0  0  0  0
   21.3560   -7.3627  -17.7854 C   0  0  0  0  0  0  0  0  0  0  0  0
   22.3488   -7.3231  -16.6216 C   0  0  2  0  0  0  0  0  0  0  0  0
   23.0128   -8.6289  -16.5658 N   0  0  0  0  0  0  0  0  0  0  0  0
   21.6089   -7.0337  -15.3907 C   0  0  0  0  0  0  0  0  0  0  0  0
   21.3988   -7.9711  -14.3932 O   0  0  0  0  0  0  0  0  0  0  0  0
   21.1403   -5.8828  -15.2260 O   0  0  0  0  0  0  0  0  0  0  0  0
  2  1  1  0
  3  2  1  0
  4  5  1  0
  4  3  1  0
  5  7  1  0
  5  6  1  6
  7  8  2  0
  9  7  1  0
  9 10  1  0
 10 17  1  0
 10 11  1  6
 12 11  1  0
 12 16  1  0
 13 14  1  0
 13 12  2  0
 14 15  1  0
 15 16  2  0
 17 18  2  0
 20 19  1  6
 21 20  1  0
 21 17  1  0
 22 23  1  0
 22 20  1  0
 24 22  2  0
M  END
$$$$
