MHA.pdb
     RDKit          3D

 24 24  0  0  1  0  0  0  0  0999 V2000
   29.1300  -13.9520  -15.2528 C   0  0  0  0  0  0  0  0  0  0  0  0
   27.4034  -13.4063  -15.3825 S   0  0  0  0  0  0  0  0  0  0  0  0
   26.9835  -13.3098  -17.1373 C   0  0  0  0  0  0  0  0  0  0  0  0
   25.6135  -12.7727  -17.3779 C   0  0  0  0  0  0  0  0  0  0  0  0
   24.5519  -13.3159  -16.4550 C   0  0  2  0  0  0  0  0  0  0  0  0
   24.3590  -14.7036  -16.8305 N   0  0  0  0  0  0  0  0  0  0  0  0
   23.3018  -12.5322  -16.5824 C   0  0  0  0  0  0  0  0  0  0  0  0
   22.5818  -12.6580  -17.5968 O   0  0  0  0  0  0  0  0  0  0  0  0
   22.8937  -11.6140  -15.5438 N   0  0  0  0  0  0  0  0  0  0  0  0
   21.6414  -10.9127  -15.6394 C   0  0  1  0  0  0  0  0  0  0  0  0
   20.6053  -11.2989  -14.6557 C   0  0  0  0  0  0  0  0  0  0  0  0
   20.0633  -12.6455  -14.7420 C   0  0  0  0  0  0  0  0  0  0  0  0
   20.3104  -13.7138  -15.5539 C   0  0  0  0  0  0  0  0  0  0  0  0
   19.5299  -14.7627  -15.1999 N   0  0  0  0  0  0  0  0  0  0  0  0
   18.8058  -14.3287  -14.1676 C   0  0  0  0  0  0  0  0  0  0  0  0
   19.1004  -13.0718  -13.8707 N   0  0  0  0  0  0  0  0  0  0  0  0
   21.9233   -9.4524  -15.6536 C   0  0  0  0  0  0  0  0  0  0  0  0
   22.7832   -8.9416  -14.8698 O   0  0  0  0  0  0  0  0  0  0  0  0
   20.8997   -6.5029  -17.7698 C   0  0  0  0  0  0  0  0  0  0  0  0
   21.6378   -7.1247  -16.5823 C   0  0  2  0  0  0  0  0  0  0  0  0
   21.2653   -8.5415  -16.5263 N   0  0  0  0  0  0  0  0  0  0  0  0
   21.2454   -6.4085  -15.3660 C   0  0  0  0  0  0  0  0  0  0  0  0
   21.8303   -5.2196  -14.9632 O   0  0  0  0  0  0  0  0  0  0  0  0
   20.3361   -6.8902  -14.6502 O   0  0  0  0  0  0  0  0  0  0  0  0
  2  1  1  0
  3  2  1  0
  4  5  1  0
  4  3  1  0
  5  7  1  0
  5  6  1  6
  7  8  2  0
  9  7  1  0
  9 10  1  0
 10 17  1  0
 10 11  1  1
 12 11  1  0
 12 16  1  0
 13 14  1  0
 13 12  2  0
 14 15  1  0
 15 16  2  0
 17 18  2  0
 20 19  1  6
 21 20  1  0
 21 17  1  0
 22 23  1  0
 22 20  1  0
 24 22  2  0
M  END
$$$$
