MHA.pdb
     RDKit          3D

 24 24  0  0  1  0  0  0  0  0999 V2000
   34.3225  -28.9118  -23.0481 C   0  0  0  0  0  0  0  0  0  0  0  0
   35.3506  -30.3587  -22.6669 S   0  0  0  0  0  0  0  0  0  0  0  0
   35.4588  -30.5028  -20.8689 C   0  0  0  0  0  0  0  0  0  0  0  0
   34.1546  -30.2619  -20.1876 C   0  0  0  0  0  0  0  0  0  0  0  0
   34.2648  -29.6637  -18.8078 C   0  0  2  0  0  0  0  0  0  0  0  0
   35.0475  -30.5980  -18.0215 N   0  0  0  0  0  0  0  0  0  0  0  0
   32.9201  -29.4464  -18.2265 C   0  0  0  0  0  0  0  0  0  0  0  0
   32.4124  -30.3090  -17.4772 O   0  0  0  0  0  0  0  0  0  0  0  0
   32.1750  -28.2417  -18.5125 N   0  0  0  0  0  0  0  0  0  0  0  0
   30.8703  -28.0369  -17.9422 C   0  0  1  0  0  0  0  0  0  0  0  0
   30.4229  -26.6302  -17.8356 C   0  0  0  0  0  0  0  0  0  0  0  0
   29.0991  -26.3843  -17.2865 C   0  0  0  0  0  0  0  0  0  0  0  0
   28.0749  -27.1936  -16.8895 C   0  0  0  0  0  0  0  0  0  0  0  0
   27.0417  -26.4501  -16.4264 N   0  0  0  0  0  0  0  0  0  0  0  0
   27.4412  -25.1832  -16.5427 C   0  0  0  0  0  0  0  0  0  0  0  0
   28.6621  -25.1108  -17.0515 N   0  0  0  0  0  0  0  0  0  0  0  0
   29.9035  -28.9084  -18.6619 C   0  0  0  0  0  0  0  0  0  0  0  0
   30.1256  -29.2929  -19.8525 O   0  0  0  0  0  0  0  0  0  0  0  0
   28.4909  -31.4841  -19.2252 C   0  0  0  0  0  0  0  0  0  0  0  0
   27.7473  -30.2065  -18.8296 C   0  0  2  0  0  0  0  0  0  0  0  0
   28.6868  -29.3648  -18.0825 N   0  0  0  0  0  0  0  0  0  0  0  0
   26.5847  -30.5788  -18.0196 C   0  0  0  0  0  0  0  0  0  0  0  0
   26.4821  -30.3015  -16.6667 O   0  0  0  0  0  0  0  0  0  0  0  0
   25.6325  -31.1780  -18.5723 O   0  0  0  0  0  0  0  0  0  0  0  0
  2  1  1  0
  3  2  1  0
  4  5  1  0
  4  3  1  0
  5  7  1  0
  5  6  1  1
  7  8  2  0
  9  7  1  0
  9 10  1  0
 10 17  1  0
 10 11  1  6
 12 11  1  0
 12 16  1  0
 13 14  1  0
 13 12  2  0
 14 15  1  0
 15 16  2  0
 17 18  2  0
 20 19  1  1
 21 20  1  0
 21 17  1  0
 22 23  1  0
 22 20  1  0
 24 22  2  0
M  END
$$$$
