MHA.pdb
     RDKit          3D

 24 24  0  0  1  0  0  0  0  0999 V2000
   30.5566    0.3366  -20.9732 C   0  0  0  0  0  0  0  0  0  0  0  0
   28.8522    0.2194  -20.3592 S   0  0  0  0  0  0  0  0  0  0  0  0
   28.3372   -1.5083  -20.4818 C   0  0  0  0  0  0  0  0  0  0  0  0
   29.0149   -2.3882  -19.4870 C   0  0  0  0  0  0  0  0  0  0  0  0
   28.6976   -3.8560  -19.6235 C   0  0  2  0  0  0  0  0  0  0  0  0
   27.2622   -3.9784  -19.4547 N   0  0  0  0  0  0  0  0  0  0  0  0
   29.4400   -4.6445  -18.6134 C   0  0  0  0  0  0  0  0  0  0  0  0
   28.9180   -4.8976  -17.5059 O   0  0  0  0  0  0  0  0  0  0  0  0
   30.7722   -5.1328  -18.8873 N   0  0  0  0  0  0  0  0  0  0  0  0
   31.4857   -5.9009  -17.9023 C   0  0  1  0  0  0  0  0  0  0  0  0
   32.0240   -7.2015  -18.3595 C   0  0  0  0  0  0  0  0  0  0  0  0
   32.8460   -7.9556  -17.4267 C   0  0  0  0  0  0  0  0  0  0  0  0
   32.9561   -7.9766  -16.0670 C   0  0  0  0  0  0  0  0  0  0  0  0
   33.8791   -8.8914  -15.6850 N   0  0  0  0  0  0  0  0  0  0  0  0
   34.3311   -9.4285  -16.8188 C   0  0  0  0  0  0  0  0  0  0  0  0
   33.7352   -8.8924  -17.8735 N   0  0  0  0  0  0  0  0  0  0  0  0
   32.5145   -5.0245  -17.2813 C   0  0  0  0  0  0  0  0  0  0  0  0
   33.4369   -4.4979  -17.9789 O   0  0  0  0  0  0  0  0  0  0  0  0
   33.0349   -3.4405  -13.9027 C   0  0  0  0  0  0  0  0  0  0  0  0
   33.4761   -3.7358  -15.3379 C   0  0  2  0  0  0  0  0  0  0  0  0
   32.5401   -4.7187  -15.8920 N   0  0  0  0  0  0  0  0  0  0  0  0
   34.8486   -4.2471  -15.3050 C   0  0  0  0  0  0  0  0  0  0  0  0
   35.1564   -5.5971  -15.3264 O   0  0  0  0  0  0  0  0  0  0  0  0
   35.7957   -3.4274  -15.2550 O   0  0  0  0  0  0  0  0  0  0  0  0
  2  1  1  0
  3  2  1  0
  4  5  1  0
  4  3  1  0
  5  7  1  0
  5  6  1  1
  7  8  2  0
  9  7  1  0
  9 10  1  0
 10 17  1  0
 10 11  1  6
 12 11  1  0
 12 16  1  0
 13 14  1  0
 13 12  2  0
 14 15  1  0
 15 16  2  0
 17 18  2  0
 20 19  1  1
 21 20  1  0
 21 17  1  0
 22 23  1  0
 22 20  1  0
 24 22  2  0
M  END
$$$$
