MHA.pdb
     RDKit          3D

 24 24  0  0  1  0  0  0  0  0999 V2000
   28.7900  -19.6765   -5.1879 C   0  0  0  0  0  0  0  0  0  0  0  0
   27.5841  -18.8031   -6.2266 S   0  0  0  0  0  0  0  0  0  0  0  0
   26.4650  -20.0348   -6.9307 C   0  0  0  0  0  0  0  0  0  0  0  0
   26.2678  -19.8680   -8.3992 C   0  0  0  0  0  0  0  0  0  0  0  0
   26.9472  -20.9116   -9.2495 C   0  0  2  0  0  0  0  0  0  0  0  0
   28.3707  -20.6500   -9.1533 N   0  0  0  0  0  0  0  0  0  0  0  0
   26.4668  -20.8357  -10.6483 C   0  0  0  0  0  0  0  0  0  0  0  0
   27.0264  -20.0715  -11.4645 O   0  0  0  0  0  0  0  0  0  0  0  0
   25.3502  -21.6381  -11.0929 N   0  0  0  0  0  0  0  0  0  0  0  0
   25.0690  -21.7851  -12.4960 C   0  0  1  0  0  0  0  0  0  0  0  0
   25.1968  -23.1545  -13.0428 C   0  0  0  0  0  0  0  0  0  0  0  0
   24.7865  -23.3703  -14.4210 C   0  0  0  0  0  0  0  0  0  0  0  0
   24.2920  -22.5571  -15.3987 C   0  0  0  0  0  0  0  0  0  0  0  0
   24.0837  -23.2633  -16.5356 N   0  0  0  0  0  0  0  0  0  0  0  0
   24.4541  -24.5113  -16.2464 C   0  0  0  0  0  0  0  0  0  0  0  0
   24.8774  -24.6074  -14.9949 N   0  0  0  0  0  0  0  0  0  0  0  0
   23.7483  -21.1612  -12.7760 C   0  0  0  0  0  0  0  0  0  0  0  0
   22.7771  -21.2873  -11.9663 O   0  0  0  0  0  0  0  0  0  0  0  0
   22.2579  -18.9936  -15.4855 C   0  0  0  0  0  0  0  0  0  0  0  0
   22.1541  -19.8335  -14.2106 C   0  0  2  0  0  0  0  0  0  0  0  0
   23.4821  -20.3947  -13.9448 N   0  0  0  0  0  0  0  0  0  0  0  0
   21.1519  -20.8802  -14.4254 C   0  0  0  0  0  0  0  0  0  0  0  0
   19.8409  -20.7764  -13.9914 O   0  0  0  0  0  0  0  0  0  0  0  0
   21.4913  -21.9238  -15.0312 O   0  0  0  0  0  0  0  0  0  0  0  0
  2  1  1  0
  3  2  1  0
  4  5  1  0
  4  3  1  0
  5  7  1  0
  5  6  1  6
  7  8  2  0
  9  7  1  0
  9 10  1  0
 10 17  1  0
 10 11  1  1
 12 11  1  0
 12 16  1  0
 13 14  1  0
 13 12  2  0
 14 15  1  0
 15 16  2  0
 17 18  2  0
 20 19  1  6
 21 20  1  0
 21 17  1  0
 22 23  1  0
 22 20  1  0
 24 22  2  0
M  END
$$$$
