MHA.pdb
     RDKit          3D

 24 24  0  0  1  0  0  0  0  0999 V2000
   17.2531  -14.1626  -20.3779 C   0  0  0  0  0  0  0  0  0  0  0  0
   18.3215  -13.1065  -19.3585 S   0  0  0  0  0  0  0  0  0  0  0  0
   17.7461  -13.2223  -17.6495 C   0  0  0  0  0  0  0  0  0  0  0  0
   18.5163  -12.3502  -16.7172 C   0  0  0  0  0  0  0  0  0  0  0  0
   19.9990  -12.6225  -16.6784 C   0  0  2  0  0  0  0  0  0  0  0  0
   20.1581  -13.9122  -16.0340 N   0  0  0  0  0  0  0  0  0  0  0  0
   20.7057  -11.5487  -15.9431 C   0  0  0  0  0  0  0  0  0  0  0  0
   20.5761  -11.4452  -14.7038 O   0  0  0  0  0  0  0  0  0  0  0  0
   21.5524  -10.6071  -16.6394 N   0  0  0  0  0  0  0  0  0  0  0  0
   22.3416   -9.6535  -15.9065 C   0  0  1  0  0  0  0  0  0  0  0  0
   23.7946   -9.6619  -16.1878 C   0  0  0  0  0  0  0  0  0  0  0  0
   24.5471  -10.8470  -15.8088 C   0  0  0  0  0  0  0  0  0  0  0  0
   24.2525  -11.9600  -15.0768 C   0  0  0  0  0  0  0  0  0  0  0  0
   25.3213  -12.7911  -15.0355 N   0  0  0  0  0  0  0  0  0  0  0  0
   26.2692  -12.1793  -15.7465 C   0  0  0  0  0  0  0  0  0  0  0  0
   25.8390  -11.0195  -16.2204 N   0  0  0  0  0  0  0  0  0  0  0  0
   21.7198   -8.3118  -16.0652 C   0  0  0  0  0  0  0  0  0  0  0  0
   21.5819   -7.7830  -17.2125 O   0  0  0  0  0  0  0  0  0  0  0  0
   19.3893   -6.0858  -14.4402 C   0  0  0  0  0  0  0  0  0  0  0  0
   20.7425   -6.1745  -15.1493 C   0  0  2  0  0  0  0  0  0  0  0  0
   21.2447   -7.5399  -14.9685 N   0  0  0  0  0  0  0  0  0  0  0  0
   21.6412   -5.1795  -14.5589 C   0  0  0  0  0  0  0  0  0  0  0  0
   22.6486   -5.5022  -13.6651 O   0  0  0  0  0  0  0  0  0  0  0  0
   21.4966   -3.9749  -14.8741 O   0  0  0  0  0  0  0  0  0  0  0  0
  2  1  1  0
  3  2  1  0
  4  5  1  0
  4  3  1  0
  5  7  1  0
  5  6  1  1
  7  8  2  0
  9  7  1  0
  9 10  1  0
 10 17  1  0
 10 11  1  6
 12 11  1  0
 12 16  1  0
 13 14  1  0
 13 12  2  0
 14 15  1  0
 15 16  2  0
 17 18  2  0
 20 19  1  1
 21 20  1  0
 21 17  1  0
 22 23  1  0
 22 20  1  0
 24 22  2  0
M  END
$$$$
