MHA.pdb
     RDKit          3D

 24 24  0  0  1  0  0  0  0  0999 V2000
   26.6331  -15.7191  -15.0584 C   0  0  0  0  0  0  0  0  0  0  0  0
   25.9015  -14.0809  -15.3352 S   0  0  0  0  0  0  0  0  0  0  0  0
   25.2976  -14.0247  -17.0375 C   0  0  0  0  0  0  0  0  0  0  0  0
   24.8275  -12.6689  -17.4423 C   0  0  0  0  0  0  0  0  0  0  0  0
   24.1702  -11.8745  -16.3419 C   0  0  2  0  0  0  0  0  0  0  0  0
   22.9751  -12.6077  -15.9701 N   0  0  0  0  0  0  0  0  0  0  0  0
   23.8532  -10.5049  -16.8077 C   0  0  0  0  0  0  0  0  0  0  0  0
   24.7530   -9.7789  -17.2837 O   0  0  0  0  0  0  0  0  0  0  0  0
   22.5073   -9.9857  -16.7213 N   0  0  0  0  0  0  0  0  0  0  0  0
   22.1987   -8.6702  -17.2148 C   0  0  1  0  0  0  0  0  0  0  0  0
   21.2041   -8.6051  -18.3089 C   0  0  0  0  0  0  0  0  0  0  0  0
   21.5517   -9.2334  -19.5734 C   0  0  0  0  0  0  0  0  0  0  0  0
   22.5777   -9.0731  -20.4582 C   0  0  0  0  0  0  0  0  0  0  0  0
   22.4429   -9.9351  -21.4943 N   0  0  0  0  0  0  0  0  0  0  0  0
   21.3296  -10.6223  -21.2366 C   0  0  0  0  0  0  0  0  0  0  0  0
   20.7758  -10.2279  -20.0997 N   0  0  0  0  0  0  0  0  0  0  0  0
   21.8546   -7.8047  -16.0553 C   0  0  0  0  0  0  0  0  0  0  0  0
   21.1317   -8.2375  -15.1040 O   0  0  0  0  0  0  0  0  0  0  0  0
   22.6983   -4.3116  -14.8978 C   0  0  0  0  0  0  0  0  0  0  0  0
   21.9418   -5.6357  -14.7708 C   0  0  2  0  0  0  0  0  0  0  0  0
   22.2999   -6.4593  -15.9296 N   0  0  0  0  0  0  0  0  0  0  0  0
   20.5061   -5.3471  -14.7288 C   0  0  0  0  0  0  0  0  0  0  0  0
   19.8311   -5.0217  -13.5642 O   0  0  0  0  0  0  0  0  0  0  0  0
   19.8505   -5.3953  -15.7961 O   0  0  0  0  0  0  0  0  0  0  0  0
  2  1  1  0
  3  2  1  0
  4  5  1  0
  4  3  1  0
  5  7  1  0
  5  6  1  6
  7  8  2  0
  9  7  1  0
  9 10  1  0
 10 17  1  0
 10 11  1  6
 12 11  1  0
 12 16  1  0
 13 14  1  0
 13 12  2  0
 14 15  1  0
 15 16  2  0
 17 18  2  0
 20 19  1  6
 21 20  1  0
 21 17  1  0
 22 23  1  0
 22 20  1  0
 24 22  2  0
M  END
$$$$
