MHA.pdb
     RDKit          3D

 24 24  0  0  1  0  0  0  0  0999 V2000
   35.3924  -30.7432  -22.8364 C   0  0  0  0  0  0  0  0  0  0  0  0
   34.5832  -29.1500  -22.5161 S   0  0  0  0  0  0  0  0  0  0  0  0
   34.7034  -28.8142  -20.7446 C   0  0  0  0  0  0  0  0  0  0  0  0
   34.4822  -30.0279  -19.9072 C   0  0  0  0  0  0  0  0  0  0  0  0
   33.3360  -29.9218  -18.9331 C   0  0  2  0  0  0  0  0  0  0  0  0
   33.7166  -28.9088  -17.9672 N   0  0  0  0  0  0  0  0  0  0  0  0
   33.0800  -31.2297  -18.2872 C   0  0  0  0  0  0  0  0  0  0  0  0
   33.7799  -31.6007  -17.3198 O   0  0  0  0  0  0  0  0  0  0  0  0
   32.0238  -32.0954  -18.7598 N   0  0  0  0  0  0  0  0  0  0  0  0
   31.7855  -33.3672  -18.1314 C   0  0  1  0  0  0  0  0  0  0  0  0
   30.3673  -33.7162  -17.8916 C   0  0  0  0  0  0  0  0  0  0  0  0
   29.6567  -32.9768  -16.8607 C   0  0  0  0  0  0  0  0  0  0  0  0
   30.0506  -32.2761  -15.7583 C   0  0  0  0  0  0  0  0  0  0  0  0
   28.9736  -31.7516  -15.1262 N   0  0  0  0  0  0  0  0  0  0  0  0
   27.9208  -32.1357  -15.8489 C   0  0  0  0  0  0  0  0  0  0  0  0
   28.2947  -32.8666  -16.8885 N   0  0  0  0  0  0  0  0  0  0  0  0
   32.5274  -34.4097  -18.8895 C   0  0  0  0  0  0  0  0  0  0  0  0
   32.4338  -34.4940  -20.1540 O   0  0  0  0  0  0  0  0  0  0  0  0
   35.3527  -36.7557  -18.2079 C   0  0  0  0  0  0  0  0  0  0  0  0
   34.1484  -36.3352  -19.0533 C   0  0  2  0  0  0  0  0  0  0  0  0
   33.3770  -35.3669  -18.2681 N   0  0  0  0  0  0  0  0  0  0  0  0
   33.3634  -37.5312  -19.3691 C   0  0  0  0  0  0  0  0  0  0  0  0
   32.0349  -37.6840  -19.0092 O   0  0  0  0  0  0  0  0  0  0  0  0
   33.9155  -38.4659  -19.9958 O   0  0  0  0  0  0  0  0  0  0  0  0
  2  1  1  0
  3  2  1  0
  4  5  1  0
  4  3  1  0
  5  7  1  0
  5  6  1  1
  7  8  2  0
  9  7  1  0
  9 10  1  0
 10 17  1  0
 10 11  1  6
 12 11  1  0
 12 16  1  0
 13 14  1  0
 13 12  2  0
 14 15  1  0
 15 16  2  0
 17 18  2  0
 20 19  1  1
 21 20  1  0
 21 17  1  0
 22 23  1  0
 22 20  1  0
 24 22  2  0
M  END
$$$$
