MHA.pdb
     RDKit          3D

 24 24  0  0  1  0  0  0  0  0999 V2000
   16.1275  -31.1096  -11.0101 C   0  0  0  0  0  0  0  0  0  0  0  0
   16.4425  -29.5428  -11.8713 S   0  0  0  0  0  0  0  0  0  0  0  0
   17.9522  -28.8266  -11.1832 C   0  0  0  0  0  0  0  0  0  0  0  0
   19.1815  -29.5706  -11.5812 C   0  0  0  0  0  0  0  0  0  0  0  0
   20.4329  -29.1599  -10.8469 C   0  0  2  0  0  0  0  0  0  0  0  0
   20.6835  -27.7788  -11.2126 N   0  0  0  0  0  0  0  0  0  0  0  0
   21.5647  -30.0411  -11.2154 C   0  0  0  0  0  0  0  0  0  0  0  0
   21.8531  -30.2240  -12.4181 O   0  0  0  0  0  0  0  0  0  0  0  0
   22.3514  -30.7012  -10.1987 N   0  0  0  0  0  0  0  0  0  0  0  0
   23.4808  -31.5146  -10.5623 C   0  0  1  0  0  0  0  0  0  0  0  0
   24.5736  -31.5888   -9.5670 C   0  0  0  0  0  0  0  0  0  0  0  0
   25.7236  -32.4181   -9.8900 C   0  0  0  0  0  0  0  0  0  0  0  0
   26.8776  -32.2045  -10.5858 C   0  0  0  0  0  0  0  0  0  0  0  0
   27.6432  -33.3219  -10.5790 N   0  0  0  0  0  0  0  0  0  0  0  0
   26.9504  -34.2179   -9.8752 C   0  0  0  0  0  0  0  0  0  0  0  0
   25.8028  -33.7100   -9.4511 N   0  0  0  0  0  0  0  0  0  0  0  0
   22.9789  -32.8494  -10.9848 C   0  0  0  0  0  0  0  0  0  0  0  0
   23.7736  -33.7468  -11.4067 O   0  0  0  0  0  0  0  0  0  0  0  0
   20.0977  -35.0229  -10.4144 C   0  0  0  0  0  0  0  0  0  0  0  0
   21.1390  -34.5199  -11.4166 C   0  0  2  0  0  0  0  0  0  0  0  0
   21.6032  -33.2106  -10.9482 N   0  0  0  0  0  0  0  0  0  0  0  0
   20.5091  -34.4357  -12.7366 C   0  0  0  0  0  0  0  0  0  0  0  0
   20.1211  -35.5479  -13.4648 O   0  0  0  0  0  0  0  0  0  0  0  0
   20.3086  -33.3041  -13.2373 O   0  0  0  0  0  0  0  0  0  0  0  0
  2  1  1  0
  3  2  1  0
  4  5  1  0
  4  3  1  0
  5  7  1  0
  5  6  1  6
  7  8  2  0
  9  7  1  0
  9 10  1  0
 10 17  1  0
 10 11  1  1
 12 11  1  0
 12 16  1  0
 13 14  1  0
 13 12  2  0
 14 15  1  0
 15 16  2  0
 17 18  2  0
 20 19  1  1
 21 20  1  0
 21 17  1  0
 22 23  1  0
 22 20  1  0
 24 22  2  0
M  END
$$$$
