MHA.pdb
     RDKit          3D

 24 24  0  0  1  0  0  0  0  0999 V2000
   16.9738  -33.7070   -8.7488 C   0  0  0  0  0  0  0  0  0  0  0  0
   17.6606  -33.6313  -10.4276 S   0  0  0  0  0  0  0  0  0  0  0  0
   19.3583  -33.0246  -10.3044 C   0  0  0  0  0  0  0  0  0  0  0  0
   20.0479  -32.9567  -11.6247 C   0  0  0  0  0  0  0  0  0  0  0  0
   21.4446  -32.3902  -11.5784 C   0  0  2  0  0  0  0  0  0  0  0  0
   22.0063  -32.5864  -12.9013 N   0  0  0  0  0  0  0  0  0  0  0  0
   22.2462  -33.0681  -10.5338 C   0  0  0  0  0  0  0  0  0  0  0  0
   22.7189  -34.2063  -10.7442 O   0  0  0  0  0  0  0  0  0  0  0  0
   22.4953  -32.4310   -9.2609 N   0  0  0  0  0  0  0  0  0  0  0  0
   23.2687  -33.0990   -8.2485 C   0  0  1  0  0  0  0  0  0  0  0  0
   24.5921  -32.5083   -7.9486 C   0  0  0  0  0  0  0  0  0  0  0  0
   25.6667  -32.7457   -8.8991 C   0  0  0  0  0  0  0  0  0  0  0  0
   25.7828  -33.5103  -10.0231 C   0  0  0  0  0  0  0  0  0  0  0  0
   27.0153  -33.3632  -10.5654 N   0  0  0  0  0  0  0  0  0  0  0  0
   27.6501  -32.5046   -9.7666 C   0  0  0  0  0  0  0  0  0  0  0  0
   26.8736  -32.1185   -8.7652 N   0  0  0  0  0  0  0  0  0  0  0  0
   22.4139  -33.2688   -7.0432 C   0  0  0  0  0  0  0  0  0  0  0  0
   21.6250  -32.3484   -6.6623 O   0  0  0  0  0  0  0  0  0  0  0  0
   21.4974  -36.1002   -4.7438 C   0  0  0  0  0  0  0  0  0  0  0  0
   21.4969  -34.6165   -5.1184 C   0  0  2  0  0  0  0  0  0  0  0  0
   22.4173  -34.4479   -6.2470 N   0  0  0  0  0  0  0  0  0  0  0  0
   21.9201  -33.8428   -3.9485 C   0  0  0  0  0  0  0  0  0  0  0  0
   21.0617  -33.4905   -2.9205 O   0  0  0  0  0  0  0  0  0  0  0  0
   23.1169  -33.4789   -3.8677 O   0  0  0  0  0  0  0  0  0  0  0  0
  2  1  1  0
  3  2  1  0
  4  5  1  0
  4  3  1  0
  5  7  1  0
  5  6  1  6
  7  8  2  0
  9  7  1  0
  9 10  1  0
 10 17  1  0
 10 11  1  1
 12 11  1  0
 12 16  1  0
 13 14  1  0
 13 12  2  0
 14 15  1  0
 15 16  2  0
 17 18  2  0
 20 19  1  1
 21 20  1  0
 21 17  1  0
 22 23  1  0
 22 20  1  0
 24 22  2  0
M  END
$$$$
