MHA.pdb
     RDKit          3D

 24 24  0  0  1  0  0  0  0  0999 V2000
   21.9543  -11.9965    6.1718 C   0  0  0  0  0  0  0  0  0  0  0  0
   20.5938  -10.8475    6.5247 S   0  0  0  0  0  0  0  0  0  0  0  0
   19.1151  -11.4677    5.6917 C   0  0  0  0  0  0  0  0  0  0  0  0
   18.5443  -12.6791    6.3475 C   0  0  0  0  0  0  0  0  0  0  0  0
   17.3684  -13.2907    5.6285 C   0  0  2  0  0  0  0  0  0  0  0  0
   16.2554  -12.3813    5.8237 N   0  0  0  0  0  0  0  0  0  0  0  0
   17.0768  -14.6406    6.1634 C   0  0  0  0  0  0  0  0  0  0  0  0
   16.2732  -14.7810    7.1110 O   0  0  0  0  0  0  0  0  0  0  0  0
   17.7111  -15.8123    5.6040 N   0  0  0  0  0  0  0  0  0  0  0  0
   17.4767  -17.1122    6.1737 C   0  0  1  0  0  0  0  0  0  0  0  0
   17.2972  -18.2201    5.2089 C   0  0  0  0  0  0  0  0  0  0  0  0
   17.0280  -19.5442    5.7464 C   0  0  0  0  0  0  0  0  0  0  0  0
   16.8921  -20.0422    7.0093 C   0  0  0  0  0  0  0  0  0  0  0  0
   16.6235  -21.3690    6.9642 N   0  0  0  0  0  0  0  0  0  0  0  0
   16.5958  -21.6776    5.6671 C   0  0  0  0  0  0  0  0  0  0  0  0
   16.8329  -20.6123    4.9163 N   0  0  0  0  0  0  0  0  0  0  0  0
   18.5358  -17.3779    7.1836 C   0  0  0  0  0  0  0  0  0  0  0  0
   19.7646  -17.2093    6.9070 O   0  0  0  0  0  0  0  0  0  0  0  0
   18.8726  -17.6063   10.8284 C   0  0  0  0  0  0  0  0  0  0  0  0
   19.3285  -18.1189    9.4606 C   0  0  2  0  0  0  0  0  0  0  0  0
   18.2564  -17.8301    8.5033 N   0  0  0  0  0  0  0  0  0  0  0  0
   19.5918  -19.5560    9.5683 C   0  0  0  0  0  0  0  0  0  0  0  0
   20.6608  -20.0809   10.2750 O   0  0  0  0  0  0  0  0  0  0  0  0
   18.8150  -20.3554    8.9949 O   0  0  0  0  0  0  0  0  0  0  0  0
  2  1  1  0
  3  2  1  0
  4  5  1  0
  4  3  1  0
  5  7  1  0
  5  6  1  1
  7  8  2  0
  9  7  1  0
  9 10  1  0
 10 17  1  0
 10 11  1  6
 12 11  1  0
 12 16  1  0
 13 14  1  0
 13 12  2  0
 14 15  1  0
 15 16  2  0
 17 18  2  0
 20 19  1  1
 21 20  1  0
 21 17  1  0
 22 23  1  0
 22 20  1  0
 24 22  2  0
M  END
$$$$
