INM.pdb
     RDKit          3D

 25 24  0  0  1  0  0  0  0  0999 V2000
   12.9438  -12.1901  -14.8538 C   0  0  0  0  0  0  0  0  0  0  0  0
   14.4051  -12.0277  -15.0921 C   0  0  0  0  0  0  0  0  0  0  0  0
   15.0866  -11.1780  -14.0749 C   0  0  2  0  0  0  0  0  0  0  0  0
   14.3717   -9.8544  -13.9895 C   0  0  0  0  0  0  0  0  0  0  0  0
   16.5584  -11.0381  -14.3451 C   0  0  2  0  0  0  0  0  0  0  0  0
   17.1791  -12.3340  -14.4325 N   0  0  0  0  0  0  0  0  0  0  0  0
   17.2379  -10.1859  -13.3495 C   0  0  0  0  0  0  0  0  0  0  0  0
   17.4266  -10.6104  -12.1842 O   0  0  0  0  0  0  0  0  0  0  0  0
   20.6713   -7.2957  -11.3635 N   0  0  0  0  0  0  0  0  0  0  0  0
   20.6045   -6.9961  -12.7880 C   0  0  0  0  0  0  0  0  0  0  0  0
   21.6391   -6.5004  -13.2451 O   0  0  0  0  0  0  0  0  0  0  0  0
   19.3808   -7.2986  -13.4940 C   0  0  0  0  0  0  0  0  0  0  0  0
   18.3293   -7.9932  -12.6782 C   0  0  2  0  0  0  0  0  0  0  0  0
   17.6752   -8.8985  -13.7028 N   0  0  0  0  0  0  0  0  0  0  0  0
   17.2605   -7.1367  -12.1628 C   0  0  0  0  0  0  0  0  0  0  0  0
   16.3741   -6.7576  -13.0290 O   0  0  0  0  0  0  0  0  0  0  0  0
   12.3355   -4.9552   -6.4140 C   0  0  0  0  0  0  0  0  0  0  0  0
   13.5709   -6.1267   -7.0640 S   0  0  0  0  0  0  0  0  0  0  0  0
   14.2467   -5.5316   -8.5849 C   0  0  0  0  0  0  0  0  0  0  0  0
   15.3160   -6.2543   -9.2977 C   0  0  0  0  0  0  0  0  0  0  0  0
   15.8540   -5.7710  -10.5800 C   0  0  2  0  0  0  0  0  0  0  0  0
   17.0354   -6.6580  -10.8798 N   0  0  0  0  0  0  0  0  0  0  0  0
   16.6262   -4.4598  -10.3727 C   0  0  0  0  0  0  0  0  0  0  0  0
   17.9041   -4.5154  -10.3178 O   0  0  0  0  0  0  0  0  0  0  0  0
   16.0814   -3.2317  -10.2354 O   0  0  0  0  0  0  0  0  0  0  0  0
  2  3  1  0
  2  1  1  0
  3  5  1  0
  3  4  1  6
  5  7  1  0
  5  6  1  1
  7  8  2  0
 10  9  1  0
 11 10  2  0
 12 10  1  0
 13 12  1  6
 14 13  1  0
 14  7  1  0
 15 16  2  0
 15 13  1  0
 17 18  1  0
 19 20  1  0
 19 18  1  0
 21 20  1  1
 21 22  1  0
 21 23  1  0
 22 15  1  0
 23 24  2  0
 23 25  1  0
M  END
$$$$
