INM.pdb
     RDKit          3D

 25 24  0  0  1  0  0  0  0  0999 V2000
   23.8307  -21.2688   -8.4146 C   0  0  0  0  0  0  0  0  0  0  0  0
   24.5203  -20.0331   -8.8797 C   0  0  0  0  0  0  0  0  0  0  0  0
   24.7111  -19.9741  -10.3566 C   0  0  2  0  0  0  0  0  0  0  0  0
   23.4351  -20.4096  -11.0294 C   0  0  0  0  0  0  0  0  0  0  0  0
   25.9128  -20.7569  -10.8062 C   0  0  2  0  0  0  0  0  0  0  0  0
   27.0224  -20.5292   -9.9178 N   0  0  0  0  0  0  0  0  0  0  0  0
   26.2820  -20.4719  -12.2067 C   0  0  0  0  0  0  0  0  0  0  0  0
   26.7293  -19.3428  -12.5207 O   0  0  0  0  0  0  0  0  0  0  0  0
   27.7284  -21.0719  -17.1121 N   0  0  0  0  0  0  0  0  0  0  0  0
   28.0199  -22.2292  -16.2759 C   0  0  0  0  0  0  0  0  0  0  0  0
   28.8329  -23.0147  -16.7728 O   0  0  0  0  0  0  0  0  0  0  0  0
   27.3534  -22.3353  -14.9985 C   0  0  0  0  0  0  0  0  0  0  0  0
   26.4733  -21.1732  -14.6402 C   0  0  2  0  0  0  0  0  0  0  0  0
   26.1343  -21.4628  -13.1916 N   0  0  0  0  0  0  0  0  0  0  0  0
   25.1920  -21.1094  -15.3444 C   0  0  0  0  0  0  0  0  0  0  0  0
   24.3664  -22.0787  -15.1025 O   0  0  0  0  0  0  0  0  0  0  0  0
   20.8726  -19.9571  -12.7735 C   0  0  0  0  0  0  0  0  0  0  0  0
   19.9262  -19.7093  -14.3110 S   0  0  0  0  0  0  0  0  0  0  0  0
   20.9714  -19.9196  -15.7208 C   0  0  0  0  0  0  0  0  0  0  0  0
   22.4285  -20.1031  -15.5897 C   0  0  0  0  0  0  0  0  0  0  0  0
   23.2982  -20.2522  -16.7681 C   0  0  2  0  0  0  0  0  0  0  0  0
   24.7077  -20.1668  -16.2404 N   0  0  0  0  0  0  0  0  0  0  0  0
   23.3058  -18.9557  -17.5912 C   0  0  0  0  0  0  0  0  0  0  0  0
   24.3246  -18.1865  -17.4942 O   0  0  0  0  0  0  0  0  0  0  0  0
   22.3247  -18.5359  -18.4190 O   0  0  0  0  0  0  0  0  0  0  0  0
  2  3  1  0
  2  1  1  0
  3  5  1  0
  3  4  1  6
  5  7  1  0
  5  6  1  1
  7  8  2  0
 10  9  1  0
 11 10  2  0
 12 10  1  0
 13 12  1  6
 14 13  1  0
 14  7  1  0
 15 16  2  0
 15 13  1  0
 17 18  1  0
 19 20  1  0
 19 18  1  0
 21 20  1  1
 21 22  1  0
 21 23  1  0
 22 15  1  0
 23 24  2  0
 23 25  1  0
M  END
$$$$
