INM.pdb
     RDKit          3D

 25 24  0  0  1  0  0  0  0  0999 V2000
   23.4151  -20.2734  -16.6332 C   0  0  0  0  0  0  0  0  0  0  0  0
   24.8022  -20.3301  -16.0932 C   0  0  0  0  0  0  0  0  0  0  0  0
   24.9022  -21.0095  -14.7706 C   0  0  2  0  0  0  0  0  0  0  0  0
   24.4120  -22.4271  -14.9140 C   0  0  0  0  0  0  0  0  0  0  0  0
   24.1955  -20.2471  -13.6851 C   0  0  2  0  0  0  0  0  0  0  0  0
   24.5887  -18.8624  -13.7054 N   0  0  0  0  0  0  0  0  0  0  0  0
   24.4017  -20.8418  -12.3498 C   0  0  0  0  0  0  0  0  0  0  0  0
   25.3529  -21.6364  -12.1566 O   0  0  0  0  0  0  0  0  0  0  0  0
   24.5990  -21.4516   -7.2823 N   0  0  0  0  0  0  0  0  0  0  0  0
   25.4200  -20.5794   -8.1122 C   0  0  0  0  0  0  0  0  0  0  0  0
   26.3850  -20.0865   -7.5200 O   0  0  0  0  0  0  0  0  0  0  0  0
   25.0359  -20.3877   -9.4918 C   0  0  0  0  0  0  0  0  0  0  0  0
   23.7673  -21.0777   -9.9020 C   0  0  2  0  0  0  0  0  0  0  0  0
   23.5347  -20.5205  -11.2922 N   0  0  0  0  0  0  0  0  0  0  0  0
   22.5768  -20.7258   -9.1270 C   0  0  0  0  0  0  0  0  0  0  0  0
   22.0760  -19.5540   -9.3632 O   0  0  0  0  0  0  0  0  0  0  0  0
   16.0876  -22.5523  -11.3634 C   0  0  0  0  0  0  0  0  0  0  0  0
   17.9092  -22.5213  -11.3173 S   0  0  0  0  0  0  0  0  0  0  0  0
   18.4786  -22.0317   -9.7172 C   0  0  0  0  0  0  0  0  0  0  0  0
   19.9127  -21.8641   -9.4185 C   0  0  0  0  0  0  0  0  0  0  0  0
   20.3794  -21.4066   -8.0994 C   0  0  2  0  0  0  0  0  0  0  0  0
   21.8846  -21.4518   -8.1680 N   0  0  0  0  0  0  0  0  0  0  0  0
   20.1860  -22.5142   -7.0532 C   0  0  0  0  0  0  0  0  0  0  0  0
   20.8668  -23.5907   -7.1826 O   0  0  0  0  0  0  0  0  0  0  0  0
   19.3507  -22.4668   -5.9931 O   0  0  0  0  0  0  0  0  0  0  0  0
  2  3  1  0
  2  1  1  0
  3  5  1  0
  3  4  1  6
  5  7  1  0
  5  6  1  1
  7  8  2  0
 10  9  1  0
 11 10  2  0
 12 10  1  0
 13 12  1  1
 14 13  1  0
 14  7  1  0
 15 16  2  0
 15 13  1  0
 17 18  1  0
 19 20  1  0
 19 18  1  0
 21 20  1  6
 21 22  1  0
 21 23  1  0
 22 15  1  0
 23 24  2  0
 23 25  1  0
M  END
$$$$
