INM.pdb
     RDKit          3D

 25 24  0  0  1  0  0  0  0  0999 V2000
   23.2701  -18.8420  -16.1627 C   0  0  0  0  0  0  0  0  0  0  0  0
   23.0648  -17.5591  -16.8914 C   0  0  0  0  0  0  0  0  0  0  0  0
   23.4628  -16.3555  -16.1079 C   0  0  2  0  0  0  0  0  0  0  0  0
   22.7717  -16.3962  -14.7696 C   0  0  0  0  0  0  0  0  0  0  0  0
   23.2154  -15.0791  -16.8619 C   0  0  2  0  0  0  0  0  0  0  0  0
   23.7535  -15.1696  -18.1940 N   0  0  0  0  0  0  0  0  0  0  0  0
   23.7374  -13.8935  -16.1539 C   0  0  0  0  0  0  0  0  0  0  0  0
   23.3581  -13.6431  -14.9848 O   0  0  0  0  0  0  0  0  0  0  0  0
   28.3180   -9.9361  -16.7429 N   0  0  0  0  0  0  0  0  0  0  0  0
   26.8724  -10.0802  -16.6276 C   0  0  0  0  0  0  0  0  0  0  0  0
   26.2958   -9.0579  -16.2436 O   0  0  0  0  0  0  0  0  0  0  0  0
   26.2833  -11.3562  -16.9623 C   0  0  0  0  0  0  0  0  0  0  0  0
   25.0984  -11.7495  -16.1288 C   0  0  2  0  0  0  0  0  0  0  0  0
   24.6596  -13.0429  -16.7859 N   0  0  0  0  0  0  0  0  0  0  0  0
   23.9451  -10.8519  -16.2057 C   0  0  0  0  0  0  0  0  0  0  0  0
   23.2849  -10.8758  -17.3208 O   0  0  0  0  0  0  0  0  0  0  0  0
   19.6064   -9.2854  -11.4325 C   0  0  0  0  0  0  0  0  0  0  0  0
   18.7976   -9.3163  -13.0652 S   0  0  0  0  0  0  0  0  0  0  0  0
   19.9435   -8.8604  -14.3313 C   0  0  0  0  0  0  0  0  0  0  0  0
   21.2112   -9.5859  -14.5325 C   0  0  0  0  0  0  0  0  0  0  0  0
   22.1871   -9.1692  -15.5529 C   0  0  2  0  0  0  0  0  0  0  0  0
   23.4333   -9.9675  -15.2667 N   0  0  0  0  0  0  0  0  0  0  0  0
   22.7486   -7.7800  -15.2161 C   0  0  0  0  0  0  0  0  0  0  0  0
   22.0701   -6.7538  -15.5707 O   0  0  0  0  0  0  0  0  0  0  0  0
   23.9104   -7.5280  -14.5753 O   0  0  0  0  0  0  0  0  0  0  0  0
  2  3  1  0
  2  1  1  0
  3  5  1  0
  3  4  1  1
  5  7  1  0
  5  6  1  6
  7  8  2  0
 10  9  1  0
 11 10  2  0
 12 10  1  0
 13 12  1  6
 14 13  1  0
 14  7  1  0
 15 16  2  0
 15 13  1  0
 17 18  1  0
 19 20  1  0
 19 18  1  0
 21 20  1  1
 21 22  1  0
 21 23  1  0
 22 15  1  0
 23 24  2  0
 23 25  1  0
M  END
$$$$
