INM.pdb
     RDKit          3D

 25 24  0  0  1  0  0  0  0  0999 V2000
   29.6081  -21.6481  -11.4458 C   0  0  0  0  0  0  0  0  0  0  0  0
   28.5481  -20.6020  -11.4191 C   0  0  0  0  0  0  0  0  0  0  0  0
   27.6202  -20.6604  -12.5838 C   0  0  2  0  0  0  0  0  0  0  0  0
   28.4286  -20.5896  -13.8534 C   0  0  0  0  0  0  0  0  0  0  0  0
   26.5463  -19.6116  -12.5082 C   0  0  2  0  0  0  0  0  0  0  0  0
   25.9025  -19.6430  -11.2211 N   0  0  0  0  0  0  0  0  0  0  0  0
   25.5616  -19.7303  -13.6015 C   0  0  0  0  0  0  0  0  0  0  0  0
   25.9448  -19.7154  -14.7959 O   0  0  0  0  0  0  0  0  0  0  0  0
   22.9641  -22.7113  -14.2669 N   0  0  0  0  0  0  0  0  0  0  0  0
   21.9157  -21.9393  -13.6122 C   0  0  0  0  0  0  0  0  0  0  0  0
   21.0716  -22.6302  -13.0333 O   0  0  0  0  0  0  0  0  0  0  0  0
   21.9690  -20.4984  -13.7035 C   0  0  0  0  0  0  0  0  0  0  0  0
   23.1677  -19.9490  -14.4209 C   0  0  2  0  0  0  0  0  0  0  0  0
   24.1938  -19.8603  -13.3089 N   0  0  0  0  0  0  0  0  0  0  0  0
   23.0249  -18.5886  -14.9411 C   0  0  0  0  0  0  0  0  0  0  0  0
   22.4751  -17.7324  -14.1383 O   0  0  0  0  0  0  0  0  0  0  0  0
   27.2232  -14.3736  -14.8322 C   0  0  0  0  0  0  0  0  0  0  0  0
   26.6035  -14.0057  -16.5061 S   0  0  0  0  0  0  0  0  0  0  0  0
   24.9812  -14.6723  -16.7248 C   0  0  0  0  0  0  0  0  0  0  0  0
   24.6460  -16.0521  -16.3278 C   0  0  0  0  0  0  0  0  0  0  0  0
   23.2750  -16.5769  -16.4374 C   0  0  2  0  0  0  0  0  0  0  0  0
   23.3884  -18.0561  -16.1700 N   0  0  0  0  0  0  0  0  0  0  0  0
   22.8550  -16.6641  -17.9120 C   0  0  0  0  0  0  0  0  0  0  0  0
   23.1481  -17.7287  -18.5599 O   0  0  0  0  0  0  0  0  0  0  0  0
   22.1992  -15.7103  -18.6077 O   0  0  0  0  0  0  0  0  0  0  0  0
  2  3  1  0
  2  1  1  0
  3  5  1  0
  3  4  1  6
  5  7  1  0
  5  6  1  1
  7  8  2  0
 10  9  1  0
 11 10  2  0
 12 10  1  0
 13 12  1  1
 14 13  1  0
 14  7  1  0
 15 16  2  0
 15 13  1  0
 17 18  1  0
 19 20  1  0
 19 18  1  0
 21 20  1  6
 21 22  1  0
 21 23  1  0
 22 15  1  0
 23 24  2  0
 23 25  1  0
M  END
$$$$
