INM.pdb
     RDKit          3D

 25 24  0  0  1  0  0  0  0  0999 V2000
   22.2033  -13.6825  -17.2609 C   0  0  0  0  0  0  0  0  0  0  0  0
   22.3178  -15.1582  -17.4277 C   0  0  0  0  0  0  0  0  0  0  0  0
   22.5002  -15.8932  -16.1442 C   0  0  2  0  0  0  0  0  0  0  0  0
   23.7287  -15.3635  -15.4510 C   0  0  0  0  0  0  0  0  0  0  0  0
   22.5294  -17.3829  -16.3414 C   0  0  2  0  0  0  0  0  0  0  0  0
   21.4914  -17.7900  -17.2520 N   0  0  0  0  0  0  0  0  0  0  0  0
   22.4440  -18.1241  -15.0676 C   0  0  0  0  0  0  0  0  0  0  0  0
   23.2641  -17.8884  -14.1481 O   0  0  0  0  0  0  0  0  0  0  0  0
   18.5309  -21.1501  -11.9568 N   0  0  0  0  0  0  0  0  0  0  0  0
   19.6574  -20.2320  -11.8480 C   0  0  0  0  0  0  0  0  0  0  0  0
   20.1547  -20.1804  -10.7189 O   0  0  0  0  0  0  0  0  0  0  0  0
   20.0625  -19.5035  -13.0280 C   0  0  0  0  0  0  0  0  0  0  0  0
   21.3869  -19.9114  -13.6055 C   0  0  2  0  0  0  0  0  0  0  0  0
   21.4455  -19.0943  -14.8807 N   0  0  0  0  0  0  0  0  0  0  0  0
   21.4910  -21.3101  -14.0230 C   0  0  0  0  0  0  0  0  0  0  0  0
   22.3456  -22.0321  -13.3687 O   0  0  0  0  0  0  0  0  0  0  0  0
   22.2648  -25.6343  -12.3425 C   0  0  0  0  0  0  0  0  0  0  0  0
   21.0322  -26.6483  -13.2220 S   0  0  0  0  0  0  0  0  0  0  0  0
   20.2865  -25.7197  -14.5281 C   0  0  0  0  0  0  0  0  0  0  0  0
   20.2432  -24.2460  -14.5097 C   0  0  0  0  0  0  0  0  0  0  0  0
   21.1547  -23.4354  -15.3338 C   0  0  2  0  0  0  0  0  0  0  0  0
   20.8139  -22.0014  -15.0177 N   0  0  0  0  0  0  0  0  0  0  0  0
   20.6937  -23.4402  -16.7988 C   0  0  0  0  0  0  0  0  0  0  0  0
   20.1806  -22.3671  -17.2724 O   0  0  0  0  0  0  0  0  0  0  0  0
   20.7728  -24.4843  -17.6518 O   0  0  0  0  0  0  0  0  0  0  0  0
  2  3  1  0
  2  1  1  0
  3  5  1  0
  3  4  1  6
  5  7  1  0
  5  6  1  6
  7  8  2  0
 10  9  1  0
 11 10  2  0
 12 10  1  0
 13 12  1  6
 14 13  1  0
 14  7  1  0
 15 16  2  0
 15 13  1  0
 17 18  1  0
 19 20  1  0
 19 18  1  0
 21 20  1  1
 21 22  1  0
 21 23  1  0
 22 15  1  0
 23 24  2  0
 23 25  1  0
M  END
$$$$
