INM.pdb
     RDKit          3D

 25 24  0  0  1  0  0  0  0  0999 V2000
   25.9304  -13.9461  -15.3373 C   0  0  0  0  0  0  0  0  0  0  0  0
   26.2892  -15.2763  -15.9034 C   0  0  0  0  0  0  0  0  0  0  0  0
   26.0845  -16.4060  -14.9533 C   0  0  2  0  0  0  0  0  0  0  0  0
   26.9335  -16.1727  -13.7305 C   0  0  0  0  0  0  0  0  0  0  0  0
   26.3302  -17.7418  -15.5970 C   0  0  2  0  0  0  0  0  0  0  0  0
   25.6278  -17.8329  -16.8502 N   0  0  0  0  0  0  0  0  0  0  0  0
   25.9872  -18.8696  -14.7085 C   0  0  0  0  0  0  0  0  0  0  0  0
   24.7877  -19.1035  -14.4256 O   0  0  0  0  0  0  0  0  0  0  0  0
   26.3614  -21.8386  -15.8714 N   0  0  0  0  0  0  0  0  0  0  0  0
   27.4240  -22.4277  -15.0666 C   0  0  0  0  0  0  0  0  0  0  0  0
   28.0287  -23.3457  -15.6292 O   0  0  0  0  0  0  0  0  0  0  0  0
   27.6533  -21.8972  -13.7425 C   0  0  0  0  0  0  0  0  0  0  0  0
   26.6625  -20.8645  -13.2892 C   0  0  2  0  0  0  0  0  0  0  0  0
   27.0012  -19.6840  -14.1775 N   0  0  0  0  0  0  0  0  0  0  0  0
   26.8280  -20.3896  -11.9149 C   0  0  0  0  0  0  0  0  0  0  0  0
   28.0071  -19.9469  -11.6090 O   0  0  0  0  0  0  0  0  0  0  0  0
   28.3691  -19.0657   -4.7712 C   0  0  0  0  0  0  0  0  0  0  0  0
   28.0474  -18.5793   -6.4977 S   0  0  0  0  0  0  0  0  0  0  0  0
   27.1803  -19.8624   -7.3499 C   0  0  0  0  0  0  0  0  0  0  0  0
   26.9737  -19.8265   -8.8093 C   0  0  0  0  0  0  0  0  0  0  0  0
   26.2544  -20.8996   -9.5150 C   0  0  2  0  0  0  0  0  0  0  0  0
   25.9162  -20.3327  -10.8702 N   0  0  0  0  0  0  0  0  0  0  0  0
   24.8209  -21.0220   -8.9776 C   0  0  0  0  0  0  0  0  0  0  0  0
   23.8689  -20.5409   -9.6857 O   0  0  0  0  0  0  0  0  0  0  0  0
   24.4581  -21.5930   -7.8088 O   0  0  0  0  0  0  0  0  0  0  0  0
  2  3  1  0
  2  1  1  0
  3  5  1  0
  3  4  1  1
  5  7  1  0
  5  6  1  6
  7  8  2  0
 10  9  1  0
 11 10  2  0
 12 10  1  0
 13 12  1  6
 14 13  1  0
 14  7  1  0
 15 16  2  0
 15 13  1  0
 17 18  1  0
 19 20  1  0
 19 18  1  0
 21 20  1  1
 21 22  1  0
 21 23  1  0
 22 15  1  0
 23 24  2  0
 23 25  1  0
M  END
$$$$
