INM.pdb
     RDKit          3D

 25 24  0  0  1  0  0  0  0  0999 V2000
   28.9588  -16.9411  -17.0198 C   0  0  0  0  0  0  0  0  0  0  0  0
   27.7895  -17.8616  -17.0856 C   0  0  0  0  0  0  0  0  0  0  0  0
   27.0326  -17.9600  -15.8056 C   0  0  2  0  0  0  0  0  0  0  0  0
   27.9822  -18.3689  -14.7095 C   0  0  0  0  0  0  0  0  0  0  0  0
   25.8377  -18.8645  -15.9199 C   0  0  2  0  0  0  0  0  0  0  0  0
   25.0161  -18.4737  -17.0354 N   0  0  0  0  0  0  0  0  0  0  0  0
   25.0517  -18.9240  -14.6718 C   0  0  0  0  0  0  0  0  0  0  0  0
   24.3207  -17.9588  -14.3437 O   0  0  0  0  0  0  0  0  0  0  0  0
   21.1863  -21.0639  -14.5295 N   0  0  0  0  0  0  0  0  0  0  0  0
   21.8991  -20.6055  -13.3440 C   0  0  0  0  0  0  0  0  0  0  0  0
   21.2861  -19.7587  -12.6866 O   0  0  0  0  0  0  0  0  0  0  0  0
   23.2012  -21.1677  -13.0687 C   0  0  0  0  0  0  0  0  0  0  0  0
   24.2396  -20.1808  -12.6198 C   0  0  2  0  0  0  0  0  0  0  0  0
   25.1191  -20.0601  -13.8483 N   0  0  0  0  0  0  0  0  0  0  0  0
   25.1198  -20.6350  -11.5424 C   0  0  0  0  0  0  0  0  0  0  0  0
   25.9922  -21.5362  -11.8687 O   0  0  0  0  0  0  0  0  0  0  0  0
   28.5378  -17.6263   -7.1733 C   0  0  0  0  0  0  0  0  0  0  0  0
   28.2581  -19.1435   -6.2033 S   0  0  0  0  0  0  0  0  0  0  0  0
   27.4412  -20.3640   -7.1868 C   0  0  0  0  0  0  0  0  0  0  0  0
   26.7087  -20.0107   -8.4167 C   0  0  0  0  0  0  0  0  0  0  0  0
   26.0041  -21.0265   -9.2159 C   0  0  2  0  0  0  0  0  0  0  0  0
   25.1760  -20.2525  -10.2096 N   0  0  0  0  0  0  0  0  0  0  0  0
   24.8467  -21.6308   -8.4072 C   0  0  0  0  0  0  0  0  0  0  0  0
   23.6849  -21.1083   -8.5355 O   0  0  0  0  0  0  0  0  0  0  0  0
   24.9346  -22.6748   -7.5550 O   0  0  0  0  0  0  0  0  0  0  0  0
  2  3  1  0
  2  1  1  0
  3  5  1  0
  3  4  1  1
  5  7  1  0
  5  6  1  6
  7  8  2  0
 10  9  1  0
 11 10  2  0
 12 10  1  0
 13 12  1  6
 14 13  1  0
 14  7  1  0
 15 16  2  0
 15 13  1  0
 17 18  1  0
 19 20  1  0
 19 18  1  0
 21 20  1  1
 21 22  1  0
 21 23  1  0
 22 15  1  0
 23 24  2  0
 23 25  1  0
M  END
$$$$
