INM.pdb
     RDKit          3D

 25 24  0  0  1  0  0  0  0  0999 V2000
   20.6377  -18.8296  -16.7165 C   0  0  0  0  0  0  0  0  0  0  0  0
   21.0781  -19.2053  -15.3440 C   0  0  0  0  0  0  0  0  0  0  0  0
   22.4428  -19.8022  -15.2958 C   0  0  2  0  0  0  0  0  0  0  0  0
   22.4659  -21.0332  -16.1644 C   0  0  0  0  0  0  0  0  0  0  0  0
   22.8993  -20.0640  -13.8879 C   0  0  2  0  0  0  0  0  0  0  0  0
   22.7874  -18.8693  -13.0926 N   0  0  0  0  0  0  0  0  0  0  0  0
   24.2662  -20.6185  -13.8303 C   0  0  0  0  0  0  0  0  0  0  0  0
   24.5256  -21.7088  -14.3938 O   0  0  0  0  0  0  0  0  0  0  0  0
   27.4051  -20.5002  -15.6445 N   0  0  0  0  0  0  0  0  0  0  0  0
   27.8995  -19.4136  -14.8087 C   0  0  0  0  0  0  0  0  0  0  0  0
   28.5784  -18.5814  -15.4182 O   0  0  0  0  0  0  0  0  0  0  0  0
   27.5575  -19.4202  -13.4051 C   0  0  0  0  0  0  0  0  0  0  0  0
   26.6559  -20.5404  -12.9740 C   0  0  2  0  0  0  0  0  0  0  0  0
   25.2800  -19.9283  -13.1453 N   0  0  0  0  0  0  0  0  0  0  0  0
   26.7501  -20.9213  -11.5641 C   0  0  0  0  0  0  0  0  0  0  0  0
   27.1426  -22.1346  -11.3324 O   0  0  0  0  0  0  0  0  0  0  0  0
   28.5460  -19.3988   -4.0842 C   0  0  0  0  0  0  0  0  0  0  0  0
   28.2809  -18.7609   -5.7706 S   0  0  0  0  0  0  0  0  0  0  0  0
   27.4703  -19.9730   -6.7696 C   0  0  0  0  0  0  0  0  0  0  0  0
   27.2886  -19.7908   -8.2213 C   0  0  0  0  0  0  0  0  0  0  0  0
   26.6201  -20.8071   -9.0505 C   0  0  2  0  0  0  0  0  0  0  0  0
   26.4862  -20.1856  -10.4173 N   0  0  0  0  0  0  0  0  0  0  0  0
   25.1250  -20.8751   -8.7061 C   0  0  0  0  0  0  0  0  0  0  0  0
   24.7829  -21.4609   -7.6203 O   0  0  0  0  0  0  0  0  0  0  0  0
   24.1159  -20.3733   -9.4503 O   0  0  0  0  0  0  0  0  0  0  0  0
  2  3  1  0
  2  1  1  0
  3  5  1  0
  3  4  1  6
  5  7  1  0
  5  6  1  1
  7  8  2  0
 10  9  1  0
 11 10  2  0
 12 10  1  0
 13 12  1  1
 14 13  1  0
 14  7  1  0
 15 16  2  0
 15 13  1  0
 17 18  1  0
 19 20  1  0
 19 18  1  0
 21 20  1  1
 21 22  1  0
 21 23  1  0
 22 15  1  0
 23 24  2  0
 23 25  1  0
M  END
$$$$
