INM.pdb
     RDKit          3D

 25 24  0  0  1  0  0  0  0  0999 V2000
   15.8490  -14.2992  -19.1551 C   0  0  0  0  0  0  0  0  0  0  0  0
   16.7828  -13.8653  -18.0787 C   0  0  0  0  0  0  0  0  0  0  0  0
   18.2105  -13.8277  -18.5042 C   0  0  2  0  0  0  0  0  0  0  0  0
   18.6245  -15.2094  -18.9396 C   0  0  0  0  0  0  0  0  0  0  0  0
   19.1048  -13.2500  -17.4433 C   0  0  2  0  0  0  0  0  0  0  0  0
   18.8655  -13.8942  -16.1784 N   0  0  0  0  0  0  0  0  0  0  0  0
   18.9740  -11.7840  -17.3298 C   0  0  0  0  0  0  0  0  0  0  0  0
   19.2458  -11.0516  -18.3112 O   0  0  0  0  0  0  0  0  0  0  0  0
   16.3256   -8.4507  -17.3778 N   0  0  0  0  0  0  0  0  0  0  0  0
   16.0173   -8.9323  -16.0374 C   0  0  0  0  0  0  0  0  0  0  0  0
   14.8533   -8.7201  -15.6838 O   0  0  0  0  0  0  0  0  0  0  0  0
   17.0654   -9.5850  -15.2872 C   0  0  0  0  0  0  0  0  0  0  0  0
   18.3811   -9.7028  -16.0003 C   0  0  2  0  0  0  0  0  0  0  0  0
   18.5450  -11.2045  -16.1240 N   0  0  0  0  0  0  0  0  0  0  0  0
   19.5494   -9.2345  -15.2537 C   0  0  0  0  0  0  0  0  0  0  0  0
   19.9275   -9.9861  -14.2679 O   0  0  0  0  0  0  0  0  0  0  0  0
   26.6066  -10.2959  -15.0707 C   0  0  0  0  0  0  0  0  0  0  0  0
   24.8021  -10.5239  -15.1837 S   0  0  0  0  0  0  0  0  0  0  0  0
   24.0085   -8.9919  -15.5675 C   0  0  0  0  0  0  0  0  0  0  0  0
   22.5469   -8.8919  -15.7334 C   0  0  0  0  0  0  0  0  0  0  0  0
   21.7276   -8.0286  -14.8669 C   0  0  2  0  0  0  0  0  0  0  0  0
   20.3317   -8.1021  -15.4312 N   0  0  0  0  0  0  0  0  0  0  0  0
   22.0000   -6.5498  -15.1789 C   0  0  0  0  0  0  0  0  0  0  0  0
   21.5339   -6.0684  -16.2698 O   0  0  0  0  0  0  0  0  0  0  0  0
   22.6991   -5.6916  -14.4051 O   0  0  0  0  0  0  0  0  0  0  0  0
  2  3  1  0
  2  1  1  0
  3  5  1  0
  3  4  1  1
  5  7  1  0
  5  6  1  1
  7  8  2  0
 10  9  1  0
 11 10  2  0
 12 10  1  0
 13 12  1  1
 14 13  1  0
 14  7  1  0
 15 16  2  0
 15 13  1  0
 17 18  1  0
 19 20  1  0
 19 18  1  0
 21 20  1  6
 21 22  1  0
 21 23  1  0
 22 15  1  0
 23 24  2  0
 23 25  1  0
M  END
$$$$
