INM.pdb
     RDKit          3D

 25 24  0  0  1  0  0  0  0  0999 V2000
   27.4944  -15.2746  -17.1730 C   0  0  0  0  0  0  0  0  0  0  0  0
   26.5761  -15.7787  -16.1140 C   0  0  0  0  0  0  0  0  0  0  0  0
   25.8596  -17.0304  -16.4894 C   0  0  2  0  0  0  0  0  0  0  0  0
   25.2230  -16.8393  -17.8416 C   0  0  0  0  0  0  0  0  0  0  0  0
   24.8830  -17.4650  -15.4328 C   0  0  2  0  0  0  0  0  0  0  0  0
   25.5188  -17.4938  -14.1416 N   0  0  0  0  0  0  0  0  0  0  0  0
   24.2502  -18.7614  -15.7462 C   0  0  0  0  0  0  0  0  0  0  0  0
   23.4803  -18.8623  -16.7314 O   0  0  0  0  0  0  0  0  0  0  0  0
   25.5933  -24.5949  -15.0238 N   0  0  0  0  0  0  0  0  0  0  0  0
   24.5944  -23.5692  -15.2952 C   0  0  0  0  0  0  0  0  0  0  0  0
   23.5321  -24.0103  -15.7444 O   0  0  0  0  0  0  0  0  0  0  0  0
   24.9357  -22.1924  -15.0207 C   0  0  0  0  0  0  0  0  0  0  0  0
   23.8197  -21.2077  -15.2170 C   0  0  2  0  0  0  0  0  0  0  0  0
   24.5077  -19.8852  -14.9435 N   0  0  0  0  0  0  0  0  0  0  0  0
   22.7232  -21.2939  -14.2518 C   0  0  0  0  0  0  0  0  0  0  0  0
   22.0908  -22.4246  -14.2157 O   0  0  0  0  0  0  0  0  0  0  0  0
   25.4326  -20.8811   -8.8900 C   0  0  0  0  0  0  0  0  0  0  0  0
   23.7210  -20.2779   -9.0558 S   0  0  0  0  0  0  0  0  0  0  0  0
   23.0402  -20.7699  -10.6110 C   0  0  0  0  0  0  0  0  0  0  0  0
   21.6995  -20.3375  -11.0462 C   0  0  0  0  0  0  0  0  0  0  0  0
   21.1600  -20.7024  -12.3664 C   0  0  2  0  0  0  0  0  0  0  0  0
   22.2430  -20.3507  -13.3541 N   0  0  0  0  0  0  0  0  0  0  0  0
   20.1205  -19.6673  -12.8208 C   0  0  0  0  0  0  0  0  0  0  0  0
   20.5012  -18.7416  -13.6192 O   0  0  0  0  0  0  0  0  0  0  0  0
   18.8218  -19.6327  -12.4519 O   0  0  0  0  0  0  0  0  0  0  0  0
  2  3  1  0
  2  1  1  0
  3  5  1  0
  3  4  1  6
  5  7  1  0
  5  6  1  1
  7  8  2  0
 10  9  1  0
 11 10  2  0
 12 10  1  0
 13 12  1  1
 14 13  1  0
 14  7  1  0
 15 16  2  0
 15 13  1  0
 17 18  1  0
 19 20  1  0
 19 18  1  0
 21 20  1  1
 21 22  1  0
 21 23  1  0
 22 15  1  0
 23 24  2  0
 23 25  1  0
M  END
$$$$
