QHY.pdb
     RDKit          3D

 32 33  0  0  1  0  0  0  0  0999 V2000
    7.9452  -12.6083   16.0977 N   0  0  0  0  0  0  0  0  0  0  0  0
    7.5287  -13.9849   15.9333 C   0  0  0  0  0  0  0  0  0  0  0  0
    7.0700  -14.2810   14.8088 O   0  0  0  0  0  0  0  0  0  0  0  0
    7.6829  -14.8908   17.0771 C   0  0  0  0  0  0  0  0  0  0  0  0
    8.2147  -14.3018   18.3253 C   0  0  0  0  0  0  0  0  0  0  0  0
    9.4626  -14.9427   18.8100 C   0  0  2  0  0  0  0  0  0  0  0  0
   10.0865  -15.8287   17.8937 N   0  0  0  0  0  0  0  0  0  0  0  0
    9.2389  -15.6782   20.1030 C   0  0  0  0  0  0  0  0  0  0  0  0
    8.2592  -15.4077   20.8427 O   0  0  0  0  0  0  0  0  0  0  0  0
   10.1243  -16.6968   20.5274 N   0  0  0  0  0  0  0  0  0  0  0  0
   10.0948  -17.3123   21.8167 C   0  0  1  0  0  0  0  0  0  0  0  0
   10.9736  -18.5402   21.8618 C   0  0  0  0  0  0  0  0  0  0  0  0
   10.4208  -19.6845   21.0986 C   0  0  0  0  0  0  0  0  0  0  0  0
    9.1021  -20.1349   21.0250 C   0  0  0  0  0  0  0  0  0  0  0  0
    9.0244  -21.1913   20.2271 N   0  0  0  0  0  0  0  0  0  0  0  0
   10.2705  -21.4541   19.7656 C   0  0  0  0  0  0  0  0  0  0  0  0
   11.1086  -20.5340   20.3012 N   0  0  0  0  0  0  0  0  0  0  0  0
   10.4849  -16.3998   22.9199 C   0  0  0  0  0  0  0  0  0  0  0  0
   11.0993  -15.3439   22.6217 O   0  0  0  0  0  0  0  0  0  0  0  0
    6.0398  -11.4102   28.3279 O   0  0  0  0  0  0  0  0  0  0  0  0
    6.6342  -12.2871   27.4149 C   0  0  0  0  0  0  0  0  0  0  0  0
    5.8762  -13.2484   26.7794 C   0  0  0  0  0  0  0  0  0  0  0  0
    6.4441  -14.1125   25.8847 C   0  0  0  0  0  0  0  0  0  0  0  0
    7.7917  -14.0781   25.5663 C   0  0  0  0  0  0  0  0  0  0  0  0
    8.4099  -15.0222   24.6061 C   0  0  0  0  0  0  0  0  0  0  0  0
    9.6453  -15.6324   25.1883 C   0  0  2  0  0  0  0  0  0  0  0  0
   10.2080  -16.6472   24.2799 N   0  0  0  0  0  0  0  0  0  0  0  0
    9.4088  -16.3252   26.4708 C   0  0  0  0  0  0  0  0  0  0  0  0
    9.5855  -15.7447   27.5799 O   0  0  0  0  0  0  0  0  0  0  0  0
    8.5465  -13.0995   26.2170 C   0  0  0  0  0  0  0  0  0  0  0  0
    7.9758  -12.2258   27.1203 C   0  0  0  0  0  0  0  0  0  0  0  0
    8.9773  -17.6499   26.5762 O   0  0  0  0  0  0  0  0  0  0  0  0
  1  2  1  0
  2  3  2  0
  4  5  1  0
  4  2  1  0
  6  7  1  6
  6  5  1  0
  8  6  1  0
  8  9  2  0
 10  8  1  0
 11 18  1  0
 11 10  1  0
 11 12  1  6
 13 14  2  0
 13 12  1  0
 15 14  1  0
 16 17  2  0
 16 15  1  0
 17 13  1  0
 18 19  2  0
 20 21  1  0
 21 22  2  0
 21 31  1  0
 22 23  1  0
 23 24  2  0
 24 25  1  0
 26 25  1  6
 26 28  1  0
 27 18  1  0
 27 26  1  0
 28 29  2  0
 28 32  1  0
 30 24  1  0
 31 30  2  0
M  END
$$$$
