QHY.pdb
     RDKit          3D

 32 33  0  0  1  0  0  0  0  0999 V2000
    7.4588  -12.3594   17.2084 N   0  0  0  0  0  0  0  0  0  0  0  0
    8.0490  -13.5273   16.5894 C   0  0  0  0  0  0  0  0  0  0  0  0
    8.0825  -13.5190   15.3399 O   0  0  0  0  0  0  0  0  0  0  0  0
    8.5476  -14.5922   17.4670 C   0  0  0  0  0  0  0  0  0  0  0  0
    9.8628  -14.3672   18.1050 C   0  0  0  0  0  0  0  0  0  0  0  0
   10.2759  -15.4503   19.0320 C   0  0  2  0  0  0  0  0  0  0  0  0
   10.3591  -16.7446   18.4560 N   0  0  0  0  0  0  0  0  0  0  0  0
    9.3731  -15.5230   20.2329 C   0  0  0  0  0  0  0  0  0  0  0  0
    9.0586  -14.4874   20.8724 O   0  0  0  0  0  0  0  0  0  0  0  0
    8.8500  -16.7589   20.6808 N   0  0  0  0  0  0  0  0  0  0  0  0
    8.0692  -16.9281   21.8656 C   0  0  1  0  0  0  0  0  0  0  0  0
    7.3874  -18.2759   21.8888 C   0  0  0  0  0  0  0  0  0  0  0  0
    6.1961  -18.3450   21.0093 C   0  0  0  0  0  0  0  0  0  0  0  0
    5.6060  -17.3335   20.2504 C   0  0  0  0  0  0  0  0  0  0  0  0
    4.5539  -17.8078   19.5970 N   0  0  0  0  0  0  0  0  0  0  0  0
    4.4316  -19.1208   19.9067 C   0  0  0  0  0  0  0  0  0  0  0  0
    5.4327  -19.4348   20.7640 N   0  0  0  0  0  0  0  0  0  0  0  0
    8.8461  -16.7594   23.1184 C   0  0  0  0  0  0  0  0  0  0  0  0
   10.0469  -17.1332   23.1218 O   0  0  0  0  0  0  0  0  0  0  0  0
   11.1397  -14.9634   31.4947 O   0  0  0  0  0  0  0  0  0  0  0  0
   10.4641  -15.0307   30.2721 C   0  0  0  0  0  0  0  0  0  0  0  0
    9.8223  -13.9178   29.7700 C   0  0  0  0  0  0  0  0  0  0  0  0
    9.1576  -13.9692   28.5762 C   0  0  0  0  0  0  0  0  0  0  0  0
    9.0876  -15.1210   27.8100 C   0  0  0  0  0  0  0  0  0  0  0  0
    8.3571  -15.1805   26.5223 C   0  0  0  0  0  0  0  0  0  0  0  0
    9.1169  -15.9934   25.5224 C   0  0  2  0  0  0  0  0  0  0  0  0
    8.3178  -16.2064   24.3027 N   0  0  0  0  0  0  0  0  0  0  0  0
    9.4740  -17.3402   26.0115 C   0  0  0  0  0  0  0  0  0  0  0  0
   10.6294  -17.5994   26.4545 O   0  0  0  0  0  0  0  0  0  0  0  0
    9.7423  -16.2395   28.3305 C   0  0  0  0  0  0  0  0  0  0  0  0
   10.4142  -16.1904   29.5352 C   0  0  0  0  0  0  0  0  0  0  0  0
    8.5925  -18.4240   26.0322 O   0  0  0  0  0  0  0  0  0  0  0  0
  1  2  1  0
  2  3  2  0
  4  5  1  0
  4  2  1  0
  6  7  1  6
  6  5  1  0
  8  6  1  0
  8  9  2  0
 10  8  1  0
 11 18  1  0
 11 10  1  0
 11 12  1  1
 13 14  2  0
 13 12  1  0
 15 14  1  0
 16 17  2  0
 16 15  1  0
 17 13  1  0
 18 19  2  0
 20 21  1  0
 21 22  2  0
 21 31  1  0
 22 23  1  0
 23 24  2  0
 24 25  1  0
 26 25  1  1
 26 28  1  0
 27 18  1  0
 27 26  1  0
 28 29  2  0
 28 32  1  0
 30 24  1  0
 31 30  2  0
M  END
$$$$
