QHY.pdb
     RDKit          3D

 32 33  0  0  1  0  0  0  0  0999 V2000
   15.8845  -13.0070   18.1176 N   0  0  0  0  0  0  0  0  0  0  0  0
   15.9270  -14.2794   18.8065 C   0  0  0  0  0  0  0  0  0  0  0  0
   16.8316  -14.4028   19.6602 O   0  0  0  0  0  0  0  0  0  0  0  0
   14.9224  -15.2876   18.4500 C   0  0  0  0  0  0  0  0  0  0  0  0
   13.5099  -14.9456   18.7246 C   0  0  0  0  0  0  0  0  0  0  0  0
   12.5437  -15.9890   18.2996 C   0  0  2  0  0  0  0  0  0  0  0  0
   12.4151  -16.1634   16.8971 N   0  0  0  0  0  0  0  0  0  0  0  0
   11.1756  -15.7411   18.8738 C   0  0  0  0  0  0  0  0  0  0  0  0
   10.6071  -14.6280   18.7395 O   0  0  0  0  0  0  0  0  0  0  0  0
   10.4862  -16.7524   19.5835 N   0  0  0  0  0  0  0  0  0  0  0  0
    9.1980  -16.5906   20.1803 C   0  0  1  0  0  0  0  0  0  0  0  0
    8.3988  -17.8713   20.1226 C   0  0  0  0  0  0  0  0  0  0  0  0
    7.8677  -18.1699   18.7712 C   0  0  0  0  0  0  0  0  0  0  0  0
    8.0426  -17.4593   17.5830 C   0  0  0  0  0  0  0  0  0  0  0  0
    7.4027  -18.0639   16.5911 N   0  0  0  0  0  0  0  0  0  0  0  0
    6.8032  -19.1679   17.0974 C   0  0  0  0  0  0  0  0  0  0  0  0
    7.0919  -19.2213   18.4201 N   0  0  0  0  0  0  0  0  0  0  0  0
    9.2494  -16.1177   21.5858 C   0  0  0  0  0  0  0  0  0  0  0  0
   10.1810  -16.5416   22.3164 O   0  0  0  0  0  0  0  0  0  0  0  0
    7.4294  -12.1763   29.3126 O   0  0  0  0  0  0  0  0  0  0  0  0
    7.4299  -12.5302   27.9595 C   0  0  0  0  0  0  0  0  0  0  0  0
    8.6176  -12.7975   27.3111 C   0  0  0  0  0  0  0  0  0  0  0  0
    8.6332  -13.1443   25.9885 C   0  0  0  0  0  0  0  0  0  0  0  0
    7.4785  -13.2467   25.2303 C   0  0  0  0  0  0  0  0  0  0  0  0
    7.4959  -13.6105   23.7940 C   0  0  0  0  0  0  0  0  0  0  0  0
    8.3232  -14.8367   23.5709 C   0  0  2  0  0  0  0  0  0  0  0  0
    8.3165  -15.2231   22.1489 N   0  0  0  0  0  0  0  0  0  0  0  0
    7.8346  -16.0166   24.3123 C   0  0  0  0  0  0  0  0  0  0  0  0
    6.8422  -16.6883   23.9091 O   0  0  0  0  0  0  0  0  0  0  0  0
    6.2838  -12.9737   25.9001 C   0  0  0  0  0  0  0  0  0  0  0  0
    6.2652  -12.6236   27.2350 C   0  0  0  0  0  0  0  0  0  0  0  0
    8.4084  -16.4900   25.4950 O   0  0  0  0  0  0  0  0  0  0  0  0
  1  2  1  0
  2  3  2  0
  4  5  1  0
  4  2  1  0
  6  7  1  6
  6  5  1  0
  8  6  1  0
  8  9  2  0
 10  8  1  0
 11 18  1  0
 11 10  1  0
 11 12  1  1
 13 14  2  0
 13 12  1  0
 15 14  1  0
 16 17  2  0
 16 15  1  0
 17 13  1  0
 18 19  2  0
 20 21  1  0
 21 22  2  0
 21 31  1  0
 22 23  1  0
 23 24  2  0
 24 25  1  0
 26 25  1  6
 26 28  1  0
 27 18  1  0
 27 26  1  0
 28 29  2  0
 28 32  1  0
 30 24  1  0
 31 30  2  0
M  END
$$$$
