QHY.pdb
     RDKit          3D

 32 33  0  0  1  0  0  0  0  0999 V2000
    7.2657  -12.6077   17.7878 N   0  0  0  0  0  0  0  0  0  0  0  0
    8.6678  -12.6064   17.4280 C   0  0  0  0  0  0  0  0  0  0  0  0
    8.9744  -11.8936   16.4480 O   0  0  0  0  0  0  0  0  0  0  0  0
    9.5843  -13.4227   18.2320 C   0  0  0  0  0  0  0  0  0  0  0  0
    8.9919  -14.1704   19.3623 C   0  0  0  0  0  0  0  0  0  0  0  0
    9.9779  -14.9494   20.1522 C   0  0  2  0  0  0  0  0  0  0  0  0
   10.6069  -16.0154   19.4580 N   0  0  0  0  0  0  0  0  0  0  0  0
    9.3655  -15.4995   21.4111 C   0  0  0  0  0  0  0  0  0  0  0  0
    8.7013  -14.7644   22.1849 O   0  0  0  0  0  0  0  0  0  0  0  0
    9.5181  -16.8609   21.7642 N   0  0  0  0  0  0  0  0  0  0  0  0
    8.7473  -17.5315   22.7634 C   0  0  1  0  0  0  0  0  0  0  0  0
    8.7025  -19.0213   22.5175 C   0  0  0  0  0  0  0  0  0  0  0  0
    7.9637  -19.3898   21.2863 C   0  0  0  0  0  0  0  0  0  0  0  0
    6.6014  -19.2664   21.0104 C   0  0  0  0  0  0  0  0  0  0  0  0
    6.3412  -19.7100   19.7880 N   0  0  0  0  0  0  0  0  0  0  0  0
    7.5083  -20.1277   19.2420 C   0  0  0  0  0  0  0  0  0  0  0  0
    8.4848  -19.9289   20.1600 N   0  0  0  0  0  0  0  0  0  0  0  0
    9.2248  -17.2856   24.1466 C   0  0  0  0  0  0  0  0  0  0  0  0
   10.4587  -17.3809   24.3696 O   0  0  0  0  0  0  0  0  0  0  0  0
    7.0686  -10.7182   25.2427 O   0  0  0  0  0  0  0  0  0  0  0  0
    7.2466  -11.9983   25.7771 C   0  0  0  0  0  0  0  0  0  0  0  0
    8.4495  -12.6553   25.6228 C   0  0  0  0  0  0  0  0  0  0  0  0
    8.6374  -13.9072   26.1396 C   0  0  0  0  0  0  0  0  0  0  0  0
    7.6497  -14.5824   26.8376 C   0  0  0  0  0  0  0  0  0  0  0  0
    7.8488  -15.9439   27.3873 C   0  0  0  0  0  0  0  0  0  0  0  0
    8.8687  -16.6911   26.5878 C   0  0  2  0  0  0  0  0  0  0  0  0
    8.3777  -16.9524   25.2232 N   0  0  0  0  0  0  0  0  0  0  0  0
    9.2060  -18.0119   27.1554 C   0  0  0  0  0  0  0  0  0  0  0  0
    8.7959  -19.0846   26.6267 O   0  0  0  0  0  0  0  0  0  0  0  0
    6.4375  -13.9048   26.9863 C   0  0  0  0  0  0  0  0  0  0  0  0
    6.2452  -12.6411   26.4658 C   0  0  0  0  0  0  0  0  0  0  0  0
    9.9903  -18.1954   28.2971 O   0  0  0  0  0  0  0  0  0  0  0  0
  1  2  1  0
  2  3  2  0
  4  5  1  0
  4  2  1  0
  6  7  1  6
  6  5  1  0
  8  6  1  0
  8  9  2  0
 10  8  1  0
 11 18  1  0
 11 10  1  0
 11 12  1  6
 13 14  2  0
 13 12  1  0
 15 14  1  0
 16 17  2  0
 16 15  1  0
 17 13  1  0
 18 19  2  0
 20 21  1  0
 21 22  2  0
 21 31  1  0
 22 23  1  0
 23 24  2  0
 24 25  1  0
 26 25  1  1
 26 28  1  0
 27 18  1  0
 27 26  1  0
 28 29  2  0
 28 32  1  0
 30 24  1  0
 31 30  2  0
M  END
$$$$
