QHY.pdb
     RDKit          3D

 32 33  0  0  1  0  0  0  0  0999 V2000
    1.1977  -18.3833   21.2158 N   0  0  0  0  0  0  0  0  0  0  0  0
    1.0586  -19.7736   21.5940 C   0  0  0  0  0  0  0  0  0  0  0  0
   -0.0862  -20.2581   21.4636 O   0  0  0  0  0  0  0  0  0  0  0  0
    2.2508  -20.4753   22.0830 C   0  0  0  0  0  0  0  0  0  0  0  0
    3.5121  -19.7034   22.1119 C   0  0  0  0  0  0  0  0  0  0  0  0
    4.1265  -19.5029   20.7758 C   0  0  2  0  0  0  0  0  0  0  0  0
    4.4673  -20.6912   20.0788 N   0  0  0  0  0  0  0  0  0  0  0  0
    5.3511  -18.6330   20.8565 C   0  0  0  0  0  0  0  0  0  0  0  0
    6.4726  -19.1166   21.1541 O   0  0  0  0  0  0  0  0  0  0  0  0
    5.2791  -17.2434   20.6007 N   0  0  0  0  0  0  0  0  0  0  0  0
    6.3918  -16.3487   20.6594 C   0  0  1  0  0  0  0  0  0  0  0  0
    6.0472  -15.0009   20.0705 C   0  0  0  0  0  0  0  0  0  0  0  0
    7.2113  -14.0880   19.9763 C   0  0  0  0  0  0  0  0  0  0  0  0
    7.3240  -12.7633   20.4003 C   0  0  0  0  0  0  0  0  0  0  0  0
    8.5381  -12.3006   20.1343 N   0  0  0  0  0  0  0  0  0  0  0  0
    9.2391  -13.2954   19.5394 C   0  0  0  0  0  0  0  0  0  0  0  0
    8.4240  -14.3739   19.4488 N   0  0  0  0  0  0  0  0  0  0  0  0
    6.9257  -16.1535   22.0300 C   0  0  0  0  0  0  0  0  0  0  0  0
    6.1013  -16.0447   22.9734 O   0  0  0  0  0  0  0  0  0  0  0  0
   10.7311  -18.5255   29.3712 O   0  0  0  0  0  0  0  0  0  0  0  0
   10.1662  -18.3028   28.1113 C   0  0  0  0  0  0  0  0  0  0  0  0
    9.1264  -17.4085   27.9637 C   0  0  0  0  0  0  0  0  0  0  0  0
    8.5643  -17.1811   26.7382 C   0  0  0  0  0  0  0  0  0  0  0  0
    8.9952  -17.8230   25.5888 C   0  0  0  0  0  0  0  0  0  0  0  0
    8.3782  -17.5860   24.2626 C   0  0  0  0  0  0  0  0  0  0  0  0
    8.8382  -16.2816   23.6929 C   0  0  2  0  0  0  0  0  0  0  0  0
    8.3001  -16.0825   22.3356 N   0  0  0  0  0  0  0  0  0  0  0  0
   10.3059  -16.1830   23.5640 C   0  0  0  0  0  0  0  0  0  0  0  0
   10.9755  -15.3481   24.2370 O   0  0  0  0  0  0  0  0  0  0  0  0
   10.0486  -18.7251   25.7535 C   0  0  0  0  0  0  0  0  0  0  0  0
   10.6180  -18.9563   26.9893 C   0  0  0  0  0  0  0  0  0  0  0  0
   11.0716  -16.9823   22.7115 O   0  0  0  0  0  0  0  0  0  0  0  0
  1  2  1  0
  2  3  2  0
  4  5  1  0
  4  2  1  0
  6  7  1  1
  6  5  1  0
  8  6  1  0
  8  9  2  0
 10  8  1  0
 11 18  1  0
 11 10  1  0
 11 12  1  1
 13 14  2  0
 13 12  1  0
 15 14  1  0
 16 17  2  0
 16 15  1  0
 17 13  1  0
 18 19  2  0
 20 21  1  0
 21 22  2  0
 21 31  1  0
 22 23  1  0
 23 24  2  0
 24 25  1  0
 26 25  1  6
 26 28  1  0
 27 18  1  0
 27 26  1  0
 28 29  2  0
 28 32  1  0
 30 24  1  0
 31 30  2  0
M  END
$$$$
