QHY.pdb
     RDKit          3D

 32 33  0  0  1  0  0  0  0  0999 V2000
    2.5104  -19.2168   21.9005 N   0  0  0  0  0  0  0  0  0  0  0  0
    3.0152  -19.0223   20.5579 C   0  0  0  0  0  0  0  0  0  0  0  0
    2.1671  -19.1059   19.6434 O   0  0  0  0  0  0  0  0  0  0  0  0
    4.4471  -18.7468   20.3952 C   0  0  0  0  0  0  0  0  0  0  0  0
    5.2675  -18.7408   21.6259 C   0  0  0  0  0  0  0  0  0  0  0  0
    6.4565  -17.8555   21.5531 C   0  0  2  0  0  0  0  0  0  0  0  0
    7.4760  -18.1275   22.5021 N   0  0  0  0  0  0  0  0  0  0  0  0
    6.0731  -16.4057   21.6717 C   0  0  0  0  0  0  0  0  0  0  0  0
    4.8701  -16.0596   21.7863 O   0  0  0  0  0  0  0  0  0  0  0  0
    7.0541  -15.3864   21.6574 N   0  0  0  0  0  0  0  0  0  0  0  0
    8.4635  -15.6158   21.7108 C   0  0  1  0  0  0  0  0  0  0  0  0
    9.2219  -14.5739   20.9225 C   0  0  0  0  0  0  0  0  0  0  0  0
    8.6270  -14.2974   19.5932 C   0  0  0  0  0  0  0  0  0  0  0  0
    7.9672  -13.1510   19.1486 C   0  0  0  0  0  0  0  0  0  0  0  0
    7.5877  -13.3030   17.8870 N   0  0  0  0  0  0  0  0  0  0  0  0
    7.9840  -14.5330   17.4808 C   0  0  0  0  0  0  0  0  0  0  0  0
    8.6127  -15.1265   18.5240 N   0  0  0  0  0  0  0  0  0  0  0  0
    9.0058  -15.6647   23.0911 C   0  0  0  0  0  0  0  0  0  0  0  0
   10.2460  -15.5218   23.2423 O   0  0  0  0  0  0  0  0  0  0  0  0
    5.4552  -10.4719   26.2548 O   0  0  0  0  0  0  0  0  0  0  0  0
    5.9896  -11.7619   26.3342 C   0  0  0  0  0  0  0  0  0  0  0  0
    6.8764  -12.0866   27.3395 C   0  0  0  0  0  0  0  0  0  0  0  0
    7.4070  -13.3436   27.4291 C   0  0  0  0  0  0  0  0  0  0  0  0
    7.0936  -14.3516   26.5322 C   0  0  0  0  0  0  0  0  0  0  0  0
    7.6777  -15.7103   26.6217 C   0  0  0  0  0  0  0  0  0  0  0  0
    8.7634  -15.8851   25.6075 C   0  0  2  0  0  0  0  0  0  0  0  0
    8.2136  -15.8621   24.2405 N   0  0  0  0  0  0  0  0  0  0  0  0
    9.4814  -17.1693   25.7325 C   0  0  0  0  0  0  0  0  0  0  0  0
   10.1608  -17.4513   26.7608 O   0  0  0  0  0  0  0  0  0  0  0  0
    6.1944  -14.0084   25.5202 C   0  0  0  0  0  0  0  0  0  0  0  0
    5.6571  -12.7405   25.4275 C   0  0  0  0  0  0  0  0  0  0  0  0
    9.4759  -18.1670   24.7542 O   0  0  0  0  0  0  0  0  0  0  0  0
  1  2  1  0
  2  3  2  0
  4  5  1  0
  4  2  1  0
  6  7  1  1
  6  5  1  0
  8  6  1  0
  8  9  2  0
 10  8  1  0
 11 18  1  0
 11 10  1  0
 11 12  1  6
 13 14  2  0
 13 12  1  0
 15 14  1  0
 16 17  2  0
 16 15  1  0
 17 13  1  0
 18 19  2  0
 20 21  1  0
 21 22  2  0
 21 31  1  0
 22 23  1  0
 23 24  2  0
 24 25  1  0
 26 25  1  1
 26 28  1  0
 27 18  1  0
 27 26  1  0
 28 29  2  0
 28 32  1  0
 30 24  1  0
 31 30  2  0
M  END
$$$$
