QHY.pdb
     RDKit          3D

 32 33  0  0  1  0  0  0  0  0999 V2000
    9.8426  -14.1977   15.7447 N   0  0  0  0  0  0  0  0  0  0  0  0
    8.5327  -13.6223   15.5251 C   0  0  0  0  0  0  0  0  0  0  0  0
    8.3059  -13.2203   14.3635 O   0  0  0  0  0  0  0  0  0  0  0  0
    7.6069  -13.5673   16.6621 C   0  0  0  0  0  0  0  0  0  0  0  0
    8.0537  -14.2127   17.9156 C   0  0  0  0  0  0  0  0  0  0  0  0
    8.3449  -15.6614   17.7769 C   0  0  2  0  0  0  0  0  0  0  0  0
    7.4705  -16.3779   16.9190 N   0  0  0  0  0  0  0  0  0  0  0  0
    8.3669  -16.3504   19.1139 C   0  0  0  0  0  0  0  0  0  0  0  0
    7.3001  -16.6585   19.7031 O   0  0  0  0  0  0  0  0  0  0  0  0
    9.5886  -16.6727   19.7504 N   0  0  0  0  0  0  0  0  0  0  0  0
    9.7013  -17.4501   20.9441 C   0  0  1  0  0  0  0  0  0  0  0  0
   10.6718  -18.5942   20.7674 C   0  0  0  0  0  0  0  0  0  0  0  0
   10.0616  -19.7874   20.1339 C   0  0  0  0  0  0  0  0  0  0  0  0
    8.7208  -20.0333   19.8355 C   0  0  0  0  0  0  0  0  0  0  0  0
    8.5908  -21.2238   19.2658 N   0  0  0  0  0  0  0  0  0  0  0  0
    9.8238  -21.7777   19.1782 C   0  0  0  0  0  0  0  0  0  0  0  0
   10.7072  -20.8976   19.7080 N   0  0  0  0  0  0  0  0  0  0  0  0
   10.1014  -16.6582   22.1334 C   0  0  0  0  0  0  0  0  0  0  0  0
   11.0761  -15.8722   22.0172 O   0  0  0  0  0  0  0  0  0  0  0  0
   11.0285  -13.9392   30.5098 O   0  0  0  0  0  0  0  0  0  0  0  0
   10.4975  -14.4419   29.3176 C   0  0  0  0  0  0  0  0  0  0  0  0
   10.5215  -15.7972   29.0625 C   0  0  0  0  0  0  0  0  0  0  0  0
   10.0063  -16.3026   27.9012 C   0  0  0  0  0  0  0  0  0  0  0  0
    9.4386  -15.5001   26.9252 C   0  0  0  0  0  0  0  0  0  0  0  0
    8.8912  -16.0460   25.6612 C   0  0  0  0  0  0  0  0  0  0  0  0
    9.9315  -16.0307   24.5864 C   0  0  2  0  0  0  0  0  0  0  0  0
    9.4543  -16.7358   23.3836 N   0  0  0  0  0  0  0  0  0  0  0  0
   11.1875  -16.7022   24.9764 C   0  0  0  0  0  0  0  0  0  0  0  0
   11.2925  -17.9621   24.9778 O   0  0  0  0  0  0  0  0  0  0  0  0
    9.4209  -14.1304   27.1974 C   0  0  0  0  0  0  0  0  0  0  0  0
    9.9400  -13.6176   28.3689 C   0  0  0  0  0  0  0  0  0  0  0  0
   12.3466  -16.0271   25.3675 O   0  0  0  0  0  0  0  0  0  0  0  0
  1  2  1  0
  2  3  2  0
  4  5  1  0
  4  2  1  0
  6  7  1  6
  6  5  1  0
  8  6  1  0
  8  9  2  0
 10  8  1  0
 11 18  1  0
 11 10  1  0
 11 12  1  6
 13 14  2  0
 13 12  1  0
 15 14  1  0
 16 17  2  0
 16 15  1  0
 17 13  1  0
 18 19  2  0
 20 21  1  0
 21 22  2  0
 21 31  1  0
 22 23  1  0
 23 24  2  0
 24 25  1  0
 26 25  1  1
 26 28  1  0
 27 18  1  0
 27 26  1  0
 28 29  2  0
 28 32  1  0
 30 24  1  0
 31 30  2  0
M  END
$$$$
