QHY.pdb
     RDKit          3D

 32 33  0  0  1  0  0  0  0  0999 V2000
   13.0596  -18.3264   17.4045 N   0  0  0  0  0  0  0  0  0  0  0  0
   11.8783  -17.9929   16.6373 C   0  0  0  0  0  0  0  0  0  0  0  0
   12.0175  -18.0077   15.3952 O   0  0  0  0  0  0  0  0  0  0  0  0
   10.6482  -17.6773   17.3722 C   0  0  0  0  0  0  0  0  0  0  0  0
   10.1806  -18.6837   18.3501 C   0  0  0  0  0  0  0  0  0  0  0  0
    8.7283  -18.9778   18.2643 C   0  0  2  0  0  0  0  0  0  0  0  0
    8.0802  -18.5040   17.0942 N   0  0  0  0  0  0  0  0  0  0  0  0
    7.9870  -18.4517   19.4628 C   0  0  0  0  0  0  0  0  0  0  0  0
    7.2471  -17.4392   19.3755 O   0  0  0  0  0  0  0  0  0  0  0  0
    8.0997  -19.0792   20.7258 N   0  0  0  0  0  0  0  0  0  0  0  0
    7.4053  -18.6633   21.9034 C   0  0  1  0  0  0  0  0  0  0  0  0
    6.9692  -19.8476   22.7337 C   0  0  0  0  0  0  0  0  0  0  0  0
    5.7107  -20.4672   22.2546 C   0  0  0  0  0  0  0  0  0  0  0  0
    4.8831  -20.0720   21.2029 C   0  0  0  0  0  0  0  0  0  0  0  0
    3.8517  -20.8991   21.0979 N   0  0  0  0  0  0  0  0  0  0  0  0
    3.9771  -21.8416   22.0627 C   0  0  0  0  0  0  0  0  0  0  0  0
    5.1078  -21.5690   22.7578 N   0  0  0  0  0  0  0  0  0  0  0  0
    8.1878  -17.7371   22.7588 C   0  0  0  0  0  0  0  0  0  0  0  0
    9.3942  -18.0158   22.9789 O   0  0  0  0  0  0  0  0  0  0  0  0
    8.1618  -12.7954   18.4215 O   0  0  0  0  0  0  0  0  0  0  0  0
    8.1016  -13.1433   19.7747 C   0  0  0  0  0  0  0  0  0  0  0  0
    9.2455  -13.1385   20.5455 C   0  0  0  0  0  0  0  0  0  0  0  0
    9.2015  -13.4767   21.8697 C   0  0  0  0  0  0  0  0  0  0  0  0
    8.0273  -13.8393   22.5087 C   0  0  0  0  0  0  0  0  0  0  0  0
    7.9812  -14.2177   23.9405 C   0  0  0  0  0  0  0  0  0  0  0  0
    8.4649  -15.6204   24.1307 C   0  0  2  0  0  0  0  0  0  0  0  0
    7.6588  -16.5658   23.3383 N   0  0  0  0  0  0  0  0  0  0  0  0
    8.3758  -16.0869   25.5289 C   0  0  0  0  0  0  0  0  0  0  0  0
    9.0467  -15.5438   26.4527 O   0  0  0  0  0  0  0  0  0  0  0  0
    6.8774  -13.8392   21.7160 C   0  0  0  0  0  0  0  0  0  0  0  0
    6.9188  -13.4980   20.3793 C   0  0  0  0  0  0  0  0  0  0  0  0
    7.5626  -17.1416   25.9513 O   0  0  0  0  0  0  0  0  0  0  0  0
  1  2  1  0
  2  3  2  0
  4  5  1  0
  4  2  1  0
  6  7  1  6
  6  5  1  0
  8  6  1  0
  8  9  2  0
 10  8  1  0
 11 18  1  0
 11 10  1  0
 11 12  1  1
 13 14  2  0
 13 12  1  0
 15 14  1  0
 16 17  2  0
 16 15  1  0
 17 13  1  0
 18 19  2  0
 20 21  1  0
 21 22  2  0
 21 31  1  0
 22 23  1  0
 23 24  2  0
 24 25  1  0
 26 25  1  1
 26 28  1  0
 27 18  1  0
 27 26  1  0
 28 29  2  0
 28 32  1  0
 30 24  1  0
 31 30  2  0
M  END
$$$$
