QHY.pdb
     RDKit          3D

 32 33  0  0  1  0  0  0  0  0999 V2000
   10.1587  -19.0058   16.1752 N   0  0  0  0  0  0  0  0  0  0  0  0
    8.8419  -19.2612   16.7194 C   0  0  0  0  0  0  0  0  0  0  0  0
    7.9675  -19.5898   15.8888 O   0  0  0  0  0  0  0  0  0  0  0  0
    8.6572  -19.1175   18.1678 C   0  0  0  0  0  0  0  0  0  0  0  0
    9.8531  -18.7533   18.9581 C   0  0  0  0  0  0  0  0  0  0  0  0
    9.6069  -18.6689   20.4194 C   0  0  2  0  0  0  0  0  0  0  0  0
    8.2607  -18.8682   20.8216 N   0  0  0  0  0  0  0  0  0  0  0  0
   10.0811  -17.3577   20.9840 C   0  0  0  0  0  0  0  0  0  0  0  0
   11.2920  -17.0253   20.9247 O   0  0  0  0  0  0  0  0  0  0  0  0
    9.1797  -16.4580   21.5999 N   0  0  0  0  0  0  0  0  0  0  0  0
    9.5576  -15.2256   22.2167 C   0  0  1  0  0  0  0  0  0  0  0  0
    8.6365  -14.0998   21.8091 C   0  0  0  0  0  0  0  0  0  0  0  0
    8.3716  -14.0584   20.3511 C   0  0  0  0  0  0  0  0  0  0  0  0
    8.8229  -14.9224   19.3526 C   0  0  0  0  0  0  0  0  0  0  0  0
    8.3561  -14.5389   18.1719 N   0  0  0  0  0  0  0  0  0  0  0  0
    7.5992  -13.4324   18.3656 C   0  0  0  0  0  0  0  0  0  0  0  0
    7.6164  -13.1505   19.6907 N   0  0  0  0  0  0  0  0  0  0  0  0
    9.6090  -15.2937   23.6981 C   0  0  0  0  0  0  0  0  0  0  0  0
   10.1512  -14.3403   24.3132 O   0  0  0  0  0  0  0  0  0  0  0  0
    6.1717  -10.7704   26.3453 O   0  0  0  0  0  0  0  0  0  0  0  0
    6.5790  -12.1074   26.3950 C   0  0  0  0  0  0  0  0  0  0  0  0
    5.9353  -13.0594   25.6321 C   0  0  0  0  0  0  0  0  0  0  0  0
    6.3225  -14.3701   25.6711 C   0  0  0  0  0  0  0  0  0  0  0  0
    7.3662  -14.8167   26.4648 C   0  0  0  0  0  0  0  0  0  0  0  0
    7.7783  -16.2390   26.5167 C   0  0  0  0  0  0  0  0  0  0  0  0
    9.1414  -16.4145   25.9262 C   0  0  2  0  0  0  0  0  0  0  0  0
    9.0869  -16.3628   24.4546 N   0  0  0  0  0  0  0  0  0  0  0  0
    9.7633  -17.7111   26.2619 C   0  0  0  0  0  0  0  0  0  0  0  0
   10.0503  -18.5592   25.3692 O   0  0  0  0  0  0  0  0  0  0  0  0
    8.0087  -13.8418   27.2312 C   0  0  0  0  0  0  0  0  0  0  0  0
    7.6201  -12.5180   27.1937 C   0  0  0  0  0  0  0  0  0  0  0  0
   10.0862  -18.1107   27.5612 O   0  0  0  0  0  0  0  0  0  0  0  0
  1  2  1  0
  2  3  2  0
  4  5  1  0
  4  2  1  0
  6  7  1  6
  6  5  1  0
  8  6  1  0
  8  9  2  0
 10  8  1  0
 11 18  1  0
 11 10  1  0
 11 12  1  1
 13 14  2  0
 13 12  1  0
 15 14  1  0
 16 17  2  0
 16 15  1  0
 17 13  1  0
 18 19  2  0
 20 21  1  0
 21 22  2  0
 21 31  1  0
 22 23  1  0
 23 24  2  0
 24 25  1  0
 26 25  1  1
 26 28  1  0
 27 18  1  0
 27 26  1  0
 28 29  2  0
 28 32  1  0
 30 24  1  0
 31 30  2  0
M  END
$$$$
