QHY.pdb
     RDKit          3D

 32 33  0  0  1  0  0  0  0  0999 V2000
   16.2093  -13.6228   16.2439 N   0  0  0  0  0  0  0  0  0  0  0  0
   15.8691  -13.9775   17.6055 C   0  0  0  0  0  0  0  0  0  0  0  0
   16.2909  -13.2001   18.4888 O   0  0  0  0  0  0  0  0  0  0  0  0
   15.0730  -15.1910   17.8210 C   0  0  0  0  0  0  0  0  0  0  0  0
   13.6524  -14.9988   18.1848 C   0  0  0  0  0  0  0  0  0  0  0  0
   13.1637  -15.9401   19.2232 C   0  0  2  0  0  0  0  0  0  0  0  0
   12.5236  -17.1078   18.7324 N   0  0  0  0  0  0  0  0  0  0  0  0
   12.2333  -15.2605   20.1903 C   0  0  0  0  0  0  0  0  0  0  0  0
   12.6278  -14.3089   20.9108 O   0  0  0  0  0  0  0  0  0  0  0  0
   10.8857  -15.6711   20.3197 N   0  0  0  0  0  0  0  0  0  0  0  0
    9.9516  -15.1098   21.2441 C   0  0  1  0  0  0  0  0  0  0  0  0
    8.5270  -15.3497   20.8025 C   0  0  0  0  0  0  0  0  0  0  0  0
    8.1290  -14.5267   19.6355 C   0  0  0  0  0  0  0  0  0  0  0  0
    8.8873  -13.6052   18.9123 C   0  0  0  0  0  0  0  0  0  0  0  0
    8.1594  -13.0821   17.9348 N   0  0  0  0  0  0  0  0  0  0  0  0
    6.9264  -13.6399   17.9929 C   0  0  0  0  0  0  0  0  0  0  0  0
    6.9200  -14.5138   19.0282 N   0  0  0  0  0  0  0  0  0  0  0  0
   10.1162  -15.6083   22.6319 C   0  0  0  0  0  0  0  0  0  0  0  0
   10.4588  -16.8078   22.7903 O   0  0  0  0  0  0  0  0  0  0  0  0
   11.1447  -16.1778   31.3971 O   0  0  0  0  0  0  0  0  0  0  0  0
   10.9219  -15.6855   30.1072 C   0  0  0  0  0  0  0  0  0  0  0  0
   11.6178  -16.2039   29.0351 C   0  0  0  0  0  0  0  0  0  0  0  0
   11.4105  -15.7320   27.7686 C   0  0  0  0  0  0  0  0  0  0  0  0
   10.5054  -14.7217   27.4876 C   0  0  0  0  0  0  0  0  0  0  0  0
   10.2893  -14.2016   26.1171 C   0  0  0  0  0  0  0  0  0  0  0  0
   10.0792  -15.3264   25.1536 C   0  0  2  0  0  0  0  0  0  0  0  0
    9.9111  -14.8174   23.7809 N   0  0  0  0  0  0  0  0  0  0  0  0
    8.8704  -16.1249   25.4390 C   0  0  0  0  0  0  0  0  0  0  0  0
    8.8773  -17.0542   26.2962 O   0  0  0  0  0  0  0  0  0  0  0  0
    9.8079  -14.2069   28.5825 C   0  0  0  0  0  0  0  0  0  0  0  0
   10.0151  -14.6815   29.8619 C   0  0  0  0  0  0  0  0  0  0  0  0
    7.6388  -15.9327   24.8078 O   0  0  0  0  0  0  0  0  0  0  0  0
  1  2  1  0
  2  3  2  0
  4  5  1  0
  4  2  1  0
  6  7  1  6
  6  5  1  0
  8  6  1  0
  8  9  2  0
 10  8  1  0
 11 18  1  0
 11 10  1  0
 11 12  1  6
 13 14  2  0
 13 12  1  0
 15 14  1  0
 16 17  2  0
 16 15  1  0
 17 13  1  0
 18 19  2  0
 20 21  1  0
 21 22  2  0
 21 31  1  0
 22 23  1  0
 23 24  2  0
 24 25  1  0
 26 25  1  1
 26 28  1  0
 27 18  1  0
 27 26  1  0
 28 29  2  0
 28 32  1  0
 30 24  1  0
 31 30  2  0
M  END
$$$$
