QHY.pdb
     RDKit          3D

 32 33  0  0  1  0  0  0  0  0999 V2000
    8.2620  -12.3035   18.4757 N   0  0  0  0  0  0  0  0  0  0  0  0
    8.2925  -13.4915   17.6493 C   0  0  0  0  0  0  0  0  0  0  0  0
    7.9077  -13.3403   16.4697 O   0  0  0  0  0  0  0  0  0  0  0  0
    8.7660  -14.7399   18.2577 C   0  0  0  0  0  0  0  0  0  0  0  0
    8.1508  -15.1274   19.5457 C   0  0  0  0  0  0  0  0  0  0  0  0
    8.6981  -16.3811   20.1217 C   0  0  2  0  0  0  0  0  0  0  0  0
    8.5396  -17.5395   19.3175 N   0  0  0  0  0  0  0  0  0  0  0  0
    8.1171  -16.6639   21.4801 C   0  0  0  0  0  0  0  0  0  0  0  0
    6.9782  -16.2391   21.8004 O   0  0  0  0  0  0  0  0  0  0  0  0
    8.8342  -17.4163   22.4399 N   0  0  0  0  0  0  0  0  0  0  0  0
    8.3889  -17.6634   23.7751 C   0  0  1  0  0  0  0  0  0  0  0  0
    8.1152  -19.1316   24.0022 C   0  0  0  0  0  0  0  0  0  0  0  0
    7.6462  -19.4344   25.3755 C   0  0  0  0  0  0  0  0  0  0  0  0
    7.3057  -18.5514   26.4010 C   0  0  0  0  0  0  0  0  0  0  0  0
    6.9302  -19.2266   27.4789 N   0  0  0  0  0  0  0  0  0  0  0  0
    7.0138  -20.5473   27.1900 C   0  0  0  0  0  0  0  0  0  0  0  0
    7.4494  -20.6608   25.9120 N   0  0  0  0  0  0  0  0  0  0  0  0
    9.3322  -17.1826   24.8147 C   0  0  0  0  0  0  0  0  0  0  0  0
   10.1523  -18.0074   25.2928 O   0  0  0  0  0  0  0  0  0  0  0  0
    5.9277  -10.2124   25.3968 O   0  0  0  0  0  0  0  0  0  0  0  0
    6.3930  -11.4580   25.8302 C   0  0  0  0  0  0  0  0  0  0  0  0
    6.5742  -12.4852   24.9276 C   0  0  0  0  0  0  0  0  0  0  0  0
    7.0282  -13.7082   25.3372 C   0  0  0  0  0  0  0  0  0  0  0  0
    7.3287  -13.9879   26.6602 C   0  0  0  0  0  0  0  0  0  0  0  0
    7.8089  -15.3167   27.1064 C   0  0  0  0  0  0  0  0  0  0  0  0
    9.2418  -15.5146   26.7249 C   0  0  2  0  0  0  0  0  0  0  0  0
    9.3624  -15.8582   25.2970 N   0  0  0  0  0  0  0  0  0  0  0  0
    9.8983  -16.6132   27.4615 C   0  0  0  0  0  0  0  0  0  0  0  0
    9.9997  -17.7733   26.9692 O   0  0  0  0  0  0  0  0  0  0  0  0
    7.1408  -12.9385   27.5624 C   0  0  0  0  0  0  0  0  0  0  0  0
    6.6829  -11.7029   27.1517 C   0  0  0  0  0  0  0  0  0  0  0  0
   10.4558  -16.4772   28.7354 O   0  0  0  0  0  0  0  0  0  0  0  0
  1  2  1  0
  2  3  2  0
  4  5  1  0
  4  2  1  0
  6  7  1  6
  6  5  1  0
  8  6  1  0
  8  9  2  0
 10  8  1  0
 11 18  1  0
 11 10  1  0
 11 12  1  6
 13 14  2  0
 13 12  1  0
 15 14  1  0
 16 17  2  0
 16 15  1  0
 17 13  1  0
 18 19  2  0
 20 21  1  0
 21 22  2  0
 21 31  1  0
 22 23  1  0
 23 24  2  0
 24 25  1  0
 26 25  1  1
 26 28  1  0
 27 18  1  0
 27 26  1  0
 28 29  2  0
 28 32  1  0
 30 24  1  0
 31 30  2  0
M  END
$$$$
