QHY.pdb
     RDKit          3D

 32 33  0  0  1  0  0  0  0  0999 V2000
   14.9627  -18.8522   17.3563 N   0  0  0  0  0  0  0  0  0  0  0  0
   13.8298  -18.6927   16.4696 C   0  0  0  0  0  0  0  0  0  0  0  0
   13.9531  -19.2053   15.3362 O   0  0  0  0  0  0  0  0  0  0  0  0
   12.6613  -17.9614   16.9723 C   0  0  0  0  0  0  0  0  0  0  0  0
   12.6994  -17.5398   18.3895 C   0  0  0  0  0  0  0  0  0  0  0  0
   11.4978  -17.9321   19.1673 C   0  0  2  0  0  0  0  0  0  0  0  0
   10.3703  -18.3121   18.3939 N   0  0  0  0  0  0  0  0  0  0  0  0
   11.0762  -16.8446   20.1173 C   0  0  0  0  0  0  0  0  0  0  0  0
   11.9153  -16.0424   20.5995 O   0  0  0  0  0  0  0  0  0  0  0  0
    9.7224  -16.6909   20.4984 N   0  0  0  0  0  0  0  0  0  0  0  0
    9.2388  -15.6802   21.3853 C   0  0  1  0  0  0  0  0  0  0  0  0
    7.8105  -15.3048   21.0671 C   0  0  0  0  0  0  0  0  0  0  0  0
    7.6772  -14.5089   19.8236 C   0  0  0  0  0  0  0  0  0  0  0  0
    7.2141  -14.9109   18.5701 C   0  0  0  0  0  0  0  0  0  0  0  0
    7.2495  -13.8918   17.7222 N   0  0  0  0  0  0  0  0  0  0  0  0
    7.7285  -12.8146   18.3892 C   0  0  0  0  0  0  0  0  0  0  0  0
    7.9845  -13.2012   19.6623 N   0  0  0  0  0  0  0  0  0  0  0  0
    9.3311  -16.0534   22.8184 C   0  0  0  0  0  0  0  0  0  0  0  0
    9.1925  -17.2660   23.1216 O   0  0  0  0  0  0  0  0  0  0  0  0
   11.0036  -15.9929   31.4993 O   0  0  0  0  0  0  0  0  0  0  0  0
   10.8227  -15.6002   30.1693 C   0  0  0  0  0  0  0  0  0  0  0  0
    9.7746  -14.7722   29.8251 C   0  0  0  0  0  0  0  0  0  0  0  0
    9.5853  -14.3805   28.5288 C   0  0  0  0  0  0  0  0  0  0  0  0
   10.4186  -14.7836   27.4982 C   0  0  0  0  0  0  0  0  0  0  0  0
   10.2067  -14.3694   26.0915 C   0  0  0  0  0  0  0  0  0  0  0  0
    9.7332  -15.5246   25.2676 C   0  0  2  0  0  0  0  0  0  0  0  0
    9.5640  -15.1299   23.8579 N   0  0  0  0  0  0  0  0  0  0  0  0
    8.4240  -16.0545   25.6984 C   0  0  0  0  0  0  0  0  0  0  0  0
    7.3394  -15.5947   25.2393 O   0  0  0  0  0  0  0  0  0  0  0  0
   11.4754  -15.6212   27.8617 C   0  0  0  0  0  0  0  0  0  0  0  0
   11.6689  -16.0178   29.1694 C   0  0  0  0  0  0  0  0  0  0  0  0
    8.2650  -17.0867   26.6266 O   0  0  0  0  0  0  0  0  0  0  0  0
  1  2  1  0
  2  3  2  0
  4  5  1  0
  4  2  1  0
  6  7  1  6
  6  5  1  0
  8  6  1  0
  8  9  2  0
 10  8  1  0
 11 18  1  0
 11 10  1  0
 11 12  1  6
 13 14  2  0
 13 12  1  0
 15 14  1  0
 16 17  2  0
 16 15  1  0
 17 13  1  0
 18 19  2  0
 20 21  1  0
 21 22  2  0
 21 31  1  0
 22 23  1  0
 23 24  2  0
 24 25  1  0
 26 25  1  1
 26 28  1  0
 27 18  1  0
 27 26  1  0
 28 29  2  0
 28 32  1  0
 30 24  1  0
 31 30  2  0
M  END
$$$$
