QHY.pdb
     RDKit          3D

 32 33  0  0  1  0  0  0  0  0999 V2000
    6.8508  -12.2259   17.1470 N   0  0  0  0  0  0  0  0  0  0  0  0
    7.0831  -13.4258   16.3715 C   0  0  0  0  0  0  0  0  0  0  0  0
    6.5001  -13.4779   15.2670 O   0  0  0  0  0  0  0  0  0  0  0  0
    7.9669  -14.4503   16.9390 C   0  0  0  0  0  0  0  0  0  0  0  0
    8.4300  -14.2348   18.3270 C   0  0  0  0  0  0  0  0  0  0  0  0
    9.7190  -14.8997   18.6422 C   0  0  2  0  0  0  0  0  0  0  0  0
   10.2117  -15.7764   17.6409 N   0  0  0  0  0  0  0  0  0  0  0  0
    9.6469  -15.6559   19.9406 C   0  0  0  0  0  0  0  0  0  0  0  0
    8.8485  -15.3120   20.8487 O   0  0  0  0  0  0  0  0  0  0  0  0
   10.4754  -16.7772   20.1808 N   0  0  0  0  0  0  0  0  0  0  0  0
   10.4003  -17.6081   21.3409 C   0  0  1  0  0  0  0  0  0  0  0  0
   11.2301  -18.8598   21.1774 C   0  0  0  0  0  0  0  0  0  0  0  0
   10.5934  -19.8746   20.3042 C   0  0  0  0  0  0  0  0  0  0  0  0
    9.2367  -20.1293   20.0999 C   0  0  0  0  0  0  0  0  0  0  0  0
    9.0840  -21.1228   19.2348 N   0  0  0  0  0  0  0  0  0  0  0  0
   10.3174  -21.5361   18.8571 C   0  0  0  0  0  0  0  0  0  0  0  0
   11.2244  -20.7721   19.5124 N   0  0  0  0  0  0  0  0  0  0  0  0
   10.8068  -16.9206   22.5915 C   0  0  0  0  0  0  0  0  0  0  0  0
   11.8568  -16.2289   22.5690 O   0  0  0  0  0  0  0  0  0  0  0  0
   10.7815  -14.1845   31.0578 O   0  0  0  0  0  0  0  0  0  0  0  0
   10.4260  -14.5919   29.7680 C   0  0  0  0  0  0  0  0  0  0  0  0
   10.3469  -13.6706   28.7447 C   0  0  0  0  0  0  0  0  0  0  0  0
   10.0003  -14.0546   27.4790 C   0  0  0  0  0  0  0  0  0  0  0  0
    9.7115  -15.3690   27.1507 C   0  0  0  0  0  0  0  0  0  0  0  0
    9.3239  -15.7838   25.7821 C   0  0  0  0  0  0  0  0  0  0  0  0
   10.5072  -16.3164   25.0379 C   0  0  2  0  0  0  0  0  0  0  0  0
   10.0864  -16.9978   23.8009 N   0  0  0  0  0  0  0  0  0  0  0  0
   11.2820  -17.3128   25.8042 C   0  0  0  0  0  0  0  0  0  0  0  0
   10.9324  -18.5267   25.8561 O   0  0  0  0  0  0  0  0  0  0  0  0
    9.7961  -16.2907   28.1967 C   0  0  0  0  0  0  0  0  0  0  0  0
   10.1460  -15.9058   29.4751 C   0  0  0  0  0  0  0  0  0  0  0  0
   12.4433  -17.0166   26.5225 O   0  0  0  0  0  0  0  0  0  0  0  0
  1  2  1  0
  2  3  2  0
  4  5  1  0
  4  2  1  0
  6  7  1  6
  6  5  1  0
  8  6  1  0
  8  9  2  0
 10  8  1  0
 11 18  1  0
 11 10  1  0
 11 12  1  6
 13 14  2  0
 13 12  1  0
 15 14  1  0
 16 17  2  0
 16 15  1  0
 17 13  1  0
 18 19  2  0
 20 21  1  0
 21 22  2  0
 21 31  1  0
 22 23  1  0
 23 24  2  0
 24 25  1  0
 26 25  1  1
 26 28  1  0
 27 18  1  0
 27 26  1  0
 28 29  2  0
 28 32  1  0
 30 24  1  0
 31 30  2  0
M  END
$$$$
