QHY.pdb
     RDKit          3D

 32 33  0  0  1  0  0  0  0  0999 V2000
    6.5176  -13.5153   16.3741 N   0  0  0  0  0  0  0  0  0  0  0  0
    7.9462  -13.5436   16.1421 C   0  0  0  0  0  0  0  0  0  0  0  0
    8.3027  -13.4431   14.9482 O   0  0  0  0  0  0  0  0  0  0  0  0
    8.8288  -13.6814   17.3060 C   0  0  0  0  0  0  0  0  0  0  0  0
    8.1771  -13.9408   18.6081 C   0  0  0  0  0  0  0  0  0  0  0  0
    9.1176  -13.9779   19.7558 C   0  0  2  0  0  0  0  0  0  0  0  0
   10.4274  -14.4328   19.4539 N   0  0  0  0  0  0  0  0  0  0  0  0
    8.5759  -14.8090   20.8865 C   0  0  0  0  0  0  0  0  0  0  0  0
    7.3763  -14.7090   21.2490 O   0  0  0  0  0  0  0  0  0  0  0  0
    9.3992  -15.7286   21.5778 N   0  0  0  0  0  0  0  0  0  0  0  0
    8.9470  -16.6038   22.6129 C   0  0  1  0  0  0  0  0  0  0  0  0
    9.3017  -18.0414   22.3136 C   0  0  0  0  0  0  0  0  0  0  0  0
    8.4351  -18.6554   21.2794 C   0  0  0  0  0  0  0  0  0  0  0  0
    7.3338  -18.1083   20.6198 C   0  0  0  0  0  0  0  0  0  0  0  0
    6.8341  -18.9861   19.7604 N   0  0  0  0  0  0  0  0  0  0  0  0
    7.5843  -20.1114   19.8347 C   0  0  0  0  0  0  0  0  0  0  0  0
    8.5517  -19.8990   20.7593 N   0  0  0  0  0  0  0  0  0  0  0  0
    9.4637  -16.2501   23.9581 C   0  0  0  0  0  0  0  0  0  0  0  0
   10.6582  -15.8673   24.0485 O   0  0  0  0  0  0  0  0  0  0  0  0
    6.2715  -10.4283   25.4836 O   0  0  0  0  0  0  0  0  0  0  0  0
    6.7500  -11.6577   25.9478 C   0  0  0  0  0  0  0  0  0  0  0  0
    5.9965  -12.8021   25.7888 C   0  0  0  0  0  0  0  0  0  0  0  0
    6.4515  -14.0107   26.2381 C   0  0  0  0  0  0  0  0  0  0  0  0
    7.6751  -14.1594   26.8701 C   0  0  0  0  0  0  0  0  0  0  0  0
    8.1632  -15.4667   27.3680 C   0  0  0  0  0  0  0  0  0  0  0  0
    9.2347  -16.0047   26.4734 C   0  0  2  0  0  0  0  0  0  0  0  0
    8.6956  -16.3185   25.1384 N   0  0  0  0  0  0  0  0  0  0  0  0
    9.8387  -17.2574   26.9697 C   0  0  0  0  0  0  0  0  0  0  0  0
   10.4862  -17.2964   28.0549 O   0  0  0  0  0  0  0  0  0  0  0  0
    8.4271  -12.9925   27.0237 C   0  0  0  0  0  0  0  0  0  0  0  0
    7.9703  -11.7713   26.5710 C   0  0  0  0  0  0  0  0  0  0  0  0
    9.7522  -18.4840   26.3062 O   0  0  0  0  0  0  0  0  0  0  0  0
  1  2  1  0
  2  3  2  0
  4  5  1  0
  4  2  1  0
  6  7  1  6
  6  5  1  0
  8  6  1  0
  8  9  2  0
 10  8  1  0
 11 18  1  0
 11 10  1  0
 11 12  1  6
 13 14  2  0
 13 12  1  0
 15 14  1  0
 16 17  2  0
 16 15  1  0
 17 13  1  0
 18 19  2  0
 20 21  1  0
 21 22  2  0
 21 31  1  0
 22 23  1  0
 23 24  2  0
 24 25  1  0
 26 25  1  1
 26 28  1  0
 27 18  1  0
 27 26  1  0
 28 29  2  0
 28 32  1  0
 30 24  1  0
 31 30  2  0
M  END
$$$$
