WTH.pdb
     RDKit          3D

 32 34  0  0  1  0  0  0  0  0999 V2000
    5.9714  -17.2004   24.7680 N   0  0  0  0  0  0  0  0  0  0  0  0
    7.2652  -16.5951   24.5674 C   0  0  1  0  0  0  0  0  0  0  0  0
    7.5511  -15.5728   25.6198 C   0  0  0  0  0  0  0  0  0  0  0  0
    6.8104  -14.3206   25.3560 C   0  0  0  0  0  0  0  0  0  0  0  0
    5.7738  -13.8164   26.1242 C   0  0  0  0  0  0  0  0  0  0  0  0
    5.3981  -12.6717   25.5283 N   0  0  0  0  0  0  0  0  0  0  0  0
    6.1457  -12.4412   24.4343 C   0  0  0  0  0  0  0  0  0  0  0  0
    6.1799  -11.4357   23.4799 C   0  0  0  0  0  0  0  0  0  0  0  0
    7.0788  -11.4716   22.4487 C   0  0  0  0  0  0  0  0  0  0  0  0
    7.9817  -12.5124   22.3263 C   0  0  0  0  0  0  0  0  0  0  0  0
    7.9675  -13.5223   23.2614 C   0  0  0  0  0  0  0  0  0  0  0  0
    7.0560  -13.4748   24.2967 C   0  0  0  0  0  0  0  0  0  0  0  0
    8.2949  -17.6817   24.6528 C   0  0  0  0  0  0  0  0  0  0  0  0
    8.0521  -18.7985   25.1765 O   0  0  0  0  0  0  0  0  0  0  0  0
   10.0895  -19.5033   21.9555 C   0  0  0  0  0  0  0  0  0  0  0  0
   11.1378  -18.8979   22.8624 C   0  0  1  0  0  0  0  0  0  0  0  0
   11.5368  -17.7178   22.2144 O   0  0  0  0  0  0  0  0  0  0  0  0
   10.5888  -18.5780   24.2418 C   0  0  2  0  0  0  0  0  0  0  0  0
    9.6080  -17.5012   24.1419 N   0  0  0  0  0  0  0  0  0  0  0  0
   11.7146  -18.0254   25.0369 C   0  0  0  0  0  0  0  0  0  0  0  0
   11.9977  -16.7938   24.8429 O   0  0  0  0  0  0  0  0  0  0  0  0
   12.4847  -18.7227   25.9728 N   0  0  0  0  0  0  0  0  0  0  0  0
   12.5731  -18.1665   27.3353 C   0  0  1  0  0  0  0  0  0  0  0  0
   11.1784  -17.9995   27.9065 C   0  0  0  0  0  0  0  0  0  0  0  0
   10.8162  -16.5851   27.9295 C   0  0  0  0  0  0  0  0  0  0  0  0
   11.5927  -15.5406   27.4910 C   0  0  0  0  0  0  0  0  0  0  0  0
   10.9018  -14.4255   27.6868 N   0  0  0  0  0  0  0  0  0  0  0  0
    9.7117  -14.7212   28.2348 C   0  0  0  0  0  0  0  0  0  0  0  0
    9.6794  -16.0649   28.3769 N   0  0  0  0  0  0  0  0  0  0  0  0
   13.4519  -19.0187   28.1512 C   0  0  0  0  0  0  0  0  0  0  0  0
   13.3808  -20.2609   28.0811 O   0  0  0  0  0  0  0  0  0  0  0  0
   14.3665  -18.4399   29.0050 O   0  0  0  0  0  0  0  0  0  0  0  0
  2  1  1  1
  2 13  1  0
  2  3  1  0
  4  5  2  0
  4  3  1  0
  6  5  1  0
  7 12  2  0
  7  6  1  0
  8  7  1  0
  9 10  1  0
  9  8  2  0
 10 11  2  0
 11 12  1  0
 12  4  1  0
 13 14  2  0
 16 15  1  6
 16 17  1  0
 16 18  1  0
 18 19  1  6
 19 13  1  0
 20 22  1  0
 20 18  1  0
 21 20  2  0
 23 22  1  0
 23 30  1  0
 23 24  1  1
 25 29  1  0
 25 24  1  0
 26 25  2  0
 27 26  1  0
 27 28  1  0
 28 29  2  0
 30 32  1  0
 31 30  2  0
M  END
$$$$
