WTH.pdb
     RDKit          3D

 32 34  0  0  1  0  0  0  0  0999 V2000
    6.7255  -17.3740   24.3334 N   0  0  0  0  0  0  0  0  0  0  0  0
    7.7740  -16.3993   24.1569 C   0  0  1  0  0  0  0  0  0  0  0  0
    8.0958  -15.7144   25.4460 C   0  0  0  0  0  0  0  0  0  0  0  0
    6.9851  -14.8351   25.8694 C   0  0  0  0  0  0  0  0  0  0  0  0
    5.8072  -15.2506   26.4684 C   0  0  0  0  0  0  0  0  0  0  0  0
    5.0900  -14.1341   26.6822 N   0  0  0  0  0  0  0  0  0  0  0  0
    5.7602  -13.0519   26.2482 C   0  0  0  0  0  0  0  0  0  0  0  0
    5.4906  -11.6918   26.2249 C   0  0  0  0  0  0  0  0  0  0  0  0
    6.3909  -10.8026   25.7039 C   0  0  0  0  0  0  0  0  0  0  0  0
    7.5985  -11.2330   25.1842 C   0  0  0  0  0  0  0  0  0  0  0  0
    7.8891  -12.5783   25.1962 C   0  0  0  0  0  0  0  0  0  0  0  0
    6.9729  -13.4652   25.7243 C   0  0  0  0  0  0  0  0  0  0  0  0
    8.9942  -17.1248   23.6742 C   0  0  0  0  0  0  0  0  0  0  0  0
    9.1735  -18.3515   23.8827 O   0  0  0  0  0  0  0  0  0  0  0  0
   10.1150  -17.7062   20.3024 C   0  0  0  0  0  0  0  0  0  0  0  0
   11.3175  -17.1087   20.9988 C   0  0  1  0  0  0  0  0  0  0  0  0
   11.3453  -15.7678   20.5830 O   0  0  0  0  0  0  0  0  0  0  0  0
   11.2028  -17.1859   22.5111 C   0  0  2  0  0  0  0  0  0  0  0  0
   10.0176  -16.4557   22.9511 N   0  0  0  0  0  0  0  0  0  0  0  0
   12.3626  -16.4462   23.0702 C   0  0  0  0  0  0  0  0  0  0  0  0
   12.1988  -15.1930   23.2635 O   0  0  0  0  0  0  0  0  0  0  0  0
   13.6059  -16.9915   23.4047 N   0  0  0  0  0  0  0  0  0  0  0  0
   13.9833  -17.0092   24.8298 C   0  0  1  0  0  0  0  0  0  0  0  0
   12.9125  -17.7262   25.6291 C   0  0  0  0  0  0  0  0  0  0  0  0
   12.2303  -16.7802   26.5077 C   0  0  0  0  0  0  0  0  0  0  0  0
   12.3994  -15.4174   26.5215 C   0  0  0  0  0  0  0  0  0  0  0  0
   11.6007  -14.9298   27.4614 N   0  0  0  0  0  0  0  0  0  0  0  0
   10.9277  -15.9333   28.0482 C   0  0  0  0  0  0  0  0  0  0  0  0
   11.3330  -17.0714   27.4422 N   0  0  0  0  0  0  0  0  0  0  0  0
   15.3241  -17.5981   24.9695 C   0  0  0  0  0  0  0  0  0  0  0  0
   15.6489  -18.6081   24.3157 O   0  0  0  0  0  0  0  0  0  0  0  0
   16.2354  -17.0285   25.8331 O   0  0  0  0  0  0  0  0  0  0  0  0
  2  1  1  1
  2 13  1  0
  2  3  1  0
  4  5  2  0
  4  3  1  0
  6  5  1  0
  7 12  2  0
  7  6  1  0
  8  7  1  0
  9 10  1  0
  9  8  2  0
 10 11  2  0
 11 12  1  0
 12  4  1  0
 13 14  2  0
 16 15  1  6
 16 17  1  0
 16 18  1  0
 18 19  1  1
 19 13  1  0
 20 22  1  0
 20 18  1  0
 21 20  2  0
 23 22  1  0
 23 30  1  0
 23 24  1  1
 25 29  1  0
 25 24  1  0
 26 25  2  0
 27 26  1  0
 27 28  1  0
 28 29  2  0
 30 32  1  0
 31 30  2  0
M  END
$$$$
