WTH.pdb
     RDKit          3D

 32 34  0  0  1  0  0  0  0  0999 V2000
    6.6891  -17.1140   23.9324 N   0  0  0  0  0  0  0  0  0  0  0  0
    7.8286  -16.2309   23.9786 C   0  0  1  0  0  0  0  0  0  0  0  0
    8.0502  -15.7087   25.3615 C   0  0  0  0  0  0  0  0  0  0  0  0
    6.9243  -14.8512   25.7898 C   0  0  0  0  0  0  0  0  0  0  0  0
    5.7343  -15.2946   26.3432 C   0  0  0  0  0  0  0  0  0  0  0  0
    5.0057  -14.1904   26.5808 N   0  0  0  0  0  0  0  0  0  0  0  0
    5.6803  -13.0894   26.2046 C   0  0  0  0  0  0  0  0  0  0  0  0
    5.4036  -11.7307   26.2256 C   0  0  0  0  0  0  0  0  0  0  0  0
    6.3114  -10.8183   25.7609 C   0  0  0  0  0  0  0  0  0  0  0  0
    7.5339  -11.2230   25.2557 C   0  0  0  0  0  0  0  0  0  0  0  0
    7.8318  -12.5664   25.2244 C   0  0  0  0  0  0  0  0  0  0  0  0
    6.9079  -13.4769   25.6959 C   0  0  0  0  0  0  0  0  0  0  0  0
    9.0330  -17.0188   23.5578 C   0  0  0  0  0  0  0  0  0  0  0  0
    9.1047  -18.2656   23.7014 O   0  0  0  0  0  0  0  0  0  0  0  0
   10.7469  -16.9962   20.1708 C   0  0  0  0  0  0  0  0  0  0  0  0
   11.8121  -16.7818   21.2230 C   0  0  1  0  0  0  0  0  0  0  0  0
   12.0886  -15.4058   21.1807 O   0  0  0  0  0  0  0  0  0  0  0  0
   11.3376  -17.1782   22.6102 C   0  0  2  0  0  0  0  0  0  0  0  0
   10.1632  -16.3894   22.9710 N   0  0  0  0  0  0  0  0  0  0  0  0
   12.4028  -16.7742   23.5625 C   0  0  0  0  0  0  0  0  0  0  0  0
   12.3537  -15.5720   23.9948 O   0  0  0  0  0  0  0  0  0  0  0  0
   13.4439  -17.5831   24.0281 N   0  0  0  0  0  0  0  0  0  0  0  0
   13.6973  -17.6023   25.4804 C   0  0  1  0  0  0  0  0  0  0  0  0
   12.3991  -17.8661   26.2183 C   0  0  0  0  0  0  0  0  0  0  0  0
   12.0193  -16.6884   26.9937 C   0  0  0  0  0  0  0  0  0  0  0  0
   12.5751  -15.4365   26.8940 C   0  0  0  0  0  0  0  0  0  0  0  0
   11.9513  -14.6567   27.7669 N   0  0  0  0  0  0  0  0  0  0  0  0
   11.0168  -15.3667   28.4203 C   0  0  0  0  0  0  0  0  0  0  0  0
   11.0759  -16.6232   27.9258 N   0  0  0  0  0  0  0  0  0  0  0  0
   14.7578  -18.5783   25.7752 C   0  0  0  0  0  0  0  0  0  0  0  0
   15.3425  -18.5726   26.8757 O   0  0  0  0  0  0  0  0  0  0  0  0
   15.1120  -19.5122   24.8250 O   0  0  0  0  0  0  0  0  0  0  0  0
  2  1  1  1
  2 13  1  0
  2  3  1  0
  4  5  2  0
  4  3  1  0
  6  5  1  0
  7 12  2  0
  7  6  1  0
  8  7  1  0
  9 10  1  0
  9  8  2  0
 10 11  2  0
 11 12  1  0
 12  4  1  0
 13 14  2  0
 16 15  1  6
 16 17  1  0
 16 18  1  0
 18 19  1  1
 19 13  1  0
 20 22  1  0
 20 18  1  0
 21 20  2  0
 23 22  1  0
 23 30  1  0
 23 24  1  1
 25 29  1  0
 25 24  1  0
 26 25  2  0
 27 26  1  0
 27 28  1  0
 28 29  2  0
 30 32  1  0
 31 30  2  0
M  END
$$$$
