WTH.pdb
     RDKit          3D

 32 34  0  0  1  0  0  0  0  0999 V2000
    6.5161  -17.1324   25.1557 N   0  0  0  0  0  0  0  0  0  0  0  0
    7.3095  -16.1455   24.4651 C   0  0  1  0  0  0  0  0  0  0  0  0
    8.3995  -15.6198   25.3425 C   0  0  0  0  0  0  0  0  0  0  0  0
    7.8462  -14.7872   26.4320 C   0  0  0  0  0  0  0  0  0  0  0  0
    7.8844  -15.0920   27.7827 C   0  0  0  0  0  0  0  0  0  0  0  0
    7.2739  -14.0704   28.4073 N   0  0  0  0  0  0  0  0  0  0  0  0
    6.8607  -13.1513   27.5165 C   0  0  0  0  0  0  0  0  0  0  0  0
    6.1959  -11.9383   27.6155 C   0  0  0  0  0  0  0  0  0  0  0  0
    5.9021  -11.2015   26.5004 C   0  0  0  0  0  0  0  0  0  0  0  0
    6.2592  -11.6440   25.2393 C   0  0  0  0  0  0  0  0  0  0  0  0
    6.9200  -12.8450   25.1153 C   0  0  0  0  0  0  0  0  0  0  0  0
    7.2106  -13.5789   26.2475 C   0  0  0  0  0  0  0  0  0  0  0  0
    7.9254  -16.8106   23.2706 C   0  0  0  0  0  0  0  0  0  0  0  0
    8.0676  -18.0572   23.1940 O   0  0  0  0  0  0  0  0  0  0  0  0
    7.2465  -15.7122   19.5032 C   0  0  0  0  0  0  0  0  0  0  0  0
    8.7231  -15.9298   19.7487 C   0  0  1  0  0  0  0  0  0  0  0  0
    9.2609  -14.6392   19.8780 O   0  0  0  0  0  0  0  0  0  0  0  0
    8.9834  -16.7345   21.0102 C   0  0  2  0  0  0  0  0  0  0  0  0
    8.3833  -16.0578   22.1563 N   0  0  0  0  0  0  0  0  0  0  0  0
   10.4490  -16.7045   21.2464 C   0  0  0  0  0  0  0  0  0  0  0  0
   10.8288  -16.4006   22.4289 O   0  0  0  0  0  0  0  0  0  0  0  0
   11.4431  -16.9793   20.3023 N   0  0  0  0  0  0  0  0  0  0  0  0
   12.5818  -17.8116   20.7314 C   0  0  1  0  0  0  0  0  0  0  0  0
   12.0769  -19.1690   21.1810 C   0  0  0  0  0  0  0  0  0  0  0  0
   12.0665  -19.2379   22.6395 C   0  0  0  0  0  0  0  0  0  0  0  0
   12.3645  -18.2125   23.5032 C   0  0  0  0  0  0  0  0  0  0  0  0
   12.2382  -18.6851   24.7360 N   0  0  0  0  0  0  0  0  0  0  0  0
   11.8701  -19.9761   24.6898 C   0  0  0  0  0  0  0  0  0  0  0  0
   11.7695  -20.2985   23.3811 N   0  0  0  0  0  0  0  0  0  0  0  0
   13.5726  -17.8754   19.6458 C   0  0  0  0  0  0  0  0  0  0  0  0
   13.3102  -18.4576   18.5756 O   0  0  0  0  0  0  0  0  0  0  0  0
   14.8074  -17.2850   19.8104 O   0  0  0  0  0  0  0  0  0  0  0  0
  2  1  1  1
  2 13  1  0
  2  3  1  0
  4  5  2  0
  4  3  1  0
  6  5  1  0
  7 12  2  0
  7  6  1  0
  8  7  1  0
  9 10  1  0
  9  8  2  0
 10 11  2  0
 11 12  1  0
 12  4  1  0
 13 14  2  0
 16 15  1  1
 16 17  1  0
 16 18  1  0
 18 19  1  1
 19 13  1  0
 20 22  1  0
 20 18  1  0
 21 20  2  0
 23 22  1  0
 23 30  1  0
 23 24  1  6
 25 29  1  0
 25 24  1  0
 26 25  2  0
 27 26  1  0
 27 28  1  0
 28 29  2  0
 30 32  1  0
 31 30  2  0
M  END
$$$$
