WTH.pdb
     RDKit          3D

 32 34  0  0  1  0  0  0  0  0999 V2000
    6.8053  -16.0009   21.7841 N   0  0  0  0  0  0  0  0  0  0  0  0
    8.1805  -15.6087   21.9723 C   0  0  1  0  0  0  0  0  0  0  0  0
    8.2741  -14.2675   22.6255 C   0  0  0  0  0  0  0  0  0  0  0  0
    7.4550  -14.2199   23.8556 C   0  0  0  0  0  0  0  0  0  0  0  0
    6.7220  -15.2714   24.3809 C   0  0  0  0  0  0  0  0  0  0  0  0
    6.1387  -14.7929   25.4933 N   0  0  0  0  0  0  0  0  0  0  0  0
    6.4712  -13.5037   25.6839 C   0  0  0  0  0  0  0  0  0  0  0  0
    6.1578  -12.5557   26.6461 C   0  0  0  0  0  0  0  0  0  0  0  0
    6.6608  -11.2850   26.5752 C   0  0  0  0  0  0  0  0  0  0  0  0
    7.4980  -10.9066   25.5411 C   0  0  0  0  0  0  0  0  0  0  0  0
    7.8237  -11.8299   24.5738 C   0  0  0  0  0  0  0  0  0  0  0  0
    7.3100  -13.1083   24.6563 C   0  0  0  0  0  0  0  0  0  0  0  0
    8.8275  -16.6283   22.8612 C   0  0  0  0  0  0  0  0  0  0  0  0
    8.1741  -17.5471   23.4172 O   0  0  0  0  0  0  0  0  0  0  0  0
   10.9426  -18.8907   21.2614 C   0  0  0  0  0  0  0  0  0  0  0  0
   11.7721  -18.3413   22.4008 C   0  0  1  0  0  0  0  0  0  0  0  0
   12.5099  -17.2892   21.8347 O   0  0  0  0  0  0  0  0  0  0  0  0
   10.9118  -17.8238   23.5404 C   0  0  2  0  0  0  0  0  0  0  0  0
   10.2238  -16.6060   23.1218 N   0  0  0  0  0  0  0  0  0  0  0  0
   11.8366  -17.4114   24.6264 C   0  0  0  0  0  0  0  0  0  0  0  0
   12.4909  -16.3295   24.4365 O   0  0  0  0  0  0  0  0  0  0  0  0
   12.0527  -18.0911   25.8290 N   0  0  0  0  0  0  0  0  0  0  0  0
   13.0351  -17.5212   26.7691 C   0  0  1  0  0  0  0  0  0  0  0  0
   12.4818  -17.5819   28.1796 C   0  0  0  0  0  0  0  0  0  0  0  0
   11.4274  -16.5851   28.3437 C   0  0  0  0  0  0  0  0  0  0  0  0
   11.0144  -15.6768   27.4000 C   0  0  0  0  0  0  0  0  0  0  0  0
   10.0416  -14.9574   27.9434 N   0  0  0  0  0  0  0  0  0  0  0  0
    9.8189  -15.3744   29.2007 C   0  0  0  0  0  0  0  0  0  0  0  0
   10.6887  -16.3837   29.4285 N   0  0  0  0  0  0  0  0  0  0  0  0
   14.3224  -18.2142   26.6049 C   0  0  0  0  0  0  0  0  0  0  0  0
   14.4257  -19.1977   25.8466 O   0  0  0  0  0  0  0  0  0  0  0  0
   15.4304  -17.7731   27.2966 O   0  0  0  0  0  0  0  0  0  0  0  0
  2  1  1  1
  2 13  1  0
  2  3  1  0
  4  5  2  0
  4  3  1  0
  6  5  1  0
  7 12  2  0
  7  6  1  0
  8  7  1  0
  9 10  1  0
  9  8  2  0
 10 11  2  0
 11 12  1  0
 12  4  1  0
 13 14  2  0
 16 15  1  6
 16 17  1  0
 16 18  1  0
 18 19  1  6
 19 13  1  0
 20 22  1  0
 20 18  1  0
 21 20  2  0
 23 22  1  0
 23 30  1  0
 23 24  1  1
 25 29  1  0
 25 24  1  0
 26 25  2  0
 27 26  1  0
 27 28  1  0
 28 29  2  0
 30 32  1  0
 31 30  2  0
M  END
$$$$
