WTH.pdb
     RDKit          3D

 32 34  0  0  1  0  0  0  0  0999 V2000
    6.3218  -17.4219   24.4746 N   0  0  0  0  0  0  0  0  0  0  0  0
    7.4523  -16.5288   24.4051 C   0  0  1  0  0  0  0  0  0  0  0  0
    7.7686  -15.9541   25.7482 C   0  0  0  0  0  0  0  0  0  0  0  0
    6.8733  -14.8201   26.0625 C   0  0  0  0  0  0  0  0  0  0  0  0
    5.7955  -14.8569   26.9320 C   0  0  0  0  0  0  0  0  0  0  0  0
    5.2699  -13.6199   26.9179 N   0  0  0  0  0  0  0  0  0  0  0  0
    5.9638  -12.8212   26.0876 C   0  0  0  0  0  0  0  0  0  0  0  0
    5.8558  -11.4915   25.7091 C   0  0  0  0  0  0  0  0  0  0  0  0
    6.7340  -10.9379   24.8176 C   0  0  0  0  0  0  0  0  0  0  0  0
    7.7572  -11.6877   24.2660 C   0  0  0  0  0  0  0  0  0  0  0  0
    7.8852  -13.0100   24.6261 C   0  0  0  0  0  0  0  0  0  0  0  0
    6.9931  -13.5569   25.5262 C   0  0  0  0  0  0  0  0  0  0  0  0
    8.6310  -17.3224   23.9261 C   0  0  0  0  0  0  0  0  0  0  0  0
    8.7832  -18.5377   24.2091 O   0  0  0  0  0  0  0  0  0  0  0  0
   10.2237  -17.5923   20.3629 C   0  0  0  0  0  0  0  0  0  0  0  0
   11.2747  -17.1828   21.3706 C   0  0  1  0  0  0  0  0  0  0  0  0
   11.4228  -15.7976   21.1941 O   0  0  0  0  0  0  0  0  0  0  0  0
   10.8521  -17.4867   22.7973 C   0  0  2  0  0  0  0  0  0  0  0  0
    9.6437  -16.7344   23.1219 N   0  0  0  0  0  0  0  0  0  0  0  0
   11.9130  -16.9481   23.6857 C   0  0  0  0  0  0  0  0  0  0  0  0
   11.6852  -15.8081   24.2179 O   0  0  0  0  0  0  0  0  0  0  0  0
   13.1268  -17.5704   23.9931 N   0  0  0  0  0  0  0  0  0  0  0  0
   13.6904  -17.3430   25.3363 C   0  0  1  0  0  0  0  0  0  0  0  0
   12.6385  -17.6460   26.3857 C   0  0  0  0  0  0  0  0  0  0  0  0
   12.1251  -16.4008   26.9497 C   0  0  0  0  0  0  0  0  0  0  0  0
   12.4274  -15.1308   26.5235 C   0  0  0  0  0  0  0  0  0  0  0  0
   11.7584  -14.2852   27.2960 N   0  0  0  0  0  0  0  0  0  0  0  0
   11.0397  -14.9707   28.2003 C   0  0  0  0  0  0  0  0  0  0  0  0
   11.2816  -16.2801   27.9681 N   0  0  0  0  0  0  0  0  0  0  0  0
   14.9234  -18.1315   25.4851 C   0  0  0  0  0  0  0  0  0  0  0  0
   14.9950  -19.2940   25.0418 O   0  0  0  0  0  0  0  0  0  0  0  0
   16.0152  -17.5812   26.1221 O   0  0  0  0  0  0  0  0  0  0  0  0
  2  1  1  1
  2 13  1  0
  2  3  1  0
  4  5  2  0
  4  3  1  0
  6  5  1  0
  7 12  2  0
  7  6  1  0
  8  7  1  0
  9 10  1  0
  9  8  2  0
 10 11  2  0
 11 12  1  0
 12  4  1  0
 13 14  2  0
 16 15  1  6
 16 17  1  0
 16 18  1  0
 18 19  1  1
 19 13  1  0
 20 22  1  0
 20 18  1  0
 21 20  2  0
 23 22  1  0
 23 30  1  0
 23 24  1  1
 25 29  1  0
 25 24  1  0
 26 25  2  0
 27 26  1  0
 27 28  1  0
 28 29  2  0
 30 32  1  0
 31 30  2  0
M  END
$$$$
