WTH.pdb
     RDKit          3D

 32 34  0  0  1  0  0  0  0  0999 V2000
    5.8289  -15.0737   24.1828 N   0  0  0  0  0  0  0  0  0  0  0  0
    7.2572  -15.2542   24.2716 C   0  0  1  0  0  0  0  0  0  0  0  0
    7.6489  -15.8066   25.6041 C   0  0  0  0  0  0  0  0  0  0  0  0
    7.8641  -14.7208   26.5843 C   0  0  0  0  0  0  0  0  0  0  0  0
    8.8478  -14.6938   27.5593 C   0  0  0  0  0  0  0  0  0  0  0  0
    8.6805  -13.5343   28.2181 N   0  0  0  0  0  0  0  0  0  0  0  0
    7.6475  -12.8436   27.7037 C   0  0  0  0  0  0  0  0  0  0  0  0
    7.0583  -11.6228   27.9962 C   0  0  0  0  0  0  0  0  0  0  0  0
    5.9864  -11.1663   27.2783 C   0  0  0  0  0  0  0  0  0  0  0  0
    5.4571  -11.9088   26.2380 C   0  0  0  0  0  0  0  0  0  0  0  0
    6.0247  -13.1239   25.9284 C   0  0  0  0  0  0  0  0  0  0  0  0
    7.1054  -13.5734   26.6599 C   0  0  0  0  0  0  0  0  0  0  0  0
    7.6607  -16.2271   23.2044 C   0  0  0  0  0  0  0  0  0  0  0  0
    6.8266  -16.9514   22.6046 O   0  0  0  0  0  0  0  0  0  0  0  0
    7.2008  -16.1895   20.5226 C   0  0  0  0  0  0  0  0  0  0  0  0
    8.7081  -16.2362   20.4045 C   0  0  1  0  0  0  0  0  0  0  0  0
    9.1145  -14.8927   20.4453 O   0  0  0  0  0  0  0  0  0  0  0  0
    9.3497  -17.0122   21.5414 C   0  0  2  0  0  0  0  0  0  0  0  0
    9.0183  -16.3802   22.8151 N   0  0  0  0  0  0  0  0  0  0  0  0
   10.8194  -16.8652   21.3888 C   0  0  0  0  0  0  0  0  0  0  0  0
   11.4511  -16.3890   22.3932 O   0  0  0  0  0  0  0  0  0  0  0  0
   11.5694  -17.2004   20.2573 N   0  0  0  0  0  0  0  0  0  0  0  0
   12.5665  -18.2778   20.3930 C   0  0  1  0  0  0  0  0  0  0  0  0
   11.8742  -19.5595   20.8144 C   0  0  0  0  0  0  0  0  0  0  0  0
   12.1581  -19.8396   22.2192 C   0  0  0  0  0  0  0  0  0  0  0  0
   12.8870  -19.0493   23.0737 C   0  0  0  0  0  0  0  0  0  0  0  0
   12.9096  -19.6579   24.2520 N   0  0  0  0  0  0  0  0  0  0  0  0
   12.2208  -20.8088   24.1797 C   0  0  0  0  0  0  0  0  0  0  0  0
   11.7637  -20.9020   22.9112 N   0  0  0  0  0  0  0  0  0  0  0  0
   13.3261  -18.3969   19.1388 C   0  0  0  0  0  0  0  0  0  0  0  0
   14.5489  -18.1586   19.1080 O   0  0  0  0  0  0  0  0  0  0  0  0
   12.6808  -18.7765   17.9811 O   0  0  0  0  0  0  0  0  0  0  0  0
  2  1  1  1
  2 13  1  0
  2  3  1  0
  4  5  2  0
  4  3  1  0
  6  5  1  0
  7 12  2  0
  7  6  1  0
  8  7  1  0
  9 10  1  0
  9  8  2  0
 10 11  2  0
 11 12  1  0
 12  4  1  0
 13 14  2  0
 16 15  1  1
 16 17  1  0
 16 18  1  0
 18 19  1  1
 19 13  1  0
 20 22  1  0
 20 18  1  0
 21 20  2  0
 23 22  1  0
 23 30  1  0
 23 24  1  6
 25 29  1  0
 25 24  1  0
 26 25  2  0
 27 26  1  0
 27 28  1  0
 28 29  2  0
 30 32  1  0
 31 30  2  0
M  END
$$$$
