WTH.pdb
     RDKit          3D

 32 34  0  0  1  0  0  0  0  0999 V2000
   10.0020  -15.9371   17.0407 N   0  0  0  0  0  0  0  0  0  0  0  0
   10.6844  -15.6588   18.2806 C   0  0  1  0  0  0  0  0  0  0  0  0
   10.0721  -16.4159   19.4147 C   0  0  0  0  0  0  0  0  0  0  0  0
    9.0462  -15.6020   20.1013 C   0  0  0  0  0  0  0  0  0  0  0  0
    8.2103  -16.0405   21.1151 C   0  0  0  0  0  0  0  0  0  0  0  0
    7.4458  -14.9849   21.4434 N   0  0  0  0  0  0  0  0  0  0  0  0
    7.7635  -13.9185   20.6880 C   0  0  0  0  0  0  0  0  0  0  0  0
    7.3005  -12.6135   20.6128 C   0  0  0  0  0  0  0  0  0  0  0  0
    7.8326  -11.7263   19.7171 C   0  0  0  0  0  0  0  0  0  0  0  0
    8.8494  -12.1038   18.8584 C   0  0  0  0  0  0  0  0  0  0  0  0
    9.3259  -13.3938   18.9140 C   0  0  0  0  0  0  0  0  0  0  0  0
    8.7810  -14.2794   19.8218 C   0  0  0  0  0  0  0  0  0  0  0  0
   12.1116  -16.0908   18.1222 C   0  0  0  0  0  0  0  0  0  0  0  0
   12.4492  -17.0283   17.3558 O   0  0  0  0  0  0  0  0  0  0  0  0
   14.8451  -14.1236   16.8326 C   0  0  0  0  0  0  0  0  0  0  0  0
   15.3621  -14.6787   18.1413 C   0  0  1  0  0  0  0  0  0  0  0  0
   15.2536  -13.6152   19.0518 O   0  0  0  0  0  0  0  0  0  0  0  0
   14.5473  -15.8661   18.6236 C   0  0  2  0  0  0  0  0  0  0  0  0
   13.1623  -15.4565   18.8374 N   0  0  0  0  0  0  0  0  0  0  0  0
   15.0707  -16.2329   19.9638 C   0  0  0  0  0  0  0  0  0  0  0  0
   14.2067  -16.6042   20.8302 O   0  0  0  0  0  0  0  0  0  0  0  0
   16.4114  -16.2124   20.3604 N   0  0  0  0  0  0  0  0  0  0  0  0
   16.7518  -16.8380   21.6512 C   0  0  1  0  0  0  0  0  0  0  0  0
   16.2017  -18.2505   21.6911 C   0  0  0  0  0  0  0  0  0  0  0  0
   14.9335  -18.2703   22.4146 C   0  0  0  0  0  0  0  0  0  0  0  0
   14.2773  -17.1811   22.9335 C   0  0  0  0  0  0  0  0  0  0  0  0
   13.1689  -17.6257   23.5105 N   0  0  0  0  0  0  0  0  0  0  0  0
   13.0943  -18.9603   23.3783 C   0  0  0  0  0  0  0  0  0  0  0  0
   14.1980  -19.3394   22.6962 N   0  0  0  0  0  0  0  0  0  0  0  0
   18.2060  -16.7599   21.8598 C   0  0  0  0  0  0  0  0  0  0  0  0
   18.9971  -16.9460   20.9151 O   0  0  0  0  0  0  0  0  0  0  0  0
   18.7035  -16.4777   23.1141 O   0  0  0  0  0  0  0  0  0  0  0  0
  2  1  1  6
  2 13  1  0
  2  3  1  0
  4  5  2  0
  4  3  1  0
  6  5  1  0
  7 12  2  0
  7  6  1  0
  8  7  1  0
  9 10  1  0
  9  8  2  0
 10 11  2  0
 11 12  1  0
 12  4  1  0
 13 14  2  0
 16 15  1  6
 16 17  1  0
 16 18  1  0
 18 19  1  1
 19 13  1  0
 20 22  1  0
 20 18  1  0
 21 20  2  0
 23 22  1  0
 23 30  1  0
 23 24  1  6
 25 29  1  0
 25 24  1  0
 26 25  2  0
 27 26  1  0
 27 28  1  0
 28 29  2  0
 30 32  1  0
 31 30  2  0
M  END
$$$$
