WTH.pdb
     RDKit          3D

 32 34  0  0  1  0  0  0  0  0999 V2000
    8.6757  -15.7730   21.4605 N   0  0  0  0  0  0  0  0  0  0  0  0
    8.8425  -15.8547   22.8909 C   0  0  1  0  0  0  0  0  0  0  0  0
    7.5232  -15.8006   23.5914 C   0  0  0  0  0  0  0  0  0  0  0  0
    7.0098  -14.4151   23.6463 C   0  0  0  0  0  0  0  0  0  0  0  0
    6.2404  -13.7980   22.6735 C   0  0  0  0  0  0  0  0  0  0  0  0
    5.9991  -12.5566   23.1288 N   0  0  0  0  0  0  0  0  0  0  0  0
    6.5771  -12.3731   24.3292 C   0  0  0  0  0  0  0  0  0  0  0  0
    6.6424  -11.3119   25.2196 C   0  0  0  0  0  0  0  0  0  0  0  0
    7.3254  -11.4223   26.4002 C   0  0  0  0  0  0  0  0  0  0  0  0
    7.9722  -12.5962   26.7424 C   0  0  0  0  0  0  0  0  0  0  0  0
    7.9217  -13.6637   25.8750 C   0  0  0  0  0  0  0  0  0  0  0  0
    7.2296  -13.5400   24.6873 C   0  0  0  0  0  0  0  0  0  0  0  0
    9.5028  -17.1653   23.1986 C   0  0  0  0  0  0  0  0  0  0  0  0
    9.2900  -18.2013   22.5192 O   0  0  0  0  0  0  0  0  0  0  0  0
   12.7745  -18.5175   22.8745 C   0  0  0  0  0  0  0  0  0  0  0  0
   12.4566  -18.6190   24.3499 C   0  0  1  0  0  0  0  0  0  0  0  0
   13.0570  -17.4882   24.9264 O   0  0  0  0  0  0  0  0  0  0  0  0
   10.9617  -18.6120   24.6174 C   0  0  2  0  0  0  0  0  0  0  0  0
   10.4096  -17.3024   24.2834 N   0  0  0  0  0  0  0  0  0  0  0  0
   10.7851  -18.7619   26.0841 C   0  0  0  0  0  0  0  0  0  0  0  0
   10.8333  -17.6876   26.7758 O   0  0  0  0  0  0  0  0  0  0  0  0
   10.5694  -19.9603   26.7714 N   0  0  0  0  0  0  0  0  0  0  0  0
   10.4246  -19.8910   28.2369 C   0  0  1  0  0  0  0  0  0  0  0  0
    9.6174  -21.0789   28.7236 C   0  0  0  0  0  0  0  0  0  0  0  0
    8.2427  -20.9771   28.2418 C   0  0  0  0  0  0  0  0  0  0  0  0
    7.6792  -19.8916   27.6171 C   0  0  0  0  0  0  0  0  0  0  0  0
    6.4197  -20.2038   27.3424 N   0  0  0  0  0  0  0  0  0  0  0  0
    6.1593  -21.4502   27.7697 C   0  0  0  0  0  0  0  0  0  0  0  0
    7.3025  -21.9112   28.3241 N   0  0  0  0  0  0  0  0  0  0  0  0
   11.7570  -19.7854   28.8517 C   0  0  0  0  0  0  0  0  0  0  0  0
   11.8828  -19.6653   30.0858 O   0  0  0  0  0  0  0  0  0  0  0  0
   12.8825  -19.8194   28.0565 O   0  0  0  0  0  0  0  0  0  0  0  0
  2  1  1  6
  2 13  1  0
  2  3  1  0
  4  5  2  0
  4  3  1  0
  6  5  1  0
  7 12  2  0
  7  6  1  0
  8  7  1  0
  9 10  1  0
  9  8  2  0
 10 11  2  0
 11 12  1  0
 12  4  1  0
 13 14  2  0
 16 15  1  6
 16 17  1  0
 16 18  1  0
 18 19  1  1
 19 13  1  0
 20 22  1  0
 20 18  1  0
 21 20  2  0
 23 22  1  0
 23 30  1  0
 23 24  1  1
 25 29  1  0
 25 24  1  0
 26 25  2  0
 27 26  1  0
 27 28  1  0
 28 29  2  0
 30 32  1  0
 31 30  2  0
M  END
$$$$
