WTH.pdb
     RDKit          3D

 32 34  0  0  1  0  0  0  0  0999 V2000
    6.4041  -17.6627   24.3116 N   0  0  0  0  0  0  0  0  0  0  0  0
    7.1212  -16.6080   23.6380 C   0  0  1  0  0  0  0  0  0  0  0  0
    8.0858  -15.9366   24.5617 C   0  0  0  0  0  0  0  0  0  0  0  0
    7.3748  -15.0991   25.5513 C   0  0  0  0  0  0  0  0  0  0  0  0
    6.5154  -15.5615   26.5344 C   0  0  0  0  0  0  0  0  0  0  0  0
    6.0999  -14.4711   27.2016 N   0  0  0  0  0  0  0  0  0  0  0  0
    6.6554  -13.3608   26.6846 C   0  0  0  0  0  0  0  0  0  0  0  0
    6.5731  -12.0089   26.9825 C   0  0  0  0  0  0  0  0  0  0  0  0
    7.2748  -11.0829   26.2595 C   0  0  0  0  0  0  0  0  0  0  0  0
    8.0885  -11.4667   25.2087 C   0  0  0  0  0  0  0  0  0  0  0  0
    8.1867  -12.8030   24.8938 C   0  0  0  0  0  0  0  0  0  0  0  0
    7.4740  -13.7273   25.6304 C   0  0  0  0  0  0  0  0  0  0  0  0
    7.8839  -17.2269   22.5050 C   0  0  0  0  0  0  0  0  0  0  0  0
    8.1725  -18.4501   22.4776 O   0  0  0  0  0  0  0  0  0  0  0  0
    6.9393  -16.7857   18.8744 C   0  0  0  0  0  0  0  0  0  0  0  0
    8.4352  -16.5821   18.9676 C   0  0  1  0  0  0  0  0  0  0  0  0
    8.6162  -15.1927   18.8745 O   0  0  0  0  0  0  0  0  0  0  0  0
    9.0047  -17.0978   20.2776 C   0  0  2  0  0  0  0  0  0  0  0  0
    8.3223  -16.4544   21.3964 N   0  0  0  0  0  0  0  0  0  0  0  0
   10.4146  -16.6369   20.3464 C   0  0  0  0  0  0  0  0  0  0  0  0
   10.6010  -15.3720   20.3349 O   0  0  0  0  0  0  0  0  0  0  0  0
   11.5470  -17.4533   20.4252 N   0  0  0  0  0  0  0  0  0  0  0  0
   12.4668  -17.2385   21.5572 C   0  0  1  0  0  0  0  0  0  0  0  0
   11.6942  -17.3132   22.8598 C   0  0  0  0  0  0  0  0  0  0  0  0
   12.1423  -18.4641   23.6388 C   0  0  0  0  0  0  0  0  0  0  0  0
   13.0831  -19.3881   23.2550 C   0  0  0  0  0  0  0  0  0  0  0  0
   13.1989  -20.2671   24.2415 N   0  0  0  0  0  0  0  0  0  0  0  0
   12.3652  -19.9368   25.2415 C   0  0  0  0  0  0  0  0  0  0  0  0
   11.7198  -18.8166   24.8473 N   0  0  0  0  0  0  0  0  0  0  0  0
   13.5778  -18.1988   21.4687 C   0  0  0  0  0  0  0  0  0  0  0  0
   13.4936  -19.2069   20.7409 O   0  0  0  0  0  0  0  0  0  0  0  0
   14.7277  -17.9845   22.1983 O   0  0  0  0  0  0  0  0  0  0  0  0
  2  1  1  1
  2 13  1  0
  2  3  1  0
  4  5  2  0
  4  3  1  0
  6  5  1  0
  7 12  2  0
  7  6  1  0
  8  7  1  0
  9 10  1  0
  9  8  2  0
 10 11  2  0
 11 12  1  0
 12  4  1  0
 13 14  2  0
 16 15  1  1
 16 17  1  0
 16 18  1  0
 18 19  1  1
 19 13  1  0
 20 22  1  0
 20 18  1  0
 21 20  2  0
 23 22  1  0
 23 30  1  0
 23 24  1  1
 25 29  1  0
 25 24  1  0
 26 25  2  0
 27 26  1  0
 27 28  1  0
 28 29  2  0
 30 32  1  0
 31 30  2  0
M  END
$$$$
