WTH.pdb
     RDKit          3D

 32 34  0  0  1  0  0  0  0  0999 V2000
    5.9698  -16.9813   20.2836 N   0  0  0  0  0  0  0  0  0  0  0  0
    6.8915  -16.4432   21.2538 C   0  0  1  0  0  0  0  0  0  0  0  0
    6.6831  -14.9747   21.4387 C   0  0  0  0  0  0  0  0  0  0  0  0
    7.2516  -14.2130   20.3061 C   0  0  0  0  0  0  0  0  0  0  0  0
    6.5271  -13.6143   19.2885 C   0  0  0  0  0  0  0  0  0  0  0  0
    7.4342  -13.0361   18.4827 N   0  0  0  0  0  0  0  0  0  0  0  0
    8.6792  -13.2448   18.9466 C   0  0  0  0  0  0  0  0  0  0  0  0
    9.9460  -12.8808   18.5157 C   0  0  0  0  0  0  0  0  0  0  0  0
   11.0626  -13.2494   19.2157 C   0  0  0  0  0  0  0  0  0  0  0  0
   10.9623  -13.9968   20.3754 C   0  0  0  0  0  0  0  0  0  0  0  0
    9.7156  -14.3703   20.8234 C   0  0  0  0  0  0  0  0  0  0  0  0
    8.5970  -13.9924   20.1086 C   0  0  0  0  0  0  0  0  0  0  0  0
    6.6374  -17.1382   22.5580 C   0  0  0  0  0  0  0  0  0  0  0  0
    5.4772  -17.3927   22.9694 O   0  0  0  0  0  0  0  0  0  0  0  0
    6.9665  -20.4605   23.6631 C   0  0  0  0  0  0  0  0  0  0  0  0
    7.8427  -19.6606   24.6014 C   0  0  1  0  0  0  0  0  0  0  0  0
    9.1361  -19.7670   24.0651 O   0  0  0  0  0  0  0  0  0  0  0  0
    7.4247  -18.2025   24.6751 C   0  0  2  0  0  0  0  0  0  0  0  0
    7.7052  -17.5467   23.4012 N   0  0  0  0  0  0  0  0  0  0  0  0
    8.3128  -17.5486   25.6693 C   0  0  0  0  0  0  0  0  0  0  0  0
    9.3428  -16.9498   25.2053 O   0  0  0  0  0  0  0  0  0  0  0  0
    8.1251  -17.5256   27.0547 N   0  0  0  0  0  0  0  0  0  0  0  0
    9.1590  -16.8667   27.8735 C   0  0  1  0  0  0  0  0  0  0  0  0
    8.5442  -15.7027   28.6264 C   0  0  0  0  0  0  0  0  0  0  0  0
    7.9370  -14.7662   27.6849 C   0  0  0  0  0  0  0  0  0  0  0  0
    6.5950  -14.6293   27.4269 C   0  0  0  0  0  0  0  0  0  0  0  0
    6.4635  -13.6759   26.5142 N   0  0  0  0  0  0  0  0  0  0  0  0
    7.6742  -13.1994   26.1804 C   0  0  0  0  0  0  0  0  0  0  0  0
    8.5732  -13.8890   26.9175 N   0  0  0  0  0  0  0  0  0  0  0  0
    9.7990  -17.8658   28.7431 C   0  0  0  0  0  0  0  0  0  0  0  0
    9.3209  -18.1389   29.8611 O   0  0  0  0  0  0  0  0  0  0  0  0
   10.9418  -18.5102   28.3196 O   0  0  0  0  0  0  0  0  0  0  0  0
  2  1  1  6
  2 13  1  0
  2  3  1  0
  4  5  2  0
  4  3  1  0
  6  5  1  0
  7 12  2  0
  7  6  1  0
  8  7  1  0
  9 10  1  0
  9  8  2  0
 10 11  2  0
 11 12  1  0
 12  4  1  0
 13 14  2  0
 16 15  1  6
 16 17  1  0
 16 18  1  0
 18 19  1  6
 19 13  1  0
 20 22  1  0
 20 18  1  0
 21 20  2  0
 23 22  1  0
 23 30  1  0
 23 24  1  1
 25 29  1  0
 25 24  1  0
 26 25  2  0
 27 26  1  0
 27 28  1  0
 28 29  2  0
 30 32  1  0
 31 30  2  0
M  END
$$$$
