WTH.pdb
     RDKit          3D

 32 34  0  0  1  0  0  0  0  0999 V2000
    6.4812  -17.3696   23.5828 N   0  0  0  0  0  0  0  0  0  0  0  0
    7.7430  -16.6711   23.5608 C   0  0  1  0  0  0  0  0  0  0  0  0
    8.1731  -16.2914   24.9411 C   0  0  0  0  0  0  0  0  0  0  0  0
    7.2493  -15.2974   25.5283 C   0  0  0  0  0  0  0  0  0  0  0  0
    6.0196  -15.5755   26.1024 C   0  0  0  0  0  0  0  0  0  0  0  0
    5.5250  -14.3916   26.5028 N   0  0  0  0  0  0  0  0  0  0  0  0
    6.3815  -13.3976   26.2076 C   0  0  0  0  0  0  0  0  0  0  0  0
    6.3700  -12.0234   26.3930 C   0  0  0  0  0  0  0  0  0  0  0  0
    7.4159  -11.2460   25.9753 C   0  0  0  0  0  0  0  0  0  0  0  0
    8.5177  -11.8071   25.3550 C   0  0  0  0  0  0  0  0  0  0  0  0
    8.5525  -13.1691   25.1597 C   0  0  0  0  0  0  0  0  0  0  0  0
    7.4915  -13.9424   25.5854 C   0  0  0  0  0  0  0  0  0  0  0  0
    8.7654  -17.5954   22.9702 C   0  0  0  0  0  0  0  0  0  0  0  0
    8.7357  -18.8382   23.1568 O   0  0  0  0  0  0  0  0  0  0  0  0
   10.7581  -17.2523   19.4124 C   0  0  0  0  0  0  0  0  0  0  0  0
   11.6729  -17.4197   20.6053 C   0  0  1  0  0  0  0  0  0  0  0  0
   12.1444  -16.1264   20.8822 O   0  0  0  0  0  0  0  0  0  0  0  0
   10.9444  -17.9814   21.8137 C   0  0  2  0  0  0  0  0  0  0  0  0
    9.8281  -17.1078   22.1634 N   0  0  0  0  0  0  0  0  0  0  0  0
   11.8873  -17.9086   22.9585 C   0  0  0  0  0  0  0  0  0  0  0  0
   11.5709  -17.1112   23.9066 O   0  0  0  0  0  0  0  0  0  0  0  0
   13.0780  -18.6289   23.0942 N   0  0  0  0  0  0  0  0  0  0  0  0
   13.3170  -19.3189   24.3750 C   0  0  1  0  0  0  0  0  0  0  0  0
   12.2028  -20.3154   24.6300 C   0  0  0  0  0  0  0  0  0  0  0  0
   11.3783  -19.8648   25.7477 C   0  0  0  0  0  0  0  0  0  0  0  0
   11.5562  -18.7141   26.4760 C   0  0  0  0  0  0  0  0  0  0  0  0
   10.6010  -18.6769   27.3955 N   0  0  0  0  0  0  0  0  0  0  0  0
    9.8196  -19.7633   27.2798 C   0  0  0  0  0  0  0  0  0  0  0  0
   10.3191  -20.4861   26.2527 N   0  0  0  0  0  0  0  0  0  0  0  0
   14.6599  -19.9194   24.3595 C   0  0  0  0  0  0  0  0  0  0  0  0
   15.1493  -20.4150   25.3929 O   0  0  0  0  0  0  0  0  0  0  0  0
   15.3889  -19.9361   23.1896 O   0  0  0  0  0  0  0  0  0  0  0  0
  2  1  1  1
  2 13  1  0
  2  3  1  0
  4  5  2  0
  4  3  1  0
  6  5  1  0
  7 12  2  0
  7  6  1  0
  8  7  1  0
  9 10  1  0
  9  8  2  0
 10 11  2  0
 11 12  1  0
 12  4  1  0
 13 14  2  0
 16 15  1  6
 16 17  1  0
 16 18  1  0
 18 19  1  1
 19 13  1  0
 20 22  1  0
 20 18  1  0
 21 20  2  0
 23 22  1  0
 23 30  1  0
 23 24  1  6
 25 29  1  0
 25 24  1  0
 26 25  2  0
 27 26  1  0
 27 28  1  0
 28 29  2  0
 30 32  1  0
 31 30  2  0
M  END
$$$$
