WTH.pdb
     RDKit          3D

 32 34  0  0  1  0  0  0  0  0999 V2000
    6.5641  -17.3334   23.4618 N   0  0  0  0  0  0  0  0  0  0  0  0
    7.7132  -16.4920   23.6902 C   0  0  1  0  0  0  0  0  0  0  0  0
    7.8935  -16.2096   25.1469 C   0  0  0  0  0  0  0  0  0  0  0  0
    6.9270  -15.1918   25.6120 C   0  0  0  0  0  0  0  0  0  0  0  0
    5.7397  -15.4479   26.2781 C   0  0  0  0  0  0  0  0  0  0  0  0
    5.1819  -14.2471   26.5094 N   0  0  0  0  0  0  0  0  0  0  0  0
    5.9594  -13.2635   26.0228 C   0  0  0  0  0  0  0  0  0  0  0  0
    5.8629  -11.8805   25.9899 C   0  0  0  0  0  0  0  0  0  0  0  0
    6.8393  -11.1185   25.4079 C   0  0  0  0  0  0  0  0  0  0  0  0
    7.9532  -11.7043   24.8340 C   0  0  0  0  0  0  0  0  0  0  0  0
    8.0717  -13.0755   24.8541 C   0  0  0  0  0  0  0  0  0  0  0  0
    7.0803  -13.8331   25.4441 C   0  0  0  0  0  0  0  0  0  0  0  0
    8.9208  -17.2225   23.1837 C   0  0  0  0  0  0  0  0  0  0  0  0
    8.9498  -18.4738   23.0670 O   0  0  0  0  0  0  0  0  0  0  0  0
   11.0391  -16.2104   19.9949 C   0  0  0  0  0  0  0  0  0  0  0  0
   11.9276  -16.4344   21.1985 C   0  0  1  0  0  0  0  0  0  0  0  0
   12.2044  -15.1472   21.6865 O   0  0  0  0  0  0  0  0  0  0  0  0
   11.2443  -17.2652   22.2705 C   0  0  2  0  0  0  0  0  0  0  0  0
   10.1028  -16.5302   22.8076 N   0  0  0  0  0  0  0  0  0  0  0  0
   12.2057  -17.3943   23.3946 C   0  0  0  0  0  0  0  0  0  0  0  0
   13.3612  -17.8588   23.1048 O   0  0  0  0  0  0  0  0  0  0  0  0
   11.9656  -17.0541   24.7294 N   0  0  0  0  0  0  0  0  0  0  0  0
   13.0734  -17.2224   25.6875 C   0  0  1  0  0  0  0  0  0  0  0  0
   12.5172  -17.3119   27.0954 C   0  0  0  0  0  0  0  0  0  0  0  0
   11.5754  -16.2207   27.3286 C   0  0  0  0  0  0  0  0  0  0  0  0
   11.8569  -14.8779   27.2677 C   0  0  0  0  0  0  0  0  0  0  0  0
   10.7349  -14.2262   27.5428 N   0  0  0  0  0  0  0  0  0  0  0  0
    9.7471  -15.1056   27.7771 C   0  0  0  0  0  0  0  0  0  0  0  0
   10.2896  -16.3359   27.6393 N   0  0  0  0  0  0  0  0  0  0  0  0
   13.8836  -18.3853   25.2931 C   0  0  0  0  0  0  0  0  0  0  0  0
   13.3618  -19.5079   25.1504 O   0  0  0  0  0  0  0  0  0  0  0  0
   15.2370  -18.2353   25.0777 O   0  0  0  0  0  0  0  0  0  0  0  0
  2  1  1  1
  2 13  1  0
  2  3  1  0
  4  5  2  0
  4  3  1  0
  6  5  1  0
  7 12  2  0
  7  6  1  0
  8  7  1  0
  9 10  1  0
  9  8  2  0
 10 11  2  0
 11 12  1  0
 12  4  1  0
 13 14  2  0
 16 15  1  6
 16 17  1  0
 16 18  1  0
 18 19  1  1
 19 13  1  0
 20 22  1  0
 20 18  1  0
 21 20  2  0
 23 22  1  0
 23 30  1  0
 23 24  1  1
 25 29  1  0
 25 24  1  0
 26 25  2  0
 27 26  1  0
 27 28  1  0
 28 29  2  0
 30 32  1  0
 31 30  2  0
M  END
$$$$
