WTH.pdb
     RDKit          3D

 32 34  0  0  1  0  0  0  0  0999 V2000
    6.8526  -17.9837   24.7986 N   0  0  0  0  0  0  0  0  0  0  0  0
    7.6821  -17.1225   23.9920 C   0  0  1  0  0  0  0  0  0  0  0  0
    8.4672  -16.1780   24.8440 C   0  0  0  0  0  0  0  0  0  0  0  0
    7.5776  -15.2047   25.5128 C   0  0  0  0  0  0  0  0  0  0  0  0
    6.6135  -15.5076   26.4603 C   0  0  0  0  0  0  0  0  0  0  0  0
    6.0478  -14.3356   26.7965 N   0  0  0  0  0  0  0  0  0  0  0  0
    6.6096  -13.3255   26.1088 C   0  0  0  0  0  0  0  0  0  0  0  0
    6.4116  -11.9535   26.0699 C   0  0  0  0  0  0  0  0  0  0  0  0
    7.1573  -11.1559   25.2451 C   0  0  0  0  0  0  0  0  0  0  0  0
    8.1323  -11.6936   24.4242 C   0  0  0  0  0  0  0  0  0  0  0  0
    8.3477  -13.0528   24.4451 C   0  0  0  0  0  0  0  0  0  0  0  0
    7.5890  -13.8467   25.2812 C   0  0  0  0  0  0  0  0  0  0  0  0
    8.6339  -17.9927   23.2269 C   0  0  0  0  0  0  0  0  0  0  0  0
    9.2019  -18.9866   23.7461 O   0  0  0  0  0  0  0  0  0  0  0  0
    7.7979  -20.1677   20.4922 C   0  0  0  0  0  0  0  0  0  0  0  0
    8.9010  -19.2703   19.9763 C   0  0  1  0  0  0  0  0  0  0  0  0
    8.2369  -18.2432   19.2866 O   0  0  0  0  0  0  0  0  0  0  0  0
    9.7411  -18.6886   21.0998 C   0  0  2  0  0  0  0  0  0  0  0  0
    8.9440  -17.7342   21.8649 N   0  0  0  0  0  0  0  0  0  0  0  0
   10.8213  -17.8930   20.4635 C   0  0  0  0  0  0  0  0  0  0  0  0
   10.4857  -16.7537   19.9901 O   0  0  0  0  0  0  0  0  0  0  0  0
   12.1615  -18.2718   20.3388 N   0  0  0  0  0  0  0  0  0  0  0  0
   13.0841  -17.3184   19.6957 C   0  0  1  0  0  0  0  0  0  0  0  0
   13.0555  -16.0007   20.4456 C   0  0  0  0  0  0  0  0  0  0  0  0
   14.0982  -15.1150   19.9350 C   0  0  0  0  0  0  0  0  0  0  0  0
   14.0491  -14.3900   18.7697 C   0  0  0  0  0  0  0  0  0  0  0  0
   15.1897  -13.7199   18.6731 N   0  0  0  0  0  0  0  0  0  0  0  0
   15.9651  -13.9915   19.7357 C   0  0  0  0  0  0  0  0  0  0  0  0
   15.2696  -14.8583   20.5051 N   0  0  0  0  0  0  0  0  0  0  0  0
   14.4222  -17.9231   19.6066 C   0  0  0  0  0  0  0  0  0  0  0  0
   14.6662  -19.0165   20.1524 O   0  0  0  0  0  0  0  0  0  0  0  0
   15.4212  -17.2754   18.9116 O   0  0  0  0  0  0  0  0  0  0  0  0
  2  1  1  1
  2 13  1  0
  2  3  1  0
  4  5  2  0
  4  3  1  0
  6  5  1  0
  7 12  2  0
  7  6  1  0
  8  7  1  0
  9 10  1  0
  9  8  2  0
 10 11  2  0
 11 12  1  0
 12  4  1  0
 13 14  2  0
 16 15  1  1
 16 17  1  0
 16 18  1  0
 18 19  1  1
 19 13  1  0
 20 22  1  0
 20 18  1  0
 21 20  2  0
 23 22  1  0
 23 30  1  0
 23 24  1  1
 25 29  1  0
 25 24  1  0
 26 25  2  0
 27 26  1  0
 27 28  1  0
 28 29  2  0
 30 32  1  0
 31 30  2  0
M  END
$$$$
