WTH.pdb
     RDKit          3D

 32 34  0  0  1  0  0  0  0  0999 V2000
    6.5006  -17.0038   23.4574 N   0  0  0  0  0  0  0  0  0  0  0  0
    7.6760  -16.1680   23.4768 C   0  0  1  0  0  0  0  0  0  0  0  0
    8.0919  -15.8551   24.8780 C   0  0  0  0  0  0  0  0  0  0  0  0
    7.1592  -14.8938   25.5044 C   0  0  0  0  0  0  0  0  0  0  0  0
    5.9660  -15.2148   26.1307 C   0  0  0  0  0  0  0  0  0  0  0  0
    5.4469  -14.0487   26.5519 N   0  0  0  0  0  0  0  0  0  0  0  0
    6.2540  -13.0253   26.2203 C   0  0  0  0  0  0  0  0  0  0  0  0
    6.2013  -11.6520   26.4061 C   0  0  0  0  0  0  0  0  0  0  0  0
    7.1998  -10.8384   25.9439 C   0  0  0  0  0  0  0  0  0  0  0  0
    8.2933  -11.3607   25.2769 C   0  0  0  0  0  0  0  0  0  0  0  0
    8.3684  -12.7209   25.0803 C   0  0  0  0  0  0  0  0  0  0  0  0
    7.3550  -13.5310   25.5511 C   0  0  0  0  0  0  0  0  0  0  0  0
    8.7814  -16.9205   22.7983 C   0  0  0  0  0  0  0  0  0  0  0  0
    8.8655  -18.1741   22.8398 O   0  0  0  0  0  0  0  0  0  0  0  0
   12.6859  -16.9143   19.7063 C   0  0  0  0  0  0  0  0  0  0  0  0
   11.5275  -16.1905   20.3562 C   0  0  1  0  0  0  0  0  0  0  0  0
   10.6015  -15.9890   19.3201 O   0  0  0  0  0  0  0  0  0  0  0  0
   10.8956  -17.0033   21.4727 C   0  0  2  0  0  0  0  0  0  0  0  0
    9.7978  -16.2477   22.0688 N   0  0  0  0  0  0  0  0  0  0  0  0
   11.9186  -17.1383   22.5404 C   0  0  0  0  0  0  0  0  0  0  0  0
   11.7316  -16.4455   23.5986 O   0  0  0  0  0  0  0  0  0  0  0  0
   13.0564  -17.9497   22.4957 N   0  0  0  0  0  0  0  0  0  0  0  0
   13.9369  -17.9580   23.6782 C   0  0  1  0  0  0  0  0  0  0  0  0
   13.7840  -19.2744   24.4152 C   0  0  0  0  0  0  0  0  0  0  0  0
   12.6979  -19.1776   25.3864 C   0  0  0  0  0  0  0  0  0  0  0  0
   11.9133  -18.0750   25.6203 C   0  0  0  0  0  0  0  0  0  0  0  0
   11.0507  -18.3992   26.5743 N   0  0  0  0  0  0  0  0  0  0  0  0
   11.2570  -19.6699   26.9576 C   0  0  0  0  0  0  0  0  0  0  0  0
   12.2823  -20.1336   26.2090 N   0  0  0  0  0  0  0  0  0  0  0  0
   15.3166  -17.6684   23.2580 C   0  0  0  0  0  0  0  0  0  0  0  0
   15.6433  -17.7258   22.0567 O   0  0  0  0  0  0  0  0  0  0  0  0
   16.2627  -17.3289   24.2015 O   0  0  0  0  0  0  0  0  0  0  0  0
  2  1  1  1
  2 13  1  0
  2  3  1  0
  4  5  2  0
  4  3  1  0
  6  5  1  0
  7 12  2  0
  7  6  1  0
  8  7  1  0
  9 10  1  0
  9  8  2  0
 10 11  2  0
 11 12  1  0
 12  4  1  0
 13 14  2  0
 16 15  1  6
 16 17  1  0
 16 18  1  0
 18 19  1  1
 19 13  1  0
 20 22  1  0
 20 18  1  0
 21 20  2  0
 23 22  1  0
 23 30  1  0
 23 24  1  6
 25 29  1  0
 25 24  1  0
 26 25  2  0
 27 26  1  0
 27 28  1  0
 28 29  2  0
 30 32  1  0
 31 30  2  0
M  END
$$$$
