EED.pdb
     RDKit          3D

 27 26  0  0  1  0  0  0  0  0999 V2000
   11.5898  -13.6374   18.3332 N   0  0  0  0  0  0  0  0  0  0  0  0
   12.1082  -14.9146   18.6142 C   0  0  1  0  0  0  0  0  0  0  0  0
   13.5452  -15.1962   18.3305 C   0  0  0  0  0  0  0  0  0  0  0  0
   14.4236  -14.0017   18.4693 C   0  0  0  0  0  0  0  0  0  0  0  0
   15.7931  -14.2448   18.0053 C   0  0  0  0  0  0  0  0  0  0  0  0
   16.5952  -14.9344   18.6634 O   0  0  0  0  0  0  0  0  0  0  0  0
   11.8741  -15.3700   20.0369 C   0  0  0  0  0  0  0  0  0  0  0  0
   12.1721  -14.5732   20.9843 O   0  0  0  0  0  0  0  0  0  0  0  0
   16.2032  -13.6803   16.7862 O   0  0  0  0  0  0  0  0  0  0  0  0
   11.3471  -16.6263   20.3855 N   0  0  0  0  0  0  0  0  0  0  0  0
   11.1739  -16.9637   21.7914 C   0  0  1  0  0  0  0  0  0  0  0  0
   10.2745  -18.1315   22.0235 C   0  0  0  0  0  0  0  0  0  0  0  0
   10.2347  -18.4347   23.5105 C   0  0  0  0  0  0  0  0  0  0  0  0
    9.4811  -19.6750   23.7595 C   0  0  0  0  0  0  0  0  0  0  0  0
    9.9874  -20.5519   24.5018 O   0  0  0  0  0  0  0  0  0  0  0  0
   12.5306  -17.3372   22.3635 C   0  0  0  0  0  0  0  0  0  0  0  0
   13.1078  -18.2979   21.8518 O   0  0  0  0  0  0  0  0  0  0  0  0
    8.2449  -19.8356   23.1723 O   0  0  0  0  0  0  0  0  0  0  0  0
   13.0978  -16.6231   23.4231 N   0  0  0  0  0  0  0  0  0  0  0  0
   14.3465  -16.9570   24.0660 C   0  0  1  0  0  0  0  0  0  0  0  0
   15.1995  -15.7659   24.3207 C   0  0  0  0  0  0  0  0  0  0  0  0
   16.4985  -15.9084   23.6409 C   0  0  0  0  0  0  0  0  0  0  0  0
   16.5129  -16.0300   22.3923 O   0  0  0  0  0  0  0  0  0  0  0  0
   14.2120  -17.7995   25.2549 C   0  0  0  0  0  0  0  0  0  0  0  0
   13.1049  -17.8884   25.8364 O   0  0  0  0  0  0  0  0  0  0  0  0
   17.6896  -15.9107   24.3478 O   0  0  0  0  0  0  0  0  0  0  0  0
   15.2477  -18.5314   25.8016 O   0  0  0  0  0  0  0  0  0  0  0  0
  2  1  1  1
  2  7  1  0
  3  2  1  0
  4  3  1  0
  5  6  2  0
  5  4  1  0
  7  8  2  0
  9  5  1  0
 10  7  1  0
 10 11  1  0
 11 12  1  6
 13 12  1  0
 14 13  1  0
 15 14  2  0
 16 11  1  0
 16 17  2  0
 18 14  1  0
 19 16  1  0
 20 19  1  0
 20 21  1  1
 22 21  1  0
 23 22  2  0
 24 20  1  0
 25 24  2  0
 26 22  1  0
 27 24  1  0
M  END
$$$$
