EED.pdb
     RDKit          3D

 27 26  0  0  1  0  0  0  0  0999 V2000
    7.3949  -17.5215   20.3733 N   0  0  0  0  0  0  0  0  0  0  0  0
    8.5832  -16.7736   20.2868 C   0  0  1  0  0  0  0  0  0  0  0  0
    8.7784  -15.8464   19.1348 C   0  0  0  0  0  0  0  0  0  0  0  0
    7.6837  -15.9116   18.1273 C   0  0  0  0  0  0  0  0  0  0  0  0
    8.1564  -16.3091   16.7975 C   0  0  0  0  0  0  0  0  0  0  0  0
    9.1186  -15.7403   16.2471 O   0  0  0  0  0  0  0  0  0  0  0  0
    8.8842  -15.9587   21.5245 C   0  0  0  0  0  0  0  0  0  0  0  0
    9.9821  -15.3157   21.5738 O   0  0  0  0  0  0  0  0  0  0  0  0
    7.5004  -17.3587   16.1335 O   0  0  0  0  0  0  0  0  0  0  0  0
    8.0257  -15.8653   22.6344 N   0  0  0  0  0  0  0  0  0  0  0  0
    8.4335  -15.0776   23.7892 C   0  0  1  0  0  0  0  0  0  0  0  0
    7.3069  -14.3650   24.4597 C   0  0  0  0  0  0  0  0  0  0  0  0
    7.8607  -13.5331   25.6024 C   0  0  0  0  0  0  0  0  0  0  0  0
    6.7784  -12.7801   26.2581 C   0  0  0  0  0  0  0  0  0  0  0  0
    5.5885  -13.0476   25.9603 O   0  0  0  0  0  0  0  0  0  0  0  0
    9.0311  -16.0179   24.8218 C   0  0  0  0  0  0  0  0  0  0  0  0
    8.3460  -16.9841   25.1610 O   0  0  0  0  0  0  0  0  0  0  0  0
    7.1033  -11.8066   27.1777 O   0  0  0  0  0  0  0  0  0  0  0  0
   10.3010  -15.7963   25.3628 N   0  0  0  0  0  0  0  0  0  0  0  0
   10.9590  -16.6706   26.3044 C   0  0  1  0  0  0  0  0  0  0  0  0
   12.4416  -16.6083   26.2090 C   0  0  0  0  0  0  0  0  0  0  0  0
   12.9771  -17.8758   25.6829 C   0  0  0  0  0  0  0  0  0  0  0  0
   12.1938  -18.8452   25.5392 O   0  0  0  0  0  0  0  0  0  0  0  0
   10.4923  -16.5386   27.6850 C   0  0  0  0  0  0  0  0  0  0  0  0
   10.1537  -15.4150   28.1261 O   0  0  0  0  0  0  0  0  0  0  0  0
   14.3140  -18.0140   25.3485 O   0  0  0  0  0  0  0  0  0  0  0  0
   10.3906  -17.5956   28.5682 O   0  0  0  0  0  0  0  0  0  0  0  0
  2  1  1  1
  2  7  1  0
  3  2  1  0
  4  3  1  0
  5  6  2  0
  5  4  1  0
  7  8  2  0
  9  5  1  0
 10  7  1  0
 10 11  1  0
 11 12  1  1
 13 12  1  0
 14 13  1  0
 15 14  2  0
 16 11  1  0
 16 17  2  0
 18 14  1  0
 19 16  1  0
 20 19  1  0
 20 21  1  1
 22 21  1  0
 23 22  2  0
 24 20  1  0
 25 24  2  0
 26 22  1  0
 27 24  1  0
M  END
$$$$
