EED.pdb
     RDKit          3D

 27 26  0  0  1  0  0  0  0  0999 V2000
   10.2516  -18.0026   15.8840 N   0  0  0  0  0  0  0  0  0  0  0  0
    9.8523  -16.6777   16.1369 C   0  0  1  0  0  0  0  0  0  0  0  0
    8.8998  -16.0126   15.2013 C   0  0  0  0  0  0  0  0  0  0  0  0
    8.0385  -16.9682   14.4512 C   0  0  0  0  0  0  0  0  0  0  0  0
    7.1893  -16.3082   13.4546 C   0  0  0  0  0  0  0  0  0  0  0  0
    7.2987  -15.0931   13.2022 O   0  0  0  0  0  0  0  0  0  0  0  0
    9.2833  -16.4643   17.5215 C   0  0  0  0  0  0  0  0  0  0  0  0
    8.9794  -15.2794   17.8751 O   0  0  0  0  0  0  0  0  0  0  0  0
    6.2292  -17.0735   12.7724 O   0  0  0  0  0  0  0  0  0  0  0  0
    9.0680  -17.4959   18.4525 N   0  0  0  0  0  0  0  0  0  0  0  0
    8.7105  -17.1587   19.8232 C   0  0  1  0  0  0  0  0  0  0  0  0
    7.5451  -17.9289   20.3479 C   0  0  0  0  0  0  0  0  0  0  0  0
    7.4570  -19.2527   19.6100 C   0  0  0  0  0  0  0  0  0  0  0  0
    6.2795  -20.0127   20.0618 C   0  0  0  0  0  0  0  0  0  0  0  0
    5.2640  -20.0500   19.3246 O   0  0  0  0  0  0  0  0  0  0  0  0
    9.8913  -17.4892   20.7198 C   0  0  0  0  0  0  0  0  0  0  0  0
   10.7299  -18.2737   20.2735 O   0  0  0  0  0  0  0  0  0  0  0  0
    6.3275  -20.6596   21.2776 O   0  0  0  0  0  0  0  0  0  0  0  0
   10.0199  -16.9286   21.9941 N   0  0  0  0  0  0  0  0  0  0  0  0
   11.2615  -16.8129   22.7214 C   0  0  1  0  0  0  0  0  0  0  0  0
   12.2021  -15.8407   22.1040 C   0  0  0  0  0  0  0  0  0  0  0  0
   13.5791  -16.3624   22.1408 C   0  0  0  0  0  0  0  0  0  0  0  0
   13.7807  -17.4902   22.6521 O   0  0  0  0  0  0  0  0  0  0  0  0
   11.1053  -16.5878   24.1588 C   0  0  0  0  0  0  0  0  0  0  0  0
   12.1153  -16.5615   24.9011 O   0  0  0  0  0  0  0  0  0  0  0  0
   14.6421  -15.6382   21.6271 O   0  0  0  0  0  0  0  0  0  0  0  0
    9.8875  -16.3925   24.7802 O   0  0  0  0  0  0  0  0  0  0  0  0
  2  1  1  6
  2  7  1  0
  3  2  1  0
  4  3  1  0
  5  6  2  0
  5  4  1  0
  7  8  2  0
  9  5  1  0
 10  7  1  0
 10 11  1  0
 11 12  1  1
 13 12  1  0
 14 13  1  0
 15 14  2  0
 16 11  1  0
 16 17  2  0
 18 14  1  0
 19 16  1  0
 20 19  1  0
 20 21  1  6
 22 21  1  0
 23 22  2  0
 24 20  1  0
 25 24  2  0
 26 22  1  0
 27 24  1  0
M  END
$$$$
