EED.pdb
     RDKit          3D

 27 26  0  0  1  0  0  0  0  0999 V2000
   14.3338  -18.9575   17.4115 N   0  0  0  0  0  0  0  0  0  0  0  0
   14.9291  -17.7853   17.9119 C   0  0  1  0  0  0  0  0  0  0  0  0
   15.5455  -16.8172   16.9592 C   0  0  0  0  0  0  0  0  0  0  0  0
   15.6006  -17.3162   15.5572 C   0  0  0  0  0  0  0  0  0  0  0  0
   16.2118  -16.3548   14.6340 C   0  0  0  0  0  0  0  0  0  0  0  0
   15.6666  -16.0419   13.5584 O   0  0  0  0  0  0  0  0  0  0  0  0
   14.0167  -16.9657   18.7964 C   0  0  0  0  0  0  0  0  0  0  0  0
   14.4935  -15.9303   19.3637 O   0  0  0  0  0  0  0  0  0  0  0  0
   17.4450  -15.7777   14.9790 O   0  0  0  0  0  0  0  0  0  0  0  0
   12.6664  -17.2754   19.0375 N   0  0  0  0  0  0  0  0  0  0  0  0
   11.8965  -16.4491   19.9566 C   0  0  1  0  0  0  0  0  0  0  0  0
   10.4292  -16.4539   19.6852 C   0  0  0  0  0  0  0  0  0  0  0  0
   10.1906  -16.9667   18.2764 C   0  0  0  0  0  0  0  0  0  0  0  0
    8.7491  -17.1456   18.0346 C   0  0  0  0  0  0  0  0  0  0  0  0
    7.9420  -16.8674   18.9551 O   0  0  0  0  0  0  0  0  0  0  0  0
   12.0822  -16.9969   21.3612 C   0  0  0  0  0  0  0  0  0  0  0  0
   11.8689  -18.1992   21.5251 O   0  0  0  0  0  0  0  0  0  0  0  0
    8.3298  -17.6114   16.8074 O   0  0  0  0  0  0  0  0  0  0  0  0
   12.4769  -16.1734   22.4198 N   0  0  0  0  0  0  0  0  0  0  0  0
   12.6892  -16.6205   23.7759 C   0  0  1  0  0  0  0  0  0  0  0  0
   13.9113  -16.0370   24.3899 C   0  0  0  0  0  0  0  0  0  0  0  0
   15.0962  -16.3454   23.5709 C   0  0  0  0  0  0  0  0  0  0  0  0
   15.2542  -17.5208   23.1617 O   0  0  0  0  0  0  0  0  0  0  0  0
   11.5217  -16.4909   24.6485 C   0  0  0  0  0  0  0  0  0  0  0  0
   10.5096  -15.8670   24.2507 O   0  0  0  0  0  0  0  0  0  0  0  0
   16.0275  -15.3721   23.2488 O   0  0  0  0  0  0  0  0  0  0  0  0
   11.4472  -17.0250   25.9199 O   0  0  0  0  0  0  0  0  0  0  0  0
  2  1  1  6
  2  7  1  0
  3  2  1  0
  4  3  1  0
  5  6  2  0
  5  4  1  0
  7  8  2  0
  9  5  1  0
 10  7  1  0
 10 11  1  0
 11 12  1  6
 13 12  1  0
 14 13  1  0
 15 14  2  0
 16 11  1  0
 16 17  2  0
 18 14  1  0
 19 16  1  0
 20 19  1  0
 20 21  1  1
 22 21  1  0
 23 22  2  0
 24 20  1  0
 25 24  2  0
 26 22  1  0
 27 24  1  0
M  END
$$$$
