EED.pdb
     RDKit          3D

 27 26  0  0  1  0  0  0  0  0999 V2000
   12.2400  -19.9597   19.3687 N   0  0  0  0  0  0  0  0  0  0  0  0
   12.7405  -18.7889   18.7706 C   0  0  1  0  0  0  0  0  0  0  0  0
   11.9281  -18.0995   17.7268 C   0  0  0  0  0  0  0  0  0  0  0  0
   10.8549  -18.9544   17.1480 C   0  0  0  0  0  0  0  0  0  0  0  0
   10.1587  -18.3141   16.0276 C   0  0  0  0  0  0  0  0  0  0  0  0
   10.7694  -17.9202   15.0157 O   0  0  0  0  0  0  0  0  0  0  0  0
   13.1316  -17.7154   19.7611 C   0  0  0  0  0  0  0  0  0  0  0  0
   13.5951  -16.6176   19.3124 O   0  0  0  0  0  0  0  0  0  0  0  0
    8.7667  -18.1432   16.1066 O   0  0  0  0  0  0  0  0  0  0  0  0
   13.0185  -17.8515   21.1561 N   0  0  0  0  0  0  0  0  0  0  0  0
   13.4619  -16.7653   22.0187 C   0  0  1  0  0  0  0  0  0  0  0  0
   12.5035  -16.4374   23.1142 C   0  0  0  0  0  0  0  0  0  0  0  0
   11.0892  -16.4962   22.5655 C   0  0  0  0  0  0  0  0  0  0  0  0
   10.1112  -16.3213   23.6524 C   0  0  0  0  0  0  0  0  0  0  0  0
    8.8901  -16.2713   23.3653 O   0  0  0  0  0  0  0  0  0  0  0  0
   14.7603  -17.1851   22.6859 C   0  0  0  0  0  0  0  0  0  0  0  0
   14.9154  -18.3884   22.9001 O   0  0  0  0  0  0  0  0  0  0  0  0
   10.5646  -16.2188   24.9496 O   0  0  0  0  0  0  0  0  0  0  0  0
   15.7349  -16.2479   23.0413 N   0  0  0  0  0  0  0  0  0  0  0  0
   16.9654  -16.5597   23.7289 C   0  0  1  0  0  0  0  0  0  0  0  0
   18.0415  -15.5690   23.4612 C   0  0  0  0  0  0  0  0  0  0  0  0
   18.3175  -15.4866   22.0166 C   0  0  0  0  0  0  0  0  0  0  0  0
   18.0737  -16.4875   21.3005 O   0  0  0  0  0  0  0  0  0  0  0  0
   16.8112  -16.8291   25.1589 C   0  0  0  0  0  0  0  0  0  0  0  0
   15.7470  -16.5164   25.7431 O   0  0  0  0  0  0  0  0  0  0  0  0
   18.8353  -14.3375   21.4425 O   0  0  0  0  0  0  0  0  0  0  0  0
   17.7822  -17.4249   25.9396 O   0  0  0  0  0  0  0  0  0  0  0  0
  2  1  1  1
  2  7  1  0
  3  2  1  0
  4  3  1  0
  5  6  2  0
  5  4  1  0
  7  8  2  0
  9  5  1  0
 10  7  1  0
 10 11  1  0
 11 12  1  1
 13 12  1  0
 14 13  1  0
 15 14  2  0
 16 11  1  0
 16 17  2  0
 18 14  1  0
 19 16  1  0
 20 19  1  0
 20 21  1  1
 22 21  1  0
 23 22  2  0
 24 20  1  0
 25 24  2  0
 26 22  1  0
 27 24  1  0
M  END
$$$$
