EED.pdb
     RDKit          3D

 27 26  0  0  1  0  0  0  0  0999 V2000
   13.8081  -19.9096   16.2812 N   0  0  0  0  0  0  0  0  0  0  0  0
   13.1632  -18.8801   16.9906 C   0  0  1  0  0  0  0  0  0  0  0  0
   11.7496  -18.5403   16.6574 C   0  0  0  0  0  0  0  0  0  0  0  0
   11.6133  -17.6889   15.4432 C   0  0  0  0  0  0  0  0  0  0  0  0
   10.9026  -18.3626   14.3519 C   0  0  0  0  0  0  0  0  0  0  0  0
   10.4491  -19.5160   14.4789 O   0  0  0  0  0  0  0  0  0  0  0  0
   13.1996  -19.0563   18.4919 C   0  0  0  0  0  0  0  0  0  0  0  0
   12.3111  -19.7874   19.0373 O   0  0  0  0  0  0  0  0  0  0  0  0
   10.7346  -17.6826   13.1344 O   0  0  0  0  0  0  0  0  0  0  0  0
   14.1561  -18.4595   19.3324 N   0  0  0  0  0  0  0  0  0  0  0  0
   14.0459  -18.6291   20.7744 C   0  0  1  0  0  0  0  0  0  0  0  0
   15.3392  -18.4649   21.5002 C   0  0  0  0  0  0  0  0  0  0  0  0
   15.1067  -18.7035   22.9813 C   0  0  0  0  0  0  0  0  0  0  0  0
   16.3700  -18.5679   23.7257 C   0  0  0  0  0  0  0  0  0  0  0  0
   16.9177  -19.6015   24.1815 O   0  0  0  0  0  0  0  0  0  0  0  0
   13.1063  -17.5626   21.3103 C   0  0  0  0  0  0  0  0  0  0  0  0
   13.4118  -16.3887   21.0945 O   0  0  0  0  0  0  0  0  0  0  0  0
   16.9126  -17.3131   23.8988 O   0  0  0  0  0  0  0  0  0  0  0  0
   11.9476  -17.8985   22.0168 N   0  0  0  0  0  0  0  0  0  0  0  0
   11.0686  -16.9485   22.6563 C   0  0  1  0  0  0  0  0  0  0  0  0
    9.6403  -17.3584   22.6020 C   0  0  0  0  0  0  0  0  0  0  0  0
    9.3629  -18.0935   21.3560 C   0  0  0  0  0  0  0  0  0  0  0  0
   10.2864  -18.2229   20.5166 O   0  0  0  0  0  0  0  0  0  0  0  0
   11.4758  -16.5567   24.0062 C   0  0  0  0  0  0  0  0  0  0  0  0
   12.3331  -17.2331   24.6219 O   0  0  0  0  0  0  0  0  0  0  0  0
    8.1155  -18.6375   21.0982 O   0  0  0  0  0  0  0  0  0  0  0  0
   10.9713  -15.4586   24.6747 O   0  0  0  0  0  0  0  0  0  0  0  0
  2  1  1  6
  2  7  1  0
  3  2  1  0
  4  3  1  0
  5  6  2  0
  5  4  1  0
  7  8  2  0
  9  5  1  0
 10  7  1  0
 10 11  1  0
 11 12  1  1
 13 12  1  0
 14 13  1  0
 15 14  2  0
 16 11  1  0
 16 17  2  0
 18 14  1  0
 19 16  1  0
 20 19  1  0
 20 21  1  1
 22 21  1  0
 23 22  2  0
 24 20  1  0
 25 24  2  0
 26 22  1  0
 27 24  1  0
M  END
$$$$
