EED.pdb
     RDKit          3D

 27 26  0  0  1  0  0  0  0  0999 V2000
   12.7874  -17.7434   16.4826 N   0  0  0  0  0  0  0  0  0  0  0  0
   13.2124  -18.4652   17.6128 C   0  0  1  0  0  0  0  0  0  0  0  0
   14.6381  -18.8927   17.7104 C   0  0  0  0  0  0  0  0  0  0  0  0
   15.6069  -17.7742   17.5428 C   0  0  0  0  0  0  0  0  0  0  0  0
   17.0035  -18.2133   17.6242 C   0  0  0  0  0  0  0  0  0  0  0  0
   17.4918  -18.6517   18.6831 O   0  0  0  0  0  0  0  0  0  0  0  0
   12.8971  -17.7858   18.9263 C   0  0  0  0  0  0  0  0  0  0  0  0
   13.2998  -16.5906   19.1015 O   0  0  0  0  0  0  0  0  0  0  0  0
   17.8048  -18.1326   16.4733 O   0  0  0  0  0  0  0  0  0  0  0  0
   12.1850  -18.3925   19.9762 N   0  0  0  0  0  0  0  0  0  0  0  0
   11.8801  -17.6207   21.1728 C   0  0  1  0  0  0  0  0  0  0  0  0
   10.5614  -17.9560   21.7853 C   0  0  0  0  0  0  0  0  0  0  0  0
    9.5320  -18.1162   20.6811 C   0  0  0  0  0  0  0  0  0  0  0  0
    8.3224  -18.7755   21.2014 C   0  0  0  0  0  0  0  0  0  0  0  0
    7.6604  -19.5173   20.4348 O   0  0  0  0  0  0  0  0  0  0  0  0
   12.9376  -17.9254   22.2198 C   0  0  0  0  0  0  0  0  0  0  0  0
   13.1298  -19.1116   22.4917 O   0  0  0  0  0  0  0  0  0  0  0  0
    7.9543  -18.5596   22.5116 O   0  0  0  0  0  0  0  0  0  0  0  0
   13.6596  -16.9054   22.8467 N   0  0  0  0  0  0  0  0  0  0  0  0
   14.5898  -17.1027   23.9328 C   0  0  1  0  0  0  0  0  0  0  0  0
   15.6609  -16.0718   23.9681 C   0  0  0  0  0  0  0  0  0  0  0  0
   16.3554  -16.0068   22.6707 C   0  0  0  0  0  0  0  0  0  0  0  0
   16.6313  -17.0800   22.0825 O   0  0  0  0  0  0  0  0  0  0  0  0
   13.9645  -17.2888   25.2426 C   0  0  0  0  0  0  0  0  0  0  0  0
   14.6672  -17.6027   26.2323 O   0  0  0  0  0  0  0  0  0  0  0  0
   16.7050  -14.7960   22.0961 O   0  0  0  0  0  0  0  0  0  0  0  0
   12.6124  -17.1367   25.4793 O   0  0  0  0  0  0  0  0  0  0  0  0
  2  1  1  6
  2  7  1  0
  3  2  1  0
  4  3  1  0
  5  6  2  0
  5  4  1  0
  7  8  2  0
  9  5  1  0
 10  7  1  0
 10 11  1  0
 11 12  1  1
 13 12  1  0
 14 13  1  0
 15 14  2  0
 16 11  1  0
 16 17  2  0
 18 14  1  0
 19 16  1  0
 20 19  1  0
 20 21  1  1
 22 21  1  0
 23 22  2  0
 24 20  1  0
 25 24  2  0
 26 22  1  0
 27 24  1  0
M  END
$$$$
