EED.pdb
     RDKit          3D

 27 26  0  0  1  0  0  0  0  0999 V2000
    8.5513  -15.1418   16.1896 N   0  0  0  0  0  0  0  0  0  0  0  0
    8.4102  -16.5287   16.3786 C   0  0  1  0  0  0  0  0  0  0  0  0
    7.8149  -17.3555   15.2893 C   0  0  0  0  0  0  0  0  0  0  0  0
    8.2411  -16.9374   13.9250 C   0  0  0  0  0  0  0  0  0  0  0  0
    7.6349  -17.7492   12.8651 C   0  0  0  0  0  0  0  0  0  0  0  0
    6.7676  -18.6086   13.1129 O   0  0  0  0  0  0  0  0  0  0  0  0
    9.6940  -17.2264   16.7680 C   0  0  0  0  0  0  0  0  0  0  0  0
    9.6559  -18.4773   17.0026 O   0  0  0  0  0  0  0  0  0  0  0  0
    8.0500  -17.5468   11.5386 O   0  0  0  0  0  0  0  0  0  0  0  0
   10.9364  -16.5793   16.8914 N   0  0  0  0  0  0  0  0  0  0  0  0
   12.1223  -17.3629   17.2074 C   0  0  1  0  0  0  0  0  0  0  0  0
   13.3056  -17.0315   16.3610 C   0  0  0  0  0  0  0  0  0  0  0  0
   13.1684  -17.7379   15.0242 C   0  0  0  0  0  0  0  0  0  0  0  0
   14.3139  -17.4170   14.1563 C   0  0  0  0  0  0  0  0  0  0  0  0
   15.3707  -18.0836   14.2779 O   0  0  0  0  0  0  0  0  0  0  0  0
   12.5184  -17.0714   18.6445 C   0  0  0  0  0  0  0  0  0  0  0  0
   12.3801  -15.9122   19.0385 O   0  0  0  0  0  0  0  0  0  0  0  0
   14.1916  -16.3971   13.2378 O   0  0  0  0  0  0  0  0  0  0  0  0
   13.0178  -18.0733   19.4819 N   0  0  0  0  0  0  0  0  0  0  0  0
   13.2663  -17.9172   20.8954 C   0  0  1  0  0  0  0  0  0  0  0  0
   12.0751  -18.2321   21.7278 C   0  0  0  0  0  0  0  0  0  0  0  0
   12.2236  -17.6588   23.0765 C   0  0  0  0  0  0  0  0  0  0  0  0
   13.3028  -17.0917   23.3727 O   0  0  0  0  0  0  0  0  0  0  0  0
   14.4688  -18.5959   21.3798 C   0  0  0  0  0  0  0  0  0  0  0  0
   14.6585  -19.8043   21.1050 O   0  0  0  0  0  0  0  0  0  0  0  0
   11.2049  -17.7341   24.0118 O   0  0  0  0  0  0  0  0  0  0  0  0
   15.4454  -17.9837   22.1406 O   0  0  0  0  0  0  0  0  0  0  0  0
  2  1  1  6
  2  7  1  0
  3  2  1  0
  4  3  1  0
  5  6  2  0
  5  4  1  0
  7  8  2  0
  9  5  1  0
 10  7  1  0
 10 11  1  0
 11 12  1  6
 13 12  1  0
 14 13  1  0
 15 14  2  0
 16 11  1  0
 16 17  2  0
 18 14  1  0
 19 16  1  0
 20 19  1  0
 20 21  1  1
 22 21  1  0
 23 22  2  0
 24 20  1  0
 25 24  2  0
 26 22  1  0
 27 24  1  0
M  END
$$$$
