EED.pdb
     RDKit          3D

 27 26  0  0  1  0  0  0  0  0999 V2000
   14.8743  -17.8192   21.8550 N   0  0  0  0  0  0  0  0  0  0  0  0
   14.0575  -16.8375   21.2650 C   0  0  1  0  0  0  0  0  0  0  0  0
   13.7556  -16.9212   19.8067 C   0  0  0  0  0  0  0  0  0  0  0  0
   14.1894  -18.2017   19.1824 C   0  0  0  0  0  0  0  0  0  0  0  0
   13.8153  -18.3015   17.7682 C   0  0  0  0  0  0  0  0  0  0  0  0
   14.5647  -17.8908   16.8616 O   0  0  0  0  0  0  0  0  0  0  0  0
   12.7217  -16.6605   21.9509 C   0  0  0  0  0  0  0  0  0  0  0  0
   11.9413  -15.7467   21.5297 O   0  0  0  0  0  0  0  0  0  0  0  0
   12.5769  -18.8753   17.4362 O   0  0  0  0  0  0  0  0  0  0  0  0
   12.2818  -17.4431   23.0333 N   0  0  0  0  0  0  0  0  0  0  0  0
   11.0153  -17.1248   23.6775 C   0  0  1  0  0  0  0  0  0  0  0  0
    9.9551  -18.1521   23.4608 C   0  0  0  0  0  0  0  0  0  0  0  0
   10.6027  -19.4301   22.9590 C   0  0  0  0  0  0  0  0  0  0  0  0
    9.5767  -20.4506   22.6863 C   0  0  0  0  0  0  0  0  0  0  0  0
    8.9489  -20.4023   21.6002 O   0  0  0  0  0  0  0  0  0  0  0  0
   11.2483  -17.0476   25.1766 C   0  0  0  0  0  0  0  0  0  0  0  0
   12.1841  -17.7072   25.6317 O   0  0  0  0  0  0  0  0  0  0  0  0
    9.3373  -21.4265   23.6292 O   0  0  0  0  0  0  0  0  0  0  0  0
   10.4368  -16.2638   26.0021 N   0  0  0  0  0  0  0  0  0  0  0  0
   10.5248  -16.2208   27.4424 C   0  0  1  0  0  0  0  0  0  0  0  0
    9.6166  -15.2093   28.0450 C   0  0  0  0  0  0  0  0  0  0  0  0
   10.3950  -14.1434   28.6989 C   0  0  0  0  0  0  0  0  0  0  0  0
   11.6298  -14.3072   28.8492 O   0  0  0  0  0  0  0  0  0  0  0  0
   10.4064  -17.5238   28.0979 C   0  0  0  0  0  0  0  0  0  0  0  0
   10.7957  -17.6664   29.2810 O   0  0  0  0  0  0  0  0  0  0  0  0
    9.7947  -12.9777   29.1452 O   0  0  0  0  0  0  0  0  0  0  0  0
    9.8774  -18.6460   27.4912 O   0  0  0  0  0  0  0  0  0  0  0  0
  2  1  1  1
  2  7  1  0
  3  2  1  0
  4  3  1  0
  5  6  2  0
  5  4  1  0
  7  8  2  0
  9  5  1  0
 10  7  1  0
 10 11  1  0
 11 12  1  1
 13 12  1  0
 14 13  1  0
 15 14  2  0
 16 11  1  0
 16 17  2  0
 18 14  1  0
 19 16  1  0
 20 19  1  0
 20 21  1  1
 22 21  1  0
 23 22  2  0
 24 20  1  0
 25 24  2  0
 26 22  1  0
 27 24  1  0
M  END
$$$$
