EED.pdb
     RDKit          3D

 27 26  0  0  1  0  0  0  0  0999 V2000
   13.8567  -20.8273   18.9819 N   0  0  0  0  0  0  0  0  0  0  0  0
   13.9745  -19.5241   18.4652 C   0  0  1  0  0  0  0  0  0  0  0  0
   13.0077  -19.0616   17.4278 C   0  0  0  0  0  0  0  0  0  0  0  0
   11.5840  -19.2991   17.7942 C   0  0  0  0  0  0  0  0  0  0  0  0
   10.6460  -18.8249   16.7717 C   0  0  0  0  0  0  0  0  0  0  0  0
   10.6710  -19.2634   15.6059 O   0  0  0  0  0  0  0  0  0  0  0  0
   13.9867  -18.4452   19.5245 C   0  0  0  0  0  0  0  0  0  0  0  0
   14.2694  -17.2546   19.1726 O   0  0  0  0  0  0  0  0  0  0  0  0
    9.6989  -17.8495   17.1246 O   0  0  0  0  0  0  0  0  0  0  0  0
   13.7066  -18.6722   20.8837 N   0  0  0  0  0  0  0  0  0  0  0  0
   13.8157  -17.5707   21.8298 C   0  0  1  0  0  0  0  0  0  0  0  0
   12.8362  -17.6431   22.9532 C   0  0  0  0  0  0  0  0  0  0  0  0
   12.9268  -16.3659   23.7688 C   0  0  0  0  0  0  0  0  0  0  0  0
   12.0204  -16.4336   24.9274 C   0  0  0  0  0  0  0  0  0  0  0  0
   11.3289  -15.4258   25.2143 O   0  0  0  0  0  0  0  0  0  0  0  0
   15.1997  -17.6128   22.4542 C   0  0  0  0  0  0  0  0  0  0  0  0
   15.6527  -18.7235   22.7354 O   0  0  0  0  0  0  0  0  0  0  0  0
   11.9579  -17.5989   25.6601 O   0  0  0  0  0  0  0  0  0  0  0  0
   15.9262  -16.4437   22.6991 N   0  0  0  0  0  0  0  0  0  0  0  0
   17.2270  -16.3980   23.3234 C   0  0  1  0  0  0  0  0  0  0  0  0
   18.0783  -15.2967   22.8005 C   0  0  0  0  0  0  0  0  0  0  0  0
   18.1332  -15.3428   21.3293 C   0  0  0  0  0  0  0  0  0  0  0  0
   18.3467  -16.4456   20.7704 O   0  0  0  0  0  0  0  0  0  0  0  0
   17.2005  -16.4234   24.7863 C   0  0  0  0  0  0  0  0  0  0  0  0
   16.1052  -16.3612   25.3932 O   0  0  0  0  0  0  0  0  0  0  0  0
   17.9554  -14.2037   20.5617 O   0  0  0  0  0  0  0  0  0  0  0  0
   18.3298  -16.5169   25.5758 O   0  0  0  0  0  0  0  0  0  0  0  0
  2  1  1  1
  2  7  1  0
  3  2  1  0
  4  3  1  0
  5  6  2  0
  5  4  1  0
  7  8  2  0
  9  5  1  0
 10  7  1  0
 10 11  1  0
 11 12  1  1
 13 12  1  0
 14 13  1  0
 15 14  2  0
 16 11  1  0
 16 17  2  0
 18 14  1  0
 19 16  1  0
 20 19  1  0
 20 21  1  1
 22 21  1  0
 23 22  2  0
 24 20  1  0
 25 24  2  0
 26 22  1  0
 27 24  1  0
M  END
$$$$
