EED.pdb
     RDKit          3D

 27 26  0  0  1  0  0  0  0  0999 V2000
   12.1548  -13.4906   18.4708 N   0  0  0  0  0  0  0  0  0  0  0  0
   12.6837  -14.7249   18.0512 C   0  0  1  0  0  0  0  0  0  0  0  0
   14.0156  -14.7566   17.3806 C   0  0  0  0  0  0  0  0  0  0  0  0
   15.0698  -14.0055   18.1168 C   0  0  0  0  0  0  0  0  0  0  0  0
   16.3279  -13.9098   17.3698 C   0  0  0  0  0  0  0  0  0  0  0  0
   17.4221  -13.7581   17.9459 O   0  0  0  0  0  0  0  0  0  0  0  0
   12.7512  -15.7652   19.1465 C   0  0  0  0  0  0  0  0  0  0  0  0
   12.8736  -15.3694   20.3505 O   0  0  0  0  0  0  0  0  0  0  0  0
   16.2887  -13.9909   15.9681 O   0  0  0  0  0  0  0  0  0  0  0  0
   12.6895  -17.1518   18.9210 N   0  0  0  0  0  0  0  0  0  0  0  0
   12.6097  -18.0581   20.0580 C   0  0  1  0  0  0  0  0  0  0  0  0
   12.3051  -19.4696   19.6822 C   0  0  0  0  0  0  0  0  0  0  0  0
   11.9593  -20.2500   20.9376 C   0  0  0  0  0  0  0  0  0  0  0  0
   11.5454  -21.6199   20.5905 C   0  0  0  0  0  0  0  0  0  0  0  0
   10.3815  -21.8096   20.1600 O   0  0  0  0  0  0  0  0  0  0  0  0
   13.9607  -18.0732   20.7523 C   0  0  0  0  0  0  0  0  0  0  0  0
   14.9596  -18.0885   20.0313 O   0  0  0  0  0  0  0  0  0  0  0  0
   12.4465  -22.6505   20.7475 O   0  0  0  0  0  0  0  0  0  0  0  0
   14.0652  -18.0705   22.1464 N   0  0  0  0  0  0  0  0  0  0  0  0
   15.3083  -18.1160   22.8790 C   0  0  1  0  0  0  0  0  0  0  0  0
   15.1325  -17.8379   24.3292 C   0  0  0  0  0  0  0  0  0  0  0  0
   14.9676  -16.3924   24.5597 C   0  0  0  0  0  0  0  0  0  0  0  0
   15.1781  -15.6042   23.6065 O   0  0  0  0  0  0  0  0  0  0  0  0
   16.1087  -19.3183   22.6443 C   0  0  0  0  0  0  0  0  0  0  0  0
   17.3093  -19.2128   22.2994 O   0  0  0  0  0  0  0  0  0  0  0  0
   14.5891  -15.8944   25.7954 O   0  0  0  0  0  0  0  0  0  0  0  0
   15.6251  -20.6046   22.7816 O   0  0  0  0  0  0  0  0  0  0  0  0
  2  1  1  1
  2  7  1  0
  3  2  1  0
  4  3  1  0
  5  6  2  0
  5  4  1  0
  7  8  2  0
  9  5  1  0
 10  7  1  0
 10 11  1  0
 11 12  1  6
 13 12  1  0
 14 13  1  0
 15 14  2  0
 16 11  1  0
 16 17  2  0
 18 14  1  0
 19 16  1  0
 20 19  1  0
 20 21  1  1
 22 21  1  0
 23 22  2  0
 24 20  1  0
 25 24  2  0
 26 22  1  0
 27 24  1  0
M  END
$$$$
