EED.pdb
     RDKit          3D

 27 26  0  0  1  0  0  0  0  0999 V2000
    9.8150  -19.8918   20.1572 N   0  0  0  0  0  0  0  0  0  0  0  0
   10.6622  -19.0697   19.3920 C   0  0  1  0  0  0  0  0  0  0  0  0
   10.1551  -18.4887   18.1153 C   0  0  0  0  0  0  0  0  0  0  0  0
    8.6965  -18.1890   18.1367 C   0  0  0  0  0  0  0  0  0  0  0  0
    8.2051  -17.6591   16.8609 C   0  0  0  0  0  0  0  0  0  0  0  0
    7.8264  -18.4102   15.9418 O   0  0  0  0  0  0  0  0  0  0  0  0
   11.2510  -17.9109   20.1646 C   0  0  0  0  0  0  0  0  0  0  0  0
   12.0227  -17.1046   19.5518 O   0  0  0  0  0  0  0  0  0  0  0  0
    8.1651  -16.2670   16.6784 O   0  0  0  0  0  0  0  0  0  0  0  0
   11.0022  -17.6645   21.5266 N   0  0  0  0  0  0  0  0  0  0  0  0
   11.6039  -16.5018   22.1641 C   0  0  1  0  0  0  0  0  0  0  0  0
   10.9392  -16.1035   23.4393 C   0  0  0  0  0  0  0  0  0  0  0  0
   11.2233  -17.1585   24.4933 C   0  0  0  0  0  0  0  0  0  0  0  0
   10.6071  -16.7790   25.7758 C   0  0  0  0  0  0  0  0  0  0  0  0
   11.0150  -17.3275   26.8288 O   0  0  0  0  0  0  0  0  0  0  0  0
   13.0443  -16.8386   22.5095 C   0  0  0  0  0  0  0  0  0  0  0  0
   13.2976  -18.0175   22.7625 O   0  0  0  0  0  0  0  0  0  0  0  0
    9.6035  -15.8347   25.7819 O   0  0  0  0  0  0  0  0  0  0  0  0
   14.0371  -15.8548   22.5395 N   0  0  0  0  0  0  0  0  0  0  0  0
   15.4371  -16.1049   22.7876 C   0  0  1  0  0  0  0  0  0  0  0  0
   16.3120  -14.9984   22.3173 C   0  0  0  0  0  0  0  0  0  0  0  0
   17.7208  -15.4283   22.2995 C   0  0  0  0  0  0  0  0  0  0  0  0
   17.9961  -16.5655   21.8468 O   0  0  0  0  0  0  0  0  0  0  0  0
   15.7492  -16.5053   24.1601 C   0  0  0  0  0  0  0  0  0  0  0  0
   16.8839  -16.9614   24.4358 O   0  0  0  0  0  0  0  0  0  0  0  0
   18.7341  -14.6088   22.7683 O   0  0  0  0  0  0  0  0  0  0  0  0
   14.8581  -16.4126   25.2111 O   0  0  0  0  0  0  0  0  0  0  0  0
  2  1  1  1
  2  7  1  0
  3  2  1  0
  4  3  1  0
  5  6  2  0
  5  4  1  0
  7  8  2  0
  9  5  1  0
 10  7  1  0
 10 11  1  0
 11 12  1  1
 13 12  1  0
 14 13  1  0
 15 14  2  0
 16 11  1  0
 16 17  2  0
 18 14  1  0
 19 16  1  0
 20 19  1  0
 20 21  1  1
 22 21  1  0
 23 22  2  0
 24 20  1  0
 25 24  2  0
 26 22  1  0
 27 24  1  0
M  END
$$$$
