TQE.pdb
     RDKit          3D

 26 25  0  0  1  0  0  0  0  0999 V2000
    8.4682  -15.1777   19.4193 C   0  0  0  0  0  0  0  0  0  0  0  0
    8.3954  -15.5528   20.8740 C   0  0  1  0  0  0  0  0  0  0  0  0
    9.3281  -14.8035   21.5865 O   0  0  0  0  0  0  0  0  0  0  0  0
    6.9911  -15.3233   21.4433 C   0  0  2  0  0  0  0  0  0  0  0  0
    6.6788  -13.9315   21.2757 N   0  0  0  0  0  0  0  0  0  0  0  0
    7.0251  -15.7314   22.8687 C   0  0  0  0  0  0  0  0  0  0  0  0
    7.1655  -14.8220   23.7269 O   0  0  0  0  0  0  0  0  0  0  0  0
    5.1280  -21.6020   23.1725 N   0  0  0  0  0  0  0  0  0  0  0  0
    5.8281  -21.1403   24.3306 C   0  0  0  0  0  0  0  0  0  0  0  0
    5.7132  -21.7896   25.3969 O   0  0  0  0  0  0  0  0  0  0  0  0
    6.6733  -19.9349   24.3142 C   0  0  0  0  0  0  0  0  0  0  0  0
    5.9440  -18.7060   24.7013 C   0  0  0  0  0  0  0  0  0  0  0  0
    6.7437  -17.4349   24.7238 C   0  0  2  0  0  0  0  0  0  0  0  0
    6.9115  -17.0545   23.3130 N   0  0  0  0  0  0  0  0  0  0  0  0
    8.0673  -17.5698   25.3185 C   0  0  0  0  0  0  0  0  0  0  0  0
    9.0718  -17.7875   24.6055 O   0  0  0  0  0  0  0  0  0  0  0  0
    8.2319  -17.4555   26.7157 N   0  0  0  0  0  0  0  0  0  0  0  0
    9.5056  -17.5556   27.3868 C   0  0  1  0  0  0  0  0  0  0  0  0
    9.6022  -16.3580   28.3379 C   0  0  0  0  0  0  0  0  0  0  0  0
   10.0832  -15.1783   27.5428 C   0  0  0  0  0  0  0  0  0  0  0  0
    9.8480  -13.9485   28.3179 C   0  0  0  0  0  0  0  0  0  0  0  0
   10.0229  -12.8252   27.8049 O   0  0  0  0  0  0  0  0  0  0  0  0
    9.5687  -18.7682   28.2383 C   0  0  0  0  0  0  0  0  0  0  0  0
    8.5532  -19.5035   28.3282 O   0  0  0  0  0  0  0  0  0  0  0  0
    9.4240  -14.0619   29.6429 O   0  0  0  0  0  0  0  0  0  0  0  0
   10.6954  -19.1373   28.9457 O   0  0  0  0  0  0  0  0  0  0  0  0
  2  1  1  6
  3  2  1  0
  4  6  1  0
  4  2  1  0
  4  5  1  1
  6  7  2  0
  8  9  1  0
  9 10  2  0
  9 11  1  0
 11 12  1  0
 13 12  1  6
 14 13  1  0
 14  6  1  0
 15 17  1  0
 15 13  1  0
 16 15  2  0
 18 19  1  1
 18 17  1  0
 19 20  1  0
 20 21  1  0
 21 22  2  0
 23 18  1  0
 23 26  1  0
 24 23  2  0
 25 21  1  0
M  END
$$$$
