TQE.pdb
     RDKit          3D

 26 25  0  0  1  0  0  0  0  0999 V2000
    7.0106  -16.0244   19.6100 C   0  0  0  0  0  0  0  0  0  0  0  0
    7.7274  -14.8190   19.0667 C   0  0  1  0  0  0  0  0  0  0  0  0
    7.3259  -14.6028   17.7510 O   0  0  0  0  0  0  0  0  0  0  0  0
    7.4496  -13.5718   19.9129 C   0  0  2  0  0  0  0  0  0  0  0  0
    7.9144  -12.4335   19.1706 N   0  0  0  0  0  0  0  0  0  0  0  0
    8.1695  -13.7459   21.1979 C   0  0  0  0  0  0  0  0  0  0  0  0
    9.4149  -13.5673   21.1914 O   0  0  0  0  0  0  0  0  0  0  0  0
    5.2458  -13.8194   26.7689 N   0  0  0  0  0  0  0  0  0  0  0  0
    5.9119  -12.6477   26.2915 C   0  0  0  0  0  0  0  0  0  0  0  0
    5.6241  -11.5433   26.8103 O   0  0  0  0  0  0  0  0  0  0  0  0
    6.9175  -12.6933   25.2171 C   0  0  0  0  0  0  0  0  0  0  0  0
    7.2041  -14.0669   24.7447 C   0  0  0  0  0  0  0  0  0  0  0  0
    8.2640  -14.2016   23.6890 C   0  0  2  0  0  0  0  0  0  0  0  0
    7.5529  -14.0938   22.4062 N   0  0  0  0  0  0  0  0  0  0  0  0
    8.9727  -15.4748   23.7101 C   0  0  0  0  0  0  0  0  0  0  0  0
    8.3993  -16.5338   23.3715 O   0  0  0  0  0  0  0  0  0  0  0  0
   10.3237  -15.5278   24.1155 N   0  0  0  0  0  0  0  0  0  0  0  0
   11.0813  -16.7505   24.2326 C   0  0  1  0  0  0  0  0  0  0  0  0
   12.5367  -16.4052   23.8996 C   0  0  0  0  0  0  0  0  0  0  0  0
   13.3511  -17.6582   24.0480 C   0  0  0  0  0  0  0  0  0  0  0  0
   14.7644  -17.3475   23.7751 C   0  0  0  0  0  0  0  0  0  0  0  0
   15.2288  -17.4395   22.6212 O   0  0  0  0  0  0  0  0  0  0  0  0
   11.0820  -17.2488   25.6295 C   0  0  0  0  0  0  0  0  0  0  0  0
   10.7313  -16.4724   26.5538 O   0  0  0  0  0  0  0  0  0  0  0  0
   15.5795  -16.9463   24.8348 O   0  0  0  0  0  0  0  0  0  0  0  0
   11.4511  -18.5338   25.9735 O   0  0  0  0  0  0  0  0  0  0  0  0
  2  1  1  1
  3  2  1  0
  4  6  1  0
  4  2  1  0
  4  5  1  6
  6  7  2  0
  8  9  1  0
  9 10  2  0
  9 11  1  0
 11 12  1  0
 13 12  1  1
 14 13  1  0
 14  6  1  0
 15 17  1  0
 15 13  1  0
 16 15  2  0
 18 19  1  1
 18 17  1  0
 19 20  1  0
 20 21  1  0
 21 22  2  0
 23 18  1  0
 23 26  1  0
 24 23  2  0
 25 21  1  0
M  END
$$$$
