TQE.pdb
     RDKit          3D

 26 25  0  0  1  0  0  0  0  0999 V2000
    8.1690  -19.4040   18.8840 C   0  0  0  0  0  0  0  0  0  0  0  0
    9.1551  -19.0083   17.8196 C   0  0  1  0  0  0  0  0  0  0  0  0
    8.9641  -19.8113   16.6982 O   0  0  0  0  0  0  0  0  0  0  0  0
    9.0084  -17.5308   17.4396 C   0  0  2  0  0  0  0  0  0  0  0  0
    9.8620  -17.2882   16.3103 N   0  0  0  0  0  0  0  0  0  0  0  0
    9.3963  -16.7329   18.6281 C   0  0  0  0  0  0  0  0  0  0  0  0
   10.6199  -16.6844   18.9172 O   0  0  0  0  0  0  0  0  0  0  0  0
    6.7659  -15.8666   23.5932 N   0  0  0  0  0  0  0  0  0  0  0  0
    7.1356  -14.4856   23.5686 C   0  0  0  0  0  0  0  0  0  0  0  0
    6.9495  -13.7985   24.6007 O   0  0  0  0  0  0  0  0  0  0  0  0
    7.7229  -13.8462   22.3796 C   0  0  0  0  0  0  0  0  0  0  0  0
    7.6076  -14.6724   21.1564 C   0  0  0  0  0  0  0  0  0  0  0  0
    8.8838  -15.2600   20.6256 C   0  0  2  0  0  0  0  0  0  0  0  0
    8.4921  -16.0371   19.4399 N   0  0  0  0  0  0  0  0  0  0  0  0
    9.5620  -16.1567   21.5528 C   0  0  0  0  0  0  0  0  0  0  0  0
   10.0345  -17.2469   21.1612 O   0  0  0  0  0  0  0  0  0  0  0  0
    9.6945  -15.8029   22.9127 N   0  0  0  0  0  0  0  0  0  0  0  0
   10.6134  -16.4408   23.8245 C   0  0  1  0  0  0  0  0  0  0  0  0
   12.0228  -15.9984   23.4170 C   0  0  0  0  0  0  0  0  0  0  0  0
   12.6417  -17.1124   22.6223 C   0  0  0  0  0  0  0  0  0  0  0  0
   14.0532  -16.7870   22.3578 C   0  0  0  0  0  0  0  0  0  0  0  0
   14.5672  -15.7473   22.8164 O   0  0  0  0  0  0  0  0  0  0  0  0
   10.4121  -15.9591   25.2126 C   0  0  0  0  0  0  0  0  0  0  0  0
    9.6001  -15.0225   25.4211 O   0  0  0  0  0  0  0  0  0  0  0  0
   14.8099  -17.6663   21.5814 O   0  0  0  0  0  0  0  0  0  0  0  0
   11.0759  -16.4898   26.3006 O   0  0  0  0  0  0  0  0  0  0  0  0
  2  1  1  1
  3  2  1  0
  4  6  1  0
  4  2  1  0
  4  5  1  6
  6  7  2  0
  8  9  1  0
  9 10  2  0
  9 11  1  0
 11 12  1  0
 13 12  1  1
 14 13  1  0
 14  6  1  0
 15 17  1  0
 15 13  1  0
 16 15  2  0
 18 19  1  6
 18 17  1  0
 19 20  1  0
 20 21  1  0
 21 22  2  0
 23 18  1  0
 23 26  1  0
 24 23  2  0
 25 21  1  0
M  END
$$$$
