TQE.pdb
     RDKit          3D

 26 25  0  0  1  0  0  0  0  0999 V2000
    7.0954  -15.9736   20.0051 C   0  0  0  0  0  0  0  0  0  0  0  0
    7.8891  -14.8444   19.4079 C   0  0  1  0  0  0  0  0  0  0  0  0
    7.5038  -14.6661   18.0817 O   0  0  0  0  0  0  0  0  0  0  0  0
    7.6914  -13.5428   20.1924 C   0  0  2  0  0  0  0  0  0  0  0  0
    8.3581  -12.4965   19.4688 N   0  0  0  0  0  0  0  0  0  0  0  0
    8.2650  -13.7552   21.5435 C   0  0  0  0  0  0  0  0  0  0  0  0
    9.5171  -13.7014   21.6547 O   0  0  0  0  0  0  0  0  0  0  0  0
    5.0938  -12.9320   26.8717 N   0  0  0  0  0  0  0  0  0  0  0  0
    5.8980  -11.9568   26.2034 C   0  0  0  0  0  0  0  0  0  0  0  0
    5.7374  -10.7481   26.4950 O   0  0  0  0  0  0  0  0  0  0  0  0
    6.9017  -12.3211   25.1897 C   0  0  0  0  0  0  0  0  0  0  0  0
    7.0321  -13.7833   24.9975 C   0  0  0  0  0  0  0  0  0  0  0  0
    8.0827  -14.2371   24.0248 C   0  0  2  0  0  0  0  0  0  0  0  0
    7.5047  -14.0093   22.6917 N   0  0  0  0  0  0  0  0  0  0  0  0
    8.4313  -15.6479   24.1339 C   0  0  0  0  0  0  0  0  0  0  0  0
    7.6068  -16.5379   23.8287 O   0  0  0  0  0  0  0  0  0  0  0  0
    9.7122  -16.0288   24.5883 N   0  0  0  0  0  0  0  0  0  0  0  0
   10.1128  -17.3972   24.8117 C   0  0  1  0  0  0  0  0  0  0  0  0
   11.3831  -17.6286   23.9865 C   0  0  0  0  0  0  0  0  0  0  0  0
   12.3967  -16.6034   24.4071 C   0  0  0  0  0  0  0  0  0  0  0  0
   13.6237  -16.7875   23.6140 C   0  0  0  0  0  0  0  0  0  0  0  0
   13.7854  -16.1826   22.5353 O   0  0  0  0  0  0  0  0  0  0  0  0
   10.4914  -17.6202   26.2281 C   0  0  0  0  0  0  0  0  0  0  0  0
   10.7635  -18.7865   26.6100 O   0  0  0  0  0  0  0  0  0  0  0  0
   14.6074  -17.6547   24.0922 O   0  0  0  0  0  0  0  0  0  0  0  0
   10.5620  -16.6046   27.1606 O   0  0  0  0  0  0  0  0  0  0  0  0
  2  1  1  1
  3  2  1  0
  4  6  1  0
  4  2  1  0
  4  5  1  6
  6  7  2  0
  8  9  1  0
  9 10  2  0
  9 11  1  0
 11 12  1  0
 13 12  1  1
 14 13  1  0
 14  6  1  0
 15 17  1  0
 15 13  1  0
 16 15  2  0
 18 19  1  6
 18 17  1  0
 19 20  1  0
 20 21  1  0
 21 22  2  0
 23 18  1  0
 23 26  1  0
 24 23  2  0
 25 21  1  0
M  END
$$$$
