TQE.pdb
     RDKit          3D

 26 25  0  0  1  0  0  0  0  0999 V2000
    6.6633  -15.2876   18.2577 C   0  0  0  0  0  0  0  0  0  0  0  0
    7.5129  -14.1204   17.8362 C   0  0  1  0  0  0  0  0  0  0  0  0
    6.7063  -13.1663   17.2212 O   0  0  0  0  0  0  0  0  0  0  0  0
    8.2453  -13.4988   19.0303 C   0  0  2  0  0  0  0  0  0  0  0  0
    8.6730  -12.1848   18.6388 N   0  0  0  0  0  0  0  0  0  0  0  0
    9.3820  -14.3928   19.3597 C   0  0  0  0  0  0  0  0  0  0  0  0
    9.1086  -15.5700   19.7097 O   0  0  0  0  0  0  0  0  0  0  0  0
   15.1176  -14.3417   16.5564 N   0  0  0  0  0  0  0  0  0  0  0  0
   15.3248  -14.5301   17.9586 C   0  0  0  0  0  0  0  0  0  0  0  0
   16.4363  -14.2159   18.4461 O   0  0  0  0  0  0  0  0  0  0  0  0
   14.2841  -15.0781   18.8441 C   0  0  0  0  0  0  0  0  0  0  0  0
   12.9662  -14.4269   18.6676 C   0  0  0  0  0  0  0  0  0  0  0  0
   11.8524  -14.9273   19.5423 C   0  0  2  0  0  0  0  0  0  0  0  0
   10.7278  -14.0096   19.3053 N   0  0  0  0  0  0  0  0  0  0  0  0
   12.1572  -14.9138   20.9674 C   0  0  0  0  0  0  0  0  0  0  0  0
   12.3972  -13.8397   21.5620 O   0  0  0  0  0  0  0  0  0  0  0  0
   12.1852  -16.1212   21.6979 N   0  0  0  0  0  0  0  0  0  0  0  0
   12.5001  -16.2040   23.1039 C   0  0  1  0  0  0  0  0  0  0  0  0
   11.9126  -17.5242   23.6139 C   0  0  0  0  0  0  0  0  0  0  0  0
   12.2814  -17.6610   25.0633 C   0  0  0  0  0  0  0  0  0  0  0  0
   11.7371  -18.9280   25.5799 C   0  0  0  0  0  0  0  0  0  0  0  0
   11.1349  -19.7199   24.8277 O   0  0  0  0  0  0  0  0  0  0  0  0
   13.9646  -16.2899   23.3209 C   0  0  0  0  0  0  0  0  0  0  0  0
   14.6825  -16.8164   22.4334 O   0  0  0  0  0  0  0  0  0  0  0  0
   11.9074  -19.2291   26.9322 O   0  0  0  0  0  0  0  0  0  0  0  0
   14.5893  -15.8175   24.4578 O   0  0  0  0  0  0  0  0  0  0  0  0
  2  1  1  1
  3  2  1  0
  4  6  1  0
  4  2  1  0
  4  5  1  6
  6  7  2  0
  8  9  1  0
  9 10  2  0
  9 11  1  0
 11 12  1  0
 13 12  1  6
 14 13  1  0
 14  6  1  0
 15 17  1  0
 15 13  1  0
 16 15  2  0
 18 19  1  6
 18 17  1  0
 19 20  1  0
 20 21  1  0
 21 22  2  0
 23 18  1  0
 23 26  1  0
 24 23  2  0
 25 21  1  0
M  END
$$$$
