TQE.pdb
     RDKit          3D

 26 25  0  0  1  0  0  0  0  0999 V2000
    9.8207  -12.3218   19.2515 C   0  0  0  0  0  0  0  0  0  0  0  0
    8.3826  -12.6188   19.5765 C   0  0  1  0  0  0  0  0  0  0  0  0
    7.5841  -11.5776   19.1101 O   0  0  0  0  0  0  0  0  0  0  0  0
    7.9299  -13.9461   18.9585 C   0  0  2  0  0  0  0  0  0  0  0  0
    6.5529  -14.1422   19.3165 N   0  0  0  0  0  0  0  0  0  0  0  0
    8.8152  -15.0054   19.5004 C   0  0  0  0  0  0  0  0  0  0  0  0
    8.5219  -15.4835   20.6266 O   0  0  0  0  0  0  0  0  0  0  0  0
   13.8589  -17.6157   16.3341 N   0  0  0  0  0  0  0  0  0  0  0  0
   13.4219  -18.4981   17.3708 C   0  0  0  0  0  0  0  0  0  0  0  0
   13.6633  -19.7228   17.2544 O   0  0  0  0  0  0  0  0  0  0  0  0
   12.7012  -18.0209   18.5626 C   0  0  0  0  0  0  0  0  0  0  0  0
   11.6140  -17.0678   18.2439 C   0  0  0  0  0  0  0  0  0  0  0  0
   10.8549  -16.5069   19.4122 C   0  0  2  0  0  0  0  0  0  0  0  0
    9.9469  -15.5008   18.8409 N   0  0  0  0  0  0  0  0  0  0  0  0
   11.6898  -15.8507   20.4103 C   0  0  0  0  0  0  0  0  0  0  0  0
   12.2861  -14.7831   20.1464 O   0  0  0  0  0  0  0  0  0  0  0  0
   11.8361  -16.4163   21.6952 N   0  0  0  0  0  0  0  0  0  0  0  0
   12.6125  -15.8177   22.7543 C   0  0  1  0  0  0  0  0  0  0  0  0
   12.0039  -16.2966   24.0766 C   0  0  0  0  0  0  0  0  0  0  0  0
   12.0587  -17.7974   24.0901 C   0  0  0  0  0  0  0  0  0  0  0  0
   11.5766  -18.2839   25.3936 C   0  0  0  0  0  0  0  0  0  0  0  0
   11.2493  -19.4772   25.5502 O   0  0  0  0  0  0  0  0  0  0  0  0
   14.0109  -16.3110   22.7381 C   0  0  0  0  0  0  0  0  0  0  0  0
   14.2933  -17.3205   22.0442 O   0  0  0  0  0  0  0  0  0  0  0  0
   11.4917  -17.3827   26.4561 O   0  0  0  0  0  0  0  0  0  0  0  0
   15.0312  -15.7147   23.4519 O   0  0  0  0  0  0  0  0  0  0  0  0
  2  1  1  6
  3  2  1  0
  4  6  1  0
  4  2  1  0
  4  5  1  1
  6  7  2  0
  8  9  1  0
  9 10  2  0
  9 11  1  0
 11 12  1  0
 13 12  1  6
 14 13  1  0
 14  6  1  0
 15 17  1  0
 15 13  1  0
 16 15  2  0
 18 19  1  1
 18 17  1  0
 19 20  1  0
 20 21  1  0
 21 22  2  0
 23 18  1  0
 23 26  1  0
 24 23  2  0
 25 21  1  0
M  END
$$$$
