TQE.pdb
     RDKit          3D

 26 25  0  0  1  0  0  0  0  0999 V2000
   10.5286  -13.1492   19.2601 C   0  0  0  0  0  0  0  0  0  0  0  0
    9.1076  -12.6609   19.1966 C   0  0  1  0  0  0  0  0  0  0  0  0
    9.0147  -11.6470   18.2466 O   0  0  0  0  0  0  0  0  0  0  0  0
    8.1386  -13.7966   18.8500 C   0  0  2  0  0  0  0  0  0  0  0  0
    6.8134  -13.2431   18.8302 N   0  0  0  0  0  0  0  0  0  0  0  0
    8.3028  -14.8435   19.8876 C   0  0  0  0  0  0  0  0  0  0  0  0
    7.6896  -14.6812   20.9742 O   0  0  0  0  0  0  0  0  0  0  0  0
   10.5953  -21.7808   20.4175 N   0  0  0  0  0  0  0  0  0  0  0  0
    9.6116  -20.7517   20.2839 C   0  0  0  0  0  0  0  0  0  0  0  0
    8.6268  -20.9595   19.5365 O   0  0  0  0  0  0  0  0  0  0  0  0
    9.7156  -19.4634   20.9891 C   0  0  0  0  0  0  0  0  0  0  0  0
    9.4140  -18.2997   20.1248 C   0  0  0  0  0  0  0  0  0  0  0  0
    9.3449  -16.9630   20.8062 C   0  0  2  0  0  0  0  0  0  0  0  0
    9.0911  -15.9904   19.7326 N   0  0  0  0  0  0  0  0  0  0  0  0
   10.5716  -16.5747   21.4904 C   0  0  0  0  0  0  0  0  0  0  0  0
   11.5275  -16.0731   20.8583 O   0  0  0  0  0  0  0  0  0  0  0  0
   10.6960  -16.7617   22.8839 N   0  0  0  0  0  0  0  0  0  0  0  0
   11.8025  -16.2662   23.6668 C   0  0  1  0  0  0  0  0  0  0  0  0
   11.5444  -16.6873   25.1174 C   0  0  0  0  0  0  0  0  0  0  0  0
   11.5395  -18.1883   25.1655 C   0  0  0  0  0  0  0  0  0  0  0  0
   11.4580  -18.6235   26.5699 C   0  0  0  0  0  0  0  0  0  0  0  0
   11.4064  -19.8348   26.8627 O   0  0  0  0  0  0  0  0  0  0  0  0
   13.0749  -16.9144   23.2663 C   0  0  0  0  0  0  0  0  0  0  0  0
   14.1626  -16.3685   23.5808 O   0  0  0  0  0  0  0  0  0  0  0  0
   11.4393  -17.6528   27.5727 O   0  0  0  0  0  0  0  0  0  0  0  0
   13.1299  -18.0986   22.5588 O   0  0  0  0  0  0  0  0  0  0  0  0
  2  1  1  6
  3  2  1  0
  4  6  1  0
  4  2  1  0
  4  5  1  1
  6  7  2  0
  8  9  1  0
  9 10  2  0
  9 11  1  0
 11 12  1  0
 13 12  1  6
 14 13  1  0
 14  6  1  0
 15 17  1  0
 15 13  1  0
 16 15  2  0
 18 19  1  1
 18 17  1  0
 19 20  1  0
 20 21  1  0
 21 22  2  0
 23 18  1  0
 23 26  1  0
 24 23  2  0
 25 21  1  0
M  END
$$$$
