TQE.pdb
     RDKit          3D

 26 25  0  0  1  0  0  0  0  0999 V2000
    8.2982  -19.6848   18.3616 C   0  0  0  0  0  0  0  0  0  0  0  0
    9.3623  -19.5380   17.3091 C   0  0  1  0  0  0  0  0  0  0  0  0
    9.0884  -20.4089   16.2575 O   0  0  0  0  0  0  0  0  0  0  0  0
    9.4450  -18.0980   16.7913 C   0  0  2  0  0  0  0  0  0  0  0  0
   10.3798  -18.0837   15.7009 N   0  0  0  0  0  0  0  0  0  0  0  0
    9.8817  -17.2494   17.9265 C   0  0  0  0  0  0  0  0  0  0  0  0
   11.1006  -17.2822   18.2371 O   0  0  0  0  0  0  0  0  0  0  0  0
    6.2313  -12.8911   20.6319 N   0  0  0  0  0  0  0  0  0  0  0  0
    7.3185  -12.9746   21.5568 C   0  0  0  0  0  0  0  0  0  0  0  0
    7.2823  -12.2621   22.5877 O   0  0  0  0  0  0  0  0  0  0  0  0
    8.4728  -13.8626   21.3407 C   0  0  0  0  0  0  0  0  0  0  0  0
    8.3758  -14.6515   20.0916 C   0  0  0  0  0  0  0  0  0  0  0  0
    9.4380  -15.6911   19.8752 C   0  0  2  0  0  0  0  0  0  0  0  0
    9.0280  -16.4220   18.6665 N   0  0  0  0  0  0  0  0  0  0  0  0
    9.5683  -16.6508   20.9641 C   0  0  0  0  0  0  0  0  0  0  0  0
    9.3321  -17.8655   20.7805 O   0  0  0  0  0  0  0  0  0  0  0  0
    9.9653  -16.2175   22.2474 N   0  0  0  0  0  0  0  0  0  0  0  0
   10.7937  -16.9939   23.1384 C   0  0  1  0  0  0  0  0  0  0  0  0
   12.1676  -17.1194   22.4715 C   0  0  0  0  0  0  0  0  0  0  0  0
   13.0367  -17.9568   23.3653 C   0  0  0  0  0  0  0  0  0  0  0  0
   14.3587  -18.1171   22.7366 C   0  0  0  0  0  0  0  0  0  0  0  0
   15.3176  -17.3920   23.0688 O   0  0  0  0  0  0  0  0  0  0  0  0
   11.0175  -16.2810   24.4194 C   0  0  0  0  0  0  0  0  0  0  0  0
   10.8932  -15.0305   24.4510 O   0  0  0  0  0  0  0  0  0  0  0  0
   14.5211  -19.0990   21.7579 O   0  0  0  0  0  0  0  0  0  0  0  0
   11.3589  -16.9238   25.5925 O   0  0  0  0  0  0  0  0  0  0  0  0
  2  1  1  1
  3  2  1  0
  4  6  1  0
  4  2  1  0
  4  5  1  6
  6  7  2  0
  8  9  1  0
  9 10  2  0
  9 11  1  0
 11 12  1  0
 13 12  1  1
 14 13  1  0
 14  6  1  0
 15 17  1  0
 15 13  1  0
 16 15  2  0
 18 19  1  6
 18 17  1  0
 19 20  1  0
 20 21  1  0
 21 22  2  0
 23 18  1  0
 23 26  1  0
 24 23  2  0
 25 21  1  0
M  END
$$$$
