TQE.pdb
     RDKit          3D

 26 25  0  0  1  0  0  0  0  0999 V2000
 -827.4893  428.6116 -215.0337 C   0  0  0  0  0  0  0  0  0  0  0  0
 -828.9568  428.5584 -214.7084 C   0  0  1  0  0  0  0  0  0  0  0  0
 -829.6494  428.0469 -215.8027 O   0  0  0  0  0  0  0  0  0  0  0  0
 -829.2264  427.7004 -213.4675 C   0  0  2  0  0  0  0  0  0  0  0  0
 -828.7036  426.3882 -213.7276 N   0  0  0  0  0  0  0  0  0  0  0  0
 -830.6935  427.6956 -213.2497 C   0  0  0  0  0  0  0  0  0  0  0  0
 -831.4150  427.2603 -214.1841 O   0  0  0  0  0  0  0  0  0  0  0  0
 -832.3596  432.4701 -211.3852 N   0  0  0  0  0  0  0  0  0  0  0  0
 -830.9479  432.6723 -211.2817 C   0  0  0  0  0  0  0  0  0  0  0  0
 -830.5287  433.8122 -210.9705 O   0  0  0  0  0  0  0  0  0  0  0  0
 -829.9756  431.5945 -211.5272 C   0  0  0  0  0  0  0  0  0  0  0  0
 -830.5830  430.3885 -212.1343 C   0  0  0  0  0  0  0  0  0  0  0  0
 -830.7867  429.2129 -211.2220 C   0  0  2  0  0  0  0  0  0  0  0  0
 -831.3179  428.1419 -212.0784 N   0  0  0  0  0  0  0  0  0  0  0  0
 -831.7397  429.4481 -210.1448 C   0  0  0  0  0  0  0  0  0  0  0  0
 -832.5413  430.4072 -210.1953 O   0  0  0  0  0  0  0  0  0  0  0  0
 -831.7689  428.5906 -209.0242 N   0  0  0  0  0  0  0  0  0  0  0  0
 -832.7812  428.6431 -207.9970 C   0  0  1  0  0  0  0  0  0  0  0  0
 -834.0823  428.1366 -208.6290 C   0  0  0  0  0  0  0  0  0  0  0  0
 -835.1104  429.2232 -208.4950 C   0  0  0  0  0  0  0  0  0  0  0  0
 -835.3622  429.4725 -207.0659 C   0  0  0  0  0  0  0  0  0  0  0  0
 -836.5262  429.5198 -206.6197 O   0  0  0  0  0  0  0  0  0  0  0  0
 -832.4680  427.7099 -206.8876 C   0  0  0  0  0  0  0  0  0  0  0  0
 -832.2328  426.5043 -207.1530 O   0  0  0  0  0  0  0  0  0  0  0  0
 -834.2714  429.6556 -206.2146 O   0  0  0  0  0  0  0  0  0  0  0  0
 -832.4203  428.0990 -205.5636 O   0  0  0  0  0  0  0  0  0  0  0  0
  2  1  1  6
  3  2  1  0
  4  6  1  0
  4  2  1  0
  4  5  1  6
  6  7  2  0
  8  9  1  0
  9 10  2  0
  9 11  1  0
 11 12  1  0
 13 12  1  6
 14 13  1  0
 14  6  1  0
 15 17  1  0
 15 13  1  0
 16 15  2  0
 18 19  1  6
 18 17  1  0
 19 20  1  0
 20 21  1  0
 21 22  2  0
 23 18  1  0
 23 26  1  0
 24 23  2  0
 25 21  1  0
M  END
$$$$
