TQE.pdb
     RDKit          3D

 26 25  0  0  1  0  0  0  0  0999 V2000
   13.1486  -20.4428   18.3012 C   0  0  0  0  0  0  0  0  0  0  0  0
   12.2245  -19.3788   17.7761 C   0  0  1  0  0  0  0  0  0  0  0  0
   12.0589  -19.5533   16.4045 O   0  0  0  0  0  0  0  0  0  0  0  0
   10.8635  -19.4200   18.4795 C   0  0  2  0  0  0  0  0  0  0  0  0
    9.9840  -18.5322   17.7717 N   0  0  0  0  0  0  0  0  0  0  0  0
   11.0848  -19.0011   19.8849 C   0  0  0  0  0  0  0  0  0  0  0  0
   11.4711  -17.8199   20.0818 O   0  0  0  0  0  0  0  0  0  0  0  0
    8.9838  -22.3482   24.7564 N   0  0  0  0  0  0  0  0  0  0  0  0
    9.7733  -21.3536   25.4135 C   0  0  0  0  0  0  0  0  0  0  0  0
    9.9055  -21.4217   26.6584 O   0  0  0  0  0  0  0  0  0  0  0  0
   10.4316  -20.2580   24.6829 C   0  0  0  0  0  0  0  0  0  0  0  0
   10.2650  -20.3534   23.2148 C   0  0  0  0  0  0  0  0  0  0  0  0
   11.0764  -19.3975   22.3879 C   0  0  2  0  0  0  0  0  0  0  0  0
   10.8916  -19.8323   20.9951 N   0  0  0  0  0  0  0  0  0  0  0  0
   12.5035  -19.4120   22.6828 C   0  0  0  0  0  0  0  0  0  0  0  0
   13.2367  -20.3333   22.2601 O   0  0  0  0  0  0  0  0  0  0  0  0
   13.0788  -18.3792   23.4540 N   0  0  0  0  0  0  0  0  0  0  0  0
   14.4819  -18.3072   23.7838 C   0  0  1  0  0  0  0  0  0  0  0  0
   15.0344  -17.0502   23.1035 C   0  0  0  0  0  0  0  0  0  0  0  0
   16.4755  -16.9086   23.5019 C   0  0  0  0  0  0  0  0  0  0  0  0
   17.0857  -15.8212   22.7186 C   0  0  0  0  0  0  0  0  0  0  0  0
   18.0784  -16.0335   21.9940 O   0  0  0  0  0  0  0  0  0  0  0  0
   14.6806  -18.1123   25.2405 C   0  0  0  0  0  0  0  0  0  0  0  0
   15.7650  -18.4762   25.7619 O   0  0  0  0  0  0  0  0  0  0  0  0
   16.5316  -14.5427   22.8012 O   0  0  0  0  0  0  0  0  0  0  0  0
   13.7281  -17.5465   26.0643 O   0  0  0  0  0  0  0  0  0  0  0  0
  2  1  1  1
  3  2  1  0
  4  6  1  0
  4  2  1  0
  4  5  1  6
  6  7  2  0
  8  9  1  0
  9 10  2  0
  9 11  1  0
 11 12  1  0
 13 12  1  1
 14 13  1  0
 14  6  1  0
 15 17  1  0
 15 13  1  0
 16 15  2  0
 18 19  1  6
 18 17  1  0
 19 20  1  0
 20 21  1  0
 21 22  2  0
 23 18  1  0
 23 26  1  0
 24 23  2  0
 25 21  1  0
M  END
$$$$
