GSG.pdb
     RDKit          3D

 15 14  0  0  1  0  0  0  0  0999 V2000
  -11.2094  -23.5909   29.9916 N   0  0  0  0  0  0  0  0  0  0  0  0
   -9.9360  -23.0264   30.3470 C   0  0  0  0  0  0  0  0  0  0  0  0
   -8.8958  -23.2900   29.3280 C   0  0  0  0  0  0  0  0  0  0  0  0
   -9.1661  -23.8085   28.2186 O   0  0  0  0  0  0  0  0  0  0  0  0
   -5.2115  -21.7757   30.1017 O   0  0  0  0  0  0  0  0  0  0  0  0
   -5.5633  -21.9298   28.7824 C   0  0  0  0  0  0  0  0  0  0  0  0
   -6.4790  -23.1361   28.6398 C   0  0  2  0  0  0  0  0  0  0  0  0
   -7.5553  -22.9548   29.5951 N   0  0  0  0  0  0  0  0  0  0  0  0
   -5.7436  -24.4042   28.8741 C   0  0  0  0  0  0  0  0  0  0  0  0
   -5.6159  -24.8690   30.0354 O   0  0  0  0  0  0  0  0  0  0  0  0
   -5.1551  -25.1469   27.8142 N   0  0  0  0  0  0  0  0  0  0  0  0
   -4.5671  -26.4481   28.0510 C   0  0  0  0  0  0  0  0  0  0  0  0
   -3.0775  -26.3027   28.2190 C   0  0  0  0  0  0  0  0  0  0  0  0
   -2.5266  -25.1775   28.1646 O   0  0  0  0  0  0  0  0  0  0  0  0
   -2.2590  -27.4070   28.4401 O   0  0  0  0  0  0  0  0  0  0  0  0
  2  1  1  0
  3  8  1  0
  3  2  1  0
  4  3  2  0
  5  6  1  0
  7  6  1  1
  7  8  1  0
  9  7  1  0
  9 10  2  0
 11  9  1  0
 12 11  1  0
 12 13  1  0
 13 15  1  0
 14 13  2  0
M  END
$$$$
