GSG.pdb
     RDKit          3D

 15 14  0  0  1  0  0  0  0  0999 V2000
    6.1869  -18.2736   19.2344 N   0  0  0  0  0  0  0  0  0  0  0  0
    6.0873  -17.5795   20.4894 C   0  0  0  0  0  0  0  0  0  0  0  0
    7.2230  -16.6588   20.7186 C   0  0  0  0  0  0  0  0  0  0  0  0
    8.1877  -16.5792   19.9212 O   0  0  0  0  0  0  0  0  0  0  0  0
    7.0804  -13.9764   23.9502 O   0  0  0  0  0  0  0  0  0  0  0  0
    7.7065  -13.6829   22.7628 C   0  0  0  0  0  0  0  0  0  0  0  0
    8.3327  -14.9473   22.1942 C   0  0  2  0  0  0  0  0  0  0  0  0
    7.2379  -15.8390   21.8625 N   0  0  0  0  0  0  0  0  0  0  0  0
    9.2733  -15.5671   23.1610 C   0  0  0  0  0  0  0  0  0  0  0  0
    8.8731  -16.4248   23.9886 O   0  0  0  0  0  0  0  0  0  0  0  0
   10.6535  -15.2282   23.2004 N   0  0  0  0  0  0  0  0  0  0  0  0
   11.5565  -15.8811   24.1242 C   0  0  0  0  0  0  0  0  0  0  0  0
   12.8104  -16.2890   23.3967 C   0  0  0  0  0  0  0  0  0  0  0  0
   12.7610  -17.0334   22.3887 O   0  0  0  0  0  0  0  0  0  0  0  0
   14.0666  -15.8574   23.8137 O   0  0  0  0  0  0  0  0  0  0  0  0
  2  1  1  0
  3  8  1  0
  3  2  1  0
  4  3  2  0
  5  6  1  0
  7  6  1  1
  7  8  1  0
  9  7  1  0
  9 10  2  0
 11  9  1  0
 12 11  1  0
 12 13  1  0
 13 15  1  0
 14 13  2  0
M  END
$$$$
