GSG.pdb
     RDKit          3D

 15 14  0  0  1  0  0  0  0  0999 V2000
   10.1252  -21.5928   24.5297 N   0  0  0  0  0  0  0  0  0  0  0  0
    9.6908  -20.2230   24.4932 C   0  0  0  0  0  0  0  0  0  0  0  0
   10.6215  -19.3540   23.7392 C   0  0  0  0  0  0  0  0  0  0  0  0
   11.6761  -19.7958   23.2238 O   0  0  0  0  0  0  0  0  0  0  0  0
    9.6497  -15.3218   23.3220 O   0  0  0  0  0  0  0  0  0  0  0  0
   10.3462  -15.9627   22.3259 C   0  0  0  0  0  0  0  0  0  0  0  0
   11.2236  -17.0449   22.9368 C   0  0  2  0  0  0  0  0  0  0  0  0
   10.3303  -17.9856   23.5855 N   0  0  0  0  0  0  0  0  0  0  0  0
   12.2051  -16.4708   23.8912 C   0  0  0  0  0  0  0  0  0  0  0  0
   11.8727  -16.2055   25.0744 O   0  0  0  0  0  0  0  0  0  0  0  0
   13.5503  -16.1957   23.5224 N   0  0  0  0  0  0  0  0  0  0  0  0
   14.5018  -15.6928   24.4903 C   0  0  0  0  0  0  0  0  0  0  0  0
   15.8477  -15.5316   23.8342 C   0  0  0  0  0  0  0  0  0  0  0  0
   16.0300  -15.8671   22.6396 O   0  0  0  0  0  0  0  0  0  0  0  0
   16.9360  -15.0063   24.5255 O   0  0  0  0  0  0  0  0  0  0  0  0
  2  1  1  0
  3  8  1  0
  3  2  1  0
  4  3  2  0
  5  6  1  0
  7  6  1  1
  7  8  1  0
  9  7  1  0
  9 10  2  0
 11  9  1  0
 12 11  1  0
 12 13  1  0
 13 15  1  0
 14 13  2  0
M  END
$$$$
