GSG.pdb
     RDKit          3D

 15 14  0  0  1  0  0  0  0  0999 V2000
   -2.1668  -29.2171   31.7561 N   0  0  0  0  0  0  0  0  0  0  0  0
   -3.3530  -28.7964   31.0615 C   0  0  0  0  0  0  0  0  0  0  0  0
   -3.2747  -27.3899   30.6082 C   0  0  0  0  0  0  0  0  0  0  0  0
   -2.1801  -26.7919   30.4774 O   0  0  0  0  0  0  0  0  0  0  0  0
   -4.7281  -25.7024   27.6232 O   0  0  0  0  0  0  0  0  0  0  0  0
   -3.8558  -25.1906   28.5534 C   0  0  0  0  0  0  0  0  0  0  0  0
   -4.4795  -25.2834   29.9378 C   0  0  2  0  0  0  0  0  0  0  0  0
   -4.4558  -26.6851   30.3098 N   0  0  0  0  0  0  0  0  0  0  0  0
   -5.8590  -24.7351   29.9475 C   0  0  0  0  0  0  0  0  0  0  0  0
   -6.8514  -25.4864   29.7707 O   0  0  0  0  0  0  0  0  0  0  0  0
   -6.1248  -23.3537   30.1540 N   0  0  0  0  0  0  0  0  0  0  0  0
   -7.4794  -22.8439   30.1393 C   0  0  0  0  0  0  0  0  0  0  0  0
   -7.4617  -21.3638   30.4169 C   0  0  0  0  0  0  0  0  0  0  0  0
   -6.4029  -20.7801   30.7500 O   0  0  0  0  0  0  0  0  0  0  0  0
   -8.6148  -20.5905   30.3148 O   0  0  0  0  0  0  0  0  0  0  0  0
  2  1  1  0
  3  8  1  0
  3  2  1  0
  4  3  2  0
  5  6  1  0
  7  6  1  6
  7  8  1  0
  9  7  1  0
  9 10  2  0
 11  9  1  0
 12 11  1  0
 12 13  1  0
 13 15  1  0
 14 13  2  0
M  END
$$$$
