GSG.pdb
     RDKit          3D

 15 14  0  0  1  0  0  0  0  0999 V2000
   -0.4702  -26.0328   28.1895 N   0  0  0  0  0  0  0  0  0  0  0  0
   -1.8189  -26.1622   28.6699 C   0  0  0  0  0  0  0  0  0  0  0  0
   -2.5058  -24.8566   28.7866 C   0  0  0  0  0  0  0  0  0  0  0  0
   -2.4934  -24.1897   29.8486 O   0  0  0  0  0  0  0  0  0  0  0  0
   -2.7306  -22.1261   25.9862 O   0  0  0  0  0  0  0  0  0  0  0  0
   -3.9963  -22.5420   26.3229 C   0  0  0  0  0  0  0  0  0  0  0  0
   -3.9839  -23.1118   27.7333 C   0  0  2  0  0  0  0  0  0  0  0  0
   -3.2002  -24.3312   27.6808 N   0  0  0  0  0  0  0  0  0  0  0  0
   -5.3610  -23.3641   28.2270 C   0  0  0  0  0  0  0  0  0  0  0  0
   -5.9750  -24.4152   27.9123 O   0  0  0  0  0  0  0  0  0  0  0  0
   -6.0458  -22.4447   29.0679 N   0  0  0  0  0  0  0  0  0  0  0  0
   -7.3750  -22.7331   29.5629 C   0  0  0  0  0  0  0  0  0  0  0  0
   -7.9081  -21.5322   30.2989 C   0  0  0  0  0  0  0  0  0  0  0  0
   -7.1779  -20.5401   30.5339 O   0  0  0  0  0  0  0  0  0  0  0  0
   -9.2259  -21.4777   30.7445 O   0  0  0  0  0  0  0  0  0  0  0  0
  2  1  1  0
  3  8  1  0
  3  2  1  0
  4  3  2  0
  5  6  1  0
  7  6  1  6
  7  8  1  0
  9  7  1  0
  9 10  2  0
 11  9  1  0
 12 11  1  0
 12 13  1  0
 13 15  1  0
 14 13  2  0
M  END
$$$$
