GSG.pdb
     RDKit          3D

 15 14  0  0  1  0  0  0  0  0999 V2000
    8.0027  -13.3380   16.8168 N   0  0  0  0  0  0  0  0  0  0  0  0
    7.4439  -14.1360   17.8739 C   0  0  0  0  0  0  0  0  0  0  0  0
    8.1923  -13.9985   19.1430 C   0  0  0  0  0  0  0  0  0  0  0  0
    9.3256  -13.4636   19.1938 O   0  0  0  0  0  0  0  0  0  0  0  0
    6.3864  -15.2803   22.6939 O   0  0  0  0  0  0  0  0  0  0  0  0
    7.2675  -14.2259   22.6829 C   0  0  0  0  0  0  0  0  0  0  0  0
    8.3246  -14.4602   21.6144 C   0  0  2  0  0  0  0  0  0  0  0  0
    7.6302  -14.4775   20.3411 N   0  0  0  0  0  0  0  0  0  0  0  0
    9.0653  -15.7242   21.8541 C   0  0  0  0  0  0  0  0  0  0  0  0
    8.7235  -16.7892   21.2798 O   0  0  0  0  0  0  0  0  0  0  0  0
   10.1818  -15.7946   22.7315 N   0  0  0  0  0  0  0  0  0  0  0  0
   10.8324  -17.0567   23.0120 C   0  0  0  0  0  0  0  0  0  0  0  0
   12.0674  -16.8121   23.8384 C   0  0  0  0  0  0  0  0  0  0  0  0
   12.4158  -15.6493   24.1535 O   0  0  0  0  0  0  0  0  0  0  0  0
   12.8659  -17.8627   24.2821 O   0  0  0  0  0  0  0  0  0  0  0  0
  2  1  1  0
  3  8  1  0
  3  2  1  0
  4  3  2  0
  5  6  1  0
  7  6  1  1
  7  8  1  0
  9  7  1  0
  9 10  2  0
 11  9  1  0
 12 11  1  0
 12 13  1  0
 13 15  1  0
 14 13  2  0
M  END
$$$$
