GSG.pdb
     RDKit          3D

 15 14  0  0  1  0  0  0  0  0999 V2000
    7.3905  -17.5297   17.4627 N   0  0  0  0  0  0  0  0  0  0  0  0
    6.9856  -17.1914   18.8000 C   0  0  0  0  0  0  0  0  0  0  0  0
    7.9805  -16.3453   19.4957 C   0  0  0  0  0  0  0  0  0  0  0  0
    9.0927  -16.0689   18.9863 O   0  0  0  0  0  0  0  0  0  0  0  0
    7.0851  -14.9923   23.3466 O   0  0  0  0  0  0  0  0  0  0  0  0
    7.7982  -14.1842   22.4942 C   0  0  0  0  0  0  0  0  0  0  0  0
    8.6263  -15.0461   21.5532 C   0  0  2  0  0  0  0  0  0  0  0  0
    7.6865  -15.8255   20.7701 N   0  0  0  0  0  0  0  0  0  0  0  0
    9.5695  -15.9132   22.3029 C   0  0  0  0  0  0  0  0  0  0  0  0
    9.2666  -17.1004   22.5852 O   0  0  0  0  0  0  0  0  0  0  0  0
   10.8441  -15.4533   22.7335 N   0  0  0  0  0  0  0  0  0  0  0  0
   11.7961  -16.3561   23.3447 C   0  0  0  0  0  0  0  0  0  0  0  0
   11.5939  -16.3637   24.8371 C   0  0  0  0  0  0  0  0  0  0  0  0
   10.5195  -15.9657   25.3470 O   0  0  0  0  0  0  0  0  0  0  0  0
   12.5875  -16.8109   25.7036 O   0  0  0  0  0  0  0  0  0  0  0  0
  2  1  1  0
  3  8  1  0
  3  2  1  0
  4  3  2  0
  5  6  1  0
  7  6  1  1
  7  8  1  0
  9  7  1  0
  9 10  2  0
 11  9  1  0
 12 11  1  0
 12 13  1  0
 13 15  1  0
 14 13  2  0
M  END
$$$$
