GSG.pdb
     RDKit          3D

 15 14  0  0  1  0  0  0  0  0999 V2000
   -0.4268  -27.0948   31.9994 N   0  0  0  0  0  0  0  0  0  0  0  0
   -1.7519  -26.5790   32.2111 C   0  0  0  0  0  0  0  0  0  0  0  0
   -2.1557  -25.6107   31.1675 C   0  0  0  0  0  0  0  0  0  0  0  0
   -1.3743  -24.7284   30.7388 O   0  0  0  0  0  0  0  0  0  0  0  0
   -4.8434  -24.7582   27.4384 O   0  0  0  0  0  0  0  0  0  0  0  0
   -4.4738  -25.5809   28.4751 C   0  0  0  0  0  0  0  0  0  0  0  0
   -3.9457  -24.7388   29.6267 C   0  0  2  0  0  0  0  0  0  0  0  0
   -3.4542  -25.6667   30.6273 N   0  0  0  0  0  0  0  0  0  0  0  0
   -4.9999  -23.8480   30.1734 C   0  0  0  0  0  0  0  0  0  0  0  0
   -5.8022  -24.2621   31.0484 O   0  0  0  0  0  0  0  0  0  0  0  0
   -5.1542  -22.5019   29.7426 N   0  0  0  0  0  0  0  0  0  0  0  0
   -6.2232  -21.6718   30.2556 C   0  0  0  0  0  0  0  0  0  0  0  0
   -7.5175  -22.0481   29.5838 C   0  0  0  0  0  0  0  0  0  0  0  0
   -7.5593  -22.9594   28.7233 O   0  0  0  0  0  0  0  0  0  0  0  0
   -8.7115  -21.4014   29.8908 O   0  0  0  0  0  0  0  0  0  0  0  0
  2  1  1  0
  3  8  1  0
  3  2  1  0
  4  3  2  0
  5  6  1  0
  7  6  1  6
  7  8  1  0
  9  7  1  0
  9 10  2  0
 11  9  1  0
 12 11  1  0
 12 13  1  0
 13 15  1  0
 14 13  2  0
M  END
$$$$
