GSG.pdb
     RDKit          3D

 15 14  0  0  1  0  0  0  0  0999 V2000
    8.3305  -14.1109   16.0470 N   0  0  0  0  0  0  0  0  0  0  0  0
    7.5679  -14.1937   17.2628 C   0  0  0  0  0  0  0  0  0  0  0  0
    8.4118  -14.0570   18.4707 C   0  0  0  0  0  0  0  0  0  0  0  0
    9.6607  -13.9634   18.4039 O   0  0  0  0  0  0  0  0  0  0  0  0
    6.6276  -14.2235   22.3130 O   0  0  0  0  0  0  0  0  0  0  0  0
    7.6277  -13.3299   22.0139 C   0  0  0  0  0  0  0  0  0  0  0  0
    8.5619  -13.9422   20.9812 C   0  0  2  0  0  0  0  0  0  0  0  0
    7.8112  -14.0293   19.7432 N   0  0  0  0  0  0  0  0  0  0  0  0
    9.0560  -15.2717   21.4194 C   0  0  0  0  0  0  0  0  0  0  0  0
    8.3637  -16.3061   21.2419 O   0  0  0  0  0  0  0  0  0  0  0  0
   10.3177  -15.4412   22.0525 N   0  0  0  0  0  0  0  0  0  0  0  0
   10.7674  -16.7479   22.4829 C   0  0  0  0  0  0  0  0  0  0  0  0
   12.1486  -16.6345   23.0724 C   0  0  0  0  0  0  0  0  0  0  0  0
   12.7530  -15.5360   23.0990 O   0  0  0  0  0  0  0  0  0  0  0  0
   12.8042  -17.7397   23.6078 O   0  0  0  0  0  0  0  0  0  0  0  0
  2  1  1  0
  3  8  1  0
  3  2  1  0
  4  3  2  0
  5  6  1  0
  7  6  1  1
  7  8  1  0
  9  7  1  0
  9 10  2  0
 11  9  1  0
 12 11  1  0
 12 13  1  0
 13 15  1  0
 14 13  2  0
M  END
$$$$
