GSG.pdb
     RDKit          3D

 15 14  0  0  1  0  0  0  0  0999 V2000
   -1.1077  -26.6832   29.1834 N   0  0  0  0  0  0  0  0  0  0  0  0
   -2.3101  -26.7225   28.3966 C   0  0  0  0  0  0  0  0  0  0  0  0
   -2.9299  -25.3876   28.2429 C   0  0  0  0  0  0  0  0  0  0  0  0
   -2.5164  -24.3845   28.8720 O   0  0  0  0  0  0  0  0  0  0  0  0
   -4.7114  -24.1448   24.8458 O   0  0  0  0  0  0  0  0  0  0  0  0
   -5.5521  -24.0939   25.9315 C   0  0  0  0  0  0  0  0  0  0  0  0
   -4.7288  -23.9651   27.2042 C   0  0  2  0  0  0  0  0  0  0  0  0
   -4.0188  -25.2194   27.3673 N   0  0  0  0  0  0  0  0  0  0  0  0
   -5.5883  -23.6634   28.3763 C   0  0  0  0  0  0  0  0  0  0  0  0
   -6.0730  -24.5899   29.0745 O   0  0  0  0  0  0  0  0  0  0  0  0
   -5.9028  -22.3320   28.7638 N   0  0  0  0  0  0  0  0  0  0  0  0
   -6.7297  -22.0672   29.9219 C   0  0  0  0  0  0  0  0  0  0  0  0
   -8.1408  -22.5139   29.6439 C   0  0  0  0  0  0  0  0  0  0  0  0
   -9.0562  -22.3253   30.4801 O   0  0  0  0  0  0  0  0  0  0  0  0
   -8.4814  -23.1504   28.4535 O   0  0  0  0  0  0  0  0  0  0  0  0
  2  1  1  0
  3  8  1  0
  3  2  1  0
  4  3  2  0
  5  6  1  0
  7  6  1  6
  7  8  1  0
  9  7  1  0
  9 10  2  0
 11  9  1  0
 12 11  1  0
 12 13  1  0
 13 15  1  0
 14 13  2  0
M  END
$$$$
