GSG.pdb
     RDKit          3D

 15 14  0  0  1  0  0  0  0  0999 V2000
    6.4350  -18.2523   18.5817 N   0  0  0  0  0  0  0  0  0  0  0  0
    6.2502  -17.6269   19.8628 C   0  0  0  0  0  0  0  0  0  0  0  0
    7.3644  -16.7191   20.2154 C   0  0  0  0  0  0  0  0  0  0  0  0
    8.3795  -16.5966   19.4891 O   0  0  0  0  0  0  0  0  0  0  0  0
    6.9064  -14.1163   23.4378 O   0  0  0  0  0  0  0  0  0  0  0  0
    7.6998  -13.8158   22.3569 C   0  0  0  0  0  0  0  0  0  0  0  0
    8.3657  -15.0856   21.8487 C   0  0  2  0  0  0  0  0  0  0  0  0
    7.3001  -15.9612   21.3996 N   0  0  0  0  0  0  0  0  0  0  0  0
    9.1928  -15.7225   22.9041 C   0  0  0  0  0  0  0  0  0  0  0  0
    8.6552  -16.3477   23.8533 O   0  0  0  0  0  0  0  0  0  0  0  0
   10.6131  -15.6594   22.8962 N   0  0  0  0  0  0  0  0  0  0  0  0
   11.3950  -16.3110   23.9253 C   0  0  0  0  0  0  0  0  0  0  0  0
   12.8590  -16.0566   23.6801 C   0  0  0  0  0  0  0  0  0  0  0  0
   13.2446  -15.4086   22.6780 O   0  0  0  0  0  0  0  0  0  0  0  0
   13.8357  -16.5289   24.5525 O   0  0  0  0  0  0  0  0  0  0  0  0
  2  1  1  0
  3  8  1  0
  3  2  1  0
  4  3  2  0
  5  6  1  0
  7  6  1  1
  7  8  1  0
  9  7  1  0
  9 10  2  0
 11  9  1  0
 12 11  1  0
 12 13  1  0
 13 15  1  0
 14 13  2  0
M  END
$$$$
