GSG.pdb
     RDKit          3D

 15 14  0  0  1  0  0  0  0  0999 V2000
    3.8847  -19.5064   22.3339 N   0  0  0  0  0  0  0  0  0  0  0  0
    4.2544  -18.1501   22.6348 C   0  0  0  0  0  0  0  0  0  0  0  0
    5.5540  -17.7718   22.0367 C   0  0  0  0  0  0  0  0  0  0  0  0
    6.2241  -18.5699   21.3390 O   0  0  0  0  0  0  0  0  0  0  0  0
    6.7537  -13.7870   21.9277 O   0  0  0  0  0  0  0  0  0  0  0  0
    7.2027  -14.7519   21.0585 C   0  0  0  0  0  0  0  0  0  0  0  0
    7.3883  -16.0625   21.8084 C   0  0  2  0  0  0  0  0  0  0  0  0
    6.0700  -16.4793   22.2469 N   0  0  0  0  0  0  0  0  0  0  0  0
    8.3234  -15.9046   22.9505 C   0  0  0  0  0  0  0  0  0  0  0  0
    7.8931  -15.6484   24.1038 O   0  0  0  0  0  0  0  0  0  0  0  0
    9.7314  -16.0329   22.8015 N   0  0  0  0  0  0  0  0  0  0  0  0
   10.6198  -15.8685   23.9323 C   0  0  0  0  0  0  0  0  0  0  0  0
   12.0487  -15.9118   23.4585 C   0  0  0  0  0  0  0  0  0  0  0  0
   12.9998  -15.7077   24.2501 O   0  0  0  0  0  0  0  0  0  0  0  0
   12.3670  -16.1789   22.1298 O   0  0  0  0  0  0  0  0  0  0  0  0
  2  1  1  0
  3  8  1  0
  3  2  1  0
  4  3  2  0
  5  6  1  0
  7  6  1  1
  7  8  1  0
  9  7  1  0
  9 10  2  0
 11  9  1  0
 12 11  1  0
 12 13  1  0
 13 15  1  0
 14 13  2  0
M  END
$$$$
