VKT.pdb
     RDKit          3D

 24 23  0  0  1  0  0  0  0  0999 V2000
   20.9256  -31.7597  -13.0076 C   0  0  0  0  0  0  0  0  0  0  0  0
   22.1748  -31.4949  -13.8151 C   0  0  2  0  0  0  0  0  0  0  0  0
   21.8349  -30.4837  -14.8679 C   0  0  0  0  0  0  0  0  0  0  0  0
   22.5935  -32.8024  -14.4710 C   0  0  2  0  0  0  0  0  0  0  0  0
   21.4501  -33.3747  -15.1778 N   0  0  0  0  0  0  0  0  0  0  0  0
   23.0745  -33.7634  -13.4236 C   0  0  0  0  0  0  0  0  0  0  0  0
   22.1816  -34.5414  -12.9587 O   0  0  0  0  0  0  0  0  0  0  0  0
   24.4104  -33.8007  -12.9894 N   0  0  0  0  0  0  0  0  0  0  0  0
   24.8735  -34.8104  -12.0234 C   0  0  1  0  0  0  0  0  0  0  0  0
   25.6634  -35.8473  -12.7573 C   0  0  0  0  0  0  0  0  0  0  0  0
   26.2252  -36.9382  -11.9095 C   0  0  0  0  0  0  0  0  0  0  0  0
   27.0644  -37.9104  -12.7702 C   0  0  0  0  0  0  0  0  0  0  0  0
   27.5461  -39.0612  -11.9159 C   0  0  0  0  0  0  0  0  0  0  0  0
   28.3721  -39.9315  -12.7327 N   0  0  0  0  0  0  0  0  0  0  0  0
   25.5625  -34.1071  -10.9491 C   0  0  0  0  0  0  0  0  0  0  0  0
   26.6096  -33.4222  -11.2369 O   0  0  0  0  0  0  0  0  0  0  0  0
   24.4587  -31.3193   -8.6516 C   0  0  0  0  0  0  0  0  0  0  0  0
   25.0211  -32.4243   -7.8199 C   0  0  1  0  0  0  0  0  0  0  0  0
   24.0454  -33.2019   -7.2082 O   0  0  0  0  0  0  0  0  0  0  0  0
   25.9639  -33.2988   -8.5961 C   0  0  2  0  0  0  0  0  0  0  0  0
   25.2138  -34.0759   -9.5815 N   0  0  0  0  0  0  0  0  0  0  0  0
   26.7143  -34.1931   -7.6776 C   0  0  0  0  0  0  0  0  0  0  0  0
   26.5273  -35.5665   -7.6702 O   0  0  0  0  0  0  0  0  0  0  0  0
   27.5553  -33.7290   -6.8654 O   0  0  0  0  0  0  0  0  0  0  0  0
  2  1  1  1
  2  4  1  0
  2  3  1  0
  4  5  1  1
  6  7  2  0
  6  4  1  0
  8  6  1  0
  9 10  1  6
  9  8  1  0
 11 10  1  0
 11 12  1  0
 13 14  1  0
 13 12  1  0
 15  9  1  0
 16 15  2  0
 18 19  1  0
 18 20  1  0
 18 17  1  6
 20 21  1  6
 21 15  1  0
 22 23  1  0
 22 20  1  0
 24 22  2  0
M  END
$$$$
