VKT.pdb
     RDKit          3D

 24 23  0  0  1  0  0  0  0  0999 V2000
   14.6888  -12.4358  -16.8339 C   0  0  0  0  0  0  0  0  0  0  0  0
   14.6123  -12.8710  -18.2787 C   0  0  2  0  0  0  0  0  0  0  0  0
   13.2695  -13.4998  -18.4981 C   0  0  0  0  0  0  0  0  0  0  0  0
   15.7087  -13.8988  -18.5162 C   0  0  2  0  0  0  0  0  0  0  0  0
   15.4665  -15.0657  -17.6712 N   0  0  0  0  0  0  0  0  0  0  0  0
   17.0443  -13.3009  -18.1838 C   0  0  0  0  0  0  0  0  0  0  0  0
   17.8163  -14.0541  -17.5090 O   0  0  0  0  0  0  0  0  0  0  0  0
   17.4139  -12.0067  -18.5877 N   0  0  0  0  0  0  0  0  0  0  0  0
   18.7405  -11.4545  -18.2679 C   0  0  1  0  0  0  0  0  0  0  0  0
   19.7852  -12.4085  -18.7536 C   0  0  0  0  0  0  0  0  0  0  0  0
   21.1949  -11.9939  -18.4971 C   0  0  0  0  0  0  0  0  0  0  0  0
   22.1767  -13.0329  -19.0860 C   0  0  0  0  0  0  0  0  0  0  0  0
   23.5987  -12.6218  -18.7779 C   0  0  0  0  0  0  0  0  0  0  0  0
   24.5023  -13.5085  -19.4880 N   0  0  0  0  0  0  0  0  0  0  0  0
   18.7943  -10.1012  -18.8058 C   0  0  0  0  0  0  0  0  0  0  0  0
   18.6594   -9.9387  -20.0722 O   0  0  0  0  0  0  0  0  0  0  0  0
   16.5055   -7.5382  -19.0267 C   0  0  0  0  0  0  0  0  0  0  0  0
   17.6946   -6.8716  -18.4179 C   0  0  1  0  0  0  0  0  0  0  0  0
   17.5795   -6.6910  -17.0450 O   0  0  0  0  0  0  0  0  0  0  0  0
   18.9754   -7.5885  -18.7367 C   0  0  2  0  0  0  0  0  0  0  0  0
   18.9786   -8.8992  -18.0889 N   0  0  0  0  0  0  0  0  0  0  0  0
   20.1429   -6.7802  -18.3006 C   0  0  0  0  0  0  0  0  0  0  0  0
   20.5099   -5.6088  -18.9444 O   0  0  0  0  0  0  0  0  0  0  0  0
   20.8467   -7.1354  -17.3205 O   0  0  0  0  0  0  0  0  0  0  0  0
  2  1  1  1
  2  4  1  0
  2  3  1  0
  4  5  1  1
  6  7  2  0
  6  4  1  0
  8  6  1  0
  9 10  1  6
  9  8  1  0
 11 10  1  0
 11 12  1  0
 13 14  1  0
 13 12  1  0
 15  9  1  0
 16 15  2  0
 18 19  1  0
 18 20  1  0
 18 17  1  1
 20 21  1  1
 21 15  1  0
 22 23  1  0
 22 20  1  0
 24 22  2  0
M  END
$$$$
