VKT.pdb
     RDKit          3D

 24 23  0  0  1  0  0  0  0  0999 V2000
   27.6481  -12.9218  -15.5276 C   0  0  0  0  0  0  0  0  0  0  0  0
   26.5613  -12.0569  -16.1220 C   0  0  2  0  0  0  0  0  0  0  0  0
   26.6496  -10.7044  -15.4821 C   0  0  0  0  0  0  0  0  0  0  0  0
   25.2211  -12.6975  -15.7925 C   0  0  2  0  0  0  0  0  0  0  0  0
   25.1743  -14.0398  -16.3674 N   0  0  0  0  0  0  0  0  0  0  0  0
   24.1086  -11.8647  -16.3586 C   0  0  0  0  0  0  0  0  0  0  0  0
   23.6919  -12.2326  -17.5030 O   0  0  0  0  0  0  0  0  0  0  0  0
   23.5682  -10.7618  -15.6758 N   0  0  0  0  0  0  0  0  0  0  0  0
   22.4004  -10.0343  -16.1996 C   0  0  1  0  0  0  0  0  0  0  0  0
   21.2374  -10.9734  -16.2547 C   0  0  0  0  0  0  0  0  0  0  0  0
   19.9422  -10.3595  -16.6673 C   0  0  0  0  0  0  0  0  0  0  0  0
   18.8161  -11.4187  -16.6525 C   0  0  0  0  0  0  0  0  0  0  0  0
   17.5153  -10.7854  -17.0920 C   0  0  0  0  0  0  0  0  0  0  0  0
   16.4801  -11.8030  -17.0906 N   0  0  0  0  0  0  0  0  0  0  0  0
   22.2306   -8.8349  -15.3896 C   0  0  0  0  0  0  0  0  0  0  0  0
   22.2451   -8.9510  -14.1110 O   0  0  0  0  0  0  0  0  0  0  0  0
   24.0907   -5.3852  -15.7925 C   0  0  0  0  0  0  0  0  0  0  0  0
   22.6301   -5.1756  -15.5654 C   0  0  1  0  0  0  0  0  0  0  0  0
   21.9429   -4.8094  -16.7162 O   0  0  0  0  0  0  0  0  0  0  0  0
   21.9744   -6.3698  -14.9329 C   0  0  2  0  0  0  0  0  0  0  0  0
   22.0492   -7.5107  -15.8440 N   0  0  0  0  0  0  0  0  0  0  0  0
   20.5633   -6.0616  -14.5860 C   0  0  0  0  0  0  0  0  0  0  0  0
   20.2289   -5.2388  -13.5218 O   0  0  0  0  0  0  0  0  0  0  0  0
   19.6122   -6.5426  -15.2541 O   0  0  0  0  0  0  0  0  0  0  0  0
  2  1  1  1
  2  4  1  0
  2  3  1  0
  4  5  1  6
  6  7  2  0
  6  4  1  0
  8  6  1  0
  9 10  1  1
  9  8  1  0
 11 10  1  0
 11 12  1  0
 13 14  1  0
 13 12  1  0
 15  9  1  0
 16 15  2  0
 18 19  1  0
 18 20  1  0
 18 17  1  6
 20 21  1  6
 21 15  1  0
 22 23  1  0
 22 20  1  0
 24 22  2  0
M  END
$$$$
