VKT.pdb
     RDKit          3D

 24 23  0  0  1  0  0  0  0  0999 V2000
   27.5094  -20.0390   -7.1028 C   0  0  0  0  0  0  0  0  0  0  0  0
   26.9246  -20.6941   -8.3323 C   0  0  2  0  0  0  0  0  0  0  0  0
   28.0332  -21.4120   -9.0410 C   0  0  0  0  0  0  0  0  0  0  0  0
   26.3661  -19.5966   -9.2260 C   0  0  2  0  0  0  0  0  0  0  0  0
   25.4303  -18.7791   -8.4576 N   0  0  0  0  0  0  0  0  0  0  0  0
   25.6586  -20.2095  -10.3989 C   0  0  0  0  0  0  0  0  0  0  0  0
   26.4141  -20.8131  -11.2256 O   0  0  0  0  0  0  0  0  0  0  0  0
   24.2667  -20.1228  -10.5708 N   0  0  0  0  0  0  0  0  0  0  0  0
   23.5961  -20.7549  -11.7188 C   0  0  1  0  0  0  0  0  0  0  0  0
   22.2627  -21.2648  -11.2723 C   0  0  0  0  0  0  0  0  0  0  0  0
   21.4082  -21.8422  -12.3499 C   0  0  0  0  0  0  0  0  0  0  0  0
   20.0920  -22.3936  -11.7552 C   0  0  0  0  0  0  0  0  0  0  0  0
   19.2260  -22.9494  -12.8631 C   0  0  0  0  0  0  0  0  0  0  0  0
   17.9433  -23.3322  -12.3017 N   0  0  0  0  0  0  0  0  0  0  0  0
   23.5916  -19.7900  -12.8108 C   0  0  0  0  0  0  0  0  0  0  0  0
   23.3498  -18.5584  -12.5401 O   0  0  0  0  0  0  0  0  0  0  0  0
   25.4173  -20.3338  -16.5257 C   0  0  0  0  0  0  0  0  0  0  0  0
   25.1078  -18.9913  -15.9503 C   0  0  1  0  0  0  0  0  0  0  0  0
   25.1087  -17.9748  -16.8976 O   0  0  0  0  0  0  0  0  0  0  0  0
   23.8138  -18.9826  -15.1877 C   0  0  2  0  0  0  0  0  0  0  0  0
   23.8314  -20.0409  -14.1791 N   0  0  0  0  0  0  0  0  0  0  0  0
   22.6661  -19.1547  -16.1149 C   0  0  0  0  0  0  0  0  0  0  0  0
   22.1363  -18.0962  -16.8361 O   0  0  0  0  0  0  0  0  0  0  0  0
   22.1293  -20.2804  -16.2792 O   0  0  0  0  0  0  0  0  0  0  0  0
  2  1  1  1
  2  4  1  0
  2  3  1  0
  4  5  1  1
  6  7  2  0
  6  4  1  0
  8  6  1  0
  9 10  1  1
  9  8  1  0
 11 10  1  0
 11 12  1  0
 13 14  1  0
 13 12  1  0
 15  9  1  0
 16 15  2  0
 18 19  1  0
 18 20  1  0
 18 17  1  6
 20 21  1  1
 21 15  1  0
 22 23  1  0
 22 20  1  0
 24 22  2  0
M  END
$$$$
