VKT.pdb
     RDKit          3D

 24 23  0  0  1  0  0  0  0  0999 V2000
   23.1457  -11.3882  -15.2741 C   0  0  0  0  0  0  0  0  0  0  0  0
   22.1953  -12.4027  -14.6821 C   0  0  2  0  0  0  0  0  0  0  0  0
   22.9744  -13.6518  -14.4006 C   0  0  0  0  0  0  0  0  0  0  0  0
   21.1151  -12.6896  -15.7145 C   0  0  2  0  0  0  0  0  0  0  0  0
   21.7371  -13.2021  -16.9330 N   0  0  0  0  0  0  0  0  0  0  0  0
   20.3608  -11.4294  -16.0221 C   0  0  0  0  0  0  0  0  0  0  0  0
   20.7447  -10.8162  -17.0687 O   0  0  0  0  0  0  0  0  0  0  0  0
   19.3097  -10.9623  -15.2149 N   0  0  0  0  0  0  0  0  0  0  0  0
   18.5727   -9.7335  -15.5528 C   0  0  1  0  0  0  0  0  0  0  0  0
   17.1136   -9.9740  -15.3276 C   0  0  0  0  0  0  0  0  0  0  0  0
   16.4670  -10.9132  -16.2891 C   0  0  0  0  0  0  0  0  0  0  0  0
   14.9774  -11.1129  -15.9266 C   0  0  0  0  0  0  0  0  0  0  0  0
   14.3618  -12.1400  -16.8498 C   0  0  0  0  0  0  0  0  0  0  0  0
   12.9505  -12.2620  -16.5329 N   0  0  0  0  0  0  0  0  0  0  0  0
   19.1754   -8.6393  -14.8024 C   0  0  0  0  0  0  0  0  0  0  0  0
   19.2534   -8.7414  -13.5250 O   0  0  0  0  0  0  0  0  0  0  0  0
   22.5189   -7.5628  -14.2314 C   0  0  0  0  0  0  0  0  0  0  0  0
   21.7972   -6.3566  -14.7348 C   0  0  1  0  0  0  0  0  0  0  0  0
   22.0222   -6.1054  -16.0828 O   0  0  0  0  0  0  0  0  0  0  0  0
   20.3214   -6.4207  -14.4629 C   0  0  2  0  0  0  0  0  0  0  0  0
   19.7087   -7.4375  -15.3162 N   0  0  0  0  0  0  0  0  0  0  0  0
   19.6957   -5.0927  -14.6900 C   0  0  0  0  0  0  0  0  0  0  0  0
   19.9647   -4.0027  -13.8771 O   0  0  0  0  0  0  0  0  0  0  0  0
   18.8907   -4.9098  -15.6391 O   0  0  0  0  0  0  0  0  0  0  0  0
  2  1  1  6
  2  4  1  0
  2  3  1  0
  4  5  1  6
  6  7  2  0
  6  4  1  0
  8  6  1  0
  9 10  1  1
  9  8  1  0
 11 10  1  0
 11 12  1  0
 13 14  1  0
 13 12  1  0
 15  9  1  0
 16 15  2  0
 18 19  1  0
 18 20  1  0
 18 17  1  6
 20 21  1  6
 21 15  1  0
 22 23  1  0
 22 20  1  0
 24 22  2  0
M  END
$$$$
