VKT.pdb
     RDKit          3D

 24 23  0  0  1  0  0  0  0  0999 V2000
   28.5432  -12.2537  -16.1167 C   0  0  0  0  0  0  0  0  0  0  0  0
   27.1903  -11.6692  -16.4492 C   0  0  2  0  0  0  0  0  0  0  0  0
   27.1518  -10.2689  -15.9161 C   0  0  0  0  0  0  0  0  0  0  0  0
   26.1323  -12.5148  -15.7559 C   0  0  2  0  0  0  0  0  0  0  0  0
   26.2829  -13.9083  -16.1682 N   0  0  0  0  0  0  0  0  0  0  0  0
   24.7651  -12.0212  -16.1284 C   0  0  0  0  0  0  0  0  0  0  0  0
   24.3719  -12.3563  -17.2911 O   0  0  0  0  0  0  0  0  0  0  0  0
   23.9786  -11.2472  -15.2583 N   0  0  0  0  0  0  0  0  0  0  0  0
   22.6574  -10.7417  -15.6657 C   0  0  1  0  0  0  0  0  0  0  0  0
   21.6335  -11.2469  -14.6993 C   0  0  0  0  0  0  0  0  0  0  0  0
   20.2672  -10.6706  -14.8600 C   0  0  0  0  0  0  0  0  0  0  0  0
   19.2529  -11.7822  -15.2148 C   0  0  0  0  0  0  0  0  0  0  0  0
   17.8711  -11.1848  -15.3562 C   0  0  0  0  0  0  0  0  0  0  0  0
   16.9195  -12.2609  -15.5646 N   0  0  0  0  0  0  0  0  0  0  0  0
   22.7640   -9.2949  -15.8038 C   0  0  0  0  0  0  0  0  0  0  0  0
   23.4903   -8.6504  -14.9638 O   0  0  0  0  0  0  0  0  0  0  0  0
   22.3351   -5.0062  -18.2183 C   0  0  0  0  0  0  0  0  0  0  0  0
   22.2698   -6.4970  -18.1685 C   0  0  1  0  0  0  0  0  0  0  0  0
   23.2806   -7.1152  -18.8943 O   0  0  0  0  0  0  0  0  0  0  0  0
   22.2539   -7.0200  -16.7606 C   0  0  2  0  0  0  0  0  0  0  0  0
   22.1530   -8.4784  -16.7798 N   0  0  0  0  0  0  0  0  0  0  0  0
   21.1270   -6.4220  -15.9995 C   0  0  0  0  0  0  0  0  0  0  0  0
   21.3124   -5.3773  -15.1076 O   0  0  0  0  0  0  0  0  0  0  0  0
   19.9520   -6.8483  -16.1402 O   0  0  0  0  0  0  0  0  0  0  0  0
  2  1  1  1
  2  4  1  0
  2  3  1  0
  4  5  1  6
  6  7  2  0
  6  4  1  0
  8  6  1  0
  9 10  1  1
  9  8  1  0
 11 10  1  0
 11 12  1  0
 13 14  1  0
 13 12  1  0
 15  9  1  0
 16 15  2  0
 18 19  1  0
 18 20  1  0
 18 17  1  1
 20 21  1  6
 21 15  1  0
 22 23  1  0
 22 20  1  0
 24 22  2  0
M  END
$$$$
