VKT.pdb
     RDKit          3D

 24 23  0  0  1  0  0  0  0  0999 V2000
   14.6898  -12.2926  -18.8902 C   0  0  0  0  0  0  0  0  0  0  0  0
   14.3367  -10.8434  -19.1308 C   0  0  2  0  0  0  0  0  0  0  0  0
   13.4398  -10.7826  -20.3302 C   0  0  0  0  0  0  0  0  0  0  0  0
   15.6272  -10.0881  -19.4123 C   0  0  2  0  0  0  0  0  0  0  0  0
   16.3175  -10.7160  -20.5365 N   0  0  0  0  0  0  0  0  0  0  0  0
   16.5069  -10.1177  -18.1971 C   0  0  0  0  0  0  0  0  0  0  0  0
   16.0160   -9.5575  -17.1656 O   0  0  0  0  0  0  0  0  0  0  0  0
   17.7771  -10.7188  -18.1987 N   0  0  0  0  0  0  0  0  0  0  0  0
   18.5956  -10.7822  -16.9768 C   0  0  1  0  0  0  0  0  0  0  0  0
   19.4305  -12.0224  -17.0244 C   0  0  0  0  0  0  0  0  0  0  0  0
   18.7543  -13.2640  -16.5491 C   0  0  0  0  0  0  0  0  0  0  0  0
   19.7342  -14.4592  -16.5892 C   0  0  0  0  0  0  0  0  0  0  0  0
   19.0285  -15.7123  -16.1224 C   0  0  0  0  0  0  0  0  0  0  0  0
   19.9428  -16.8329  -16.2457 N   0  0  0  0  0  0  0  0  0  0  0  0
   19.3129   -9.5188  -16.8625 C   0  0  0  0  0  0  0  0  0  0  0  0
   20.0746   -9.1561  -17.8303 O   0  0  0  0  0  0  0  0  0  0  0  0
   18.6738   -6.1644  -17.3672 C   0  0  0  0  0  0  0  0  0  0  0  0
   19.2454   -6.1907  -15.9882 C   0  0  1  0  0  0  0  0  0  0  0  0
   18.2816   -6.0875  -14.9927 O   0  0  0  0  0  0  0  0  0  0  0  0
   20.1035   -7.4003  -15.7499 C   0  0  2  0  0  0  0  0  0  0  0  0
   19.2755   -8.6046  -15.7875 N   0  0  0  0  0  0  0  0  0  0  0  0
   20.8102   -7.2847  -14.4485 C   0  0  0  0  0  0  0  0  0  0  0  0
   21.7802   -6.3214  -14.2197 O   0  0  0  0  0  0  0  0  0  0  0  0
   20.5492   -8.0663  -13.4981 O   0  0  0  0  0  0  0  0  0  0  0  0
  2  1  1  6
  2  4  1  0
  2  3  1  0
  4  5  1  6
  6  7  2  0
  6  4  1  0
  8  6  1  0
  9 10  1  6
  9  8  1  0
 11 10  1  0
 11 12  1  0
 13 14  1  0
 13 12  1  0
 15  9  1  0
 16 15  2  0
 18 19  1  0
 18 20  1  0
 18 17  1  6
 20 21  1  1
 21 15  1  0
 22 23  1  0
 22 20  1  0
 24 22  2  0
M  END
$$$$
