VKT.pdb
     RDKit          3D

 24 23  0  0  1  0  0  0  0  0999 V2000
   23.4229  -14.1575  -16.5661 C   0  0  0  0  0  0  0  0  0  0  0  0
   24.2810  -14.4382  -15.3546 C   0  0  2  0  0  0  0  0  0  0  0  0
   24.7842  -13.1256  -14.8347 C   0  0  0  0  0  0  0  0  0  0  0  0
   25.4526  -15.3002  -15.8010 C   0  0  2  0  0  0  0  0  0  0  0  0
   26.1757  -14.6145  -16.8694 N   0  0  0  0  0  0  0  0  0  0  0  0
   24.9479  -16.6228  -16.2985 C   0  0  0  0  0  0  0  0  0  0  0  0
   24.5729  -16.6311  -17.5143 O   0  0  0  0  0  0  0  0  0  0  0  0
   24.8937  -17.7657  -15.4829 N   0  0  0  0  0  0  0  0  0  0  0  0
   24.3158  -19.0284  -15.9715 C   0  0  1  0  0  0  0  0  0  0  0  0
   25.2792  -20.1368  -15.6873 C   0  0  0  0  0  0  0  0  0  0  0  0
   24.8104  -21.5010  -16.0667 C   0  0  0  0  0  0  0  0  0  0  0  0
   25.8835  -22.5562  -15.7125 C   0  0  0  0  0  0  0  0  0  0  0  0
   26.1544  -23.4309  -16.9158 C   0  0  0  0  0  0  0  0  0  0  0  0
   27.2663  -24.3118  -16.6081 N   0  0  0  0  0  0  0  0  0  0  0  0
   22.9858  -19.1569  -15.3899 C   0  0  0  0  0  0  0  0  0  0  0  0
   22.8555  -19.0174  -14.1203 O   0  0  0  0  0  0  0  0  0  0  0  0
   18.0312  -19.3665  -15.7049 C   0  0  0  0  0  0  0  0  0  0  0  0
   19.3777  -19.1896  -16.3252 C   0  0  1  0  0  0  0  0  0  0  0  0
   19.5709  -17.9242  -16.8659 O   0  0  0  0  0  0  0  0  0  0  0  0
   20.4917  -19.5173  -15.3724 C   0  0  2  0  0  0  0  0  0  0  0  0
   21.7751  -19.4212  -16.0660 N   0  0  0  0  0  0  0  0  0  0  0  0
   20.3001  -20.8747  -14.8002 C   0  0  0  0  0  0  0  0  0  0  0  0
   19.7683  -21.0730  -13.5357 O   0  0  0  0  0  0  0  0  0  0  0  0
   20.6178  -21.9028  -15.4516 O   0  0  0  0  0  0  0  0  0  0  0  0
  2  1  1  6
  2  4  1  0
  2  3  1  0
  4  5  1  6
  6  7  2  0
  6  4  1  0
  8  6  1  0
  9 10  1  1
  9  8  1  0
 11 10  1  0
 11 12  1  0
 13 14  1  0
 13 12  1  0
 15  9  1  0
 16 15  2  0
 18 19  1  0
 18 20  1  0
 18 17  1  1
 20 21  1  6
 21 15  1  0
 22 23  1  0
 22 20  1  0
 24 22  2  0
M  END
$$$$
