VKT.pdb
     RDKit          3D

 24 23  0  0  1  0  0  0  0  0999 V2000
   23.0533  -11.9769  -15.5022 C   0  0  0  0  0  0  0  0  0  0  0  0
   22.0798  -10.8817  -15.1338 C   0  0  2  0  0  0  0  0  0  0  0  0
   22.6390  -10.1492  -13.9518 C   0  0  0  0  0  0  0  0  0  0  0  0
   20.7592  -11.5370  -14.7576 C   0  0  2  0  0  0  0  0  0  0  0  0
   20.3289  -12.4129  -15.8450 N   0  0  0  0  0  0  0  0  0  0  0  0
   19.7204  -10.4813  -14.5162 C   0  0  0  0  0  0  0  0  0  0  0  0
   19.2960   -9.8968  -15.5635 O   0  0  0  0  0  0  0  0  0  0  0  0
   19.2523  -10.1627  -13.2302 N   0  0  0  0  0  0  0  0  0  0  0  0
   18.2347   -9.1193  -13.0226 C   0  0  1  0  0  0  0  0  0  0  0  0
   17.2865   -9.5805  -11.9617 C   0  0  0  0  0  0  0  0  0  0  0  0
   16.2227   -8.6035  -11.5898 C   0  0  0  0  0  0  0  0  0  0  0  0
   15.2246   -9.2461  -10.5992 C   0  0  0  0  0  0  0  0  0  0  0  0
   14.1943   -8.2226  -10.1782 C   0  0  0  0  0  0  0  0  0  0  0  0
   13.1064   -8.9090   -9.5056 N   0  0  0  0  0  0  0  0  0  0  0  0
   18.9353   -7.8668  -12.7695 C   0  0  0  0  0  0  0  0  0  0  0  0
   19.5284   -7.7128  -11.6412 O   0  0  0  0  0  0  0  0  0  0  0  0
   21.9104   -4.3102  -13.5640 C   0  0  0  0  0  0  0  0  0  0  0  0
   21.1393   -5.5492  -13.8792 C   0  0  1  0  0  0  0  0  0  0  0  0
   21.8097   -6.7158  -13.5324 O   0  0  0  0  0  0  0  0  0  0  0  0
   19.7697   -5.5405  -13.2625 C   0  0  2  0  0  0  0  0  0  0  0  0
   19.0550   -6.7597  -13.6371 N   0  0  0  0  0  0  0  0  0  0  0  0
   19.0173   -4.3336  -13.6913 C   0  0  0  0  0  0  0  0  0  0  0  0
   19.0625   -3.1454  -12.9789 O   0  0  0  0  0  0  0  0  0  0  0  0
   18.3050   -4.3487  -14.7279 O   0  0  0  0  0  0  0  0  0  0  0  0
  2  1  1  1
  2  4  1  0
  2  3  1  0
  4  5  1  6
  6  7  2  0
  6  4  1  0
  8  6  1  0
  9 10  1  1
  9  8  1  0
 11 10  1  0
 11 12  1  0
 13 14  1  0
 13 12  1  0
 15  9  1  0
 16 15  2  0
 18 19  1  0
 18 20  1  0
 18 17  1  1
 20 21  1  6
 21 15  1  0
 22 23  1  0
 22 20  1  0
 24 22  2  0
M  END
$$$$
