VKT.pdb
     RDKit          3D

 24 23  0  0  1  0  0  0  0  0999 V2000
   14.8969  -12.2964  -14.6878 C   0  0  0  0  0  0  0  0  0  0  0  0
   16.0133  -11.4970  -15.3183 C   0  0  2  0  0  0  0  0  0  0  0  0
   17.1820  -12.4151  -15.5126 C   0  0  0  0  0  0  0  0  0  0  0  0
   16.3890  -10.3793  -14.3567 C   0  0  2  0  0  0  0  0  0  0  0  0
   15.2088   -9.5632  -14.0819 N   0  0  0  0  0  0  0  0  0  0  0  0
   17.4637   -9.5272  -14.9654 C   0  0  0  0  0  0  0  0  0  0  0  0
   18.5641  -10.1271  -15.1850 O   0  0  0  0  0  0  0  0  0  0  0  0
   17.2691   -8.1693  -15.2698 N   0  0  0  0  0  0  0  0  0  0  0  0
   18.2952   -7.3894  -15.9811 C   0  0  1  0  0  0  0  0  0  0  0  0
   17.6707   -6.7674  -17.1897 C   0  0  0  0  0  0  0  0  0  0  0  0
   17.5441   -7.6649  -18.3743 C   0  0  0  0  0  0  0  0  0  0  0  0
   16.9030   -6.9052  -19.5584 C   0  0  0  0  0  0  0  0  0  0  0  0
   16.7864   -7.8267  -20.7515 C   0  0  0  0  0  0  0  0  0  0  0  0
   16.0830   -7.1271  -21.8111 N   0  0  0  0  0  0  0  0  0  0  0  0
   18.8994   -6.4773  -15.0184 C   0  0  0  0  0  0  0  0  0  0  0  0
   18.1511   -5.9542  -14.1157 O   0  0  0  0  0  0  0  0  0  0  0  0
   21.0591   -6.8781  -12.1387 C   0  0  0  0  0  0  0  0  0  0  0  0
   21.7263   -5.8842  -13.0310 C   0  0  1  0  0  0  0  0  0  0  0  0
   22.7474   -6.4331  -13.7970 O   0  0  0  0  0  0  0  0  0  0  0  0
   20.7482   -5.1663  -13.9164 C   0  0  2  0  0  0  0  0  0  0  0  0
   20.2523   -6.0814  -14.9433 N   0  0  0  0  0  0  0  0  0  0  0  0
   21.3867   -3.9753  -14.5332 C   0  0  0  0  0  0  0  0  0  0  0  0
   21.8041   -2.8896  -13.7792 O   0  0  0  0  0  0  0  0  0  0  0  0
   21.5726   -3.9105  -15.7755 O   0  0  0  0  0  0  0  0  0  0  0  0
  2  1  1  1
  2  4  1  0
  2  3  1  0
  4  5  1  6
  6  7  2  0
  6  4  1  0
  8  6  1  0
  9 10  1  6
  9  8  1  0
 11 10  1  0
 11 12  1  0
 13 14  1  0
 13 12  1  0
 15  9  1  0
 16 15  2  0
 18 19  1  0
 18 20  1  0
 18 17  1  6
 20 21  1  6
 21 15  1  0
 22 23  1  0
 22 20  1  0
 24 22  2  0
M  END
$$$$
