VKT.pdb
     RDKit          3D

 24 23  0  0  1  0  0  0  0  0999 V2000
   12.3284  -11.9678   -9.6505 C   0  0  0  0  0  0  0  0  0  0  0  0
   11.8762  -11.9087  -11.0909 C   0  0  2  0  0  0  0  0  0  0  0  0
   10.6219  -12.7203  -11.2117 C   0  0  0  0  0  0  0  0  0  0  0  0
   12.9721  -12.5210  -11.9505 C   0  0  2  0  0  0  0  0  0  0  0  0
   13.2538  -13.8751  -11.4798 N   0  0  0  0  0  0  0  0  0  0  0  0
   14.2144  -11.6843  -11.8595 C   0  0  0  0  0  0  0  0  0  0  0  0
   15.0861  -12.1061  -11.0343 O   0  0  0  0  0  0  0  0  0  0  0  0
   14.4005  -10.5226  -12.6278 N   0  0  0  0  0  0  0  0  0  0  0  0
   15.6215   -9.7097  -12.5034 C   0  0  1  0  0  0  0  0  0  0  0  0
   16.2947   -9.6508  -13.8379 C   0  0  0  0  0  0  0  0  0  0  0  0
   17.4909   -8.7628  -13.9091 C   0  0  0  0  0  0  0  0  0  0  0  0
   18.1366   -8.8418  -15.3117 C   0  0  0  0  0  0  0  0  0  0  0  0
   19.4295   -8.0578  -15.3221 C   0  0  0  0  0  0  0  0  0  0  0  0
   19.9766   -8.0831  -16.6664 N   0  0  0  0  0  0  0  0  0  0  0  0
   15.2416   -8.4345  -11.9092 C   0  0  0  0  0  0  0  0  0  0  0  0
   14.1483   -7.8808  -12.2921 O   0  0  0  0  0  0  0  0  0  0  0  0
   16.4924   -7.1002   -8.2680 C   0  0  0  0  0  0  0  0  0  0  0  0
   15.3191   -6.4664   -8.9395 C   0  0  1  0  0  0  0  0  0  0  0  0
   15.0183   -5.2042   -8.4426 O   0  0  0  0  0  0  0  0  0  0  0  0
   15.4800   -6.4069  -10.4317 C   0  0  2  0  0  0  0  0  0  0  0  0
   15.9433   -7.7019  -10.9275 N   0  0  0  0  0  0  0  0  0  0  0  0
   16.4285   -5.3270  -10.8068 C   0  0  0  0  0  0  0  0  0  0  0  0
   16.0745   -3.9876  -10.7638 O   0  0  0  0  0  0  0  0  0  0  0  0
   17.5994   -5.5943  -11.1807 O   0  0  0  0  0  0  0  0  0  0  0  0
  2  1  1  1
  2  4  1  0
  2  3  1  0
  4  5  1  1
  6  7  2  0
  6  4  1  0
  8  6  1  0
  9 10  1  6
  9  8  1  0
 11 10  1  0
 11 12  1  0
 13 14  1  0
 13 12  1  0
 15  9  1  0
 16 15  2  0
 18 19  1  0
 18 20  1  0
 18 17  1  1
 20 21  1  1
 21 15  1  0
 22 23  1  0
 22 20  1  0
 24 22  2  0
M  END
$$$$
