PYR.pdb
     RDKit          3D

 31 32  0  0  1  0  0  0  0  0999 V2000
    7.9560  -15.3425   18.7426 N   0  0  0  0  0  0  0  0  0  0  0  0
    6.9229  -14.3782   18.5653 C   0  0  0  0  0  0  0  0  0  0  0  0
    7.5880  -13.0289   18.4194 C   0  0  0  0  0  0  0  0  0  0  0  0
    9.0398  -13.3002   18.6181 C   0  0  0  0  0  0  0  0  0  0  0  0
    9.1175  -14.6873   19.2380 C   0  0  1  0  0  0  0  0  0  0  0  0
    9.1839  -14.5260   20.6989 C   0  0  0  0  0  0  0  0  0  0  0  0
   10.3105  -14.3658   21.2856 O   0  0  0  0  0  0  0  0  0  0  0  0
    6.8590  -12.1533   28.9065 O   0  0  0  0  0  0  0  0  0  0  0  0
    6.9086  -12.4707   27.5415 C   0  0  0  0  0  0  0  0  0  0  0  0
    7.6443  -11.7360   26.6701 C   0  0  0  0  0  0  0  0  0  0  0  0
    7.6696  -12.0813   25.3224 C   0  0  0  0  0  0  0  0  0  0  0  0
    6.9616  -13.1594   24.8413 C   0  0  0  0  0  0  0  0  0  0  0  0
    6.9816  -13.5265   23.4290 C   0  0  0  0  0  0  0  0  0  0  0  0
    8.2090  -14.3313   23.0142 C   0  0  2  0  0  0  0  0  0  0  0  0
    8.0732  -14.5283   21.5842 N   0  0  0  0  0  0  0  0  0  0  0  0
    8.2665  -15.6426   23.6965 C   0  0  0  0  0  0  0  0  0  0  0  0
    7.7436  -16.6705   23.1499 O   0  0  0  0  0  0  0  0  0  0  0  0
    6.2225  -13.8904   25.7392 C   0  0  0  0  0  0  0  0  0  0  0  0
    6.1888  -13.5532   27.0985 C   0  0  0  0  0  0  0  0  0  0  0  0
   12.5301  -18.7389   19.9225 N   0  0  0  0  0  0  0  0  0  0  0  0
   12.2703  -19.7536   20.9006 C   0  0  0  0  0  0  0  0  0  0  0  0
   11.7567  -20.8800   20.4978 N   0  0  0  0  0  0  0  0  0  0  0  0
   12.5498  -19.5739   22.2690 N   0  0  0  0  0  0  0  0  0  0  0  0
   12.3577  -18.2876   22.8879 C   0  0  0  0  0  0  0  0  0  0  0  0
   11.0684  -18.3761   23.7374 C   0  0  0  0  0  0  0  0  0  0  0  0
   10.8833  -17.0656   24.4483 C   0  0  0  0  0  0  0  0  0  0  0  0
    9.6355  -17.0604   25.2600 C   0  0  2  0  0  0  0  0  0  0  0  0
    8.8807  -15.8364   24.9507 N   0  0  0  0  0  0  0  0  0  0  0  0
    9.9447  -17.0386   26.7007 C   0  0  0  0  0  0  0  0  0  0  0  0
    9.7499  -18.2288   27.4274 O   0  0  0  0  0  0  0  0  0  0  0  0
   10.3703  -16.0473   27.3487 O   0  0  0  0  0  0  0  0  0  0  0  0
  1  2  1  0
  3  2  1  0
  4  3  1  0
  5  4  1  0
  5  1  1  0
  5  6  1  1
  6  7  2  0
  8  9  1  0
  9 19  2  0
 10 11  2  0
 10  9  1  0
 11 12  1  0
 12 13  1  0
 12 18  2  0
 14 13  1  1
 14 16  1  0
 15  6  1  0
 15 14  1  0
 16 17  2  0
 19 18  1  0
 20 21  1  0
 21 23  1  0
 22 21  2  0
 23 24  1  0
 24 25  1  0
 25 26  1  0
 27 26  1  6
 27 29  1  0
 28 16  1  0
 28 27  1  0
 29 31  2  0
 29 30  1  0
M  END
$$$$
