PYR.pdb
     RDKit          3D

 31 32  0  0  1  0  0  0  0  0999 V2000
    7.7267  -15.6055   18.7381 N   0  0  0  0  0  0  0  0  0  0  0  0
    6.8390  -14.5306   18.4461 C   0  0  0  0  0  0  0  0  0  0  0  0
    7.6875  -13.3273   18.1049 C   0  0  0  0  0  0  0  0  0  0  0  0
    9.0907  -13.7828   18.3159 C   0  0  0  0  0  0  0  0  0  0  0  0
    8.9883  -15.0702   19.1198 C   0  0  1  0  0  0  0  0  0  0  0  0
    9.1303  -14.7263   20.5433 C   0  0  0  0  0  0  0  0  0  0  0  0
   10.2478  -14.3025   21.0022 O   0  0  0  0  0  0  0  0  0  0  0  0
    7.3066  -11.6926   28.6087 O   0  0  0  0  0  0  0  0  0  0  0  0
    7.2253  -12.2285   27.3154 C   0  0  0  0  0  0  0  0  0  0  0  0
    6.5237  -13.3615   27.0613 C   0  0  0  0  0  0  0  0  0  0  0  0
    6.4652  -13.8637   25.7649 C   0  0  0  0  0  0  0  0  0  0  0  0
    7.1060  -13.2372   24.7199 C   0  0  0  0  0  0  0  0  0  0  0  0
    7.0509  -13.7590   23.3581 C   0  0  0  0  0  0  0  0  0  0  0  0
    8.3221  -14.4772   22.9168 C   0  0  2  0  0  0  0  0  0  0  0  0
    8.1067  -14.8169   21.5238 N   0  0  0  0  0  0  0  0  0  0  0  0
    8.5615  -15.7088   23.7007 C   0  0  0  0  0  0  0  0  0  0  0  0
    7.7398  -16.6825   23.6272 O   0  0  0  0  0  0  0  0  0  0  0  0
    7.8113  -12.0917   24.9975 C   0  0  0  0  0  0  0  0  0  0  0  0
    7.8778  -11.5759   26.2983 C   0  0  0  0  0  0  0  0  0  0  0  0
   14.4827  -18.2687   20.6676 N   0  0  0  0  0  0  0  0  0  0  0  0
   13.0981  -18.5859   20.4780 C   0  0  0  0  0  0  0  0  0  0  0  0
   12.6460  -18.6664   19.2598 N   0  0  0  0  0  0  0  0  0  0  0  0
   12.2197  -18.8110   21.5554 N   0  0  0  0  0  0  0  0  0  0  0  0
   12.2995  -17.9976   22.7413 C   0  0  0  0  0  0  0  0  0  0  0  0
   11.2237  -18.5147   23.7245 C   0  0  0  0  0  0  0  0  0  0  0  0
   11.2526  -17.6478   24.9512 C   0  0  0  0  0  0  0  0  0  0  0  0
    9.8954  -17.1359   25.2857 C   0  0  2  0  0  0  0  0  0  0  0  0
    9.6734  -15.8818   24.5501 N   0  0  0  0  0  0  0  0  0  0  0  0
    9.7871  -16.8318   26.7237 C   0  0  0  0  0  0  0  0  0  0  0  0
    9.7131  -17.9183   27.6161 O   0  0  0  0  0  0  0  0  0  0  0  0
    9.7540  -15.6818   27.2337 O   0  0  0  0  0  0  0  0  0  0  0  0
  1  2  1  0
  3  2  1  0
  4  3  1  0
  5  4  1  0
  5  1  1  0
  5  6  1  1
  6  7  2  0
  8  9  1  0
  9 19  2  0
 10 11  2  0
 10  9  1  0
 11 12  1  0
 12 13  1  0
 12 18  2  0
 14 13  1  1
 14 16  1  0
 15  6  1  0
 15 14  1  0
 16 17  2  0
 19 18  1  0
 20 21  1  0
 21 23  1  0
 22 21  2  0
 23 24  1  0
 24 25  1  0
 25 26  1  0
 27 26  1  1
 27 29  1  0
 28 16  1  0
 28 27  1  0
 29 31  2  0
 29 30  1  0
M  END
$$$$
