PYR.pdb
     RDKit          3D

 31 32  0  0  1  0  0  0  0  0999 V2000
    8.5061  -18.2993   17.1652 N   0  0  0  0  0  0  0  0  0  0  0  0
    7.4362  -17.3964   16.9033 C   0  0  0  0  0  0  0  0  0  0  0  0
    7.9765  -16.3082   16.0042 C   0  0  0  0  0  0  0  0  0  0  0  0
    9.4271  -16.6200   15.8643 C   0  0  0  0  0  0  0  0  0  0  0  0
    9.7405  -17.6208   16.9662 C   0  0  1  0  0  0  0  0  0  0  0  0
   10.2499  -16.8714   18.1254 C   0  0  0  0  0  0  0  0  0  0  0  0
   11.3062  -16.1552   18.0244 O   0  0  0  0  0  0  0  0  0  0  0  0
    5.9903  -11.6930   18.5360 O   0  0  0  0  0  0  0  0  0  0  0  0
    6.7173  -12.6744   19.2251 C   0  0  0  0  0  0  0  0  0  0  0  0
    6.1312  -13.8218   19.6500 C   0  0  0  0  0  0  0  0  0  0  0  0
    6.8845  -14.7732   20.3307 C   0  0  0  0  0  0  0  0  0  0  0  0
    8.2232  -14.5824   20.5889 C   0  0  0  0  0  0  0  0  0  0  0  0
    9.0193  -15.5747   21.3040 C   0  0  0  0  0  0  0  0  0  0  0  0
   10.2230  -16.0869   20.5197 C   0  0  2  0  0  0  0  0  0  0  0  0
    9.6674  -16.8521   19.4206 N   0  0  0  0  0  0  0  0  0  0  0  0
   11.0915  -16.9550   21.3447 C   0  0  0  0  0  0  0  0  0  0  0  0
   10.6661  -18.0902   21.7434 O   0  0  0  0  0  0  0  0  0  0  0  0
    8.7980  -13.4143   20.1510 C   0  0  0  0  0  0  0  0  0  0  0  0
    8.0506  -12.4486   19.4646 C   0  0  0  0  0  0  0  0  0  0  0  0
   17.5697  -19.7803   23.9886 N   0  0  0  0  0  0  0  0  0  0  0  0
   18.0836  -19.8246   22.6515 C   0  0  0  0  0  0  0  0  0  0  0  0
   18.7871  -20.8608   22.2962 N   0  0  0  0  0  0  0  0  0  0  0  0
   17.8548  -18.7945   21.7191 N   0  0  0  0  0  0  0  0  0  0  0  0
   17.0112  -17.6782   22.0608 C   0  0  0  0  0  0  0  0  0  0  0  0
   15.5661  -18.2158   22.1795 C   0  0  0  0  0  0  0  0  0  0  0  0
   14.6514  -17.0519   22.4361 C   0  0  0  0  0  0  0  0  0  0  0  0
   13.2336  -17.4911   22.5499 C   0  0  2  0  0  0  0  0  0  0  0  0
   12.3996  -16.5981   21.7312 N   0  0  0  0  0  0  0  0  0  0  0  0
   12.7604  -17.3875   23.9418 C   0  0  0  0  0  0  0  0  0  0  0  0
   13.0397  -18.4625   24.8071 O   0  0  0  0  0  0  0  0  0  0  0  0
   12.1243  -16.4197   24.4342 O   0  0  0  0  0  0  0  0  0  0  0  0
  1  2  1  0
  3  2  1  0
  4  3  1  0
  5  4  1  0
  5  1  1  0
  5  6  1  1
  6  7  2  0
  8  9  1  0
  9 19  2  0
 10 11  2  0
 10  9  1  0
 11 12  1  0
 12 13  1  0
 12 18  2  0
 14 13  1  1
 14 16  1  0
 15  6  1  0
 15 14  1  0
 16 17  2  0
 19 18  1  0
 20 21  1  0
 21 23  1  0
 22 21  2  0
 23 24  1  0
 24 25  1  0
 25 26  1  0
 27 26  1  1
 27 29  1  0
 28 16  1  0
 28 27  1  0
 29 31  2  0
 29 30  1  0
M  END
$$$$
