PYR.pdb
     RDKit          3D

 31 32  0  0  1  0  0  0  0  0999 V2000
    7.5986  -15.3529   18.5322 N   0  0  0  0  0  0  0  0  0  0  0  0
    6.6374  -14.3285   18.2971 C   0  0  0  0  0  0  0  0  0  0  0  0
    7.3992  -13.0583   17.9961 C   0  0  0  0  0  0  0  0  0  0  0  0
    8.8324  -13.4275   18.1698 C   0  0  0  0  0  0  0  0  0  0  0  0
    8.8278  -14.7509   18.9200 C   0  0  1  0  0  0  0  0  0  0  0  0
    8.9688  -14.4572   20.3548 C   0  0  0  0  0  0  0  0  0  0  0  0
   10.0857  -14.0487   20.8288 O   0  0  0  0  0  0  0  0  0  0  0  0
    6.9352  -12.4218   28.7498 O   0  0  0  0  0  0  0  0  0  0  0  0
    6.9368  -12.7076   27.3770 C   0  0  0  0  0  0  0  0  0  0  0  0
    7.4588  -11.8401   26.4739 C   0  0  0  0  0  0  0  0  0  0  0  0
    7.4429  -12.1578   25.1193 C   0  0  0  0  0  0  0  0  0  0  0  0
    6.9067  -13.3407   24.6628 C   0  0  0  0  0  0  0  0  0  0  0  0
    6.8846  -13.6800   23.2436 C   0  0  0  0  0  0  0  0  0  0  0  0
    8.1695  -14.3304   22.7409 C   0  0  2  0  0  0  0  0  0  0  0  0
    7.9450  -14.5836   21.3310 N   0  0  0  0  0  0  0  0  0  0  0  0
    8.4540  -15.6035   23.4385 C   0  0  0  0  0  0  0  0  0  0  0  0
    7.7199  -16.6258   23.2269 O   0  0  0  0  0  0  0  0  0  0  0  0
    6.3828  -14.2055   25.5926 C   0  0  0  0  0  0  0  0  0  0  0  0
    6.3928  -13.8974   26.9592 C   0  0  0  0  0  0  0  0  0  0  0  0
   15.4518  -21.4279   26.1165 N   0  0  0  0  0  0  0  0  0  0  0  0
   14.6723  -20.7360   25.1329 C   0  0  0  0  0  0  0  0  0  0  0  0
   15.0932  -20.7376   23.9009 N   0  0  0  0  0  0  0  0  0  0  0  0
   13.4782  -20.0615   25.4523 N   0  0  0  0  0  0  0  0  0  0  0  0
   12.6810  -19.4621   24.4132 C   0  0  0  0  0  0  0  0  0  0  0  0
   11.3865  -18.9353   25.0755 C   0  0  0  0  0  0  0  0  0  0  0  0
   11.0899  -17.5750   24.5110 C   0  0  0  0  0  0  0  0  0  0  0  0
    9.7842  -17.0564   25.0032 C   0  0  2  0  0  0  0  0  0  0  0  0
    9.5169  -15.7658   24.3505 N   0  0  0  0  0  0  0  0  0  0  0  0
    9.8266  -16.8181   26.4569 C   0  0  0  0  0  0  0  0  0  0  0  0
    9.7043  -17.9355   27.3047 O   0  0  0  0  0  0  0  0  0  0  0  0
    9.9630  -15.6994   27.0170 O   0  0  0  0  0  0  0  0  0  0  0  0
  1  2  1  0
  3  2  1  0
  4  3  1  0
  5  4  1  0
  5  1  1  0
  5  6  1  1
  6  7  2  0
  8  9  1  0
  9 19  2  0
 10 11  2  0
 10  9  1  0
 11 12  1  0
 12 13  1  0
 12 18  2  0
 14 13  1  1
 14 16  1  0
 15  6  1  0
 15 14  1  0
 16 17  2  0
 19 18  1  0
 20 21  1  0
 21 23  1  0
 22 21  2  0
 23 24  1  0
 24 25  1  0
 25 26  1  0
 27 26  1  6
 27 29  1  0
 28 16  1  0
 28 27  1  0
 29 31  2  0
 29 30  1  0
M  END
$$$$
