PYR.pdb
     RDKit          3D

 31 32  0  0  1  0  0  0  0  0999 V2000
    8.0537  -15.3186   18.2960 N   0  0  0  0  0  0  0  0  0  0  0  0
    6.9393  -14.4525   18.1050 C   0  0  0  0  0  0  0  0  0  0  0  0
    7.4841  -13.0576   17.9008 C   0  0  0  0  0  0  0  0  0  0  0  0
    8.9566  -13.1973   18.0819 C   0  0  0  0  0  0  0  0  0  0  0  0
    9.1624  -14.5497   18.7473 C   0  0  1  0  0  0  0  0  0  0  0  0
    9.2372  -14.3315   20.2004 C   0  0  0  0  0  0  0  0  0  0  0  0
   10.2470  -13.7388   20.7184 O   0  0  0  0  0  0  0  0  0  0  0  0
    6.7597  -13.0653   28.6050 O   0  0  0  0  0  0  0  0  0  0  0  0
    6.8122  -13.4293   27.2518 C   0  0  0  0  0  0  0  0  0  0  0  0
    6.6393  -14.7159   26.8575 C   0  0  0  0  0  0  0  0  0  0  0  0
    6.6979  -15.0396   25.5055 C   0  0  0  0  0  0  0  0  0  0  0  0
    6.9290  -14.0814   24.5445 C   0  0  0  0  0  0  0  0  0  0  0  0
    6.9938  -14.4135   23.1249 C   0  0  0  0  0  0  0  0  0  0  0  0
    8.4130  -14.5113   22.5746 C   0  0  2  0  0  0  0  0  0  0  0  0
    8.2577  -14.7278   21.1494 N   0  0  0  0  0  0  0  0  0  0  0  0
    9.1613  -15.6385   23.1731 C   0  0  0  0  0  0  0  0  0  0  0  0
    8.6990  -16.8254   23.0945 O   0  0  0  0  0  0  0  0  0  0  0  0
    7.1019  -12.7848   24.9638 C   0  0  0  0  0  0  0  0  0  0  0  0
    7.0451  -12.4459   26.3219 C   0  0  0  0  0  0  0  0  0  0  0  0
   14.2246  -17.1038   20.0438 N   0  0  0  0  0  0  0  0  0  0  0  0
   14.5286  -15.7036   20.0718 C   0  0  0  0  0  0  0  0  0  0  0  0
   14.7758  -15.1044   18.9428 N   0  0  0  0  0  0  0  0  0  0  0  0
   14.5682  -14.9624   21.2685 N   0  0  0  0  0  0  0  0  0  0  0  0
   14.3723  -15.6169   22.5364 C   0  0  0  0  0  0  0  0  0  0  0  0
   12.8501  -15.8243   22.7143 C   0  0  0  0  0  0  0  0  0  0  0  0
   12.6084  -16.3722   24.0922 C   0  0  0  0  0  0  0  0  0  0  0  0
   11.1623  -16.6384   24.3241 C   0  0  2  0  0  0  0  0  0  0  0  0
   10.3905  -15.4814   23.8455 N   0  0  0  0  0  0  0  0  0  0  0  0
   10.8799  -16.7959   25.7619 C   0  0  0  0  0  0  0  0  0  0  0  0
   10.2382  -15.7299   26.4210 O   0  0  0  0  0  0  0  0  0  0  0  0
   11.1610  -17.8027   26.4626 O   0  0  0  0  0  0  0  0  0  0  0  0
  1  2  1  0
  3  2  1  0
  4  3  1  0
  5  4  1  0
  5  1  1  0
  5  6  1  1
  6  7  2  0
  8  9  1  0
  9 19  2  0
 10 11  2  0
 10  9  1  0
 11 12  1  0
 12 13  1  0
 12 18  2  0
 14 13  1  1
 14 16  1  0
 15  6  1  0
 15 14  1  0
 16 17  2  0
 19 18  1  0
 20 21  1  0
 21 23  1  0
 22 21  2  0
 23 24  1  0
 24 25  1  0
 25 26  1  0
 27 26  1  1
 27 29  1  0
 28 16  1  0
 28 27  1  0
 29 31  2  0
 29 30  1  0
M  END
$$$$
