PYR.pdb
     RDKit          3D

 31 32  0  0  1  0  0  0  0  0999 V2000
    8.5514  -18.4365   18.6197 N   0  0  0  0  0  0  0  0  0  0  0  0
    7.6921  -17.5237   17.9438 C   0  0  0  0  0  0  0  0  0  0  0  0
    8.5662  -16.6243   17.1004 C   0  0  0  0  0  0  0  0  0  0  0  0
    9.9600  -17.0400   17.4252 C   0  0  0  0  0  0  0  0  0  0  0  0
    9.8553  -17.8724   18.6941 C   0  0  1  0  0  0  0  0  0  0  0  0
   10.1000  -16.9822   19.8398 C   0  0  0  0  0  0  0  0  0  0  0  0
   11.1938  -16.3230   19.9298 O   0  0  0  0  0  0  0  0  0  0  0  0
    7.3306  -11.7337   17.7282 O   0  0  0  0  0  0  0  0  0  0  0  0
    7.6129  -12.5227   18.8526 C   0  0  0  0  0  0  0  0  0  0  0  0
    8.7081  -12.2951   19.6203 C   0  0  0  0  0  0  0  0  0  0  0  0
    8.9557  -13.0987   20.7289 C   0  0  0  0  0  0  0  0  0  0  0  0
    8.1120  -14.1304   21.0740 C   0  0  0  0  0  0  0  0  0  0  0  0
    8.3662  -14.9787   22.2340 C   0  0  0  0  0  0  0  0  0  0  0  0
    9.5463  -15.9294   22.0609 C   0  0  2  0  0  0  0  0  0  0  0  0
    9.2068  -16.7587   20.9211 N   0  0  0  0  0  0  0  0  0  0  0  0
    9.7510  -16.7792   23.2544 C   0  0  0  0  0  0  0  0  0  0  0  0
    8.8454  -17.6030   23.6148 O   0  0  0  0  0  0  0  0  0  0  0  0
    7.0090  -14.3449   20.2841 C   0  0  0  0  0  0  0  0  0  0  0  0
    6.7484  -13.5430   19.1654 C   0  0  0  0  0  0  0  0  0  0  0  0
   16.2612  -15.6999   23.3824 N   0  0  0  0  0  0  0  0  0  0  0  0
   16.2763  -16.7535   22.4111 C   0  0  0  0  0  0  0  0  0  0  0  0
   17.3376  -16.8929   21.6702 N   0  0  0  0  0  0  0  0  0  0  0  0
   15.1916  -17.6339   22.2338 N   0  0  0  0  0  0  0  0  0  0  0  0
   14.5974  -18.2937   23.3678 C   0  0  0  0  0  0  0  0  0  0  0  0
   13.2077  -17.6539   23.5934 C   0  0  0  0  0  0  0  0  0  0  0  0
   12.5417  -18.3673   24.7357 C   0  0  0  0  0  0  0  0  0  0  0  0
   11.2120  -17.7738   25.0446 C   0  0  2  0  0  0  0  0  0  0  0  0
   10.9183  -16.7366   24.0441 N   0  0  0  0  0  0  0  0  0  0  0  0
   11.2198  -17.1245   26.3675 C   0  0  0  0  0  0  0  0  0  0  0  0
   11.3480  -17.9521   27.4993 O   0  0  0  0  0  0  0  0  0  0  0  0
   11.1216  -15.8885   26.5829 O   0  0  0  0  0  0  0  0  0  0  0  0
  1  2  1  0
  3  2  1  0
  4  3  1  0
  5  4  1  0
  5  1  1  0
  5  6  1  1
  6  7  2  0
  8  9  1  0
  9 19  2  0
 10 11  2  0
 10  9  1  0
 11 12  1  0
 12 13  1  0
 12 18  2  0
 14 13  1  1
 14 16  1  0
 15  6  1  0
 15 14  1  0
 16 17  2  0
 19 18  1  0
 20 21  1  0
 21 23  1  0
 22 21  2  0
 23 24  1  0
 24 25  1  0
 25 26  1  0
 27 26  1  6
 27 29  1  0
 28 16  1  0
 28 27  1  0
 29 31  2  0
 29 30  1  0
M  END
$$$$
