PYR.pdb
     RDKit          3D

 31 32  0  0  1  0  0  0  0  0999 V2000
    7.0904  -15.2544   18.3469 N   0  0  0  0  0  0  0  0  0  0  0  0
    6.1420  -14.1955   18.2585 C   0  0  0  0  0  0  0  0  0  0  0  0
    6.9084  -12.9309   17.9460 C   0  0  0  0  0  0  0  0  0  0  0  0
    8.3401  -13.3444   17.9586 C   0  0  0  0  0  0  0  0  0  0  0  0
    8.3691  -14.7041   18.6400 C   0  0  1  0  0  0  0  0  0  0  0  0
    8.6583  -14.4885   20.0664 C   0  0  0  0  0  0  0  0  0  0  0  0
    9.8159  -14.0921   20.4431 O   0  0  0  0  0  0  0  0  0  0  0  0
    7.2329  -12.6012   28.6214 O   0  0  0  0  0  0  0  0  0  0  0  0
    7.1128  -13.0321   27.2923 C   0  0  0  0  0  0  0  0  0  0  0  0
    7.0796  -14.3509   26.9758 C   0  0  0  0  0  0  0  0  0  0  0  0
    6.9593  -14.7410   25.6456 C   0  0  0  0  0  0  0  0  0  0  0  0
    6.8719  -13.8171   24.6288 C   0  0  0  0  0  0  0  0  0  0  0  0
    6.7476  -14.2185   23.2313 C   0  0  0  0  0  0  0  0  0  0  0  0
    8.0829  -14.4052   22.5181 C   0  0  2  0  0  0  0  0  0  0  0  0
    7.7440  -14.6822   21.1358 N   0  0  0  0  0  0  0  0  0  0  0  0
    8.8562  -15.5345   23.0794 C   0  0  0  0  0  0  0  0  0  0  0  0
    8.5041  -16.7357   22.8310 O   0  0  0  0  0  0  0  0  0  0  0  0
    6.9077  -12.4869   24.9695 C   0  0  0  0  0  0  0  0  0  0  0  0
    7.0284  -12.0812   26.3049 C   0  0  0  0  0  0  0  0  0  0  0  0
   17.5207  -16.3796   24.4728 N   0  0  0  0  0  0  0  0  0  0  0  0
   16.9082  -17.6616   24.6608 C   0  0  0  0  0  0  0  0  0  0  0  0
   17.6811  -18.6899   24.8614 N   0  0  0  0  0  0  0  0  0  0  0  0
   15.5120  -17.8434   24.6359 N   0  0  0  0  0  0  0  0  0  0  0  0
   14.6445  -16.7620   24.2456 C   0  0  0  0  0  0  0  0  0  0  0  0
   13.1925  -17.2177   24.5207 C   0  0  0  0  0  0  0  0  0  0  0  0
   12.2632  -16.1341   24.0522 C   0  0  0  0  0  0  0  0  0  0  0  0
   10.8399  -16.5011   24.2874 C   0  0  2  0  0  0  0  0  0  0  0  0
    9.9924  -15.3642   23.8966 N   0  0  0  0  0  0  0  0  0  0  0  0
   10.5939  -16.7672   25.7159 C   0  0  0  0  0  0  0  0  0  0  0  0
   10.9725  -18.0266   26.2191 O   0  0  0  0  0  0  0  0  0  0  0  0
   10.0725  -15.9676   26.5359 O   0  0  0  0  0  0  0  0  0  0  0  0
  1  2  1  0
  3  2  1  0
  4  3  1  0
  5  4  1  0
  5  1  1  0
  5  6  1  1
  6  7  2  0
  8  9  1  0
  9 19  2  0
 10 11  2  0
 10  9  1  0
 11 12  1  0
 12 13  1  0
 12 18  2  0
 14 13  1  1
 14 16  1  0
 15  6  1  0
 15 14  1  0
 16 17  2  0
 19 18  1  0
 20 21  1  0
 21 23  1  0
 22 21  2  0
 23 24  1  0
 24 25  1  0
 25 26  1  0
 27 26  1  1
 27 29  1  0
 28 16  1  0
 28 27  1  0
 29 31  2  0
 29 30  1  0
M  END
$$$$
