PYR.pdb
     RDKit          3D

 31 32  0  0  1  0  0  0  0  0999 V2000
    7.3991  -15.0555   18.4143 N   0  0  0  0  0  0  0  0  0  0  0  0
    6.5174  -13.9411   18.3168 C   0  0  0  0  0  0  0  0  0  0  0  0
    7.3703  -12.7097   18.1157 C   0  0  0  0  0  0  0  0  0  0  0  0
    8.7735  -13.2045   18.2000 C   0  0  0  0  0  0  0  0  0  0  0  0
    8.6833  -14.5929   18.8151 C   0  0  1  0  0  0  0  0  0  0  0  0
    8.8880  -14.4584   20.2659 C   0  0  0  0  0  0  0  0  0  0  0  0
   10.0703  -14.4240   20.7560 O   0  0  0  0  0  0  0  0  0  0  0  0
    7.1904  -12.5615   28.7945 O   0  0  0  0  0  0  0  0  0  0  0  0
    7.1207  -12.7947   27.4135 C   0  0  0  0  0  0  0  0  0  0  0  0
    7.5038  -11.8521   26.5161 C   0  0  0  0  0  0  0  0  0  0  0  0
    7.4208  -12.1193   25.1531 C   0  0  0  0  0  0  0  0  0  0  0  0
    6.9556  -13.3265   24.6825 C   0  0  0  0  0  0  0  0  0  0  0  0
    6.8636  -13.6133   23.2545 C   0  0  0  0  0  0  0  0  0  0  0  0
    8.1358  -14.2061   22.6574 C   0  0  2  0  0  0  0  0  0  0  0  0
    7.8611  -14.3564   21.2417 N   0  0  0  0  0  0  0  0  0  0  0  0
    8.4610  -15.5235   23.2464 C   0  0  0  0  0  0  0  0  0  0  0  0
    7.7647  -16.5488   22.9419 O   0  0  0  0  0  0  0  0  0  0  0  0
    6.5722  -14.2675   25.6067 C   0  0  0  0  0  0  0  0  0  0  0  0
    6.6511  -14.0109   26.9816 C   0  0  0  0  0  0  0  0  0  0  0  0
   12.0122  -22.2046   25.1090 N   0  0  0  0  0  0  0  0  0  0  0  0
   13.1617  -21.4469   24.7110 C   0  0  0  0  0  0  0  0  0  0  0  0
   14.3096  -21.7400   25.2507 N   0  0  0  0  0  0  0  0  0  0  0  0
   13.0908  -20.4064   23.7648 N   0  0  0  0  0  0  0  0  0  0  0  0
   13.0964  -19.0314   24.1937 C   0  0  0  0  0  0  0  0  0  0  0  0
   11.6907  -18.7225   24.7596 C   0  0  0  0  0  0  0  0  0  0  0  0
   11.2076  -17.4402   24.1435 C   0  0  0  0  0  0  0  0  0  0  0  0
    9.8618  -17.0649   24.6572 C   0  0  2  0  0  0  0  0  0  0  0  0
    9.5237  -15.7262   24.1505 N   0  0  0  0  0  0  0  0  0  0  0  0
    9.8607  -16.9954   26.1293 C   0  0  0  0  0  0  0  0  0  0  0  0
    9.5563  -18.1736   26.8375 O   0  0  0  0  0  0  0  0  0  0  0  0
   10.1085  -15.9726   26.8193 O   0  0  0  0  0  0  0  0  0  0  0  0
  1  2  1  0
  3  2  1  0
  4  3  1  0
  5  4  1  0
  5  1  1  0
  5  6  1  1
  6  7  2  0
  8  9  1  0
  9 19  2  0
 10 11  2  0
 10  9  1  0
 11 12  1  0
 12 13  1  0
 12 18  2  0
 14 13  1  1
 14 16  1  0
 15  6  1  0
 15 14  1  0
 16 17  2  0
 19 18  1  0
 20 21  1  0
 21 23  1  0
 22 21  2  0
 23 24  1  0
 24 25  1  0
 25 26  1  0
 27 26  1  6
 27 29  1  0
 28 16  1  0
 28 27  1  0
 29 31  2  0
 29 30  1  0
M  END
$$$$
