PYR.pdb
     RDKit          3D

 31 32  0  0  1  0  0  0  0  0999 V2000
    6.8482  -14.6880   19.6530 N   0  0  0  0  0  0  0  0  0  0  0  0
    6.7098  -13.3309   19.2437 C   0  0  0  0  0  0  0  0  0  0  0  0
    7.8600  -13.0227   18.3130 C   0  0  0  0  0  0  0  0  0  0  0  0
    8.6855  -14.2635   18.3094 C   0  0  0  0  0  0  0  0  0  0  0  0
    8.2080  -15.0781   19.5021 C   0  0  1  0  0  0  0  0  0  0  0  0
    9.0889  -14.7718   20.6400 C   0  0  0  0  0  0  0  0  0  0  0  0
   10.3536  -14.9495   20.5504 O   0  0  0  0  0  0  0  0  0  0  0  0
    5.4908  -13.1768   27.8779 O   0  0  0  0  0  0  0  0  0  0  0  0
    6.3864  -13.0643   26.8047 C   0  0  0  0  0  0  0  0  0  0  0  0
    5.9524  -12.8145   25.5438 C   0  0  0  0  0  0  0  0  0  0  0  0
    6.8706  -12.7092   24.5036 C   0  0  0  0  0  0  0  0  0  0  0  0
    8.2228  -12.8527   24.7187 C   0  0  0  0  0  0  0  0  0  0  0  0
    9.1916  -12.7457   23.6326 C   0  0  0  0  0  0  0  0  0  0  0  0
    9.5806  -14.0844   23.0137 C   0  0  2  0  0  0  0  0  0  0  0  0
    8.6695  -14.2719   21.9015 N   0  0  0  0  0  0  0  0  0  0  0  0
    9.4342  -15.2004   23.9737 C   0  0  0  0  0  0  0  0  0  0  0  0
    8.2722  -15.6226   24.2901 O   0  0  0  0  0  0  0  0  0  0  0  0
    8.6421  -13.1056   26.0021 C   0  0  0  0  0  0  0  0  0  0  0  0
    7.7279  -13.2138   27.0580 C   0  0  0  0  0  0  0  0  0  0  0  0
   13.6082  -22.8120   23.8934 N   0  0  0  0  0  0  0  0  0  0  0  0
   12.1919  -22.6031   23.8289 C   0  0  0  0  0  0  0  0  0  0  0  0
   11.4871  -23.3916   23.0697 N   0  0  0  0  0  0  0  0  0  0  0  0
   11.5444  -21.5832   24.5525 N   0  0  0  0  0  0  0  0  0  0  0  0
   11.9359  -20.2079   24.3801 C   0  0  0  0  0  0  0  0  0  0  0  0
   11.1495  -19.3743   25.4185 C   0  0  0  0  0  0  0  0  0  0  0  0
   11.5271  -17.9305   25.2453 C   0  0  0  0  0  0  0  0  0  0  0  0
   10.3511  -17.0365   25.4286 C   0  0  2  0  0  0  0  0  0  0  0  0
   10.5297  -15.8481   24.5807 N   0  0  0  0  0  0  0  0  0  0  0  0
   10.2533  -16.5748   26.8247 C   0  0  0  0  0  0  0  0  0  0  0  0
    9.8904  -17.5223   27.8009 O   0  0  0  0  0  0  0  0  0  0  0  0
   10.4654  -15.4025   27.2302 O   0  0  0  0  0  0  0  0  0  0  0  0
  1  2  1  0
  3  2  1  0
  4  3  1  0
  5  4  1  0
  5  1  1  0
  5  6  1  1
  6  7  2  0
  8  9  1  0
  9 19  2  0
 10 11  2  0
 10  9  1  0
 11 12  1  0
 12 13  1  0
 12 18  2  0
 14 13  1  1
 14 16  1  0
 15  6  1  0
 15 14  1  0
 16 17  2  0
 19 18  1  0
 20 21  1  0
 21 23  1  0
 22 21  2  0
 23 24  1  0
 24 25  1  0
 25 26  1  0
 27 26  1  1
 27 29  1  0
 28 16  1  0
 28 27  1  0
 29 31  2  0
 29 30  1  0
M  END
$$$$
