PYR.pdb
     RDKit          3D

 31 32  0  0  1  0  0  0  0  0999 V2000
    7.7477  -15.5175   18.4807 N   0  0  0  0  0  0  0  0  0  0  0  0
    6.6165  -14.6776   18.2723 C   0  0  0  0  0  0  0  0  0  0  0  0
    7.1358  -13.2875   17.9856 C   0  0  0  0  0  0  0  0  0  0  0  0
    8.6140  -13.3976   18.1393 C   0  0  0  0  0  0  0  0  0  0  0  0
    8.8547  -14.7117   18.8669 C   0  0  1  0  0  0  0  0  0  0  0  0
    8.9589  -14.4191   20.3051 C   0  0  0  0  0  0  0  0  0  0  0  0
    9.9554  -13.7595   20.7645 O   0  0  0  0  0  0  0  0  0  0  0  0
    6.7899  -12.4512   28.6230 O   0  0  0  0  0  0  0  0  0  0  0  0
    6.8122  -12.8317   27.2734 C   0  0  0  0  0  0  0  0  0  0  0  0
    7.1993  -11.9686   26.3009 C   0  0  0  0  0  0  0  0  0  0  0  0
    7.2089  -12.3817   24.9722 C   0  0  0  0  0  0  0  0  0  0  0  0
    6.8326  -13.6558   24.6110 C   0  0  0  0  0  0  0  0  0  0  0  0
    6.8381  -14.0957   23.2195 C   0  0  0  0  0  0  0  0  0  0  0  0
    8.2106  -14.5222   22.7088 C   0  0  2  0  0  0  0  0  0  0  0  0
    8.0235  -14.8092   21.3000 N   0  0  0  0  0  0  0  0  0  0  0  0
    8.7080  -15.7298   23.4035 C   0  0  0  0  0  0  0  0  0  0  0  0
    8.1274  -16.8526   23.2276 O   0  0  0  0  0  0  0  0  0  0  0  0
    6.4436  -14.5144   25.6101 C   0  0  0  0  0  0  0  0  0  0  0  0
    6.4297  -14.1108   26.9515 C   0  0  0  0  0  0  0  0  0  0  0  0
   15.2748  -15.1093   23.0642 N   0  0  0  0  0  0  0  0  0  0  0  0
   15.3426  -16.4933   22.6982 C   0  0  0  0  0  0  0  0  0  0  0  0
   16.5169  -17.0260   22.5191 N   0  0  0  0  0  0  0  0  0  0  0  0
   14.1923  -17.2875   22.5279 N   0  0  0  0  0  0  0  0  0  0  0  0
   12.8924  -16.7669   22.8650 C   0  0  0  0  0  0  0  0  0  0  0  0
   12.2425  -17.7630   23.8534 C   0  0  0  0  0  0  0  0  0  0  0  0
   11.7161  -16.9854   25.0262 C   0  0  0  0  0  0  0  0  0  0  0  0
   10.2289  -16.9239   25.0128 C   0  0  2  0  0  0  0  0  0  0  0  0
    9.8166  -15.7204   24.2747 N   0  0  0  0  0  0  0  0  0  0  0  0
    9.6943  -16.8098   26.3814 C   0  0  0  0  0  0  0  0  0  0  0  0
    9.8345  -17.9237   27.2311 O   0  0  0  0  0  0  0  0  0  0  0  0
    9.1189  -15.8012   26.8665 O   0  0  0  0  0  0  0  0  0  0  0  0
  1  2  1  0
  3  2  1  0
  4  3  1  0
  5  4  1  0
  5  1  1  0
  5  6  1  1
  6  7  2  0
  8  9  1  0
  9 19  2  0
 10 11  2  0
 10  9  1  0
 11 12  1  0
 12 13  1  0
 12 18  2  0
 14 13  1  1
 14 16  1  0
 15  6  1  0
 15 14  1  0
 16 17  2  0
 19 18  1  0
 20 21  1  0
 21 23  1  0
 22 21  2  0
 23 24  1  0
 24 25  1  0
 25 26  1  0
 27 26  1  1
 27 29  1  0
 28 16  1  0
 28 27  1  0
 29 31  2  0
 29 30  1  0
M  END
$$$$
