PYR.pdb
     RDKit          3D

 31 32  0  0  1  0  0  0  0  0999 V2000
    7.7043  -15.2558   18.3202 N   0  0  0  0  0  0  0  0  0  0  0  0
    6.7654  -14.1981   18.1516 C   0  0  0  0  0  0  0  0  0  0  0  0
    7.5532  -12.9369   17.8813 C   0  0  0  0  0  0  0  0  0  0  0  0
    8.9800  -13.3498   18.0023 C   0  0  0  0  0  0  0  0  0  0  0  0
    8.9587  -14.7019   18.6991 C   0  0  1  0  0  0  0  0  0  0  0  0
    9.1439  -14.4704   20.1402 C   0  0  0  0  0  0  0  0  0  0  0  0
   10.2745  -14.0799   20.5967 O   0  0  0  0  0  0  0  0  0  0  0  0
    7.2014  -12.5826   28.5967 O   0  0  0  0  0  0  0  0  0  0  0  0
    7.1720  -12.9171   27.2351 C   0  0  0  0  0  0  0  0  0  0  0  0
    7.5464  -12.0296   26.2798 C   0  0  0  0  0  0  0  0  0  0  0  0
    7.5043  -12.3972   24.9385 C   0  0  0  0  0  0  0  0  0  0  0  0
    7.0888  -13.6500   24.5473 C   0  0  0  0  0  0  0  0  0  0  0  0
    7.0399  -14.0422   23.1425 C   0  0  0  0  0  0  0  0  0  0  0  0
    8.4011  -14.3861   22.5464 C   0  0  2  0  0  0  0  0  0  0  0  0
    8.1510  -14.6416   21.1413 N   0  0  0  0  0  0  0  0  0  0  0  0
    8.9925  -15.5872   23.1757 C   0  0  0  0  0  0  0  0  0  0  0  0
    8.4595  -16.7322   22.9924 O   0  0  0  0  0  0  0  0  0  0  0  0
    6.7133  -14.5340   25.5294 C   0  0  0  0  0  0  0  0  0  0  0  0
    6.7514  -14.1763   26.8833 C   0  0  0  0  0  0  0  0  0  0  0  0
   14.0657  -15.7057   19.5349 N   0  0  0  0  0  0  0  0  0  0  0  0
   14.5118  -15.3894   20.8595 C   0  0  0  0  0  0  0  0  0  0  0  0
   15.4243  -14.4714   20.9992 N   0  0  0  0  0  0  0  0  0  0  0  0
   14.0006  -16.0325   22.0032 N   0  0  0  0  0  0  0  0  0  0  0  0
   13.4135  -17.3436   21.8992 C   0  0  0  0  0  0  0  0  0  0  0  0
   11.9799  -17.2501   22.4716 C   0  0  0  0  0  0  0  0  0  0  0  0
   12.0793  -16.9692   23.9441 C   0  0  0  0  0  0  0  0  0  0  0  0
   10.7343  -16.7720   24.5507 C   0  0  2  0  0  0  0  0  0  0  0  0
   10.1427  -15.5477   23.9901 N   0  0  0  0  0  0  0  0  0  0  0  0
   10.8365  -16.5876   26.0093 C   0  0  0  0  0  0  0  0  0  0  0  0
   11.2418  -17.6943   26.7796 O   0  0  0  0  0  0  0  0  0  0  0  0
   10.5933  -15.5243   26.6370 O   0  0  0  0  0  0  0  0  0  0  0  0
  1  2  1  0
  3  2  1  0
  4  3  1  0
  5  4  1  0
  5  1  1  0
  5  6  1  1
  6  7  2  0
  8  9  1  0
  9 19  2  0
 10 11  2  0
 10  9  1  0
 11 12  1  0
 12 13  1  0
 12 18  2  0
 14 13  1  1
 14 16  1  0
 15  6  1  0
 15 14  1  0
 16 17  2  0
 19 18  1  0
 20 21  1  0
 21 23  1  0
 22 21  2  0
 23 24  1  0
 24 25  1  0
 25 26  1  0
 27 26  1  6
 27 29  1  0
 28 16  1  0
 28 27  1  0
 29 31  2  0
 29 30  1  0
M  END
$$$$
