PYR.pdb
     RDKit          3D

 31 32  0  0  1  0  0  0  0  0999 V2000
    8.0176  -15.2793   18.4143 N   0  0  0  0  0  0  0  0  0  0  0  0
    6.8261  -14.5306   18.1941 C   0  0  0  0  0  0  0  0  0  0  0  0
    7.2353  -13.0959   17.9524 C   0  0  0  0  0  0  0  0  0  0  0  0
    8.7132  -13.0876   18.1436 C   0  0  0  0  0  0  0  0  0  0  0  0
    9.0438  -14.3947   18.8481 C   0  0  1  0  0  0  0  0  0  0  0  0
    9.0873  -14.1297   20.2947 C   0  0  0  0  0  0  0  0  0  0  0  0
   10.0342  -13.4321   20.8004 O   0  0  0  0  0  0  0  0  0  0  0  0
    6.5877  -13.1460   28.7461 O   0  0  0  0  0  0  0  0  0  0  0  0
    6.6541  -13.4385   27.3762 C   0  0  0  0  0  0  0  0  0  0  0  0
    6.6152  -14.7165   26.9225 C   0  0  0  0  0  0  0  0  0  0  0  0
    6.6833  -14.9684   25.5558 C   0  0  0  0  0  0  0  0  0  0  0  0
    6.7904  -13.9468   24.6392 C   0  0  0  0  0  0  0  0  0  0  0  0
    6.8644  -14.2032   23.2044 C   0  0  0  0  0  0  0  0  0  0  0  0
    8.2863  -14.3527   22.6732 C   0  0  2  0  0  0  0  0  0  0  0  0
    8.1413  -14.5878   21.2499 N   0  0  0  0  0  0  0  0  0  0  0  0
    8.9931  -15.4918   23.2988 C   0  0  0  0  0  0  0  0  0  0  0  0
    8.5032  -16.6677   23.2216 O   0  0  0  0  0  0  0  0  0  0  0  0
    6.8286  -12.6601   25.1184 C   0  0  0  0  0  0  0  0  0  0  0  0
    6.7608  -12.3932   26.4919 C   0  0  0  0  0  0  0  0  0  0  0  0
   16.7225  -15.4790   21.3914 N   0  0  0  0  0  0  0  0  0  0  0  0
   15.5316  -15.1706   20.6562 C   0  0  0  0  0  0  0  0  0  0  0  0
   15.6559  -14.7571   19.4280 N   0  0  0  0  0  0  0  0  0  0  0  0
   14.2447  -15.2989   21.2132 N   0  0  0  0  0  0  0  0  0  0  0  0
   14.0787  -15.8010   22.5529 C   0  0  0  0  0  0  0  0  0  0  0  0
   12.5586  -15.8894   22.8237 C   0  0  0  0  0  0  0  0  0  0  0  0
   12.3593  -16.4111   24.2184 C   0  0  0  0  0  0  0  0  0  0  0  0
   10.9134  -16.5241   24.5539 C   0  0  2  0  0  0  0  0  0  0  0  0
   10.2109  -15.3583   23.9966 N   0  0  0  0  0  0  0  0  0  0  0  0
   10.7088  -16.5094   26.0132 C   0  0  0  0  0  0  0  0  0  0  0  0
   10.2767  -15.3042   26.5989 O   0  0  0  0  0  0  0  0  0  0  0  0
   10.8858  -17.4816   26.7925 O   0  0  0  0  0  0  0  0  0  0  0  0
  1  2  1  0
  3  2  1  0
  4  3  1  0
  5  4  1  0
  5  1  1  0
  5  6  1  1
  6  7  2  0
  8  9  1  0
  9 19  2  0
 10 11  2  0
 10  9  1  0
 11 12  1  0
 12 13  1  0
 12 18  2  0
 14 13  1  1
 14 16  1  0
 15  6  1  0
 15 14  1  0
 16 17  2  0
 19 18  1  0
 20 21  1  0
 21 23  1  0
 22 21  2  0
 23 24  1  0
 24 25  1  0
 25 26  1  0
 27 26  1  1
 27 29  1  0
 28 16  1  0
 28 27  1  0
 29 31  2  0
 29 30  1  0
M  END
$$$$
