PYR.pdb
     RDKit          3D

 31 32  0  0  1  0  0  0  0  0999 V2000
    7.9290  -18.6034   19.2172 N   0  0  0  0  0  0  0  0  0  0  0  0
    7.3925  -17.6209   18.3366 C   0  0  0  0  0  0  0  0  0  0  0  0
    8.5298  -17.1193   17.4768 C   0  0  0  0  0  0  0  0  0  0  0  0
    9.7365  -17.8195   18.0009 C   0  0  0  0  0  0  0  0  0  0  0  0
    9.3283  -18.3857   19.3525 C   0  0  1  0  0  0  0  0  0  0  0  0
    9.7255  -17.4172   20.3865 C   0  0  0  0  0  0  0  0  0  0  0  0
   10.9382  -17.0154   20.4705 O   0  0  0  0  0  0  0  0  0  0  0  0
    7.1239  -11.6293   18.2884 O   0  0  0  0  0  0  0  0  0  0  0  0
    7.3714  -12.4794   19.3758 C   0  0  0  0  0  0  0  0  0  0  0  0
    6.4934  -13.4515   19.7287 C   0  0  0  0  0  0  0  0  0  0  0  0
    6.7729  -14.2765   20.8138 C   0  0  0  0  0  0  0  0  0  0  0  0
    7.9280  -14.1336   21.5489 C   0  0  0  0  0  0  0  0  0  0  0  0
    8.2271  -14.9935   22.6894 C   0  0  0  0  0  0  0  0  0  0  0  0
    9.3467  -15.9972   22.4331 C   0  0  2  0  0  0  0  0  0  0  0  0
    8.8643  -16.8440   21.3596 N   0  0  0  0  0  0  0  0  0  0  0  0
    9.6352  -16.8203   23.6281 C   0  0  0  0  0  0  0  0  0  0  0  0
    8.6948  -17.4637   24.2027 O   0  0  0  0  0  0  0  0  0  0  0  0
    8.8040  -13.1433   21.1762 C   0  0  0  0  0  0  0  0  0  0  0  0
    8.5343  -12.3064   20.0857 C   0  0  0  0  0  0  0  0  0  0  0  0
   14.8538  -22.6716   22.5907 N   0  0  0  0  0  0  0  0  0  0  0  0
   14.6064  -22.9322   23.9780 C   0  0  0  0  0  0  0  0  0  0  0  0
   14.6626  -24.1650   24.3926 N   0  0  0  0  0  0  0  0  0  0  0  0
   14.3076  -21.9087   24.8979 N   0  0  0  0  0  0  0  0  0  0  0  0
   14.1918  -20.5432   24.4546 C   0  0  0  0  0  0  0  0  0  0  0  0
   12.9682  -19.9302   25.1749 C   0  0  0  0  0  0  0  0  0  0  0  0
   12.5317  -18.7144   24.4077 C   0  0  0  0  0  0  0  0  0  0  0  0
   11.3036  -18.1136   24.9964 C   0  0  2  0  0  0  0  0  0  0  0  0
   10.9221  -16.9438   24.1906 N   0  0  0  0  0  0  0  0  0  0  0  0
   11.5543  -17.6432   26.3703 C   0  0  0  0  0  0  0  0  0  0  0  0
   11.7302  -18.6177   27.3712 O   0  0  0  0  0  0  0  0  0  0  0  0
   11.6265  -16.4413   26.7366 O   0  0  0  0  0  0  0  0  0  0  0  0
  1  2  1  0
  3  2  1  0
  4  3  1  0
  5  4  1  0
  5  1  1  0
  5  6  1  1
  6  7  2  0
  8  9  1  0
  9 19  2  0
 10 11  2  0
 10  9  1  0
 11 12  1  0
 12 13  1  0
 12 18  2  0
 14 13  1  1
 14 16  1  0
 15  6  1  0
 15 14  1  0
 16 17  2  0
 19 18  1  0
 20 21  1  0
 21 23  1  0
 22 21  2  0
 23 24  1  0
 24 25  1  0
 25 26  1  0
 27 26  1  6
 27 29  1  0
 28 16  1  0
 28 27  1  0
 29 31  2  0
 29 30  1  0
M  END
$$$$
