PYR.pdb
     RDKit          3D

 31 32  0  0  1  0  0  0  0  0999 V2000
    7.5425  -15.1271   18.3469 N   0  0  0  0  0  0  0  0  0  0  0  0
    6.6881  -13.9995   18.1824 C   0  0  0  0  0  0  0  0  0  0  0  0
    7.5703  -12.8035   17.9077 C   0  0  0  0  0  0  0  0  0  0  0  0
    8.9612  -13.3263   18.0219 C   0  0  0  0  0  0  0  0  0  0  0  0
    8.8381  -14.6726   18.7194 C   0  0  1  0  0  0  0  0  0  0  0  0
    9.0479  -14.4560   20.1595 C   0  0  0  0  0  0  0  0  0  0  0  0
   10.1962  -14.1062   20.6046 O   0  0  0  0  0  0  0  0  0  0  0  0
    7.2990  -12.2652   28.5594 O   0  0  0  0  0  0  0  0  0  0  0  0
    7.2113  -12.6977   27.2284 C   0  0  0  0  0  0  0  0  0  0  0  0
    6.7613  -13.9387   26.9154 C   0  0  0  0  0  0  0  0  0  0  0  0
    6.6878  -14.3330   25.5830 C   0  0  0  0  0  0  0  0  0  0  0  0
    7.0629  -13.4909   24.5606 C   0  0  0  0  0  0  0  0  0  0  0  0
    6.9907  -13.8980   23.1610 C   0  0  0  0  0  0  0  0  0  0  0  0
    8.3286  -14.3322   22.5711 C   0  0  2  0  0  0  0  0  0  0  0  0
    8.0617  -14.6001   21.1714 N   0  0  0  0  0  0  0  0  0  0  0  0
    8.8500  -15.5533   23.2234 C   0  0  0  0  0  0  0  0  0  0  0  0
    8.2505  -16.6684   23.0637 O   0  0  0  0  0  0  0  0  0  0  0  0
    7.5162  -12.2389   24.8979 C   0  0  0  0  0  0  0  0  0  0  0  0
    7.5948  -11.8298   26.2354 C   0  0  0  0  0  0  0  0  0  0  0  0
   16.0843  -14.8210   21.5005 N   0  0  0  0  0  0  0  0  0  0  0  0
   14.8405  -14.9606   20.8025 C   0  0  0  0  0  0  0  0  0  0  0  0
   14.5723  -14.1174   19.8475 N   0  0  0  0  0  0  0  0  0  0  0  0
   13.9086  -15.9696   21.1128 N   0  0  0  0  0  0  0  0  0  0  0  0
   13.7364  -16.4073   22.4741 C   0  0  0  0  0  0  0  0  0  0  0  0
   12.2152  -16.4948   22.7381 C   0  0  0  0  0  0  0  0  0  0  0  0
   12.0091  -16.8794   24.1758 C   0  0  0  0  0  0  0  0  0  0  0  0
   10.5702  -16.8197   24.5523 C   0  0  2  0  0  0  0  0  0  0  0  0
   10.0025  -15.5651   24.0355 N   0  0  0  0  0  0  0  0  0  0  0  0
   10.4093  -16.8091   26.0172 C   0  0  0  0  0  0  0  0  0  0  0  0
   10.6653  -18.0079   26.7099 O   0  0  0  0  0  0  0  0  0  0  0  0
   10.0614  -15.8204   26.7137 O   0  0  0  0  0  0  0  0  0  0  0  0
  1  2  1  0
  3  2  1  0
  4  3  1  0
  5  4  1  0
  5  1  1  0
  5  6  1  1
  6  7  2  0
  8  9  1  0
  9 19  2  0
 10 11  2  0
 10  9  1  0
 11 12  1  0
 12 13  1  0
 12 18  2  0
 14 13  1  1
 14 16  1  0
 15  6  1  0
 15 14  1  0
 16 17  2  0
 19 18  1  0
 20 21  1  0
 21 23  1  0
 22 21  2  0
 23 24  1  0
 24 25  1  0
 25 26  1  0
 27 26  1  1
 27 29  1  0
 28 16  1  0
 28 27  1  0
 29 31  2  0
 29 30  1  0
M  END
$$$$
