ELA.pdb
     RDKit          3D

 23 22  0  0  1  0  0  0  0  0999 V2000
   12.2633  -17.1215   17.1402 N   0  0  0  0  0  0  0  0  0  0  0  0
   11.0187  -17.3367   17.9183 C   0  0  1  0  0  0  0  0  0  0  0  0
   11.0506  -18.7520   18.3997 C   0  0  0  0  0  0  0  0  0  0  0  0
   10.8827  -19.7478   17.3079 C   0  0  0  0  0  0  0  0  0  0  0  0
   10.8069  -21.1203   17.8355 C   0  0  0  0  0  0  0  0  0  0  0  0
   10.9112  -21.3865   19.0393 O   0  0  0  0  0  0  0  0  0  0  0  0
   11.0601  -16.4026   19.0823 C   0  0  0  0  0  0  0  0  0  0  0  0
   12.1259  -16.1052   19.6378 O   0  0  0  0  0  0  0  0  0  0  0  0
   10.6086  -22.1919   16.9608 O   0  0  0  0  0  0  0  0  0  0  0  0
    6.7265  -13.0288   19.5595 C   0  0  0  0  0  0  0  0  0  0  0  0
    8.1911  -13.4681   19.4986 C   0  0  1  0  0  0  0  0  0  0  0  0
    9.0266  -12.2318   19.4595 C   0  0  0  0  0  0  0  0  0  0  0  0
    8.4215  -14.3161   20.7260 C   0  0  0  0  0  0  0  0  0  0  0  0
    9.7998  -14.9501   20.7402 C   0  0  2  0  0  0  0  0  0  0  0  0
    9.8604  -15.8234   19.5886 N   0  0  0  0  0  0  0  0  0  0  0  0
    9.8406  -15.8008   21.9748 C   0  0  0  0  0  0  0  0  0  0  0  0
    8.7849  -16.1133   22.5732 O   0  0  0  0  0  0  0  0  0  0  0  0
   11.6841  -18.4650   23.4632 C   0  0  0  0  0  0  0  0  0  0  0  0
   11.1431  -17.0784   23.7051 C   0  0  2  0  0  0  0  0  0  0  0  0
   11.0553  -16.2846   22.5158 N   0  0  0  0  0  0  0  0  0  0  0  0
   12.0328  -16.4171   24.6861 C   0  0  0  0  0  0  0  0  0  0  0  0
   12.1451  -16.9191   25.9517 O   0  0  0  0  0  0  0  0  0  0  0  0
   12.6596  -15.4102   24.3226 O   0  0  0  0  0  0  0  0  0  0  0  0
  2  1  1  6
  2  7  1  0
  3  2  1  0
  4  3  1  0
  5  4  1  0
  5  6  2  0
  7 15  1  0
  8  7  2  0
  9  5  1  0
 11 10  1  1
 11 12  1  0
 13 11  1  0
 14 13  1  6
 15 14  1  0
 16 14  1  0
 17 16  2  0
 19 18  1  6
 19 20  1  0
 20 16  1  0
 21 19  1  0
 22 21  1  0
 23 21  2  0
M  END
$$$$
