ELA.pdb
     RDKit          3D

 23 22  0  0  1  0  0  0  0  0999 V2000
    8.4627  -14.7368   19.4506 N   0  0  0  0  0  0  0  0  0  0  0  0
    7.3977  -14.8490   20.4773 C   0  0  1  0  0  0  0  0  0  0  0  0
    6.8750  -16.2481   20.4050 C   0  0  0  0  0  0  0  0  0  0  0  0
    7.9483  -17.2775   20.4151 C   0  0  0  0  0  0  0  0  0  0  0  0
    7.3993  -18.6322   20.2387 C   0  0  0  0  0  0  0  0  0  0  0  0
    6.9686  -19.0494   19.1564 O   0  0  0  0  0  0  0  0  0  0  0  0
    8.0394  -14.6139   21.8048 C   0  0  0  0  0  0  0  0  0  0  0  0
    9.2510  -14.7975   21.9813 O   0  0  0  0  0  0  0  0  0  0  0  0
    7.3495  -19.5096   21.3251 O   0  0  0  0  0  0  0  0  0  0  0  0
    8.2451  -11.8961   26.3601 C   0  0  0  0  0  0  0  0  0  0  0  0
    7.0960  -12.9041   26.4316 C   0  0  1  0  0  0  0  0  0  0  0  0
    6.0068  -12.2826   27.2412 C   0  0  0  0  0  0  0  0  0  0  0  0
    6.7019  -13.1864   25.0019 C   0  0  0  0  0  0  0  0  0  0  0  0
    7.8079  -13.8726   24.2222 C   0  0  2  0  0  0  0  0  0  0  0  0
    7.2645  -14.1670   22.9143 N   0  0  0  0  0  0  0  0  0  0  0  0
    8.0546  -15.1720   24.9293 C   0  0  0  0  0  0  0  0  0  0  0  0
    7.1054  -15.9426   25.2041 O   0  0  0  0  0  0  0  0  0  0  0  0
   10.7798  -17.5846   25.2205 C   0  0  0  0  0  0  0  0  0  0  0  0
    9.6467  -16.8585   25.9006 C   0  0  2  0  0  0  0  0  0  0  0  0
    9.3520  -15.5848   25.3148 N   0  0  0  0  0  0  0  0  0  0  0  0
   10.0186  -16.6834   27.3228 C   0  0  0  0  0  0  0  0  0  0  0  0
   10.2044  -17.7781   28.1187 O   0  0  0  0  0  0  0  0  0  0  0  0
   10.1522  -15.5285   27.7553 O   0  0  0  0  0  0  0  0  0  0  0  0
  2  1  1  6
  2  7  1  0
  3  2  1  0
  4  3  1  0
  5  4  1  0
  5  6  2  0
  7 15  1  0
  8  7  2  0
  9  5  1  0
 11 10  1  6
 11 12  1  0
 13 11  1  0
 14 13  1  1
 15 14  1  0
 16 14  1  0
 17 16  2  0
 19 18  1  6
 19 20  1  0
 20 16  1  0
 21 19  1  0
 22 21  1  0
 23 21  2  0
M  END
$$$$
