ELA.pdb
     RDKit          3D

 23 22  0  0  1  0  0  0  0  0999 V2000
    7.1397  -16.7240   22.3068 N   0  0  0  0  0  0  0  0  0  0  0  0
    8.5564  -16.4130   21.9952 C   0  0  1  0  0  0  0  0  0  0  0  0
    8.5458  -15.4773   20.8289 C   0  0  0  0  0  0  0  0  0  0  0  0
    7.6768  -15.9385   19.7136 C   0  0  0  0  0  0  0  0  0  0  0  0
    8.4524  -16.1657   18.4828 C   0  0  0  0  0  0  0  0  0  0  0  0
    9.4900  -16.8390   18.4545 O   0  0  0  0  0  0  0  0  0  0  0  0
    9.1302  -15.7282   23.1914 C   0  0  0  0  0  0  0  0  0  0  0  0
   10.2919  -15.3001   23.1988 O   0  0  0  0  0  0  0  0  0  0  0  0
    8.0215  -15.6081   17.2761 O   0  0  0  0  0  0  0  0  0  0  0  0
    5.7395  -12.7220   26.2111 C   0  0  0  0  0  0  0  0  0  0  0  0
    6.9599  -13.1930   25.4170 C   0  0  1  0  0  0  0  0  0  0  0  0
    7.8492  -12.0101   25.2220 C   0  0  0  0  0  0  0  0  0  0  0  0
    7.5883  -14.2945   26.2361 C   0  0  0  0  0  0  0  0  0  0  0  0
    8.8141  -14.8858   25.5658 C   0  0  2  0  0  0  0  0  0  0  0  0
    8.3462  -15.5480   24.3678 N   0  0  0  0  0  0  0  0  0  0  0  0
    9.3251  -15.9333   26.5097 C   0  0  0  0  0  0  0  0  0  0  0  0
    9.5893  -15.6487   27.7012 O   0  0  0  0  0  0  0  0  0  0  0  0
    9.8262  -19.6887   26.4658 C   0  0  0  0  0  0  0  0  0  0  0  0
   10.0969  -18.2859   26.9481 C   0  0  2  0  0  0  0  0  0  0  0  0
    9.5309  -17.2740   26.1067 N   0  0  0  0  0  0  0  0  0  0  0  0
   11.5655  -18.1149   27.0214 C   0  0  0  0  0  0  0  0  0  0  0  0
   12.2945  -18.8536   27.9097 O   0  0  0  0  0  0  0  0  0  0  0  0
   12.0979  -17.2920   26.2610 O   0  0  0  0  0  0  0  0  0  0  0  0
  2  1  1  1
  2  7  1  0
  3  2  1  0
  4  3  1  0
  5  4  1  0
  5  6  2  0
  7 15  1  0
  8  7  2  0
  9  5  1  0
 11 10  1  1
 11 12  1  0
 13 11  1  0
 14 13  1  1
 15 14  1  0
 16 14  1  0
 17 16  2  0
 19 18  1  6
 19 20  1  0
 20 16  1  0
 21 19  1  0
 22 21  1  0
 23 21  2  0
M  END
$$$$
