ELA.pdb
     RDKit          3D

 23 22  0  0  1  0  0  0  0  0999 V2000
    9.8208  -17.9082   18.7679 N   0  0  0  0  0  0  0  0  0  0  0  0
   11.1880  -17.3428   18.8775 C   0  0  1  0  0  0  0  0  0  0  0  0
   11.5476  -16.8192   17.5238 C   0  0  0  0  0  0  0  0  0  0  0  0
   11.3568  -17.8174   16.4381 C   0  0  0  0  0  0  0  0  0  0  0  0
   12.4023  -17.7015   15.4077 C   0  0  0  0  0  0  0  0  0  0  0  0
   13.5854  -18.0010   15.6112 O   0  0  0  0  0  0  0  0  0  0  0  0
   11.1220  -16.2178   19.8568 C   0  0  0  0  0  0  0  0  0  0  0  0
   12.1381  -15.6053   20.2108 O   0  0  0  0  0  0  0  0  0  0  0  0
   12.0734  -17.2349   14.1322 O   0  0  0  0  0  0  0  0  0  0  0  0
    6.5059  -13.4074   19.7622 C   0  0  0  0  0  0  0  0  0  0  0  0
    7.9994  -13.7393   19.7934 C   0  0  1  0  0  0  0  0  0  0  0  0
    8.7408  -12.4951   19.4323 C   0  0  0  0  0  0  0  0  0  0  0  0
    8.2862  -14.2309   21.1916 C   0  0  0  0  0  0  0  0  0  0  0  0
    9.7122  -14.7241   21.3497 C   0  0  2  0  0  0  0  0  0  0  0  0
    9.8736  -15.8162   20.4149 N   0  0  0  0  0  0  0  0  0  0  0  0
    9.7951  -15.2822   22.7394 C   0  0  0  0  0  0  0  0  0  0  0  0
    9.6056  -14.5483   23.7373 O   0  0  0  0  0  0  0  0  0  0  0  0
    9.3947  -18.5106   24.4314 C   0  0  0  0  0  0  0  0  0  0  0  0
   10.1656  -17.2217   24.2962 C   0  0  2  0  0  0  0  0  0  0  0  0
   10.0871  -16.6443   22.9875 N   0  0  0  0  0  0  0  0  0  0  0  0
   11.5778  -17.5087   24.6349 C   0  0  0  0  0  0  0  0  0  0  0  0
   12.5521  -17.3456   23.6912 O   0  0  0  0  0  0  0  0  0  0  0  0
   11.8374  -17.8952   25.7847 O   0  0  0  0  0  0  0  0  0  0  0  0
  2  1  1  6
  2  7  1  0
  3  2  1  0
  4  3  1  0
  5  4  1  0
  5  6  2  0
  7 15  1  0
  8  7  2  0
  9  5  1  0
 11 10  1  1
 11 12  1  0
 13 11  1  0
 14 13  1  1
 15 14  1  0
 16 14  1  0
 17 16  2  0
 19 18  1  6
 19 20  1  0
 20 16  1  0
 21 19  1  0
 22 21  1  0
 23 21  2  0
M  END
$$$$
