ELA.pdb
     RDKit          3D

 23 22  0  0  1  0  0  0  0  0999 V2000
    8.9776  -15.4998   20.6590 N   0  0  0  0  0  0  0  0  0  0  0  0
    8.1716  -15.9599   21.8164 C   0  0  1  0  0  0  0  0  0  0  0  0
    8.3097  -17.4477   21.8736 C   0  0  0  0  0  0  0  0  0  0  0  0
    7.8522  -18.1283   20.6330 C   0  0  0  0  0  0  0  0  0  0  0  0
    7.8139  -19.5905   20.8016 C   0  0  0  0  0  0  0  0  0  0  0  0
    8.8332  -20.2840   20.9062 O   0  0  0  0  0  0  0  0  0  0  0  0
    8.7680  -15.3465   23.0400 C   0  0  0  0  0  0  0  0  0  0  0  0
    9.9657  -15.0371   23.0927 O   0  0  0  0  0  0  0  0  0  0  0  0
    6.5846  -20.2534   20.8493 O   0  0  0  0  0  0  0  0  0  0  0  0
    5.4625  -12.2955   26.2811 C   0  0  0  0  0  0  0  0  0  0  0  0
    6.6734  -12.7216   25.4481 C   0  0  1  0  0  0  0  0  0  0  0  0
    7.6168  -11.5655   25.4080 C   0  0  0  0  0  0  0  0  0  0  0  0
    7.2399  -13.9419   26.1330 C   0  0  0  0  0  0  0  0  0  0  0  0
    8.4536  -14.4981   25.4124 C   0  0  2  0  0  0  0  0  0  0  0  0
    7.9645  -15.0988   24.1907 N   0  0  0  0  0  0  0  0  0  0  0  0
    8.9803  -15.5919   26.2930 C   0  0  0  0  0  0  0  0  0  0  0  0
    9.3259  -15.3540   27.4738 O   0  0  0  0  0  0  0  0  0  0  0  0
    9.4891  -19.3509   25.9953 C   0  0  0  0  0  0  0  0  0  0  0  0
    9.6440  -17.9933   26.6329 C   0  0  2  0  0  0  0  0  0  0  0  0
    9.1107  -16.9261   25.8399 N   0  0  0  0  0  0  0  0  0  0  0  0
   11.0891  -17.7722   26.8663 C   0  0  0  0  0  0  0  0  0  0  0  0
   11.7695  -16.8582   26.1126 O   0  0  0  0  0  0  0  0  0  0  0  0
   11.6471  -18.4350   27.7540 O   0  0  0  0  0  0  0  0  0  0  0  0
  2  1  1  6
  2  7  1  0
  3  2  1  0
  4  3  1  0
  5  4  1  0
  5  6  2  0
  7 15  1  0
  8  7  2  0
  9  5  1  0
 11 10  1  1
 11 12  1  0
 13 11  1  0
 14 13  1  1
 15 14  1  0
 16 14  1  0
 17 16  2  0
 19 18  1  6
 19 20  1  0
 20 16  1  0
 21 19  1  0
 22 21  1  0
 23 21  2  0
M  END
$$$$
