ELA.pdb
     RDKit          3D

 23 22  0  0  1  0  0  0  0  0999 V2000
    7.1515  -16.5673   22.1841 N   0  0  0  0  0  0  0  0  0  0  0  0
    8.5775  -16.2895   21.8841 C   0  0  1  0  0  0  0  0  0  0  0  0
    8.5973  -15.2967   20.7662 C   0  0  0  0  0  0  0  0  0  0  0  0
    7.7561  -15.6995   19.6077 C   0  0  0  0  0  0  0  0  0  0  0  0
    8.5344  -15.7261   18.3582 C   0  0  0  0  0  0  0  0  0  0  0  0
    9.7424  -15.4624   18.3106 O   0  0  0  0  0  0  0  0  0  0  0  0
    9.1760  -15.6854   23.1113 C   0  0  0  0  0  0  0  0  0  0  0  0
   10.3579  -15.3181   23.1434 O   0  0  0  0  0  0  0  0  0  0  0  0
    7.9075  -16.0610   17.1550 O   0  0  0  0  0  0  0  0  0  0  0  0
    5.8937  -12.7548   26.4123 C   0  0  0  0  0  0  0  0  0  0  0  0
    7.1010  -13.1747   25.5710 C   0  0  1  0  0  0  0  0  0  0  0  0
    8.0356  -12.0119   25.5198 C   0  0  0  0  0  0  0  0  0  0  0  0
    7.6818  -14.3886   26.2551 C   0  0  0  0  0  0  0  0  0  0  0  0
    8.8891  -14.9428   25.5224 C   0  0  2  0  0  0  0  0  0  0  0  0
    8.3929  -15.5145   24.2897 N   0  0  0  0  0  0  0  0  0  0  0  0
    9.4054  -16.0591   26.3808 C   0  0  0  0  0  0  0  0  0  0  0  0
    9.7040  -15.8593   27.5813 O   0  0  0  0  0  0  0  0  0  0  0  0
    9.9304  -19.8052   25.9628 C   0  0  0  0  0  0  0  0  0  0  0  0
   10.0015  -18.4830   26.6842 C   0  0  2  0  0  0  0  0  0  0  0  0
    9.5782  -17.3728   25.8840 N   0  0  0  0  0  0  0  0  0  0  0  0
   11.4035  -18.2852   27.1163 C   0  0  0  0  0  0  0  0  0  0  0  0
   12.2319  -17.4742   26.3935 O   0  0  0  0  0  0  0  0  0  0  0  0
   11.7896  -18.8721   28.1387 O   0  0  0  0  0  0  0  0  0  0  0  0
  2  1  1  1
  2  7  1  0
  3  2  1  0
  4  3  1  0
  5  4  1  0
  5  6  2  0
  7 15  1  0
  8  7  2  0
  9  5  1  0
 11 10  1  1
 11 12  1  0
 13 11  1  0
 14 13  1  1
 15 14  1  0
 16 14  1  0
 17 16  2  0
 19 18  1  6
 19 20  1  0
 20 16  1  0
 21 19  1  0
 22 21  1  0
 23 21  2  0
M  END
$$$$
