ELA.pdb
     RDKit          3D

 23 22  0  0  1  0  0  0  0  0999 V2000
    9.4617  -15.5185   21.1151 N   0  0  0  0  0  0  0  0  0  0  0  0
    8.6228  -16.1016   22.1907 C   0  0  1  0  0  0  0  0  0  0  0  0
    8.9431  -17.5612   22.2437 C   0  0  0  0  0  0  0  0  0  0  0  0
    8.5872  -18.2865   20.9951 C   0  0  0  0  0  0  0  0  0  0  0  0
    8.7304  -19.7430   21.1567 C   0  0  0  0  0  0  0  0  0  0  0  0
    9.0794  -20.2722   22.2193 O   0  0  0  0  0  0  0  0  0  0  0  0
    9.0275  -15.4455   23.4693 C   0  0  0  0  0  0  0  0  0  0  0  0
   10.1942  -15.0841   23.6722 O   0  0  0  0  0  0  0  0  0  0  0  0
    8.4668  -20.5919   20.0785 O   0  0  0  0  0  0  0  0  0  0  0  0
    5.6290  -12.1287   26.3122 C   0  0  0  0  0  0  0  0  0  0  0  0
    6.9387  -12.6597   25.7253 C   0  0  1  0  0  0  0  0  0  0  0  0
    8.0126  -11.6836   26.0748 C   0  0  0  0  0  0  0  0  0  0  0  0
    7.1418  -14.0267   26.3328 C   0  0  0  0  0  0  0  0  0  0  0  0
    8.3941  -14.7090   25.8153 C   0  0  2  0  0  0  0  0  0  0  0  0
    8.0701  -15.2160   24.4998 N   0  0  0  0  0  0  0  0  0  0  0  0
    8.6216  -15.8798   26.7246 C   0  0  0  0  0  0  0  0  0  0  0  0
    8.9073  -15.7074   27.9325 O   0  0  0  0  0  0  0  0  0  0  0  0
    8.0412  -19.6117   26.5403 C   0  0  0  0  0  0  0  0  0  0  0  0
    8.6588  -18.3631   27.1176 C   0  0  2  0  0  0  0  0  0  0  0  0
    8.5263  -17.2162   26.2695 N   0  0  0  0  0  0  0  0  0  0  0  0
   10.0916  -18.6453   27.3607 C   0  0  0  0  0  0  0  0  0  0  0  0
   10.4543  -19.5929   28.2755 O   0  0  0  0  0  0  0  0  0  0  0  0
   10.9330  -18.0016   26.7153 O   0  0  0  0  0  0  0  0  0  0  0  0
  2  1  1  6
  2  7  1  0
  3  2  1  0
  4  3  1  0
  5  4  1  0
  5  6  2  0
  7 15  1  0
  8  7  2  0
  9  5  1  0
 11 10  1  1
 11 12  1  0
 13 11  1  0
 14 13  1  1
 15 14  1  0
 16 14  1  0
 17 16  2  0
 19 18  1  6
 19 20  1  0
 20 16  1  0
 21 19  1  0
 22 21  1  0
 23 21  2  0
M  END
$$$$
