ELA.pdb
     RDKit          3D

 23 22  0  0  1  0  0  0  0  0999 V2000
    9.7601  -15.5603   20.9988 N   0  0  0  0  0  0  0  0  0  0  0  0
    8.6153  -15.7263   21.9276 C   0  0  1  0  0  0  0  0  0  0  0  0
    8.3003  -17.1876   21.9666 C   0  0  0  0  0  0  0  0  0  0  0  0
    7.7475  -17.7038   20.6861 C   0  0  0  0  0  0  0  0  0  0  0  0
    6.4007  -18.2702   20.8684 C   0  0  0  0  0  0  0  0  0  0  0  0
    5.8636  -18.3888   21.9767 O   0  0  0  0  0  0  0  0  0  0  0  0
    9.0704  -15.2681   23.2737 C   0  0  0  0  0  0  0  0  0  0  0  0
   10.2720  -15.1424   23.5442 O   0  0  0  0  0  0  0  0  0  0  0  0
    5.6715  -18.7022   19.7574 O   0  0  0  0  0  0  0  0  0  0  0  0
    5.4153  -12.2024   26.1308 C   0  0  0  0  0  0  0  0  0  0  0  0
    6.7233  -12.6195   25.4549 C   0  0  1  0  0  0  0  0  0  0  0  0
    7.6710  -11.4720   25.5700 C   0  0  0  0  0  0  0  0  0  0  0  0
    7.1861  -13.8618   26.1771 C   0  0  0  0  0  0  0  0  0  0  0  0
    8.4666  -14.4273   25.5923 C   0  0  2  0  0  0  0  0  0  0  0  0
    8.1223  -14.9605   24.2924 N   0  0  0  0  0  0  0  0  0  0  0  0
    8.8457  -15.5735   26.4822 C   0  0  0  0  0  0  0  0  0  0  0  0
    9.0492  -15.3950   27.7058 O   0  0  0  0  0  0  0  0  0  0  0  0
    9.1970  -19.3389   26.1295 C   0  0  0  0  0  0  0  0  0  0  0  0
    9.4260  -18.0011   26.7865 C   0  0  2  0  0  0  0  0  0  0  0  0
    8.9901  -16.8925   25.9907 N   0  0  0  0  0  0  0  0  0  0  0  0
   10.8754  -17.8820   27.0630 C   0  0  0  0  0  0  0  0  0  0  0  0
   11.4741  -18.7377   27.9437 O   0  0  0  0  0  0  0  0  0  0  0  0
   11.5124  -16.9937   26.4766 O   0  0  0  0  0  0  0  0  0  0  0  0
  2  1  1  6
  2  7  1  0
  3  2  1  0
  4  3  1  0
  5  4  1  0
  5  6  2  0
  7 15  1  0
  8  7  2  0
  9  5  1  0
 11 10  1  1
 11 12  1  0
 13 11  1  0
 14 13  1  1
 15 14  1  0
 16 14  1  0
 17 16  2  0
 19 18  1  6
 19 20  1  0
 20 16  1  0
 21 19  1  0
 22 21  1  0
 23 21  2  0
M  END
$$$$
