ELA.pdb
     RDKit          3D

 23 22  0  0  1  0  0  0  0  0999 V2000
    9.4812  -16.3804   20.7290 N   0  0  0  0  0  0  0  0  0  0  0  0
    8.3577  -16.4071   21.6975 C   0  0  1  0  0  0  0  0  0  0  0  0
    8.1327  -17.8409   22.0571 C   0  0  0  0  0  0  0  0  0  0  0  0
    8.5469  -18.7870   20.9870 C   0  0  0  0  0  0  0  0  0  0  0  0
    8.2313  -20.1798   21.3454 C   0  0  0  0  0  0  0  0  0  0  0  0
    9.0388  -20.9311   21.9061 O   0  0  0  0  0  0  0  0  0  0  0  0
    8.7971  -15.6434   22.9028 C   0  0  0  0  0  0  0  0  0  0  0  0
    9.9933  -15.5413   23.2056 O   0  0  0  0  0  0  0  0  0  0  0  0
    6.9702  -20.7052   21.0514 O   0  0  0  0  0  0  0  0  0  0  0  0
    8.0686  -11.5824   26.3230 C   0  0  0  0  0  0  0  0  0  0  0  0
    7.0940  -12.7256   26.6143 C   0  0  1  0  0  0  0  0  0  0  0  0
    5.8280  -12.1156   27.1174 C   0  0  0  0  0  0  0  0  0  0  0  0
    6.9305  -13.4734   25.3131 C   0  0  0  0  0  0  0  0  0  0  0  0
    8.1730  -14.2588   24.9376 C   0  0  2  0  0  0  0  0  0  0  0  0
    7.8399  -15.0057   23.7443 N   0  0  0  0  0  0  0  0  0  0  0  0
    8.3871  -15.2351   26.0557 C   0  0  0  0  0  0  0  0  0  0  0  0
    8.7886  -14.8472   27.1776 O   0  0  0  0  0  0  0  0  0  0  0  0
    7.4483  -18.8172   26.7568 C   0  0  0  0  0  0  0  0  0  0  0  0
    8.2895  -17.5815   26.9545 C   0  0  2  0  0  0  0  0  0  0  0  0
    8.1499  -16.6215   25.9004 N   0  0  0  0  0  0  0  0  0  0  0  0
    9.7015  -18.0143   27.0561 C   0  0  0  0  0  0  0  0  0  0  0  0
   10.6026  -17.6304   26.1037 O   0  0  0  0  0  0  0  0  0  0  0  0
   10.0285  -18.7244   28.0192 O   0  0  0  0  0  0  0  0  0  0  0  0
  2  1  1  6
  2  7  1  0
  3  2  1  0
  4  3  1  0
  5  4  1  0
  5  6  2  0
  7 15  1  0
  8  7  2  0
  9  5  1  0
 11 10  1  6
 11 12  1  0
 13 11  1  0
 14 13  1  1
 15 14  1  0
 16 14  1  0
 17 16  2  0
 19 18  1  6
 19 20  1  0
 20 16  1  0
 21 19  1  0
 22 21  1  0
 23 21  2  0
M  END
$$$$
