ELA.pdb
     RDKit          3D

 23 22  0  0  1  0  0  0  0  0999 V2000
    9.3688  -16.7028   20.7983 N   0  0  0  0  0  0  0  0  0  0  0  0
    8.2412  -16.6394   21.7602 C   0  0  1  0  0  0  0  0  0  0  0  0
    8.0214  -18.0317   22.2590 C   0  0  0  0  0  0  0  0  0  0  0  0
    8.9932  -19.0135   21.7081 C   0  0  0  0  0  0  0  0  0  0  0  0
    8.6763  -20.3861   22.1363 C   0  0  0  0  0  0  0  0  0  0  0  0
    9.4617  -21.0880   22.7854 O   0  0  0  0  0  0  0  0  0  0  0  0
    8.6716  -15.7580   22.8858 C   0  0  0  0  0  0  0  0  0  0  0  0
    9.8645  -15.4885   23.0791 O   0  0  0  0  0  0  0  0  0  0  0  0
    7.4396  -20.9487   21.8097 O   0  0  0  0  0  0  0  0  0  0  0  0
    7.7478  -11.6343   26.1754 C   0  0  0  0  0  0  0  0  0  0  0  0
    6.9187  -12.8546   26.5818 C   0  0  1  0  0  0  0  0  0  0  0  0
    5.6305  -12.3519   27.1439 C   0  0  0  0  0  0  0  0  0  0  0  0
    6.7516  -13.6791   25.3284 C   0  0  0  0  0  0  0  0  0  0  0  0
    8.0377  -14.3698   24.9151 C   0  0  2  0  0  0  0  0  0  0  0  0
    7.7093  -15.1984   23.7757 N   0  0  0  0  0  0  0  0  0  0  0  0
    8.3987  -15.2699   26.0592 C   0  0  0  0  0  0  0  0  0  0  0  0
    8.7281  -14.7937   27.1705 O   0  0  0  0  0  0  0  0  0  0  0  0
    7.9734  -18.9050   26.9035 C   0  0  0  0  0  0  0  0  0  0  0  0
    8.6790  -17.5774   27.0183 C   0  0  2  0  0  0  0  0  0  0  0  0
    8.3852  -16.6800   25.9410 N   0  0  0  0  0  0  0  0  0  0  0  0
   10.1337  -17.8477   27.0644 C   0  0  0  0  0  0  0  0  0  0  0  0
   10.9509  -17.3508   26.0889 O   0  0  0  0  0  0  0  0  0  0  0  0
   10.5733  -18.5287   28.0034 O   0  0  0  0  0  0  0  0  0  0  0  0
  2  1  1  6
  2  7  1  0
  3  2  1  0
  4  3  1  0
  5  4  1  0
  5  6  2  0
  7 15  1  0
  8  7  2  0
  9  5  1  0
 11 10  1  6
 11 12  1  0
 13 11  1  0
 14 13  1  1
 15 14  1  0
 16 14  1  0
 17 16  2  0
 19 18  1  6
 19 20  1  0
 20 16  1  0
 21 19  1  0
 22 21  1  0
 23 21  2  0
M  END
$$$$
