ELA.pdb
     RDKit          3D

 23 22  0  0  1  0  0  0  0  0999 V2000
    9.0847  -15.3441   20.8976 N   0  0  0  0  0  0  0  0  0  0  0  0
    8.0976  -15.5660   21.9826 C   0  0  1  0  0  0  0  0  0  0  0  0
    7.8204  -17.0349   22.0193 C   0  0  0  0  0  0  0  0  0  0  0  0
    9.0533  -17.8640   22.0845 C   0  0  0  0  0  0  0  0  0  0  0  0
    8.7365  -19.3016   22.1175 C   0  0  0  0  0  0  0  0  0  0  0  0
    8.4111  -19.9434   21.1110 O   0  0  0  0  0  0  0  0  0  0  0  0
    8.7430  -15.1383   23.2592 C   0  0  0  0  0  0  0  0  0  0  0  0
    9.9744  -15.0983   23.3821 O   0  0  0  0  0  0  0  0  0  0  0  0
    8.7977  -19.9999   23.3264 O   0  0  0  0  0  0  0  0  0  0  0  0
    5.5318  -11.9633   26.4053 C   0  0  0  0  0  0  0  0  0  0  0  0
    6.6989  -12.4780   25.5599 C   0  0  1  0  0  0  0  0  0  0  0  0
    7.6190  -11.3270   25.3215 C   0  0  0  0  0  0  0  0  0  0  0  0
    7.3246  -13.5987   26.3546 C   0  0  0  0  0  0  0  0  0  0  0  0
    8.4842  -14.2486   25.6232 C   0  0  2  0  0  0  0  0  0  0  0  0
    7.9489  -14.7611   24.3809 N   0  0  0  0  0  0  0  0  0  0  0  0
    8.8945  -15.4151   26.4720 C   0  0  0  0  0  0  0  0  0  0  0  0
    9.3356  -15.2403   27.6318 O   0  0  0  0  0  0  0  0  0  0  0  0
    8.7046  -19.1984   26.2152 C   0  0  0  0  0  0  0  0  0  0  0  0
    9.2017  -17.8916   26.7800 C   0  0  2  0  0  0  0  0  0  0  0  0
    8.8050  -16.7499   26.0110 N   0  0  0  0  0  0  0  0  0  0  0  0
   10.6789  -17.9660   26.8434 C   0  0  0  0  0  0  0  0  0  0  0  0
   11.4374  -17.1206   26.0842 O   0  0  0  0  0  0  0  0  0  0  0  0
   11.1910  -18.8080   27.5967 O   0  0  0  0  0  0  0  0  0  0  0  0
  2  1  1  6
  2  7  1  0
  3  2  1  0
  4  3  1  0
  5  4  1  0
  5  6  2  0
  7 15  1  0
  8  7  2  0
  9  5  1  0
 11 10  1  1
 11 12  1  0
 13 11  1  0
 14 13  1  1
 15 14  1  0
 16 14  1  0
 17 16  2  0
 19 18  1  6
 19 20  1  0
 20 16  1  0
 21 19  1  0
 22 21  1  0
 23 21  2  0
M  END
$$$$
