ELA.pdb
     RDKit          3D

 23 22  0  0  1  0  0  0  0  0999 V2000
   10.1620  -18.8168   19.1600 N   0  0  0  0  0  0  0  0  0  0  0  0
    8.9903  -18.1686   19.7986 C   0  0  1  0  0  0  0  0  0  0  0  0
    8.3917  -19.1775   20.7257 C   0  0  0  0  0  0  0  0  0  0  0  0
    9.3292  -19.6274   21.7890 C   0  0  0  0  0  0  0  0  0  0  0  0
    8.7396  -20.6963   22.6123 C   0  0  0  0  0  0  0  0  0  0  0  0
    7.6205  -21.1764   22.3931 O   0  0  0  0  0  0  0  0  0  0  0  0
    9.5027  -17.0027   20.5780 C   0  0  0  0  0  0  0  0  0  0  0  0
   10.7001  -16.8962   20.8743 O   0  0  0  0  0  0  0  0  0  0  0  0
    9.4528  -21.2121   23.6976 O   0  0  0  0  0  0  0  0  0  0  0  0
    8.5491  -13.4658   19.2693 C   0  0  0  0  0  0  0  0  0  0  0  0
    8.3770  -12.7270   20.5983 C   0  0  1  0  0  0  0  0  0  0  0  0
    7.3607  -11.6549   20.3847 C   0  0  0  0  0  0  0  0  0  0  0  0
    7.9532  -13.7717   21.6022 C   0  0  0  0  0  0  0  0  0  0  0  0
    9.0131  -14.8372   21.8100 C   0  0  2  0  0  0  0  0  0  0  0  0
    8.6162  -15.9717   21.0050 N   0  0  0  0  0  0  0  0  0  0  0  0
    8.9129  -15.2306   23.2539 C   0  0  0  0  0  0  0  0  0  0  0  0
    9.3137  -14.4605   24.1575 O   0  0  0  0  0  0  0  0  0  0  0  0
    6.9046  -17.6036   25.2793 C   0  0  0  0  0  0  0  0  0  0  0  0
    8.1927  -16.8613   25.0272 C   0  0  2  0  0  0  0  0  0  0  0  0
    8.3690  -16.4723   23.6599 N   0  0  0  0  0  0  0  0  0  0  0  0
    9.3054  -17.7434   25.4461 C   0  0  0  0  0  0  0  0  0  0  0  0
    9.3698  -18.1951   26.7338 O   0  0  0  0  0  0  0  0  0  0  0  0
   10.1595  -18.0504   24.6005 O   0  0  0  0  0  0  0  0  0  0  0  0
  2  1  1  1
  2  7  1  0
  3  2  1  0
  4  3  1  0
  5  4  1  0
  5  6  2  0
  7 15  1  0
  8  7  2  0
  9  5  1  0
 11 10  1  6
 11 12  1  0
 13 11  1  0
 14 13  1  1
 15 14  1  0
 16 14  1  0
 17 16  2  0
 19 18  1  6
 19 20  1  0
 20 16  1  0
 21 19  1  0
 22 21  1  0
 23 21  2  0
M  END
$$$$
