ELA.pdb
     RDKit          3D

 23 22  0  0  1  0  0  0  0  0999 V2000
    8.2472  -17.0705   21.7434 N   0  0  0  0  0  0  0  0  0  0  0  0
    9.6698  -17.0349   22.1626 C   0  0  1  0  0  0  0  0  0  0  0  0
   10.4516  -16.5312   20.9917 C   0  0  0  0  0  0  0  0  0  0  0  0
    9.9494  -17.0395   19.6875 C   0  0  0  0  0  0  0  0  0  0  0  0
   10.7519  -16.5291   18.5635 C   0  0  0  0  0  0  0  0  0  0  0  0
   11.8113  -15.9089   18.7184 O   0  0  0  0  0  0  0  0  0  0  0  0
    9.7709  -16.0677   23.2955 C   0  0  0  0  0  0  0  0  0  0  0  0
   10.8618  -15.7726   23.8012 O   0  0  0  0  0  0  0  0  0  0  0  0
   10.3230  -16.7395   17.2503 O   0  0  0  0  0  0  0  0  0  0  0  0
    7.8756  -11.6682   25.8541 C   0  0  0  0  0  0  0  0  0  0  0  0
    7.0614  -12.9351   26.1259 C   0  0  1  0  0  0  0  0  0  0  0  0
    5.6427  -12.5186   26.3304 C   0  0  0  0  0  0  0  0  0  0  0  0
    7.2640  -13.8247   24.9232 C   0  0  0  0  0  0  0  0  0  0  0  0
    8.5985  -14.5456   24.9557 C   0  0  2  0  0  0  0  0  0  0  0  0
    8.6010  -15.4531   23.8291 N   0  0  0  0  0  0  0  0  0  0  0  0
    8.5863  -15.3621   26.2137 C   0  0  0  0  0  0  0  0  0  0  0  0
    8.1636  -14.8768   27.2889 O   0  0  0  0  0  0  0  0  0  0  0  0
    7.6147  -18.3694   27.3499 C   0  0  0  0  0  0  0  0  0  0  0  0
    8.8940  -17.5714   27.3744 C   0  0  2  0  0  0  0  0  0  0  0  0
    9.0449  -16.7004   26.2471 N   0  0  0  0  0  0  0  0  0  0  0  0
   10.0188  -18.5327   27.4208 C   0  0  0  0  0  0  0  0  0  0  0  0
   10.8841  -18.6211   26.3672 O   0  0  0  0  0  0  0  0  0  0  0  0
   10.1430  -19.2404   28.4319 O   0  0  0  0  0  0  0  0  0  0  0  0
  2  1  1  6
  2  7  1  0
  3  2  1  0
  4  3  1  0
  5  4  1  0
  5  6  2  0
  7 15  1  0
  8  7  2  0
  9  5  1  0
 11 10  1  6
 11 12  1  0
 13 11  1  0
 14 13  1  6
 15 14  1  0
 16 14  1  0
 17 16  2  0
 19 18  1  6
 19 20  1  0
 20 16  1  0
 21 19  1  0
 22 21  1  0
 23 21  2  0
M  END
$$$$
