ELA.pdb
     RDKit          3D

 23 22  0  0  1  0  0  0  0  0999 V2000
    7.5251  -16.9215   21.8006 N   0  0  0  0  0  0  0  0  0  0  0  0
    8.9882  -17.1206   21.9435 C   0  0  1  0  0  0  0  0  0  0  0  0
    9.6296  -16.4670   20.7614 C   0  0  0  0  0  0  0  0  0  0  0  0
    9.0405  -16.8918   19.4637 C   0  0  0  0  0  0  0  0  0  0  0  0
    9.7601  -16.2994   18.3239 C   0  0  0  0  0  0  0  0  0  0  0  0
   10.8205  -16.7602   17.8831 O   0  0  0  0  0  0  0  0  0  0  0  0
    9.4066  -16.4266   23.1975 C   0  0  0  0  0  0  0  0  0  0  0  0
   10.5999  -16.2315   23.4638 O   0  0  0  0  0  0  0  0  0  0  0  0
    9.2465  -15.1646   17.6906 O   0  0  0  0  0  0  0  0  0  0  0  0
    5.9794  -12.8764   25.7631 C   0  0  0  0  0  0  0  0  0  0  0  0
    7.3152  -13.4269   25.2587 C   0  0  1  0  0  0  0  0  0  0  0  0
    8.3673  -12.4230   25.5953 C   0  0  0  0  0  0  0  0  0  0  0  0
    7.5036  -14.7561   25.9491 C   0  0  0  0  0  0  0  0  0  0  0  0
    8.7381  -15.4910   25.4612 C   0  0  2  0  0  0  0  0  0  0  0  0
    8.4319  -15.9663   24.1297 N   0  0  0  0  0  0  0  0  0  0  0  0
    8.8815  -16.6820   26.3614 C   0  0  0  0  0  0  0  0  0  0  0  0
    7.9419  -17.5000   26.4969 O   0  0  0  0  0  0  0  0  0  0  0  0
   11.3313  -19.0229   27.3970 C   0  0  0  0  0  0  0  0  0  0  0  0
   10.2682  -18.0886   27.9174 C   0  0  2  0  0  0  0  0  0  0  0  0
   10.0672  -16.9360   27.0908 N   0  0  0  0  0  0  0  0  0  0  0  0
   10.6717  -17.6670   29.2779 C   0  0  0  0  0  0  0  0  0  0  0  0
   10.7569  -18.5907   30.2808 O   0  0  0  0  0  0  0  0  0  0  0  0
   10.9243  -16.4676   29.4685 O   0  0  0  0  0  0  0  0  0  0  0  0
  2  1  1  6
  2  7  1  0
  3  2  1  0
  4  3  1  0
  5  4  1  0
  5  6  2  0
  7 15  1  0
  8  7  2  0
  9  5  1  0
 11 10  1  1
 11 12  1  0
 13 11  1  0
 14 13  1  1
 15 14  1  0
 16 14  1  0
 17 16  2  0
 19 18  1  6
 19 20  1  0
 20 16  1  0
 21 19  1  0
 22 21  1  0
 23 21  2  0
M  END
$$$$
