ELA.pdb
     RDKit          3D

 23 22  0  0  1  0  0  0  0  0999 V2000
   12.3576  -17.3706   18.0270 N   0  0  0  0  0  0  0  0  0  0  0  0
   11.0367  -17.4361   18.6990 C   0  0  1  0  0  0  0  0  0  0  0  0
   10.9401  -18.7889   19.3287 C   0  0  0  0  0  0  0  0  0  0  0  0
   12.0602  -19.0842   20.2613 C   0  0  0  0  0  0  0  0  0  0  0  0
   11.9270  -20.4233   20.8588 C   0  0  0  0  0  0  0  0  0  0  0  0
   10.8960  -20.8103   21.4230 O   0  0  0  0  0  0  0  0  0  0  0  0
   11.0277  -16.3815   19.7559 C   0  0  0  0  0  0  0  0  0  0  0  0
   12.0745  -15.8561   20.1571 O   0  0  0  0  0  0  0  0  0  0  0  0
   12.9970  -21.3203   20.8016 O   0  0  0  0  0  0  0  0  0  0  0  0
    6.3715  -13.4943   20.0919 C   0  0  0  0  0  0  0  0  0  0  0  0
    7.8762  -13.7615   20.0122 C   0  0  1  0  0  0  0  0  0  0  0  0
    8.5529  -12.4466   19.8096 C   0  0  0  0  0  0  0  0  0  0  0  0
    8.2466  -14.4397   21.3090 C   0  0  0  0  0  0  0  0  0  0  0  0
    9.6918  -14.9012   21.3279 C   0  0  2  0  0  0  0  0  0  0  0  0
    9.8000  -15.9484   20.3358 N   0  0  0  0  0  0  0  0  0  0  0  0
    9.9025  -15.5147   22.6801 C   0  0  0  0  0  0  0  0  0  0  0  0
    9.8055  -14.8226   23.7203 O   0  0  0  0  0  0  0  0  0  0  0  0
    9.9782  -18.9925   24.0883 C   0  0  0  0  0  0  0  0  0  0  0  0
   10.3450  -17.5302   24.1170 C   0  0  2  0  0  0  0  0  0  0  0  0
   10.2167  -16.8846   22.8447 N   0  0  0  0  0  0  0  0  0  0  0  0
   11.7434  -17.4302   24.5923 C   0  0  0  0  0  0  0  0  0  0  0  0
   12.6898  -16.8355   23.8067 O   0  0  0  0  0  0  0  0  0  0  0  0
   12.0175  -17.8974   25.7083 O   0  0  0  0  0  0  0  0  0  0  0  0
  2  1  1  1
  2  7  1  0
  3  2  1  0
  4  3  1  0
  5  4  1  0
  5  6  2  0
  7 15  1  0
  8  7  2  0
  9  5  1  0
 11 10  1  1
 11 12  1  0
 13 11  1  0
 14 13  1  1
 15 14  1  0
 16 14  1  0
 17 16  2  0
 19 18  1  6
 19 20  1  0
 20 16  1  0
 21 19  1  0
 22 21  1  0
 23 21  2  0
M  END
$$$$
