ELA.pdb
     RDKit          3D

 23 22  0  0  1  0  0  0  0  0999 V2000
    8.5812  -17.4811   21.9928 N   0  0  0  0  0  0  0  0  0  0  0  0
    9.9805  -17.2907   22.4475 C   0  0  1  0  0  0  0  0  0  0  0  0
   10.7838  -16.9418   21.2355 C   0  0  0  0  0  0  0  0  0  0  0  0
    9.9868  -16.9506   19.9799 C   0  0  0  0  0  0  0  0  0  0  0  0
   10.8433  -16.7752   18.7951 C   0  0  0  0  0  0  0  0  0  0  0  0
   12.0760  -16.6922   18.8608 O   0  0  0  0  0  0  0  0  0  0  0  0
    9.9804  -16.1448   23.4046 C   0  0  0  0  0  0  0  0  0  0  0  0
   11.0348  -15.6451   23.8186 O   0  0  0  0  0  0  0  0  0  0  0  0
   10.2660  -16.6956   17.5250 O   0  0  0  0  0  0  0  0  0  0  0  0
    7.6976  -11.8345   25.6583 C   0  0  0  0  0  0  0  0  0  0  0  0
    6.9409  -13.1165   26.0127 C   0  0  1  0  0  0  0  0  0  0  0  0
    5.4973  -12.7608   26.1447 C   0  0  0  0  0  0  0  0  0  0  0  0
    7.2251  -14.0891   24.8937 C   0  0  0  0  0  0  0  0  0  0  0  0
    8.6510  -14.6061   24.9253 C   0  0  2  0  0  0  0  0  0  0  0  0
    8.7526  -15.5913   23.8709 N   0  0  0  0  0  0  0  0  0  0  0  0
    8.7958  -15.3124   26.2405 C   0  0  0  0  0  0  0  0  0  0  0  0
    8.7430  -14.6764   27.3190 O   0  0  0  0  0  0  0  0  0  0  0  0
    8.0049  -18.4979   27.6936 C   0  0  0  0  0  0  0  0  0  0  0  0
    9.0670  -17.4359   27.5595 C   0  0  2  0  0  0  0  0  0  0  0  0
    8.9962  -16.7105   26.3262 N   0  0  0  0  0  0  0  0  0  0  0  0
   10.3830  -18.1039   27.6747 C   0  0  0  0  0  0  0  0  0  0  0  0
   11.2338  -18.1232   26.6060 O   0  0  0  0  0  0  0  0  0  0  0  0
   10.6777  -18.6346   28.7565 O   0  0  0  0  0  0  0  0  0  0  0  0
  2  1  1  6
  2  7  1  0
  3  2  1  0
  4  3  1  0
  5  4  1  0
  5  6  2  0
  7 15  1  0
  8  7  2  0
  9  5  1  0
 11 10  1  6
 11 12  1  0
 13 11  1  0
 14 13  1  1
 15 14  1  0
 16 14  1  0
 17 16  2  0
 19 18  1  6
 19 20  1  0
 20 16  1  0
 21 19  1  0
 22 21  1  0
 23 21  2  0
M  END
$$$$
