VSF.pdb
     RDKit          3D

 25 25  0  0  1  0  0  0  0  0999 V2000
    7.9266  -12.6068   18.4539 C   0  0  0  0  0  0  0  0  0  0  0  0
    7.9194  -13.3984   19.7241 C   0  0  2  0  0  0  0  0  0  0  0  0
    8.9910  -12.8444   20.6403 C   0  0  0  0  0  0  0  0  0  0  0  0
    8.2105  -14.8628   19.5128 C   0  0  2  0  0  0  0  0  0  0  0  0
    7.2689  -15.4258   18.5715 N   0  0  0  0  0  0  0  0  0  0  0  0
    8.2070  -15.6171   20.7983 C   0  0  0  0  0  0  0  0  0  0  0  0
    7.1320  -15.8168   21.4176 O   0  0  0  0  0  0  0  0  0  0  0  0
   11.3002  -17.9535   21.9205 O   0  0  0  0  0  0  0  0  0  0  0  0
   10.0060  -18.2137   22.3583 C   0  0  0  0  0  0  0  0  0  0  0  0
    9.3303  -16.8775   22.5866 C   0  0  2  0  0  0  0  0  0  0  0  0
    9.3956  -16.1352   21.3721 N   0  0  0  0  0  0  0  0  0  0  0  0
    9.9710  -16.1509   23.7341 C   0  0  0  0  0  0  0  0  0  0  0  0
   11.0186  -15.5085   23.5471 O   0  0  0  0  0  0  0  0  0  0  0  0
    9.4130  -16.1740   25.0391 N   0  0  0  0  0  0  0  0  0  0  0  0
   10.1182  -15.6844   26.2182 C   0  0  1  0  0  0  0  0  0  0  0  0
   10.0417  -14.2083   26.3545 C   0  0  0  0  0  0  0  0  0  0  0  0
    8.6520  -13.7672   26.4277 C   0  0  0  0  0  0  0  0  0  0  0  0
    7.7232  -14.1729   25.5025 C   0  0  0  0  0  0  0  0  0  0  0  0
    6.3909  -13.7393   25.5888 C   0  0  0  0  0  0  0  0  0  0  0  0
    6.0027  -12.8999   26.6061 C   0  0  0  0  0  0  0  0  0  0  0  0
    6.9277  -12.4902   27.5354 C   0  0  0  0  0  0  0  0  0  0  0  0
    8.2351  -12.9277   27.4340 C   0  0  0  0  0  0  0  0  0  0  0  0
    9.7088  -16.3648   27.4359 C   0  0  0  0  0  0  0  0  0  0  0  0
    8.8221  -17.2283   27.5772 O   0  0  0  0  0  0  0  0  0  0  0  0
   10.3830  -16.0266   28.6303 O   0  0  0  0  0  0  0  0  0  0  0  0
  2  1  1  6
  2  4  1  0
  2  3  1  0
  4  6  1  0
  4  5  1  6
  6  7  2  0
  9  8  1  0
 10  9  1  6
 10 12  1  0
 11  6  1  0
 11 10  1  0
 12 13  2  0
 14 15  1  0
 14 12  1  0
 15 23  1  0
 15 16  1  1
 17 16  1  0
 18 17  2  0
 19 18  1  0
 20 21  1  0
 20 19  2  0
 21 22  2  0
 22 17  1  0
 23 24  2  0
 23 25  1  0
M  END
$$$$
