VSF.pdb
     RDKit          3D

 25 25  0  0  1  0  0  0  0  0999 V2000
    7.0581  -12.6613   20.5772 C   0  0  0  0  0  0  0  0  0  0  0  0
    8.4265  -12.9599   20.0496 C   0  0  2  0  0  0  0  0  0  0  0  0
    8.6562  -12.1201   18.8100 C   0  0  0  0  0  0  0  0  0  0  0  0
    8.6115  -14.4057   19.6633 C   0  0  2  0  0  0  0  0  0  0  0  0
    7.7813  -14.7256   18.5239 N   0  0  0  0  0  0  0  0  0  0  0  0
    8.3376  -15.3217   20.8066 C   0  0  0  0  0  0  0  0  0  0  0  0
    7.1561  -15.5981   21.1335 O   0  0  0  0  0  0  0  0  0  0  0  0
   11.1106  -17.8314   22.1794 O   0  0  0  0  0  0  0  0  0  0  0  0
    9.7646  -18.1145   22.3854 C   0  0  0  0  0  0  0  0  0  0  0  0
    9.0604  -16.7973   22.6366 C   0  0  2  0  0  0  0  0  0  0  0  0
    9.3790  -15.9135   21.5653 N   0  0  0  0  0  0  0  0  0  0  0  0
    9.4507  -16.2364   23.9739 C   0  0  0  0  0  0  0  0  0  0  0  0
   10.4007  -15.4385   24.0523 O   0  0  0  0  0  0  0  0  0  0  0  0
    8.7627  -16.5914   25.1636 N   0  0  0  0  0  0  0  0  0  0  0  0
    9.2029  -16.1835   26.4929 C   0  0  1  0  0  0  0  0  0  0  0  0
    8.0865  -15.6813   27.3325 C   0  0  0  0  0  0  0  0  0  0  0  0
    7.6253  -14.3810   26.8554 C   0  0  0  0  0  0  0  0  0  0  0  0
    8.4428  -13.2791   26.8799 C   0  0  0  0  0  0  0  0  0  0  0  0
    7.9827  -12.0365   26.4165 C   0  0  0  0  0  0  0  0  0  0  0  0
    6.7023  -11.9118   25.9314 C   0  0  0  0  0  0  0  0  0  0  0  0
    5.8789  -13.0111   25.9042 C   0  0  0  0  0  0  0  0  0  0  0  0
    6.3498  -14.2264   26.3649 C   0  0  0  0  0  0  0  0  0  0  0  0
    9.9689  -17.2178   27.1688 C   0  0  0  0  0  0  0  0  0  0  0  0
   10.1197  -18.4088   26.8363 O   0  0  0  0  0  0  0  0  0  0  0  0
   10.6409  -16.8595   28.3586 O   0  0  0  0  0  0  0  0  0  0  0  0
  2  1  1  6
  2  4  1  0
  2  3  1  0
  4  6  1  0
  4  5  1  6
  6  7  2  0
  9  8  1  0
 10  9  1  6
 10 12  1  0
 11  6  1  0
 11 10  1  0
 12 13  2  0
 14 15  1  0
 14 12  1  0
 15 23  1  0
 15 16  1  1
 17 16  1  0
 18 17  2  0
 19 18  1  0
 20 21  1  0
 20 19  2  0
 21 22  2  0
 22 17  1  0
 23 24  2  0
 23 25  1  0
M  END
$$$$
