VSF.pdb
     RDKit          3D

 25 25  0  0  1  0  0  0  0  0999 V2000
    9.5307  -18.1182   18.2097 C   0  0  0  0  0  0  0  0  0  0  0  0
   10.4618  -18.6819   19.2370 C   0  0  2  0  0  0  0  0  0  0  0  0
   10.5976  -20.1711   18.9952 C   0  0  0  0  0  0  0  0  0  0  0  0
    9.9725  -18.4907   20.6504 C   0  0  2  0  0  0  0  0  0  0  0  0
    8.7381  -19.2157   20.8511 N   0  0  0  0  0  0  0  0  0  0  0  0
    9.8138  -17.0479   20.9890 C   0  0  0  0  0  0  0  0  0  0  0  0
   10.8145  -16.2891   21.0321 O   0  0  0  0  0  0  0  0  0  0  0  0
    6.1666  -15.5152   21.8746 O   0  0  0  0  0  0  0  0  0  0  0  0
    7.0719  -14.6087   21.3330 C   0  0  0  0  0  0  0  0  0  0  0  0
    8.4627  -15.1075   21.6657 C   0  0  2  0  0  0  0  0  0  0  0  0
    8.5485  -16.4745   21.2731 N   0  0  0  0  0  0  0  0  0  0  0  0
    8.7583  -14.9138   23.1253 C   0  0  0  0  0  0  0  0  0  0  0  0
    8.9639  -13.7692   23.5643 O   0  0  0  0  0  0  0  0  0  0  0  0
    8.8109  -16.0069   24.0293 N   0  0  0  0  0  0  0  0  0  0  0  0
    9.1124  -15.8561   25.4483 C   0  0  1  0  0  0  0  0  0  0  0  0
    7.8893  -15.7202   26.2783 C   0  0  0  0  0  0  0  0  0  0  0  0
    7.4788  -14.3222   26.3689 C   0  0  0  0  0  0  0  0  0  0  0  0
    8.3804  -13.3295   26.6600 C   0  0  0  0  0  0  0  0  0  0  0  0
    7.9680  -11.9903   26.7426 C   0  0  0  0  0  0  0  0  0  0  0  0
    6.6503  -11.6595   26.5315 C   0  0  0  0  0  0  0  0  0  0  0  0
    5.7428  -12.6487   26.2398 C   0  0  0  0  0  0  0  0  0  0  0  0
    6.1677  -13.9619   26.1627 C   0  0  0  0  0  0  0  0  0  0  0  0
    9.9937  -16.9000   25.9455 C   0  0  0  0  0  0  0  0  0  0  0  0
   10.4193  -17.9034   25.3423 O   0  0  0  0  0  0  0  0  0  0  0  0
   10.4436  -16.7929   27.2802 O   0  0  0  0  0  0  0  0  0  0  0  0
  2  1  1  6
  2  4  1  0
  2  3  1  0
  4  6  1  0
  4  5  1  6
  6  7  2  0
  9  8  1  0
 10  9  1  1
 10 12  1  0
 11  6  1  0
 11 10  1  0
 12 13  2  0
 14 15  1  0
 14 12  1  0
 15 23  1  0
 15 16  1  1
 17 16  1  0
 18 17  2  0
 19 18  1  0
 20 21  1  0
 20 19  2  0
 21 22  2  0
 22 17  1  0
 23 24  2  0
 23 25  1  0
M  END
$$$$
