VSF.pdb
     RDKit          3D

 25 25  0  0  1  0  0  0  0  0999 V2000
    8.3701  -12.3478   18.3155 C   0  0  0  0  0  0  0  0  0  0  0  0
    7.9109  -13.2235   19.4390 C   0  0  2  0  0  0  0  0  0  0  0  0
    8.4797  -12.6800   20.7336 C   0  0  0  0  0  0  0  0  0  0  0  0
    8.3695  -14.6536   19.3028 C   0  0  2  0  0  0  0  0  0  0  0  0
    7.8875  -15.2136   18.0603 N   0  0  0  0  0  0  0  0  0  0  0  0
    7.9488  -15.4813   20.4686 C   0  0  0  0  0  0  0  0  0  0  0  0
    6.8947  -16.1636   20.4192 O   0  0  0  0  0  0  0  0  0  0  0  0
    9.9125  -18.0343   22.2290 O   0  0  0  0  0  0  0  0  0  0  0  0
    8.5368  -17.8337   22.2664 C   0  0  0  0  0  0  0  0  0  0  0  0
    8.3014  -16.4078   22.7194 C   0  0  2  0  0  0  0  0  0  0  0  0
    8.7051  -15.5365   21.6667 N   0  0  0  0  0  0  0  0  0  0  0  0
    9.0352  -16.1326   24.0004 C   0  0  0  0  0  0  0  0  0  0  0  0
   10.2442  -15.8456   23.9669 O   0  0  0  0  0  0  0  0  0  0  0  0
    8.3861  -16.1900   25.2614 N   0  0  0  0  0  0  0  0  0  0  0  0
    9.0599  -15.8946   26.5209 C   0  0  1  0  0  0  0  0  0  0  0  0
    8.1620  -15.2430   27.5070 C   0  0  0  0  0  0  0  0  0  0  0  0
    7.5550  -14.0428   26.9393 C   0  0  0  0  0  0  0  0  0  0  0  0
    8.2101  -12.8370   26.9487 C   0  0  0  0  0  0  0  0  0  0  0  0
    7.6114  -11.6932   26.3978 C   0  0  0  0  0  0  0  0  0  0  0  0
    6.3567  -11.7711   25.8410 C   0  0  0  0  0  0  0  0  0  0  0  0
    5.6955  -12.9752   25.8285 C   0  0  0  0  0  0  0  0  0  0  0  0
    6.3013  -14.0907   26.3758 C   0  0  0  0  0  0  0  0  0  0  0  0
    9.7305  -17.0565   27.0809 C   0  0  0  0  0  0  0  0  0  0  0  0
    9.6550  -18.2440   26.7121 O   0  0  0  0  0  0  0  0  0  0  0  0
   10.5849  -16.8469   28.1861 O   0  0  0  0  0  0  0  0  0  0  0  0
  2  1  1  6
  2  4  1  0
  2  3  1  0
  4  6  1  0
  4  5  1  6
  6  7  2  0
  9  8  1  0
 10  9  1  6
 10 12  1  0
 11  6  1  0
 11 10  1  0
 12 13  2  0
 14 15  1  0
 14 12  1  0
 15 23  1  0
 15 16  1  1
 17 16  1  0
 18 17  2  0
 19 18  1  0
 20 21  1  0
 20 19  2  0
 21 22  2  0
 22 17  1  0
 23 24  2  0
 23 25  1  0
M  END
$$$$
