VSF.pdb
     RDKit          3D

 25 25  0  0  1  0  0  0  0  0999 V2000
   10.1250  -21.2178   21.4357 C   0  0  0  0  0  0  0  0  0  0  0  0
    9.9624  -19.7814   21.8233 C   0  0  2  0  0  0  0  0  0  0  0  0
    9.2607  -19.7233   23.1646 C   0  0  0  0  0  0  0  0  0  0  0  0
    9.1361  -18.9909   20.8403 C   0  0  2  0  0  0  0  0  0  0  0  0
    9.5948  -19.2401   19.4923 N   0  0  0  0  0  0  0  0  0  0  0  0
    9.1481  -17.5342   21.1553 C   0  0  0  0  0  0  0  0  0  0  0  0
   10.2043  -16.8642   21.0346 O   0  0  0  0  0  0  0  0  0  0  0  0
    5.7358  -15.6673   22.0539 O   0  0  0  0  0  0  0  0  0  0  0  0
    6.7330  -14.8268   21.5705 C   0  0  0  0  0  0  0  0  0  0  0  0
    8.0641  -15.4617   21.9156 C   0  0  2  0  0  0  0  0  0  0  0  0
    7.9886  -16.8487   21.5981 N   0  0  0  0  0  0  0  0  0  0  0  0
    8.4037  -15.2249   23.3592 C   0  0  0  0  0  0  0  0  0  0  0  0
    8.4420  -14.0629   23.7991 O   0  0  0  0  0  0  0  0  0  0  0  0
    8.6853  -16.2962   24.2468 N   0  0  0  0  0  0  0  0  0  0  0  0
    8.9914  -16.1034   25.6597 C   0  0  1  0  0  0  0  0  0  0  0  0
    7.7860  -15.7827   26.4643 C   0  0  0  0  0  0  0  0  0  0  0  0
    7.5250  -14.3464   26.4545 C   0  0  0  0  0  0  0  0  0  0  0  0
    8.5059  -13.4391   26.7671 C   0  0  0  0  0  0  0  0  0  0  0  0
    8.2372  -12.0615   26.7520 C   0  0  0  0  0  0  0  0  0  0  0  0
    6.9824  -11.6065   26.4223 C   0  0  0  0  0  0  0  0  0  0  0  0
    5.9961  -12.5097   26.1084 C   0  0  0  0  0  0  0  0  0  0  0  0
    6.2796  -13.8625   26.1286 C   0  0  0  0  0  0  0  0  0  0  0  0
    9.7427  -17.2127   26.2243 C   0  0  0  0  0  0  0  0  0  0  0  0
   10.1103  -18.2618   25.6622 O   0  0  0  0  0  0  0  0  0  0  0  0
   10.1199  -17.1209   27.5825 O   0  0  0  0  0  0  0  0  0  0  0  0
  2  1  1  6
  2  4  1  0
  2  3  1  0
  4  6  1  0
  4  5  1  6
  6  7  2  0
  9  8  1  0
 10  9  1  1
 10 12  1  0
 11  6  1  0
 11 10  1  0
 12 13  2  0
 14 15  1  0
 14 12  1  0
 15 23  1  0
 15 16  1  1
 17 16  1  0
 18 17  2  0
 19 18  1  0
 20 21  1  0
 20 19  2  0
 21 22  2  0
 22 17  1  0
 23 24  2  0
 23 25  1  0
M  END
$$$$
