VSF.pdb
     RDKit          3D

 25 25  0  0  1  0  0  0  0  0999 V2000
    7.4729  -12.3683   19.1415 C   0  0  0  0  0  0  0  0  0  0  0  0
    7.8354  -13.2752   20.2756 C   0  0  2  0  0  0  0  0  0  0  0  0
    9.1201  -12.7714   20.9005 C   0  0  0  0  0  0  0  0  0  0  0  0
    8.0652  -14.7019   19.8449 C   0  0  2  0  0  0  0  0  0  0  0  0
    6.9101  -15.1974   19.1308 N   0  0  0  0  0  0  0  0  0  0  0  0
    8.4041  -15.5794   21.0009 C   0  0  0  0  0  0  0  0  0  0  0  0
    7.5002  -16.0161   21.7567 O   0  0  0  0  0  0  0  0  0  0  0  0
   12.2050  -16.5453   21.6500 O   0  0  0  0  0  0  0  0  0  0  0  0
   11.3314  -17.5040   22.1520 C   0  0  0  0  0  0  0  0  0  0  0  0
   10.0036  -16.8184   22.3991 C   0  0  2  0  0  0  0  0  0  0  0  0
    9.7388  -15.9557   21.2964 N   0  0  0  0  0  0  0  0  0  0  0  0
   10.0252  -16.0813   23.7074 C   0  0  0  0  0  0  0  0  0  0  0  0
   10.1149  -14.8415   23.7131 O   0  0  0  0  0  0  0  0  0  0  0  0
    9.9456  -16.7617   24.9506 N   0  0  0  0  0  0  0  0  0  0  0  0
    9.1246  -16.2984   26.0636 C   0  0  1  0  0  0  0  0  0  0  0  0
    7.7270  -16.0075   25.6568 C   0  0  0  0  0  0  0  0  0  0  0  0
    7.3972  -14.6073   25.9053 C   0  0  0  0  0  0  0  0  0  0  0  0
    8.3526  -13.7077   26.3065 C   0  0  0  0  0  0  0  0  0  0  0  0
    8.0175  -12.3648   26.5403 C   0  0  0  0  0  0  0  0  0  0  0  0
    6.7224  -11.9365   26.3686 C   0  0  0  0  0  0  0  0  0  0  0  0
    5.7612  -12.8321   25.9671 C   0  0  0  0  0  0  0  0  0  0  0  0
    6.1103  -14.1506   25.7417 C   0  0  0  0  0  0  0  0  0  0  0  0
    9.1827  -17.1913   27.2094 C   0  0  0  0  0  0  0  0  0  0  0  0
    9.2007  -18.4368   27.2176 O   0  0  0  0  0  0  0  0  0  0  0  0
    9.2253  -16.6033   28.4931 O   0  0  0  0  0  0  0  0  0  0  0  0
  2  1  1  6
  2  4  1  0
  2  3  1  0
  4  6  1  0
  4  5  1  1
  6  7  2  0
  9  8  1  0
 10  9  1  6
 10 12  1  0
 11  6  1  0
 11 10  1  0
 12 13  2  0
 14 15  1  0
 14 12  1  0
 15 23  1  0
 15 16  1  6
 17 16  1  0
 18 17  2  0
 19 18  1  0
 20 21  1  0
 20 19  2  0
 21 22  2  0
 22 17  1  0
 23 24  2  0
 23 25  1  0
M  END
$$$$
