VSF.pdb
     RDKit          3D

 25 25  0  0  1  0  0  0  0  0999 V2000
    7.8993  -11.9803   18.7967 C   0  0  0  0  0  0  0  0  0  0  0  0
    7.8864  -13.0189   19.8743 C   0  0  2  0  0  0  0  0  0  0  0  0
    8.7203  -12.5160   21.0346 C   0  0  0  0  0  0  0  0  0  0  0  0
    8.4657  -14.3393   19.4332 C   0  0  2  0  0  0  0  0  0  0  0  0
    7.8470  -14.7656   18.1982 N   0  0  0  0  0  0  0  0  0  0  0  0
    8.3346  -15.3805   20.4916 C   0  0  0  0  0  0  0  0  0  0  0  0
    7.2095  -15.8622   20.7764 O   0  0  0  0  0  0  0  0  0  0  0  0
   11.4842  -17.4240   21.6732 O   0  0  0  0  0  0  0  0  0  0  0  0
   10.2421  -17.9994   21.9188 C   0  0  0  0  0  0  0  0  0  0  0  0
    9.2723  -16.8723   22.2073 C   0  0  2  0  0  0  0  0  0  0  0  0
    9.4535  -15.8672   21.2137 N   0  0  0  0  0  0  0  0  0  0  0  0
    9.4764  -16.3429   23.5978 C   0  0  0  0  0  0  0  0  0  0  0  0
   10.3495  -15.4830   23.8063 O   0  0  0  0  0  0  0  0  0  0  0  0
    8.6962  -16.7973   24.6931 N   0  0  0  0  0  0  0  0  0  0  0  0
    8.9631  -16.4177   26.0758 C   0  0  1  0  0  0  0  0  0  0  0  0
    7.7405  -15.9705   26.7889 C   0  0  0  0  0  0  0  0  0  0  0  0
    7.4174  -14.5891   26.4448 C   0  0  0  0  0  0  0  0  0  0  0  0
    6.5693  -14.2898   25.4084 C   0  0  0  0  0  0  0  0  0  0  0  0
    6.2694  -12.9555   25.0919 C   0  0  0  0  0  0  0  0  0  0  0  0
    6.8256  -11.9314   25.8213 C   0  0  0  0  0  0  0  0  0  0  0  0
    7.6755  -12.2243   26.8600 C   0  0  0  0  0  0  0  0  0  0  0  0
    7.9590  -13.5444   27.1567 C   0  0  0  0  0  0  0  0  0  0  0  0
    9.6740  -17.4511   26.8109 C   0  0  0  0  0  0  0  0  0  0  0  0
    9.9430  -18.6115   26.4465 O   0  0  0  0  0  0  0  0  0  0  0  0
   10.1321  -17.1309   28.1082 O   0  0  0  0  0  0  0  0  0  0  0  0
  2  1  1  6
  2  4  1  0
  2  3  1  0
  4  6  1  0
  4  5  1  6
  6  7  2  0
  9  8  1  0
 10  9  1  6
 10 12  1  0
 11  6  1  0
 11 10  1  0
 12 13  2  0
 14 15  1  0
 14 12  1  0
 15 23  1  0
 15 16  1  1
 17 16  1  0
 18 17  2  0
 19 18  1  0
 20 21  1  0
 20 19  2  0
 21 22  2  0
 22 17  1  0
 23 24  2  0
 23 25  1  0
M  END
$$$$
