VSF.pdb
     RDKit          3D

 25 25  0  0  1  0  0  0  0  0999 V2000
    7.0291  -12.6165   20.6391 C   0  0  0  0  0  0  0  0  0  0  0  0
    8.3970  -12.9704   20.1453 C   0  0  2  0  0  0  0  0  0  0  0  0
    8.7226  -12.0851   18.9600 C   0  0  0  0  0  0  0  0  0  0  0  0
    8.5119  -14.4036   19.6910 C   0  0  2  0  0  0  0  0  0  0  0  0
    7.6160  -14.6469   18.5830 N   0  0  0  0  0  0  0  0  0  0  0  0
    8.2625  -15.3582   20.8082 C   0  0  0  0  0  0  0  0  0  0  0  0
    7.0918  -15.7159   21.0921 O   0  0  0  0  0  0  0  0  0  0  0  0
   11.2101  -17.6682   22.1970 O   0  0  0  0  0  0  0  0  0  0  0  0
    9.8913  -18.1034   22.2735 C   0  0  0  0  0  0  0  0  0  0  0  0
    9.0332  -16.8912   22.5702 C   0  0  2  0  0  0  0  0  0  0  0  0
    9.3161  -15.8975   21.5889 N   0  0  0  0  0  0  0  0  0  0  0  0
    9.2793  -16.3990   23.9675 C   0  0  0  0  0  0  0  0  0  0  0  0
   10.1008  -15.4866   24.1622 O   0  0  0  0  0  0  0  0  0  0  0  0
    8.5971  -16.9477   25.0848 N   0  0  0  0  0  0  0  0  0  0  0  0
    8.9484  -16.6380   26.4661 C   0  0  1  0  0  0  0  0  0  0  0  0
    7.7885  -16.1468   27.2514 C   0  0  0  0  0  0  0  0  0  0  0  0
    7.4635  -14.7708   26.8878 C   0  0  0  0  0  0  0  0  0  0  0  0
    6.4074  -14.4798   26.0613 C   0  0  0  0  0  0  0  0  0  0  0  0
    6.1091  -13.1506   25.7226 C   0  0  0  0  0  0  0  0  0  0  0  0
    6.8763  -12.1232   26.2185 C   0  0  0  0  0  0  0  0  0  0  0  0
    7.9350  -12.4078   27.0464 C   0  0  0  0  0  0  0  0  0  0  0  0
    8.2133  -13.7229   27.3687 C   0  0  0  0  0  0  0  0  0  0  0  0
    9.6270  -17.7392   27.1296 C   0  0  0  0  0  0  0  0  0  0  0  0
    9.7992  -18.9016   26.7162 O   0  0  0  0  0  0  0  0  0  0  0  0
   10.1729  -17.4932   28.4090 O   0  0  0  0  0  0  0  0  0  0  0  0
  2  1  1  6
  2  4  1  0
  2  3  1  0
  4  6  1  0
  4  5  1  6
  6  7  2  0
  9  8  1  0
 10  9  1  6
 10 12  1  0
 11  6  1  0
 11 10  1  0
 12 13  2  0
 14 15  1  0
 14 12  1  0
 15 23  1  0
 15 16  1  1
 17 16  1  0
 18 17  2  0
 19 18  1  0
 20 21  1  0
 20 19  2  0
 21 22  2  0
 22 17  1  0
 23 24  2  0
 23 25  1  0
M  END
$$$$
