VSF.pdb
     RDKit          3D

 25 25  0  0  1  0  0  0  0  0999 V2000
    8.2505  -12.6462   17.4606 C   0  0  0  0  0  0  0  0  0  0  0  0
    8.2040  -13.5166   18.6773 C   0  0  2  0  0  0  0  0  0  0  0  0
    9.0733  -12.8905   19.7482 C   0  0  0  0  0  0  0  0  0  0  0  0
    8.7182  -14.9122   18.4290 C   0  0  2  0  0  0  0  0  0  0  0  0
    8.0225  -15.5062   17.3096 N   0  0  0  0  0  0  0  0  0  0  0  0
    8.6107  -15.7646   19.6469 C   0  0  0  0  0  0  0  0  0  0  0  0
    7.4849  -16.0739   20.1116 O   0  0  0  0  0  0  0  0  0  0  0  0
   11.9105  -17.3525   21.5705 O   0  0  0  0  0  0  0  0  0  0  0  0
   10.7014  -18.0398   21.5872 C   0  0  0  0  0  0  0  0  0  0  0  0
    9.5951  -17.0071   21.5272 C   0  0  2  0  0  0  0  0  0  0  0  0
    9.7537  -16.2576   20.3258 N   0  0  0  0  0  0  0  0  0  0  0  0
    9.6191  -16.1358   22.7502 C   0  0  0  0  0  0  0  0  0  0  0  0
   10.3381  -15.1220   22.7688 O   0  0  0  0  0  0  0  0  0  0  0  0
    8.8389  -16.4355   23.8975 N   0  0  0  0  0  0  0  0  0  0  0  0
    8.5891  -15.4755   24.9668 C   0  0  1  0  0  0  0  0  0  0  0  0
    7.3039  -14.7533   24.7938 C   0  0  0  0  0  0  0  0  0  0  0  0
    7.1305  -13.7490   25.8390 C   0  0  0  0  0  0  0  0  0  0  0  0
    8.0852  -13.5492   26.8043 C   0  0  0  0  0  0  0  0  0  0  0  0
    7.9020  -12.5785   27.8016 C   0  0  0  0  0  0  0  0  0  0  0  0
    6.7585  -11.8154   27.8203 C   0  0  0  0  0  0  0  0  0  0  0  0
    5.7989  -12.0105   26.8568 C   0  0  0  0  0  0  0  0  0  0  0  0
    5.9971  -12.9712   25.8827 C   0  0  0  0  0  0  0  0  0  0  0  0
    8.7054  -16.0696   26.2885 C   0  0  0  0  0  0  0  0  0  0  0  0
    8.0451  -17.0076   26.7743 O   0  0  0  0  0  0  0  0  0  0  0  0
    9.6830  -15.5384   27.1588 O   0  0  0  0  0  0  0  0  0  0  0  0
  2  1  1  6
  2  4  1  0
  2  3  1  0
  4  6  1  0
  4  5  1  6
  6  7  2  0
  9  8  1  0
 10  9  1  1
 10 12  1  0
 11  6  1  0
 11 10  1  0
 12 13  2  0
 14 15  1  0
 14 12  1  0
 15 23  1  0
 15 16  1  6
 17 16  1  0
 18 17  2  0
 19 18  1  0
 20 21  1  0
 20 19  2  0
 21 22  2  0
 22 17  1  0
 23 24  2  0
 23 25  1  0
M  END
$$$$
