VSF.pdb
     RDKit          3D

 25 25  0  0  1  0  0  0  0  0999 V2000
    7.5425  -13.0149   20.5874 C   0  0  0  0  0  0  0  0  0  0  0  0
    8.7277  -13.2680   19.7093 C   0  0  2  0  0  0  0  0  0  0  0  0
    8.6747  -12.3034   18.5425 C   0  0  0  0  0  0  0  0  0  0  0  0
    8.7613  -14.6662   19.1455 C   0  0  2  0  0  0  0  0  0  0  0  0
    7.6464  -14.8666   18.2475 N   0  0  0  0  0  0  0  0  0  0  0  0
    8.7796  -15.6953   20.2235 C   0  0  0  0  0  0  0  0  0  0  0  0
    7.7252  -16.2960   20.5498 O   0  0  0  0  0  0  0  0  0  0  0  0
   12.1013  -17.7395   21.4005 O   0  0  0  0  0  0  0  0  0  0  0  0
   10.7914  -18.2009   21.4748 C   0  0  0  0  0  0  0  0  0  0  0  0
    9.9302  -17.0412   21.9303 C   0  0  2  0  0  0  0  0  0  0  0  0
    9.9668  -16.0386   20.9186 N   0  0  0  0  0  0  0  0  0  0  0  0
   10.3987  -16.5261   23.2609 C   0  0  0  0  0  0  0  0  0  0  0  0
   11.3881  -15.7755   23.3158 O   0  0  0  0  0  0  0  0  0  0  0  0
    9.7415  -16.8721   24.4704 N   0  0  0  0  0  0  0  0  0  0  0  0
    9.1169  -15.8899   25.3494 C   0  0  1  0  0  0  0  0  0  0  0  0
    8.2026  -14.9751   24.6212 C   0  0  0  0  0  0  0  0  0  0  0  0
    7.6178  -13.9956   25.5321 C   0  0  0  0  0  0  0  0  0  0  0  0
    8.3889  -13.0422   26.1482 C   0  0  0  0  0  0  0  0  0  0  0  0
    7.8095  -12.1078   27.0209 C   0  0  0  0  0  0  0  0  0  0  0  0
    6.4573  -12.1396   27.2674 C   0  0  0  0  0  0  0  0  0  0  0  0
    5.6799  -13.0916   26.6538 C   0  0  0  0  0  0  0  0  0  0  0  0
    6.2684  -14.0034   25.7976 C   0  0  0  0  0  0  0  0  0  0  0  0
    8.4717  -16.5012   26.4999 C   0  0  0  0  0  0  0  0  0  0  0  0
    8.6659  -16.2685   27.7082 O   0  0  0  0  0  0  0  0  0  0  0  0
    7.4941  -17.4898   26.2507 O   0  0  0  0  0  0  0  0  0  0  0  0
  2  1  1  1
  2  4  1  0
  2  3  1  0
  4  6  1  0
  4  5  1  6
  6  7  2  0
  9  8  1  0
 10  9  1  6
 10 12  1  0
 11  6  1  0
 11 10  1  0
 12 13  2  0
 14 15  1  0
 14 12  1  0
 15 23  1  0
 15 16  1  6
 17 16  1  0
 18 17  2  0
 19 18  1  0
 20 21  1  0
 20 19  2  0
 21 22  2  0
 22 17  1  0
 23 24  2  0
 23 25  1  0
M  END
$$$$
