VSF.pdb
     RDKit          3D

 25 25  0  0  1  0  0  0  0  0999 V2000
    8.1087  -12.1972   18.6393 C   0  0  0  0  0  0  0  0  0  0  0  0
    8.0095  -13.1494   19.7897 C   0  0  2  0  0  0  0  0  0  0  0  0
    9.0382  -12.7543   20.8291 C   0  0  0  0  0  0  0  0  0  0  0  0
    8.2792  -14.5810   19.4004 C   0  0  2  0  0  0  0  0  0  0  0  0
    7.4498  -14.9552   18.2771 N   0  0  0  0  0  0  0  0  0  0  0  0
    8.0860  -15.5109   20.5491 C   0  0  0  0  0  0  0  0  0  0  0  0
    6.9390  -15.7108   21.0219 O   0  0  0  0  0  0  0  0  0  0  0  0
   10.8636  -18.2545   21.8583 O   0  0  0  0  0  0  0  0  0  0  0  0
    9.4919  -18.3811   22.0501 C   0  0  0  0  0  0  0  0  0  0  0  0
    8.9437  -16.9940   22.3135 C   0  0  2  0  0  0  0  0  0  0  0  0
    9.1684  -16.2010   21.1512 N   0  0  0  0  0  0  0  0  0  0  0  0
    9.5758  -16.4004   23.5397 C   0  0  0  0  0  0  0  0  0  0  0  0
   10.6394  -15.7652   23.4370 O   0  0  0  0  0  0  0  0  0  0  0  0
    8.9919  -16.5427   24.8256 N   0  0  0  0  0  0  0  0  0  0  0  0
    9.6406  -16.0921   26.0518 C   0  0  1  0  0  0  0  0  0  0  0  0
    9.7718  -14.6150   26.1161 C   0  0  0  0  0  0  0  0  0  0  0  0
    8.4577  -13.9790   26.1206 C   0  0  0  0  0  0  0  0  0  0  0  0
    8.3092  -12.6463   26.4122 C   0  0  0  0  0  0  0  0  0  0  0  0
    7.0379  -12.0512   26.4113 C   0  0  0  0  0  0  0  0  0  0  0  0
    5.9244  -12.8021   26.1169 C   0  0  0  0  0  0  0  0  0  0  0  0
    6.0664  -14.1367   25.8242 C   0  0  0  0  0  0  0  0  0  0  0  0
    7.3265  -14.7051   25.8300 C   0  0  0  0  0  0  0  0  0  0  0  0
    9.0144  -16.6349   27.2463 C   0  0  0  0  0  0  0  0  0  0  0  0
    7.9781  -17.3209   27.3311 O   0  0  0  0  0  0  0  0  0  0  0  0
    9.6354  -16.3685   28.4868 O   0  0  0  0  0  0  0  0  0  0  0  0
  2  1  1  6
  2  4  1  0
  2  3  1  0
  4  6  1  0
  4  5  1  6
  6  7  2  0
  9  8  1  0
 10  9  1  6
 10 12  1  0
 11  6  1  0
 11 10  1  0
 12 13  2  0
 14 15  1  0
 14 12  1  0
 15 23  1  0
 15 16  1  1
 17 16  1  0
 18 17  2  0
 19 18  1  0
 20 21  1  0
 20 19  2  0
 21 22  2  0
 22 17  1  0
 23 24  2  0
 23 25  1  0
M  END
$$$$
