VSF.pdb
     RDKit          3D

 25 25  0  0  1  0  0  0  0  0999 V2000
    7.3061  -12.5243   19.6721 C   0  0  0  0  0  0  0  0  0  0  0  0
    7.6217  -13.3123   20.9048 C   0  0  2  0  0  0  0  0  0  0  0  0
    8.8297  -12.6907   21.5749 C   0  0  0  0  0  0  0  0  0  0  0  0
    7.9497  -14.7561   20.6188 C   0  0  2  0  0  0  0  0  0  0  0  0
    6.9241  -15.3430   19.7861 N   0  0  0  0  0  0  0  0  0  0  0  0
    8.1408  -15.5374   21.8735 C   0  0  0  0  0  0  0  0  0  0  0  0
    7.1556  -15.8423   22.5914 O   0  0  0  0  0  0  0  0  0  0  0  0
   11.7357  -17.2016   22.7841 O   0  0  0  0  0  0  0  0  0  0  0  0
   10.5753  -17.8475   23.1972 C   0  0  0  0  0  0  0  0  0  0  0  0
    9.5381  -16.7787   23.4721 C   0  0  2  0  0  0  0  0  0  0  0  0
    9.4208  -15.9656   22.3079 N   0  0  0  0  0  0  0  0  0  0  0  0
    9.9108  -15.9816   24.6891 C   0  0  0  0  0  0  0  0  0  0  0  0
   10.7166  -15.0408   24.5848 O   0  0  0  0  0  0  0  0  0  0  0  0
    9.3671  -16.2707   25.9680 N   0  0  0  0  0  0  0  0  0  0  0  0
    9.8558  -15.6618   27.2000 C   0  0  1  0  0  0  0  0  0  0  0  0
    8.7732  -15.0157   27.9834 C   0  0  0  0  0  0  0  0  0  0  0  0
    8.1287  -13.9629   27.2040 C   0  0  0  0  0  0  0  0  0  0  0  0
    7.0127  -14.2151   26.4464 C   0  0  0  0  0  0  0  0  0  0  0  0
    6.4057  -13.1904   25.7036 C   0  0  0  0  0  0  0  0  0  0  0  0
    6.9266  -11.9183   25.7285 C   0  0  0  0  0  0  0  0  0  0  0  0
    8.0437  -11.6592   26.4849 C   0  0  0  0  0  0  0  0  0  0  0  0
    8.6276  -12.6813   27.2098 C   0  0  0  0  0  0  0  0  0  0  0  0
   10.6347  -16.5857   28.0082 C   0  0  0  0  0  0  0  0  0  0  0  0
   10.8270  -17.8022   27.8213 O   0  0  0  0  0  0  0  0  0  0  0  0
   11.2681  -16.0699   29.1607 O   0  0  0  0  0  0  0  0  0  0  0  0
  2  1  1  6
  2  4  1  0
  2  3  1  0
  4  6  1  0
  4  5  1  1
  6  7  2  0
  9  8  1  0
 10  9  1  6
 10 12  1  0
 11  6  1  0
 11 10  1  0
 12 13  2  0
 14 15  1  0
 14 12  1  0
 15 23  1  0
 15 16  1  1
 17 16  1  0
 18 17  2  0
 19 18  1  0
 20 21  1  0
 20 19  2  0
 21 22  2  0
 22 17  1  0
 23 24  2  0
 23 25  1  0
M  END
$$$$
