VSF.pdb
     RDKit          3D

 25 25  0  0  1  0  0  0  0  0999 V2000
    7.9411  -12.3139   18.8759 C   0  0  0  0  0  0  0  0  0  0  0  0
    7.9684  -13.1211   20.1359 C   0  0  2  0  0  0  0  0  0  0  0  0
    9.1144  -12.6290   20.9957 C   0  0  0  0  0  0  0  0  0  0  0  0
    8.1790  -14.5943   19.8927 C   0  0  2  0  0  0  0  0  0  0  0  0
    7.2051  -15.0855   18.9440 N   0  0  0  0  0  0  0  0  0  0  0  0
    8.1388  -15.3743   21.1622 C   0  0  0  0  0  0  0  0  0  0  0  0
    7.0486  -15.5729   21.7545 O   0  0  0  0  0  0  0  0  0  0  0  0
   11.3514  -17.5366   22.3107 O   0  0  0  0  0  0  0  0  0  0  0  0
   10.0740  -18.0098   22.5913 C   0  0  0  0  0  0  0  0  0  0  0  0
    9.1961  -16.8052   22.8601 C   0  0  2  0  0  0  0  0  0  0  0  0
    9.3085  -15.9189   21.7502 N   0  0  0  0  0  0  0  0  0  0  0  0
    9.5816  -16.1493   24.1550 C   0  0  0  0  0  0  0  0  0  0  0  0
   10.5272  -15.3428   24.1780 O   0  0  0  0  0  0  0  0  0  0  0  0
    8.8937  -16.4232   25.3660 N   0  0  0  0  0  0  0  0  0  0  0  0
    9.3326  -15.9244   26.6644 C   0  0  1  0  0  0  0  0  0  0  0  0
    8.2029  -15.4543   27.5046 C   0  0  0  0  0  0  0  0  0  0  0  0
    7.5427  -14.3073   26.8884 C   0  0  0  0  0  0  0  0  0  0  0  0
    6.4079  -14.4568   26.1314 C   0  0  0  0  0  0  0  0  0  0  0  0
    5.7859  -13.3424   25.5468 C   0  0  0  0  0  0  0  0  0  0  0  0
    6.3108  -12.0848   25.7284 C   0  0  0  0  0  0  0  0  0  0  0  0
    7.4467  -11.9284   26.4850 C   0  0  0  0  0  0  0  0  0  0  0  0
    8.0451  -13.0376   27.0528 C   0  0  0  0  0  0  0  0  0  0  0  0
   10.1771  -16.8740   27.3706 C   0  0  0  0  0  0  0  0  0  0  0  0
   10.8043  -16.7076   28.4339 O   0  0  0  0  0  0  0  0  0  0  0  0
   10.3270  -18.1598   26.8052 O   0  0  0  0  0  0  0  0  0  0  0  0
  2  1  1  6
  2  4  1  0
  2  3  1  0
  4  6  1  0
  4  5  1  6
  6  7  2  0
  9  8  1  0
 10  9  1  6
 10 12  1  0
 11  6  1  0
 11 10  1  0
 12 13  2  0
 14 15  1  0
 14 12  1  0
 15 23  1  0
 15 16  1  1
 17 16  1  0
 18 17  2  0
 19 18  1  0
 20 21  1  0
 20 19  2  0
 21 22  2  0
 22 17  1  0
 23 24  2  0
 23 25  1  0
M  END
$$$$
