VSF.pdb
     RDKit          3D

 25 25  0  0  1  0  0  0  0  0999 V2000
    8.0672  -12.4794   17.9849 C   0  0  0  0  0  0  0  0  0  0  0  0
    8.0105  -13.2678   19.2558 C   0  0  2  0  0  0  0  0  0  0  0  0
    9.0190  -12.6871   20.2255 C   0  0  0  0  0  0  0  0  0  0  0  0
    8.3457  -14.7256   19.0657 C   0  0  2  0  0  0  0  0  0  0  0  0
    7.5582  -15.2800   17.9876 N   0  0  0  0  0  0  0  0  0  0  0  0
    8.1626  -15.5025   20.3244 C   0  0  0  0  0  0  0  0  0  0  0  0
    7.0133  -15.6904   20.7965 O   0  0  0  0  0  0  0  0  0  0  0  0
   10.7496  -18.2635   21.6197 O   0  0  0  0  0  0  0  0  0  0  0  0
    9.4012  -18.2445   21.9599 C   0  0  0  0  0  0  0  0  0  0  0  0
    9.0239  -16.8021   22.2264 C   0  0  2  0  0  0  0  0  0  0  0  0
    9.2575  -16.0560   21.0352 N   0  0  0  0  0  0  0  0  0  0  0  0
    9.7939  -16.2625   23.3975 C   0  0  0  0  0  0  0  0  0  0  0  0
   11.0020  -15.9991   23.2702 O   0  0  0  0  0  0  0  0  0  0  0  0
    9.1802  -16.0410   24.6581 N   0  0  0  0  0  0  0  0  0  0  0  0
    9.9284  -15.6912   25.8603 C   0  0  1  0  0  0  0  0  0  0  0  0
    9.9285  -14.2307   26.1252 C   0  0  0  0  0  0  0  0  0  0  0  0
    8.5645  -13.7321   26.2737 C   0  0  0  0  0  0  0  0  0  0  0  0
    7.6678  -13.7821   25.2361 C   0  0  0  0  0  0  0  0  0  0  0  0
    6.3599  -13.2985   25.3970 C   0  0  0  0  0  0  0  0  0  0  0  0
    5.9636  -12.7677   26.6018 C   0  0  0  0  0  0  0  0  0  0  0  0
    6.8565  -12.7148   27.6444 C   0  0  0  0  0  0  0  0  0  0  0  0
    8.1402  -13.1960   27.4670 C   0  0  0  0  0  0  0  0  0  0  0  0
    9.5052  -16.4547   27.0228 C   0  0  0  0  0  0  0  0  0  0  0  0
    8.5358  -17.2301   27.1263 O   0  0  0  0  0  0  0  0  0  0  0  0
   10.2698  -16.3232   28.2033 O   0  0  0  0  0  0  0  0  0  0  0  0
  2  1  1  6
  2  4  1  0
  2  3  1  0
  4  6  1  0
  4  5  1  6
  6  7  2  0
  9  8  1  0
 10  9  1  6
 10 12  1  0
 11  6  1  0
 11 10  1  0
 12 13  2  0
 14 15  1  0
 14 12  1  0
 15 23  1  0
 15 16  1  1
 17 16  1  0
 18 17  2  0
 19 18  1  0
 20 21  1  0
 20 19  2  0
 21 22  2  0
 22 17  1  0
 23 24  2  0
 23 25  1  0
M  END
$$$$
