MAF.pdb
     RDKit          3D

 25 25  0  0  1  0  0  0  0  0999 V2000
   26.8600  -27.4890  -16.6034 C   0  0  0  0  0  0  0  0  0  0  0  0
   25.9874  -25.9265  -16.9601 S   0  0  0  0  0  0  0  0  0  0  0  0
   27.0202  -24.4993  -16.4825 C   0  0  0  0  0  0  0  0  0  0  0  0
   28.4317  -24.8032  -16.8955 C   0  0  0  0  0  0  0  0  0  0  0  0
   29.4566  -23.8245  -16.4376 C   0  0  2  0  0  0  0  0  0  0  0  0
   29.2177  -22.4981  -16.9896 N   0  0  0  0  0  0  0  0  0  0  0  0
   30.8103  -24.3127  -16.7864 C   0  0  0  0  0  0  0  0  0  0  0  0
   31.3086  -24.3061  -17.9375 O   0  0  0  0  0  0  0  0  0  0  0  0
   33.7947  -25.6666  -14.8017 C   0  0  0  0  0  0  0  0  0  0  0  0
   32.9810  -25.3791  -16.0703 C   0  0  2  0  0  0  0  0  0  0  0  0
   31.6892  -24.8560  -15.7711 N   0  0  0  0  0  0  0  0  0  0  0  0
   32.9693  -26.6186  -16.8550 C   0  0  0  0  0  0  0  0  0  0  0  0
   32.1844  -27.5729  -16.6989 O   0  0  0  0  0  0  0  0  0  0  0  0
   33.9293  -26.7697  -17.8930 N   0  0  0  0  0  0  0  0  0  0  0  0
   33.8981  -27.8941  -18.8145 C   0  0  1  0  0  0  0  0  0  0  0  0
   33.3241  -27.5578  -20.1303 C   0  0  0  0  0  0  0  0  0  0  0  0
   33.3490  -28.7276  -21.0186 C   0  0  0  0  0  0  0  0  0  0  0  0
   34.2952  -28.8779  -22.0030 C   0  0  0  0  0  0  0  0  0  0  0  0
   34.3534  -29.9627  -22.8464 C   0  0  0  0  0  0  0  0  0  0  0  0
   33.4041  -30.9736  -22.7047 C   0  0  0  0  0  0  0  0  0  0  0  0
   32.4433  -30.8509  -21.7273 C   0  0  0  0  0  0  0  0  0  0  0  0
   32.4163  -29.7480  -20.8993 C   0  0  0  0  0  0  0  0  0  0  0  0
   35.2652  -28.4124  -18.9433 C   0  0  0  0  0  0  0  0  0  0  0  0
   35.4559  -29.7997  -18.8574 O   0  0  0  0  0  0  0  0  0  0  0  0
   36.3066  -27.7455  -19.1253 O   0  0  0  0  0  0  0  0  0  0  0  0
  2  3  1  0
  2  1  1  0
  4  3  1  0
  5  4  1  0
  5  7  1  0
  5  6  1  6
  7 11  1  0
  7  8  2  0
 10  9  1  1
 10 12  1  0
 11 10  1  0
 12 14  1  0
 12 13  2  0
 14 15  1  0
 15 23  1  0
 15 16  1  6
 17 22  2  0
 17 16  1  0
 18 17  1  0
 19 20  1  0
 19 18  2  0
 20 21  2  0
 21 22  1  0
 23 24  1  0
 25 23  2  0
M  END
$$$$
