MAF.pdb
     RDKit          3D

 25 25  0  0  1  0  0  0  0  0999 V2000
   26.0832  -15.7356  -14.7260 C   0  0  0  0  0  0  0  0  0  0  0  0
   27.3915  -16.5587  -15.6959 S   0  0  0  0  0  0  0  0  0  0  0  0
   26.6557  -17.7129  -16.9034 C   0  0  0  0  0  0  0  0  0  0  0  0
   25.8970  -18.7535  -16.1312 C   0  0  0  0  0  0  0  0  0  0  0  0
   26.7021  -19.9155  -15.6628 C   0  0  2  0  0  0  0  0  0  0  0  0
   27.2167  -20.6976  -16.7784 N   0  0  0  0  0  0  0  0  0  0  0  0
   25.8920  -20.7546  -14.7506 C   0  0  0  0  0  0  0  0  0  0  0  0
   24.9304  -21.4815  -15.0972 O   0  0  0  0  0  0  0  0  0  0  0  0
   25.9393  -21.5474  -11.0048 C   0  0  0  0  0  0  0  0  0  0  0  0
   25.2901  -21.3966  -12.3868 C   0  0  2  0  0  0  0  0  0  0  0  0
   26.1715  -20.7917  -13.3296 N   0  0  0  0  0  0  0  0  0  0  0  0
   24.0277  -20.6772  -12.1847 C   0  0  0  0  0  0  0  0  0  0  0  0
   23.9117  -19.5168  -11.7476 O   0  0  0  0  0  0  0  0  0  0  0  0
   22.8127  -21.3411  -12.5088 N   0  0  0  0  0  0  0  0  0  0  0  0
   21.5272  -20.6635  -12.4610 C   0  0  1  0  0  0  0  0  0  0  0  0
   21.4864  -19.4265  -13.2623 C   0  0  0  0  0  0  0  0  0  0  0  0
   21.6895  -19.7267  -14.6859 C   0  0  0  0  0  0  0  0  0  0  0  0
   22.8826  -19.4827  -15.3215 C   0  0  0  0  0  0  0  0  0  0  0  0
   23.1103  -19.7586  -16.6495 C   0  0  0  0  0  0  0  0  0  0  0  0
   22.0801  -20.3172  -17.4042 C   0  0  0  0  0  0  0  0  0  0  0  0
   20.8730  -20.5727  -16.7951 C   0  0  0  0  0  0  0  0  0  0  0  0
   20.6812  -20.2828  -15.4603 C   0  0  0  0  0  0  0  0  0  0  0  0
   20.4968  -21.6154  -12.8929 C   0  0  0  0  0  0  0  0  0  0  0  0
   19.1521  -21.2393  -12.7567 O   0  0  0  0  0  0  0  0  0  0  0  0
   20.6817  -22.7514  -13.3805 O   0  0  0  0  0  0  0  0  0  0  0  0
  2  3  1  0
  2  1  1  0
  4  3  1  0
  5  4  1  0
  5  7  1  0
  5  6  1  6
  7 11  1  0
  7  8  2  0
 10  9  1  1
 10 12  1  0
 11 10  1  0
 12 14  1  0
 12 13  2  0
 14 15  1  0
 15 23  1  0
 15 16  1  6
 17 22  2  0
 17 16  1  0
 18 17  1  0
 19 20  1  0
 19 18  2  0
 20 21  2  0
 21 22  1  0
 23 24  1  0
 25 23  2  0
M  END
$$$$
