MAF.pdb
     RDKit          3D

 25 25  0  0  1  0  0  0  0  0999 V2000
   23.7928  -15.7434  -24.1079 C   0  0  0  0  0  0  0  0  0  0  0  0
   24.8815  -17.1897  -24.3384 S   0  0  0  0  0  0  0  0  0  0  0  0
   24.9677  -18.1708  -22.8016 C   0  0  0  0  0  0  0  0  0  0  0  0
   25.4502  -17.2603  -21.7093 C   0  0  0  0  0  0  0  0  0  0  0  0
   25.6857  -17.9119  -20.3911 C   0  0  2  0  0  0  0  0  0  0  0  0
   26.5818  -19.0540  -20.5084 N   0  0  0  0  0  0  0  0  0  0  0  0
   24.3930  -18.3067  -19.7865 C   0  0  0  0  0  0  0  0  0  0  0  0
   23.5196  -17.5132  -19.3613 O   0  0  0  0  0  0  0  0  0  0  0  0
   22.4330  -21.5601  -19.5359 C   0  0  0  0  0  0  0  0  0  0  0  0
   22.7808  -20.1264  -19.1144 C   0  0  2  0  0  0  0  0  0  0  0  0
   24.0364  -19.7031  -19.6398 N   0  0  0  0  0  0  0  0  0  0  0  0
   22.6866  -20.0812  -17.6511 C   0  0  0  0  0  0  0  0  0  0  0  0
   23.4659  -20.6348  -16.8529 O   0  0  0  0  0  0  0  0  0  0  0  0
   21.6192  -19.3465  -17.0655 N   0  0  0  0  0  0  0  0  0  0  0  0
   21.4792  -19.2056  -15.6251 C   0  0  1  0  0  0  0  0  0  0  0  0
   21.5837  -17.8104  -15.1597 C   0  0  0  0  0  0  0  0  0  0  0  0
   22.9024  -17.2535  -15.4896 C   0  0  0  0  0  0  0  0  0  0  0  0
   23.1012  -16.4413  -16.5794 C   0  0  0  0  0  0  0  0  0  0  0  0
   24.3190  -15.8964  -16.9132 C   0  0  0  0  0  0  0  0  0  0  0  0
   25.4220  -16.1767  -16.1083 C   0  0  0  0  0  0  0  0  0  0  0  0
   25.2540  -16.9878  -15.0095 C   0  0  0  0  0  0  0  0  0  0  0  0
   24.0168  -17.5165  -14.7056 C   0  0  0  0  0  0  0  0  0  0  0  0
   20.1985  -19.8062  -15.2334 C   0  0  0  0  0  0  0  0  0  0  0  0
   19.8937  -19.8771  -13.8658 O   0  0  0  0  0  0  0  0  0  0  0  0
   19.3250  -20.2742  -15.9952 O   0  0  0  0  0  0  0  0  0  0  0  0
  2  3  1  0
  2  1  1  0
  4  3  1  0
  5  4  1  0
  5  7  1  0
  5  6  1  6
  7 11  1  0
  7  8  2  0
 10  9  1  1
 10 12  1  0
 11 10  1  0
 12 14  1  0
 12 13  2  0
 14 15  1  0
 15 23  1  0
 15 16  1  6
 17 22  2  0
 17 16  1  0
 18 17  1  0
 19 20  1  0
 19 18  2  0
 20 21  2  0
 21 22  1  0
 23 24  1  0
 25 23  2  0
M  END
$$$$
