MAF.pdb
     RDKit          3D

 25 25  0  0  1  0  0  0  0  0999 V2000
   22.9965  -18.2523  -14.2346 C   0  0  0  0  0  0  0  0  0  0  0  0
   23.8114  -17.8085  -15.8059 S   0  0  0  0  0  0  0  0  0  0  0  0
   25.6224  -17.7479  -15.5869 C   0  0  0  0  0  0  0  0  0  0  0  0
   26.0300  -18.9852  -14.8399 C   0  0  0  0  0  0  0  0  0  0  0  0
   26.5186  -18.7616  -13.4509 C   0  0  2  0  0  0  0  0  0  0  0  0
   27.6185  -17.8077  -13.4150 N   0  0  0  0  0  0  0  0  0  0  0  0
   26.9106  -20.0527  -12.8411 C   0  0  0  0  0  0  0  0  0  0  0  0
   26.2549  -21.1192  -12.9182 O   0  0  0  0  0  0  0  0  0  0  0  0
   30.0122  -21.3954  -11.0697 C   0  0  0  0  0  0  0  0  0  0  0  0
   28.5183  -21.3776  -11.4191 C   0  0  2  0  0  0  0  0  0  0  0  0
   28.1367  -20.1731  -12.0789 N   0  0  0  0  0  0  0  0  0  0  0  0
   27.7897  -21.6474  -10.1747 C   0  0  0  0  0  0  0  0  0  0  0  0
   27.8643  -22.6900   -9.4976 O   0  0  0  0  0  0  0  0  0  0  0  0
   26.9132  -20.6456   -9.6745 N   0  0  0  0  0  0  0  0  0  0  0  0
   26.2212  -20.7909   -8.4041 C   0  0  1  0  0  0  0  0  0  0  0  0
   26.1899  -19.5501   -7.6083 C   0  0  0  0  0  0  0  0  0  0  0  0
   27.3232  -19.5068   -6.6746 C   0  0  0  0  0  0  0  0  0  0  0  0
   28.1397  -18.4075   -6.5664 C   0  0  0  0  0  0  0  0  0  0  0  0
   29.2034  -18.3295   -5.6982 C   0  0  0  0  0  0  0  0  0  0  0  0
   29.4793  -19.4209   -4.8763 C   0  0  0  0  0  0  0  0  0  0  0  0
   28.6789  -20.5368   -4.9622 C   0  0  0  0  0  0  0  0  0  0  0  0
   27.6200  -20.5791   -5.8452 C   0  0  0  0  0  0  0  0  0  0  0  0
   24.8667  -21.2845   -8.6797 C   0  0  0  0  0  0  0  0  0  0  0  0
   24.4931  -21.4741  -10.0187 O   0  0  0  0  0  0  0  0  0  0  0  0
   23.9839  -21.5628   -7.8397 O   0  0  0  0  0  0  0  0  0  0  0  0
  2  3  1  0
  2  1  1  0
  4  3  1  0
  5  4  1  0
  5  7  1  0
  5  6  1  6
  7 11  1  0
  7  8  2  0
 10  9  1  1
 10 12  1  0
 11 10  1  0
 12 14  1  0
 12 13  2  0
 14 15  1  0
 15 23  1  0
 15 16  1  6
 17 22  2  0
 17 16  1  0
 18 17  1  0
 19 20  1  0
 19 18  2  0
 20 21  2  0
 21 22  1  0
 23 24  1  0
 25 23  2  0
M  END
$$$$
