MAF.pdb
     RDKit          3D

 25 25  0  0  1  0  0  0  0  0999 V2000
   26.1421  -16.2087  -15.0242 C   0  0  0  0  0  0  0  0  0  0  0  0
   27.3252  -16.7116  -16.3194 S   0  0  0  0  0  0  0  0  0  0  0  0
   28.0054  -18.3648  -15.9507 C   0  0  0  0  0  0  0  0  0  0  0  0
   26.9511  -19.1326  -15.2063 C   0  0  0  0  0  0  0  0  0  0  0  0
   27.3472  -20.4986  -14.7646 C   0  0  2  0  0  0  0  0  0  0  0  0
   27.7235  -21.3402  -15.8920 N   0  0  0  0  0  0  0  0  0  0  0  0
   26.2503  -21.1125  -13.9819 C   0  0  0  0  0  0  0  0  0  0  0  0
   25.2860  -21.7527  -14.4650 O   0  0  0  0  0  0  0  0  0  0  0  0
   25.3288  -21.2534  -10.2620 C   0  0  0  0  0  0  0  0  0  0  0  0
   25.0497  -21.2846  -11.7704 C   0  0  2  0  0  0  0  0  0  0  0  0
   26.2190  -21.0082  -12.5374 N   0  0  0  0  0  0  0  0  0  0  0  0
   23.9314  -20.3666  -12.0126 C   0  0  0  0  0  0  0  0  0  0  0  0
   23.9821  -19.1237  -11.9516 O   0  0  0  0  0  0  0  0  0  0  0  0
   22.6649  -20.9190  -12.3487 N   0  0  0  0  0  0  0  0  0  0  0  0
   21.4983  -20.0844  -12.5866 C   0  0  1  0  0  0  0  0  0  0  0  0
   21.6796  -19.1246  -13.6910 C   0  0  0  0  0  0  0  0  0  0  0  0
   21.9836  -19.8299  -14.9433 C   0  0  0  0  0  0  0  0  0  0  0  0
   21.0198  -20.4987  -15.6581 C   0  0  0  0  0  0  0  0  0  0  0  0
   21.2669  -21.1620  -16.8372 C   0  0  0  0  0  0  0  0  0  0  0  0
   22.5645  -21.1636  -17.3462 C   0  0  0  0  0  0  0  0  0  0  0  0
   23.5516  -20.5023  -16.6521 C   0  0  0  0  0  0  0  0  0  0  0  0
   23.2664  -19.8473  -15.4722 C   0  0  0  0  0  0  0  0  0  0  0  0
   20.3510  -20.9675  -12.8277 C   0  0  0  0  0  0  0  0  0  0  0  0
   19.0816  -20.3823  -12.9484 O   0  0  0  0  0  0  0  0  0  0  0  0
   20.3727  -22.2121  -12.9408 O   0  0  0  0  0  0  0  0  0  0  0  0
  2  3  1  0
  2  1  1  0
  4  3  1  0
  5  4  1  0
  5  7  1  0
  5  6  1  6
  7 11  1  0
  7  8  2  0
 10  9  1  1
 10 12  1  0
 11 10  1  0
 12 14  1  0
 12 13  2  0
 14 15  1  0
 15 23  1  0
 15 16  1  6
 17 22  2  0
 17 16  1  0
 18 17  1  0
 19 20  1  0
 19 18  2  0
 20 21  2  0
 21 22  1  0
 23 24  1  0
 25 23  2  0
M  END
$$$$
