MAF.pdb
     RDKit          3D

 25 25  0  0  1  0  0  0  0  0999 V2000
   25.5693  -17.2725  -13.3708 C   0  0  0  0  0  0  0  0  0  0  0  0
   25.6379  -15.9302  -14.6051 S   0  0  0  0  0  0  0  0  0  0  0  0
   26.5515  -16.4771  -16.0876 C   0  0  0  0  0  0  0  0  0  0  0  0
   26.3595  -17.9609  -16.2162 C   0  0  0  0  0  0  0  0  0  0  0  0
   27.0261  -18.5926  -17.3885 C   0  0  2  0  0  0  0  0  0  0  0  0
   26.5614  -18.0198  -18.6444 N   0  0  0  0  0  0  0  0  0  0  0  0
   26.8149  -20.0579  -17.3588 C   0  0  0  0  0  0  0  0  0  0  0  0
   25.9975  -20.6866  -18.0726 O   0  0  0  0  0  0  0  0  0  0  0  0
   28.5439  -23.0053  -15.6446 C   0  0  0  0  0  0  0  0  0  0  0  0
   27.3941  -22.3125  -16.3878 C   0  0  2  0  0  0  0  0  0  0  0  0
   27.5761  -20.9006  -16.4594 N   0  0  0  0  0  0  0  0  0  0  0  0
   26.1517  -22.7340  -15.7314 C   0  0  0  0  0  0  0  0  0  0  0  0
   25.6973  -23.8933  -15.7063 O   0  0  0  0  0  0  0  0  0  0  0  0
   25.3776  -21.7508  -15.0561 N   0  0  0  0  0  0  0  0  0  0  0  0
   24.2014  -22.0981  -14.2750 C   0  0  1  0  0  0  0  0  0  0  0  0
   24.5226  -22.6791  -12.9585 C   0  0  0  0  0  0  0  0  0  0  0  0
   25.2431  -21.7059  -12.1266 C   0  0  0  0  0  0  0  0  0  0  0  0
   24.5881  -20.7776  -11.3543 C   0  0  0  0  0  0  0  0  0  0  0  0
   25.2297  -19.8580  -10.5581 C   0  0  0  0  0  0  0  0  0  0  0  0
   26.6232  -19.8571  -10.5243 C   0  0  0  0  0  0  0  0  0  0  0  0
   27.3072  -20.7751  -11.2876 C   0  0  0  0  0  0  0  0  0  0  0  0
   26.6296  -21.6830  -12.0745 C   0  0  0  0  0  0  0  0  0  0  0  0
   23.3744  -20.8930  -14.1410 C   0  0  0  0  0  0  0  0  0  0  0  0
   22.0741  -21.0378  -13.6345 O   0  0  0  0  0  0  0  0  0  0  0  0
   23.7011  -19.7223  -14.4330 O   0  0  0  0  0  0  0  0  0  0  0  0
  2  3  1  0
  2  1  1  0
  4  3  1  0
  5  4  1  0
  5  7  1  0
  5  6  1  6
  7 11  1  0
  7  8  2  0
 10  9  1  1
 10 12  1  0
 11 10  1  0
 12 14  1  0
 12 13  2  0
 14 15  1  0
 15 23  1  0
 15 16  1  1
 17 22  2  0
 17 16  1  0
 18 17  1  0
 19 20  1  0
 19 18  2  0
 20 21  2  0
 21 22  1  0
 23 24  1  0
 25 23  2  0
M  END
$$$$
