MAF.pdb
     RDKit          3D

 25 25  0  0  1  0  0  0  0  0999 V2000
   20.7691  -11.3586    6.6747 C   0  0  0  0  0  0  0  0  0  0  0  0
   20.3999  -12.1024    5.0498 S   0  0  0  0  0  0  0  0  0  0  0  0
   18.6642  -12.6636    4.9881 C   0  0  0  0  0  0  0  0  0  0  0  0
   18.5065  -13.7606    6.0014 C   0  0  0  0  0  0  0  0  0  0  0  0
   17.1417  -14.3481    6.1006 C   0  0  2  0  0  0  0  0  0  0  0  0
   16.1776  -13.3845    6.6135 N   0  0  0  0  0  0  0  0  0  0  0  0
   17.1778  -15.5669    6.9406 C   0  0  0  0  0  0  0  0  0  0  0  0
   17.4031  -15.5901    8.1743 O   0  0  0  0  0  0  0  0  0  0  0  0
   16.2713  -19.2341    6.4708 C   0  0  0  0  0  0  0  0  0  0  0  0
   17.0467  -18.0795    7.1186 C   0  0  2  0  0  0  0  0  0  0  0  0
   16.9438  -16.8749    6.3635 N   0  0  0  0  0  0  0  0  0  0  0  0
   18.4194  -18.5545    7.3235 C   0  0  0  0  0  0  0  0  0  0  0  0
   19.3216  -18.5690    6.4650 O   0  0  0  0  0  0  0  0  0  0  0  0
   18.7788  -19.0478    8.6078 N   0  0  0  0  0  0  0  0  0  0  0  0
   20.1009  -19.5855    8.8850 C   0  0  1  0  0  0  0  0  0  0  0  0
   20.7802  -18.9194   10.0114 C   0  0  0  0  0  0  0  0  0  0  0  0
   21.3889  -17.6562    9.5731 C   0  0  0  0  0  0  0  0  0  0  0  0
   20.8680  -16.4340    9.9222 C   0  0  0  0  0  0  0  0  0  0  0  0
   21.4159  -15.2328    9.5370 C   0  0  0  0  0  0  0  0  0  0  0  0
   22.5645  -15.2425    8.7473 C   0  0  0  0  0  0  0  0  0  0  0  0
   23.1093  -16.4519    8.3812 C   0  0  0  0  0  0  0  0  0  0  0  0
   22.5320  -17.6372    8.7868 C   0  0  0  0  0  0  0  0  0  0  0  0
   19.9633  -21.0278    9.1201 C   0  0  0  0  0  0  0  0  0  0  0  0
   21.1340  -21.7883    9.2600 O   0  0  0  0  0  0  0  0  0  0  0  0
   18.8979  -21.6748    9.2125 O   0  0  0  0  0  0  0  0  0  0  0  0
  2  3  1  0
  2  1  1  0
  4  3  1  0
  5  4  1  0
  5  7  1  0
  5  6  1  1
  7 11  1  0
  7  8  2  0
 10  9  1  6
 10 12  1  0
 11 10  1  0
 12 14  1  0
 12 13  2  0
 14 15  1  0
 15 23  1  0
 15 16  1  1
 17 22  2  0
 17 16  1  0
 18 17  1  0
 19 20  1  0
 19 18  2  0
 20 21  2  0
 21 22  1  0
 23 24  1  0
 25 23  2  0
M  END
$$$$
