MAF.pdb
     RDKit          3D

 25 25  0  0  1  0  0  0  0  0999 V2000
   28.8101  -15.3485  -15.8941 C   0  0  0  0  0  0  0  0  0  0  0  0
   29.5809  -16.9749  -16.1954 S   0  0  0  0  0  0  0  0  0  0  0  0
   28.3220  -18.2951  -16.1342 C   0  0  0  0  0  0  0  0  0  0  0  0
   27.6563  -18.2243  -14.7901 C   0  0  0  0  0  0  0  0  0  0  0  0
   26.5868  -19.2331  -14.5523 C   0  0  2  0  0  0  0  0  0  0  0  0
   25.4944  -19.0933  -15.5053 N   0  0  0  0  0  0  0  0  0  0  0  0
   26.0971  -19.1289  -13.1588 C   0  0  0  0  0  0  0  0  0  0  0  0
   25.9799  -18.0619  -12.5100 O   0  0  0  0  0  0  0  0  0  0  0  0
   23.8823  -21.0415  -10.9420 C   0  0  0  0  0  0  0  0  0  0  0  0
   25.1892  -20.2516  -11.0906 C   0  0  2  0  0  0  0  0  0  0  0  0
   25.7027  -20.3103  -12.4190 N   0  0  0  0  0  0  0  0  0  0  0  0
   26.1058  -20.7530  -10.0607 C   0  0  0  0  0  0  0  0  0  0  0  0
   26.7424  -21.8223  -10.1094 O   0  0  0  0  0  0  0  0  0  0  0  0
   26.3031  -19.9675   -8.8920 N   0  0  0  0  0  0  0  0  0  0  0  0
   27.1950  -20.3865   -7.8228 C   0  0  1  0  0  0  0  0  0  0  0  0
   28.1442  -19.3379   -7.4065 C   0  0  0  0  0  0  0  0  0  0  0  0
   28.5541  -19.5375   -6.0100 C   0  0  0  0  0  0  0  0  0  0  0  0
   27.9757  -18.8475   -4.9726 C   0  0  0  0  0  0  0  0  0  0  0  0
   28.3285  -19.0149   -3.6540 C   0  0  0  0  0  0  0  0  0  0  0  0
   29.3285  -19.9335   -3.3391 C   0  0  0  0  0  0  0  0  0  0  0  0
   29.9269  -20.6397   -4.3572 C   0  0  0  0  0  0  0  0  0  0  0  0
   29.5466  -20.4453   -5.6688 C   0  0  0  0  0  0  0  0  0  0  0  0
   26.3704  -20.8401   -6.6965 C   0  0  0  0  0  0  0  0  0  0  0  0
   25.0549  -20.3609   -6.6066 O   0  0  0  0  0  0  0  0  0  0  0  0
   26.7117  -21.6234   -5.7842 O   0  0  0  0  0  0  0  0  0  0  0  0
  2  3  1  0
  2  1  1  0
  4  3  1  0
  5  4  1  0
  5  7  1  0
  5  6  1  6
  7 11  1  0
  7  8  2  0
 10  9  1  6
 10 12  1  0
 11 10  1  0
 12 14  1  0
 12 13  2  0
 14 15  1  0
 15 23  1  0
 15 16  1  1
 17 22  2  0
 17 16  1  0
 18 17  1  0
 19 20  1  0
 19 18  2  0
 20 21  2  0
 21 22  1  0
 23 24  1  0
 25 23  2  0
M  END
$$$$
