MAF.pdb
     RDKit          3D

 25 25  0  0  1  0  0  0  0  0999 V2000
   27.4683  -18.1006   -6.8550 C   0  0  0  0  0  0  0  0  0  0  0  0
   28.3363  -19.5434   -6.1515 S   0  0  0  0  0  0  0  0  0  0  0  0
   28.7074  -20.7609   -7.4598 C   0  0  0  0  0  0  0  0  0  0  0  0
   27.8226  -20.4497   -8.6325 C   0  0  0  0  0  0  0  0  0  0  0  0
   27.9337  -21.3874   -9.7840 C   0  0  2  0  0  0  0  0  0  0  0  0
   29.2844  -21.4130  -10.3280 N   0  0  0  0  0  0  0  0  0  0  0  0
   26.9449  -21.0258  -10.8252 C   0  0  0  0  0  0  0  0  0  0  0  0
   26.9568  -19.9682  -11.4995 O   0  0  0  0  0  0  0  0  0  0  0  0
   24.6334  -23.0174  -12.9753 C   0  0  0  0  0  0  0  0  0  0  0  0
   24.9899  -21.7036  -12.2675 C   0  0  2  0  0  0  0  0  0  0  0  0
   25.8466  -21.9136  -11.1479 N   0  0  0  0  0  0  0  0  0  0  0  0
   23.7222  -21.0379  -11.9481 C   0  0  0  0  0  0  0  0  0  0  0  0
   23.2126  -20.9453  -10.8154 O   0  0  0  0  0  0  0  0  0  0  0  0
   22.9895  -20.4364  -13.0078 N   0  0  0  0  0  0  0  0  0  0  0  0
   21.7142  -19.7745  -12.7850 C   0  0  1  0  0  0  0  0  0  0  0  0
   21.7700  -18.3140  -12.9790 C   0  0  0  0  0  0  0  0  0  0  0  0
   22.3991  -17.9878  -14.2658 C   0  0  0  0  0  0  0  0  0  0  0  0
   23.7526  -17.7878  -14.3879 C   0  0  0  0  0  0  0  0  0  0  0  0
   24.3758  -17.4893  -15.5771 C   0  0  0  0  0  0  0  0  0  0  0  0
   23.6012  -17.3806  -16.7309 C   0  0  0  0  0  0  0  0  0  0  0  0
   22.2421  -17.5753  -16.6399 C   0  0  0  0  0  0  0  0  0  0  0  0
   21.6517  -17.8735  -15.4294 C   0  0  0  0  0  0  0  0  0  0  0  0
   20.7210  -20.3946  -13.6702 C   0  0  0  0  0  0  0  0  0  0  0  0
   21.1826  -21.2402  -14.6900 O   0  0  0  0  0  0  0  0  0  0  0  0
   19.4800  -20.2538  -13.6207 O   0  0  0  0  0  0  0  0  0  0  0  0
  2  3  1  0
  2  1  1  0
  4  3  1  0
  5  4  1  0
  5  7  1  0
  5  6  1  6
  7 11  1  0
  7  8  2  0
 10  9  1  1
 10 12  1  0
 11 10  1  0
 12 14  1  0
 12 13  2  0
 14 15  1  0
 15 23  1  0
 15 16  1  6
 17 22  2  0
 17 16  1  0
 18 17  1  0
 19 20  1  0
 19 18  2  0
 20 21  2  0
 21 22  1  0
 23 24  1  0
 25 23  2  0
M  END
$$$$
