MAF.pdb
     RDKit          3D

 25 25  0  0  1  0  0  0  0  0999 V2000
   17.5249  -15.8831  -16.5379 C   0  0  0  0  0  0  0  0  0  0  0  0
   18.2277  -14.1998  -16.5914 S   0  0  0  0  0  0  0  0  0  0  0  0
   20.0414  -14.2626  -16.3958 C   0  0  0  0  0  0  0  0  0  0  0  0
   20.5513  -12.8510  -16.4446 C   0  0  0  0  0  0  0  0  0  0  0  0
   20.6454  -12.2518  -17.8047 C   0  0  2  0  0  0  0  0  0  0  0  0
   21.6194  -12.9489  -18.6331 N   0  0  0  0  0  0  0  0  0  0  0  0
   20.9678  -10.8104  -17.6988 C   0  0  0  0  0  0  0  0  0  0  0  0
   22.0710  -10.3399  -17.3321 O   0  0  0  0  0  0  0  0  0  0  0  0
   19.1057   -7.5513  -18.4735 C   0  0  0  0  0  0  0  0  0  0  0  0
   20.2183   -8.4071  -17.8537 C   0  0  2  0  0  0  0  0  0  0  0  0
   19.9814   -9.8018  -18.0281 N   0  0  0  0  0  0  0  0  0  0  0  0
   20.3498   -7.9818  -16.4559 C   0  0  0  0  0  0  0  0  0  0  0  0
   19.5913   -8.3028  -15.5217 O   0  0  0  0  0  0  0  0  0  0  0  0
   21.4314   -7.1262  -16.1093 N   0  0  0  0  0  0  0  0  0  0  0  0
   21.7197   -6.7680  -14.7299 C   0  0  1  0  0  0  0  0  0  0  0  0
   22.2841   -7.8788  -13.9415 C   0  0  0  0  0  0  0  0  0  0  0  0
   23.5199   -8.3758  -14.5609 C   0  0  0  0  0  0  0  0  0  0  0  0
   24.1646   -7.6881  -15.5601 C   0  0  0  0  0  0  0  0  0  0  0  0
   25.3266   -8.1191  -16.1562 C   0  0  0  0  0  0  0  0  0  0  0  0
   25.8920   -9.3205  -15.7319 C   0  0  0  0  0  0  0  0  0  0  0  0
   25.2686  -10.0321  -14.7327 C   0  0  0  0  0  0  0  0  0  0  0  0
   24.1038   -9.5683  -14.1576 C   0  0  0  0  0  0  0  0  0  0  0  0
   22.6195   -5.6084  -14.7415 C   0  0  0  0  0  0  0  0  0  0  0  0
   22.9654   -5.0292  -13.5113 O   0  0  0  0  0  0  0  0  0  0  0  0
   23.1268   -5.0622  -15.7448 O   0  0  0  0  0  0  0  0  0  0  0  0
  2  3  1  0
  2  1  1  0
  4  3  1  0
  5  4  1  0
  5  7  1  0
  5  6  1  6
  7 11  1  0
  7  8  2  0
 10  9  1  1
 10 12  1  0
 11 10  1  0
 12 14  1  0
 12 13  2  0
 14 15  1  0
 15 23  1  0
 15 16  1  6
 17 22  2  0
 17 16  1  0
 18 17  1  0
 19 20  1  0
 19 18  2  0
 20 21  2  0
 21 22  1  0
 23 24  1  0
 25 23  2  0
M  END
$$$$
