RVA.pdb
     RDKit          3D

 24 23  0  0  1  0  0  0  0  0999 V2000
   25.9586  -24.9884  -15.5695 N   0  0  0  0  0  0  0  0  0  0  0  0
   25.8259  -23.5593  -15.6609 C   0  0  0  0  0  0  0  0  0  0  0  0
   26.7558  -22.8829  -16.2271 N   0  0  0  0  0  0  0  0  0  0  0  0
   24.6914  -22.9232  -15.1363 N   0  0  0  0  0  0  0  0  0  0  0  0
   23.6209  -23.6492  -14.4673 C   0  0  0  0  0  0  0  0  0  0  0  0
   22.8313  -24.4927  -15.4032 C   0  0  0  0  0  0  0  0  0  0  0  0
   21.4051  -24.7562  -15.0410 C   0  0  0  0  0  0  0  0  0  0  0  0
   21.2598  -25.9819  -14.2294 C   0  0  2  0  0  0  0  0  0  0  0  0
   21.4872  -27.1567  -15.0304 N   0  0  0  0  0  0  0  0  0  0  0  0
   19.9091  -26.1095  -13.5967 C   0  0  0  0  0  0  0  0  0  0  0  0
   18.9861  -26.7096  -14.2002 O   0  0  0  0  0  0  0  0  0  0  0  0
   26.8443  -21.8718  -16.3021 C   0  0  0  0  0  0  0  0  0  0  0  0
   17.1952  -26.1848   -9.4543 C   0  0  1  0  0  0  0  0  0  0  0  0
   18.4114  -26.2908  -10.3345 C   0  0  0  0  0  0  0  0  0  0  0  0
   19.0597  -27.6313  -10.3664 C   0  0  1  0  0  0  0  0  0  0  0  0
   18.3231  -25.6331  -11.6465 N   0  0  0  0  0  0  0  0  0  0  0  0
   19.6237  -25.5715  -12.3214 C   0  0  0  0  0  0  0  0  0  0  0  0
   17.5882  -24.3769  -11.7741 O   0  0  0  0  0  0  0  0  0  0  0  0
   18.0953  -23.3495  -11.1920 C   0  0  0  0  0  0  0  0  0  0  0  0
   15.0687  -22.6286  -13.8620 C   0  0  2  0  0  0  0  0  0  0  0  0
   15.7665  -22.8249  -12.5350 N   0  0  0  0  0  0  0  0  0  0  0  0
   16.3921  -24.1374  -12.4536 C   0  0  0  0  0  0  0  0  0  0  0  0
   14.7648  -22.7238  -11.4540 O   0  0  0  0  0  0  0  0  0  0  0  0
   14.2900  -21.5152  -10.9607 O   0  0  0  0  0  0  0  0  0  0  0  0
  1  2  1  0
  2  3  2  0
  4  5  1  0
  4  2  1  0
  6  7  1  0
  6  5  1  0
  8  9  1  6
  8  7  1  0
 10  8  1  0
 10 16  1  0
 11 10  2  0
 13 12  1  1
 13 15  1  0
 14 13  1  0
 15 16  1  1
 15 17  1  0
 17 21  1  0
 18 17  2  0
 20 22  1  0
 20 19  1  6
 21 20  1  0
 22 23  1  0
 24 22  2  0
M  END
$$$$
