RVA.pdb
     RDKit          3D

 24 23  0  0  1  0  0  0  0  0999 V2000
   16.4131  -22.6489  -15.4530 N   0  0  0  0  0  0  0  0  0  0  0  0
   17.1271  -23.5931  -14.6364 C   0  0  0  0  0  0  0  0  0  0  0  0
   17.1260  -24.8306  -14.9704 N   0  0  0  0  0  0  0  0  0  0  0  0
   17.8130  -23.1574  -13.4934 N   0  0  0  0  0  0  0  0  0  0  0  0
   18.7573  -22.0490  -13.5171 C   0  0  0  0  0  0  0  0  0  0  0  0
   19.7456  -22.1644  -14.6221 C   0  0  0  0  0  0  0  0  0  0  0  0
   20.8113  -21.1185  -14.6917 C   0  0  0  0  0  0  0  0  0  0  0  0
   21.9994  -21.4879  -13.8954 C   0  0  2  0  0  0  0  0  0  0  0  0
   21.7655  -21.2640  -12.4923 N   0  0  0  0  0  0  0  0  0  0  0  0
   23.2271  -20.7255  -14.2857 C   0  0  0  0  0  0  0  0  0  0  0  0
   23.3868  -19.5449  -13.8893 O   0  0  0  0  0  0  0  0  0  0  0  0
   17.5936  -25.6087  -14.5103 C   0  0  0  0  0  0  0  0  0  0  0  0
   26.6572  -21.3654  -13.2773 C   0  0  2  0  0  0  0  0  0  0  0  0
   26.6500  -21.3507  -14.7823 C   0  0  0  0  0  0  0  0  0  0  0  0
   27.0251  -22.6366  -15.4336 C   0  0  2  0  0  0  0  0  0  0  0  0
   25.5195  -20.6600  -15.4198 N   0  0  0  0  0  0  0  0  0  0  0  0
   24.2352  -21.2911  -15.0987 C   0  0  0  0  0  0  0  0  0  0  0  0
   25.6033  -20.2935  -16.8316 O   0  0  0  0  0  0  0  0  0  0  0  0
   25.1554  -21.1503  -17.6782 C   0  0  0  0  0  0  0  0  0  0  0  0
   26.5856  -17.4909  -19.1633 C   0  0  2  0  0  0  0  0  0  0  0  0
   26.3032  -18.9375  -18.8260 N   0  0  0  0  0  0  0  0  0  0  0  0
   26.1109  -19.1207  -17.3941 C   0  0  0  0  0  0  0  0  0  0  0  0
   27.4600  -19.7556  -19.2442 O   0  0  0  0  0  0  0  0  0  0  0  0
   27.6177  -20.2582  -20.5294 O   0  0  0  0  0  0  0  0  0  0  0  0
  1  2  1  0
  2  3  2  0
  4  5  1  0
  4  2  1  0
  6  7  1  0
  6  5  1  0
  8  9  1  1
  8  7  1  0
 10  8  1  0
 10 16  1  0
 11 10  2  0
 13 12  1  6
 13 15  1  0
 14 13  1  0
 15 16  1  6
 15 17  1  0
 17 21  1  0
 18 17  2  0
 20 22  1  0
 20 19  1  6
 21 20  1  0
 22 23  1  0
 24 22  2  0
M  END
$$$$
