RVA.pdb
     RDKit          3D

 24 23  0  0  1  0  0  0  0  0999 V2000
   27.0321  -19.5160  -19.4336 N   0  0  0  0  0  0  0  0  0  0  0  0
   28.0951  -18.5633  -19.6092 C   0  0  0  0  0  0  0  0  0  0  0  0
   28.0954  -17.8161  -20.6507 N   0  0  0  0  0  0  0  0  0  0  0  0
   29.1121  -18.4591  -18.6492 N   0  0  0  0  0  0  0  0  0  0  0  0
   29.0513  -19.1368  -17.3617 C   0  0  0  0  0  0  0  0  0  0  0  0
   28.1617  -18.4434  -16.3928 C   0  0  0  0  0  0  0  0  0  0  0  0
   26.9969  -19.2182  -15.8660 C   0  0  0  0  0  0  0  0  0  0  0  0
   27.4262  -20.3805  -15.0616 C   0  0  2  0  0  0  0  0  0  0  0  0
   28.0059  -21.3976  -15.9000 N   0  0  0  0  0  0  0  0  0  0  0  0
   26.3065  -21.0037  -14.2878 C   0  0  0  0  0  0  0  0  0  0  0  0
   25.6082  -21.9075  -14.8092 O   0  0  0  0  0  0  0  0  0  0  0  0
   28.7991  -17.1415  -20.9430 C   0  0  0  0  0  0  0  0  0  0  0  0
   26.4770  -21.7019  -10.3285 C   0  0  2  0  0  0  0  0  0  0  0  0
   25.1543  -21.1112  -10.7366 C   0  0  0  0  0  0  0  0  0  0  0  0
   24.7717  -19.8571  -10.0300 C   0  0  2  0  0  0  0  0  0  0  0  0
   24.8632  -21.1033  -12.1777 N   0  0  0  0  0  0  0  0  0  0  0  0
   25.9962  -20.6089  -12.9667 C   0  0  0  0  0  0  0  0  0  0  0  0
   23.5945  -20.5565  -12.6528 O   0  0  0  0  0  0  0  0  0  0  0  0
   23.5642  -19.2949  -12.8961 C   0  0  0  0  0  0  0  0  0  0  0  0
   20.6317  -21.0738  -14.5819 C   0  0  2  0  0  0  0  0  0  0  0  0
   21.1584  -20.5556  -13.2627 N   0  0  0  0  0  0  0  0  0  0  0  0
   22.3925  -21.2289  -12.8828 C   0  0  0  0  0  0  0  0  0  0  0  0
   20.1498  -20.8160  -12.2152 O   0  0  0  0  0  0  0  0  0  0  0  0
   20.3581  -21.6835  -11.1506 O   0  0  0  0  0  0  0  0  0  0  0  0
  1  2  1  0
  2  3  2  0
  4  5  1  0
  4  2  1  0
  6  7  1  0
  6  5  1  0
  8  9  1  6
  8  7  1  0
 10  8  1  0
 10 16  1  0
 11 10  2  0
 13 12  1  1
 13 15  1  0
 14 13  1  0
 15 16  1  6
 15 17  1  0
 17 21  1  0
 18 17  2  0
 20 22  1  0
 20 19  1  6
 21 20  1  0
 22 23  1  0
 24 22  2  0
M  END
$$$$
