RVA.pdb
     RDKit          3D

 24 23  0  0  1  0  0  0  0  0999 V2000
   28.7997  -20.4396  -20.3716 N   0  0  0  0  0  0  0  0  0  0  0  0
   29.7753  -19.6010  -19.7289 C   0  0  0  0  0  0  0  0  0  0  0  0
   30.3575  -18.6868  -20.4131 N   0  0  0  0  0  0  0  0  0  0  0  0
   30.0785  -19.7870  -18.3723 N   0  0  0  0  0  0  0  0  0  0  0  0
   29.0860  -20.2128  -17.3954 C   0  0  0  0  0  0  0  0  0  0  0  0
   27.9316  -19.2795  -17.3102 C   0  0  0  0  0  0  0  0  0  0  0  0
   26.8967  -19.5727  -16.2721 C   0  0  0  0  0  0  0  0  0  0  0  0
   27.3787  -20.5484  -15.2731 C   0  0  2  0  0  0  0  0  0  0  0  0
   28.0644  -21.6408  -15.9135 N   0  0  0  0  0  0  0  0  0  0  0  0
   26.2786  -21.1220  -14.4355 C   0  0  0  0  0  0  0  0  0  0  0  0
   25.5915  -22.0791  -14.8693 O   0  0  0  0  0  0  0  0  0  0  0  0
   31.0887  -18.0446  -20.1149 C   0  0  0  0  0  0  0  0  0  0  0  0
   26.6369  -21.7674  -10.5526 C   0  0  2  0  0  0  0  0  0  0  0  0
   25.3098  -21.1284  -10.8616 C   0  0  0  0  0  0  0  0  0  0  0  0
   25.0317  -19.8562  -10.1387 C   0  0  2  0  0  0  0  0  0  0  0  0
   24.9073  -21.1180  -12.2757 N   0  0  0  0  0  0  0  0  0  0  0  0
   25.9750  -20.6208  -13.1495 C   0  0  0  0  0  0  0  0  0  0  0  0
   23.6049  -20.5717  -12.6494 O   0  0  0  0  0  0  0  0  0  0  0  0
   23.6101  -19.5028  -13.3629 C   0  0  0  0  0  0  0  0  0  0  0  0
   20.8700  -20.6679  -14.2579 C   0  0  2  0  0  0  0  0  0  0  0  0
   21.1010  -20.4344  -12.7819 N   0  0  0  0  0  0  0  0  0  0  0  0
   22.3362  -21.0612  -12.3325 C   0  0  0  0  0  0  0  0  0  0  0  0
   19.9800  -21.0312  -12.0272 O   0  0  0  0  0  0  0  0  0  0  0  0
   18.6731  -20.5671  -12.1028 O   0  0  0  0  0  0  0  0  0  0  0  0
  1  2  1  0
  2  3  2  0
  4  5  1  0
  4  2  1  0
  6  7  1  0
  6  5  1  0
  8  9  1  6
  8  7  1  0
 10  8  1  0
 10 16  1  0
 11 10  2  0
 13 12  1  1
 13 15  1  0
 14 13  1  0
 15 16  1  6
 15 17  1  0
 17 21  1  0
 18 17  2  0
 20 22  1  0
 20 19  1  6
 21 20  1  0
 22 23  1  0
 24 22  2  0
M  END
$$$$
