RVA.pdb
     RDKit          3D

 24 23  0  0  1  0  0  0  0  0999 V2000
   17.8588  -24.8523  -12.2583 N   0  0  0  0  0  0  0  0  0  0  0  0
   18.2470  -24.2058  -11.0338 C   0  0  0  0  0  0  0  0  0  0  0  0
   17.5005  -24.3322   -9.9995 N   0  0  0  0  0  0  0  0  0  0  0  0
   19.4275  -23.4506  -10.9805 N   0  0  0  0  0  0  0  0  0  0  0  0
   19.5231  -22.1896  -10.2584 C   0  0  0  0  0  0  0  0  0  0  0  0
   19.7582  -21.0313  -11.1606 C   0  0  0  0  0  0  0  0  0  0  0  0
   21.1047  -20.3849  -11.0986 C   0  0  0  0  0  0  0  0  0  0  0  0
   21.8696  -20.5834  -12.3467 C   0  0  2  0  0  0  0  0  0  0  0  0
   22.0347  -21.9858  -12.6287 N   0  0  0  0  0  0  0  0  0  0  0  0
   23.2290  -19.9579  -12.3070 C   0  0  0  0  0  0  0  0  0  0  0  0
   23.3731  -18.7944  -11.8579 O   0  0  0  0  0  0  0  0  0  0  0  0
   17.6054  -23.8918   -9.0880 C   0  0  0  0  0  0  0  0  0  0  0  0
   26.1018  -22.0617  -11.2685 C   0  0  2  0  0  0  0  0  0  0  0  0
   26.6828  -20.8841  -12.0038 C   0  0  0  0  0  0  0  0  0  0  0  0
   27.9845  -21.1361  -12.6824 C   0  0  2  0  0  0  0  0  0  0  0  0
   25.7379  -20.0804  -12.7930 N   0  0  0  0  0  0  0  0  0  0  0  0
   24.3814  -20.6369  -12.7635 C   0  0  0  0  0  0  0  0  0  0  0  0
   26.1124  -19.6409  -14.1350 O   0  0  0  0  0  0  0  0  0  0  0  0
   26.1989  -20.5514  -15.0378 C   0  0  0  0  0  0  0  0  0  0  0  0
   28.0698  -18.8892  -16.2806 C   0  0  1  0  0  0  0  0  0  0  0  0
   26.8695  -18.0438  -15.9189 N   0  0  0  0  0  0  0  0  0  0  0  0
   26.3925  -18.3463  -14.5766 C   0  0  0  0  0  0  0  0  0  0  0  0
   25.7797  -18.3367  -16.8723 O   0  0  0  0  0  0  0  0  0  0  0  0
   24.5312  -18.8077  -16.4868 O   0  0  0  0  0  0  0  0  0  0  0  0
  1  2  1  0
  2  3  2  0
  4  5  1  0
  4  2  1  0
  6  7  1  0
  6  5  1  0
  8  9  1  1
  8  7  1  0
 10  8  1  0
 10 16  1  0
 11 10  2  0
 13 12  1  1
 13 15  1  0
 14 13  1  0
 15 16  1  1
 15 17  1  0
 17 21  1  0
 18 17  2  0
 20 22  1  0
 20 19  1  1
 21 20  1  0
 22 23  1  0
 24 22  2  0
M  END
$$$$
