RVA.pdb
     RDKit          3D

 24 23  0  0  1  0  0  0  0  0999 V2000
   28.0854  -28.4509  -18.0738 N   0  0  0  0  0  0  0  0  0  0  0  0
   28.0622  -27.7337  -16.8275 C   0  0  0  0  0  0  0  0  0  0  0  0
   28.8420  -28.1058  -15.8808 N   0  0  0  0  0  0  0  0  0  0  0  0
   27.1964  -26.6434  -16.6593 N   0  0  0  0  0  0  0  0  0  0  0  0
   26.2604  -26.2155  -17.6896 C   0  0  0  0  0  0  0  0  0  0  0  0
   26.1932  -24.7360  -17.8212 C   0  0  0  0  0  0  0  0  0  0  0  0
   27.2371  -23.9424  -17.1034 C   0  0  0  0  0  0  0  0  0  0  0  0
   26.9750  -22.4906  -17.1788 C   0  0  2  0  0  0  0  0  0  0  0  0
   27.6461  -21.9071  -18.3113 N   0  0  0  0  0  0  0  0  0  0  0  0
   27.4120  -21.7515  -15.9526 C   0  0  0  0  0  0  0  0  0  0  0  0
   28.4762  -21.0854  -15.9656 O   0  0  0  0  0  0  0  0  0  0  0  0
   28.8879  -27.7550  -14.9265 C   0  0  0  0  0  0  0  0  0  0  0  0
   28.1311  -19.1629  -15.0201 C   0  0  2  0  0  0  0  0  0  0  0  0
   26.9444  -19.4337  -14.1350 C   0  0  0  0  0  0  0  0  0  0  0  0
   25.6691  -18.7971  -14.5670 C   0  0  2  0  0  0  0  0  0  0  0  0
   26.7950  -20.8147  -13.6532 N   0  0  0  0  0  0  0  0  0  0  0  0
   26.6607  -21.7723  -14.7558 C   0  0  0  0  0  0  0  0  0  0  0  0
   25.8567  -21.1020  -12.5708 O   0  0  0  0  0  0  0  0  0  0  0  0
   24.7795  -21.7257  -12.8906 C   0  0  0  0  0  0  0  0  0  0  0  0
   25.3851  -20.7093   -8.8367 C   0  0  2  0  0  0  0  0  0  0  0  0
   24.9391  -21.0792  -10.2334 N   0  0  0  0  0  0  0  0  0  0  0  0
   25.9737  -20.7869  -11.2156 C   0  0  0  0  0  0  0  0  0  0  0  0
   23.7419  -20.2837  -10.5741 O   0  0  0  0  0  0  0  0  0  0  0  0
   22.4591  -20.6135  -10.1559 O   0  0  0  0  0  0  0  0  0  0  0  0
  1  2  1  0
  2  3  2  0
  4  5  1  0
  4  2  1  0
  6  7  1  0
  6  5  1  0
  8  9  1  6
  8  7  1  0
 10  8  1  0
 10 16  1  0
 11 10  2  0
 13 12  1  1
 13 15  1  0
 14 13  1  0
 15 16  1  1
 15 17  1  0
 17 21  1  0
 18 17  2  0
 20 22  1  0
 20 19  1  1
 21 20  1  0
 22 23  1  0
 24 22  2  0
M  END
$$$$
