RVA.pdb
     RDKit          3D

 24 23  0  0  1  0  0  0  0  0999 V2000
   20.9200  -22.3609   -8.4416 N   0  0  0  0  0  0  0  0  0  0  0  0
   20.2799  -22.3552   -9.7294 C   0  0  0  0  0  0  0  0  0  0  0  0
   19.1758  -22.9890   -9.8784 N   0  0  0  0  0  0  0  0  0  0  0  0
   20.8618  -21.6627  -10.8011 N   0  0  0  0  0  0  0  0  0  0  0  0
   22.2874  -21.3736  -10.8701 C   0  0  0  0  0  0  0  0  0  0  0  0
   22.7046  -20.3241   -9.9029 C   0  0  0  0  0  0  0  0  0  0  0  0
   24.1099  -19.8252  -10.0067 C   0  0  0  0  0  0  0  0  0  0  0  0
   24.9945  -20.8033  -10.6721 C   0  0  2  0  0  0  0  0  0  0  0  0
   25.8322  -21.4730   -9.7113 N   0  0  0  0  0  0  0  0  0  0  0  0
   25.8827  -20.1829  -11.7051 C   0  0  0  0  0  0  0  0  0  0  0  0
   26.7891  -19.3862  -11.3587 O   0  0  0  0  0  0  0  0  0  0  0  0
   18.6273  -23.1100  -10.7271 C   0  0  0  0  0  0  0  0  0  0  0  0
   26.3393  -22.1644  -15.3195 C   0  0  2  0  0  0  0  0  0  0  0  0
   27.2332  -21.0191  -14.9263 C   0  0  0  0  0  0  0  0  0  0  0  0
   28.1617  -20.5421  -15.9886 C   0  0  1  0  0  0  0  0  0  0  0  0
   26.6045  -19.9420  -14.1477 N   0  0  0  0  0  0  0  0  0  0  0  0
   25.7406  -20.4626  -13.0831 C   0  0  0  0  0  0  0  0  0  0  0  0
   25.9849  -18.8173  -14.8446 O   0  0  0  0  0  0  0  0  0  0  0  0
   24.7666  -18.9726  -15.2228 C   0  0  0  0  0  0  0  0  0  0  0  0
   26.5541  -15.2085  -15.7907 C   0  0  2  0  0  0  0  0  0  0  0  0
   25.8242  -16.5304  -15.8695 N   0  0  0  0  0  0  0  0  0  0  0  0
   26.5451  -17.5777  -15.1595 C   0  0  0  0  0  0  0  0  0  0  0  0
   25.7146  -16.9266  -17.2884 O   0  0  0  0  0  0  0  0  0  0  0  0
   24.6148  -16.6303  -18.0833 O   0  0  0  0  0  0  0  0  0  0  0  0
  1  2  1  0
  2  3  2  0
  4  5  1  0
  4  2  1  0
  6  7  1  0
  6  5  1  0
  8  9  1  1
  8  7  1  0
 10  8  1  0
 10 16  1  0
 11 10  2  0
 13 12  1  1
 13 15  1  0
 14 13  1  0
 15 16  1  1
 15 17  1  0
 17 21  1  0
 18 17  2  0
 20 22  1  0
 20 19  1  1
 21 20  1  0
 22 23  1  0
 24 22  2  0
M  END
$$$$
