RVA.pdb
     RDKit          3D

 24 23  0  0  1  0  0  0  0  0999 V2000
   25.1645  -21.8823  -10.5466 N   0  0  0  0  0  0  0  0  0  0  0  0
   25.4068  -20.7600   -9.6805 C   0  0  0  0  0  0  0  0  0  0  0  0
   25.2349  -20.8997   -8.4181 N   0  0  0  0  0  0  0  0  0  0  0  0
   25.8259  -19.5343  -10.2179 N   0  0  0  0  0  0  0  0  0  0  0  0
   26.1455  -19.3614  -11.6281 C   0  0  0  0  0  0  0  0  0  0  0  0
   27.2282  -20.2728  -12.0841 C   0  0  0  0  0  0  0  0  0  0  0  0
   27.7824  -20.0375  -13.4524 C   0  0  0  0  0  0  0  0  0  0  0  0
   26.8869  -20.5556  -14.5067 C   0  0  2  0  0  0  0  0  0  0  0  0
   27.4324  -21.7481  -15.1017 N   0  0  0  0  0  0  0  0  0  0  0  0
   26.6370  -19.5665  -15.6021 C   0  0  0  0  0  0  0  0  0  0  0  0
   27.5704  -19.2317  -16.3722 O   0  0  0  0  0  0  0  0  0  0  0  0
   25.3182  -20.1953   -7.6882 C   0  0  0  0  0  0  0  0  0  0  0  0
   23.6712  -19.9458  -17.6841 C   0  0  2  0  0  0  0  0  0  0  0  0
   23.9984  -18.4788  -17.7614 C   0  0  0  0  0  0  0  0  0  0  0  0
   22.8242  -17.5694  -17.8747 C   0  0  2  0  0  0  0  0  0  0  0  0
   25.0467  -17.9979  -16.8495 N   0  0  0  0  0  0  0  0  0  0  0  0
   25.3674  -18.9815  -15.8101 C   0  0  0  0  0  0  0  0  0  0  0  0
   24.9622  -16.6448  -16.3053 O   0  0  0  0  0  0  0  0  0  0  0  0
   24.1091  -16.4532  -15.3635 C   0  0  0  0  0  0  0  0  0  0  0  0
   26.5962  -13.2462  -16.4453 C   0  0  2  0  0  0  0  0  0  0  0  0
   25.4658  -14.1924  -16.1086 N   0  0  0  0  0  0  0  0  0  0  0  0
   25.6944  -15.5146  -16.6746 C   0  0  0  0  0  0  0  0  0  0  0  0
   24.2136  -13.6563  -16.6803 O   0  0  0  0  0  0  0  0  0  0  0  0
   23.4202  -12.7147  -16.0377 O   0  0  0  0  0  0  0  0  0  0  0  0
  1  2  1  0
  2  3  2  0
  4  5  1  0
  4  2  1  0
  6  7  1  0
  6  5  1  0
  8  9  1  6
  8  7  1  0
 10  8  1  0
 10 16  1  0
 11 10  2  0
 13 12  1  6
 13 15  1  0
 14 13  1  0
 15 16  1  6
 15 17  1  0
 17 21  1  0
 18 17  2  0
 20 22  1  0
 20 19  1  1
 21 20  1  0
 22 23  1  0
 24 22  2  0
M  END
$$$$
