RVA.pdb
     RDKit          3D

 24 23  0  0  1  0  0  0  0  0999 V2000
   18.5750  -24.6911   -9.1789 N   0  0  0  0  0  0  0  0  0  0  0  0
   18.6851  -23.6407   -8.2028 C   0  0  0  0  0  0  0  0  0  0  0  0
   18.7815  -23.9510   -6.9629 N   0  0  0  0  0  0  0  0  0  0  0  0
   18.6874  -22.2989   -8.6105 N   0  0  0  0  0  0  0  0  0  0  0  0
   18.5561  -21.8998  -10.0049 C   0  0  0  0  0  0  0  0  0  0  0  0
   19.5763  -22.5365  -10.8795 C   0  0  0  0  0  0  0  0  0  0  0  0
   20.4763  -21.6237  -11.6484 C   0  0  0  0  0  0  0  0  0  0  0  0
   21.8779  -21.7179  -11.1917 C   0  0  2  0  0  0  0  0  0  0  0  0
   21.9973  -21.3075   -9.8166 N   0  0  0  0  0  0  0  0  0  0  0  0
   22.8171  -20.8831  -12.0053 C   0  0  0  0  0  0  0  0  0  0  0  0
   22.8038  -19.6325  -11.8948 O   0  0  0  0  0  0  0  0  0  0  0  0
   18.8453  -23.3289   -6.1599 C   0  0  0  0  0  0  0  0  0  0  0  0
   26.1209  -22.7805  -14.0580 C   0  0  1  0  0  0  0  0  0  0  0  0
   26.0476  -21.3268  -13.6750 C   0  0  0  0  0  0  0  0  0  0  0  0
   27.1324  -20.4676  -14.2255 C   0  0  1  0  0  0  0  0  0  0  0  0
   24.7130  -20.7112  -13.7145 N   0  0  0  0  0  0  0  0  0  0  0  0
   23.7378  -21.4561  -12.9116 C   0  0  0  0  0  0  0  0  0  0  0  0
   24.1507  -20.2932  -14.9966 O   0  0  0  0  0  0  0  0  0  0  0  0
   24.8684  -19.5026  -15.7117 C   0  0  0  0  0  0  0  0  0  0  0  0
   21.8152  -21.2386  -17.6643 C   0  0  2  0  0  0  0  0  0  0  0  0
   22.4588  -20.1419  -16.8461 N   0  0  0  0  0  0  0  0  0  0  0  0
   22.9213  -20.6421  -15.5590 C   0  0  0  0  0  0  0  0  0  0  0  0
   21.4557  -19.0864  -16.5971 O   0  0  0  0  0  0  0  0  0  0  0  0
   20.9158  -18.2914  -17.5999 O   0  0  0  0  0  0  0  0  0  0  0  0
  1  2  1  0
  2  3  2  0
  4  5  1  0
  4  2  1  0
  6  7  1  0
  6  5  1  0
  8  9  1  1
  8  7  1  0
 10  8  1  0
 10 16  1  0
 11 10  2  0
 13 12  1  1
 13 15  1  0
 14 13  1  0
 15 16  1  1
 15 17  1  0
 17 21  1  0
 18 17  2  0
 20 22  1  0
 20 19  1  6
 21 20  1  0
 22 23  1  0
 24 22  2  0
M  END
$$$$
