RVA.pdb
     RDKit          3D

 24 23  0  0  1  0  0  0  0  0999 V2000
   18.9055  -23.8783   -8.4347 N   0  0  0  0  0  0  0  0  0  0  0  0
   18.2242  -24.5622   -9.5007 C   0  0  0  0  0  0  0  0  0  0  0  0
   17.0842  -25.0995   -9.2669 N   0  0  0  0  0  0  0  0  0  0  0  0
   18.8054  -24.6344  -10.7749 N   0  0  0  0  0  0  0  0  0  0  0  0
   19.8222  -23.6967  -11.2303 C   0  0  0  0  0  0  0  0  0  0  0  0
   19.2393  -22.4980  -11.8894 C   0  0  0  0  0  0  0  0  0  0  0  0
   20.1955  -21.5385  -12.5217 C   0  0  0  0  0  0  0  0  0  0  0  0
   21.0506  -20.8709  -11.5192 C   0  0  2  0  0  0  0  0  0  0  0  0
   20.3489  -19.7813  -10.8915 N   0  0  0  0  0  0  0  0  0  0  0  0
   22.3199  -20.3289  -12.0989 C   0  0  0  0  0  0  0  0  0  0  0  0
   22.4188  -19.1055  -12.3629 O   0  0  0  0  0  0  0  0  0  0  0  0
   16.4950  -25.6318   -9.9036 C   0  0  0  0  0  0  0  0  0  0  0  0
   27.2180  -21.1643  -12.7550 C   0  0  1  0  0  0  0  0  0  0  0  0
   25.8545  -21.3288  -12.1393 C   0  0  0  0  0  0  0  0  0  0  0  0
   25.8016  -21.1762  -10.6587 C   0  0  1  0  0  0  0  0  0  0  0  0
   24.7388  -20.6883  -12.8510 N   0  0  0  0  0  0  0  0  0  0  0  0
   23.4353  -21.1544  -12.3668 C   0  0  0  0  0  0  0  0  0  0  0  0
   24.7725  -20.5969  -14.3087 O   0  0  0  0  0  0  0  0  0  0  0  0
   24.4948  -21.6687  -14.9611 C   0  0  0  0  0  0  0  0  0  0  0  0
   25.1412  -18.1169  -17.1337 C   0  0  2  0  0  0  0  0  0  0  0  0
   25.0430  -19.5112  -16.5569 N   0  0  0  0  0  0  0  0  0  0  0  0
   25.0690  -19.4861  -15.1011 C   0  0  0  0  0  0  0  0  0  0  0  0
   26.2011  -20.2997  -17.0252 O   0  0  0  0  0  0  0  0  0  0  0  0
   26.1882  -21.0645  -18.1846 O   0  0  0  0  0  0  0  0  0  0  0  0
  1  2  1  0
  2  3  2  0
  4  5  1  0
  4  2  1  0
  6  7  1  0
  6  5  1  0
  8  9  1  6
  8  7  1  0
 10  8  1  0
 10 16  1  0
 11 10  2  0
 13 12  1  1
 13 15  1  0
 14 13  1  0
 15 16  1  6
 15 17  1  0
 17 21  1  0
 18 17  2  0
 20 22  1  0
 20 19  1  1
 21 20  1  0
 22 23  1  0
 24 22  2  0
M  END
$$$$
