RVA.pdb
     RDKit          3D

 24 23  0  0  1  0  0  0  0  0999 V2000
   32.1131  -23.2059  -11.4056 N   0  0  0  0  0  0  0  0  0  0  0  0
   32.0342  -22.3533  -10.2501 C   0  0  0  0  0  0  0  0  0  0  0  0
   32.6597  -22.6910   -9.1836 N   0  0  0  0  0  0  0  0  0  0  0  0
   31.2823  -21.1705  -10.2987 N   0  0  0  0  0  0  0  0  0  0  0  0
   30.1657  -20.9849  -11.2150 C   0  0  0  0  0  0  0  0  0  0  0  0
   28.9021  -20.6377  -10.5123 C   0  0  0  0  0  0  0  0  0  0  0  0
   27.7422  -20.2302  -11.3628 C   0  0  0  0  0  0  0  0  0  0  0  0
   26.6090  -21.1693  -11.2364 C   0  0  2  0  0  0  0  0  0  0  0  0
   27.0535  -22.5311  -11.3821 N   0  0  0  0  0  0  0  0  0  0  0  0
   25.5304  -20.9258  -12.2455 C   0  0  0  0  0  0  0  0  0  0  0  0
   25.4600  -19.8204  -12.8366 O   0  0  0  0  0  0  0  0  0  0  0  0
   32.7197  -22.1876   -8.3011 C   0  0  0  0  0  0  0  0  0  0  0  0
   24.9013  -23.0399  -15.4083 C   0  0  2  0  0  0  0  0  0  0  0  0
   23.6522  -22.9432  -14.5744 C   0  0  0  0  0  0  0  0  0  0  0  0
   23.1657  -24.2304  -14.0043 C   0  0  2  0  0  0  0  0  0  0  0  0
   23.5780  -21.8066  -13.6447 N   0  0  0  0  0  0  0  0  0  0  0  0
   24.5679  -21.9093  -12.5676 C   0  0  0  0  0  0  0  0  0  0  0  0
   22.2769  -21.3707  -13.1430 O   0  0  0  0  0  0  0  0  0  0  0  0
   21.9433  -21.7796  -11.9712 C   0  0  0  0  0  0  0  0  0  0  0  0
   19.8703  -18.9105  -12.6959 C   0  0  2  0  0  0  0  0  0  0  0  0
   20.0000  -20.3159  -13.2387 N   0  0  0  0  0  0  0  0  0  0  0  0
   21.3330  -20.5573  -13.7731 C   0  0  0  0  0  0  0  0  0  0  0  0
   19.0251  -20.4918  -14.3346 O   0  0  0  0  0  0  0  0  0  0  0  0
   17.6530  -20.5705  -14.1334 O   0  0  0  0  0  0  0  0  0  0  0  0
  1  2  1  0
  2  3  2  0
  4  5  1  0
  4  2  1  0
  6  7  1  0
  6  5  1  0
  8  9  1  6
  8  7  1  0
 10  8  1  0
 10 16  1  0
 11 10  2  0
 13 12  1  6
 13 15  1  0
 14 13  1  0
 15 16  1  6
 15 17  1  0
 17 21  1  0
 18 17  2  0
 20 22  1  0
 20 19  1  1
 21 20  1  0
 22 23  1  0
 24 22  2  0
M  END
$$$$
