RVA.pdb
     RDKit          3D

 24 23  0  0  1  0  0  0  0  0999 V2000
   29.1701  -24.0523  -16.4191 N   0  0  0  0  0  0  0  0  0  0  0  0
   27.7662  -23.9225  -16.7024 C   0  0  0  0  0  0  0  0  0  0  0  0
   27.1426  -24.9129  -17.2249 N   0  0  0  0  0  0  0  0  0  0  0  0
   27.0966  -22.7262  -16.4070 N   0  0  0  0  0  0  0  0  0  0  0  0
   27.7472  -21.6022  -15.7482 C   0  0  0  0  0  0  0  0  0  0  0  0
   26.8153  -20.4715  -15.4950 C   0  0  0  0  0  0  0  0  0  0  0  0
   25.4026  -20.8197  -15.1519 C   0  0  0  0  0  0  0  0  0  0  0  0
   25.1351  -20.6771  -13.7062 C   0  0  2  0  0  0  0  0  0  0  0  0
   26.0614  -21.4637  -12.9338 N   0  0  0  0  0  0  0  0  0  0  0  0
   23.7482  -21.0900  -13.3230 C   0  0  0  0  0  0  0  0  0  0  0  0
   23.5427  -22.2294  -12.8376 O   0  0  0  0  0  0  0  0  0  0  0  0
   26.1537  -24.9860  -17.4541 C   0  0  0  0  0  0  0  0  0  0  0  0
   21.9869  -19.8566  -10.6037 C   0  0  2  0  0  0  0  0  0  0  0  0
   21.0262  -19.6747  -11.7478 C   0  0  0  0  0  0  0  0  0  0  0  0
   20.6245  -18.2675  -12.0247 C   0  0  2  0  0  0  0  0  0  0  0  0
   21.2929  -20.4731  -12.9533 N   0  0  0  0  0  0  0  0  0  0  0  0
   22.6370  -20.2324  -13.4882 C   0  0  0  0  0  0  0  0  0  0  0  0
   20.2911  -20.5302  -14.0151 O   0  0  0  0  0  0  0  0  0  0  0  0
   20.3887  -19.6528  -14.9490 C   0  0  0  0  0  0  0  0  0  0  0  0
   17.5890  -22.6713  -15.4864 C   0  0  2  0  0  0  0  0  0  0  0  0
   18.2419  -21.3328  -15.2246 N   0  0  0  0  0  0  0  0  0  0  0  0
   19.2265  -21.4227  -14.1555 C   0  0  0  0  0  0  0  0  0  0  0  0
   17.1998  -20.3705  -14.8120 O   0  0  0  0  0  0  0  0  0  0  0  0
   16.3446  -19.7382  -15.7053 O   0  0  0  0  0  0  0  0  0  0  0  0
  1  2  1  0
  2  3  2  0
  4  5  1  0
  4  2  1  0
  6  7  1  0
  6  5  1  0
  8  9  1  1
  8  7  1  0
 10  8  1  0
 10 16  1  0
 11 10  2  0
 13 12  1  1
 13 15  1  0
 14 13  1  0
 15 16  1  6
 15 17  1  0
 17 21  1  0
 18 17  2  0
 20 22  1  0
 20 19  1  6
 21 20  1  0
 22 23  1  0
 24 22  2  0
M  END
$$$$
