GHM.pdb
     RDKit          3D

 23 23  0  0  1  0  0  0  0  0999 V2000
    8.4309  -19.2411   19.5079 N   0  0  0  0  0  0  0  0  0  0  0  0
    7.9251  -18.6077   20.6877 C   0  0  0  0  0  0  0  0  0  0  0  0
    8.5651  -17.2994   20.9620 C   0  0  0  0  0  0  0  0  0  0  0  0
    9.8129  -17.2793   21.1086 O   0  0  0  0  0  0  0  0  0  0  0  0
    7.8381  -16.0781   21.0657 N   0  0  0  0  0  0  0  0  0  0  0  0
    8.5789  -14.8456   21.2739 C   0  0  1  0  0  0  0  0  0  0  0  0
    7.9139  -13.6955   20.5649 C   0  0  0  0  0  0  0  0  0  0  0  0
    7.9769  -13.8567   19.0892 C   0  0  0  0  0  0  0  0  0  0  0  0
    8.7019  -13.0119   18.2731 C   0  0  0  0  0  0  0  0  0  0  0  0
    8.5373  -13.4471   16.9989 N   0  0  0  0  0  0  0  0  0  0  0  0
    7.7411  -14.5212   17.0182 C   0  0  0  0  0  0  0  0  0  0  0  0
    7.3940  -14.7754   18.3099 N   0  0  0  0  0  0  0  0  0  0  0  0
    8.6238  -14.5484   22.7447 C   0  0  0  0  0  0  0  0  0  0  0  0
    9.2676  -13.5755   23.2118 O   0  0  0  0  0  0  0  0  0  0  0  0
    7.5740  -11.4826   27.8682 C   0  0  0  0  0  0  0  0  0  0  0  0
    6.1418  -12.2810   27.0938 S   0  0  0  0  0  0  0  0  0  0  0  0
    6.4843  -14.0303   26.8556 C   0  0  0  0  0  0  0  0  0  0  0  0
    6.6157  -14.3890   25.3946 C   0  0  0  0  0  0  0  0  0  0  0  0
    7.9179  -15.0950   25.0834 C   0  0  2  0  0  0  0  0  0  0  0  0
    7.9268  -15.3748   23.6638 N   0  0  0  0  0  0  0  0  0  0  0  0
    7.8995  -16.3681   25.8640 C   0  0  0  0  0  0  0  0  0  0  0  0
    7.5556  -17.4569   25.3889 O   0  0  0  0  0  0  0  0  0  0  0  0
    8.2879  -16.3300   27.1909 O   0  0  0  0  0  0  0  0  0  0  0  0
  2  1  1  0
  3  2  1  0
  4  3  2  0
  5  3  1  0
  6 13  1  0
  6  5  1  0
  6  7  1  6
  8  7  1  0
  9  8  2  0
 10 11  1  0
 10  9  1  0
 11 12  2  0
 12  8  1  0
 13 20  1  0
 14 13  2  0
 15 16  1  0
 16 17  1  0
 18 17  1  0
 19 18  1  6
 19 21  1  0
 20 19  1  0
 21 22  2  0
 21 23  1  0
M  END
$$$$
