GHM.pdb
     RDKit          3D

 23 23  0  0  1  0  0  0  0  0999 V2000
    4.6994  -18.9688   22.0699 N   0  0  0  0  0  0  0  0  0  0  0  0
    5.2125  -17.7458   22.6084 C   0  0  0  0  0  0  0  0  0  0  0  0
    6.6935  -17.7063   22.6463 C   0  0  0  0  0  0  0  0  0  0  0  0
    7.2860  -18.6208   23.2720 O   0  0  0  0  0  0  0  0  0  0  0  0
    7.4666  -16.6904   22.0128 N   0  0  0  0  0  0  0  0  0  0  0  0
    8.9048  -16.6835   22.2188 C   0  0  1  0  0  0  0  0  0  0  0  0
    9.6178  -16.1666   20.9972 C   0  0  0  0  0  0  0  0  0  0  0  0
    9.3903  -17.0464   19.8218 C   0  0  0  0  0  0  0  0  0  0  0  0
   10.1353  -18.1832   19.5810 C   0  0  0  0  0  0  0  0  0  0  0  0
    9.6629  -18.7366   18.4361 N   0  0  0  0  0  0  0  0  0  0  0  0
    8.6625  -17.9758   17.9798 C   0  0  0  0  0  0  0  0  0  0  0  0
    8.4931  -16.9305   18.8356 N   0  0  0  0  0  0  0  0  0  0  0  0
    9.2247  -15.7899   23.3819 C   0  0  0  0  0  0  0  0  0  0  0  0
    9.4190  -14.5560   23.2447 O   0  0  0  0  0  0  0  0  0  0  0  0
    6.3653  -12.4617   25.4491 C   0  0  0  0  0  0  0  0  0  0  0  0
    7.1493  -12.4294   27.0838 S   0  0  0  0  0  0  0  0  0  0  0  0
    8.1220  -13.9244   27.3140 C   0  0  0  0  0  0  0  0  0  0  0  0
    8.1286  -14.7929   26.0786 C   0  0  0  0  0  0  0  0  0  0  0  0
    9.4608  -15.4756   25.8542 C   0  0  2  0  0  0  0  0  0  0  0  0
    9.3178  -16.3262   24.6924 N   0  0  0  0  0  0  0  0  0  0  0  0
    9.7183  -16.2995   27.0730 C   0  0  0  0  0  0  0  0  0  0  0  0
    9.5682  -17.5264   27.1136 O   0  0  0  0  0  0  0  0  0  0  0  0
   10.1482  -15.6577   28.2202 O   0  0  0  0  0  0  0  0  0  0  0  0
  2  1  1  0
  3  2  1  0
  4  3  2  0
  5  3  1  0
  6 13  1  0
  6  5  1  0
  6  7  1  6
  8  7  1  0
  9  8  2  0
 10 11  1  0
 10  9  1  0
 11 12  2  0
 12  8  1  0
 13 20  1  0
 14 13  2  0
 15 16  1  0
 16 17  1  0
 18 17  1  0
 19 18  1  1
 19 21  1  0
 20 19  1  0
 21 22  2  0
 21 23  1  0
M  END
$$$$
