GHM.pdb
     RDKit          3D

 23 23  0  0  1  0  0  0  0  0999 V2000
    7.4390  -12.7389   18.1988 N   0  0  0  0  0  0  0  0  0  0  0  0
    8.4825  -13.5795   18.7023 C   0  0  0  0  0  0  0  0  0  0  0  0
    8.0384  -14.4486   19.8176 C   0  0  0  0  0  0  0  0  0  0  0  0
    6.8640  -14.3021   20.2398 O   0  0  0  0  0  0  0  0  0  0  0  0
    8.8729  -15.4312   20.4252 N   0  0  0  0  0  0  0  0  0  0  0  0
    8.3112  -16.2658   21.4735 C   0  0  1  0  0  0  0  0  0  0  0  0
    8.8629  -17.6649   21.3966 C   0  0  0  0  0  0  0  0  0  0  0  0
    8.3014  -18.4081   20.2390 C   0  0  0  0  0  0  0  0  0  0  0  0
    7.1984  -19.2317   20.3406 C   0  0  0  0  0  0  0  0  0  0  0  0
    6.9651  -19.7427   19.1059 N   0  0  0  0  0  0  0  0  0  0  0  0
    7.8858  -19.2577   18.2662 C   0  0  0  0  0  0  0  0  0  0  0  0
    8.7125  -18.4324   18.9657 N   0  0  0  0  0  0  0  0  0  0  0  0
    8.6675  -15.6761   22.8072 C   0  0  0  0  0  0  0  0  0  0  0  0
    9.8528  -15.4044   23.1240 O   0  0  0  0  0  0  0  0  0  0  0  0
    7.1864  -10.9688   28.1910 C   0  0  0  0  0  0  0  0  0  0  0  0
    6.9557  -11.8526   26.6246 S   0  0  0  0  0  0  0  0  0  0  0  0
    6.7995  -13.6151   26.9457 C   0  0  0  0  0  0  0  0  0  0  0  0
    6.6299  -14.4109   25.6736 C   0  0  0  0  0  0  0  0  0  0  0  0
    7.9519  -14.7579   25.0234 C   0  0  2  0  0  0  0  0  0  0  0  0
    7.6550  -15.4050   23.7638 N   0  0  0  0  0  0  0  0  0  0  0  0
    8.6350  -15.7105   25.9488 C   0  0  0  0  0  0  0  0  0  0  0  0
    8.5074  -16.9389   25.8825 O   0  0  0  0  0  0  0  0  0  0  0  0
    9.4557  -15.1933   26.9346 O   0  0  0  0  0  0  0  0  0  0  0  0
  2  1  1  0
  3  2  1  0
  4  3  2  0
  5  3  1  0
  6 13  1  0
  6  5  1  0
  6  7  1  1
  8  7  1  0
  9  8  2  0
 10 11  1  0
 10  9  1  0
 11 12  2  0
 12  8  1  0
 13 20  1  0
 14 13  2  0
 15 16  1  0
 16 17  1  0
 18 17  1  0
 19 18  1  1
 19 21  1  0
 20 19  1  0
 21 22  2  0
 21 23  1  0
M  END
$$$$
