GHM.pdb
     RDKit          3D

 23 23  0  0  1  0  0  0  0  0999 V2000
    5.9619  -20.0984   23.6756 N   0  0  0  0  0  0  0  0  0  0  0  0
    5.9950  -18.6874   23.9147 C   0  0  0  0  0  0  0  0  0  0  0  0
    7.3713  -18.1390   23.9536 C   0  0  0  0  0  0  0  0  0  0  0  0
    8.2111  -18.7211   24.6847 O   0  0  0  0  0  0  0  0  0  0  0  0
    7.7801  -16.9951   23.2083 N   0  0  0  0  0  0  0  0  0  0  0  0
    9.1063  -16.4508   23.4451 C   0  0  1  0  0  0  0  0  0  0  0  0
    9.5989  -15.6978   22.2376 C   0  0  0  0  0  0  0  0  0  0  0  0
    9.8310  -16.6080   21.0864 C   0  0  0  0  0  0  0  0  0  0  0  0
   10.4688  -17.8259   21.2104 C   0  0  0  0  0  0  0  0  0  0  0  0
   10.5078  -18.3851   19.9752 N   0  0  0  0  0  0  0  0  0  0  0  0
    9.9177  -17.5499   19.1137 C   0  0  0  0  0  0  0  0  0  0  0  0
    9.4989  -16.4509   19.7995 N   0  0  0  0  0  0  0  0  0  0  0  0
    9.0435  -15.5088   24.6123 C   0  0  0  0  0  0  0  0  0  0  0  0
    8.0061  -14.8570   24.8916 O   0  0  0  0  0  0  0  0  0  0  0  0
    9.8851  -18.5534   30.1674 C   0  0  0  0  0  0  0  0  0  0  0  0
    9.0495  -17.0556   29.5787 S   0  0  0  0  0  0  0  0  0  0  0  0
   10.0011  -16.3226   28.2404 C   0  0  0  0  0  0  0  0  0  0  0  0
    9.3217  -15.1043   27.6620 C   0  0  0  0  0  0  0  0  0  0  0  0
   10.1473  -14.4336   26.5851 C   0  0  2  0  0  0  0  0  0  0  0  0
   10.1765  -15.3264   25.4469 N   0  0  0  0  0  0  0  0  0  0  0  0
   11.5191  -14.2695   27.1523 C   0  0  0  0  0  0  0  0  0  0  0  0
   12.4880  -14.9573   26.8092 O   0  0  0  0  0  0  0  0  0  0  0  0
   11.7196  -13.2957   28.1138 O   0  0  0  0  0  0  0  0  0  0  0  0
  2  1  1  0
  3  2  1  0
  4  3  2  0
  5  3  1  0
  6 13  1  0
  6  5  1  0
  6  7  1  6
  8  7  1  0
  9  8  2  0
 10 11  1  0
 10  9  1  0
 11 12  2  0
 12  8  1  0
 13 20  1  0
 14 13  2  0
 15 16  1  0
 16 17  1  0
 18 17  1  0
 19 18  1  1
 19 21  1  0
 20 19  1  0
 21 22  2  0
 21 23  1  0
M  END
$$$$
