GHM.pdb
     RDKit          3D

 23 23  0  0  1  0  0  0  0  0999 V2000
    2.5644  -19.5378   22.2014 N   0  0  0  0  0  0  0  0  0  0  0  0
    3.0800  -18.2127   22.3667 C   0  0  0  0  0  0  0  0  0  0  0  0
    4.5613  -18.1636   22.3647 C   0  0  0  0  0  0  0  0  0  0  0  0
    5.1679  -18.8098   23.2553 O   0  0  0  0  0  0  0  0  0  0  0  0
    5.3192  -17.4254   21.4100 N   0  0  0  0  0  0  0  0  0  0  0  0
    6.7664  -17.4061   21.5387 C   0  0  1  0  0  0  0  0  0  0  0  0
    7.4220  -17.2842   20.1885 C   0  0  0  0  0  0  0  0  0  0  0  0
    7.1659  -18.4833   19.3493 C   0  0  0  0  0  0  0  0  0  0  0  0
    6.9373  -19.7360   19.8820 C   0  0  0  0  0  0  0  0  0  0  0  0
    6.7440  -20.5845   18.8413 N   0  0  0  0  0  0  0  0  0  0  0  0
    6.8478  -19.8894   17.7037 C   0  0  0  0  0  0  0  0  0  0  0  0
    7.1086  -18.5902   18.0166 N   0  0  0  0  0  0  0  0  0  0  0  0
    7.1636  -16.2274   22.3793 C   0  0  0  0  0  0  0  0  0  0  0  0
    6.9277  -15.0443   22.0275 O   0  0  0  0  0  0  0  0  0  0  0  0
    6.2495  -11.4859   27.7790 C   0  0  0  0  0  0  0  0  0  0  0  0
    5.8211  -12.9465   26.7935 S   0  0  0  0  0  0  0  0  0  0  0  0
    7.3214  -13.6924   26.1400 C   0  0  0  0  0  0  0  0  0  0  0  0
    7.0245  -14.8582   25.2273 C   0  0  0  0  0  0  0  0  0  0  0  0
    8.2392  -15.3087   24.4446 C   0  0  2  0  0  0  0  0  0  0  0  0
    7.8289  -16.4227   23.6174 N   0  0  0  0  0  0  0  0  0  0  0  0
    9.2450  -15.7543   25.4547 C   0  0  0  0  0  0  0  0  0  0  0  0
    9.5058  -16.9415   25.6829 O   0  0  0  0  0  0  0  0  0  0  0  0
    9.9234  -14.7883   26.1756 O   0  0  0  0  0  0  0  0  0  0  0  0
  2  1  1  0
  3  2  1  0
  4  3  2  0
  5  3  1  0
  6 13  1  0
  6  5  1  0
  6  7  1  6
  8  7  1  0
  9  8  2  0
 10 11  1  0
 10  9  1  0
 11 12  2  0
 12  8  1  0
 13 20  1  0
 14 13  2  0
 15 16  1  0
 16 17  1  0
 18 17  1  0
 19 18  1  1
 19 21  1  0
 20 19  1  0
 21 22  2  0
 21 23  1  0
M  END
$$$$
