GHM.pdb
     RDKit          3D

 23 23  0  0  1  0  0  0  0  0999 V2000
   12.5488  -17.7060   19.5167 N   0  0  0  0  0  0  0  0  0  0  0  0
   11.4500  -17.8827   20.4170 C   0  0  0  0  0  0  0  0  0  0  0  0
   10.7874  -16.6074   20.7790 C   0  0  0  0  0  0  0  0  0  0  0  0
   11.5201  -15.6446   21.1184 O   0  0  0  0  0  0  0  0  0  0  0  0
    9.3740  -16.4259   20.7596 N   0  0  0  0  0  0  0  0  0  0  0  0
    8.8245  -15.2003   21.3139 C   0  0  1  0  0  0  0  0  0  0  0  0
    7.5280  -14.8413   20.6372 C   0  0  0  0  0  0  0  0  0  0  0  0
    7.7290  -14.5569   19.1928 C   0  0  0  0  0  0  0  0  0  0  0  0
    8.2185  -13.3533   18.7268 C   0  0  0  0  0  0  0  0  0  0  0  0
    8.2718  -13.4393   17.3741 N   0  0  0  0  0  0  0  0  0  0  0  0
    7.8331  -14.6487   17.0094 C   0  0  0  0  0  0  0  0  0  0  0  0
    7.4972  -15.3405   18.1329 N   0  0  0  0  0  0  0  0  0  0  0  0
    8.5676  -15.4022   22.7791 C   0  0  0  0  0  0  0  0  0  0  0  0
    8.8204  -16.4875   23.3599 O   0  0  0  0  0  0  0  0  0  0  0  0
    7.2168  -10.5111   27.9116 C   0  0  0  0  0  0  0  0  0  0  0  0
    5.9779  -11.7614   27.4760 S   0  0  0  0  0  0  0  0  0  0  0  0
    6.8043  -13.2649   26.9371 C   0  0  0  0  0  0  0  0  0  0  0  0
    6.9879  -13.3057   25.4388 C   0  0  0  0  0  0  0  0  0  0  0  0
    7.8020  -14.4981   24.9843 C   0  0  2  0  0  0  0  0  0  0  0  0
    8.0217  -14.3519   23.5617 N   0  0  0  0  0  0  0  0  0  0  0  0
    6.9654  -15.7042   25.2597 C   0  0  0  0  0  0  0  0  0  0  0  0
    6.0679  -16.1007   24.5068 O   0  0  0  0  0  0  0  0  0  0  0  0
    7.2055  -16.4186   26.4194 O   0  0  0  0  0  0  0  0  0  0  0  0
  2  1  1  0
  3  2  1  0
  4  3  2  0
  5  3  1  0
  6 13  1  0
  6  5  1  0
  6  7  1  6
  8  7  1  0
  9  8  2  0
 10 11  1  0
 10  9  1  0
 11 12  2  0
 12  8  1  0
 13 20  1  0
 14 13  2  0
 15 16  1  0
 16 17  1  0
 18 17  1  0
 19 18  1  6
 19 21  1  0
 20 19  1  0
 21 22  2  0
 21 23  1  0
M  END
$$$$
