GHM.pdb
     RDKit          3D

 23 23  0  0  1  0  0  0  0  0999 V2000
    6.4822  -21.6772   26.3639 N   0  0  0  0  0  0  0  0  0  0  0  0
    6.3237  -20.3440   25.8676 C   0  0  0  0  0  0  0  0  0  0  0  0
    7.5076  -19.8607   25.1183 C   0  0  0  0  0  0  0  0  0  0  0  0
    8.6164  -20.3952   25.3708 O   0  0  0  0  0  0  0  0  0  0  0  0
    7.4458  -18.8299   24.1362 N   0  0  0  0  0  0  0  0  0  0  0  0
    8.6648  -18.4677   23.4334 C   0  0  1  0  0  0  0  0  0  0  0  0
    8.4124  -18.3427   21.9540 C   0  0  0  0  0  0  0  0  0  0  0  0
    7.8571  -19.5996   21.3889 C   0  0  0  0  0  0  0  0  0  0  0  0
    8.6449  -20.5717   20.8060 C   0  0  0  0  0  0  0  0  0  0  0  0
    7.8182  -21.5690   20.4036 N   0  0  0  0  0  0  0  0  0  0  0  0
    6.5637  -21.2334   20.7225 C   0  0  0  0  0  0  0  0  0  0  0  0
    6.5865  -20.0160   21.3316 N   0  0  0  0  0  0  0  0  0  0  0  0
    9.1528  -17.1476   23.9558 C   0  0  0  0  0  0  0  0  0  0  0  0
    8.3649  -16.2332   24.3051 O   0  0  0  0  0  0  0  0  0  0  0  0
   10.5269  -13.3584   29.6389 C   0  0  0  0  0  0  0  0  0  0  0  0
   10.4886  -14.9800   28.8282 S   0  0  0  0  0  0  0  0  0  0  0  0
   11.1155  -14.8281   27.1495 C   0  0  0  0  0  0  0  0  0  0  0  0
   10.5820  -15.9127   26.2442 C   0  0  0  0  0  0  0  0  0  0  0  0
   11.0514  -15.7598   24.8134 C   0  0  2  0  0  0  0  0  0  0  0  0
   10.5441  -16.8932   24.0708 N   0  0  0  0  0  0  0  0  0  0  0  0
   12.5439  -15.7935   24.8578 C   0  0  0  0  0  0  0  0  0  0  0  0
   13.2079  -16.8324   24.7610 O   0  0  0  0  0  0  0  0  0  0  0  0
   13.2229  -14.5990   25.0158 O   0  0  0  0  0  0  0  0  0  0  0  0
  2  1  1  0
  3  2  1  0
  4  3  2  0
  5  3  1  0
  6 13  1  0
  6  5  1  0
  6  7  1  6
  8  7  1  0
  9  8  2  0
 10 11  1  0
 10  9  1  0
 11 12  2  0
 12  8  1  0
 13 20  1  0
 14 13  2  0
 15 16  1  0
 16 17  1  0
 18 17  1  0
 19 18  1  1
 19 21  1  0
 20 19  1  0
 21 22  2  0
 21 23  1  0
M  END
$$$$
