GHM.pdb
     RDKit          3D

 23 23  0  0  1  0  0  0  0  0999 V2000
    7.1758  -13.1538   18.2312 N   0  0  0  0  0  0  0  0  0  0  0  0
    8.4469  -13.4132   18.8361 C   0  0  0  0  0  0  0  0  0  0  0  0
    8.3691  -14.3842   19.9531 C   0  0  0  0  0  0  0  0  0  0  0  0
    7.3112  -14.4111   20.6305 O   0  0  0  0  0  0  0  0  0  0  0  0
    9.4271  -15.2779   20.2894 N   0  0  0  0  0  0  0  0  0  0  0  0
    9.1917  -16.2747   21.3200 C   0  0  1  0  0  0  0  0  0  0  0  0
   10.1090  -17.4555   21.1416 C   0  0  0  0  0  0  0  0  0  0  0  0
    9.7801  -18.2186   19.9099 C   0  0  0  0  0  0  0  0  0  0  0  0
    8.6466  -18.9972   19.7907 C   0  0  0  0  0  0  0  0  0  0  0  0
    8.6645  -19.5431   18.5490 N   0  0  0  0  0  0  0  0  0  0  0  0
    9.7654  -19.1223   17.9175 C   0  0  0  0  0  0  0  0  0  0  0  0
   10.4559  -18.3033   18.7579 N   0  0  0  0  0  0  0  0  0  0  0  0
    9.4523  -15.6561   22.6627 C   0  0  0  0  0  0  0  0  0  0  0  0
   10.5789  -15.2008   22.9829 O   0  0  0  0  0  0  0  0  0  0  0  0
    6.5104  -10.8700   27.7555 C   0  0  0  0  0  0  0  0  0  0  0  0
    6.3342  -11.8740   26.2559 S   0  0  0  0  0  0  0  0  0  0  0  0
    7.2181  -13.4263   26.4640 C   0  0  0  0  0  0  0  0  0  0  0  0
    7.1959  -14.2647   25.2083 C   0  0  0  0  0  0  0  0  0  0  0  0
    8.5639  -14.7978   24.8400 C   0  0  2  0  0  0  0  0  0  0  0  0
    8.4125  -15.5676   23.6243 N   0  0  0  0  0  0  0  0  0  0  0  0
    8.9841  -15.6833   25.9669 C   0  0  0  0  0  0  0  0  0  0  0  0
    9.2168  -15.2721   27.1099 O   0  0  0  0  0  0  0  0  0  0  0  0
    9.1212  -17.0375   25.7215 O   0  0  0  0  0  0  0  0  0  0  0  0
  2  1  1  0
  3  2  1  0
  4  3  2  0
  5  3  1  0
  6 13  1  0
  6  5  1  0
  6  7  1  6
  8  7  1  0
  9  8  2  0
 10 11  1  0
 10  9  1  0
 11 12  2  0
 12  8  1  0
 13 20  1  0
 14 13  2  0
 15 16  1  0
 16 17  1  0
 18 17  1  0
 19 18  1  1
 19 21  1  0
 20 19  1  0
 21 22  2  0
 21 23  1  0
M  END
$$$$
