GHM.pdb
     RDKit          3D

 23 23  0  0  1  0  0  0  0  0999 V2000
   10.3368  -18.8122   18.6720 N   0  0  0  0  0  0  0  0  0  0  0  0
   10.6708  -18.8242   20.0639 C   0  0  0  0  0  0  0  0  0  0  0  0
    9.5333  -18.4457   20.9354 C   0  0  0  0  0  0  0  0  0  0  0  0
    8.7865  -17.5125   20.5481 O   0  0  0  0  0  0  0  0  0  0  0  0
    9.2519  -19.0848   22.1777 N   0  0  0  0  0  0  0  0  0  0  0  0
    8.1567  -18.5771   22.9864 C   0  0  1  0  0  0  0  0  0  0  0  0
    7.6239  -19.6496   23.8994 C   0  0  0  0  0  0  0  0  0  0  0  0
    6.7844  -20.6265   23.1589 C   0  0  0  0  0  0  0  0  0  0  0  0
    6.4472  -20.4693   21.8296 C   0  0  0  0  0  0  0  0  0  0  0  0
    5.6818  -21.5339   21.4819 N   0  0  0  0  0  0  0  0  0  0  0  0
    5.5462  -22.3249   22.5514 C   0  0  0  0  0  0  0  0  0  0  0  0
    6.2274  -21.7649   23.5888 N   0  0  0  0  0  0  0  0  0  0  0  0
    8.6581  -17.4343   23.8208 C   0  0  0  0  0  0  0  0  0  0  0  0
    9.8740  -17.2973   24.1071 O   0  0  0  0  0  0  0  0  0  0  0  0
    6.4652  -10.5783   27.1083 C   0  0  0  0  0  0  0  0  0  0  0  0
    5.9115  -12.1682   26.4348 S   0  0  0  0  0  0  0  0  0  0  0  0
    7.3271  -13.2563   26.2202 C   0  0  0  0  0  0  0  0  0  0  0  0
    7.0067  -14.4365   25.3344 C   0  0  0  0  0  0  0  0  0  0  0  0
    8.2091  -15.3217   25.0865 C   0  0  2  0  0  0  0  0  0  0  0  0
    7.7541  -16.4599   24.3177 N   0  0  0  0  0  0  0  0  0  0  0  0
    8.6886  -15.7608   26.4310 C   0  0  0  0  0  0  0  0  0  0  0  0
    9.4219  -15.0752   27.1533 O   0  0  0  0  0  0  0  0  0  0  0  0
    8.2922  -17.0016   26.8961 O   0  0  0  0  0  0  0  0  0  0  0  0
  2  1  1  0
  3  2  1  0
  4  3  2  0
  5  3  1  0
  6 13  1  0
  6  5  1  0
  6  7  1  1
  8  7  1  0
  9  8  2  0
 10 11  1  0
 10  9  1  0
 11 12  2  0
 12  8  1  0
 13 20  1  0
 14 13  2  0
 15 16  1  0
 16 17  1  0
 18 17  1  0
 19 18  1  1
 19 21  1  0
 20 19  1  0
 21 22  2  0
 21 23  1  0
M  END
$$$$
