GHM.pdb
     RDKit          3D

 23 23  0  0  1  0  0  0  0  0999 V2000
    8.0810  -19.3074   19.4230 N   0  0  0  0  0  0  0  0  0  0  0  0
    7.7168  -18.6679   20.6508 C   0  0  0  0  0  0  0  0  0  0  0  0
    8.4347  -17.3905   20.8732 C   0  0  0  0  0  0  0  0  0  0  0  0
    9.6900  -17.4259   20.9149 O   0  0  0  0  0  0  0  0  0  0  0  0
    7.7734  -16.1391   21.0400 N   0  0  0  0  0  0  0  0  0  0  0  0
    8.5822  -14.9380   21.1599 C   0  0  1  0  0  0  0  0  0  0  0  0
    7.8827  -13.7579   20.5387 C   0  0  0  0  0  0  0  0  0  0  0  0
    7.8831  -13.8443   19.0555 C   0  0  0  0  0  0  0  0  0  0  0  0
    8.5370  -12.9324   18.2516 C   0  0  0  0  0  0  0  0  0  0  0  0
    8.3299  -13.3112   16.9657 N   0  0  0  0  0  0  0  0  0  0  0  0
    7.5765  -14.4159   16.9661 C   0  0  0  0  0  0  0  0  0  0  0  0
    7.2996  -14.7464   18.2575 N   0  0  0  0  0  0  0  0  0  0  0  0
    8.8159  -14.6529   22.6151 C   0  0  0  0  0  0  0  0  0  0  0  0
    9.4717  -13.6544   23.0049 O   0  0  0  0  0  0  0  0  0  0  0  0
    6.7109  -11.1942   27.9882 C   0  0  0  0  0  0  0  0  0  0  0  0
    5.9698  -12.6095   27.1306 S   0  0  0  0  0  0  0  0  0  0  0  0
    7.2379  -13.8387   26.7915 C   0  0  0  0  0  0  0  0  0  0  0  0
    7.2485  -14.2579   25.3408 C   0  0  0  0  0  0  0  0  0  0  0  0
    8.3823  -15.2071   25.0175 C   0  0  2  0  0  0  0  0  0  0  0  0
    8.2918  -15.5209   23.6079 N   0  0  0  0  0  0  0  0  0  0  0  0
    8.1482  -16.4324   25.8387 C   0  0  0  0  0  0  0  0  0  0  0  0
    7.6656  -17.4773   25.3862 O   0  0  0  0  0  0  0  0  0  0  0  0
    8.4887  -16.3992   27.1788 O   0  0  0  0  0  0  0  0  0  0  0  0
  2  1  1  0
  3  2  1  0
  4  3  2  0
  5  3  1  0
  6 13  1  0
  6  5  1  0
  6  7  1  1
  8  7  1  0
  9  8  2  0
 10 11  1  0
 10  9  1  0
 11 12  2  0
 12  8  1  0
 13 20  1  0
 14 13  2  0
 15 16  1  0
 16 17  1  0
 18 17  1  0
 19 18  1  1
 19 21  1  0
 20 19  1  0
 21 22  2  0
 21 23  1  0
M  END
$$$$
