GHM.pdb
     RDKit          3D

 23 23  0  0  1  0  0  0  0  0999 V2000
    8.1812  -16.5533   17.3605 N   0  0  0  0  0  0  0  0  0  0  0  0
    9.1429  -16.1223   18.3291 C   0  0  0  0  0  0  0  0  0  0  0  0
    8.7566  -16.4617   19.7191 C   0  0  0  0  0  0  0  0  0  0  0  0
    7.6218  -16.0957   20.1154 O   0  0  0  0  0  0  0  0  0  0  0  0
    9.6038  -17.1757   20.6155 N   0  0  0  0  0  0  0  0  0  0  0  0
    9.1003  -17.4933   21.9409 C   0  0  1  0  0  0  0  0  0  0  0  0
    9.7312  -18.7566   22.4642 C   0  0  0  0  0  0  0  0  0  0  0  0
    9.2050  -19.9573   21.7649 C   0  0  0  0  0  0  0  0  0  0  0  0
    8.2437  -20.7827   22.3127 C   0  0  0  0  0  0  0  0  0  0  0  0
    8.0021  -21.7684   21.4126 N   0  0  0  0  0  0  0  0  0  0  0  0
    8.7816  -21.5670   20.3450 C   0  0  0  0  0  0  0  0  0  0  0  0
    9.5257  -20.4476   20.5617 N   0  0  0  0  0  0  0  0  0  0  0  0
    9.4336  -16.3630   22.8709 C   0  0  0  0  0  0  0  0  0  0  0  0
   10.5680  -15.8228   22.8886 O   0  0  0  0  0  0  0  0  0  0  0  0
    6.1648  -10.7875   27.4188 C   0  0  0  0  0  0  0  0  0  0  0  0
    5.9254  -12.1840   26.2873 S   0  0  0  0  0  0  0  0  0  0  0  0
    7.5115  -12.9595   25.9450 C   0  0  0  0  0  0  0  0  0  0  0  0
    7.3880  -14.0894   24.9508 C   0  0  0  0  0  0  0  0  0  0  0  0
    8.7209  -14.7309   24.6301 C   0  0  2  0  0  0  0  0  0  0  0  0
    8.4568  -15.8656   23.7721 N   0  0  0  0  0  0  0  0  0  0  0  0
    9.2895  -15.1864   25.9339 C   0  0  0  0  0  0  0  0  0  0  0  0
    9.1943  -16.3457   26.3540 O   0  0  0  0  0  0  0  0  0  0  0  0
    9.9595  -14.2632   26.7160 O   0  0  0  0  0  0  0  0  0  0  0  0
  2  1  1  0
  3  2  1  0
  4  3  2  0
  5  3  1  0
  6 13  1  0
  6  5  1  0
  6  7  1  1
  8  7  1  0
  9  8  2  0
 10 11  1  0
 10  9  1  0
 11 12  2  0
 12  8  1  0
 13 20  1  0
 14 13  2  0
 15 16  1  0
 16 17  1  0
 18 17  1  0
 19 18  1  1
 19 21  1  0
 20 19  1  0
 21 22  2  0
 21 23  1  0
M  END
$$$$
