GHM.pdb
     RDKit          3D

 23 23  0  0  1  0  0  0  0  0999 V2000
   12.4653  -18.2592   19.9369 N   0  0  0  0  0  0  0  0  0  0  0  0
   11.6743  -17.1805   19.4273 C   0  0  0  0  0  0  0  0  0  0  0  0
   11.0936  -16.3335   20.4958 C   0  0  0  0  0  0  0  0  0  0  0  0
   11.7983  -15.3950   20.9445 O   0  0  0  0  0  0  0  0  0  0  0  0
    9.7878  -16.5329   21.0307 N   0  0  0  0  0  0  0  0  0  0  0  0
    9.3134  -15.6231   22.0595 C   0  0  1  0  0  0  0  0  0  0  0  0
    7.8726  -15.2538   21.8242 C   0  0  0  0  0  0  0  0  0  0  0  0
    7.7039  -14.5049   20.5521 C   0  0  0  0  0  0  0  0  0  0  0  0
    7.8628  -13.1368   20.4609 C   0  0  0  0  0  0  0  0  0  0  0  0
    7.6369  -12.7926   19.1684 N   0  0  0  0  0  0  0  0  0  0  0  0
    7.3484  -13.9017   18.4794 C   0  0  0  0  0  0  0  0  0  0  0  0
    7.3895  -14.9609   19.3338 N   0  0  0  0  0  0  0  0  0  0  0  0
    9.4296  -16.2977   23.3956 C   0  0  0  0  0  0  0  0  0  0  0  0
    9.5138  -17.5462   23.5102 O   0  0  0  0  0  0  0  0  0  0  0  0
    9.8532  -12.7675   29.3184 C   0  0  0  0  0  0  0  0  0  0  0  0
   10.7200  -14.3600   29.2994 S   0  0  0  0  0  0  0  0  0  0  0  0
    9.7814  -15.5441   28.3241 C   0  0  0  0  0  0  0  0  0  0  0  0
    9.5238  -15.0467   26.9218 C   0  0  0  0  0  0  0  0  0  0  0  0
    9.6967  -16.1301   25.8790 C   0  0  2  0  0  0  0  0  0  0  0  0
    9.4476  -15.5275   24.5873 N   0  0  0  0  0  0  0  0  0  0  0  0
    8.6628  -17.1657   26.1774 C   0  0  0  0  0  0  0  0  0  0  0  0
    7.5223  -17.1514   25.6994 O   0  0  0  0  0  0  0  0  0  0  0  0
    8.9966  -18.1983   27.0350 O   0  0  0  0  0  0  0  0  0  0  0  0
  2  1  1  0
  3  2  1  0
  4  3  2  0
  5  3  1  0
  6 13  1  0
  6  5  1  0
  6  7  1  6
  8  7  1  0
  9  8  2  0
 10 11  1  0
 10  9  1  0
 11 12  2  0
 12  8  1  0
 13 20  1  0
 14 13  2  0
 15 16  1  0
 16 17  1  0
 18 17  1  0
 19 18  1  1
 19 21  1  0
 20 19  1  0
 21 22  2  0
 21 23  1  0
M  END
$$$$
