VNM.pdb
     RDKit          3D

 24 23  0  0  1  0  0  0  0  0999 V2000
   24.5608  -19.5311  -15.8658 C   0  0  0  0  0  0  0  0  0  0  0  0
   25.9662  -19.0161  -15.8641 C   0  0  2  0  0  0  0  0  0  0  0  0
   26.7084  -19.4183  -17.1255 C   0  0  0  0  0  0  0  0  0  0  0  0
   26.7354  -19.5013  -14.6597 C   0  0  2  0  0  0  0  0  0  0  0  0
   27.1753  -20.8529  -14.7736 N   0  0  0  0  0  0  0  0  0  0  0  0
   25.8628  -19.3764  -13.4685 C   0  0  0  0  0  0  0  0  0  0  0  0
   25.2611  -18.2987  -13.2253 O   0  0  0  0  0  0  0  0  0  0  0  0
   22.0914  -20.8545  -13.4173 N   0  0  0  0  0  0  0  0  0  0  0  0
   22.6832  -20.3548  -12.2109 C   0  0  0  0  0  0  0  0  0  0  0  0
   22.2917  -19.2319  -11.8249 O   0  0  0  0  0  0  0  0  0  0  0  0
   23.6915  -21.1694  -11.5127 C   0  0  0  0  0  0  0  0  0  0  0  0
   24.9555  -20.3761  -11.3542 C   0  0  2  0  0  0  0  0  0  0  0  0
   25.7124  -20.4934  -12.5990 N   0  0  0  0  0  0  0  0  0  0  0  0
   25.8020  -20.9901  -10.2651 C   0  0  0  0  0  0  0  0  0  0  0  0
   26.2770  -22.1467  -10.3733 O   0  0  0  0  0  0  0  0  0  0  0  0
   28.0838  -17.5814   -5.4062 C   0  0  0  0  0  0  0  0  0  0  0  0
   28.6608  -19.1950   -4.8450 S   0  0  0  0  0  0  0  0  0  0  0  0
   27.8274  -20.5144   -5.7910 C   0  0  0  0  0  0  0  0  0  0  0  0
   27.3627  -19.9967   -7.1036 C   0  0  0  0  0  0  0  0  0  0  0  0
   26.5662  -21.0035   -7.8951 C   0  0  2  0  0  0  0  0  0  0  0  0
   26.0917  -20.2753   -9.0732 N   0  0  0  0  0  0  0  0  0  0  0  0
   25.4593  -21.5032   -7.0863 C   0  0  0  0  0  0  0  0  0  0  0  0
   24.1589  -21.0547   -7.3957 O   0  0  0  0  0  0  0  0  0  0  0  0
   25.5583  -22.2928   -6.1440 O   0  0  0  0  0  0  0  0  0  0  0  0
  2  1  1  6
  2  3  1  0
  4  2  1  0
  4  6  1  0
  4  5  1  6
  6  7  2  0
  9 11  1  0
  9  8  1  0
 10  9  2  0
 12 11  1  6
 13  6  1  0
 13 12  1  0
 14 12  1  0
 14 15  2  0
 16 17  1  0
 18 17  1  0
 19 18  1  0
 20 21  1  0
 20 19  1  1
 21 14  1  0
 22 20  1  0
 23 22  1  0
 24 22  2  0
M  END
$$$$
