VNM.pdb
     RDKit          3D

 24 23  0  0  1  0  0  0  0  0999 V2000
   27.8896  -17.5177  -19.1997 C   0  0  0  0  0  0  0  0  0  0  0  0
   28.0461  -16.9620  -17.8188 C   0  0  2  0  0  0  0  0  0  0  0  0
   29.1898  -15.9670  -17.7449 C   0  0  0  0  0  0  0  0  0  0  0  0
   28.2719  -18.0539  -16.8017 C   0  0  2  0  0  0  0  0  0  0  0  0
   28.1842  -19.3674  -17.3496 N   0  0  0  0  0  0  0  0  0  0  0  0
   27.2586  -17.9091  -15.7301 C   0  0  0  0  0  0  0  0  0  0  0  0
   27.1262  -16.8188  -15.1167 O   0  0  0  0  0  0  0  0  0  0  0  0
   23.8294  -16.8903  -15.0967 N   0  0  0  0  0  0  0  0  0  0  0  0
   23.3147  -18.2066  -15.3370 C   0  0  0  0  0  0  0  0  0  0  0  0
   22.1927  -18.2721  -15.8848 O   0  0  0  0  0  0  0  0  0  0  0  0
   24.1142  -19.3763  -14.9365 C   0  0  0  0  0  0  0  0  0  0  0  0
   25.4189  -18.9170  -14.3544 C   0  0  2  0  0  0  0  0  0  0  0  0
   26.4335  -19.0215  -15.4013 N   0  0  0  0  0  0  0  0  0  0  0  0
   25.8331  -19.8541  -13.2453 C   0  0  0  0  0  0  0  0  0  0  0  0
   26.0751  -21.0661  -13.4632 O   0  0  0  0  0  0  0  0  0  0  0  0
   27.9196  -20.1392   -5.6271 C   0  0  0  0  0  0  0  0  0  0  0  0
   27.3773  -19.1664   -7.0453 S   0  0  0  0  0  0  0  0  0  0  0  0
   26.9600  -20.2747   -8.4338 C   0  0  0  0  0  0  0  0  0  0  0  0
   26.6681  -19.4849   -9.6577 C   0  0  0  0  0  0  0  0  0  0  0  0
   26.3343  -20.3393  -10.8548 C   0  0  2  0  0  0  0  0  0  0  0  0
   25.9639  -19.3932  -11.9089 N   0  0  0  0  0  0  0  0  0  0  0  0
   25.2350  -21.2409  -10.5269 C   0  0  0  0  0  0  0  0  0  0  0  0
   25.5544  -22.5081   -9.9978 O   0  0  0  0  0  0  0  0  0  0  0  0
   24.0356  -20.9927  -10.6721 O   0  0  0  0  0  0  0  0  0  0  0  0
  2  1  1  6
  2  3  1  0
  4  2  1  0
  4  6  1  0
  4  5  1  6
  6  7  2  0
  9 11  1  0
  9  8  1  0
 10  9  2  0
 12 11  1  6
 13  6  1  0
 13 12  1  0
 14 12  1  0
 14 15  2  0
 16 17  1  0
 18 17  1  0
 19 18  1  0
 20 21  1  0
 20 19  1  1
 21 14  1  0
 22 20  1  0
 23 22  1  0
 24 22  2  0
M  END
$$$$
