VNM.pdb
     RDKit          3D

 24 23  0  0  1  0  0  0  0  0999 V2000
   28.3229  -20.2851  -17.9295 C   0  0  0  0  0  0  0  0  0  0  0  0
   27.6671  -19.5947  -16.7748 C   0  0  2  0  0  0  0  0  0  0  0  0
   28.5424  -18.4868  -16.2179 C   0  0  0  0  0  0  0  0  0  0  0  0
   27.3273  -20.5624  -15.6676 C   0  0  2  0  0  0  0  0  0  0  0  0
   26.5438  -21.6713  -16.1032 N   0  0  0  0  0  0  0  0  0  0  0  0
   26.5821  -19.8272  -14.6188 C   0  0  0  0  0  0  0  0  0  0  0  0
   27.0311  -18.7496  -14.1500 O   0  0  0  0  0  0  0  0  0  0  0  0
   21.3553  -21.3955  -13.3214 N   0  0  0  0  0  0  0  0  0  0  0  0
   22.6885  -21.0369  -13.7077 C   0  0  0  0  0  0  0  0  0  0  0  0
   23.3782  -21.9418  -14.2259 O   0  0  0  0  0  0  0  0  0  0  0  0
   23.1585  -19.6604  -13.4790 C   0  0  0  0  0  0  0  0  0  0  0  0
   24.6053  -19.6837  -13.0811 C   0  0  2  0  0  0  0  0  0  0  0  0
   25.3478  -20.3556  -14.1457 N   0  0  0  0  0  0  0  0  0  0  0  0
   24.7711  -20.5191  -11.8343 C   0  0  0  0  0  0  0  0  0  0  0  0
   23.8135  -21.1625  -11.3405 O   0  0  0  0  0  0  0  0  0  0  0  0
   30.5486  -20.8767   -8.1973 C   0  0  0  0  0  0  0  0  0  0  0  0
   29.2000  -20.1478   -7.2478 S   0  0  0  0  0  0  0  0  0  0  0  0
   27.6049  -20.8329   -7.8106 C   0  0  0  0  0  0  0  0  0  0  0  0
   27.3904  -20.5320   -9.2495 C   0  0  0  0  0  0  0  0  0  0  0  0
   26.0725  -21.0418   -9.7766 C   0  0  2  0  0  0  0  0  0  0  0  0
   26.0245  -20.6060  -11.1734 N   0  0  0  0  0  0  0  0  0  0  0  0
   24.9767  -20.4770   -8.9960 C   0  0  0  0  0  0  0  0  0  0  0  0
   24.4659  -21.2391   -7.9255 O   0  0  0  0  0  0  0  0  0  0  0  0
   24.4493  -19.3790   -9.1896 O   0  0  0  0  0  0  0  0  0  0  0  0
  2  1  1  6
  2  3  1  0
  4  2  1  0
  4  6  1  0
  4  5  1  6
  6  7  2  0
  9 11  1  0
  9  8  1  0
 10  9  2  0
 12 11  1  6
 13  6  1  0
 13 12  1  0
 14 12  1  0
 14 15  2  0
 16 17  1  0
 18 17  1  0
 19 18  1  0
 20 21  1  0
 20 19  1  1
 21 14  1  0
 22 20  1  0
 23 22  1  0
 24 22  2  0
M  END
$$$$
