VNM.pdb
     RDKit          3D

 24 23  0  0  1  0  0  0  0  0999 V2000
   26.8639  -21.1019  -18.1175 C   0  0  0  0  0  0  0  0  0  0  0  0
   28.2614  -21.5622  -17.8429 C   0  0  2  0  0  0  0  0  0  0  0  0
   28.6345  -22.7549  -18.7044 C   0  0  0  0  0  0  0  0  0  0  0  0
   28.4540  -21.9203  -16.3896 C   0  0  2  0  0  0  0  0  0  0  0  0
   27.8865  -23.1794  -16.0348 N   0  0  0  0  0  0  0  0  0  0  0  0
   27.8318  -20.8600  -15.5622 C   0  0  0  0  0  0  0  0  0  0  0  0
   27.7771  -19.6735  -15.9765 O   0  0  0  0  0  0  0  0  0  0  0  0
   24.3985  -18.0128  -13.7834 N   0  0  0  0  0  0  0  0  0  0  0  0
   24.0895  -19.4110  -13.8529 C   0  0  0  0  0  0  0  0  0  0  0  0
   22.9794  -19.7572  -13.3934 O   0  0  0  0  0  0  0  0  0  0  0  0
   25.0696  -20.3362  -14.4453 C   0  0  0  0  0  0  0  0  0  0  0  0
   26.3274  -20.3265  -13.6269 C   0  0  2  0  0  0  0  0  0  0  0  0
   27.2945  -21.2001  -14.2886 N   0  0  0  0  0  0  0  0  0  0  0  0
   26.0495  -20.9263  -12.2695 C   0  0  0  0  0  0  0  0  0  0  0  0
   25.5196  -22.0572  -12.1451 O   0  0  0  0  0  0  0  0  0  0  0  0
   29.3460  -19.6324   -6.6764 C   0  0  0  0  0  0  0  0  0  0  0  0
   27.6113  -19.4401   -6.2229 S   0  0  0  0  0  0  0  0  0  0  0  0
   26.5619  -20.3999   -7.3664 C   0  0  0  0  0  0  0  0  0  0  0  0
   26.8386  -20.0117   -8.7735 C   0  0  0  0  0  0  0  0  0  0  0  0
   26.0703  -20.8294   -9.7812 C   0  0  2  0  0  0  0  0  0  0  0  0
   26.3802  -20.2270  -11.0791 N   0  0  0  0  0  0  0  0  0  0  0  0
   24.6433  -20.7668   -9.4830 C   0  0  0  0  0  0  0  0  0  0  0  0
   23.8293  -19.9661  -10.3100 O   0  0  0  0  0  0  0  0  0  0  0  0
   24.0763  -21.3584   -8.5612 O   0  0  0  0  0  0  0  0  0  0  0  0
  2  1  1  1
  2  3  1  0
  4  2  1  0
  4  6  1  0
  4  5  1  6
  6  7  2  0
  9 11  1  0
  9  8  1  0
 10  9  2  0
 12 11  1  6
 13  6  1  0
 13 12  1  0
 14 12  1  0
 14 15  2  0
 16 17  1  0
 18 17  1  0
 19 18  1  0
 20 21  1  0
 20 19  1  1
 21 14  1  0
 22 20  1  0
 23 22  1  0
 24 22  2  0
M  END
$$$$
