VNM.pdb
     RDKit          3D

 24 23  0  0  1  0  0  0  0  0999 V2000
   26.9990  -16.7603  -15.3471 C   0  0  0  0  0  0  0  0  0  0  0  0
   26.6388  -16.5260  -16.7808 C   0  0  2  0  0  0  0  0  0  0  0  0
   26.7134  -15.0534  -17.1406 C   0  0  0  0  0  0  0  0  0  0  0  0
   25.2582  -17.0454  -17.0999 C   0  0  2  0  0  0  0  0  0  0  0  0
   24.4733  -16.1366  -17.8689 N   0  0  0  0  0  0  0  0  0  0  0  0
   24.5596  -17.3262  -15.8235 C   0  0  0  0  0  0  0  0  0  0  0  0
   23.4549  -16.7830  -15.5649 O   0  0  0  0  0  0  0  0  0  0  0  0
   21.2895  -20.2367  -13.4957 N   0  0  0  0  0  0  0  0  0  0  0  0
   22.6008  -20.6872  -13.8602 C   0  0  0  0  0  0  0  0  0  0  0  0
   22.9679  -21.7783  -13.3724 O   0  0  0  0  0  0  0  0  0  0  0  0
   23.4200  -19.8626  -14.7639 C   0  0  0  0  0  0  0  0  0  0  0  0
   24.3302  -18.9849  -13.9557 C   0  0  2  0  0  0  0  0  0  0  0  0
   25.1548  -18.2207  -14.8897 N   0  0  0  0  0  0  0  0  0  0  0  0
   25.2681  -19.8451  -13.1431 C   0  0  0  0  0  0  0  0  0  0  0  0
   25.9864  -20.7238  -13.6786 O   0  0  0  0  0  0  0  0  0  0  0  0
   27.0680  -18.5340   -6.9376 C   0  0  0  0  0  0  0  0  0  0  0  0
   26.7752  -20.3131   -6.9093 S   0  0  0  0  0  0  0  0  0  0  0  0
   26.8986  -20.9884   -8.6002 C   0  0  0  0  0  0  0  0  0  0  0  0
   26.0546  -20.2011   -9.5356 C   0  0  0  0  0  0  0  0  0  0  0  0
   26.3189  -20.5144  -10.9870 C   0  0  2  0  0  0  0  0  0  0  0  0
   25.3703  -19.6882  -11.7358 N   0  0  0  0  0  0  0  0  0  0  0  0
   26.1071  -21.9372  -11.2315 C   0  0  0  0  0  0  0  0  0  0  0  0
   27.2196  -22.7978  -11.1338 O   0  0  0  0  0  0  0  0  0  0  0  0
   25.0294  -22.4632  -11.5198 O   0  0  0  0  0  0  0  0  0  0  0  0
  2  1  1  1
  2  3  1  0
  4  2  1  0
  4  6  1  0
  4  5  1  1
  6  7  2  0
  9 11  1  0
  9  8  1  0
 10  9  2  0
 12 11  1  6
 13  6  1  0
 13 12  1  0
 14 12  1  0
 14 15  2  0
 16 17  1  0
 18 17  1  0
 19 18  1  0
 20 21  1  0
 20 19  1  1
 21 14  1  0
 22 20  1  0
 23 22  1  0
 24 22  2  0
M  END
$$$$
