VNM.pdb
     RDKit          3D

 24 23  0  0  1  0  0  0  0  0999 V2000
   27.9513  -19.4962  -18.7761 C   0  0  0  0  0  0  0  0  0  0  0  0
   27.1384  -20.6391  -19.2990 C   0  0  2  0  0  0  0  0  0  0  0  0
   25.8689  -20.1559  -19.9761 C   0  0  0  0  0  0  0  0  0  0  0  0
   26.7770  -21.6122  -18.2035 C   0  0  2  0  0  0  0  0  0  0  0  0
   25.3718  -21.8042  -18.0553 N   0  0  0  0  0  0  0  0  0  0  0  0
   27.3320  -21.1038  -16.9270 C   0  0  0  0  0  0  0  0  0  0  0  0
   28.5752  -21.0677  -16.7383 O   0  0  0  0  0  0  0  0  0  0  0  0
   27.1143  -16.7570  -16.2303 N   0  0  0  0  0  0  0  0  0  0  0  0
   27.5551  -17.8376  -15.3977 C   0  0  0  0  0  0  0  0  0  0  0  0
   28.7880  -18.0418  -15.3604 O   0  0  0  0  0  0  0  0  0  0  0  0
   26.5586  -18.6253  -14.6531 C   0  0  0  0  0  0  0  0  0  0  0  0
   26.9485  -20.0744  -14.6718 C   0  0  2  0  0  0  0  0  0  0  0  0
   26.4396  -20.6550  -15.9129 N   0  0  0  0  0  0  0  0  0  0  0  0
   26.2631  -20.7948  -13.5356 C   0  0  0  0  0  0  0  0  0  0  0  0
   25.3271  -21.6056  -13.7392 O   0  0  0  0  0  0  0  0  0  0  0  0
   27.9412  -19.2462   -7.6276 C   0  0  0  0  0  0  0  0  0  0  0  0
   26.4629  -20.1562   -7.1396 S   0  0  0  0  0  0  0  0  0  0  0  0
   25.6717  -20.8885   -8.6120 C   0  0  0  0  0  0  0  0  0  0  0  0
   26.4126  -20.5074   -9.8420 C   0  0  0  0  0  0  0  0  0  0  0  0
   25.8071  -21.0709  -11.1031 C   0  0  2  0  0  0  0  0  0  0  0  0
   26.6567  -20.5783  -12.1889 N   0  0  0  0  0  0  0  0  0  0  0  0
   24.4307  -20.6063  -11.2404 C   0  0  0  0  0  0  0  0  0  0  0  0
   23.4083  -21.3882  -10.6650 O   0  0  0  0  0  0  0  0  0  0  0  0
   24.0750  -19.5783  -11.8216 O   0  0  0  0  0  0  0  0  0  0  0  0
  2  1  1  1
  2  3  1  0
  4  2  1  0
  4  6  1  0
  4  5  1  1
  6  7  2  0
  9 11  1  0
  9  8  1  0
 10  9  2  0
 12 11  1  6
 13  6  1  0
 13 12  1  0
 14 12  1  0
 14 15  2  0
 16 17  1  0
 18 17  1  0
 19 18  1  0
 20 21  1  0
 20 19  1  1
 21 14  1  0
 22 20  1  0
 23 22  1  0
 24 22  2  0
M  END
$$$$
