VNM.pdb
     RDKit          3D

 24 23  0  0  1  0  0  0  0  0999 V2000
   20.8673  -20.1943  -19.7048 C   0  0  0  0  0  0  0  0  0  0  0  0
   21.8996  -19.3757  -18.9945 C   0  0  2  0  0  0  0  0  0  0  0  0
   23.2331  -19.4104  -19.7185 C   0  0  0  0  0  0  0  0  0  0  0  0
   22.0953  -19.8392  -17.5717 C   0  0  2  0  0  0  0  0  0  0  0  0
   22.7807  -21.0854  -17.4696 N   0  0  0  0  0  0  0  0  0  0  0  0
   20.7628  -19.9677  -16.9362 C   0  0  0  0  0  0  0  0  0  0  0  0
   19.9366  -19.0202  -16.9831 O   0  0  0  0  0  0  0  0  0  0  0  0
   18.0392  -24.5093  -16.9415 N   0  0  0  0  0  0  0  0  0  0  0  0
   18.8146  -23.3188  -17.1329 C   0  0  0  0  0  0  0  0  0  0  0  0
   19.9561  -23.4725  -17.6193 O   0  0  0  0  0  0  0  0  0  0  0  0
   18.2395  -22.0168  -16.7562 C   0  0  0  0  0  0  0  0  0  0  0  0
   19.0942  -21.3766  -15.7018 C   0  0  2  0  0  0  0  0  0  0  0  0
   20.4265  -21.1797  -16.2695 N   0  0  0  0  0  0  0  0  0  0  0  0
   19.2484  -22.3232  -14.5356 C   0  0  0  0  0  0  0  0  0  0  0  0
   19.9992  -23.3269  -14.5969 O   0  0  0  0  0  0  0  0  0  0  0  0
   22.4473  -19.6729   -9.9284 C   0  0  0  0  0  0  0  0  0  0  0  0
   20.8317  -20.4484   -9.7280 S   0  0  0  0  0  0  0  0  0  0  0  0
   20.4829  -21.5312  -11.1549 C   0  0  0  0  0  0  0  0  0  0  0  0
   19.1276  -22.1275  -11.0340 C   0  0  0  0  0  0  0  0  0  0  0  0
   18.7607  -23.0180  -12.1946 C   0  0  2  0  0  0  0  0  0  0  0  0
   18.5447  -22.1087  -13.3214 N   0  0  0  0  0  0  0  0  0  0  0  0
   17.5565  -23.7767  -11.8734 C   0  0  0  0  0  0  0  0  0  0  0  0
   17.6882  -24.9032  -11.0359 O   0  0  0  0  0  0  0  0  0  0  0  0
   16.4183  -23.5193  -12.2729 O   0  0  0  0  0  0  0  0  0  0  0  0
  2  1  1  6
  2  3  1  0
  4  2  1  0
  4  6  1  0
  4  5  1  6
  6  7  2  0
  9 11  1  0
  9  8  1  0
 10  9  2  0
 12 11  1  6
 13  6  1  0
 13 12  1  0
 14 12  1  0
 14 15  2  0
 16 17  1  0
 18 17  1  0
 19 18  1  0
 20 21  1  0
 20 19  1  1
 21 14  1  0
 22 20  1  0
 23 22  1  0
 24 22  2  0
M  END
$$$$
