VNM.pdb
     RDKit          3D

 24 23  0  0  1  0  0  0  0  0999 V2000
   17.7945  -12.7149  -17.5681 C   0  0  0  0  0  0  0  0  0  0  0  0
   17.7258  -12.9212  -16.0873 C   0  0  2  0  0  0  0  0  0  0  0  0
   16.5270  -13.7667  -15.6976 C   0  0  0  0  0  0  0  0  0  0  0  0
   17.6698  -11.6088  -15.3444 C   0  0  2  0  0  0  0  0  0  0  0  0
   16.4485  -10.8985  -15.5377 N   0  0  0  0  0  0  0  0  0  0  0  0
   18.7973  -10.7645  -15.8047 C   0  0  0  0  0  0  0  0  0  0  0  0
   19.9852  -11.1605  -15.6835 O   0  0  0  0  0  0  0  0  0  0  0  0
   19.3298   -8.7711  -20.5379 N   0  0  0  0  0  0  0  0  0  0  0  0
   19.8046   -8.9149  -19.1928 C   0  0  0  0  0  0  0  0  0  0  0  0
   20.6733   -9.7937  -19.0022 O   0  0  0  0  0  0  0  0  0  0  0  0
   19.2578   -8.0436  -18.1395 C   0  0  0  0  0  0  0  0  0  0  0  0
   19.6066   -8.6052  -16.7923 C   0  0  2  0  0  0  0  0  0  0  0  0
   18.5205   -9.4957  -16.3877 N   0  0  0  0  0  0  0  0  0  0  0  0
   19.6593   -7.4871  -15.7790 C   0  0  0  0  0  0  0  0  0  0  0  0
   18.6264   -7.0781  -15.1951 O   0  0  0  0  0  0  0  0  0  0  0  0
   20.4371   -5.6679   -8.9497 C   0  0  0  0  0  0  0  0  0  0  0  0
   20.3683   -6.7249  -10.4090 S   0  0  0  0  0  0  0  0  0  0  0  0
   20.7446   -5.7452  -11.9020 C   0  0  0  0  0  0  0  0  0  0  0  0
   20.6221   -6.5878  -13.1194 C   0  0  0  0  0  0  0  0  0  0  0  0
   20.9140   -5.8396  -14.3959 C   0  0  2  0  0  0  0  0  0  0  0  0
   20.8874   -6.8556  -15.4496 N   0  0  0  0  0  0  0  0  0  0  0  0
   22.2183   -5.1924  -14.3017 C   0  0  0  0  0  0  0  0  0  0  0  0
   23.2714   -5.7099  -15.0831 O   0  0  0  0  0  0  0  0  0  0  0  0
   22.4875   -4.2207  -13.5914 O   0  0  0  0  0  0  0  0  0  0  0  0
  2  1  1  6
  2  3  1  0
  4  2  1  0
  4  6  1  0
  4  5  1  6
  6  7  2  0
  9 11  1  0
  9  8  1  0
 10  9  2  0
 12 11  1  6
 13  6  1  0
 13 12  1  0
 14 12  1  0
 14 15  2  0
 16 17  1  0
 18 17  1  0
 19 18  1  0
 20 21  1  0
 20 19  1  1
 21 14  1  0
 22 20  1  0
 23 22  1  0
 24 22  2  0
M  END
$$$$
