VNM.pdb
     RDKit          3D

 24 23  0  0  1  0  0  0  0  0999 V2000
   26.8851  -18.7155  -17.1892 C   0  0  0  0  0  0  0  0  0  0  0  0
   28.2389  -18.7254  -16.5509 C   0  0  2  0  0  0  0  0  0  0  0  0
   29.3200  -19.1126  -17.5433 C   0  0  0  0  0  0  0  0  0  0  0  0
   28.2906  -19.6634  -15.3698 C   0  0  2  0  0  0  0  0  0  0  0  0
   28.0015  -21.0183  -15.7075 N   0  0  0  0  0  0  0  0  0  0  0  0
   27.3096  -19.1974  -14.3615 C   0  0  0  0  0  0  0  0  0  0  0  0
   27.3613  -18.0235  -13.9123 O   0  0  0  0  0  0  0  0  0  0  0  0
   24.2076  -17.9070  -14.4284 N   0  0  0  0  0  0  0  0  0  0  0  0
   23.4324  -19.0752  -14.1292 C   0  0  0  0  0  0  0  0  0  0  0  0
   22.2952  -19.1335  -14.6456 O   0  0  0  0  0  0  0  0  0  0  0  0
   24.0028  -20.1130  -13.2543 C   0  0  0  0  0  0  0  0  0  0  0  0
   25.3864  -19.7111  -12.8349 C   0  0  2  0  0  0  0  0  0  0  0  0
   26.3042  -20.0960  -13.9053 N   0  0  0  0  0  0  0  0  0  0  0  0
   25.7881  -20.4943  -11.6081 C   0  0  0  0  0  0  0  0  0  0  0  0
   25.7427  -21.7482  -11.5832 O   0  0  0  0  0  0  0  0  0  0  0  0
   29.8257  -19.7819   -5.7105 C   0  0  0  0  0  0  0  0  0  0  0  0
   28.1421  -19.1406   -5.7863 S   0  0  0  0  0  0  0  0  0  0  0  0
   27.1137  -20.2222   -6.8365 C   0  0  0  0  0  0  0  0  0  0  0  0
   27.0167  -19.6691   -8.2118 C   0  0  0  0  0  0  0  0  0  0  0  0
   26.2727  -20.5687   -9.1667 C   0  0  2  0  0  0  0  0  0  0  0  0
   26.2341  -19.8347  -10.4328 N   0  0  0  0  0  0  0  0  0  0  0  0
   24.9325  -20.8326   -8.6537 C   0  0  0  0  0  0  0  0  0  0  0  0
   24.7853  -21.8340   -7.6722 O   0  0  0  0  0  0  0  0  0  0  0  0
   23.9025  -20.2520   -9.0047 O   0  0  0  0  0  0  0  0  0  0  0  0
  2  1  1  6
  2  3  1  0
  4  2  1  0
  4  6  1  0
  4  5  1  6
  6  7  2  0
  9 11  1  0
  9  8  1  0
 10  9  2  0
 12 11  1  6
 13  6  1  0
 13 12  1  0
 14 12  1  0
 14 15  2  0
 16 17  1  0
 18 17  1  0
 19 18  1  0
 20 21  1  0
 20 19  1  1
 21 14  1  0
 22 20  1  0
 23 22  1  0
 24 22  2  0
M  END
$$$$
