VNM.pdb
     RDKit          3D

 24 23  0  0  1  0  0  0  0  0999 V2000
   14.6791  -10.4508  -18.2017 C   0  0  0  0  0  0  0  0  0  0  0  0
   14.7075  -11.1816  -16.8958 C   0  0  2  0  0  0  0  0  0  0  0  0
   13.3141  -11.5940  -16.4577 C   0  0  0  0  0  0  0  0  0  0  0  0
   15.3447  -10.3523  -15.8077 C   0  0  2  0  0  0  0  0  0  0  0  0
   14.6332   -9.1508  -15.5191 N   0  0  0  0  0  0  0  0  0  0  0  0
   16.7224  -10.0078  -16.2309 C   0  0  0  0  0  0  0  0  0  0  0  0
   17.5544  -10.9117  -16.5016 O   0  0  0  0  0  0  0  0  0  0  0  0
   19.4254   -9.3864  -18.9049 N   0  0  0  0  0  0  0  0  0  0  0  0
   18.9724   -8.0326  -19.0357 C   0  0  0  0  0  0  0  0  0  0  0  0
   19.0981   -7.5123  -20.1656 O   0  0  0  0  0  0  0  0  0  0  0  0
   18.3999   -7.3488  -17.8641 C   0  0  0  0  0  0  0  0  0  0  0  0
   18.4645   -8.2573  -16.6715 C   0  0  2  0  0  0  0  0  0  0  0  0
   17.0955   -8.6375  -16.3283 N   0  0  0  0  0  0  0  0  0  0  0  0
   19.0196   -7.4986  -15.4900 C   0  0  0  0  0  0  0  0  0  0  0  0
   18.3292   -6.6585  -14.8635 O   0  0  0  0  0  0  0  0  0  0  0  0
   22.6118  -10.1842  -11.3309 C   0  0  0  0  0  0  0  0  0  0  0  0
   23.2188   -8.5306  -10.9453 S   0  0  0  0  0  0  0  0  0  0  0  0
   22.2644   -7.2868  -11.8794 C   0  0  0  0  0  0  0  0  0  0  0  0
   21.6225   -7.9096  -13.0655 C   0  0  0  0  0  0  0  0  0  0  0  0
   20.8676   -6.9247  -13.9227 C   0  0  2  0  0  0  0  0  0  0  0  0
   20.3506   -7.7109  -15.0442 N   0  0  0  0  0  0  0  0  0  0  0  0
   21.7690   -5.8692  -14.3724 C   0  0  0  0  0  0  0  0  0  0  0  0
   21.9613   -4.7584  -13.5257 O   0  0  0  0  0  0  0  0  0  0  0  0
   22.3866   -5.8595  -15.4400 O   0  0  0  0  0  0  0  0  0  0  0  0
  2  1  1  6
  2  3  1  0
  4  2  1  0
  4  6  1  0
  4  5  1  6
  6  7  2  0
  9 11  1  0
  9  8  1  0
 10  9  2  0
 12 11  1  6
 13  6  1  0
 13 12  1  0
 14 12  1  0
 14 15  2  0
 16 17  1  0
 18 17  1  0
 19 18  1  0
 20 21  1  0
 20 19  1  1
 21 14  1  0
 22 20  1  0
 23 22  1  0
 24 22  2  0
M  END
$$$$
