HAL.pdb
     RDKit          3D

 24 24  0  0  1  0  0  0  0  0999 V2000
    8.3086  -17.0055   18.8413 N   0  0  0  0  0  0  0  0  0  0  0  0
    8.1241  -15.9101   19.7609 C   0  0  1  0  0  0  0  0  0  0  0  0
    7.1831  -14.9064   19.1860 C   0  0  0  0  0  0  0  0  0  0  0  0
    7.6273  -14.3390   17.9035 C   0  0  0  0  0  0  0  0  0  0  0  0
    8.4312  -13.2624   17.6811 C   0  0  0  0  0  0  0  0  0  0  0  0
    8.5872  -13.0743   16.3533 N   0  0  0  0  0  0  0  0  0  0  0  0
    7.8853  -14.0269   15.7527 C   0  0  0  0  0  0  0  0  0  0  0  0
    7.2998  -14.7989   16.6602 N   0  0  0  0  0  0  0  0  0  0  0  0
    7.7919  -16.3504   21.1381 C   0  0  0  0  0  0  0  0  0  0  0  0
    6.6121  -16.6677   21.4527 O   0  0  0  0  0  0  0  0  0  0  0  0
    9.2606  -18.2633   23.6137 C   0  0  0  0  0  0  0  0  0  0  0  0
    8.5377  -16.9399   23.4782 C   0  0  2  0  0  0  0  0  0  0  0  0
    8.7583  -16.4378   22.1593 N   0  0  0  0  0  0  0  0  0  0  0  0
    9.0409  -15.9747   24.5146 C   0  0  0  0  0  0  0  0  0  0  0  0
   10.1313  -15.3733   24.4054 O   0  0  0  0  0  0  0  0  0  0  0  0
    8.3166  -11.8746   25.9439 C   0  0  0  0  0  0  0  0  0  0  0  0
    7.2122  -12.8286   26.3082 C   0  0  2  0  0  0  0  0  0  0  0  0
    6.0392  -12.0312   26.9031 C   0  0  0  0  0  0  0  0  0  0  0  0
    7.6710  -13.8821   27.2388 C   0  0  0  0  0  0  0  0  0  0  0  0
    8.6677  -14.8665   26.7556 C   0  0  2  0  0  0  0  0  0  0  0  0
    8.2566  -15.7230   25.6744 N   0  0  0  0  0  0  0  0  0  0  0  0
    9.2560  -15.6934   27.8396 C   0  0  0  0  0  0  0  0  0  0  0  0
    9.0007  -16.9169   27.9372 O   0  0  0  0  0  0  0  0  0  0  0  0
   10.1079  -15.1447   28.7824 O   0  0  0  0  0  0  0  0  0  0  0  0
  2  1  1  6
  3  4  1  0
  3  2  1  0
  4  5  2  0
  6  5  1  0
  7  6  1  0
  8  7  2  0
  8  4  1  0
  9  2  1  0
 10  9  2  0
 12 11  1  6
 12 14  1  0
 12 13  1  0
 13  9  1  0
 14 21  1  0
 15 14  2  0
 17 16  1  1
 18 17  1  0
 19 17  1  0
 20 19  1  1
 20 22  1  0
 21 20  1  0
 22 23  2  0
 22 24  1  0
M  END
$$$$
