HAL.pdb
     RDKit          3D

 24 24  0  0  1  0  0  0  0  0999 V2000
    7.9585  -17.2103   18.4363 N   0  0  0  0  0  0  0  0  0  0  0  0
    8.1606  -16.0573   19.2786 C   0  0  1  0  0  0  0  0  0  0  0  0
    7.3587  -14.9047   18.7769 C   0  0  0  0  0  0  0  0  0  0  0  0
    7.8422  -14.3522   17.5021 C   0  0  0  0  0  0  0  0  0  0  0  0
    8.8952  -14.7608   16.7412 C   0  0  0  0  0  0  0  0  0  0  0  0
    9.0003  -13.9775   15.6467 N   0  0  0  0  0  0  0  0  0  0  0  0
    8.0197  -13.0869   15.7251 C   0  0  0  0  0  0  0  0  0  0  0  0
    7.3104  -13.2899   16.8287 N   0  0  0  0  0  0  0  0  0  0  0  0
    7.9868  -16.3486   20.7228 C   0  0  0  0  0  0  0  0  0  0  0  0
    6.8922  -16.1177   21.3058 O   0  0  0  0  0  0  0  0  0  0  0  0
   10.0196  -18.1823   23.2555 C   0  0  0  0  0  0  0  0  0  0  0  0
    8.9308  -17.1886   22.9099 C   0  0  2  0  0  0  0  0  0  0  0  0
    9.0175  -16.8906   21.5157 N   0  0  0  0  0  0  0  0  0  0  0  0
    9.0921  -15.9454   23.7389 C   0  0  0  0  0  0  0  0  0  0  0  0
    9.8625  -15.0145   23.4185 O   0  0  0  0  0  0  0  0  0  0  0  0
    5.8775  -12.2648   27.3615 C   0  0  0  0  0  0  0  0  0  0  0  0
    7.2505  -12.7859   27.0361 C   0  0  2  0  0  0  0  0  0  0  0  0
    8.1109  -11.6279   26.5026 C   0  0  0  0  0  0  0  0  0  0  0  0
    7.2065  -13.9084   26.0747 C   0  0  0  0  0  0  0  0  0  0  0  0
    8.4493  -14.6772   25.8288 C   0  0  2  0  0  0  0  0  0  0  0  0
    8.3449  -15.8054   24.9413 N   0  0  0  0  0  0  0  0  0  0  0  0
    9.1424  -15.0952   27.0737 C   0  0  0  0  0  0  0  0  0  0  0  0
    9.0904  -16.2794   27.4819 O   0  0  0  0  0  0  0  0  0  0  0  0
    9.8715  -14.1937   27.8296 O   0  0  0  0  0  0  0  0  0  0  0  0
  2  1  1  6
  3  4  1  0
  3  2  1  0
  4  5  2  0
  6  5  1  0
  7  6  1  0
  8  7  2  0
  8  4  1  0
  9  2  1  0
 10  9  2  0
 12 11  1  1
 12 14  1  0
 12 13  1  0
 13  9  1  0
 14 21  1  0
 15 14  2  0
 17 16  1  6
 18 17  1  0
 19 17  1  0
 20 19  1  1
 20 22  1  0
 21 20  1  0
 22 23  2  0
 22 24  1  0
M  END
$$$$
