HAL.pdb
     RDKit          3D

 24 24  0  0  1  0  0  0  0  0999 V2000
    8.0568  -17.3713   19.2256 N   0  0  0  0  0  0  0  0  0  0  0  0
    8.5704  -16.3001   20.0432 C   0  0  1  0  0  0  0  0  0  0  0  0
    7.8372  -15.0340   19.7553 C   0  0  0  0  0  0  0  0  0  0  0  0
    8.0507  -14.5178   18.3944 C   0  0  0  0  0  0  0  0  0  0  0  0
    8.8430  -15.0203   17.4072 C   0  0  0  0  0  0  0  0  0  0  0  0
    8.7576  -14.2389   16.3096 N   0  0  0  0  0  0  0  0  0  0  0  0
    7.9182  -13.2563   16.6109 C   0  0  0  0  0  0  0  0  0  0  0  0
    7.4800  -13.4004   17.8557 N   0  0  0  0  0  0  0  0  0  0  0  0
    8.6567  -16.6504   21.4822 C   0  0  0  0  0  0  0  0  0  0  0  0
    7.6197  -16.7272   22.1962 O   0  0  0  0  0  0  0  0  0  0  0  0
   11.3793  -17.9551   23.6659 C   0  0  0  0  0  0  0  0  0  0  0  0
   10.0466  -17.2551   23.5026 C   0  0  2  0  0  0  0  0  0  0  0  0
    9.8821  -16.9128   22.1257 N   0  0  0  0  0  0  0  0  0  0  0  0
   10.0032  -16.0302   24.3726 C   0  0  0  0  0  0  0  0  0  0  0  0
   10.5738  -14.9616   24.0643 O   0  0  0  0  0  0  0  0  0  0  0  0
    6.3385  -12.4366   27.2199 C   0  0  0  0  0  0  0  0  0  0  0  0
    7.6988  -13.0615   27.3671 C   0  0  2  0  0  0  0  0  0  0  0  0
    8.7698  -11.9672   27.2203 C   0  0  0  0  0  0  0  0  0  0  0  0
    7.9157  -14.1574   26.3984 C   0  0  0  0  0  0  0  0  0  0  0  0
    9.1621  -14.9526   26.4986 C   0  0  2  0  0  0  0  0  0  0  0  0
    9.2876  -16.0709   25.6013 N   0  0  0  0  0  0  0  0  0  0  0  0
    9.4709  -15.3966   27.8816 C   0  0  0  0  0  0  0  0  0  0  0  0
    9.9703  -14.6115   28.7216 O   0  0  0  0  0  0  0  0  0  0  0  0
    9.2189  -16.6933   28.2948 O   0  0  0  0  0  0  0  0  0  0  0  0
  2  1  1  6
  3  4  1  0
  3  2  1  0
  4  5  2  0
  6  5  1  0
  7  6  1  0
  8  7  2  0
  8  4  1  0
  9  2  1  0
 10  9  2  0
 12 11  1  6
 12 14  1  0
 12 13  1  0
 13  9  1  0
 14 21  1  0
 15 14  2  0
 17 16  1  6
 18 17  1  0
 19 17  1  0
 20 19  1  1
 20 22  1  0
 21 20  1  0
 22 23  2  0
 22 24  1  0
M  END
$$$$
