HAL.pdb
     RDKit          3D

 24 24  0  0  1  0  0  0  0  0999 V2000
    8.0467  -17.0361   18.4546 N   0  0  0  0  0  0  0  0  0  0  0  0
    8.1836  -15.9249   19.3634 C   0  0  1  0  0  0  0  0  0  0  0  0
    7.3848  -14.7619   18.8807 C   0  0  0  0  0  0  0  0  0  0  0  0
    7.7513  -14.3064   17.5307 C   0  0  0  0  0  0  0  0  0  0  0  0
    8.4453  -13.1926   17.1666 C   0  0  0  0  0  0  0  0  0  0  0  0
    8.5600  -13.1441   15.8223 N   0  0  0  0  0  0  0  0  0  0  0  0
    7.9418  -14.2199   15.3522 C   0  0  0  0  0  0  0  0  0  0  0  0
    7.4478  -14.9338   16.3565 N   0  0  0  0  0  0  0  0  0  0  0  0
    7.9439  -16.2933   20.7803 C   0  0  0  0  0  0  0  0  0  0  0  0
    6.8074  -16.1453   21.3076 O   0  0  0  0  0  0  0  0  0  0  0  0
    9.7690  -18.3176   23.2796 C   0  0  0  0  0  0  0  0  0  0  0  0
    8.8054  -17.1890   22.9793 C   0  0  2  0  0  0  0  0  0  0  0  0
    8.9551  -16.8206   21.6074 N   0  0  0  0  0  0  0  0  0  0  0  0
    9.0860  -16.0231   23.8853 C   0  0  0  0  0  0  0  0  0  0  0  0
   10.1230  -15.3308   23.7946 O   0  0  0  0  0  0  0  0  0  0  0  0
    5.8705  -11.8370   27.0412 C   0  0  0  0  0  0  0  0  0  0  0  0
    7.1987  -12.5149   26.8443 C   0  0  2  0  0  0  0  0  0  0  0  0
    8.2142  -11.4829   26.3250 C   0  0  0  0  0  0  0  0  0  0  0  0
    7.1015  -13.6763   25.9344 C   0  0  0  0  0  0  0  0  0  0  0  0
    8.2855  -14.5539   25.7800 C   0  0  2  0  0  0  0  0  0  0  0  0
    8.1434  -15.6788   24.8935 N   0  0  0  0  0  0  0  0  0  0  0  0
    8.8514  -15.0168   27.0725 C   0  0  0  0  0  0  0  0  0  0  0  0
    8.3918  -16.0234   27.6615 O   0  0  0  0  0  0  0  0  0  0  0  0
    9.9069  -14.3545   27.6749 O   0  0  0  0  0  0  0  0  0  0  0  0
  2  1  1  6
  3  4  1  0
  3  2  1  0
  4  5  2  0
  6  5  1  0
  7  6  1  0
  8  7  2  0
  8  4  1  0
  9  2  1  0
 10  9  2  0
 12 11  1  1
 12 14  1  0
 12 13  1  0
 13  9  1  0
 14 21  1  0
 15 14  2  0
 17 16  1  6
 18 17  1  0
 19 17  1  0
 20 19  1  1
 20 22  1  0
 21 20  1  0
 22 23  2  0
 22 24  1  0
M  END
$$$$
