HAL.pdb
     RDKit          3D

 24 24  0  0  1  0  0  0  0  0999 V2000
    8.4874  -17.0380   18.7042 N   0  0  0  0  0  0  0  0  0  0  0  0
    8.5429  -15.9258   19.6205 C   0  0  1  0  0  0  0  0  0  0  0  0
    7.5286  -14.8985   19.2471 C   0  0  0  0  0  0  0  0  0  0  0  0
    7.6907  -14.3688   17.8843 C   0  0  0  0  0  0  0  0  0  0  0  0
    8.2079  -13.1717   17.4914 C   0  0  0  0  0  0  0  0  0  0  0  0
    8.1689  -13.0760   16.1453 N   0  0  0  0  0  0  0  0  0  0  0  0
    7.6310  -14.2053   15.7026 C   0  0  0  0  0  0  0  0  0  0  0  0
    7.3352  -14.9979   16.7257 N   0  0  0  0  0  0  0  0  0  0  0  0
    8.5092  -16.3377   21.0453 C   0  0  0  0  0  0  0  0  0  0  0  0
    7.4258  -16.3575   21.6912 O   0  0  0  0  0  0  0  0  0  0  0  0
   11.0027  -17.8530   23.3744 C   0  0  0  0  0  0  0  0  0  0  0  0
    9.7240  -17.0793   23.1319 C   0  0  2  0  0  0  0  0  0  0  0  0
    9.6664  -16.7239   21.7497 N   0  0  0  0  0  0  0  0  0  0  0  0
    9.6933  -15.8568   24.0057 C   0  0  0  0  0  0  0  0  0  0  0  0
    9.8885  -14.7042   23.5627 O   0  0  0  0  0  0  0  0  0  0  0  0
    5.9974  -12.5952   26.3901 C   0  0  0  0  0  0  0  0  0  0  0  0
    7.3796  -13.0609   26.7578 C   0  0  2  0  0  0  0  0  0  0  0  0
    8.3280  -11.8500   26.7704 C   0  0  0  0  0  0  0  0  0  0  0  0
    7.8713  -14.1177   25.8481 C   0  0  0  0  0  0  0  0  0  0  0  0
    9.0523  -14.9121   26.2608 C   0  0  2  0  0  0  0  0  0  0  0  0
    9.4328  -15.9985   25.3969 N   0  0  0  0  0  0  0  0  0  0  0  0
    8.9757  -15.4023   27.6604 C   0  0  0  0  0  0  0  0  0  0  0  0
    9.5932  -14.8265   28.5870 O   0  0  0  0  0  0  0  0  0  0  0  0
    8.2200  -16.5128   27.9942 O   0  0  0  0  0  0  0  0  0  0  0  0
  2  1  1  6
  3  4  1  0
  3  2  1  0
  4  5  2  0
  6  5  1  0
  7  6  1  0
  8  7  2  0
  8  4  1  0
  9  2  1  0
 10  9  2  0
 12 11  1  6
 12 14  1  0
 12 13  1  0
 13  9  1  0
 14 21  1  0
 15 14  2  0
 17 16  1  6
 18 17  1  0
 19 17  1  0
 20 19  1  6
 20 22  1  0
 21 20  1  0
 22 23  2  0
 22 24  1  0
M  END
$$$$
