HAL.pdb
     RDKit          3D

 24 24  0  0  1  0  0  0  0  0999 V2000
    6.2513  -17.2251   20.5533 N   0  0  0  0  0  0  0  0  0  0  0  0
    7.4548  -16.4649   20.7838 C   0  0  1  0  0  0  0  0  0  0  0  0
    7.1545  -15.0044   20.7639 C   0  0  0  0  0  0  0  0  0  0  0  0
    7.5066  -14.3407   19.4991 C   0  0  0  0  0  0  0  0  0  0  0  0
    8.0574  -14.8822   18.3775 C   0  0  0  0  0  0  0  0  0  0  0  0
    8.2256  -13.9237   17.4417 N   0  0  0  0  0  0  0  0  0  0  0  0
    7.7829  -12.7930   17.9767 C   0  0  0  0  0  0  0  0  0  0  0  0
    7.3461  -13.0158   19.2103 N   0  0  0  0  0  0  0  0  0  0  0  0
    8.2190  -16.9222   21.9703 C   0  0  0  0  0  0  0  0  0  0  0  0
    7.6434  -17.5052   22.9296 O   0  0  0  0  0  0  0  0  0  0  0  0
   11.8713  -16.9716   22.8215 C   0  0  0  0  0  0  0  0  0  0  0  0
   10.4158  -17.1588   23.1943 C   0  0  2  0  0  0  0  0  0  0  0  0
    9.6097  -16.7346   22.0941 N   0  0  0  0  0  0  0  0  0  0  0  0
   10.0997  -16.3672   24.4322 C   0  0  0  0  0  0  0  0  0  0  0  0
   10.6554  -16.5808   25.5314 O   0  0  0  0  0  0  0  0  0  0  0  0
    6.5701  -13.1724   27.3148 C   0  0  0  0  0  0  0  0  0  0  0  0
    7.4472  -12.4796   26.3082 C   0  0  2  0  0  0  0  0  0  0  0  0
    6.7188  -11.2287   25.7880 C   0  0  0  0  0  0  0  0  0  0  0  0
    7.8345  -13.3754   25.1973 C   0  0  0  0  0  0  0  0  0  0  0  0
    8.7969  -14.4678   25.4733 C   0  0  2  0  0  0  0  0  0  0  0  0
    9.1306  -15.3278   24.3686 N   0  0  0  0  0  0  0  0  0  0  0  0
    8.4278  -15.2987   26.6474 C   0  0  0  0  0  0  0  0  0  0  0  0
    8.8678  -15.0403   27.7924 O   0  0  0  0  0  0  0  0  0  0  0  0
    7.5847  -16.3891   26.5215 O   0  0  0  0  0  0  0  0  0  0  0  0
  2  1  1  1
  3  4  1  0
  3  2  1  0
  4  5  2  0
  6  5  1  0
  7  6  1  0
  8  7  2  0
  8  4  1  0
  9  2  1  0
 10  9  2  0
 12 11  1  6
 12 14  1  0
 12 13  1  0
 13  9  1  0
 14 21  1  0
 15 14  2  0
 17 16  1  1
 18 17  1  0
 19 17  1  0
 20 19  1  6
 20 22  1  0
 21 20  1  0
 22 23  2  0
 22 24  1  0
M  END
$$$$
