HAL.pdb
     RDKit          3D

 24 24  0  0  1  0  0  0  0  0999 V2000
    9.4348  -15.7979   18.6635 N   0  0  0  0  0  0  0  0  0  0  0  0
    8.4655  -14.9649   19.3315 C   0  0  1  0  0  0  0  0  0  0  0  0
    7.2842  -14.7392   18.4500 C   0  0  0  0  0  0  0  0  0  0  0  0
    7.6320  -14.3283   17.0810 C   0  0  0  0  0  0  0  0  0  0  0  0
    8.1247  -13.1344   16.6491 C   0  0  0  0  0  0  0  0  0  0  0  0
    8.3012  -13.1692   15.3111 N   0  0  0  0  0  0  0  0  0  0  0  0
    7.9210  -14.3762   14.9121 C   0  0  0  0  0  0  0  0  0  0  0  0
    7.5151  -15.0911   15.9545 N   0  0  0  0  0  0  0  0  0  0  0  0
    8.1346  -15.4325   20.7000 C   0  0  0  0  0  0  0  0  0  0  0  0
    7.1841  -14.9185   21.3509 O   0  0  0  0  0  0  0  0  0  0  0  0
    9.4538  -18.1852   22.8804 C   0  0  0  0  0  0  0  0  0  0  0  0
    8.6142  -16.9435   22.6664 C   0  0  2  0  0  0  0  0  0  0  0  0
    8.8514  -16.4606   21.3433 N   0  0  0  0  0  0  0  0  0  0  0  0
    8.9690  -15.9040   23.6923 C   0  0  0  0  0  0  0  0  0  0  0  0
   10.0272  -15.2402   23.6441 O   0  0  0  0  0  0  0  0  0  0  0  0
    5.9474  -11.9862   27.3302 C   0  0  0  0  0  0  0  0  0  0  0  0
    7.2504  -12.6859   27.0561 C   0  0  2  0  0  0  0  0  0  0  0  0
    8.3072  -11.6388   26.6655 C   0  0  0  0  0  0  0  0  0  0  0  0
    7.1153  -13.7260   26.0138 C   0  0  0  0  0  0  0  0  0  0  0  0
    8.2686  -14.6192   25.7533 C   0  0  2  0  0  0  0  0  0  0  0  0
    8.0752  -15.6521   24.7699 N   0  0  0  0  0  0  0  0  0  0  0  0
    8.8443  -15.2164   26.9849 C   0  0  0  0  0  0  0  0  0  0  0  0
    9.5127  -14.5279   27.7916 O   0  0  0  0  0  0  0  0  0  0  0  0
    8.6647  -16.5548   27.2882 O   0  0  0  0  0  0  0  0  0  0  0  0
  2  1  1  6
  3  4  1  0
  3  2  1  0
  4  5  2  0
  6  5  1  0
  7  6  1  0
  8  7  2  0
  8  4  1  0
  9  2  1  0
 10  9  2  0
 12 11  1  1
 12 14  1  0
 12 13  1  0
 13  9  1  0
 14 21  1  0
 15 14  2  0
 17 16  1  6
 18 17  1  0
 19 17  1  0
 20 19  1  1
 20 22  1  0
 21 20  1  0
 22 23  2  0
 22 24  1  0
M  END
$$$$
