HAL.pdb
     RDKit          3D

 24 24  0  0  1  0  0  0  0  0999 V2000
    8.9960  -16.5474   19.1252 N   0  0  0  0  0  0  0  0  0  0  0  0
    8.3697  -15.5275   19.9297 C   0  0  1  0  0  0  0  0  0  0  0  0
    7.2520  -14.8898   19.1763 C   0  0  0  0  0  0  0  0  0  0  0  0
    7.6165  -14.4640   17.8162 C   0  0  0  0  0  0  0  0  0  0  0  0
    8.3025  -13.3541   17.4261 C   0  0  0  0  0  0  0  0  0  0  0  0
    8.4184  -13.3369   16.0811 N   0  0  0  0  0  0  0  0  0  0  0  0
    7.8087  -14.4283   15.6364 C   0  0  0  0  0  0  0  0  0  0  0  0
    7.3191  -15.1217   16.6570 N   0  0  0  0  0  0  0  0  0  0  0  0
    8.0101  -15.9935   21.2914 C   0  0  0  0  0  0  0  0  0  0  0  0
    6.8046  -16.1547   21.6265 O   0  0  0  0  0  0  0  0  0  0  0  0
    9.3859  -18.1778   23.6618 C   0  0  0  0  0  0  0  0  0  0  0  0
    8.7186  -16.8218   23.5699 C   0  0  2  0  0  0  0  0  0  0  0  0
    8.9778  -16.2779   22.2749 N   0  0  0  0  0  0  0  0  0  0  0  0
    9.2452  -15.9192   24.6501 C   0  0  0  0  0  0  0  0  0  0  0  0
   10.3958  -15.4311   24.6219 O   0  0  0  0  0  0  0  0  0  0  0  0
    8.3689  -11.7280   25.8452 C   0  0  0  0  0  0  0  0  0  0  0  0
    7.3229  -12.7399   26.2254 C   0  0  2  0  0  0  0  0  0  0  0  0
    6.0671  -11.9998   26.7166 C   0  0  0  0  0  0  0  0  0  0  0  0
    7.8150  -13.6940   27.2421 C   0  0  0  0  0  0  0  0  0  0  0  0
    8.8033  -14.7184   26.8300 C   0  0  2  0  0  0  0  0  0  0  0  0
    8.4136  -15.5962   25.7581 N   0  0  0  0  0  0  0  0  0  0  0  0
    9.3237  -15.5273   27.9614 C   0  0  0  0  0  0  0  0  0  0  0  0
    9.8472  -14.9850   28.9631 O   0  0  0  0  0  0  0  0  0  0  0  0
    9.2503  -16.9093   27.9524 O   0  0  0  0  0  0  0  0  0  0  0  0
  2  1  1  6
  3  4  1  0
  3  2  1  0
  4  5  2  0
  6  5  1  0
  7  6  1  0
  8  7  2  0
  8  4  1  0
  9  2  1  0
 10  9  2  0
 12 11  1  6
 12 14  1  0
 12 13  1  0
 13  9  1  0
 14 21  1  0
 15 14  2  0
 17 16  1  1
 18 17  1  0
 19 17  1  0
 20 19  1  1
 20 22  1  0
 21 20  1  0
 22 23  2  0
 22 24  1  0
M  END
$$$$
