HAL.pdb
     RDKit          3D

 24 24  0  0  1  0  0  0  0  0999 V2000
    7.1261  -20.1604   22.1480 N   0  0  0  0  0  0  0  0  0  0  0  0
    6.7671  -18.9270   22.8033 C   0  0  1  0  0  0  0  0  0  0  0  0
    6.6909  -19.1297   24.2787 C   0  0  0  0  0  0  0  0  0  0  0  0
    5.9413  -20.3310   24.6774 C   0  0  0  0  0  0  0  0  0  0  0  0
    5.3300  -21.2554   23.8859 C   0  0  0  0  0  0  0  0  0  0  0  0
    4.7472  -22.2011   24.6531 N   0  0  0  0  0  0  0  0  0  0  0  0
    4.9935  -21.8682   25.9137 C   0  0  0  0  0  0  0  0  0  0  0  0
    5.7081  -20.7502   25.9558 N   0  0  0  0  0  0  0  0  0  0  0  0
    7.5997  -17.7744   22.3803 C   0  0  0  0  0  0  0  0  0  0  0  0
    8.8508  -17.8844   22.2621 O   0  0  0  0  0  0  0  0  0  0  0  0
    6.8373  -14.3443   21.1082 C   0  0  0  0  0  0  0  0  0  0  0  0
    7.7899  -15.3393   21.7367 C   0  0  2  0  0  0  0  0  0  0  0  0
    7.0513  -16.5093   22.0915 N   0  0  0  0  0  0  0  0  0  0  0  0
    8.4446  -14.7275   22.9434 C   0  0  0  0  0  0  0  0  0  0  0  0
    9.4021  -13.9281   22.8605 O   0  0  0  0  0  0  0  0  0  0  0  0
    5.8092  -12.1564   26.9331 C   0  0  0  0  0  0  0  0  0  0  0  0
    7.2169  -12.5028   26.5318 C   0  0  2  0  0  0  0  0  0  0  0  0
    7.5560  -11.7748   25.2200 C   0  0  0  0  0  0  0  0  0  0  0  0
    7.4156  -13.9623   26.4020 C   0  0  0  0  0  0  0  0  0  0  0  0
    8.4450  -14.4538   25.4561 C   0  0  2  0  0  0  0  0  0  0  0  0
    7.9677  -15.0606   24.2415 N   0  0  0  0  0  0  0  0  0  0  0  0
    9.4507  -15.3455   26.0874 C   0  0  0  0  0  0  0  0  0  0  0  0
    9.6033  -16.5293   25.7042 O   0  0  0  0  0  0  0  0  0  0  0  0
   10.2569  -14.9033   27.1218 O   0  0  0  0  0  0  0  0  0  0  0  0
  2  1  1  6
  3  4  1  0
  3  2  1  0
  4  5  2  0
  6  5  1  0
  7  6  1  0
  8  7  2  0
  8  4  1  0
  9  2  1  0
 10  9  2  0
 12 11  1  1
 12 14  1  0
 12 13  1  0
 13  9  1  0
 14 21  1  0
 15 14  2  0
 17 16  1  6
 18 17  1  0
 19 17  1  0
 20 19  1  1
 20 22  1  0
 21 20  1  0
 22 23  2  0
 22 24  1  0
M  END
$$$$
