HAL.pdb
     RDKit          3D

 24 24  0  0  1  0  0  0  0  0999 V2000
    8.3784  -17.1939   18.4397 N   0  0  0  0  0  0  0  0  0  0  0  0
    8.5405  -16.1069   19.3733 C   0  0  1  0  0  0  0  0  0  0  0  0
    7.6804  -14.9546   18.9784 C   0  0  0  0  0  0  0  0  0  0  0  0
    7.9800  -14.4177   17.6420 C   0  0  0  0  0  0  0  0  0  0  0  0
    9.1127  -13.7994   17.2066 C   0  0  0  0  0  0  0  0  0  0  0  0
    8.9757  -13.4546   15.9085 N   0  0  0  0  0  0  0  0  0  0  0  0
    7.7663  -13.8551   15.5378 C   0  0  0  0  0  0  0  0  0  0  0  0
    7.1484  -14.4359   16.5591 N   0  0  0  0  0  0  0  0  0  0  0  0
    8.4009  -16.5249   20.7899 C   0  0  0  0  0  0  0  0  0  0  0  0
    7.2834  -16.8780   21.2567 O   0  0  0  0  0  0  0  0  0  0  0  0
   10.6442  -17.8672   23.3063 C   0  0  0  0  0  0  0  0  0  0  0  0
    9.4448  -16.9810   23.0442 C   0  0  2  0  0  0  0  0  0  0  0  0
    9.4901  -16.5509   21.6829 N   0  0  0  0  0  0  0  0  0  0  0  0
    9.4625  -15.8069   23.9824 C   0  0  0  0  0  0  0  0  0  0  0  0
   10.2493  -14.8450   23.8466 O   0  0  0  0  0  0  0  0  0  0  0  0
    5.8312  -12.1355   27.0495 C   0  0  0  0  0  0  0  0  0  0  0  0
    7.1715  -12.8168   27.0905 C   0  0  2  0  0  0  0  0  0  0  0  0
    8.2758  -11.7561   26.9438 C   0  0  0  0  0  0  0  0  0  0  0  0
    7.2947  -13.8657   26.0557 C   0  0  0  0  0  0  0  0  0  0  0  0
    8.5076  -14.7171   26.0534 C   0  0  2  0  0  0  0  0  0  0  0  0
    8.5532  -15.7723   25.0757 N   0  0  0  0  0  0  0  0  0  0  0  0
    8.8434  -15.2717   27.3893 C   0  0  0  0  0  0  0  0  0  0  0  0
    9.5323  -14.6213   28.2103 O   0  0  0  0  0  0  0  0  0  0  0  0
    8.4087  -16.5270   27.7780 O   0  0  0  0  0  0  0  0  0  0  0  0
  2  1  1  6
  3  4  1  0
  3  2  1  0
  4  5  2  0
  6  5  1  0
  7  6  1  0
  8  7  2  0
  8  4  1  0
  9  2  1  0
 10  9  2  0
 12 11  1  1
 12 14  1  0
 12 13  1  0
 13  9  1  0
 14 21  1  0
 15 14  2  0
 17 16  1  6
 18 17  1  0
 19 17  1  0
 20 19  1  1
 20 22  1  0
 21 20  1  0
 22 23  2  0
 22 24  1  0
M  END
$$$$
