HAL.pdb
     RDKit          3D

 24 24  0  0  1  0  0  0  0  0999 V2000
    7.5367  -17.0166   19.0073 N   0  0  0  0  0  0  0  0  0  0  0  0
    7.9011  -16.0195   19.9833 C   0  0  1  0  0  0  0  0  0  0  0  0
    7.2712  -14.7111   19.6444 C   0  0  0  0  0  0  0  0  0  0  0  0
    7.7648  -14.1187   18.3915 C   0  0  0  0  0  0  0  0  0  0  0  0
    8.4604  -12.9617   18.2123 C   0  0  0  0  0  0  0  0  0  0  0  0
    8.7152  -12.7796   16.8991 N   0  0  0  0  0  0  0  0  0  0  0  0
    8.1820  -13.8158   16.2645 C   0  0  0  0  0  0  0  0  0  0  0  0
    7.6059  -14.6339   17.1370 N   0  0  0  0  0  0  0  0  0  0  0  0
    7.6880  -16.4635   21.3827 C   0  0  0  0  0  0  0  0  0  0  0  0
    6.5601  -16.8749   21.7699 O   0  0  0  0  0  0  0  0  0  0  0  0
    9.3053  -18.2738   23.7710 C   0  0  0  0  0  0  0  0  0  0  0  0
    8.6100  -16.9314   23.6872 C   0  0  2  0  0  0  0  0  0  0  0  0
    8.7157  -16.4511   22.3462 N   0  0  0  0  0  0  0  0  0  0  0  0
    9.2382  -15.9695   24.6564 C   0  0  0  0  0  0  0  0  0  0  0  0
   10.3987  -15.5273   24.5137 O   0  0  0  0  0  0  0  0  0  0  0  0
    7.5850  -12.0163   25.5062 C   0  0  0  0  0  0  0  0  0  0  0  0
    6.9517  -13.0257   26.4240 C   0  0  2  0  0  0  0  0  0  0  0  0
    5.8301  -12.3402   27.2229 C   0  0  0  0  0  0  0  0  0  0  0  0
    7.9406  -13.6583   27.3230 C   0  0  0  0  0  0  0  0  0  0  0  0
    8.9640  -14.5515   26.7307 C   0  0  2  0  0  0  0  0  0  0  0  0
    8.4956  -15.5336   25.7887 N   0  0  0  0  0  0  0  0  0  0  0  0
    9.8271  -15.2140   27.7413 C   0  0  0  0  0  0  0  0  0  0  0  0
   10.4666  -14.5477   28.5891 O   0  0  0  0  0  0  0  0  0  0  0  0
    9.9580  -16.5911   27.7850 O   0  0  0  0  0  0  0  0  0  0  0  0
  2  1  1  6
  3  4  1  0
  3  2  1  0
  4  5  2  0
  6  5  1  0
  7  6  1  0
  8  7  2  0
  8  4  1  0
  9  2  1  0
 10  9  2  0
 12 11  1  6
 12 14  1  0
 12 13  1  0
 13  9  1  0
 14 21  1  0
 15 14  2  0
 17 16  1  1
 18 17  1  0
 19 17  1  0
 20 19  1  1
 20 22  1  0
 21 20  1  0
 22 23  2  0
 22 24  1  0
M  END
$$$$
