HAL.pdb
     RDKit          3D

 24 24  0  0  1  0  0  0  0  0999 V2000
    8.6077  -16.9273   19.1161 N   0  0  0  0  0  0  0  0  0  0  0  0
    8.4092  -15.8066   20.0016 C   0  0  1  0  0  0  0  0  0  0  0  0
    7.4443  -14.8402   19.4028 C   0  0  0  0  0  0  0  0  0  0  0  0
    7.8629  -14.3131   18.0948 C   0  0  0  0  0  0  0  0  0  0  0  0
    8.8231  -13.3882   17.8167 C   0  0  0  0  0  0  0  0  0  0  0  0
    8.8870  -13.1814   16.4841 N   0  0  0  0  0  0  0  0  0  0  0  0
    7.9730  -13.9717   15.9358 C   0  0  0  0  0  0  0  0  0  0  0  0
    7.3447  -14.6612   16.8803 N   0  0  0  0  0  0  0  0  0  0  0  0
    8.0964  -16.2086   21.3950 C   0  0  0  0  0  0  0  0  0  0  0  0
    6.9297  -16.5565   21.7252 O   0  0  0  0  0  0  0  0  0  0  0  0
    9.6328  -18.0179   23.8859 C   0  0  0  0  0  0  0  0  0  0  0  0
    8.8773  -16.7135   23.7434 C   0  0  2  0  0  0  0  0  0  0  0  0
    9.0678  -16.2241   22.4151 N   0  0  0  0  0  0  0  0  0  0  0  0
    9.3720  -15.7231   24.7600 C   0  0  0  0  0  0  0  0  0  0  0  0
   10.4897  -15.1695   24.6761 O   0  0  0  0  0  0  0  0  0  0  0  0
    7.5666  -11.8518   25.6948 C   0  0  0  0  0  0  0  0  0  0  0  0
    6.8582  -12.9155   26.4880 C   0  0  2  0  0  0  0  0  0  0  0  0
    5.6743  -12.2772   27.2340 C   0  0  0  0  0  0  0  0  0  0  0  0
    7.7682  -13.6119   27.4225 C   0  0  0  0  0  0  0  0  0  0  0  0
    8.8881  -14.4030   26.8605 C   0  0  2  0  0  0  0  0  0  0  0  0
    8.5472  -15.3901   25.8701 N   0  0  0  0  0  0  0  0  0  0  0  0
    9.7510  -15.0255   27.8963 C   0  0  0  0  0  0  0  0  0  0  0  0
    9.8387  -16.2710   28.0085 O   0  0  0  0  0  0  0  0  0  0  0  0
   10.4902  -14.2543   28.7764 O   0  0  0  0  0  0  0  0  0  0  0  0
  2  1  1  6
  3  4  1  0
  3  2  1  0
  4  5  2  0
  6  5  1  0
  7  6  1  0
  8  7  2  0
  8  4  1  0
  9  2  1  0
 10  9  2  0
 12 11  1  6
 12 14  1  0
 12 13  1  0
 13  9  1  0
 14 21  1  0
 15 14  2  0
 17 16  1  1
 18 17  1  0
 19 17  1  0
 20 19  1  1
 20 22  1  0
 21 20  1  0
 22 23  2  0
 22 24  1  0
M  END
$$$$
