HAL.pdb
     RDKit          3D

 24 24  0  0  1  0  0  0  0  0999 V2000
    7.4464  -18.8834   20.4366 N   0  0  0  0  0  0  0  0  0  0  0  0
    8.0653  -18.6041   21.7088 C   0  0  1  0  0  0  0  0  0  0  0  0
    8.9903  -19.7109   22.0868 C   0  0  0  0  0  0  0  0  0  0  0  0
    8.3671  -21.0432   22.0621 C   0  0  0  0  0  0  0  0  0  0  0  0
    7.1017  -21.3851   21.6925 C   0  0  0  0  0  0  0  0  0  0  0  0
    6.9311  -22.7179   21.8229 N   0  0  0  0  0  0  0  0  0  0  0  0
    8.0821  -23.2031   22.2707 C   0  0  0  0  0  0  0  0  0  0  0  0
    8.9602  -22.2191   22.4227 N   0  0  0  0  0  0  0  0  0  0  0  0
    8.6611  -17.2477   21.7858 C   0  0  0  0  0  0  0  0  0  0  0  0
    9.8939  -17.0901   22.0020 O   0  0  0  0  0  0  0  0  0  0  0  0
    7.3513  -13.8233   21.0485 C   0  0  0  0  0  0  0  0  0  0  0  0
    8.4046  -14.7394   21.6348 C   0  0  2  0  0  0  0  0  0  0  0  0
    7.8975  -16.0747   21.6255 N   0  0  0  0  0  0  0  0  0  0  0  0
    8.7434  -14.3001   23.0317 C   0  0  0  0  0  0  0  0  0  0  0  0
    9.3858  -13.2556   23.2747 O   0  0  0  0  0  0  0  0  0  0  0  0
    7.9644  -11.7238   26.2302 C   0  0  0  0  0  0  0  0  0  0  0  0
    6.9832  -12.8004   25.8553 C   0  0  2  0  0  0  0  0  0  0  0  0
    5.6175  -12.4720   26.4823 C   0  0  0  0  0  0  0  0  0  0  0  0
    7.4496  -14.1440   26.2596 C   0  0  0  0  0  0  0  0  0  0  0  0
    8.5728  -14.7566   25.5119 C   0  0  2  0  0  0  0  0  0  0  0  0
    8.3234  -15.0936   24.1350 N   0  0  0  0  0  0  0  0  0  0  0  0
    9.1745  -15.9259   26.2015 C   0  0  0  0  0  0  0  0  0  0  0  0
    9.5352  -15.8604   27.4004 O   0  0  0  0  0  0  0  0  0  0  0  0
    9.3597  -17.1313   25.5470 O   0  0  0  0  0  0  0  0  0  0  0  0
  2  1  1  6
  3  4  1  0
  3  2  1  0
  4  5  2  0
  6  5  1  0
  7  6  1  0
  8  7  2  0
  8  4  1  0
  9  2  1  0
 10  9  2  0
 12 11  1  1
 12 14  1  0
 12 13  1  0
 13  9  1  0
 14 21  1  0
 15 14  2  0
 17 16  1  1
 18 17  1  0
 19 17  1  0
 20 19  1  1
 20 22  1  0
 21 20  1  0
 22 23  2  0
 22 24  1  0
M  END
$$$$
