HAL.pdb
     RDKit          3D

 24 24  0  0  1  0  0  0  0  0999 V2000
    7.1953  -17.4003   18.7232 N   0  0  0  0  0  0  0  0  0  0  0  0
    7.8694  -16.3770   19.4836 C   0  0  1  0  0  0  0  0  0  0  0  0
    7.3545  -15.0296   19.1055 C   0  0  0  0  0  0  0  0  0  0  0  0
    7.7617  -14.5915   17.7615 C   0  0  0  0  0  0  0  0  0  0  0  0
    8.5140  -15.2554   16.8406 C   0  0  0  0  0  0  0  0  0  0  0  0
    8.6598  -14.4949   15.7347 N   0  0  0  0  0  0  0  0  0  0  0  0
    8.0031  -13.3651   15.9650 C   0  0  0  0  0  0  0  0  0  0  0  0
    7.4553  -13.3976   17.1738 N   0  0  0  0  0  0  0  0  0  0  0  0
    7.8850  -16.6452   20.9426 C   0  0  0  0  0  0  0  0  0  0  0  0
    6.8248  -16.5953   21.6245 O   0  0  0  0  0  0  0  0  0  0  0  0
   10.3662  -18.1411   23.2617 C   0  0  0  0  0  0  0  0  0  0  0  0
    9.1583  -17.2564   23.0366 C   0  0  2  0  0  0  0  0  0  0  0  0
    9.0656  -16.9652   21.6413 N   0  0  0  0  0  0  0  0  0  0  0  0
    9.2911  -15.9955   23.8437 C   0  0  0  0  0  0  0  0  0  0  0  0
   10.1157  -15.0982   23.5651 O   0  0  0  0  0  0  0  0  0  0  0  0
    5.9597  -12.1390   27.1875 C   0  0  0  0  0  0  0  0  0  0  0  0
    7.3312  -12.7107   26.9541 C   0  0  2  0  0  0  0  0  0  0  0  0
    8.2584  -11.5934   26.4460 C   0  0  0  0  0  0  0  0  0  0  0  0
    7.3057  -13.8539   26.0168 C   0  0  0  0  0  0  0  0  0  0  0  0
    8.5372  -14.6620   25.8543 C   0  0  2  0  0  0  0  0  0  0  0  0
    8.4517  -15.7983   24.9751 N   0  0  0  0  0  0  0  0  0  0  0  0
    9.1422  -15.0838   27.1431 C   0  0  0  0  0  0  0  0  0  0  0  0
    9.5442  -14.2418   27.9804 O   0  0  0  0  0  0  0  0  0  0  0  0
    9.2851  -16.4216   27.4681 O   0  0  0  0  0  0  0  0  0  0  0  0
  2  1  1  6
  3  4  1  0
  3  2  1  0
  4  5  2  0
  6  5  1  0
  7  6  1  0
  8  7  2  0
  8  4  1  0
  9  2  1  0
 10  9  2  0
 12 11  1  6
 12 14  1  0
 12 13  1  0
 13  9  1  0
 14 21  1  0
 15 14  2  0
 17 16  1  6
 18 17  1  0
 19 17  1  0
 20 19  1  1
 20 22  1  0
 21 20  1  0
 22 23  2  0
 22 24  1  0
M  END
$$$$
