HAL.pdb
     RDKit          3D

 24 24  0  0  1  0  0  0  0  0999 V2000
    7.5471  -20.4152   23.2835 N   0  0  0  0  0  0  0  0  0  0  0  0
    7.0505  -19.0969   23.5920 C   0  0  1  0  0  0  0  0  0  0  0  0
    7.1181  -18.8506   25.0611 C   0  0  0  0  0  0  0  0  0  0  0  0
    6.5242  -19.9238   25.8733 C   0  0  0  0  0  0  0  0  0  0  0  0
    5.9620  -21.0933   25.4599 C   0  0  0  0  0  0  0  0  0  0  0  0
    5.5310  -21.7968   26.5285 N   0  0  0  0  0  0  0  0  0  0  0  0
    5.8225  -21.0706   27.6002 C   0  0  0  0  0  0  0  0  0  0  0  0
    6.4188  -19.9423   27.2346 N   0  0  0  0  0  0  0  0  0  0  0  0
    7.6591  -18.0312   22.7584 C   0  0  0  0  0  0  0  0  0  0  0  0
    8.8846  -18.0587   22.4604 O   0  0  0  0  0  0  0  0  0  0  0  0
    6.3352  -14.9440   21.0907 C   0  0  0  0  0  0  0  0  0  0  0  0
    7.4601  -15.7360   21.7229 C   0  0  2  0  0  0  0  0  0  0  0  0
    6.9165  -16.9430   22.2594 N   0  0  0  0  0  0  0  0  0  0  0  0
    8.1207  -14.9173   22.7963 C   0  0  0  0  0  0  0  0  0  0  0  0
    9.0278  -14.0917   22.5549 O   0  0  0  0  0  0  0  0  0  0  0  0
    6.1501  -11.6405   26.9461 C   0  0  0  0  0  0  0  0  0  0  0  0
    7.3496  -12.1938   26.2266 C   0  0  2  0  0  0  0  0  0  0  0  0
    7.4164  -11.5768   24.8191 C   0  0  0  0  0  0  0  0  0  0  0  0
    7.3289  -13.6709   26.1641 C   0  0  0  0  0  0  0  0  0  0  0  0
    8.2798  -14.3531   25.2551 C   0  0  2  0  0  0  0  0  0  0  0  0
    7.7092  -15.0756   24.1488 N   0  0  0  0  0  0  0  0  0  0  0  0
    9.2511  -15.2260   25.9619 C   0  0  0  0  0  0  0  0  0  0  0  0
    9.0957  -16.4690   26.0088 O   0  0  0  0  0  0  0  0  0  0  0  0
   10.3638  -14.7002   26.5952 O   0  0  0  0  0  0  0  0  0  0  0  0
  2  1  1  1
  3  4  1  0
  3  2  1  0
  4  5  2  0
  6  5  1  0
  7  6  1  0
  8  7  2  0
  8  4  1  0
  9  2  1  0
 10  9  2  0
 12 11  1  1
 12 14  1  0
 12 13  1  0
 13  9  1  0
 14 21  1  0
 15 14  2  0
 17 16  1  6
 18 17  1  0
 19 17  1  0
 20 19  1  1
 20 22  1  0
 21 20  1  0
 22 23  2  0
 22 24  1  0
M  END
$$$$
