NYA.pdb
     RDKit          3D

 26 26  0  0  1  0  0  0  0  0999 V2000
    8.5157  -12.3965   18.0229 N   0  0  0  0  0  0  0  0  0  0  0  0
    8.0738  -13.5234   18.7511 C   0  0  0  0  0  0  0  0  0  0  0  0
    7.6309  -14.5148   18.0993 O   0  0  0  0  0  0  0  0  0  0  0  0
    8.1203  -13.5604   20.2340 C   0  0  0  0  0  0  0  0  0  0  0  0
    8.6026  -14.9142   20.6597 C   0  0  2  0  0  0  0  0  0  0  0  0
    7.6658  -15.9385   20.3204 N   0  0  0  0  0  0  0  0  0  0  0  0
    8.9888  -14.9435   22.0988 C   0  0  0  0  0  0  0  0  0  0  0  0
    9.9372  -14.2222   22.4930 O   0  0  0  0  0  0  0  0  0  0  0  0
    6.1484  -10.4781   26.5728 O   0  0  0  0  0  0  0  0  0  0  0  0
    6.5173  -11.7987   26.2875 C   0  0  0  0  0  0  0  0  0  0  0  0
    7.7465  -12.2968   26.6673 C   0  0  0  0  0  0  0  0  0  0  0  0
    8.0978  -13.6102   26.3765 C   0  0  0  0  0  0  0  0  0  0  0  0
    7.2449  -14.4609   25.7050 C   0  0  0  0  0  0  0  0  0  0  0  0
    7.6586  -15.8394   25.4199 C   0  0  0  0  0  0  0  0  0  0  0  0
    8.8155  -15.9041   24.4205 C   0  0  2  0  0  0  0  0  0  0  0  0
    8.3321  -15.7550   23.0612 N   0  0  0  0  0  0  0  0  0  0  0  0
    9.5881  -17.1614   24.5889 C   0  0  0  0  0  0  0  0  0  0  0  0
    9.1372  -18.2299   24.1234 O   0  0  0  0  0  0  0  0  0  0  0  0
    6.0152  -13.9616   25.3253 C   0  0  0  0  0  0  0  0  0  0  0  0
    5.6713  -12.6572   25.6163 C   0  0  0  0  0  0  0  0  0  0  0  0
   12.9691  -18.3760   24.8782 C   0  0  0  0  0  0  0  0  0  0  0  0
   11.5603  -18.4765   25.3990 C   0  0  2  0  0  0  0  0  0  0  0  0
   10.8374  -17.2160   25.2643 N   0  0  0  0  0  0  0  0  0  0  0  0
   11.5068  -18.8977   26.8233 C   0  0  0  0  0  0  0  0  0  0  0  0
   10.9381  -18.0682   27.7802 O   0  0  0  0  0  0  0  0  0  0  0  0
   11.9641  -20.0007   27.2197 O   0  0  0  0  0  0  0  0  0  0  0  0
  2  3  2  0
  2  1  1  0
  4  2  1  0
  5  4  1  0
  5  6  1  1
  7  5  1  0
  7 16  1  0
  8  7  2  0
  9 10  1  0
 10 11  2  0
 11 12  1  0
 13 14  1  0
 13 12  2  0
 15 14  1  1
 15 16  1  0
 15 17  1  0
 17 18  2  0
 19 13  1  0
 20 19  2  0
 20 10  1  0
 22 21  1  1
 23 17  1  0
 23 22  1  0
 24 25  1  0
 24 22  1  0
 26 24  2  0
M  END
$$$$
