NYA.pdb
     RDKit          3D

 26 26  0  0  1  0  0  0  0  0999 V2000
    4.6422  -21.2759   19.3636 N   0  0  0  0  0  0  0  0  0  0  0  0
    3.5867  -21.5823   20.2511 C   0  0  0  0  0  0  0  0  0  0  0  0
    2.5271  -22.0771   19.7649 O   0  0  0  0  0  0  0  0  0  0  0  0
    3.6999  -21.3380   21.7106 C   0  0  0  0  0  0  0  0  0  0  0  0
    5.0440  -20.7354   21.9877 C   0  0  2  0  0  0  0  0  0  0  0  0
    6.1000  -21.5271   21.4398 N   0  0  0  0  0  0  0  0  0  0  0  0
    5.2381  -20.4431   23.4361 C   0  0  0  0  0  0  0  0  0  0  0  0
    4.3605  -19.7909   24.0521 O   0  0  0  0  0  0  0  0  0  0  0  0
    2.5403  -25.3681   26.8384 O   0  0  0  0  0  0  0  0  0  0  0  0
    3.6234  -24.4880   26.7214 C   0  0  0  0  0  0  0  0  0  0  0  0
    3.8048  -23.4528   27.6151 C   0  0  0  0  0  0  0  0  0  0  0  0
    4.8853  -22.5876   27.4852 C   0  0  0  0  0  0  0  0  0  0  0  0
    5.8104  -22.7242   26.4715 C   0  0  0  0  0  0  0  0  0  0  0  0
    6.9350  -21.7870   26.3740 C   0  0  0  0  0  0  0  0  0  0  0  0
    6.5820  -20.5377   25.5641 C   0  0  2  0  0  0  0  0  0  0  0  0
    6.3787  -20.8690   24.1667 N   0  0  0  0  0  0  0  0  0  0  0  0
    7.6222  -19.4905   25.7298 C   0  0  0  0  0  0  0  0  0  0  0  0
    8.6947  -19.5799   25.0946 O   0  0  0  0  0  0  0  0  0  0  0  0
    5.6281  -23.7603   25.5777 C   0  0  0  0  0  0  0  0  0  0  0  0
    4.5540  -24.6164   25.7109 C   0  0  0  0  0  0  0  0  0  0  0  0
    8.0191  -16.0624   27.2230 C   0  0  0  0  0  0  0  0  0  0  0  0
    8.5360  -17.3989   26.7620 C   0  0  2  0  0  0  0  0  0  0  0  0
    7.4605  -18.3699   26.5889 N   0  0  0  0  0  0  0  0  0  0  0  0
    9.5414  -17.9742   27.6933 C   0  0  0  0  0  0  0  0  0  0  0  0
    9.2484  -19.1171   28.4247 O   0  0  0  0  0  0  0  0  0  0  0  0
   10.6794  -17.4640   27.8586 O   0  0  0  0  0  0  0  0  0  0  0  0
  2  3  2  0
  2  1  1  0
  4  2  1  0
  5  4  1  0
  5  6  1  1
  7  5  1  0
  7 16  1  0
  8  7  2  0
  9 10  1  0
 10 11  2  0
 11 12  1  0
 13 14  1  0
 13 12  2  0
 15 14  1  1
 15 16  1  0
 15 17  1  0
 17 18  2  0
 19 13  1  0
 20 19  2  0
 20 10  1  0
 22 21  1  1
 23 17  1  0
 23 22  1  0
 24 25  1  0
 24 22  1  0
 26 24  2  0
M  END
$$$$
