NYA.pdb
     RDKit          3D

 26 26  0  0  1  0  0  0  0  0999 V2000
    8.9038  -17.8022   16.6191 N   0  0  0  0  0  0  0  0  0  0  0  0
    9.9427  -17.3562   17.4660 C   0  0  0  0  0  0  0  0  0  0  0  0
   11.1277  -17.7044   17.1856 O   0  0  0  0  0  0  0  0  0  0  0  0
    9.6711  -16.5055   18.6513 C   0  0  0  0  0  0  0  0  0  0  0  0
    9.9479  -17.3097   19.8856 C   0  0  2  0  0  0  0  0  0  0  0  0
    9.1077  -18.4630   19.9630 N   0  0  0  0  0  0  0  0  0  0  0  0
    9.8937  -16.4764   21.1200 C   0  0  0  0  0  0  0  0  0  0  0  0
   10.9596  -16.0121   21.5925 O   0  0  0  0  0  0  0  0  0  0  0  0
    6.9505  -11.8168   28.0857 O   0  0  0  0  0  0  0  0  0  0  0  0
    7.0523  -12.5032   26.8692 C   0  0  0  0  0  0  0  0  0  0  0  0
    6.3870  -13.6936   26.6608 C   0  0  0  0  0  0  0  0  0  0  0  0
    6.4984  -14.3630   25.4473 C   0  0  0  0  0  0  0  0  0  0  0  0
    7.2681  -13.8732   24.4130 C   0  0  0  0  0  0  0  0  0  0  0  0
    7.3559  -14.6143   23.1498 C   0  0  0  0  0  0  0  0  0  0  0  0
    8.6486  -15.4256   23.0406 C   0  0  2  0  0  0  0  0  0  0  0  0
    8.6839  -16.1755   21.7996 N   0  0  0  0  0  0  0  0  0  0  0  0
    8.8145  -16.3145   24.2190 C   0  0  0  0  0  0  0  0  0  0  0  0
    7.9593  -17.1952   24.4528 O   0  0  0  0  0  0  0  0  0  0  0  0
    7.9334  -12.6820   24.6224 C   0  0  0  0  0  0  0  0  0  0  0  0
    7.8196  -12.0215   25.8287 C   0  0  0  0  0  0  0  0  0  0  0  0
   11.2314  -18.1244   25.9263 C   0  0  0  0  0  0  0  0  0  0  0  0
   10.0899  -17.1802   26.1935 C   0  0  2  0  0  0  0  0  0  0  0  0
    9.9151  -16.2155   25.1126 N   0  0  0  0  0  0  0  0  0  0  0  0
   10.2539  -16.4323   27.4674 C   0  0  0  0  0  0  0  0  0  0  0  0
   10.2337  -17.1025   28.6830 O   0  0  0  0  0  0  0  0  0  0  0  0
   10.4149  -15.1851   27.5031 O   0  0  0  0  0  0  0  0  0  0  0  0
  2  3  2  0
  2  1  1  0
  4  2  1  0
  5  4  1  0
  5  6  1  1
  7  5  1  0
  7 16  1  0
  8  7  2  0
  9 10  1  0
 10 11  2  0
 11 12  1  0
 13 14  1  0
 13 12  2  0
 15 14  1  1
 15 16  1  0
 15 17  1  0
 17 18  2  0
 19 13  1  0
 20 19  2  0
 20 10  1  0
 22 21  1  6
 23 17  1  0
 23 22  1  0
 24 25  1  0
 24 22  1  0
 26 24  2  0
M  END
$$$$
