NYA.pdb
     RDKit          3D

 26 26  0  0  1  0  0  0  0  0999 V2000
   12.6175  -19.2472   20.8115 N   0  0  0  0  0  0  0  0  0  0  0  0
   11.8870  -18.3051   20.0536 C   0  0  0  0  0  0  0  0  0  0  0  0
   12.1281  -18.2265   18.8128 O   0  0  0  0  0  0  0  0  0  0  0  0
   10.8654  -17.4273   20.6767 C   0  0  0  0  0  0  0  0  0  0  0  0
   10.8642  -17.6761   22.1547 C   0  0  2  0  0  0  0  0  0  0  0  0
    9.9715  -18.7335   22.5109 N   0  0  0  0  0  0  0  0  0  0  0  0
   10.6155  -16.4289   22.9317 C   0  0  0  0  0  0  0  0  0  0  0  0
   11.5033  -15.5427   22.9679 O   0  0  0  0  0  0  0  0  0  0  0  0
    7.1708  -13.2120   18.5016 O   0  0  0  0  0  0  0  0  0  0  0  0
    7.3209  -13.5013   19.8637 C   0  0  0  0  0  0  0  0  0  0  0  0
    6.8612  -14.6868   20.3988 C   0  0  0  0  0  0  0  0  0  0  0  0
    7.0178  -14.9591   21.7532 C   0  0  0  0  0  0  0  0  0  0  0  0
    7.6311  -14.0685   22.6092 C   0  0  0  0  0  0  0  0  0  0  0  0
    7.7742  -14.3988   24.0316 C   0  0  0  0  0  0  0  0  0  0  0  0
    9.1619  -14.9519   24.3631 C   0  0  2  0  0  0  0  0  0  0  0  0
    9.4108  -16.1861   23.6431 N   0  0  0  0  0  0  0  0  0  0  0  0
    9.3204  -15.1348   25.8286 C   0  0  0  0  0  0  0  0  0  0  0  0
    8.5242  -15.8724   26.4481 O   0  0  0  0  0  0  0  0  0  0  0  0
    8.0909  -12.8826   22.0729 C   0  0  0  0  0  0  0  0  0  0  0  0
    7.9329  -12.6170   20.7279 C   0  0  0  0  0  0  0  0  0  0  0  0
    9.1646  -13.7591   28.5994 C   0  0  0  0  0  0  0  0  0  0  0  0
   10.3317  -14.5266   28.0382 C   0  0  2  0  0  0  0  0  0  0  0  0
   10.3490  -14.5037   26.5792 N   0  0  0  0  0  0  0  0  0  0  0  0
   10.3510  -15.9440   28.4851 C   0  0  0  0  0  0  0  0  0  0  0  0
   10.7388  -16.2675   29.7781 O   0  0  0  0  0  0  0  0  0  0  0  0
   10.0241  -16.8954   27.7296 O   0  0  0  0  0  0  0  0  0  0  0  0
  2  3  2  0
  2  1  1  0
  4  2  1  0
  5  4  1  0
  5  6  1  6
  7  5  1  0
  7 16  1  0
  8  7  2  0
  9 10  1  0
 10 11  2  0
 11 12  1  0
 13 14  1  0
 13 12  2  0
 15 14  1  1
 15 16  1  0
 15 17  1  0
 17 18  2  0
 19 13  1  0
 20 19  2  0
 20 10  1  0
 22 21  1  6
 23 17  1  0
 23 22  1  0
 24 25  1  0
 24 22  1  0
 26 24  2  0
M  END
$$$$
