NYA.pdb
     RDKit          3D

 26 26  0  0  1  0  0  0  0  0999 V2000
   11.6216  -19.5970   18.1314 N   0  0  0  0  0  0  0  0  0  0  0  0
   11.2132  -18.2594   17.9325 C   0  0  0  0  0  0  0  0  0  0  0  0
   10.8273  -17.9227   16.7742 O   0  0  0  0  0  0  0  0  0  0  0  0
   11.2297  -17.2672   19.0359 C   0  0  0  0  0  0  0  0  0  0  0  0
    9.8551  -17.1946   19.6291 C   0  0  2  0  0  0  0  0  0  0  0  0
    8.8882  -16.7649   18.6686 N   0  0  0  0  0  0  0  0  0  0  0  0
    9.8264  -16.3794   20.8764 C   0  0  0  0  0  0  0  0  0  0  0  0
   10.9082  -16.0831   21.4393 O   0  0  0  0  0  0  0  0  0  0  0  0
    6.9464  -11.9481   28.0198 O   0  0  0  0  0  0  0  0  0  0  0  0
    7.0223  -12.5804   26.7725 C   0  0  0  0  0  0  0  0  0  0  0  0
    7.6571  -11.9821   25.7038 C   0  0  0  0  0  0  0  0  0  0  0  0
    7.7240  -12.6230   24.4718 C   0  0  0  0  0  0  0  0  0  0  0  0
    7.1664  -13.8676   24.2668 C   0  0  0  0  0  0  0  0  0  0  0  0
    7.2616  -14.5057   22.9491 C   0  0  0  0  0  0  0  0  0  0  0  0
    8.5962  -15.2264   22.7473 C   0  0  2  0  0  0  0  0  0  0  0  0
    8.6237  -15.9135   21.4703 N   0  0  0  0  0  0  0  0  0  0  0  0
    8.8683  -16.1571   23.8725 C   0  0  0  0  0  0  0  0  0  0  0  0
    8.1357  -17.1559   24.0382 O   0  0  0  0  0  0  0  0  0  0  0  0
    6.5314  -14.4656   25.3367 C   0  0  0  0  0  0  0  0  0  0  0  0
    6.4677  -13.8253   26.5575 C   0  0  0  0  0  0  0  0  0  0  0  0
   11.6662  -17.5749   25.4780 C   0  0  0  0  0  0  0  0  0  0  0  0
   10.2957  -17.0123   25.7450 C   0  0  2  0  0  0  0  0  0  0  0  0
    9.9381  -15.9693   24.7891 N   0  0  0  0  0  0  0  0  0  0  0  0
   10.1642  -16.4559   27.1169 C   0  0  0  0  0  0  0  0  0  0  0  0
   10.7298  -15.2285   27.4342 O   0  0  0  0  0  0  0  0  0  0  0  0
    9.5483  -17.0575   28.0342 O   0  0  0  0  0  0  0  0  0  0  0  0
  2  3  2  0
  2  1  1  0
  4  2  1  0
  5  4  1  0
  5  6  1  6
  7  5  1  0
  7 16  1  0
  8  7  2  0
  9 10  1  0
 10 11  2  0
 11 12  1  0
 13 14  1  0
 13 12  2  0
 15 14  1  1
 15 16  1  0
 15 17  1  0
 17 18  2  0
 19 13  1  0
 20 19  2  0
 20 10  1  0
 22 21  1  6
 23 17  1  0
 23 22  1  0
 24 25  1  0
 24 22  1  0
 26 24  2  0
M  END
$$$$
