NYA.pdb
     RDKit          3D

 26 26  0  0  1  0  0  0  0  0999 V2000
   11.9670  -19.3495   19.7303 N   0  0  0  0  0  0  0  0  0  0  0  0
   11.5735  -18.0676   19.2860 C   0  0  0  0  0  0  0  0  0  0  0  0
   11.6510  -17.8195   18.0464 O   0  0  0  0  0  0  0  0  0  0  0  0
   11.0824  -17.0324   20.2292 C   0  0  0  0  0  0  0  0  0  0  0  0
   10.3991  -17.7190   21.3730 C   0  0  2  0  0  0  0  0  0  0  0  0
    9.2797  -18.4902   20.9325 N   0  0  0  0  0  0  0  0  0  0  0  0
   10.0472  -16.7690   22.4660 C   0  0  0  0  0  0  0  0  0  0  0  0
   10.9523  -16.0741   22.9884 O   0  0  0  0  0  0  0  0  0  0  0  0
    7.8614  -12.7349   18.2774 O   0  0  0  0  0  0  0  0  0  0  0  0
    7.6974  -13.2395   19.5735 C   0  0  0  0  0  0  0  0  0  0  0  0
    8.2053  -12.5745   20.6704 C   0  0  0  0  0  0  0  0  0  0  0  0
    8.0340  -13.0885   21.9508 C   0  0  0  0  0  0  0  0  0  0  0  0
    7.3583  -14.2692   22.1775 C   0  0  0  0  0  0  0  0  0  0  0  0
    7.2020  -14.7734   23.5465 C   0  0  0  0  0  0  0  0  0  0  0  0
    8.3830  -15.6424   23.9841 C   0  0  2  0  0  0  0  0  0  0  0  0
    8.7241  -16.6057   22.9548 N   0  0  0  0  0  0  0  0  0  0  0  0
    8.0956  -16.3089   25.2801 C   0  0  0  0  0  0  0  0  0  0  0  0
    7.6208  -15.6426   26.2247 O   0  0  0  0  0  0  0  0  0  0  0  0
    6.8504  -14.9339   21.0795 C   0  0  0  0  0  0  0  0  0  0  0  0
    7.0231  -14.4195   19.8106 C   0  0  0  0  0  0  0  0  0  0  0  0
    7.1325  -19.4883   26.6740 C   0  0  0  0  0  0  0  0  0  0  0  0
    8.0438  -18.2971   26.8030 C   0  0  2  0  0  0  0  0  0  0  0  0
    8.3362  -17.6908   25.5082 N   0  0  0  0  0  0  0  0  0  0  0  0
    9.3314  -18.6323   27.4652 C   0  0  0  0  0  0  0  0  0  0  0  0
    9.3540  -19.0367   28.7931 O   0  0  0  0  0  0  0  0  0  0  0  0
   10.4363  -18.5668   26.8672 O   0  0  0  0  0  0  0  0  0  0  0  0
  2  3  2  0
  2  1  1  0
  4  2  1  0
  5  4  1  0
  5  6  1  6
  7  5  1  0
  7 16  1  0
  8  7  2  0
  9 10  1  0
 10 11  2  0
 11 12  1  0
 13 14  1  0
 13 12  2  0
 15 14  1  6
 15 16  1  0
 15 17  1  0
 17 18  2  0
 19 13  1  0
 20 19  2  0
 20 10  1  0
 22 21  1  6
 23 17  1  0
 23 22  1  0
 24 25  1  0
 24 22  1  0
 26 24  2  0
M  END
$$$$
