NYA.pdb
     RDKit          3D

 26 26  0  0  1  0  0  0  0  0999 V2000
   11.2583  -16.7266   17.1714 N   0  0  0  0  0  0  0  0  0  0  0  0
   10.2634  -16.6435   18.1708 C   0  0  0  0  0  0  0  0  0  0  0  0
    9.1124  -17.0983   17.9016 O   0  0  0  0  0  0  0  0  0  0  0  0
   10.5418  -16.0450   19.5000 C   0  0  0  0  0  0  0  0  0  0  0  0
   10.0867  -17.0052   20.5571 C   0  0  2  0  0  0  0  0  0  0  0  0
    8.6758  -17.2241   20.4987 N   0  0  0  0  0  0  0  0  0  0  0  0
   10.5491  -16.6021   21.9154 C   0  0  0  0  0  0  0  0  0  0  0  0
   11.7805  -16.5366   22.1486 O   0  0  0  0  0  0  0  0  0  0  0  0
   10.5051  -14.6026   30.5844 O   0  0  0  0  0  0  0  0  0  0  0  0
   10.1553  -14.7559   29.2370 C   0  0  0  0  0  0  0  0  0  0  0  0
   10.5006  -13.8088   28.2953 C   0  0  0  0  0  0  0  0  0  0  0  0
   10.1460  -13.9757   26.9614 C   0  0  0  0  0  0  0  0  0  0  0  0
    9.4432  -15.0800   26.5270 C   0  0  0  0  0  0  0  0  0  0  0  0
    9.0906  -15.2137   25.1091 C   0  0  0  0  0  0  0  0  0  0  0  0
   10.1095  -16.0512   24.3333 C   0  0  2  0  0  0  0  0  0  0  0  0
    9.6586  -16.2838   22.9745 N   0  0  0  0  0  0  0  0  0  0  0  0
   10.3907  -17.3271   25.0399 C   0  0  0  0  0  0  0  0  0  0  0  0
    9.4595  -18.1330   25.2524 O   0  0  0  0  0  0  0  0  0  0  0  0
    9.0981  -16.0272   27.4700 C   0  0  0  0  0  0  0  0  0  0  0  0
    9.4525  -15.8569   28.7928 C   0  0  0  0  0  0  0  0  0  0  0  0
   13.1133  -19.6884   25.4352 C   0  0  0  0  0  0  0  0  0  0  0  0
   11.9363  -19.0035   26.0769 C   0  0  2  0  0  0  0  0  0  0  0  0
   11.6872  -17.6881   25.4964 N   0  0  0  0  0  0  0  0  0  0  0  0
   12.0994  -18.8445   27.5456 C   0  0  0  0  0  0  0  0  0  0  0  0
   11.7959  -19.8928   28.4036 O   0  0  0  0  0  0  0  0  0  0  0  0
   12.5108  -17.7767   28.0683 O   0  0  0  0  0  0  0  0  0  0  0  0
  2  3  2  0
  2  1  1  0
  4  2  1  0
  5  4  1  0
  5  6  1  1
  7  5  1  0
  7 16  1  0
  8  7  2  0
  9 10  1  0
 10 11  2  0
 11 12  1  0
 13 14  1  0
 13 12  2  0
 15 14  1  1
 15 16  1  0
 15 17  1  0
 17 18  2  0
 19 13  1  0
 20 19  2  0
 20 10  1  0
 22 21  1  6
 23 17  1  0
 23 22  1  0
 24 25  1  0
 24 22  1  0
 26 24  2  0
M  END
$$$$
