NYA.pdb
     RDKit          3D

 26 26  0  0  1  0  0  0  0  0999 V2000
    8.1275  -19.9512   18.7089 N   0  0  0  0  0  0  0  0  0  0  0  0
    9.4694  -19.7405   19.0967 C   0  0  0  0  0  0  0  0  0  0  0  0
   10.3820  -20.2259   18.3648 O   0  0  0  0  0  0  0  0  0  0  0  0
    9.8162  -18.9764   20.3208 C   0  0  0  0  0  0  0  0  0  0  0  0
    9.7646  -17.5138   19.9974 C   0  0  2  0  0  0  0  0  0  0  0  0
   10.7812  -17.1438   19.0637 N   0  0  0  0  0  0  0  0  0  0  0  0
    9.7777  -16.6686   21.2249 C   0  0  0  0  0  0  0  0  0  0  0  0
   10.8714  -16.4297   21.7921 O   0  0  0  0  0  0  0  0  0  0  0  0
    7.1785  -11.7739   28.1650 O   0  0  0  0  0  0  0  0  0  0  0  0
    7.2176  -12.4561   26.9425 C   0  0  0  0  0  0  0  0  0  0  0  0
    7.9809  -11.9956   25.8897 C   0  0  0  0  0  0  0  0  0  0  0  0
    8.0091  -12.6843   24.6823 C   0  0  0  0  0  0  0  0  0  0  0  0
    7.2855  -13.8420   24.4868 C   0  0  0  0  0  0  0  0  0  0  0  0
    7.3460  -14.5353   23.1951 C   0  0  0  0  0  0  0  0  0  0  0  0
    8.6099  -15.3857   23.0506 C   0  0  2  0  0  0  0  0  0  0  0  0
    8.6027  -16.1114   21.7948 N   0  0  0  0  0  0  0  0  0  0  0  0
    8.7636  -16.3029   24.2088 C   0  0  0  0  0  0  0  0  0  0  0  0
    7.8692  -17.1399   24.4561 O   0  0  0  0  0  0  0  0  0  0  0  0
    6.5220  -14.3021   25.5408 C   0  0  0  0  0  0  0  0  0  0  0  0
    6.4974  -13.6147   26.7373 C   0  0  0  0  0  0  0  0  0  0  0  0
   11.2628  -18.0848   26.0218 C   0  0  0  0  0  0  0  0  0  0  0  0
   10.0254  -17.2388   26.1600 C   0  0  2  0  0  0  0  0  0  0  0  0
    9.8954  -16.2795   25.0680 N   0  0  0  0  0  0  0  0  0  0  0  0
    9.9835  -16.4941   27.4456 C   0  0  0  0  0  0  0  0  0  0  0  0
    9.8949  -17.1777   28.6506 O   0  0  0  0  0  0  0  0  0  0  0  0
   10.0255  -15.2380   27.5008 O   0  0  0  0  0  0  0  0  0  0  0  0
  2  3  2  0
  2  1  1  0
  4  2  1  0
  5  4  1  0
  5  6  1  6
  7  5  1  0
  7 16  1  0
  8  7  2  0
  9 10  1  0
 10 11  2  0
 11 12  1  0
 13 14  1  0
 13 12  2  0
 15 14  1  1
 15 16  1  0
 15 17  1  0
 17 18  2  0
 19 13  1  0
 20 19  2  0
 20 10  1  0
 22 21  1  6
 23 17  1  0
 23 22  1  0
 24 25  1  0
 24 22  1  0
 26 24  2  0
M  END
$$$$
