NYA.pdb
     RDKit          3D

 26 26  0  0  1  0  0  0  0  0999 V2000
   10.2588  -19.1170   17.9291 N   0  0  0  0  0  0  0  0  0  0  0  0
   10.3855  -17.7477   17.6056 C   0  0  0  0  0  0  0  0  0  0  0  0
   10.6349  -17.4429   16.4019 O   0  0  0  0  0  0  0  0  0  0  0  0
   10.2340  -16.6870   18.6324 C   0  0  0  0  0  0  0  0  0  0  0  0
   10.0367  -17.3425   19.9658 C   0  0  2  0  0  0  0  0  0  0  0  0
    8.9368  -18.2546   19.9476 N   0  0  0  0  0  0  0  0  0  0  0  0
    9.9378  -16.3462   21.0698 C   0  0  0  0  0  0  0  0  0  0  0  0
   10.9103  -15.5865   21.2978 O   0  0  0  0  0  0  0  0  0  0  0  0
    6.7234  -11.1672   27.5195 O   0  0  0  0  0  0  0  0  0  0  0  0
    6.8507  -12.0586   26.4469 C   0  0  0  0  0  0  0  0  0  0  0  0
    7.4073  -11.6621   25.2485 C   0  0  0  0  0  0  0  0  0  0  0  0
    7.5266  -12.5592   24.1930 C   0  0  0  0  0  0  0  0  0  0  0  0
    7.0998  -13.8666   24.2962 C   0  0  0  0  0  0  0  0  0  0  0  0
    7.2460  -14.7779   23.1557 C   0  0  0  0  0  0  0  0  0  0  0  0
    8.6946  -15.2269   22.9525 C   0  0  2  0  0  0  0  0  0  0  0  0
    8.7861  -16.2087   21.8888 N   0  0  0  0  0  0  0  0  0  0  0  0
    9.2695  -15.7431   24.2211 C   0  0  0  0  0  0  0  0  0  0  0  0
    9.2899  -15.0099   25.2328 O   0  0  0  0  0  0  0  0  0  0  0  0
    6.5429  -14.2624   25.4957 C   0  0  0  0  0  0  0  0  0  0  0  0
    6.4268  -13.3682   26.5403 C   0  0  0  0  0  0  0  0  0  0  0  0
    9.6329  -18.6195   26.2333 C   0  0  0  0  0  0  0  0  0  0  0  0
   10.4092  -17.4942   25.6030 C   0  0  2  0  0  0  0  0  0  0  0  0
    9.8083  -17.0520   24.3489 N   0  0  0  0  0  0  0  0  0  0  0  0
   11.8272  -17.8550   25.3419 C   0  0  0  0  0  0  0  0  0  0  0  0
   12.3238  -17.8585   24.0455 O   0  0  0  0  0  0  0  0  0  0  0  0
   12.6258  -18.1670   26.2625 O   0  0  0  0  0  0  0  0  0  0  0  0
  2  3  2  0
  2  1  1  0
  4  2  1  0
  5  4  1  0
  5  6  1  6
  7  5  1  0
  7 16  1  0
  8  7  2  0
  9 10  1  0
 10 11  2  0
 11 12  1  0
 13 14  1  0
 13 12  2  0
 15 14  1  1
 15 16  1  0
 15 17  1  0
 17 18  2  0
 19 13  1  0
 20 19  2  0
 20 10  1  0
 22 21  1  6
 23 17  1  0
 23 22  1  0
 24 25  1  0
 24 22  1  0
 26 24  2  0
M  END
$$$$
