NYA.pdb
     RDKit          3D

 26 26  0  0  1  0  0  0  0  0999 V2000
   11.2822  -17.2300   17.3015 N   0  0  0  0  0  0  0  0  0  0  0  0
   11.6819  -17.5388   18.6208 C   0  0  0  0  0  0  0  0  0  0  0  0
   12.1532  -18.6930   18.8434 O   0  0  0  0  0  0  0  0  0  0  0  0
   11.5598  -16.5527   19.7232 C   0  0  0  0  0  0  0  0  0  0  0  0
   10.8983  -17.2239   20.8887 C   0  0  2  0  0  0  0  0  0  0  0  0
    9.7475  -17.9686   20.4850 N   0  0  0  0  0  0  0  0  0  0  0  0
   10.6041  -16.2666   21.9924 C   0  0  0  0  0  0  0  0  0  0  0  0
   11.5519  -15.6498   22.5369 O   0  0  0  0  0  0  0  0  0  0  0  0
    6.3847  -11.1341   27.8832 O   0  0  0  0  0  0  0  0  0  0  0  0
    6.6960  -11.9597   26.7956 C   0  0  0  0  0  0  0  0  0  0  0  0
    6.1087  -13.1990   26.6462 C   0  0  0  0  0  0  0  0  0  0  0  0
    6.4283  -14.0068   25.5607 C   0  0  0  0  0  0  0  0  0  0  0  0
    7.3340  -13.6103   24.5991 C   0  0  0  0  0  0  0  0  0  0  0  0
    7.6404  -14.4965   23.4706 C   0  0  0  0  0  0  0  0  0  0  0  0
    9.0218  -15.1423   23.5972 C   0  0  2  0  0  0  0  0  0  0  0  0
    9.2906  -16.0113   22.4675 N   0  0  0  0  0  0  0  0  0  0  0  0
    9.1476  -15.8699   24.8861 C   0  0  0  0  0  0  0  0  0  0  0  0
    9.1177  -15.2320   25.9603 O   0  0  0  0  0  0  0  0  0  0  0  0
    7.9211  -12.3701   24.7494 C   0  0  0  0  0  0  0  0  0  0  0  0
    7.6004  -11.5720   25.8287 C   0  0  0  0  0  0  0  0  0  0  0  0
    8.6837  -19.2944   26.2292 C   0  0  0  0  0  0  0  0  0  0  0  0
    9.3687  -17.9542   26.2578 C   0  0  2  0  0  0  0  0  0  0  0  0
    9.3033  -17.2803   24.9651 N   0  0  0  0  0  0  0  0  0  0  0  0
   10.7949  -18.0506   26.6646 C   0  0  0  0  0  0  0  0  0  0  0  0
   11.1351  -18.5158   27.9275 O   0  0  0  0  0  0  0  0  0  0  0  0
   11.7393  -17.7226   25.9010 O   0  0  0  0  0  0  0  0  0  0  0  0
  2  3  2  0
  2  1  1  0
  4  2  1  0
  5  4  1  0
  5  6  1  6
  7  5  1  0
  7 16  1  0
  8  7  2  0
  9 10  1  0
 10 11  2  0
 11 12  1  0
 13 14  1  0
 13 12  2  0
 15 14  1  6
 15 16  1  0
 15 17  1  0
 17 18  2  0
 19 13  1  0
 20 19  2  0
 20 10  1  0
 22 21  1  6
 23 17  1  0
 23 22  1  0
 24 25  1  0
 24 22  1  0
 26 24  2  0
M  END
$$$$
