STE.pdb
     RDKit          3D

 23 22  0  0  1  0  0  0  0  0999 V2000
   20.5839  -14.3517  -15.5335 O   0  0  0  0  0  0  0  0  0  0  0  0
   20.5812  -13.0715  -16.0657 C   0  0  0  0  0  0  0  0  0  0  0  0
   19.2298  -12.4203  -15.9308 C   0  0  2  0  0  0  0  0  0  0  0  0
   18.3092  -13.1158  -16.8058 N   0  0  0  0  0  0  0  0  0  0  0  0
   19.2212  -10.9815  -16.2275 C   0  0  0  0  0  0  0  0  0  0  0  0
   19.2406  -10.6026  -17.4385 O   0  0  0  0  0  0  0  0  0  0  0  0
   16.5030   -8.5129  -15.4837 C   0  0  0  0  0  0  0  0  0  0  0  0
   17.7983   -7.9828  -14.9156 C   0  0  1  0  0  0  0  0  0  0  0  0
   17.8395   -8.2553  -13.5507 O   0  0  0  0  0  0  0  0  0  0  0  0
   18.9750   -8.5691  -15.6444 C   0  0  2  0  0  0  0  0  0  0  0  0
   19.1924   -9.9564  -15.2539 N   0  0  0  0  0  0  0  0  0  0  0  0
   20.1830   -7.8036  -15.2467 C   0  0  0  0  0  0  0  0  0  0  0  0
   21.0235   -8.2818  -14.4462 O   0  0  0  0  0  0  0  0  0  0  0  0
   20.4486   -6.4950  -15.7505 N   0  0  0  0  0  0  0  0  0  0  0  0
   21.5978   -5.7220  -15.3113 C   0  0  1  0  0  0  0  0  0  0  0  0
   21.7703   -4.5586  -16.2349 C   0  0  0  0  0  0  0  0  0  0  0  0
   22.9368   -3.6746  -15.8586 C   0  0  0  0  0  0  0  0  0  0  0  0
   22.5546   -2.2851  -16.1745 C   0  0  0  0  0  0  0  0  0  0  0  0
   21.5392   -2.0689  -16.8636 O   0  0  0  0  0  0  0  0  0  0  0  0
   21.5124   -5.3559  -13.8976 C   0  0  0  0  0  0  0  0  0  0  0  0
   22.6166   -5.3160  -13.0696 O   0  0  0  0  0  0  0  0  0  0  0  0
   23.3092   -1.2364  -15.7146 O   0  0  0  0  0  0  0  0  0  0  0  0
   20.3990   -5.0641  -13.4034 O   0  0  0  0  0  0  0  0  0  0  0  0
  2  1  1  0
  3  4  1  6
  3  2  1  0
  5  3  1  0
  6  5  2  0
  8  7  1  6
  8 10  1  0
  9  8  1  0
 10 12  1  0
 10 11  1  1
 11  5  1  0
 12 14  1  0
 13 12  2  0
 14 15  1  0
 15 20  1  0
 15 16  1  6
 16 17  1  0
 18 17  1  0
 18 22  1  0
 19 18  2  0
 20 23  2  0
 20 21  1  0
M  END
$$$$
