STE.pdb
     RDKit          3D

 23 22  0  0  1  0  0  0  0  0999 V2000
   17.1558   -9.0778  -21.0858 O   0  0  0  0  0  0  0  0  0  0  0  0
   17.5276   -8.5487  -19.8594 C   0  0  0  0  0  0  0  0  0  0  0  0
   16.9668   -9.3549  -18.7174 C   0  0  2  0  0  0  0  0  0  0  0  0
   15.5258   -9.3843  -18.8563 N   0  0  0  0  0  0  0  0  0  0  0  0
   17.3371   -8.8545  -17.3867 C   0  0  0  0  0  0  0  0  0  0  0  0
   16.5283   -8.0984  -16.7665 O   0  0  0  0  0  0  0  0  0  0  0  0
   17.8888  -10.6929  -14.2516 C   0  0  0  0  0  0  0  0  0  0  0  0
   19.1001   -9.8099  -14.4372 C   0  0  1  0  0  0  0  0  0  0  0  0
   20.1596  -10.5858  -14.9002 O   0  0  0  0  0  0  0  0  0  0  0  0
   18.7867   -8.6700  -15.3657 C   0  0  2  0  0  0  0  0  0  0  0  0
   18.5488   -9.1509  -16.7208 N   0  0  0  0  0  0  0  0  0  0  0  0
   19.9763   -7.7834  -15.4141 C   0  0  0  0  0  0  0  0  0  0  0  0
   20.5543   -7.5266  -16.4984 O   0  0  0  0  0  0  0  0  0  0  0  0
   20.5192   -7.1821  -14.2391 N   0  0  0  0  0  0  0  0  0  0  0  0
   21.3856   -6.0175  -14.3031 C   0  0  1  0  0  0  0  0  0  0  0  0
   20.7250   -4.9785  -15.1519 C   0  0  0  0  0  0  0  0  0  0  0  0
   21.5363   -3.7088  -15.2685 C   0  0  0  0  0  0  0  0  0  0  0  0
   20.7359   -2.7465  -16.0494 C   0  0  0  0  0  0  0  0  0  0  0  0
   20.7365   -2.8140  -17.2936 O   0  0  0  0  0  0  0  0  0  0  0  0
   21.7780   -5.5444  -12.9756 C   0  0  0  0  0  0  0  0  0  0  0  0
   22.8977   -4.7652  -12.7624 O   0  0  0  0  0  0  0  0  0  0  0  0
   19.9952   -1.7831  -15.4138 O   0  0  0  0  0  0  0  0  0  0  0  0
   21.0797   -5.8506  -11.9818 O   0  0  0  0  0  0  0  0  0  0  0  0
  2  1  1  0
  3  4  1  1
  3  2  1  0
  5  3  1  0
  6  5  2  0
  8  7  1  6
  8 10  1  0
  9  8  1  0
 10 12  1  0
 10 11  1  6
 11  5  1  0
 12 14  1  0
 13 12  2  0
 14 15  1  0
 15 20  1  0
 15 16  1  1
 16 17  1  0
 18 17  1  0
 18 22  1  0
 19 18  2  0
 20 23  2  0
 20 21  1  0
M  END
$$$$
