STE.pdb
     RDKit          3D

 23 22  0  0  1  0  0  0  0  0999 V2000
   13.8972   -4.7233   -7.7858 O   0  0  0  0  0  0  0  0  0  0  0  0
   14.9720   -5.5485   -8.0794 C   0  0  0  0  0  0  0  0  0  0  0  0
   14.5291   -6.9683   -8.3174 C   0  0  2  0  0  0  0  0  0  0  0  0
   14.2122   -7.5588   -7.0337 N   0  0  0  0  0  0  0  0  0  0  0  0
   15.5138   -7.7965   -9.0264 C   0  0  0  0  0  0  0  0  0  0  0  0
   16.6143   -8.0681   -8.4560 O   0  0  0  0  0  0  0  0  0  0  0  0
   15.2090  -11.3331  -10.4588 C   0  0  0  0  0  0  0  0  0  0  0  0
   15.7379  -10.4115  -11.5322 C   0  0  1  0  0  0  0  0  0  0  0  0
   14.7026  -10.0951  -12.4081 O   0  0  0  0  0  0  0  0  0  0  0  0
   16.3545   -9.1849  -10.9200 C   0  0  2  0  0  0  0  0  0  0  0  0
   15.3354   -8.3306  -10.3236 N   0  0  0  0  0  0  0  0  0  0  0  0
   16.9995   -8.4090  -12.0088 C   0  0  0  0  0  0  0  0  0  0  0  0
   16.3249   -7.6852  -12.7814 O   0  0  0  0  0  0  0  0  0  0  0  0
   18.4088   -8.4457  -12.2308 N   0  0  0  0  0  0  0  0  0  0  0  0
   19.0268   -7.7638  -13.3552 C   0  0  1  0  0  0  0  0  0  0  0  0
   20.2017   -6.9866  -12.8534 C   0  0  0  0  0  0  0  0  0  0  0  0
   20.9953   -6.3353  -13.9625 C   0  0  0  0  0  0  0  0  0  0  0  0
   22.1354   -5.6394  -13.3362 C   0  0  0  0  0  0  0  0  0  0  0  0
   22.4406   -5.8988  -12.1563 O   0  0  0  0  0  0  0  0  0  0  0  0
   19.3390   -8.6773  -14.4543 C   0  0  0  0  0  0  0  0  0  0  0  0
   19.2945   -8.2922  -15.7795 O   0  0  0  0  0  0  0  0  0  0  0  0
   22.8566   -4.7126  -14.0447 O   0  0  0  0  0  0  0  0  0  0  0  0
   19.6616   -9.8604  -14.1987 O   0  0  0  0  0  0  0  0  0  0  0  0
  2  1  1  0
  3  4  1  1
  3  2  1  0
  5  3  1  0
  6  5  2  0
  8  7  1  1
  8 10  1  0
  9  8  1  0
 10 12  1  0
 10 11  1  6
 11  5  1  0
 12 14  1  0
 13 12  2  0
 14 15  1  0
 15 20  1  0
 15 16  1  1
 16 17  1  0
 18 17  1  0
 18 22  1  0
 19 18  2  0
 20 23  2  0
 20 21  1  0
M  END
$$$$
