STE.pdb
     RDKit          3D

 23 22  0  0  1  0  0  0  0  0999 V2000
   16.8937  -14.6344  -17.8942 O   0  0  0  0  0  0  0  0  0  0  0  0
   18.2539  -14.8806  -18.0017 C   0  0  0  0  0  0  0  0  0  0  0  0
   19.0295  -14.1771  -16.9190 C   0  0  2  0  0  0  0  0  0  0  0  0
   18.6757  -14.7810  -15.6514 N   0  0  0  0  0  0  0  0  0  0  0  0
   18.8112  -12.7253  -16.8668 C   0  0  0  0  0  0  0  0  0  0  0  0
   19.1471  -12.0161  -17.8640 O   0  0  0  0  0  0  0  0  0  0  0  0
   15.6175  -10.8128  -16.7167 C   0  0  0  0  0  0  0  0  0  0  0  0
   16.4885  -10.3502  -15.5727 C   0  0  1  0  0  0  0  0  0  0  0  0
   16.0737  -10.9821  -14.4032 O   0  0  0  0  0  0  0  0  0  0  0  0
   17.9382  -10.6113  -15.8722 C   0  0  2  0  0  0  0  0  0  0  0  0
   18.2441  -12.0328  -15.7720 N   0  0  0  0  0  0  0  0  0  0  0  0
   18.7478   -9.9117  -14.8433 C   0  0  0  0  0  0  0  0  0  0  0  0
   19.1589  -10.5102  -13.8193 O   0  0  0  0  0  0  0  0  0  0  0  0
   19.0976   -8.5334  -14.9651 N   0  0  0  0  0  0  0  0  0  0  0  0
   19.9163   -7.8586  -13.9724 C   0  0  1  0  0  0  0  0  0  0  0  0
   20.8114   -6.8874  -14.6736 C   0  0  0  0  0  0  0  0  0  0  0  0
   21.7395   -6.1550  -13.7324 C   0  0  0  0  0  0  0  0  0  0  0  0
   22.5364   -5.2156  -14.5443 C   0  0  0  0  0  0  0  0  0  0  0  0
   22.8474   -5.5230  -15.7110 O   0  0  0  0  0  0  0  0  0  0  0  0
   19.1143   -7.2672  -12.9013 C   0  0  0  0  0  0  0  0  0  0  0  0
   19.5641   -7.1704  -11.5995 O   0  0  0  0  0  0  0  0  0  0  0  0
   22.9337   -4.0115  -14.0217 O   0  0  0  0  0  0  0  0  0  0  0  0
   17.9708   -6.8264  -13.1602 O   0  0  0  0  0  0  0  0  0  0  0  0
  2  1  1  0
  3  4  1  1
  3  2  1  0
  5  3  1  0
  6  5  2  0
  8  7  1  6
  8 10  1  0
  9  8  1  0
 10 12  1  0
 10 11  1  1
 11  5  1  0
 12 14  1  0
 13 12  2  0
 14 15  1  0
 15 20  1  0
 15 16  1  6
 16 17  1  0
 18 17  1  0
 18 22  1  0
 19 18  2  0
 20 23  2  0
 20 21  1  0
M  END
$$$$
