STE.pdb
     RDKit          3D

 23 22  0  0  1  0  0  0  0  0999 V2000
   16.3915  -13.1052  -14.4290 O   0  0  0  0  0  0  0  0  0  0  0  0
   16.9368  -11.8750  -14.7627 C   0  0  0  0  0  0  0  0  0  0  0  0
   17.7991  -11.9691  -15.9941 C   0  0  2  0  0  0  0  0  0  0  0  0
   18.9317  -12.8159  -15.6830 N   0  0  0  0  0  0  0  0  0  0  0  0
   18.2621  -10.6725  -16.5068 C   0  0  0  0  0  0  0  0  0  0  0  0
   19.4669  -10.5561  -16.8879 O   0  0  0  0  0  0  0  0  0  0  0  0
   17.2731   -8.5749  -19.4838 C   0  0  0  0  0  0  0  0  0  0  0  0
   17.1565   -7.7217  -18.2429 C   0  0  1  0  0  0  0  0  0  0  0  0
   15.8166   -7.6415  -17.8725 O   0  0  0  0  0  0  0  0  0  0  0  0
   18.0156   -8.2726  -17.1393 C   0  0  2  0  0  0  0  0  0  0  0  0
   17.4593   -9.5134  -16.6146 N   0  0  0  0  0  0  0  0  0  0  0  0
   18.0184   -7.2860  -16.0302 C   0  0  0  0  0  0  0  0  0  0  0  0
   17.2045   -7.3729  -15.0784 O   0  0  0  0  0  0  0  0  0  0  0  0
   18.9396   -6.1967  -15.9896 N   0  0  0  0  0  0  0  0  0  0  0  0
   18.8966   -5.1937  -14.9393 C   0  0  1  0  0  0  0  0  0  0  0  0
   20.2994   -4.8257  -14.5745 C   0  0  0  0  0  0  0  0  0  0  0  0
   21.0296   -5.9319  -13.8486 C   0  0  0  0  0  0  0  0  0  0  0  0
   22.3764   -5.4271  -13.5202 C   0  0  0  0  0  0  0  0  0  0  0  0
   23.3316   -5.6879  -14.2767 O   0  0  0  0  0  0  0  0  0  0  0  0
   18.0525   -4.0534  -15.2956 C   0  0  0  0  0  0  0  0  0  0  0  0
   17.4948   -3.9014  -16.5496 O   0  0  0  0  0  0  0  0  0  0  0  0
   22.5795   -4.6759  -12.3909 O   0  0  0  0  0  0  0  0  0  0  0  0
   17.8168   -3.1705  -14.4389 O   0  0  0  0  0  0  0  0  0  0  0  0
  2  1  1  0
  3  4  1  1
  3  2  1  0
  5  3  1  0
  6  5  2  0
  8  7  1  6
  8 10  1  0
  9  8  1  0
 10 12  1  0
 10 11  1  1
 11  5  1  0
 12 14  1  0
 13 12  2  0
 14 15  1  0
 15 20  1  0
 15 16  1  6
 16 17  1  0
 18 17  1  0
 18 22  1  0
 19 18  2  0
 20 23  2  0
 20 21  1  0
M  END
$$$$
