STE.pdb
     RDKit          3D

 23 22  0  0  1  0  0  0  0  0999 V2000
   23.8027  -14.0618  -18.5458 O   0  0  0  0  0  0  0  0  0  0  0  0
   22.7694  -13.2054  -18.8938 C   0  0  0  0  0  0  0  0  0  0  0  0
   21.6298  -13.2879  -17.9124 C   0  0  2  0  0  0  0  0  0  0  0  0
   20.7282  -14.3285  -18.3607 N   0  0  0  0  0  0  0  0  0  0  0  0
   20.8977  -12.0273  -17.7308 C   0  0  0  0  0  0  0  0  0  0  0  0
   20.2581  -11.5401  -18.7126 O   0  0  0  0  0  0  0  0  0  0  0  0
   19.2342  -10.7392  -14.2355 C   0  0  0  0  0  0  0  0  0  0  0  0
   18.8692  -10.1976  -15.5975 C   0  0  1  0  0  0  0  0  0  0  0  0
   18.1863   -8.9945  -15.4385 O   0  0  0  0  0  0  0  0  0  0  0  0
   20.0965  -10.0420  -16.4514 C   0  0  2  0  0  0  0  0  0  0  0  0
   20.8434  -11.2914  -16.5245 N   0  0  0  0  0  0  0  0  0  0  0  0
   20.9769   -9.0383  -15.8026 C   0  0  0  0  0  0  0  0  0  0  0  0
   21.8466   -9.3791  -14.9640 O   0  0  0  0  0  0  0  0  0  0  0  0
   20.8805   -7.6451  -16.0972 N   0  0  0  0  0  0  0  0  0  0  0  0
   21.7380   -6.6636  -15.4552 C   0  0  1  0  0  0  0  0  0  0  0  0
   21.7242   -5.4117  -16.2730 C   0  0  0  0  0  0  0  0  0  0  0  0
   22.6212   -4.3318  -15.7135 C   0  0  0  0  0  0  0  0  0  0  0  0
   22.4913   -3.1540  -16.5925 C   0  0  0  0  0  0  0  0  0  0  0  0
   21.8738   -3.2567  -17.6699 O   0  0  0  0  0  0  0  0  0  0  0  0
   21.3938   -6.4626  -14.0477 C   0  0  0  0  0  0  0  0  0  0  0  0
   22.3303   -6.1207  -13.0924 O   0  0  0  0  0  0  0  0  0  0  0  0
   23.0449   -1.9530  -16.2295 O   0  0  0  0  0  0  0  0  0  0  0  0
   20.2051   -6.6027  -13.6786 O   0  0  0  0  0  0  0  0  0  0  0  0
  2  1  1  0
  3  4  1  6
  3  2  1  0
  5  3  1  0
  6  5  2  0
  8  7  1  1
  8 10  1  0
  9  8  1  0
 10 12  1  0
 10 11  1  1
 11  5  1  0
 12 14  1  0
 13 12  2  0
 14 15  1  0
 15 20  1  0
 15 16  1  6
 16 17  1  0
 18 17  1  0
 18 22  1  0
 19 18  2  0
 20 23  2  0
 20 21  1  0
M  END
$$$$
