STE.pdb
     RDKit          3D

 23 22  0  0  1  0  0  0  0  0999 V2000
   15.5642  -11.6679  -15.4792 O   0  0  0  0  0  0  0  0  0  0  0  0
   16.7459  -11.5420  -14.7650 C   0  0  0  0  0  0  0  0  0  0  0  0
   17.9460  -11.5657  -15.6749 C   0  0  2  0  0  0  0  0  0  0  0  0
   18.3930  -12.9383  -15.7895 N   0  0  0  0  0  0  0  0  0  0  0  0
   19.0540  -10.7075  -15.2344 C   0  0  0  0  0  0  0  0  0  0  0  0
   19.8136  -11.1132  -14.3022 O   0  0  0  0  0  0  0  0  0  0  0  0
   20.6312   -7.4579  -17.4492 C   0  0  0  0  0  0  0  0  0  0  0  0
   21.3976   -8.2811  -16.4410 C   0  0  1  0  0  0  0  0  0  0  0  0
   22.5055   -7.5550  -16.0116 O   0  0  0  0  0  0  0  0  0  0  0  0
   20.5070   -8.6815  -15.2981 C   0  0  2  0  0  0  0  0  0  0  0  0
   19.3541   -9.4354  -15.7741 N   0  0  0  0  0  0  0  0  0  0  0  0
   19.9931   -7.4404  -14.6663 C   0  0  0  0  0  0  0  0  0  0  0  0
   18.7704   -7.1566  -14.6867 O   0  0  0  0  0  0  0  0  0  0  0  0
   20.8562   -6.5137  -14.0083 N   0  0  0  0  0  0  0  0  0  0  0  0
   20.3388   -5.3800  -13.2613 C   0  0  1  0  0  0  0  0  0  0  0  0
   19.5731   -5.8947  -12.0843 C   0  0  0  0  0  0  0  0  0  0  0  0
   19.1285   -4.7979  -11.1446 C   0  0  0  0  0  0  0  0  0  0  0  0
   18.6146   -5.4474   -9.9236 C   0  0  0  0  0  0  0  0  0  0  0  0
   18.9295   -6.6275   -9.6766 O   0  0  0  0  0  0  0  0  0  0  0  0
   21.3854   -4.4169  -12.9193 C   0  0  0  0  0  0  0  0  0  0  0  0
   22.7294   -4.6852  -13.0869 O   0  0  0  0  0  0  0  0  0  0  0  0
   17.7959   -4.7603   -9.0643 O   0  0  0  0  0  0  0  0  0  0  0  0
   21.0649   -3.2988  -12.4543 O   0  0  0  0  0  0  0  0  0  0  0  0
  2  1  1  0
  3  4  1  1
  3  2  1  0
  5  3  1  0
  6  5  2  0
  8  7  1  6
  8 10  1  0
  9  8  1  0
 10 12  1  0
 10 11  1  6
 11  5  1  0
 12 14  1  0
 13 12  2  0
 14 15  1  0
 15 20  1  0
 15 16  1  1
 16 17  1  0
 18 17  1  0
 18 22  1  0
 19 18  2  0
 20 23  2  0
 20 21  1  0
M  END
$$$$
