STE.pdb
     RDKit          3D

 23 22  0  0  1  0  0  0  0  0999 V2000
   15.6796  -11.8953  -11.9193 O   0  0  0  0  0  0  0  0  0  0  0  0
   16.0468  -11.4781  -10.6490 C   0  0  0  0  0  0  0  0  0  0  0  0
   15.2538  -10.2743  -10.2125 C   0  0  2  0  0  0  0  0  0  0  0  0
   13.8806  -10.4687  -10.6288 N   0  0  0  0  0  0  0  0  0  0  0  0
   15.7633   -8.9968  -10.7288 C   0  0  0  0  0  0  0  0  0  0  0  0
   15.3101   -8.5523  -11.8277 O   0  0  0  0  0  0  0  0  0  0  0  0
   15.4381   -5.5886   -9.4622 C   0  0  0  0  0  0  0  0  0  0  0  0
   16.9161   -5.7988   -9.6914 C   0  0  1  0  0  0  0  0  0  0  0  0
   17.5361   -6.0308   -8.4663 O   0  0  0  0  0  0  0  0  0  0  0  0
   17.1465   -6.9225  -10.6629 C   0  0  2  0  0  0  0  0  0  0  0  0
   16.7407   -8.1995  -10.0895 N   0  0  0  0  0  0  0  0  0  0  0  0
   18.6048   -7.0011  -10.9290 C   0  0  0  0  0  0  0  0  0  0  0  0
   19.3142   -7.8988  -10.4125 O   0  0  0  0  0  0  0  0  0  0  0  0
   19.2695   -6.0674  -11.7793 N   0  0  0  0  0  0  0  0  0  0  0  0
   20.6712   -6.2139  -12.1328 C   0  0  1  0  0  0  0  0  0  0  0  0
   20.8358   -7.4786  -12.9135 C   0  0  0  0  0  0  0  0  0  0  0  0
   20.4834   -7.3200  -14.3745 C   0  0  0  0  0  0  0  0  0  0  0  0
   20.8124   -8.5918  -15.0461 C   0  0  0  0  0  0  0  0  0  0  0  0
   20.7895   -9.6541  -14.3952 O   0  0  0  0  0  0  0  0  0  0  0  0
   21.2020   -5.0254  -12.8004 C   0  0  0  0  0  0  0  0  0  0  0  0
   22.5546   -4.7647  -12.8951 O   0  0  0  0  0  0  0  0  0  0  0  0
   21.1417   -8.6084  -16.3773 O   0  0  0  0  0  0  0  0  0  0  0  0
   20.4095   -4.2011  -13.3119 O   0  0  0  0  0  0  0  0  0  0  0  0
  2  1  1  0
  3  4  1  6
  3  2  1  0
  5  3  1  0
  6  5  2  0
  8  7  1  1
  8 10  1  0
  9  8  1  0
 10 12  1  0
 10 11  1  1
 11  5  1  0
 12 14  1  0
 13 12  2  0
 14 15  1  0
 15 20  1  0
 15 16  1  6
 16 17  1  0
 18 17  1  0
 18 22  1  0
 19 18  2  0
 20 23  2  0
 20 21  1  0
M  END
$$$$
