STE.pdb
     RDKit          3D

 23 22  0  0  1  0  0  0  0  0999 V2000
   22.9763  -10.9699  -19.3980 O   0  0  0  0  0  0  0  0  0  0  0  0
   22.0485  -10.1102  -18.8305 C   0  0  0  0  0  0  0  0  0  0  0  0
   21.7938  -10.4487  -17.3851 C   0  0  2  0  0  0  0  0  0  0  0  0
   21.0664  -11.7000  -17.3406 N   0  0  0  0  0  0  0  0  0  0  0  0
   21.0644   -9.4123  -16.6423 C   0  0  0  0  0  0  0  0  0  0  0  0
   19.8720   -9.1377  -16.9790 O   0  0  0  0  0  0  0  0  0  0  0  0
   19.5673   -9.3914  -13.4768 C   0  0  0  0  0  0  0  0  0  0  0  0
   20.4651   -8.1770  -13.4496 C   0  0  1  0  0  0  0  0  0  0  0  0
   21.6243   -8.4863  -12.7427 O   0  0  0  0  0  0  0  0  0  0  0  0
   20.7634   -7.7081  -14.8463 C   0  0  2  0  0  0  0  0  0  0  0  0
   21.5908   -8.6755  -15.5561 N   0  0  0  0  0  0  0  0  0  0  0  0
   21.5434   -6.4491  -14.7459 C   0  0  0  0  0  0  0  0  0  0  0  0
   22.7470   -6.3980  -15.0988 O   0  0  0  0  0  0  0  0  0  0  0  0
   20.9690   -5.2416  -14.2470 N   0  0  0  0  0  0  0  0  0  0  0  0
   21.6034   -3.9499  -14.4470 C   0  0  1  0  0  0  0  0  0  0  0  0
   21.8720   -3.7722  -15.9073 C   0  0  0  0  0  0  0  0  0  0  0  0
   22.3809   -2.3910  -16.2497 C   0  0  0  0  0  0  0  0  0  0  0  0
   22.7580   -2.4032  -17.6759 C   0  0  0  0  0  0  0  0  0  0  0  0
   21.9192   -2.0726  -18.5360 O   0  0  0  0  0  0  0  0  0  0  0  0
   20.8410   -2.8579  -13.8418 C   0  0  0  0  0  0  0  0  0  0  0  0
   19.4918   -2.9546  -13.5645 O   0  0  0  0  0  0  0  0  0  0  0  0
   24.0221   -2.7752  -18.0562 O   0  0  0  0  0  0  0  0  0  0  0  0
   21.4218   -1.7851  -13.5578 O   0  0  0  0  0  0  0  0  0  0  0  0
  2  1  1  0
  3  4  1  6
  3  2  1  0
  5  3  1  0
  6  5  2  0
  8  7  1  6
  8 10  1  0
  9  8  1  0
 10 12  1  0
 10 11  1  1
 11  5  1  0
 12 14  1  0
 13 12  2  0
 14 15  1  0
 15 20  1  0
 15 16  1  6
 16 17  1  0
 18 17  1  0
 18 22  1  0
 19 18  2  0
 20 23  2  0
 20 21  1  0
M  END
$$$$
