STE.pdb
     RDKit          3D

 23 22  0  0  1  0  0  0  0  0999 V2000
   26.6412  -18.9819  -16.6931 O   0  0  0  0  0  0  0  0  0  0  0  0
   27.4397  -20.0585  -17.0476 C   0  0  0  0  0  0  0  0  0  0  0  0
   27.8504  -20.8620  -15.8417 C   0  0  2  0  0  0  0  0  0  0  0  0
   28.7387  -21.9150  -16.2876 N   0  0  0  0  0  0  0  0  0  0  0  0
   26.7272  -21.4332  -15.0864 C   0  0  0  0  0  0  0  0  0  0  0  0
   26.3119  -22.5945  -15.3851 O   0  0  0  0  0  0  0  0  0  0  0  0
   26.4390  -21.7748  -11.3323 C   0  0  0  0  0  0  0  0  0  0  0  0
   25.1115  -21.2497  -11.8254 C   0  0  1  0  0  0  0  0  0  0  0  0
   24.9954  -19.9079  -11.4718 O   0  0  0  0  0  0  0  0  0  0  0  0
   24.9784  -21.4565  -13.3084 C   0  0  2  0  0  0  0  0  0  0  0  0
   26.0521  -20.7827  -14.0277 N   0  0  0  0  0  0  0  0  0  0  0  0
   23.7005  -20.8372  -13.7406 C   0  0  0  0  0  0  0  0  0  0  0  0
   23.5805  -19.5916  -13.8400 O   0  0  0  0  0  0  0  0  0  0  0  0
   22.5518  -21.6205  -14.0629 N   0  0  0  0  0  0  0  0  0  0  0  0
   21.2801  -21.0105  -14.4119 C   0  0  1  0  0  0  0  0  0  0  0  0
   20.3654  -22.0767  -14.9247 C   0  0  0  0  0  0  0  0  0  0  0  0
   19.8131  -22.9576  -13.8281 C   0  0  0  0  0  0  0  0  0  0  0  0
   18.8537  -23.8878  -14.4534 C   0  0  0  0  0  0  0  0  0  0  0  0
   18.6088  -23.7907  -15.6713 O   0  0  0  0  0  0  0  0  0  0  0  0
   20.7230  -20.2221  -13.3129 C   0  0  0  0  0  0  0  0  0  0  0  0
   21.1104  -20.3960  -11.9991 O   0  0  0  0  0  0  0  0  0  0  0  0
   18.2340  -24.8537  -13.7026 O   0  0  0  0  0  0  0  0  0  0  0  0
   19.8581  -19.3497  -13.5578 O   0  0  0  0  0  0  0  0  0  0  0  0
  2  1  1  0
  3  4  1  6
  3  2  1  0
  5  3  1  0
  6  5  2  0
  8  7  1  6
  8 10  1  0
  9  8  1  0
 10 12  1  0
 10 11  1  6
 11  5  1  0
 12 14  1  0
 13 12  2  0
 14 15  1  0
 15 20  1  0
 15 16  1  1
 16 17  1  0
 18 17  1  0
 18 22  1  0
 19 18  2  0
 20 23  2  0
 20 21  1  0
M  END
$$$$
