STE.pdb
     RDKit          3D

 23 22  0  0  1  0  0  0  0  0999 V2000
   19.4573   -9.5584  -19.7035 O   0  0  0  0  0  0  0  0  0  0  0  0
   18.9621  -10.8349  -19.4850 C   0  0  0  0  0  0  0  0  0  0  0  0
   19.9199  -11.6671  -18.6734 C   0  0  2  0  0  0  0  0  0  0  0  0
   19.3003  -12.9533  -18.4316 N   0  0  0  0  0  0  0  0  0  0  0  0
   20.3245  -11.0530  -17.4017 C   0  0  0  0  0  0  0  0  0  0  0  0
   19.4931  -11.0168  -16.4436 O   0  0  0  0  0  0  0  0  0  0  0  0
   22.8431  -11.8198  -14.7692 C   0  0  0  0  0  0  0  0  0  0  0  0
   23.0988  -10.4038  -15.2286 C   0  0  1  0  0  0  0  0  0  0  0  0
   24.1950  -10.3971  -16.0873 O   0  0  0  0  0  0  0  0  0  0  0  0
   21.8707   -9.8275  -15.8759 C   0  0  2  0  0  0  0  0  0  0  0  0
   21.5939  -10.4840  -17.1474 N   0  0  0  0  0  0  0  0  0  0  0  0
   22.1393   -8.3968  -16.1667 C   0  0  0  0  0  0  0  0  0  0  0  0
   22.3552   -7.9989  -17.3376 O   0  0  0  0  0  0  0  0  0  0  0  0
   22.1653   -7.4082  -15.1378 N   0  0  0  0  0  0  0  0  0  0  0  0
   22.2810   -5.9912  -15.4375 C   0  0  1  0  0  0  0  0  0  0  0  0
   21.2543   -5.6365  -16.4654 C   0  0  0  0  0  0  0  0  0  0  0  0
   21.2272   -4.1601  -16.7870 C   0  0  0  0  0  0  0  0  0  0  0  0
   20.1720   -3.9500  -17.7964 C   0  0  0  0  0  0  0  0  0  0  0  0
   18.9838   -3.8570  -17.4328 O   0  0  0  0  0  0  0  0  0  0  0  0
   22.2316   -5.1635  -14.2323 C   0  0  0  0  0  0  0  0  0  0  0  0
   22.7835   -3.8993  -14.1727 O   0  0  0  0  0  0  0  0  0  0  0  0
   20.4929   -3.8572  -19.1265 O   0  0  0  0  0  0  0  0  0  0  0  0
   21.6691   -5.6060  -13.2043 O   0  0  0  0  0  0  0  0  0  0  0  0
  2  1  1  0
  3  4  1  1
  3  2  1  0
  5  3  1  0
  6  5  2  0
  8  7  1  6
  8 10  1  0
  9  8  1  0
 10 12  1  0
 10 11  1  6
 11  5  1  0
 12 14  1  0
 13 12  2  0
 14 15  1  0
 15 20  1  0
 15 16  1  6
 16 17  1  0
 18 17  1  0
 18 22  1  0
 19 18  2  0
 20 23  2  0
 20 21  1  0
M  END
$$$$
