STE.pdb
     RDKit          3D

 23 22  0  0  1  0  0  0  0  0999 V2000
   27.5024  -11.4053  -15.0038 O   0  0  0  0  0  0  0  0  0  0  0  0
   26.5436  -10.5237  -15.4790 C   0  0  0  0  0  0  0  0  0  0  0  0
   25.3817  -11.2538  -16.0999 C   0  0  2  0  0  0  0  0  0  0  0  0
   25.8468  -11.8773  -17.3213 N   0  0  0  0  0  0  0  0  0  0  0  0
   24.2148  -10.4055  -16.3770 C   0  0  0  0  0  0  0  0  0  0  0  0
   24.1757   -9.7477  -17.4616 O   0  0  0  0  0  0  0  0  0  0  0  0
   20.7132  -11.3074  -17.0051 C   0  0  0  0  0  0  0  0  0  0  0  0
   20.6938  -10.2751  -15.9026 C   0  0  1  0  0  0  0  0  0  0  0  0
   20.5077  -10.9192  -14.6821 O   0  0  0  0  0  0  0  0  0  0  0  0
   21.9539   -9.4558  -15.9225 C   0  0  2  0  0  0  0  0  0  0  0  0
   23.1028  -10.2553  -15.5164 N   0  0  0  0  0  0  0  0  0  0  0  0
   21.8017   -8.3641  -14.9282 C   0  0  0  0  0  0  0  0  0  0  0  0
   22.6622   -8.1716  -14.0347 O   0  0  0  0  0  0  0  0  0  0  0  0
   20.6780   -7.4844  -14.9375 N   0  0  0  0  0  0  0  0  0  0  0  0
   20.7313   -6.1647  -14.3320 C   0  0  1  0  0  0  0  0  0  0  0  0
   21.8918   -5.4210  -14.9123 C   0  0  0  0  0  0  0  0  0  0  0  0
   22.0428   -4.0283  -14.3455 C   0  0  0  0  0  0  0  0  0  0  0  0
   23.2209   -3.4174  -14.9900 C   0  0  0  0  0  0  0  0  0  0  0  0
   24.1619   -4.1434  -15.3643 O   0  0  0  0  0  0  0  0  0  0  0  0
   19.4556   -5.4560  -14.4334 C   0  0  0  0  0  0  0  0  0  0  0  0
   18.6279   -5.5640  -15.5333 O   0  0  0  0  0  0  0  0  0  0  0  0
   23.2834   -2.0603  -15.1776 O   0  0  0  0  0  0  0  0  0  0  0  0
   19.0853   -4.7172  -13.4921 O   0  0  0  0  0  0  0  0  0  0  0  0
  2  1  1  0
  3  4  1  6
  3  2  1  0
  5  3  1  0
  6  5  2  0
  8  7  1  6
  8 10  1  0
  9  8  1  0
 10 12  1  0
 10 11  1  1
 11  5  1  0
 12 14  1  0
 13 12  2  0
 14 15  1  0
 15 20  1  0
 15 16  1  6
 16 17  1  0
 18 17  1  0
 18 22  1  0
 19 18  2  0
 20 23  2  0
 20 21  1  0
M  END
$$$$
