SQY.pdb
     RDKit          3D

 28 28  0  0  1  0  0  0  0  0999 V2000
    7.3585  -13.2240   22.4633 O   0  0  0  0  0  0  0  0  0  0  0  0
    8.0454  -13.4530   21.2895 C   0  0  0  0  0  0  0  0  0  0  0  0
    7.7635  -14.8320   20.7113 C   0  0  2  0  0  0  0  0  0  0  0  0
    6.3734  -15.0002   20.4207 N   0  0  0  0  0  0  0  0  0  0  0  0
    8.2828  -15.8394   21.6662 C   0  0  0  0  0  0  0  0  0  0  0  0
    7.4525  -16.4304   22.4021 O   0  0  0  0  0  0  0  0  0  0  0  0
   12.6119  -20.3425   21.3063 N   0  0  0  0  0  0  0  0  0  0  0  0
   13.0312  -19.4601   22.3280 C   0  0  0  0  0  0  0  0  0  0  0  0
   14.2613  -19.3828   22.5605 O   0  0  0  0  0  0  0  0  0  0  0  0
   12.1056  -18.6302   23.1307 C   0  0  0  0  0  0  0  0  0  0  0  0
   11.4640  -17.6024   22.2656 C   0  0  0  0  0  0  0  0  0  0  0  0
   10.1123  -17.1468   22.7442 C   0  0  2  0  0  0  0  0  0  0  0  0
    9.6435  -16.1550   21.7799 N   0  0  0  0  0  0  0  0  0  0  0  0
   10.1239  -16.5202   24.0700 C   0  0  0  0  0  0  0  0  0  0  0  0
   10.7522  -15.4403   24.3128 O   0  0  0  0  0  0  0  0  0  0  0  0
    6.6086  -10.9550   25.8997 O   0  0  0  0  0  0  0  0  0  0  0  0
    7.0267  -12.2608   26.2070 C   0  0  0  0  0  0  0  0  0  0  0  0
    6.1908  -13.3134   25.9152 C   0  0  0  0  0  0  0  0  0  0  0  0
    6.5748  -14.5873   26.2041 C   0  0  0  0  0  0  0  0  0  0  0  0
    7.7951  -14.8473   26.7884 C   0  0  0  0  0  0  0  0  0  0  0  0
    8.1996  -16.2278   27.0971 C   0  0  0  0  0  0  0  0  0  0  0  0
    9.5284  -16.5729   26.5269 C   0  0  2  0  0  0  0  0  0  0  0  0
    9.4308  -17.0838   25.1690 N   0  0  0  0  0  0  0  0  0  0  0  0
   10.3334  -17.4816   27.3779 C   0  0  0  0  0  0  0  0  0  0  0  0
   10.9096  -18.6541   26.9448 O   0  0  0  0  0  0  0  0  0  0  0  0
    8.6194  -13.7791   27.0736 C   0  0  0  0  0  0  0  0  0  0  0  0
    8.2563  -12.4932   26.7932 C   0  0  0  0  0  0  0  0  0  0  0  0
   10.5233  -17.1871   28.6010 O   0  0  0  0  0  0  0  0  0  0  0  0
  1  2  1  0
  3  4  1  1
  3  2  1  0
  5  3  1  0
  6  5  2  0
  8 10  1  0
  8  7  1  0
  9  8  2  0
 11 10  1  0
 12 11  1  6
 12 13  1  0
 13  5  1  0
 14 12  1  0
 14 15  2  0
 16 17  1  0
 17 18  2  0
 18 19  1  0
 20 19  2  0
 20 21  1  0
 22 21  1  1
 22 23  1  0
 23 14  1  0
 24 22  1  0
 25 24  1  0
 26 20  1  0
 27 17  1  0
 27 26  2  0
 28 24  2  0
M  END
$$$$
