SQY.pdb
     RDKit          3D

 28 28  0  0  1  0  0  0  0  0999 V2000
   10.3446  -16.5505   16.0423 O   0  0  0  0  0  0  0  0  0  0  0  0
    9.4710  -16.3087   17.0818 C   0  0  0  0  0  0  0  0  0  0  0  0
    8.7083  -17.5567   17.5017 C   0  0  2  0  0  0  0  0  0  0  0  0
    7.5671  -17.7742   16.6679 N   0  0  0  0  0  0  0  0  0  0  0  0
    8.3610  -17.4154   18.9355 C   0  0  0  0  0  0  0  0  0  0  0  0
    7.1557  -17.5589   19.2624 O   0  0  0  0  0  0  0  0  0  0  0  0
    7.4393  -21.1024   22.0489 N   0  0  0  0  0  0  0  0  0  0  0  0
    8.8369  -20.8943   22.0090 C   0  0  0  0  0  0  0  0  0  0  0  0
    9.5781  -21.8931   22.1711 O   0  0  0  0  0  0  0  0  0  0  0  0
    9.4671  -19.5737   21.7883 C   0  0  0  0  0  0  0  0  0  0  0  0
    8.4176  -18.5297   21.6296 C   0  0  0  0  0  0  0  0  0  0  0  0
    8.9525  -17.1528   21.3438 C   0  0  2  0  0  0  0  0  0  0  0  0
    9.3095  -17.1322   19.9277 N   0  0  0  0  0  0  0  0  0  0  0  0
   10.1469  -16.7993   22.1178 C   0  0  0  0  0  0  0  0  0  0  0  0
   11.0444  -17.6495   22.4205 O   0  0  0  0  0  0  0  0  0  0  0  0
    5.6492  -11.5661   27.3514 O   0  0  0  0  0  0  0  0  0  0  0  0
    6.3102  -12.2797   26.3374 C   0  0  0  0  0  0  0  0  0  0  0  0
    6.0912  -13.6329   26.2245 C   0  0  0  0  0  0  0  0  0  0  0  0
    6.7207  -14.3449   25.2496 C   0  0  0  0  0  0  0  0  0  0  0  0
    7.5812  -13.7329   24.3648 C   0  0  0  0  0  0  0  0  0  0  0  0
    8.2570  -14.5121   23.3156 C   0  0  0  0  0  0  0  0  0  0  0  0
    9.6489  -14.8795   23.6862 C   0  0  2  0  0  0  0  0  0  0  0  0
   10.3752  -15.4797   22.5787 N   0  0  0  0  0  0  0  0  0  0  0  0
    9.7481  -15.7213   24.9026 C   0  0  0  0  0  0  0  0  0  0  0  0
   10.4131  -15.3605   26.0524 O   0  0  0  0  0  0  0  0  0  0  0  0
    7.7882  -12.3755   24.4937 C   0  0  0  0  0  0  0  0  0  0  0  0
    7.1684  -11.6405   25.4630 C   0  0  0  0  0  0  0  0  0  0  0  0
    9.1915  -16.8653   24.9176 O   0  0  0  0  0  0  0  0  0  0  0  0
  1  2  1  0
  3  4  1  6
  3  2  1  0
  5  3  1  0
  6  5  2  0
  8 10  1  0
  8  7  1  0
  9  8  2  0
 11 10  1  0
 12 11  1  1
 12 13  1  0
 13  5  1  0
 14 12  1  0
 14 15  2  0
 16 17  1  0
 17 18  2  0
 18 19  1  0
 20 19  2  0
 20 21  1  0
 22 21  1  6
 22 23  1  0
 23 14  1  0
 24 22  1  0
 25 24  1  0
 26 20  1  0
 27 17  1  0
 27 26  2  0
 28 24  2  0
M  END
$$$$
