SQY.pdb
     RDKit          3D

 28 28  0  0  1  0  0  0  0  0999 V2000
    6.7824  -18.4280   22.1770 O   0  0  0  0  0  0  0  0  0  0  0  0
    6.8915  -19.0500   20.9509 C   0  0  0  0  0  0  0  0  0  0  0  0
    6.8076  -18.0676   19.7918 C   0  0  2  0  0  0  0  0  0  0  0  0
    6.9710  -18.7303   18.5352 N   0  0  0  0  0  0  0  0  0  0  0  0
    7.8150  -17.0056   20.0232 C   0  0  0  0  0  0  0  0  0  0  0  0
    9.0047  -17.2465   19.6963 O   0  0  0  0  0  0  0  0  0  0  0  0
    9.5221  -13.0629   18.2584 N   0  0  0  0  0  0  0  0  0  0  0  0
    8.1419  -13.2604   18.0250 C   0  0  0  0  0  0  0  0  0  0  0  0
    7.7628  -13.3635   16.8339 O   0  0  0  0  0  0  0  0  0  0  0  0
    7.1294  -13.3513   19.1004 C   0  0  0  0  0  0  0  0  0  0  0  0
    7.8013  -13.4094   20.4277 C   0  0  0  0  0  0  0  0  0  0  0  0
    8.5048  -14.7093   20.7088 C   0  0  2  0  0  0  0  0  0  0  0  0
    7.4987  -15.7608   20.5840 N   0  0  0  0  0  0  0  0  0  0  0  0
    9.0898  -14.7983   22.0506 C   0  0  0  0  0  0  0  0  0  0  0  0
   10.0163  -14.0213   22.4478 O   0  0  0  0  0  0  0  0  0  0  0  0
   10.4266  -14.8442   30.5134 O   0  0  0  0  0  0  0  0  0  0  0  0
   10.1126  -14.7788   29.1455 C   0  0  0  0  0  0  0  0  0  0  0  0
    9.1119  -13.9306   28.7319 C   0  0  0  0  0  0  0  0  0  0  0  0
    8.7904  -13.8507   27.4113 C   0  0  0  0  0  0  0  0  0  0  0  0
    9.4525  -14.6090   26.4707 C   0  0  0  0  0  0  0  0  0  0  0  0
    9.0964  -14.5154   25.0463 C   0  0  0  0  0  0  0  0  0  0  0  0
    9.1523  -15.8316   24.3576 C   0  0  2  0  0  0  0  0  0  0  0  0
    8.6552  -15.7623   22.9928 N   0  0  0  0  0  0  0  0  0  0  0  0
    8.4975  -16.9324   25.1042 C   0  0  0  0  0  0  0  0  0  0  0  0
    7.1923  -17.3312   24.9263 O   0  0  0  0  0  0  0  0  0  0  0  0
   10.4528  -15.4536   26.9045 C   0  0  0  0  0  0  0  0  0  0  0  0
   10.7929  -15.5508   28.2231 C   0  0  0  0  0  0  0  0  0  0  0  0
    9.1607  -17.5739   25.9803 O   0  0  0  0  0  0  0  0  0  0  0  0
  1  2  1  0
  3  4  1  6
  3  2  1  0
  5  3  1  0
  6  5  2  0
  8 10  1  0
  8  7  1  0
  9  8  2  0
 11 10  1  0
 12 11  1  1
 12 13  1  0
 13  5  1  0
 14 12  1  0
 14 15  2  0
 16 17  1  0
 17 18  2  0
 18 19  1  0
 20 19  2  0
 20 21  1  0
 22 21  1  1
 22 23  1  0
 23 14  1  0
 24 22  1  0
 25 24  1  0
 26 20  1  0
 27 17  1  0
 27 26  2  0
 28 24  2  0
M  END
$$$$
