SQY.pdb
     RDKit          3D

 28 28  0  0  1  0  0  0  0  0999 V2000
    7.5788  -13.7046   20.5854 O   0  0  0  0  0  0  0  0  0  0  0  0
    8.2456  -12.8850   19.6989 C   0  0  0  0  0  0  0  0  0  0  0  0
    8.9059  -13.6646   18.5713 C   0  0  2  0  0  0  0  0  0  0  0  0
    7.9377  -14.3690   17.7892 N   0  0  0  0  0  0  0  0  0  0  0  0
    9.9259  -14.5560   19.1724 C   0  0  0  0  0  0  0  0  0  0  0  0
    9.6527  -15.7797   19.2638 O   0  0  0  0  0  0  0  0  0  0  0  0
   15.5269  -13.4078   17.8402 N   0  0  0  0  0  0  0  0  0  0  0  0
   15.1384  -14.7626   17.9500 C   0  0  0  0  0  0  0  0  0  0  0  0
   15.9894  -15.6366   17.6584 O   0  0  0  0  0  0  0  0  0  0  0  0
   13.7941  -15.2012   18.3863 C   0  0  0  0  0  0  0  0  0  0  0  0
   13.4802  -14.6249   19.7227 C   0  0  0  0  0  0  0  0  0  0  0  0
   12.1260  -15.0041   20.2575 C   0  0  2  0  0  0  0  0  0  0  0  0
   11.1656  -14.0957   19.6366 N   0  0  0  0  0  0  0  0  0  0  0  0
   11.9968  -14.8753   21.7126 C   0  0  0  0  0  0  0  0  0  0  0  0
   11.4323  -13.8774   22.2654 O   0  0  0  0  0  0  0  0  0  0  0  0
   10.1819  -15.1887   29.9961 O   0  0  0  0  0  0  0  0  0  0  0  0
   10.3579  -15.3195   28.6082 C   0  0  0  0  0  0  0  0  0  0  0  0
   10.4782  -14.1834   27.8423 C   0  0  0  0  0  0  0  0  0  0  0  0
   10.6494  -14.2858   26.4955 C   0  0  0  0  0  0  0  0  0  0  0  0
   10.7054  -15.5156   25.8770 C   0  0  0  0  0  0  0  0  0  0  0  0
   10.8899  -15.6147   24.4207 C   0  0  0  0  0  0  0  0  0  0  0  0
   12.3128  -15.8139   24.0392 C   0  0  2  0  0  0  0  0  0  0  0  0
   12.4965  -15.8617   22.5975 N   0  0  0  0  0  0  0  0  0  0  0  0
   12.9565  -16.9780   24.6937 C   0  0  0  0  0  0  0  0  0  0  0  0
   13.6824  -16.9171   25.8616 O   0  0  0  0  0  0  0  0  0  0  0  0
   10.5829  -16.6433   26.6614 C   0  0  0  0  0  0  0  0  0  0  0  0
   10.4105  -16.5658   28.0135 C   0  0  0  0  0  0  0  0  0  0  0  0
   12.8513  -18.1299   24.1637 O   0  0  0  0  0  0  0  0  0  0  0  0
  1  2  1  0
  3  4  1  1
  3  2  1  0
  5  3  1  0
  6  5  2  0
  8 10  1  0
  8  7  1  0
  9  8  2  0
 11 10  1  0
 12 11  1  6
 12 13  1  0
 13  5  1  0
 14 12  1  0
 14 15  2  0
 16 17  1  0
 17 18  2  0
 18 19  1  0
 20 19  2  0
 20 21  1  0
 22 21  1  6
 22 23  1  0
 23 14  1  0
 24 22  1  0
 25 24  1  0
 26 20  1  0
 27 17  1  0
 27 26  2  0
 28 24  2  0
M  END
$$$$
