SQY.pdb
     RDKit          3D

 28 28  0  0  1  0  0  0  0  0999 V2000
   10.2244  -12.5728   20.5090 O   0  0  0  0  0  0  0  0  0  0  0  0
    9.8641  -13.3222   19.4086 C   0  0  0  0  0  0  0  0  0  0  0  0
    8.4048  -13.7515   19.4510 C   0  0  2  0  0  0  0  0  0  0  0  0
    7.5320  -12.6214   19.5290 N   0  0  0  0  0  0  0  0  0  0  0  0
    8.2408  -14.6908   20.5855 C   0  0  0  0  0  0  0  0  0  0  0  0
    7.3684  -14.4188   21.4488 O   0  0  0  0  0  0  0  0  0  0  0  0
    8.5537  -20.7912   20.2559 N   0  0  0  0  0  0  0  0  0  0  0  0
    9.1025  -20.5688   21.5395 C   0  0  0  0  0  0  0  0  0  0  0  0
    9.6821  -21.5306   22.0984 O   0  0  0  0  0  0  0  0  0  0  0  0
    9.0308  -19.2744   22.2531 C   0  0  0  0  0  0  0  0  0  0  0  0
    9.2214  -18.1531   21.2924 C   0  0  0  0  0  0  0  0  0  0  0  0
    8.7204  -16.8231   21.7863 C   0  0  2  0  0  0  0  0  0  0  0  0
    9.0087  -15.8539   20.7324 N   0  0  0  0  0  0  0  0  0  0  0  0
    9.3649  -16.3580   23.0188 C   0  0  0  0  0  0  0  0  0  0  0  0
   10.4968  -15.7758   23.0233 O   0  0  0  0  0  0  0  0  0  0  0  0
    5.9818  -10.7270   25.5072 O   0  0  0  0  0  0  0  0  0  0  0  0
    6.5980  -11.9605   25.7773 C   0  0  0  0  0  0  0  0  0  0  0  0
    5.9027  -13.1208   25.5278 C   0  0  0  0  0  0  0  0  0  0  0  0
    6.4797  -14.3276   25.7818 C   0  0  0  0  0  0  0  0  0  0  0  0
    7.7580  -14.4124   26.2885 C   0  0  0  0  0  0  0  0  0  0  0  0
    8.3715  -15.7218   26.5601 C   0  0  0  0  0  0  0  0  0  0  0  0
    9.3777  -16.1031   25.5344 C   0  0  2  0  0  0  0  0  0  0  0  0
    8.7616  -16.5302   24.2885 N   0  0  0  0  0  0  0  0  0  0  0  0
   10.3704  -17.0996   26.0030 C   0  0  0  0  0  0  0  0  0  0  0  0
   10.6228  -18.3034   25.3853 O   0  0  0  0  0  0  0  0  0  0  0  0
    8.4393  -13.2383   26.5321 C   0  0  0  0  0  0  0  0  0  0  0  0
    7.8818  -12.0167   26.2855 C   0  0  0  0  0  0  0  0  0  0  0  0
   11.0535  -16.8568   27.0485 O   0  0  0  0  0  0  0  0  0  0  0  0
  1  2  1  0
  3  4  1  1
  3  2  1  0
  5  3  1  0
  6  5  2  0
  8 10  1  0
  8  7  1  0
  9  8  2  0
 11 10  1  0
 12 11  1  6
 12 13  1  0
 13  5  1  0
 14 12  1  0
 14 15  2  0
 16 17  1  0
 17 18  2  0
 18 19  1  0
 20 19  2  0
 20 21  1  0
 22 21  1  1
 22 23  1  0
 23 14  1  0
 24 22  1  0
 25 24  1  0
 26 20  1  0
 27 17  1  0
 27 26  2  0
 28 24  2  0
M  END
$$$$
