SQY.pdb
     RDKit          3D

 28 28  0  0  1  0  0  0  0  0999 V2000
    7.7465  -15.2198   16.7082 O   0  0  0  0  0  0  0  0  0  0  0  0
    8.0595  -13.9425   17.1235 C   0  0  0  0  0  0  0  0  0  0  0  0
    7.7992  -13.7344   18.6083 C   0  0  2  0  0  0  0  0  0  0  0  0
    7.9182  -12.3558   18.9692 N   0  0  0  0  0  0  0  0  0  0  0  0
    8.7270  -14.6130   19.3591 C   0  0  0  0  0  0  0  0  0  0  0  0
    8.5799  -15.8559   19.2412 O   0  0  0  0  0  0  0  0  0  0  0  0
   14.7300  -14.5052   19.9923 N   0  0  0  0  0  0  0  0  0  0  0  0
   13.7598  -14.4156   18.9680 C   0  0  0  0  0  0  0  0  0  0  0  0
   14.1575  -14.1242   17.8147 O   0  0  0  0  0  0  0  0  0  0  0  0
   12.3135  -14.6451   19.1810 C   0  0  0  0  0  0  0  0  0  0  0  0
   12.0127  -14.6741   20.6389 C   0  0  0  0  0  0  0  0  0  0  0  0
   10.5866  -15.0212   20.9697 C   0  0  2  0  0  0  0  0  0  0  0  0
    9.7475  -14.1204   20.1838 N   0  0  0  0  0  0  0  0  0  0  0  0
   10.2381  -14.8477   22.3836 C   0  0  0  0  0  0  0  0  0  0  0  0
    9.8346  -13.7383   22.8593 O   0  0  0  0  0  0  0  0  0  0  0  0
    6.4904  -11.1496   27.2911 O   0  0  0  0  0  0  0  0  0  0  0  0
    6.8968  -12.2527   26.5215 C   0  0  0  0  0  0  0  0  0  0  0  0
    6.9136  -13.4996   27.1019 C   0  0  0  0  0  0  0  0  0  0  0  0
    7.3037  -14.5830   26.3754 C   0  0  0  0  0  0  0  0  0  0  0  0
    7.6859  -14.4559   25.0579 C   0  0  0  0  0  0  0  0  0  0  0  0
    8.1065  -15.6333   24.2824 C   0  0  0  0  0  0  0  0  0  0  0  0
    9.5283  -15.9950   24.5221 C   0  0  2  0  0  0  0  0  0  0  0  0
   10.3306  -15.9131   23.3122 N   0  0  0  0  0  0  0  0  0  0  0  0
    9.7138  -17.3042   25.1927 C   0  0  0  0  0  0  0  0  0  0  0  0
   10.3945  -18.3713   24.6521 O   0  0  0  0  0  0  0  0  0  0  0  0
    7.6625  -13.1978   24.4933 C   0  0  0  0  0  0  0  0  0  0  0  0
    7.2752  -12.0968   25.2016 C   0  0  0  0  0  0  0  0  0  0  0  0
    9.2199  -17.4885   26.3507 O   0  0  0  0  0  0  0  0  0  0  0  0
  1  2  1  0
  3  4  1  1
  3  2  1  0
  5  3  1  0
  6  5  2  0
  8 10  1  0
  8  7  1  0
  9  8  2  0
 11 10  1  0
 12 11  1  1
 12 13  1  0
 13  5  1  0
 14 12  1  0
 14 15  2  0
 16 17  1  0
 17 18  2  0
 18 19  1  0
 20 19  2  0
 20 21  1  0
 22 21  1  6
 22 23  1  0
 23 14  1  0
 24 22  1  0
 25 24  1  0
 26 20  1  0
 27 17  1  0
 27 26  2  0
 28 24  2  0
M  END
$$$$
