SQY.pdb
     RDKit          3D

 28 28  0  0  1  0  0  0  0  0999 V2000
    8.7694  -16.9757   18.1964 O   0  0  0  0  0  0  0  0  0  0  0  0
    9.1427  -16.6706   16.9043 C   0  0  0  0  0  0  0  0  0  0  0  0
    9.5178  -17.9071   16.1007 C   0  0  2  0  0  0  0  0  0  0  0  0
    8.4263  -18.8277   16.0224 N   0  0  0  0  0  0  0  0  0  0  0  0
   10.7311  -18.4966   16.7147 C   0  0  0  0  0  0  0  0  0  0  0  0
   10.6237  -19.6272   17.2536 O   0  0  0  0  0  0  0  0  0  0  0  0
   16.3939  -16.1559   16.6695 N   0  0  0  0  0  0  0  0  0  0  0  0
   16.6400  -17.4772   17.1075 C   0  0  0  0  0  0  0  0  0  0  0  0
   17.7785  -17.7348   17.5663 O   0  0  0  0  0  0  0  0  0  0  0  0
   15.6360  -18.5630   17.0545 C   0  0  0  0  0  0  0  0  0  0  0  0
   14.3392  -18.0322   16.5514 C   0  0  0  0  0  0  0  0  0  0  0  0
   13.1413  -18.4623   17.3538 C   0  0  2  0  0  0  0  0  0  0  0  0
   11.9760  -17.8528   16.7185 N   0  0  0  0  0  0  0  0  0  0  0  0
   13.1707  -18.0321   18.7554 C   0  0  0  0  0  0  0  0  0  0  0  0
   14.0578  -18.4304   19.5767 O   0  0  0  0  0  0  0  0  0  0  0  0
   17.0614  -13.2670   18.3060 O   0  0  0  0  0  0  0  0  0  0  0  0
   15.8990  -13.7485   18.9315 C   0  0  0  0  0  0  0  0  0  0  0  0
   14.7164  -13.7491   18.2291 C   0  0  0  0  0  0  0  0  0  0  0  0
   13.5775  -14.2111   18.8148 C   0  0  0  0  0  0  0  0  0  0  0  0
   13.5840  -14.6828   20.1092 C   0  0  0  0  0  0  0  0  0  0  0  0
   12.3472  -15.1789   20.7327 C   0  0  0  0  0  0  0  0  0  0  0  0
   12.2243  -16.6583   20.6556 C   0  0  2  0  0  0  0  0  0  0  0  0
   12.2058  -17.1402   19.2837 N   0  0  0  0  0  0  0  0  0  0  0  0
   11.0846  -17.2108   21.4262 C   0  0  0  0  0  0  0  0  0  0  0  0
   10.0650  -17.9615   20.8864 O   0  0  0  0  0  0  0  0  0  0  0  0
   14.7791  -14.6743   20.7975 C   0  0  0  0  0  0  0  0  0  0  0  0
   15.9339  -14.2161   20.2314 C   0  0  0  0  0  0  0  0  0  0  0  0
   11.0124  -16.9929   22.6776 O   0  0  0  0  0  0  0  0  0  0  0  0
  1  2  1  0
  3  4  1  1
  3  2  1  0
  5  3  1  0
  6  5  2  0
  8 10  1  0
  8  7  1  0
  9  8  2  0
 11 10  1  0
 12 11  1  6
 12 13  1  0
 13  5  1  0
 14 12  1  0
 14 15  2  0
 16 17  1  0
 17 18  2  0
 18 19  1  0
 20 19  2  0
 20 21  1  0
 22 21  1  6
 22 23  1  0
 23 14  1  0
 24 22  1  0
 25 24  1  0
 26 20  1  0
 27 17  1  0
 27 26  2  0
 28 24  2  0
M  END
$$$$
