SQY.pdb
     RDKit          3D

 28 28  0  0  1  0  0  0  0  0999 V2000
   16.3313  -17.2148   15.0868 O   0  0  0  0  0  0  0  0  0  0  0  0
   16.4074  -18.5827   14.9285 C   0  0  0  0  0  0  0  0  0  0  0  0
   15.0631  -19.2021   14.5750 C   0  0  2  0  0  0  0  0  0  0  0  0
   14.4566  -18.5318   13.4669 N   0  0  0  0  0  0  0  0  0  0  0  0
   14.2212  -19.1858   15.7946 C   0  0  0  0  0  0  0  0  0  0  0  0
   13.3140  -18.3187   15.8676 O   0  0  0  0  0  0  0  0  0  0  0  0
   12.0230  -23.9767   18.7233 N   0  0  0  0  0  0  0  0  0  0  0  0
   13.4180  -23.7537   18.7754 C   0  0  0  0  0  0  0  0  0  0  0  0
   14.1578  -24.7456   18.9805 O   0  0  0  0  0  0  0  0  0  0  0  0
   14.0469  -22.4254   18.6025 C   0  0  0  0  0  0  0  0  0  0  0  0
   13.0106  -21.4132   18.2585 C   0  0  0  0  0  0  0  0  0  0  0  0
   13.5488  -20.0246   18.0447 C   0  0  2  0  0  0  0  0  0  0  0  0
   14.3937  -20.0859   16.8549 N   0  0  0  0  0  0  0  0  0  0  0  0
   14.3636  -19.5183   19.1539 C   0  0  0  0  0  0  0  0  0  0  0  0
   13.9415  -19.4818   20.3541 O   0  0  0  0  0  0  0  0  0  0  0  0
   14.0291  -22.1460   24.6717 O   0  0  0  0  0  0  0  0  0  0  0  0
   14.8198  -21.5174   23.6951 C   0  0  0  0  0  0  0  0  0  0  0  0
   15.5059  -22.2955   22.7919 C   0  0  0  0  0  0  0  0  0  0  0  0
   16.2783  -21.7084   21.8368 C   0  0  0  0  0  0  0  0  0  0  0  0
   16.3887  -20.3376   21.7546 C   0  0  0  0  0  0  0  0  0  0  0  0
   17.2269  -19.7136   20.7189 C   0  0  0  0  0  0  0  0  0  0  0  0
   16.5421  -18.5851   20.0354 C   0  0  2  0  0  0  0  0  0  0  0  0
   15.6800  -19.0354   18.9545 N   0  0  0  0  0  0  0  0  0  0  0  0
   17.4572  -17.5147   19.5719 C   0  0  0  0  0  0  0  0  0  0  0  0
   18.4612  -16.9594   20.3320 O   0  0  0  0  0  0  0  0  0  0  0  0
   15.6934  -19.5740   22.6687 C   0  0  0  0  0  0  0  0  0  0  0  0
   14.9127  -20.1399   23.6353 C   0  0  0  0  0  0  0  0  0  0  0  0
   17.3317  -17.0527   18.3930 O   0  0  0  0  0  0  0  0  0  0  0  0
  1  2  1  0
  3  4  1  6
  3  2  1  0
  5  3  1  0
  6  5  2  0
  8 10  1  0
  8  7  1  0
  9  8  2  0
 11 10  1  0
 12 11  1  1
 12 13  1  0
 13  5  1  0
 14 12  1  0
 14 15  2  0
 16 17  1  0
 17 18  2  0
 18 19  1  0
 20 19  2  0
 20 21  1  0
 22 21  1  6
 22 23  1  0
 23 14  1  0
 24 22  1  0
 25 24  1  0
 26 20  1  0
 27 17  1  0
 27 26  2  0
 28 24  2  0
M  END
$$$$
