SQY.pdb
     RDKit          3D

 28 28  0  0  1  0  0  0  0  0999 V2000
    6.5330  -19.0307   23.8431 O   0  0  0  0  0  0  0  0  0  0  0  0
    5.8103  -18.5104   22.7899 C   0  0  0  0  0  0  0  0  0  0  0  0
    6.5900  -18.5327   21.4834 C   0  0  2  0  0  0  0  0  0  0  0  0
    6.8845  -19.8715   21.0759 N   0  0  0  0  0  0  0  0  0  0  0  0
    7.8033  -17.7011   21.6646 C   0  0  0  0  0  0  0  0  0  0  0  0
    8.8995  -18.2939   21.8296 O   0  0  0  0  0  0  0  0  0  0  0  0
    8.2776  -13.7832   17.9554 N   0  0  0  0  0  0  0  0  0  0  0  0
    7.6069  -13.3369   19.1170 C   0  0  0  0  0  0  0  0  0  0  0  0
    7.0606  -12.2087   19.0754 O   0  0  0  0  0  0  0  0  0  0  0  0
    7.5155  -14.1218   20.3682 C   0  0  0  0  0  0  0  0  0  0  0  0
    8.8733  -14.3157   20.9472 C   0  0  0  0  0  0  0  0  0  0  0  0
    8.9992  -15.5199   21.8402 C   0  0  2  0  0  0  0  0  0  0  0  0
    7.7777  -16.2999   21.6593 N   0  0  0  0  0  0  0  0  0  0  0  0
    9.1264  -15.2004   23.2658 C   0  0  0  0  0  0  0  0  0  0  0  0
    8.7026  -14.1088   23.7645 O   0  0  0  0  0  0  0  0  0  0  0  0
    6.6265  -10.5774   26.9949 O   0  0  0  0  0  0  0  0  0  0  0  0
    6.9531  -11.9153   26.7165 C   0  0  0  0  0  0  0  0  0  0  0  0
    8.1862  -12.3924   27.0958 C   0  0  0  0  0  0  0  0  0  0  0  0
    8.5246  -13.6854   26.8364 C   0  0  0  0  0  0  0  0  0  0  0  0
    7.6495  -14.5349   26.1956 C   0  0  0  0  0  0  0  0  0  0  0  0
    8.0258  -15.9302   25.9196 C   0  0  0  0  0  0  0  0  0  0  0  0
    9.4723  -16.0796   25.6113 C   0  0  2  0  0  0  0  0  0  0  0  0
    9.7334  -16.0949   24.1809 N   0  0  0  0  0  0  0  0  0  0  0  0
   10.1161  -17.2361   26.2793 C   0  0  0  0  0  0  0  0  0  0  0  0
   10.4680  -17.2757   27.6093 O   0  0  0  0  0  0  0  0  0  0  0  0
    6.4179  -14.0386   25.8230 C   0  0  0  0  0  0  0  0  0  0  0  0
    6.0562  -12.7459   26.0722 C   0  0  0  0  0  0  0  0  0  0  0  0
   10.3774  -18.2819   25.6034 O   0  0  0  0  0  0  0  0  0  0  0  0
  1  2  1  0
  3  4  1  1
  3  2  1  0
  5  3  1  0
  6  5  2  0
  8 10  1  0
  8  7  1  0
  9  8  2  0
 11 10  1  0
 12 11  1  6
 12 13  1  0
 13  5  1  0
 14 12  1  0
 14 15  2  0
 16 17  1  0
 17 18  2  0
 18 19  1  0
 20 19  2  0
 20 21  1  0
 22 21  1  6
 22 23  1  0
 23 14  1  0
 24 22  1  0
 25 24  1  0
 26 20  1  0
 27 17  1  0
 27 26  2  0
 28 24  2  0
M  END
$$$$
