SQY.pdb
     RDKit          3D

 28 28  0  0  1  0  0  0  0  0999 V2000
   21.4850  -11.2135   16.2483 O   0  0  0  0  0  0  0  0  0  0  0  0
   21.8703  -11.7854   15.0539 C   0  0  0  0  0  0  0  0  0  0  0  0
   20.6864  -12.2965   14.2461 C   0  0  2  0  0  0  0  0  0  0  0  0
   19.6616  -11.3046   14.1403 N   0  0  0  0  0  0  0  0  0  0  0  0
   20.2154  -13.5525   14.8762 C   0  0  0  0  0  0  0  0  0  0  0  0
   19.0369  -13.5819   15.3126 O   0  0  0  0  0  0  0  0  0  0  0  0
   21.8032  -19.3249   13.1668 N   0  0  0  0  0  0  0  0  0  0  0  0
   22.6270  -18.1904   13.3471 C   0  0  0  0  0  0  0  0  0  0  0  0
   23.6528  -18.0973   12.6315 O   0  0  0  0  0  0  0  0  0  0  0  0
   22.3469  -17.1162   14.3257 C   0  0  0  0  0  0  0  0  0  0  0  0
   20.8821  -17.0260   14.5762 C   0  0  0  0  0  0  0  0  0  0  0  0
   20.4847  -15.9411   15.5400 C   0  0  2  0  0  0  0  0  0  0  0  0
   21.0202  -14.6928   15.0032 N   0  0  0  0  0  0  0  0  0  0  0  0
   21.0163  -16.1170   16.8954 C   0  0  0  0  0  0  0  0  0  0  0  0
   21.3298  -17.2570   17.3666 O   0  0  0  0  0  0  0  0  0  0  0  0
   27.2930  -16.6306   16.2682 O   0  0  0  0  0  0  0  0  0  0  0  0
   26.2421  -16.0855   17.0249 C   0  0  0  0  0  0  0  0  0  0  0  0
   25.5369  -15.0205   16.5146 C   0  0  0  0  0  0  0  0  0  0  0  0
   24.5145  -14.4760   17.2302 C   0  0  0  0  0  0  0  0  0  0  0  0
   24.1676  -14.9739   18.4670 C   0  0  0  0  0  0  0  0  0  0  0  0
   23.0615  -14.3773   19.2320 C   0  0  0  0  0  0  0  0  0  0  0  0
   21.7956  -15.1446   19.0956 C   0  0  2  0  0  0  0  0  0  0  0  0
   21.2144  -15.0196   17.7686 N   0  0  0  0  0  0  0  0  0  0  0  0
   20.7912  -14.8445   20.1439 C   0  0  0  0  0  0  0  0  0  0  0  0
   21.0577  -14.7989   21.4935 O   0  0  0  0  0  0  0  0  0  0  0  0
   24.8861  -16.0420   18.9620 C   0  0  0  0  0  0  0  0  0  0  0  0
   25.9151  -16.6046   18.2631 C   0  0  0  0  0  0  0  0  0  0  0  0
   19.5872  -14.6091   19.8065 O   0  0  0  0  0  0  0  0  0  0  0  0
  1  2  1  0
  3  4  1  1
  3  2  1  0
  5  3  1  0
  6  5  2  0
  8 10  1  0
  8  7  1  0
  9  8  2  0
 11 10  1  0
 12 11  1  6
 12 13  1  0
 13  5  1  0
 14 12  1  0
 14 15  2  0
 16 17  1  0
 17 18  2  0
 18 19  1  0
 20 19  2  0
 20 21  1  0
 22 21  1  6
 22 23  1  0
 23 14  1  0
 24 22  1  0
 25 24  1  0
 26 20  1  0
 27 17  1  0
 27 26  2  0
 28 24  2  0
M  END
$$$$
