SQY.pdb
     RDKit          3D

 28 28  0  0  1  0  0  0  0  0999 V2000
   12.3362  -14.3509   18.5778 O   0  0  0  0  0  0  0  0  0  0  0  0
   12.2983  -15.6616   18.1504 C   0  0  0  0  0  0  0  0  0  0  0  0
   10.8876  -16.2321   18.1511 C   0  0  2  0  0  0  0  0  0  0  0  0
   10.0061  -15.4415   17.3492 N   0  0  0  0  0  0  0  0  0  0  0  0
   10.4446  -16.3456   19.5609 C   0  0  0  0  0  0  0  0  0  0  0  0
    9.5211  -15.5851   19.9469 O   0  0  0  0  0  0  0  0  0  0  0  0
    9.3190  -21.4730   22.2968 N   0  0  0  0  0  0  0  0  0  0  0  0
    9.2506  -20.6041   23.4098 C   0  0  0  0  0  0  0  0  0  0  0  0
    8.8714  -21.0886   24.5028 O   0  0  0  0  0  0  0  0  0  0  0  0
    9.5989  -19.1669   23.3554 C   0  0  0  0  0  0  0  0  0  0  0  0
    9.9930  -18.7914   21.9697 C   0  0  0  0  0  0  0  0  0  0  0  0
   10.4932  -17.3793   21.8297 C   0  0  2  0  0  0  0  0  0  0  0  0
   11.0064  -17.2542   20.4681 N   0  0  0  0  0  0  0  0  0  0  0  0
   11.5751  -17.0302   22.7561 C   0  0  0  0  0  0  0  0  0  0  0  0
   12.5160  -17.8366   23.0467 O   0  0  0  0  0  0  0  0  0  0  0  0
   10.2665  -15.3656   31.0312 O   0  0  0  0  0  0  0  0  0  0  0  0
   10.2708  -15.3708   29.6261 C   0  0  0  0  0  0  0  0  0  0  0  0
   10.1723  -16.5727   28.9645 C   0  0  0  0  0  0  0  0  0  0  0  0
   10.1744  -16.6021   27.6033 C   0  0  0  0  0  0  0  0  0  0  0  0
   10.2740  -15.4421   26.8668 C   0  0  0  0  0  0  0  0  0  0  0  0
   10.2761  -15.4855   25.3962 C   0  0  0  0  0  0  0  0  0  0  0  0
   11.6474  -15.5875   24.8314 C   0  0  2  0  0  0  0  0  0  0  0  0
   11.6384  -15.7644   23.3881 N   0  0  0  0  0  0  0  0  0  0  0  0
   12.4953  -16.6130   25.4852 C   0  0  0  0  0  0  0  0  0  0  0  0
   12.2195  -17.9613   25.5035 O   0  0  0  0  0  0  0  0  0  0  0  0
   10.3718  -14.2467   27.5478 C   0  0  0  0  0  0  0  0  0  0  0  0
   10.3718  -14.1921   28.9120 C   0  0  0  0  0  0  0  0  0  0  0  0
   13.5602  -16.2549   26.0824 O   0  0  0  0  0  0  0  0  0  0  0  0
  1  2  1  0
  3  4  1  6
  3  2  1  0
  5  3  1  0
  6  5  2  0
  8 10  1  0
  8  7  1  0
  9  8  2  0
 11 10  1  0
 12 11  1  1
 12 13  1  0
 13  5  1  0
 14 12  1  0
 14 15  2  0
 16 17  1  0
 17 18  2  0
 18 19  1  0
 20 19  2  0
 20 21  1  0
 22 21  1  1
 22 23  1  0
 23 14  1  0
 24 22  1  0
 25 24  1  0
 26 20  1  0
 27 17  1  0
 27 26  2  0
 28 24  2  0
M  END
$$$$
