SQY.pdb
     RDKit          3D

 28 28  0  0  1  0  0  0  0  0999 V2000
    8.5169  -12.3016   19.9131 O   0  0  0  0  0  0  0  0  0  0  0  0
    7.7775  -12.5799   18.7827 C   0  0  0  0  0  0  0  0  0  0  0  0
    8.2429  -13.8479   18.0819 C   0  0  2  0  0  0  0  0  0  0  0  0
    7.4281  -14.1427   16.9442 N   0  0  0  0  0  0  0  0  0  0  0  0
    8.2583  -14.9404   19.0833 C   0  0  0  0  0  0  0  0  0  0  0  0
    7.1655  -15.4975   19.3581 O   0  0  0  0  0  0  0  0  0  0  0  0
   12.7302  -19.6246   19.9913 N   0  0  0  0  0  0  0  0  0  0  0  0
   12.4109  -18.4000   19.3614 C   0  0  0  0  0  0  0  0  0  0  0  0
   12.7591  -18.2536   18.1654 O   0  0  0  0  0  0  0  0  0  0  0  0
   11.6943  -17.2916   20.0306 C   0  0  0  0  0  0  0  0  0  0  0  0
   10.2340  -17.5793   20.0677 C   0  0  0  0  0  0  0  0  0  0  0  0
    9.4024  -16.4822   20.6746 C   0  0  2  0  0  0  0  0  0  0  0  0
    9.4263  -15.3711   19.7270 N   0  0  0  0  0  0  0  0  0  0  0  0
    9.9029  -15.9908   21.9625 C   0  0  0  0  0  0  0  0  0  0  0  0
   10.6770  -14.9851   22.0589 O   0  0  0  0  0  0  0  0  0  0  0  0
   10.5955  -14.5555   30.6058 O   0  0  0  0  0  0  0  0  0  0  0  0
   10.1761  -14.8026   29.2878 C   0  0  0  0  0  0  0  0  0  0  0  0
    9.9913  -16.1034   28.8807 C   0  0  0  0  0  0  0  0  0  0  0  0
    9.5852  -16.3668   27.6081 C   0  0  0  0  0  0  0  0  0  0  0  0
    9.3530  -15.3481   26.7102 C   0  0  0  0  0  0  0  0  0  0  0  0
    8.9153  -15.6442   25.3371 C   0  0  0  0  0  0  0  0  0  0  0  0
   10.0218  -16.1504   24.4832 C   0  0  2  0  0  0  0  0  0  0  0  0
    9.5522  -16.6111   23.1864 N   0  0  0  0  0  0  0  0  0  0  0  0
   10.8669  -17.1787   25.1362 C   0  0  0  0  0  0  0  0  0  0  0  0
   11.9980  -16.9102   25.8730 O   0  0  0  0  0  0  0  0  0  0  0  0
    9.5436  -14.0504   27.1366 C   0  0  0  0  0  0  0  0  0  0  0  0
    9.9503  -13.7616   28.4075 C   0  0  0  0  0  0  0  0  0  0  0  0
   10.5534  -18.4069   25.0260 O   0  0  0  0  0  0  0  0  0  0  0  0
  1  2  1  0
  3  4  1  6
  3  2  1  0
  5  3  1  0
  6  5  2  0
  8 10  1  0
  8  7  1  0
  9  8  2  0
 11 10  1  0
 12 11  1  6
 12 13  1  0
 13  5  1  0
 14 12  1  0
 14 15  2  0
 16 17  1  0
 17 18  2  0
 18 19  1  0
 20 19  2  0
 20 21  1  0
 22 21  1  1
 22 23  1  0
 23 14  1  0
 24 22  1  0
 25 24  1  0
 26 20  1  0
 27 17  1  0
 27 26  2  0
 28 24  2  0
M  END
$$$$
