YCC.pdb
     RDKit          3D

 25 25  0  0  1  0  0  0  0  0999 V2000
   18.1346  -14.9446  -17.1227 O   0  0  0  0  0  0  0  0  0  0  0  0
   18.3888  -13.7456  -16.4494 C   0  0  0  0  0  0  0  0  0  0  0  0
   17.3348  -13.0339  -15.9344 C   0  0  0  0  0  0  0  0  0  0  0  0
   17.5609  -11.8443  -15.2639 C   0  0  0  0  0  0  0  0  0  0  0  0
   18.8278  -11.3293  -15.0855 C   0  0  0  0  0  0  0  0  0  0  0  0
   19.0313  -10.0492  -14.3601 C   0  0  0  0  0  0  0  0  0  0  0  0
   18.4795   -8.9457  -15.2448 C   0  0  2  0  0  0  0  0  0  0  0  0
   19.3378   -8.7083  -16.3681 N   0  0  0  0  0  0  0  0  0  0  0  0
   18.1422   -7.7363  -14.4891 C   0  0  0  0  0  0  0  0  0  0  0  0
   19.0806   -6.9348  -14.1634 O   0  0  0  0  0  0  0  0  0  0  0  0
   19.8790  -12.0536  -15.6075 C   0  0  0  0  0  0  0  0  0  0  0  0
   19.6662  -13.2545  -16.2859 C   0  0  0  0  0  0  0  0  0  0  0  0
   16.8128   -7.4191  -14.1041 N   0  0  0  0  0  0  0  0  0  0  0  0
   16.5644   -6.1702  -13.4304 C   0  0  1  0  0  0  0  0  0  0  0  0
   15.5305   -5.3413  -14.1980 C   0  0  0  0  0  0  0  0  0  0  0  0
   16.2461   -4.7503  -15.7514 S   0  0  0  0  0  0  0  0  0  0  0  0
   15.9675   -6.3837  -12.0768 C   0  0  0  0  0  0  0  0  0  0  0  0
   15.5980   -7.5307  -11.7213 O   0  0  0  0  0  0  0  0  0  0  0  0
   15.7993   -5.3175  -11.1601 N   0  0  0  0  0  0  0  0  0  0  0  0
   15.3529   -5.4561   -9.8096 C   0  0  1  0  0  0  0  0  0  0  0  0
   16.3463   -6.2477   -8.9719 C   0  0  0  0  0  0  0  0  0  0  0  0
   15.8096   -6.4054   -7.2662 S   0  0  0  0  0  0  0  0  0  0  0  0
   15.0679   -4.1734   -9.1466 C   0  0  0  0  0  0  0  0  0  0  0  0
   15.9022   -3.2619   -9.0305 O   0  0  0  0  0  0  0  0  0  0  0  0
   13.7909   -3.9853   -8.6265 O   0  0  0  0  0  0  0  0  0  0  0  0
  1  2  1  0
  2 12  2  0
  3  4  2  0
  3  2  1  0
  4  5  1  0
  5  6  1  0
  5 11  2  0
  6  7  1  0
  7  9  1  0
  7  8  1  6
  9 10  2  0
 12 11  1  0
 13  9  1  0
 13 14  1  0
 14 17  1  0
 14 15  1  6
 16 15  1  0
 17 18  2  0
 19 17  1  0
 19 20  1  0
 20 23  1  0
 20 21  1  1
 22 21  1  0
 23 24  2  0
 23 25  1  0
M  END
$$$$
