YCC.pdb
     RDKit          3D

 25 25  0  0  1  0  0  0  0  0999 V2000
   24.3836  -10.6437  -15.4171 O   0  0  0  0  0  0  0  0  0  0  0  0
   23.2480   -9.9205  -15.0387 C   0  0  0  0  0  0  0  0  0  0  0  0
   22.9700   -9.7667  -13.7039 C   0  0  0  0  0  0  0  0  0  0  0  0
   21.8520   -9.0552  -13.3044 C   0  0  0  0  0  0  0  0  0  0  0  0
   20.9838   -8.4799  -14.2085 C   0  0  0  0  0  0  0  0  0  0  0  0
   19.7937   -7.7233  -13.7419 C   0  0  0  0  0  0  0  0  0  0  0  0
   18.8560   -8.7268  -13.0949 C   0  0  2  0  0  0  0  0  0  0  0  0
   18.5027   -9.7686  -14.0139 N   0  0  0  0  0  0  0  0  0  0  0  0
   17.7053   -8.0863  -12.4521 C   0  0  0  0  0  0  0  0  0  0  0  0
   16.7552   -7.6534  -13.1861 O   0  0  0  0  0  0  0  0  0  0  0  0
   21.2738   -8.6414  -15.5472 C   0  0  0  0  0  0  0  0  0  0  0  0
   22.3974   -9.3562  -15.9647 C   0  0  0  0  0  0  0  0  0  0  0  0
   17.6040   -7.9276  -11.0447 N   0  0  0  0  0  0  0  0  0  0  0  0
   16.4819   -7.2016  -10.5071 C   0  0  1  0  0  0  0  0  0  0  0  0
   16.3863   -7.4040   -8.9921 C   0  0  0  0  0  0  0  0  0  0  0  0
   14.9065   -6.5811   -8.3535 S   0  0  0  0  0  0  0  0  0  0  0  0
   16.6385   -5.7271  -10.6955 C   0  0  0  0  0  0  0  0  0  0  0  0
   17.7365   -5.1699  -10.4458 O   0  0  0  0  0  0  0  0  0  0  0  0
   15.5715   -4.9172  -11.1550 N   0  0  0  0  0  0  0  0  0  0  0  0
   15.6331   -3.5011  -11.3379 C   0  0  1  0  0  0  0  0  0  0  0  0
   15.8391   -3.1357  -12.8005 C   0  0  0  0  0  0  0  0  0  0  0  0
   15.8816   -1.3583  -13.0481 S   0  0  0  0  0  0  0  0  0  0  0  0
   14.4568   -2.7862  -10.8169 C   0  0  0  0  0  0  0  0  0  0  0  0
   13.3543   -3.3250  -10.6312 O   0  0  0  0  0  0  0  0  0  0  0  0
   14.6020   -1.4343  -10.5205 O   0  0  0  0  0  0  0  0  0  0  0  0
  1  2  1  0
  2 12  2  0
  3  4  2  0
  3  2  1  0
  4  5  1  0
  5  6  1  0
  5 11  2  0
  6  7  1  0
  7  9  1  0
  7  8  1  6
  9 10  2  0
 12 11  1  0
 13  9  1  0
 13 14  1  0
 14 17  1  0
 14 15  1  1
 16 15  1  0
 17 18  2  0
 19 17  1  0
 19 20  1  0
 20 23  1  0
 20 21  1  6
 22 21  1  0
 23 24  2  0
 23 25  1  0
M  END
$$$$
