YCC.pdb
     RDKit          3D

 25 25  0  0  1  0  0  0  0  0999 V2000
   28.6479  -19.5744   -3.8306 O   0  0  0  0  0  0  0  0  0  0  0  0
   28.3739  -19.5985   -5.2018 C   0  0  0  0  0  0  0  0  0  0  0  0
   29.4078  -19.7819   -6.0849 C   0  0  0  0  0  0  0  0  0  0  0  0
   29.1620  -19.8096   -7.4468 C   0  0  0  0  0  0  0  0  0  0  0  0
   27.8946  -19.6576   -7.9691 C   0  0  0  0  0  0  0  0  0  0  0  0
   27.6696  -19.6930   -9.4369 C   0  0  0  0  0  0  0  0  0  0  0  0
   27.4634  -21.1477   -9.8190 C   0  0  2  0  0  0  0  0  0  0  0  0
   28.7182  -21.8073  -10.0319 N   0  0  0  0  0  0  0  0  0  0  0  0
   26.5129  -21.3090  -10.9226 C   0  0  0  0  0  0  0  0  0  0  0  0
   26.9597  -21.6239  -12.0759 O   0  0  0  0  0  0  0  0  0  0  0  0
   26.8637  -19.4740   -7.0715 C   0  0  0  0  0  0  0  0  0  0  0  0
   27.0966  -19.4439   -5.6959 C   0  0  0  0  0  0  0  0  0  0  0  0
   25.1137  -21.1292  -10.7611 N   0  0  0  0  0  0  0  0  0  0  0  0
   24.2568  -21.2855  -11.9085 C   0  0  1  0  0  0  0  0  0  0  0  0
   22.7852  -21.2881  -11.4846 C   0  0  0  0  0  0  0  0  0  0  0  0
   21.7253  -21.4534  -12.9419 S   0  0  0  0  0  0  0  0  0  0  0  0
   24.3889  -20.1364  -12.8553 C   0  0  0  0  0  0  0  0  0  0  0  0
   24.2120  -18.9599  -12.4518 O   0  0  0  0  0  0  0  0  0  0  0  0
   24.7131  -20.3292  -14.2203 N   0  0  0  0  0  0  0  0  0  0  0  0
   24.8863  -19.2848  -15.1803 C   0  0  1  0  0  0  0  0  0  0  0  0
   26.3118  -19.2450  -15.7107 C   0  0  0  0  0  0  0  0  0  0  0  0
   26.6644  -17.7100  -16.5720 S   0  0  0  0  0  0  0  0  0  0  0  0
   23.9465  -19.3591  -16.3106 C   0  0  0  0  0  0  0  0  0  0  0  0
   23.1181  -20.2721  -16.4539 O   0  0  0  0  0  0  0  0  0  0  0  0
   24.0001  -18.3453  -17.2624 O   0  0  0  0  0  0  0  0  0  0  0  0
  1  2  1  0
  2 12  2  0
  3  4  2  0
  3  2  1  0
  4  5  1  0
  5  6  1  0
  5 11  2  0
  6  7  1  0
  7  9  1  0
  7  8  1  6
  9 10  2  0
 12 11  1  0
 13  9  1  0
 13 14  1  0
 14 17  1  0
 14 15  1  1
 16 15  1  0
 17 18  2  0
 19 17  1  0
 19 20  1  0
 20 23  1  0
 20 21  1  6
 22 21  1  0
 23 24  2  0
 23 25  1  0
M  END
$$$$
