YCC.pdb
     RDKit          3D

 25 25  0  0  1  0  0  0  0  0999 V2000
   25.8021  -19.8838  -19.4052 O   0  0  0  0  0  0  0  0  0  0  0  0
   25.8080  -18.4942  -19.2479 C   0  0  0  0  0  0  0  0  0  0  0  0
   24.7765  -17.8958  -18.5694 C   0  0  0  0  0  0  0  0  0  0  0  0
   24.7599  -16.5221  -18.4007 C   0  0  0  0  0  0  0  0  0  0  0  0
   25.7570  -15.7078  -18.8953 C   0  0  0  0  0  0  0  0  0  0  0  0
   25.7050  -14.2369  -18.6944 C   0  0  0  0  0  0  0  0  0  0  0  0
   24.8187  -13.6709  -19.7894 C   0  0  2  0  0  0  0  0  0  0  0  0
   25.3809  -13.9155  -21.0851 N   0  0  0  0  0  0  0  0  0  0  0  0
   24.4594  -12.2701  -19.5526 C   0  0  0  0  0  0  0  0  0  0  0  0
   25.2129  -11.3551  -20.0261 O   0  0  0  0  0  0  0  0  0  0  0  0
   26.7885  -16.3208  -19.5754 C   0  0  0  0  0  0  0  0  0  0  0  0
   26.8184  -17.7047  -19.7532 C   0  0  0  0  0  0  0  0  0  0  0  0
   23.3060  -11.8886  -18.8176 N   0  0  0  0  0  0  0  0  0  0  0  0
   22.9658  -10.4912  -18.7358 C   0  0  1  0  0  0  0  0  0  0  0  0
   22.0039  -10.1049  -19.8632 C   0  0  0  0  0  0  0  0  0  0  0  0
   21.4604   -8.3923  -19.6485 S   0  0  0  0  0  0  0  0  0  0  0  0
   22.2334  -10.1755  -17.4717 C   0  0  0  0  0  0  0  0  0  0  0  0
   21.2408  -10.8638  -17.1262 O   0  0  0  0  0  0  0  0  0  0  0  0
   22.6256   -9.1059  -16.6305 N   0  0  0  0  0  0  0  0  0  0  0  0
   22.0071   -8.7671  -15.3875 C   0  0  1  0  0  0  0  0  0  0  0  0
   22.9883   -8.8709  -14.2293 C   0  0  0  0  0  0  0  0  0  0  0  0
   23.5381  -10.5591  -13.9651 S   0  0  0  0  0  0  0  0  0  0  0  0
   21.3836   -7.4339  -15.3815 C   0  0  0  0  0  0  0  0  0  0  0  0
   21.4843   -6.6263  -16.3185 O   0  0  0  0  0  0  0  0  0  0  0  0
   20.6444   -7.0720  -14.2595 O   0  0  0  0  0  0  0  0  0  0  0  0
  1  2  1  0
  2 12  2  0
  3  4  2  0
  3  2  1  0
  4  5  1  0
  5  6  1  0
  5 11  2  0
  6  7  1  0
  7  9  1  0
  7  8  1  6
  9 10  2  0
 12 11  1  0
 13  9  1  0
 13 14  1  0
 14 17  1  0
 14 15  1  6
 16 15  1  0
 17 18  2  0
 19 17  1  0
 19 20  1  0
 20 23  1  0
 20 21  1  1
 22 21  1  0
 23 24  2  0
 23 25  1  0
M  END
$$$$
