YCC.pdb
     RDKit          3D

 25 25  0  0  1  0  0  0  0  0999 V2000
   30.2526  -16.3010  -18.5013 O   0  0  0  0  0  0  0  0  0  0  0  0
   29.2772  -17.0658  -17.8537 C   0  0  0  0  0  0  0  0  0  0  0  0
   28.6045  -18.0280  -18.5638 C   0  0  0  0  0  0  0  0  0  0  0  0
   27.6347  -18.7977  -17.9450 C   0  0  0  0  0  0  0  0  0  0  0  0
   27.3058  -18.6378  -16.6152 C   0  0  0  0  0  0  0  0  0  0  0  0
   26.2591  -19.4829  -15.9855 C   0  0  0  0  0  0  0  0  0  0  0  0
   26.9641  -20.4090  -15.0108 C   0  0  2  0  0  0  0  0  0  0  0  0
   27.8061  -21.3405  -15.7024 N   0  0  0  0  0  0  0  0  0  0  0  0
   26.0389  -21.0354  -14.0625 C   0  0  0  0  0  0  0  0  0  0  0  0
   25.4027  -22.0805  -14.4257 O   0  0  0  0  0  0  0  0  0  0  0  0
   27.9887  -17.6675  -15.9120 C   0  0  0  0  0  0  0  0  0  0  0  0
   28.9689  -16.8840  -16.5227 C   0  0  0  0  0  0  0  0  0  0  0  0
   25.8213  -20.5268  -12.7548 N   0  0  0  0  0  0  0  0  0  0  0  0
   24.8130  -21.1417  -11.9298 C   0  0  1  0  0  0  0  0  0  0  0  0
   25.0225  -20.7715  -10.4586 C   0  0  0  0  0  0  0  0  0  0  0  0
   26.7053  -21.2001   -9.9498 S   0  0  0  0  0  0  0  0  0  0  0  0
   23.4452  -20.6426  -12.2676 C   0  0  0  0  0  0  0  0  0  0  0  0
   23.1935  -19.4122  -12.2327 O   0  0  0  0  0  0  0  0  0  0  0  0
   22.3995  -21.5247  -12.6337 N   0  0  0  0  0  0  0  0  0  0  0  0
   21.0762  -21.1261  -12.9974 C   0  0  1  0  0  0  0  0  0  0  0  0
   20.5709  -21.9033  -14.2039 C   0  0  0  0  0  0  0  0  0  0  0  0
   21.7835  -21.9515  -15.5266 S   0  0  0  0  0  0  0  0  0  0  0  0
   20.1019  -21.2399  -11.9001 C   0  0  0  0  0  0  0  0  0  0  0  0
   18.9621  -20.7507  -11.9425 O   0  0  0  0  0  0  0  0  0  0  0  0
   20.4921  -21.9357  -10.7600 O   0  0  0  0  0  0  0  0  0  0  0  0
  1  2  1  0
  2 12  2  0
  3  4  2  0
  3  2  1  0
  4  5  1  0
  5  6  1  0
  5 11  2  0
  6  7  1  0
  7  9  1  0
  7  8  1  6
  9 10  2  0
 12 11  1  0
 13  9  1  0
 13 14  1  0
 14 17  1  0
 14 15  1  1
 16 15  1  0
 17 18  2  0
 19 17  1  0
 19 20  1  0
 20 23  1  0
 20 21  1  6
 22 21  1  0
 23 24  2  0
 23 25  1  0
M  END
$$$$
