YCC.pdb
     RDKit          3D

 25 25  0  0  1  0  0  0  0  0999 V2000
   29.2656  -30.5180  -19.3216 O   0  0  0  0  0  0  0  0  0  0  0  0
   28.7077  -29.5571  -18.4723 C   0  0  0  0  0  0  0  0  0  0  0  0
   27.3832  -29.2291  -18.6161 C   0  0  0  0  0  0  0  0  0  0  0  0
   26.8081  -28.2810  -17.7876 C   0  0  0  0  0  0  0  0  0  0  0  0
   27.5229  -27.6355  -16.8004 C   0  0  0  0  0  0  0  0  0  0  0  0
   26.8713  -26.6233  -15.9303 C   0  0  0  0  0  0  0  0  0  0  0  0
   26.8253  -25.3258  -16.7172 C   0  0  2  0  0  0  0  0  0  0  0  0
   28.1390  -24.7760  -16.8812 N   0  0  0  0  0  0  0  0  0  0  0  0
   25.8473  -24.3768  -16.1782 C   0  0  0  0  0  0  0  0  0  0  0  0
   26.2242  -23.5505  -15.2815 O   0  0  0  0  0  0  0  0  0  0  0  0
   28.8533  -27.9737  -16.6657 C   0  0  0  0  0  0  0  0  0  0  0  0
   29.4465  -28.9276  -17.4938 C   0  0  0  0  0  0  0  0  0  0  0  0
   24.4963  -24.3388  -16.6133 N   0  0  0  0  0  0  0  0  0  0  0  0
   23.6045  -23.3725  -16.0249 C   0  0  1  0  0  0  0  0  0  0  0  0
   23.2143  -22.3054  -17.0518 C   0  0  0  0  0  0  0  0  0  0  0  0
   24.4403  -20.9745  -17.0523 S   0  0  0  0  0  0  0  0  0  0  0  0
   22.3146  -23.9988  -15.6026 C   0  0  0  0  0  0  0  0  0  0  0  0
   21.7001  -24.7696  -16.3814 O   0  0  0  0  0  0  0  0  0  0  0  0
   21.7473  -23.7498  -14.3291 N   0  0  0  0  0  0  0  0  0  0  0  0
   20.5484  -24.3474  -13.8314 C   0  0  1  0  0  0  0  0  0  0  0  0
   20.6599  -24.6713  -12.3489 C   0  0  0  0  0  0  0  0  0  0  0  0
   19.1339  -25.3536  -11.6948 S   0  0  0  0  0  0  0  0  0  0  0  0
   19.3426  -23.5363  -14.0647 C   0  0  0  0  0  0  0  0  0  0  0  0
   19.3020  -22.3066  -13.9012 O   0  0  0  0  0  0  0  0  0  0  0  0
   18.1937  -24.1954  -14.4913 O   0  0  0  0  0  0  0  0  0  0  0  0
  1  2  1  0
  2 12  2  0
  3  4  2  0
  3  2  1  0
  4  5  1  0
  5  6  1  0
  5 11  2  0
  6  7  1  0
  7  9  1  0
  7  8  1  1
  9 10  2  0
 12 11  1  0
 13  9  1  0
 13 14  1  0
 14 17  1  0
 14 15  1  6
 16 15  1  0
 17 18  2  0
 19 17  1  0
 19 20  1  0
 20 23  1  0
 20 21  1  1
 22 21  1  0
 23 24  2  0
 23 25  1  0
M  END
$$$$
