YCC.pdb
     RDKit          3D

 25 25  0  0  1  0  0  0  0  0999 V2000
   28.3550  -13.5830  -17.5272 O   0  0  0  0  0  0  0  0  0  0  0  0
   27.7697  -14.7439  -17.0122 C   0  0  0  0  0  0  0  0  0  0  0  0
   27.6752  -14.8956  -15.6518 C   0  0  0  0  0  0  0  0  0  0  0  0
   27.0999  -16.0357  -15.1179 C   0  0  0  0  0  0  0  0  0  0  0  0
   26.6054  -17.0507  -15.9100 C   0  0  0  0  0  0  0  0  0  0  0  0
   25.9946  -18.2598  -15.3006 C   0  0  0  0  0  0  0  0  0  0  0  0
   27.1356  -19.1403  -14.8234 C   0  0  2  0  0  0  0  0  0  0  0  0
   27.9690  -19.5420  -15.9184 N   0  0  0  0  0  0  0  0  0  0  0  0
   26.6746  -20.2529  -13.9885 C   0  0  0  0  0  0  0  0  0  0  0  0
   26.4504  -21.3818  -14.5401 O   0  0  0  0  0  0  0  0  0  0  0  0
   26.7060  -16.8867  -17.2758 C   0  0  0  0  0  0  0  0  0  0  0  0
   27.2836  -15.7426  -17.8282 C   0  0  0  0  0  0  0  0  0  0  0  0
   26.4673  -20.1264  -12.5895 N   0  0  0  0  0  0  0  0  0  0  0  0
   25.7646  -21.1744  -11.8944 C   0  0  1  0  0  0  0  0  0  0  0  0
   26.0996  -21.1474  -10.4003 C   0  0  0  0  0  0  0  0  0  0  0  0
   25.3733  -19.6780   -9.6334 S   0  0  0  0  0  0  0  0  0  0  0  0
   24.2835  -20.9864  -11.9665 C   0  0  0  0  0  0  0  0  0  0  0  0
   23.8008  -19.8592  -12.2399 O   0  0  0  0  0  0  0  0  0  0  0  0
   23.3845  -22.0555  -11.7330 N   0  0  0  0  0  0  0  0  0  0  0  0
   21.9611  -21.9689  -11.8263 C   0  0  1  0  0  0  0  0  0  0  0  0
   21.3952  -20.9769  -10.8210 C   0  0  0  0  0  0  0  0  0  0  0  0
   19.6068  -20.8629  -10.9251 S   0  0  0  0  0  0  0  0  0  0  0  0
   21.4767  -21.6289  -13.1738 C   0  0  0  0  0  0  0  0  0  0  0  0
   22.2246  -21.2990  -14.1077 O   0  0  0  0  0  0  0  0  0  0  0  0
   20.1047  -21.6843  -13.3996 O   0  0  0  0  0  0  0  0  0  0  0  0
  1  2  1  0
  2 12  2  0
  3  4  2  0
  3  2  1  0
  4  5  1  0
  5  6  1  0
  5 11  2  0
  6  7  1  0
  7  9  1  0
  7  8  1  6
  9 10  2  0
 12 11  1  0
 13  9  1  0
 13 14  1  0
 14 17  1  0
 14 15  1  1
 16 15  1  0
 17 18  2  0
 19 17  1  0
 19 20  1  0
 20 23  1  0
 20 21  1  1
 22 21  1  0
 23 24  2  0
 23 25  1  0
M  END
$$$$
