YCC.pdb
     RDKit          3D

 25 25  0  0  1  0  0  0  0  0999 V2000
   21.2395  -21.7204   -6.8057 O   0  0  0  0  0  0  0  0  0  0  0  0
   22.1395  -21.3138   -7.7958 C   0  0  0  0  0  0  0  0  0  0  0  0
   23.3860  -20.8767   -7.4246 C   0  0  0  0  0  0  0  0  0  0  0  0
   24.2944  -20.4690   -8.3861 C   0  0  0  0  0  0  0  0  0  0  0  0
   23.9966  -20.4824   -9.7327 C   0  0  0  0  0  0  0  0  0  0  0  0
   24.9977  -20.0372  -10.7357 C   0  0  0  0  0  0  0  0  0  0  0  0
   25.5331  -21.2864  -11.4123 C   0  0  2  0  0  0  0  0  0  0  0  0
   26.4353  -21.9925  -10.5507 N   0  0  0  0  0  0  0  0  0  0  0  0
   26.0764  -21.0134  -12.7457 C   0  0  0  0  0  0  0  0  0  0  0  0
   27.2193  -20.4530  -12.8394 O   0  0  0  0  0  0  0  0  0  0  0  0
   22.7407  -20.9238  -10.0934 C   0  0  0  0  0  0  0  0  0  0  0  0
   21.8146  -21.3378   -9.1350 C   0  0  0  0  0  0  0  0  0  0  0  0
   25.3829  -21.3474  -13.9388 N   0  0  0  0  0  0  0  0  0  0  0  0
   26.0533  -21.1765  -15.2023 C   0  0  1  0  0  0  0  0  0  0  0  0
   25.6418  -22.2785  -16.1830 C   0  0  0  0  0  0  0  0  0  0  0  0
   26.3155  -23.8680  -15.6405 S   0  0  0  0  0  0  0  0  0  0  0  0
   25.6603  -19.8961  -15.8658 C   0  0  0  0  0  0  0  0  0  0  0  0
   24.4571  -19.5350  -15.8829 O   0  0  0  0  0  0  0  0  0  0  0  0
   26.6150  -19.0564  -16.4895 N   0  0  0  0  0  0  0  0  0  0  0  0
   26.3251  -17.8067  -17.1193 C   0  0  1  0  0  0  0  0  0  0  0  0
   27.2487  -16.7041  -16.6229 C   0  0  0  0  0  0  0  0  0  0  0  0
   27.1399  -16.4881  -14.8443 S   0  0  0  0  0  0  0  0  0  0  0  0
   26.3742  -17.8601  -18.5893 C   0  0  0  0  0  0  0  0  0  0  0  0
   26.7075  -18.8711  -19.2273 O   0  0  0  0  0  0  0  0  0  0  0  0
   26.0259  -16.7088  -19.2890 O   0  0  0  0  0  0  0  0  0  0  0  0
  1  2  1  0
  2 12  2  0
  3  4  2  0
  3  2  1  0
  4  5  1  0
  5  6  1  0
  5 11  2  0
  6  7  1  0
  7  9  1  0
  7  8  1  1
  9 10  2  0
 12 11  1  0
 13  9  1  0
 13 14  1  0
 14 17  1  0
 14 15  1  6
 16 15  1  0
 17 18  2  0
 19 17  1  0
 19 20  1  0
 20 23  1  0
 20 21  1  1
 22 21  1  0
 23 24  2  0
 23 25  1  0
M  END
$$$$
