YCC.pdb
     RDKit          3D

 25 25  0  0  1  0  0  0  0  0999 V2000
   31.9147  -11.4198  -18.4637 O   0  0  0  0  0  0  0  0  0  0  0  0
   30.5735  -11.0237  -18.4535 C   0  0  0  0  0  0  0  0  0  0  0  0
   30.1999   -9.9556  -17.6774 C   0  0  0  0  0  0  0  0  0  0  0  0
   28.8785   -9.5446  -17.6505 C   0  0  0  0  0  0  0  0  0  0  0  0
   27.8965  -10.1747  -18.3859 C   0  0  0  0  0  0  0  0  0  0  0  0
   26.4885   -9.7048  -18.3315 C   0  0  0  0  0  0  0  0  0  0  0  0
   25.8278  -10.4178  -17.1654 C   0  0  2  0  0  0  0  0  0  0  0  0
   25.8705  -11.8400  -17.3401 N   0  0  0  0  0  0  0  0  0  0  0  0
   24.4904   -9.8952  -16.8728 C   0  0  0  0  0  0  0  0  0  0  0  0
   23.4979  -10.3418  -17.5395 O   0  0  0  0  0  0  0  0  0  0  0  0
   28.2843  -11.2469  -19.1621 C   0  0  0  0  0  0  0  0  0  0  0  0
   29.6129  -11.6725  -19.1990 C   0  0  0  0  0  0  0  0  0  0  0  0
   24.2532   -8.9114  -15.8768 N   0  0  0  0  0  0  0  0  0  0  0  0
   22.9094   -8.4299  -15.6830 C   0  0  1  0  0  0  0  0  0  0  0  0
   22.1455   -9.3408  -14.7176 C   0  0  0  0  0  0  0  0  0  0  0  0
   23.3089  -10.1889  -13.6213 S   0  0  0  0  0  0  0  0  0  0  0  0
   22.8951   -7.0801  -15.0409 C   0  0  0  0  0  0  0  0  0  0  0  0
   23.6469   -6.8354  -14.0645 O   0  0  0  0  0  0  0  0  0  0  0  0
   22.0469   -6.0443  -15.5026 N   0  0  0  0  0  0  0  0  0  0  0  0
   22.0011   -4.7192  -14.9694 C   0  0  1  0  0  0  0  0  0  0  0  0
   22.7652   -3.7381  -15.8461 C   0  0  0  0  0  0  0  0  0  0  0  0
   24.5102   -4.1467  -15.9466 S   0  0  0  0  0  0  0  0  0  0  0  0
   20.6351   -4.2171  -14.7503 C   0  0  0  0  0  0  0  0  0  0  0  0
   19.6235   -4.7505  -15.2327 O   0  0  0  0  0  0  0  0  0  0  0  0
   20.4834   -3.0831  -13.9581 O   0  0  0  0  0  0  0  0  0  0  0  0
  1  2  1  0
  2 12  2  0
  3  4  2  0
  3  2  1  0
  4  5  1  0
  5  6  1  0
  5 11  2  0
  6  7  1  0
  7  9  1  0
  7  8  1  6
  9 10  2  0
 12 11  1  0
 13  9  1  0
 13 14  1  0
 14 17  1  0
 14 15  1  1
 16 15  1  0
 17 18  2  0
 19 17  1  0
 19 20  1  0
 20 23  1  0
 20 21  1  6
 22 21  1  0
 23 24  2  0
 23 25  1  0
M  END
$$$$
