YCC.pdb
     RDKit          3D

 25 25  0  0  1  0  0  0  0  0999 V2000
   24.1075  -19.2198  -16.0006 O   0  0  0  0  0  0  0  0  0  0  0  0
   24.1544  -17.8398  -15.7785 C   0  0  0  0  0  0  0  0  0  0  0  0
   25.1742  -17.3208  -15.0215 C   0  0  0  0  0  0  0  0  0  0  0  0
   25.2422  -15.9583  -14.7876 C   0  0  0  0  0  0  0  0  0  0  0  0
   24.3091  -15.0773  -15.2930 C   0  0  0  0  0  0  0  0  0  0  0  0
   24.4151  -13.6209  -15.0207 C   0  0  0  0  0  0  0  0  0  0  0  0
   24.6922  -12.9405  -16.3492 C   0  0  2  0  0  0  0  0  0  0  0  0
   25.9784  -13.3135  -16.8607 N   0  0  0  0  0  0  0  0  0  0  0  0
   24.4717  -11.4927  -16.2952 C   0  0  0  0  0  0  0  0  0  0  0  0
   25.4361  -10.7384  -15.9350 O   0  0  0  0  0  0  0  0  0  0  0  0
   23.2889  -15.6109  -16.0524 C   0  0  0  0  0  0  0  0  0  0  0  0
   23.2076  -16.9826  -16.2964 C   0  0  0  0  0  0  0  0  0  0  0  0
   23.2277  -10.8942  -16.6276 N   0  0  0  0  0  0  0  0  0  0  0  0
   23.1155   -9.4586  -16.5879 C   0  0  1  0  0  0  0  0  0  0  0  0
   23.9581   -8.8223  -17.6973 C   0  0  0  0  0  0  0  0  0  0  0  0
   23.6237   -9.6463  -19.2733 S   0  0  0  0  0  0  0  0  0  0  0  0
   21.7153   -9.0079  -16.8532 C   0  0  0  0  0  0  0  0  0  0  0  0
   21.0156   -9.5910  -17.7186 O   0  0  0  0  0  0  0  0  0  0  0  0
   21.1354   -7.9242  -16.1496 N   0  0  0  0  0  0  0  0  0  0  0  0
   19.7987   -7.4503  -16.3251 C   0  0  1  0  0  0  0  0  0  0  0  0
   18.9597   -7.6709  -15.0751 C   0  0  0  0  0  0  0  0  0  0  0  0
   17.3327   -6.9264  -15.2194 S   0  0  0  0  0  0  0  0  0  0  0  0
   19.7206   -6.0352  -16.7223 C   0  0  0  0  0  0  0  0  0  0  0  0
   20.3354   -5.1261  -16.1428 O   0  0  0  0  0  0  0  0  0  0  0  0
   18.9107   -5.7129  -17.8070 O   0  0  0  0  0  0  0  0  0  0  0  0
  1  2  1  0
  2 12  2  0
  3  4  2  0
  3  2  1  0
  4  5  1  0
  5  6  1  0
  5 11  2  0
  6  7  1  0
  7  9  1  0
  7  8  1  1
  9 10  2  0
 12 11  1  0
 13  9  1  0
 13 14  1  0
 14 17  1  0
 14 15  1  6
 16 15  1  0
 17 18  2  0
 19 17  1  0
 19 20  1  0
 20 23  1  0
 20 21  1  1
 22 21  1  0
 23 24  2  0
 23 25  1  0
M  END
$$$$
