MFM.pdb
     RDKit          3D

 28 28  0  0  1  0  0  0  0  0999 V2000
   29.3068  -17.2004  -17.3687 C   0  0  0  0  0  0  0  0  0  0  0  0
   28.6041  -17.9488  -18.8161 S   0  0  0  0  0  0  0  0  0  0  0  0
   28.2264  -19.6782  -18.7529 C   0  0  0  0  0  0  0  0  0  0  0  0
   27.6316  -20.1832  -17.5139 C   0  0  0  0  0  0  0  0  0  0  0  0
   28.3147  -21.1544  -16.6536 C   0  0  2  0  0  0  0  0  0  0  0  0
   28.7506  -22.3775  -17.1900 N   0  0  0  0  0  0  0  0  0  0  0  0
   27.4891  -21.4392  -15.4206 C   0  0  0  0  0  0  0  0  0  0  0  0
   26.7108  -22.4143  -15.4373 O   0  0  0  0  0  0  0  0  0  0  0  0
   27.5660  -20.6550  -14.2715 N   0  0  0  0  0  0  0  0  0  0  0  0
   26.7905  -20.9643  -13.0264 C   0  0  1  0  0  0  0  0  0  0  0  0
   27.5860  -20.3463  -11.9488 C   0  0  0  0  0  0  0  0  0  0  0  0
   26.9436  -20.3223  -10.6518 C   0  0  0  0  0  0  0  0  0  0  0  0
   26.0165  -19.4103  -10.2482 C   0  0  0  0  0  0  0  0  0  0  0  0
   25.4770  -19.4755   -8.9847 C   0  0  0  0  0  0  0  0  0  0  0  0
   25.8330  -20.4396   -8.0811 C   0  0  0  0  0  0  0  0  0  0  0  0
   26.7646  -21.3714   -8.4614 C   0  0  0  0  0  0  0  0  0  0  0  0
   27.3088  -21.3113   -9.7255 C   0  0  0  0  0  0  0  0  0  0  0  0
   25.4130  -20.6190  -13.2256 C   0  0  0  0  0  0  0  0  0  0  0  0
   25.1485  -19.6612  -14.0489 O   0  0  0  0  0  0  0  0  0  0  0  0
   18.5692  -22.7318  -15.8661 C   0  0  0  0  0  0  0  0  0  0  0  0
   20.2632  -22.9495  -15.3940 S   0  0  0  0  0  0  0  0  0  0  0  0
   20.9515  -21.7390  -14.2867 C   0  0  0  0  0  0  0  0  0  0  0  0
   22.3814  -21.8970  -13.9346 C   0  0  0  0  0  0  0  0  0  0  0  0
   22.9346  -20.8669  -12.9697 C   0  0  2  0  0  0  0  0  0  0  0  0
   24.3175  -21.2309  -12.6149 N   0  0  0  0  0  0  0  0  0  0  0  0
   22.1536  -20.8501  -11.7207 C   0  0  0  0  0  0  0  0  0  0  0  0
   22.5353  -21.4902  -10.5428 O   0  0  0  0  0  0  0  0  0  0  0  0
   21.0432  -20.2241  -11.6446 O   0  0  0  0  0  0  0  0  0  0  0  0
  1  2  1  0
  3  2  1  0
  4  3  1  0
  5  4  1  0
  5  6  1  6
  7  5  1  0
  8  7  2  0
  9  7  1  0
 10  9  1  0
 10 11  1  1
 11 12  1  0
 12 17  2  0
 13 12  1  0
 13 14  2  0
 14 15  1  0
 15 16  2  0
 17 16  1  0
 18 19  2  0
 18 10  1  0
 20 21  1  0
 22 21  1  0
 24 23  1  6
 23 22  1  0
 24 25  1  0
 25 18  1  0
 26 24  1  0
 27 26  1  0
 28 26  2  0
M  END
$$$$
