MFM.pdb
     RDKit          3D

 28 28  0  0  1  0  0  0  0  0999 V2000
   21.6143  -18.6973  -13.2970 C   0  0  0  0  0  0  0  0  0  0  0  0
   22.2118  -19.6605  -14.6623 S   0  0  0  0  0  0  0  0  0  0  0  0
   23.9526  -19.9745  -14.7544 C   0  0  0  0  0  0  0  0  0  0  0  0
   24.6182  -20.3929  -13.5191 C   0  0  0  0  0  0  0  0  0  0  0  0
   26.0773  -20.4815  -13.4041 C   0  0  2  0  0  0  0  0  0  0  0  0
   26.8080  -21.2261  -14.3450 N   0  0  0  0  0  0  0  0  0  0  0  0
   26.4704  -20.9413  -12.0197 C   0  0  0  0  0  0  0  0  0  0  0  0
   26.5775  -22.1661  -11.8070 O   0  0  0  0  0  0  0  0  0  0  0  0
   26.7162  -20.0501  -10.9773 N   0  0  0  0  0  0  0  0  0  0  0  0
   26.9482  -20.4986   -9.5658 C   0  0  1  0  0  0  0  0  0  0  0  0
   27.3111  -19.2589   -8.8535 C   0  0  0  0  0  0  0  0  0  0  0  0
   27.7996  -19.4501   -7.5042 C   0  0  0  0  0  0  0  0  0  0  0  0
   27.4338  -18.7102   -6.4213 C   0  0  0  0  0  0  0  0  0  0  0  0
   27.9708  -18.9728   -5.1826 C   0  0  0  0  0  0  0  0  0  0  0  0
   28.8831  -19.9709   -4.9723 C   0  0  0  0  0  0  0  0  0  0  0  0
   29.2692  -20.7322   -6.0458 C   0  0  0  0  0  0  0  0  0  0  0  0
   28.7350  -20.4739   -7.2890 C   0  0  0  0  0  0  0  0  0  0  0  0
   25.8449  -21.3075   -9.1360 C   0  0  0  0  0  0  0  0  0  0  0  0
   26.0730  -22.5556   -8.9006 O   0  0  0  0  0  0  0  0  0  0  0  0
   25.1388  -20.9215   -3.5906 C   0  0  0  0  0  0  0  0  0  0  0  0
   23.6058  -21.7565   -3.8949 S   0  0  0  0  0  0  0  0  0  0  0  0
   23.1016  -21.9190   -5.5932 C   0  0  0  0  0  0  0  0  0  0  0  0
   24.0615  -21.4510   -6.6195 C   0  0  0  0  0  0  0  0  0  0  0  0
   23.6039  -21.5971   -8.0573 C   0  0  2  0  0  0  0  0  0  0  0  0
   24.5350  -20.8691   -8.9370 N   0  0  0  0  0  0  0  0  0  0  0  0
   22.2703  -20.9995   -8.2433 C   0  0  0  0  0  0  0  0  0  0  0  0
   21.0771  -21.5877   -7.8274 O   0  0  0  0  0  0  0  0  0  0  0  0
   22.1283  -19.8668   -8.8158 O   0  0  0  0  0  0  0  0  0  0  0  0
  1  2  1  0
  3  2  1  0
  4  3  1  0
  5  4  1  0
  5  6  1  6
  7  5  1  0
  8  7  2  0
  9  7  1  0
 10  9  1  0
 10 11  1  1
 11 12  1  0
 12 17  2  0
 13 12  1  0
 13 14  2  0
 14 15  1  0
 15 16  2  0
 17 16  1  0
 18 19  2  0
 18 10  1  0
 20 21  1  0
 22 21  1  0
 24 23  1  1
 23 22  1  0
 24 25  1  0
 25 18  1  0
 26 24  1  0
 27 26  1  0
 28 26  2  0
M  END
$$$$
