MFM.pdb
     RDKit          3D

 28 28  0  0  1  0  0  0  0  0999 V2000
   23.2620  -17.6611  -14.1359 C   0  0  0  0  0  0  0  0  0  0  0  0
   24.0270  -18.9309  -15.1111 S   0  0  0  0  0  0  0  0  0  0  0  0
   23.9409  -20.5967  -14.5152 C   0  0  0  0  0  0  0  0  0  0  0  0
   24.3276  -20.8242  -13.1214 C   0  0  0  0  0  0  0  0  0  0  0  0
   25.7292  -20.8879  -12.6955 C   0  0  2  0  0  0  0  0  0  0  0  0
   26.6183  -21.7589  -13.3471 N   0  0  0  0  0  0  0  0  0  0  0  0
   25.8176  -21.1378  -11.2081 C   0  0  0  0  0  0  0  0  0  0  0  0
   25.5035  -22.2646  -10.7738 O   0  0  0  0  0  0  0  0  0  0  0  0
   26.2354  -20.1591  -10.3088 N   0  0  0  0  0  0  0  0  0  0  0  0
   26.3260  -20.4013   -8.8321 C   0  0  1  0  0  0  0  0  0  0  0  0
   27.3726  -19.4647   -8.3812 C   0  0  0  0  0  0  0  0  0  0  0  0
   27.7269  -19.5719   -6.9817 C   0  0  0  0  0  0  0  0  0  0  0  0
   27.5391  -18.6021   -6.0446 C   0  0  0  0  0  0  0  0  0  0  0  0
   27.9245  -18.8075   -4.7404 C   0  0  0  0  0  0  0  0  0  0  0  0
   28.5055  -19.9727   -4.3192 C   0  0  0  0  0  0  0  0  0  0  0  0
   28.7062  -20.9670   -5.2424 C   0  0  0  0  0  0  0  0  0  0  0  0
   28.3225  -20.7671   -6.5503 C   0  0  0  0  0  0  0  0  0  0  0  0
   25.0096  -20.3751   -8.2639 C   0  0  0  0  0  0  0  0  0  0  0  0
   24.1727  -19.5108   -8.7307 O   0  0  0  0  0  0  0  0  0  0  0  0
   20.1078  -23.2604   -9.6695 C   0  0  0  0  0  0  0  0  0  0  0  0
   19.7099  -23.0284   -7.9584 S   0  0  0  0  0  0  0  0  0  0  0  0
   20.8610  -22.0827   -6.9859 C   0  0  0  0  0  0  0  0  0  0  0  0
   22.2302  -21.9371   -7.5318 C   0  0  0  0  0  0  0  0  0  0  0  0
   23.1713  -21.0744   -6.7143 C   0  0  2  0  0  0  0  0  0  0  0  0
   24.5375  -21.2090   -7.2493 N   0  0  0  0  0  0  0  0  0  0  0  0
   23.2055  -21.5243   -5.3120 C   0  0  0  0  0  0  0  0  0  0  0  0
   22.2967  -21.1258   -4.3332 O   0  0  0  0  0  0  0  0  0  0  0  0
   24.1019  -22.3354   -4.9003 O   0  0  0  0  0  0  0  0  0  0  0  0
  1  2  1  0
  3  2  1  0
  4  3  1  0
  5  4  1  0
  5  6  1  6
  7  5  1  0
  8  7  2  0
  9  7  1  0
 10  9  1  0
 10 11  1  1
 11 12  1  0
 12 17  2  0
 13 12  1  0
 13 14  2  0
 14 15  1  0
 15 16  2  0
 17 16  1  0
 18 19  2  0
 18 10  1  0
 20 21  1  0
 22 21  1  0
 24 23  1  6
 23 22  1  0
 24 25  1  0
 25 18  1  0
 26 24  1  0
 27 26  1  0
 28 26  2  0
M  END
$$$$
