MFM.pdb
     RDKit          3D

 28 28  0  0  1  0  0  0  0  0999 V2000
   26.2465  -23.1285  -19.0043 C   0  0  0  0  0  0  0  0  0  0  0  0
   27.9272  -22.5816  -18.8461 S   0  0  0  0  0  0  0  0  0  0  0  0
   28.6798  -22.6728  -17.2452 C   0  0  0  0  0  0  0  0  0  0  0  0
   27.7888  -22.5857  -16.0866 C   0  0  0  0  0  0  0  0  0  0  0  0
   26.9789  -21.3960  -15.8061 C   0  0  2  0  0  0  0  0  0  0  0  0
   27.6070  -20.1566  -15.5985 N   0  0  0  0  0  0  0  0  0  0  0  0
   26.0406  -21.6569  -14.6511 C   0  0  0  0  0  0  0  0  0  0  0  0
   25.6418  -22.8237  -14.4598 O   0  0  0  0  0  0  0  0  0  0  0  0
   25.6070  -20.6456  -13.7965 N   0  0  0  0  0  0  0  0  0  0  0  0
   24.6126  -20.8824  -12.7000 C   0  0  1  0  0  0  0  0  0  0  0  0
   24.9650  -19.8797  -11.6771 C   0  0  0  0  0  0  0  0  0  0  0  0
   25.8561  -20.3530  -10.6391 C   0  0  0  0  0  0  0  0  0  0  0  0
   27.0454  -20.9822  -10.8478 C   0  0  0  0  0  0  0  0  0  0  0  0
   27.8099  -21.4009   -9.7839 C   0  0  0  0  0  0  0  0  0  0  0  0
   27.4276  -21.2128   -8.4834 C   0  0  0  0  0  0  0  0  0  0  0  0
   26.2340  -20.5812   -8.2441 C   0  0  0  0  0  0  0  0  0  0  0  0
   25.4637  -20.1597   -9.3056 C   0  0  0  0  0  0  0  0  0  0  0  0
   23.2933  -20.9428  -13.2589 C   0  0  0  0  0  0  0  0  0  0  0  0
   22.9257  -19.9776  -14.0324 O   0  0  0  0  0  0  0  0  0  0  0  0
   18.7904  -26.2599  -13.3989 C   0  0  0  0  0  0  0  0  0  0  0  0
   18.5734  -25.1162  -14.7349 S   0  0  0  0  0  0  0  0  0  0  0  0
   19.1866  -23.4646  -14.4876 C   0  0  0  0  0  0  0  0  0  0  0  0
   20.5161  -23.3379  -13.8473 C   0  0  0  0  0  0  0  0  0  0  0  0
   21.0262  -21.9208  -13.6752 C   0  0  2  0  0  0  0  0  0  0  0  0
   22.3606  -21.9600  -13.0518 N   0  0  0  0  0  0  0  0  0  0  0  0
   20.1463  -21.1556  -12.7750 C   0  0  0  0  0  0  0  0  0  0  0  0
   20.3879  -20.9566  -11.4168 O   0  0  0  0  0  0  0  0  0  0  0  0
   19.0744  -20.6108  -13.2052 O   0  0  0  0  0  0  0  0  0  0  0  0
  1  2  1  0
  3  2  1  0
  4  3  1  0
  5  4  1  0
  5  6  1  1
  7  5  1  0
  8  7  2  0
  9  7  1  0
 10  9  1  0
 10 11  1  1
 11 12  1  0
 12 17  2  0
 13 12  1  0
 13 14  2  0
 14 15  1  0
 15 16  2  0
 17 16  1  0
 18 19  2  0
 18 10  1  0
 20 21  1  0
 22 21  1  0
 24 23  1  1
 23 22  1  0
 24 25  1  0
 25 18  1  0
 26 24  1  0
 27 26  1  0
 28 26  2  0
M  END
$$$$
