MFM.pdb
     RDKit          3D

 28 28  0  0  1  0  0  0  0  0999 V2000
   24.5874  -21.5466  -20.5785 C   0  0  0  0  0  0  0  0  0  0  0  0
   26.3174  -21.4664  -20.9651 S   0  0  0  0  0  0  0  0  0  0  0  0
   27.4670  -21.4590  -19.6176 C   0  0  0  0  0  0  0  0  0  0  0  0
   26.9326  -21.7562  -18.2872 C   0  0  0  0  0  0  0  0  0  0  0  0
   26.4653  -20.7068  -17.3759 C   0  0  2  0  0  0  0  0  0  0  0  0
   27.2071  -19.5220  -17.2362 N   0  0  0  0  0  0  0  0  0  0  0  0
   26.2107  -21.2776  -16.0004 C   0  0  0  0  0  0  0  0  0  0  0  0
   25.9452  -22.4927  -15.8997 O   0  0  0  0  0  0  0  0  0  0  0  0
   26.2617  -20.4989  -14.8463 N   0  0  0  0  0  0  0  0  0  0  0  0
   25.8967  -21.0310  -13.4931 C   0  0  1  0  0  0  0  0  0  0  0  0
   26.6945  -20.2118  -12.5613 C   0  0  0  0  0  0  0  0  0  0  0  0
   26.4062  -20.4258  -11.1590 C   0  0  0  0  0  0  0  0  0  0  0  0
   26.9600  -21.3950  -10.3794 C   0  0  0  0  0  0  0  0  0  0  0  0
   26.6042  -21.5150   -9.0563 C   0  0  0  0  0  0  0  0  0  0  0  0
   25.6936  -20.6851   -8.4607 C   0  0  0  0  0  0  0  0  0  0  0  0
   25.1202  -19.6993   -9.2226 C   0  0  0  0  0  0  0  0  0  0  0  0
   25.4724  -19.5743  -10.5486 C   0  0  0  0  0  0  0  0  0  0  0  0
   24.4691  -21.1075  -13.3810 C   0  0  0  0  0  0  0  0  0  0  0  0
   23.7748  -20.1588  -13.9131 O   0  0  0  0  0  0  0  0  0  0  0  0
   21.0373  -18.5974   -9.5819 C   0  0  0  0  0  0  0  0  0  0  0  0
   19.9017  -19.2101  -10.7964 S   0  0  0  0  0  0  0  0  0  0  0  0
   20.4134  -20.6359  -11.7293 C   0  0  0  0  0  0  0  0  0  0  0  0
   21.8714  -20.8756  -11.8312 C   0  0  0  0  0  0  0  0  0  0  0  0
   22.2796  -22.0811  -12.6547 C   0  0  2  0  0  0  0  0  0  0  0  0
   23.7491  -22.1243  -12.7525 N   0  0  0  0  0  0  0  0  0  0  0  0
   21.7538  -21.9773  -14.0269 C   0  0  0  0  0  0  0  0  0  0  0  0
   22.5424  -21.8042  -15.1630 O   0  0  0  0  0  0  0  0  0  0  0  0
   20.5001  -22.0440  -14.2605 O   0  0  0  0  0  0  0  0  0  0  0  0
  1  2  1  0
  3  2  1  0
  4  3  1  0
  5  4  1  0
  5  6  1  1
  7  5  1  0
  8  7  2  0
  9  7  1  0
 10  9  1  0
 10 11  1  1
 11 12  1  0
 12 17  2  0
 13 12  1  0
 13 14  2  0
 14 15  1  0
 15 16  2  0
 17 16  1  0
 18 19  2  0
 18 10  1  0
 20 21  1  0
 22 21  1  0
 24 23  1  1
 23 22  1  0
 24 25  1  0
 25 18  1  0
 26 24  1  0
 27 26  1  0
 28 26  2  0
M  END
$$$$
