MFM.pdb
     RDKit          3D

 28 28  0  0  1  0  0  0  0  0999 V2000
   21.6549  -19.2698  -14.5821 C   0  0  0  0  0  0  0  0  0  0  0  0
   22.5615  -20.1088  -15.8560 S   0  0  0  0  0  0  0  0  0  0  0  0
   23.1661  -21.7366  -15.5063 C   0  0  0  0  0  0  0  0  0  0  0  0
   23.8968  -21.9181  -14.2504 C   0  0  0  0  0  0  0  0  0  0  0  0
   25.3020  -21.5290  -14.0959 C   0  0  2  0  0  0  0  0  0  0  0  0
   26.2818  -22.1090  -14.9189 N   0  0  0  0  0  0  0  0  0  0  0  0
   25.7356  -21.6787  -12.6565 C   0  0  0  0  0  0  0  0  0  0  0  0
   26.1535  -22.7902  -12.2729 O   0  0  0  0  0  0  0  0  0  0  0  0
   25.6855  -20.6247  -11.7467 N   0  0  0  0  0  0  0  0  0  0  0  0
   26.0781  -20.7770  -10.3079 C   0  0  1  0  0  0  0  0  0  0  0  0
   26.8698  -19.5650  -10.0248 C   0  0  0  0  0  0  0  0  0  0  0  0
   27.4992  -19.5368   -8.7214 C   0  0  0  0  0  0  0  0  0  0  0  0
   27.1380  -18.7260   -7.6891 C   0  0  0  0  0  0  0  0  0  0  0  0
   27.8148  -18.7752   -6.4927 C   0  0  0  0  0  0  0  0  0  0  0  0
   28.8665  -19.6236   -6.2763 C   0  0  0  0  0  0  0  0  0  0  0  0
   29.2514  -20.4520   -7.2992 C   0  0  0  0  0  0  0  0  0  0  0  0
   28.5776  -20.4072   -8.4999 C   0  0  0  0  0  0  0  0  0  0  0  0
   24.9191  -21.1067   -9.5305 C   0  0  0  0  0  0  0  0  0  0  0  0
   23.7632  -20.9490  -10.0821 O   0  0  0  0  0  0  0  0  0  0  0  0
   24.5760  -21.2347   -2.8157 C   0  0  0  0  0  0  0  0  0  0  0  0
   23.0648  -21.9754   -3.3705 S   0  0  0  0  0  0  0  0  0  0  0  0
   22.7649  -21.9743   -5.1241 C   0  0  0  0  0  0  0  0  0  0  0  0
   23.9491  -21.8250   -6.0011 C   0  0  0  0  0  0  0  0  0  0  0  0
   23.6653  -21.8378   -7.4902 C   0  0  2  0  0  0  0  0  0  0  0  0
   24.9201  -21.5952   -8.2233 N   0  0  0  0  0  0  0  0  0  0  0  0
   22.7322  -20.7569   -7.8525 C   0  0  0  0  0  0  0  0  0  0  0  0
   21.3696  -20.9356   -8.0846 O   0  0  0  0  0  0  0  0  0  0  0  0
   23.1346  -19.5513   -7.9772 O   0  0  0  0  0  0  0  0  0  0  0  0
  1  2  1  0
  3  2  1  0
  4  3  1  0
  5  4  1  0
  5  6  1  6
  7  5  1  0
  8  7  2  0
  9  7  1  0
 10  9  1  0
 10 11  1  1
 11 12  1  0
 12 17  2  0
 13 12  1  0
 13 14  2  0
 14 15  1  0
 15 16  2  0
 17 16  1  0
 18 19  2  0
 18 10  1  0
 20 21  1  0
 22 21  1  0
 24 23  1  1
 23 22  1  0
 24 25  1  0
 25 18  1  0
 26 24  1  0
 27 26  1  0
 28 26  2  0
M  END
$$$$
