MFM.pdb
     RDKit          3D

 28 28  0  0  1  0  0  0  0  0999 V2000
   15.6000   -9.6464  -20.6484 C   0  0  0  0  0  0  0  0  0  0  0  0
   14.7359  -11.1206  -20.1702 S   0  0  0  0  0  0  0  0  0  0  0  0
   15.0737  -11.7947  -18.5674 C   0  0  0  0  0  0  0  0  0  0  0  0
   15.8126  -10.9447  -17.6318 C   0  0  0  0  0  0  0  0  0  0  0  0
   16.8907  -11.4624  -16.7835 C   0  0  2  0  0  0  0  0  0  0  0  0
   16.6787  -12.6166  -16.0112 N   0  0  0  0  0  0  0  0  0  0  0  0
   17.4212  -10.3730  -15.8811 C   0  0  0  0  0  0  0  0  0  0  0  0
   16.7912  -10.1042  -14.8381 O   0  0  0  0  0  0  0  0  0  0  0  0
   18.5835   -9.6614  -16.1711 N   0  0  0  0  0  0  0  0  0  0  0  0
   19.0614   -8.5142  -15.3329 C   0  0  1  0  0  0  0  0  0  0  0  0
   20.5297   -8.6557  -15.3396 C   0  0  0  0  0  0  0  0  0  0  0  0
   21.2543   -7.5338  -14.7813 C   0  0  0  0  0  0  0  0  0  0  0  0
   21.4791   -7.3219  -13.4553 C   0  0  0  0  0  0  0  0  0  0  0  0
   22.1735   -6.2121  -13.0334 C   0  0  0  0  0  0  0  0  0  0  0  0
   22.6677   -5.2783  -13.9032 C   0  0  0  0  0  0  0  0  0  0  0  0
   22.4560   -5.4670  -15.2451 C   0  0  0  0  0  0  0  0  0  0  0  0
   21.7610   -6.5765  -15.6737 C   0  0  0  0  0  0  0  0  0  0  0  0
   18.4287   -7.3056  -15.7751 C   0  0  0  0  0  0  0  0  0  0  0  0
   18.3143   -7.1201  -17.0469 O   0  0  0  0  0  0  0  0  0  0  0  0
   13.0653   -4.4768  -13.4416 C   0  0  0  0  0  0  0  0  0  0  0  0
   13.6474   -3.3240  -14.6549 S   0  0  0  0  0  0  0  0  0  0  0  0
   15.2927   -3.5785  -15.2820 C   0  0  0  0  0  0  0  0  0  0  0  0
   15.9605   -4.8448  -14.9023 C   0  0  0  0  0  0  0  0  0  0  0  0
   17.3285   -5.0715  -15.5150 C   0  0  2  0  0  0  0  0  0  0  0  0
   17.9111   -6.3030  -14.9539 N   0  0  0  0  0  0  0  0  0  0  0  0
   18.2404   -3.9646  -15.1784 C   0  0  0  0  0  0  0  0  0  0  0  0
   18.4845   -2.8657  -16.0003 O   0  0  0  0  0  0  0  0  0  0  0  0
   18.8806   -3.9491  -14.0735 O   0  0  0  0  0  0  0  0  0  0  0  0
  1  2  1  0
  3  2  1  0
  4  3  1  0
  5  4  1  0
  5  6  1  1
  7  5  1  0
  8  7  2  0
  9  7  1  0
 10  9  1  0
 10 11  1  6
 11 12  1  0
 12 17  2  0
 13 12  1  0
 13 14  2  0
 14 15  1  0
 15 16  2  0
 17 16  1  0
 18 19  2  0
 18 10  1  0
 20 21  1  0
 22 21  1  0
 24 23  1  1
 23 22  1  0
 24 25  1  0
 25 18  1  0
 26 24  1  0
 27 26  1  0
 28 26  2  0
M  END
$$$$
