MFM.pdb
     RDKit          3D

 28 28  0  0  1  0  0  0  0  0999 V2000
   29.7346  -17.1202  -16.8596 C   0  0  0  0  0  0  0  0  0  0  0  0
   28.5215  -16.9029  -18.1362 S   0  0  0  0  0  0  0  0  0  0  0  0
   27.5901  -18.3217  -18.6428 C   0  0  0  0  0  0  0  0  0  0  0  0
   27.0008  -19.1424  -17.5829 C   0  0  0  0  0  0  0  0  0  0  0  0
   27.6806  -20.3182  -17.0302 C   0  0  2  0  0  0  0  0  0  0  0  0
   28.0304  -21.3842  -17.8757 N   0  0  0  0  0  0  0  0  0  0  0  0
   26.9068  -20.8716  -15.8566 C   0  0  0  0  0  0  0  0  0  0  0  0
   26.2605  -21.9273  -16.0139 O   0  0  0  0  0  0  0  0  0  0  0  0
   26.8894  -20.2476  -14.6110 N   0  0  0  0  0  0  0  0  0  0  0  0
   26.0408  -20.7319  -13.4740 C   0  0  1  0  0  0  0  0  0  0  0  0
   26.7035  -20.1827  -12.2760 C   0  0  0  0  0  0  0  0  0  0  0  0
   25.9878  -20.3863  -11.0343 C   0  0  0  0  0  0  0  0  0  0  0  0
   24.9155  -19.6598  -10.6143 C   0  0  0  0  0  0  0  0  0  0  0  0
   24.3165  -19.9335   -9.4069 C   0  0  0  0  0  0  0  0  0  0  0  0
   24.7539  -20.9299   -8.5771 C   0  0  0  0  0  0  0  0  0  0  0  0
   25.8322  -21.6778   -8.9756 C   0  0  0  0  0  0  0  0  0  0  0  0
   26.4367  -21.4084  -10.1838 C   0  0  0  0  0  0  0  0  0  0  0  0
   24.6628  -20.4521  -13.7558 C   0  0  0  0  0  0  0  0  0  0  0  0
   24.3829  -19.3229  -14.3141 O   0  0  0  0  0  0  0  0  0  0  0  0
   20.5961  -22.2697  -18.1507 C   0  0  0  0  0  0  0  0  0  0  0  0
   19.5823  -22.2086  -16.6986 S   0  0  0  0  0  0  0  0  0  0  0  0
   20.2442  -21.3449  -15.2912 C   0  0  0  0  0  0  0  0  0  0  0  0
   21.6524  -21.6348  -14.9351 C   0  0  0  0  0  0  0  0  0  0  0  0
   22.1947  -20.8735  -13.7416 C   0  0  2  0  0  0  0  0  0  0  0  0
   23.5836  -21.2958  -13.4897 N   0  0  0  0  0  0  0  0  0  0  0  0
   21.4177  -21.1828  -12.5289 C   0  0  0  0  0  0  0  0  0  0  0  0
   21.6480  -22.2818  -11.7032 O   0  0  0  0  0  0  0  0  0  0  0  0
   20.4552  -20.4327  -12.1521 O   0  0  0  0  0  0  0  0  0  0  0  0
  1  2  1  0
  3  2  1  0
  4  3  1  0
  5  4  1  0
  5  6  1  6
  7  5  1  0
  8  7  2  0
  9  7  1  0
 10  9  1  0
 10 11  1  1
 11 12  1  0
 12 17  2  0
 13 12  1  0
 13 14  2  0
 14 15  1  0
 15 16  2  0
 17 16  1  0
 18 19  2  0
 18 10  1  0
 20 21  1  0
 22 21  1  0
 24 23  1  6
 23 22  1  0
 24 25  1  0
 25 18  1  0
 26 24  1  0
 27 26  1  0
 28 26  2  0
M  END
$$$$
