MFM.pdb
     RDKit          3D

 28 28  0  0  1  0  0  0  0  0999 V2000
   24.4488  -19.2087  -18.9643 C   0  0  0  0  0  0  0  0  0  0  0  0
   25.6993  -20.4316  -19.2635 S   0  0  0  0  0  0  0  0  0  0  0  0
   25.2965  -22.1247  -18.9343 C   0  0  0  0  0  0  0  0  0  0  0  0
   24.6985  -22.4239  -17.6317 C   0  0  0  0  0  0  0  0  0  0  0  0
   25.4319  -22.2548  -16.3732 C   0  0  2  0  0  0  0  0  0  0  0  0
   26.5547  -23.0558  -16.1061 N   0  0  0  0  0  0  0  0  0  0  0  0
   24.4884  -22.3447  -15.1967 C   0  0  0  0  0  0  0  0  0  0  0  0
   24.4520  -23.4065  -14.5423 O   0  0  0  0  0  0  0  0  0  0  0  0
   23.6614  -21.2890  -14.8187 N   0  0  0  0  0  0  0  0  0  0  0  0
   22.7677  -21.3503  -13.6166 C   0  0  1  0  0  0  0  0  0  0  0  0
   23.1693  -20.1794  -12.8144 C   0  0  0  0  0  0  0  0  0  0  0  0
   24.1075  -20.4615  -11.7487 C   0  0  0  0  0  0  0  0  0  0  0  0
   25.4341  -20.7195  -11.9142 C   0  0  0  0  0  0  0  0  0  0  0  0
   26.2344  -20.9864  -10.8279 C   0  0  0  0  0  0  0  0  0  0  0  0
   25.7537  -21.0071   -9.5468 C   0  0  0  0  0  0  0  0  0  0  0  0
   24.4208  -20.7502   -9.3509 C   0  0  0  0  0  0  0  0  0  0  0  0
   23.6141  -20.4824  -10.4350 C   0  0  0  0  0  0  0  0  0  0  0  0
   21.4100  -21.5304  -14.0417 C   0  0  0  0  0  0  0  0  0  0  0  0
   20.9937  -20.8187  -15.0343 O   0  0  0  0  0  0  0  0  0  0  0  0
   17.7780  -27.1187  -13.5481 C   0  0  0  0  0  0  0  0  0  0  0  0
   16.5979  -25.8529  -13.9290 S   0  0  0  0  0  0  0  0  0  0  0  0
   17.2395  -24.2243  -14.2470 C   0  0  0  0  0  0  0  0  0  0  0  0
   18.5849  -23.9224  -13.7061 C   0  0  0  0  0  0  0  0  0  0  0  0
   19.1176  -22.5371  -14.0149 C   0  0  2  0  0  0  0  0  0  0  0  0
   20.4872  -22.4170  -13.4851 N   0  0  0  0  0  0  0  0  0  0  0  0
   18.3014  -21.5050  -13.3525 C   0  0  0  0  0  0  0  0  0  0  0  0
   17.1926  -20.8866  -13.9276 O   0  0  0  0  0  0  0  0  0  0  0  0
   18.5736  -21.1058  -12.1704 O   0  0  0  0  0  0  0  0  0  0  0  0
  1  2  1  0
  3  2  1  0
  4  3  1  0
  5  4  1  0
  5  6  1  1
  7  5  1  0
  8  7  2  0
  9  7  1  0
 10  9  1  0
 10 11  1  6
 11 12  1  0
 12 17  2  0
 13 12  1  0
 13 14  2  0
 14 15  1  0
 15 16  2  0
 17 16  1  0
 18 19  2  0
 18 10  1  0
 20 21  1  0
 22 21  1  0
 24 23  1  1
 23 22  1  0
 24 25  1  0
 25 18  1  0
 26 24  1  0
 27 26  1  0
 28 26  2  0
M  END
$$$$
