MFM.pdb
     RDKit          3D

 28 28  0  0  1  0  0  0  0  0999 V2000
   22.9422  -18.1339  -16.0471 C   0  0  0  0  0  0  0  0  0  0  0  0
   23.1909  -19.5832  -17.0402 S   0  0  0  0  0  0  0  0  0  0  0  0
   24.3006  -20.8227  -16.4321 C   0  0  0  0  0  0  0  0  0  0  0  0
   24.7279  -20.7044  -15.0366 C   0  0  0  0  0  0  0  0  0  0  0  0
   25.8518  -21.4723  -14.4915 C   0  0  2  0  0  0  0  0  0  0  0  0
   26.1839  -22.7173  -15.0513 N   0  0  0  0  0  0  0  0  0  0  0  0
   25.6985  -21.6440  -12.9983 C   0  0  0  0  0  0  0  0  0  0  0  0
   25.2851  -22.7384  -12.5641 O   0  0  0  0  0  0  0  0  0  0  0  0
   26.0008  -20.6285  -12.0936 N   0  0  0  0  0  0  0  0  0  0  0  0
   25.8655  -20.7981  -10.6103 C   0  0  1  0  0  0  0  0  0  0  0  0
   26.8993  -19.9050  -10.0540 C   0  0  0  0  0  0  0  0  0  0  0  0
   26.9551  -19.8609   -8.6082 C   0  0  0  0  0  0  0  0  0  0  0  0
   26.4009  -18.8930   -7.8271 C   0  0  0  0  0  0  0  0  0  0  0  0
   26.5245  -18.9446   -6.4583 C   0  0  0  0  0  0  0  0  0  0  0  0
   27.1964  -19.9497   -5.8172 C   0  0  0  0  0  0  0  0  0  0  0  0
   27.7643  -20.9382   -6.5796 C   0  0  0  0  0  0  0  0  0  0  0  0
   27.6441  -20.8919   -7.9511 C   0  0  0  0  0  0  0  0  0  0  0  0
   24.4869  -20.6618  -10.2394 C   0  0  0  0  0  0  0  0  0  0  0  0
   23.7668  -19.8252  -10.9076 O   0  0  0  0  0  0  0  0  0  0  0  0
   20.0454  -24.9352   -6.8280 C   0  0  0  0  0  0  0  0  0  0  0  0
   19.9958  -23.2508   -6.2801 S   0  0  0  0  0  0  0  0  0  0  0  0
   20.5577  -22.0143   -7.4293 C   0  0  0  0  0  0  0  0  0  0  0  0
   21.9987  -22.0302   -7.7712 C   0  0  0  0  0  0  0  0  0  0  0  0
   22.3865  -21.2385   -9.0045 C   0  0  2  0  0  0  0  0  0  0  0  0
   23.8390  -21.3605   -9.2198 N   0  0  0  0  0  0  0  0  0  0  0  0
   22.0914  -19.8072   -8.8193 C   0  0  0  0  0  0  0  0  0  0  0  0
   20.9266  -19.1788   -9.2563 O   0  0  0  0  0  0  0  0  0  0  0  0
   22.9163  -19.0344   -8.2250 O   0  0  0  0  0  0  0  0  0  0  0  0
  1  2  1  0
  3  2  1  0
  4  3  1  0
  5  4  1  0
  5  6  1  6
  7  5  1  0
  8  7  2  0
  9  7  1  0
 10  9  1  0
 10 11  1  1
 11 12  1  0
 12 17  2  0
 13 12  1  0
 13 14  2  0
 14 15  1  0
 15 16  2  0
 17 16  1  0
 18 19  2  0
 18 10  1  0
 20 21  1  0
 22 21  1  0
 24 23  1  1
 23 22  1  0
 24 25  1  0
 25 18  1  0
 26 24  1  0
 27 26  1  0
 28 26  2  0
M  END
$$$$
