MFM.pdb
     RDKit          3D

 28 28  0  0  1  0  0  0  0  0999 V2000
   23.5635  -16.3805  -16.7732 C   0  0  0  0  0  0  0  0  0  0  0  0
   25.3040  -16.2263  -17.0820 S   0  0  0  0  0  0  0  0  0  0  0  0
   26.2647  -17.7122  -17.1641 C   0  0  0  0  0  0  0  0  0  0  0  0
   25.8549  -18.8168  -16.2946 C   0  0  0  0  0  0  0  0  0  0  0  0
   26.6002  -19.1834  -15.0863 C   0  0  2  0  0  0  0  0  0  0  0  0
   27.9233  -19.6430  -15.1944 N   0  0  0  0  0  0  0  0  0  0  0  0
   25.8140  -20.1764  -14.2626 C   0  0  0  0  0  0  0  0  0  0  0  0
   25.8476  -21.3802  -14.5894 O   0  0  0  0  0  0  0  0  0  0  0  0
   25.0564  -19.7972  -13.1565 N   0  0  0  0  0  0  0  0  0  0  0  0
   24.3051  -20.7825  -12.3127 C   0  0  1  0  0  0  0  0  0  0  0  0
   24.3748  -20.2134  -10.9536 C   0  0  0  0  0  0  0  0  0  0  0  0
   25.5925  -20.5094  -10.2289 C   0  0  0  0  0  0  0  0  0  0  0  0
   26.6259  -21.2616  -10.6980 C   0  0  0  0  0  0  0  0  0  0  0  0
   27.7350  -21.4887   -9.9171 C   0  0  0  0  0  0  0  0  0  0  0  0
   27.8608  -20.9825   -8.6519 C   0  0  0  0  0  0  0  0  0  0  0  0
   26.8347  -20.2207   -8.1542 C   0  0  0  0  0  0  0  0  0  0  0  0
   25.7211  -19.9898   -8.9316 C   0  0  0  0  0  0  0  0  0  0  0  0
   23.0457  -21.0768  -12.9321 C   0  0  0  0  0  0  0  0  0  0  0  0
   22.3738  -20.0898  -13.4217 O   0  0  0  0  0  0  0  0  0  0  0  0
   17.9841  -26.4223  -16.0756 C   0  0  0  0  0  0  0  0  0  0  0  0
   19.5239  -26.0066  -15.3035 S   0  0  0  0  0  0  0  0  0  0  0  0
   19.6924  -24.3463  -14.6872 C   0  0  0  0  0  0  0  0  0  0  0  0
   21.0251  -23.9618  -14.1679 C   0  0  0  0  0  0  0  0  0  0  0  0
   21.1518  -22.5287  -13.6901 C   0  0  2  0  0  0  0  0  0  0  0  0
   22.4735  -22.3425  -13.0661 N   0  0  0  0  0  0  0  0  0  0  0  0
   20.1385  -22.2299  -12.6634 C   0  0  0  0  0  0  0  0  0  0  0  0
   18.8242  -21.8556  -12.9374 O   0  0  0  0  0  0  0  0  0  0  0  0
   20.4180  -22.3011  -11.4194 O   0  0  0  0  0  0  0  0  0  0  0  0
  1  2  1  0
  3  2  1  0
  4  3  1  0
  5  4  1  0
  5  6  1  6
  7  5  1  0
  8  7  2  0
  9  7  1  0
 10  9  1  0
 10 11  1  1
 11 12  1  0
 12 17  2  0
 13 12  1  0
 13 14  2  0
 14 15  1  0
 15 16  2  0
 17 16  1  0
 18 19  2  0
 18 10  1  0
 20 21  1  0
 22 21  1  0
 24 23  1  1
 23 22  1  0
 24 25  1  0
 25 18  1  0
 26 24  1  0
 27 26  1  0
 28 26  2  0
M  END
$$$$
