MFM.pdb
     RDKit          3D

 28 28  0  0  1  0  0  0  0  0999 V2000
   25.1553   -7.3000  -25.4942 C   0  0  0  0  0  0  0  0  0  0  0  0
   24.2223   -7.5251  -24.0017 S   0  0  0  0  0  0  0  0  0  0  0  0
   24.8899   -6.8628  -22.5007 C   0  0  0  0  0  0  0  0  0  0  0  0
   24.0937   -7.0403  -21.2847 C   0  0  0  0  0  0  0  0  0  0  0  0
   24.3582   -8.1147  -20.3225 C   0  0  2  0  0  0  0  0  0  0  0  0
   24.3003   -9.4552  -20.7390 N   0  0  0  0  0  0  0  0  0  0  0  0
   23.4848   -7.9548  -19.1001 C   0  0  0  0  0  0  0  0  0  0  0  0
   22.3993   -8.5688  -19.0594 O   0  0  0  0  0  0  0  0  0  0  0  0
   23.8471   -7.1499  -18.0221 N   0  0  0  0  0  0  0  0  0  0  0  0
   22.9718   -6.9645  -16.8193 C   0  0  1  0  0  0  0  0  0  0  0  0
   23.7499   -7.5613  -15.7174 C   0  0  0  0  0  0  0  0  0  0  0  0
   23.0845   -7.5656  -14.4318 C   0  0  0  0  0  0  0  0  0  0  0  0
   22.8419   -8.6702  -13.6735 C   0  0  0  0  0  0  0  0  0  0  0  0
   22.1897   -8.5598  -12.4677 C   0  0  0  0  0  0  0  0  0  0  0  0
   21.7571   -7.3600  -11.9718 C   0  0  0  0  0  0  0  0  0  0  0  0
   21.9886   -6.2307  -12.7149 C   0  0  0  0  0  0  0  0  0  0  0  0
   22.6412   -6.3349  -13.9236 C   0  0  0  0  0  0  0  0  0  0  0  0
   22.5241   -5.6034  -16.7616 C   0  0  0  0  0  0  0  0  0  0  0  0
   23.4106   -4.6751  -16.8943 O   0  0  0  0  0  0  0  0  0  0  0  0
   16.3264   -2.1951  -17.7566 C   0  0  0  0  0  0  0  0  0  0  0  0
   17.8114   -1.8683  -18.6666 S   0  0  0  0  0  0  0  0  0  0  0  0
   19.3513   -2.1712  -17.8287 C   0  0  0  0  0  0  0  0  0  0  0  0
   19.5543   -3.5327  -17.2821 C   0  0  0  0  0  0  0  0  0  0  0  0
   20.8558   -3.7500  -16.5357 C   0  0  2  0  0  0  0  0  0  0  0  0
   21.2064   -5.1803  -16.5822 N   0  0  0  0  0  0  0  0  0  0  0  0
   20.7107   -3.3821  -15.1167 C   0  0  0  0  0  0  0  0  0  0  0  0
   21.0340   -2.1336  -14.5882 O   0  0  0  0  0  0  0  0  0  0  0  0
   20.2628   -4.2171  -14.2605 O   0  0  0  0  0  0  0  0  0  0  0  0
  1  2  1  0
  3  2  1  0
  4  3  1  0
  5  4  1  0
  5  6  1  6
  7  5  1  0
  8  7  2  0
  9  7  1  0
 10  9  1  0
 10 11  1  1
 11 12  1  0
 12 17  2  0
 13 12  1  0
 13 14  2  0
 14 15  1  0
 15 16  2  0
 17 16  1  0
 18 19  2  0
 18 10  1  0
 20 21  1  0
 22 21  1  0
 24 23  1  6
 23 22  1  0
 24 25  1  0
 25 18  1  0
 26 24  1  0
 27 26  1  0
 28 26  2  0
M  END
$$$$
