MFM.pdb
     RDKit          3D

 28 28  0  0  1  0  0  0  0  0999 V2000
   27.8490  -12.1740  -15.5759 C   0  0  0  0  0  0  0  0  0  0  0  0
   27.1493  -13.7998  -15.7024 S   0  0  0  0  0  0  0  0  0  0  0  0
   25.8978  -14.0692  -16.9265 C   0  0  0  0  0  0  0  0  0  0  0  0
   24.9638  -12.9691  -17.1745 C   0  0  0  0  0  0  0  0  0  0  0  0
   23.9034  -13.0515  -18.1838 C   0  0  2  0  0  0  0  0  0  0  0  0
   24.2069  -13.4976  -19.4809 N   0  0  0  0  0  0  0  0  0  0  0  0
   23.1721  -11.7337  -18.2894 C   0  0  0  0  0  0  0  0  0  0  0  0
   23.5698  -10.8973  -19.1256 O   0  0  0  0  0  0  0  0  0  0  0  0
   22.0749  -11.4209  -17.4897 N   0  0  0  0  0  0  0  0  0  0  0  0
   21.2763  -10.1644  -17.6652 C   0  0  1  0  0  0  0  0  0  0  0  0
   19.9009  -10.6457  -17.8941 C   0  0  0  0  0  0  0  0  0  0  0  0
   19.3234  -11.3906  -16.7953 C   0  0  0  0  0  0  0  0  0  0  0  0
   19.3915  -12.7411  -16.6366 C   0  0  0  0  0  0  0  0  0  0  0  0
   18.7953  -13.3482  -15.5560 C   0  0  0  0  0  0  0  0  0  0  0  0
   18.1148  -12.6449  -14.5994 C   0  0  0  0  0  0  0  0  0  0  0  0
   18.0309  -11.2826  -14.7342 C   0  0  0  0  0  0  0  0  0  0  0  0
   18.6258  -10.6689  -15.8145 C   0  0  0  0  0  0  0  0  0  0  0  0
   21.5784   -9.2556  -16.5979 C   0  0  0  0  0  0  0  0  0  0  0  0
   22.1811   -9.7295  -15.5600 O   0  0  0  0  0  0  0  0  0  0  0  0
   23.7131   -2.5394  -16.4504 C   0  0  0  0  0  0  0  0  0  0  0  0
   22.3247   -2.9193  -15.4168 S   0  0  0  0  0  0  0  0  0  0  0  0
   22.1572   -4.6083  -14.8836 C   0  0  0  0  0  0  0  0  0  0  0  0
   21.8315   -5.6063  -15.9284 C   0  0  0  0  0  0  0  0  0  0  0  0
   21.6880   -7.0358  -15.4446 C   0  0  2  0  0  0  0  0  0  0  0  0
   21.2879   -7.8908  -16.5759 N   0  0  0  0  0  0  0  0  0  0  0  0
   20.6294   -7.1374  -14.4251 C   0  0  0  0  0  0  0  0  0  0  0  0
   20.8437   -7.0312  -13.0520 O   0  0  0  0  0  0  0  0  0  0  0  0
   19.4116   -7.3342  -14.7551 O   0  0  0  0  0  0  0  0  0  0  0  0
  1  2  1  0
  3  2  1  0
  4  3  1  0
  5  4  1  0
  5  6  1  6
  7  5  1  0
  8  7  2  0
  9  7  1  0
 10  9  1  0
 10 11  1  1
 11 12  1  0
 12 17  2  0
 13 12  1  0
 13 14  2  0
 14 15  1  0
 15 16  2  0
 17 16  1  0
 18 19  2  0
 18 10  1  0
 20 21  1  0
 22 21  1  0
 24 23  1  6
 23 22  1  0
 24 25  1  0
 25 18  1  0
 26 24  1  0
 27 26  1  0
 28 26  2  0
M  END
$$$$
