MFM.pdb
     RDKit          3D

 28 28  0  0  1  0  0  0  0  0999 V2000
   21.2162   -8.6441  -22.9200 C   0  0  0  0  0  0  0  0  0  0  0  0
   20.3068  -10.0332  -22.2939 S   0  0  0  0  0  0  0  0  0  0  0  0
   20.7752  -10.6852  -20.7151 C   0  0  0  0  0  0  0  0  0  0  0  0
   20.6560   -9.7879  -19.5642 C   0  0  0  0  0  0  0  0  0  0  0  0
   21.1642  -10.1429  -18.2354 C   0  0  2  0  0  0  0  0  0  0  0  0
   20.8119  -11.3748  -17.6591 N   0  0  0  0  0  0  0  0  0  0  0  0
   20.8589   -9.0452  -17.2432 C   0  0  0  0  0  0  0  0  0  0  0  0
   19.7682   -9.0760  -16.6379 O   0  0  0  0  0  0  0  0  0  0  0  0
   21.7479   -8.0048  -16.9818 N   0  0  0  0  0  0  0  0  0  0  0  0
   21.4456   -6.9064  -16.0074 C   0  0  1  0  0  0  0  0  0  0  0  0
   22.5739   -6.9520  -15.0582 C   0  0  0  0  0  0  0  0  0  0  0  0
   22.5173   -8.0294  -14.0931 C   0  0  0  0  0  0  0  0  0  0  0  0
   23.1572   -9.2256  -14.2087 C   0  0  0  0  0  0  0  0  0  0  0  0
   23.0244  -10.1858  -13.2329 C   0  0  0  0  0  0  0  0  0  0  0  0
   22.2587   -9.9977  -12.1144 C   0  0  0  0  0  0  0  0  0  0  0  0
   21.6031   -8.8014  -11.9720 C   0  0  0  0  0  0  0  0  0  0  0  0
   21.7320   -7.8359  -12.9461 C   0  0  0  0  0  0  0  0  0  0  0  0
   21.1262   -5.7072  -16.7260 C   0  0  0  0  0  0  0  0  0  0  0  0
   21.4687   -5.6442  -17.9685 O   0  0  0  0  0  0  0  0  0  0  0  0
   17.1969   -2.2339  -21.6506 C   0  0  0  0  0  0  0  0  0  0  0  0
   17.7548   -3.4705  -20.5106 S   0  0  0  0  0  0  0  0  0  0  0  0
   18.7253   -2.9110  -19.1285 C   0  0  0  0  0  0  0  0  0  0  0  0
   19.2853   -3.9573  -18.2423 C   0  0  0  0  0  0  0  0  0  0  0  0
   20.0928   -3.4516  -17.0632 C   0  0  2  0  0  0  0  0  0  0  0  0
   20.4658   -4.5922  -16.2083 N   0  0  0  0  0  0  0  0  0  0  0  0
   19.2909   -2.5317  -16.2382 C   0  0  0  0  0  0  0  0  0  0  0  0
   18.6966   -2.8744  -15.0249 O   0  0  0  0  0  0  0  0  0  0  0  0
   19.0892   -1.3242  -16.6015 O   0  0  0  0  0  0  0  0  0  0  0  0
  1  2  1  0
  3  2  1  0
  4  3  1  0
  5  4  1  0
  5  6  1  1
  7  5  1  0
  8  7  2  0
  9  7  1  0
 10  9  1  0
 10 11  1  1
 11 12  1  0
 12 17  2  0
 13 12  1  0
 13 14  2  0
 14 15  1  0
 15 16  2  0
 17 16  1  0
 18 19  2  0
 18 10  1  0
 20 21  1  0
 22 21  1  0
 24 23  1  6
 23 22  1  0
 24 25  1  0
 25 18  1  0
 26 24  1  0
 27 26  1  0
 28 26  2  0
M  END
$$$$
