GSI.pdb
     RDKit          3D

 19 18  0  0  1  0  0  0  0  0999 V2000
   15.1804  -13.5542  -15.5444 N   0  0  0  0  0  0  0  0  0  0  0  0
   15.0393  -12.3395  -14.8009 C   0  0  0  0  0  0  0  0  0  0  0  0
   15.8983  -11.2446  -15.3621 C   0  0  0  0  0  0  0  0  0  0  0  0
   16.7969  -11.5602  -16.1659 O   0  0  0  0  0  0  0  0  0  0  0  0
   15.5810   -7.4689  -13.8602 O   0  0  0  0  0  0  0  0  0  0  0  0
   15.7604   -7.5180  -15.2398 C   0  0  0  0  0  0  0  0  0  0  0  0
   16.4806   -8.8010  -15.5538 C   0  0  2  0  0  0  0  0  0  0  0  0
   15.7070   -9.8904  -15.0001 N   0  0  0  0  0  0  0  0  0  0  0  0
   17.8561   -8.8196  -14.9653 C   0  0  0  0  0  0  0  0  0  0  0  0
   18.0040   -9.0652  -13.7401 O   0  0  0  0  0  0  0  0  0  0  0  0
   21.7480   -9.8778  -18.2860 C   0  0  0  0  0  0  0  0  0  0  0  0
   21.4223  -10.0259  -16.8196 C   0  0  0  0  0  0  0  0  0  0  0  0
   21.4589   -8.7671  -16.0405 C   0  0  2  0  0  0  0  0  0  0  0  0
   22.7081   -8.8113  -15.1631 C   0  0  0  0  0  0  0  0  0  0  0  0
   20.3019   -8.5014  -15.1373 C   0  0  2  0  0  0  0  0  0  0  0  0
   19.0131   -8.5665  -15.7528 N   0  0  0  0  0  0  0  0  0  0  0  0
   20.4514   -7.1651  -14.5276 C   0  0  0  0  0  0  0  0  0  0  0  0
   21.1246   -7.0326  -13.4849 O   0  0  0  0  0  0  0  0  0  0  0  0
   19.8563   -6.0612  -15.0974 O   0  0  0  0  0  0  0  0  0  0  0  0
  2  1  1  0
  3  4  2  0
  3  2  1  0
  6  5  1  0
  7  8  1  0
  7  6  1  1
  8  3  1  0
  9  7  1  0
 10  9  2  0
 11 12  1  0
 12 13  1  0
 13 14  1  1
 15 16  1  6
 15 13  1  0
 16  9  1  0
 17 15  1  0
 18 17  2  0
 19 17  1  0
M  END
$$$$
