GSI.pdb
     RDKit          3D

 19 18  0  0  1  0  0  0  0  0999 V2000
   14.6554  -12.5652  -13.9302 N   0  0  0  0  0  0  0  0  0  0  0  0
   14.9628  -11.1867  -14.1618 C   0  0  0  0  0  0  0  0  0  0  0  0
   15.6768  -10.5752  -12.9922 C   0  0  0  0  0  0  0  0  0  0  0  0
   15.4933  -11.0783  -11.8669 O   0  0  0  0  0  0  0  0  0  0  0  0
   19.1627   -7.6415  -11.5057 O   0  0  0  0  0  0  0  0  0  0  0  0
   18.4877   -8.2129  -12.5808 C   0  0  0  0  0  0  0  0  0  0  0  0
   17.2261   -8.8305  -12.0421 C   0  0  2  0  0  0  0  0  0  0  0  0
   16.5355   -9.4613  -13.1453 N   0  0  0  0  0  0  0  0  0  0  0  0
   16.3327   -7.8052  -11.4183 C   0  0  0  0  0  0  0  0  0  0  0  0
   15.6533   -7.0434  -12.1541 O   0  0  0  0  0  0  0  0  0  0  0  0
   12.5705   -8.6189   -7.5901 C   0  0  0  0  0  0  0  0  0  0  0  0
   13.4122   -8.1129   -8.7364 C   0  0  0  0  0  0  0  0  0  0  0  0
   14.4603   -7.1370   -8.3597 C   0  0  2  0  0  0  0  0  0  0  0  0
   13.7539   -5.9030   -7.8026 C   0  0  0  0  0  0  0  0  0  0  0  0
   15.3639   -6.6664   -9.4492 C   0  0  2  0  0  0  0  0  0  0  0  0
   16.2251   -7.6619  -10.0073 N   0  0  0  0  0  0  0  0  0  0  0  0
   16.2054   -5.5621   -8.9470 C   0  0  0  0  0  0  0  0  0  0  0  0
   17.3019   -5.8160   -8.4074 O   0  0  0  0  0  0  0  0  0  0  0  0
   15.7941   -4.2531   -9.0678 O   0  0  0  0  0  0  0  0  0  0  0  0
  2  1  1  0
  3  4  2  0
  3  2  1  0
  6  5  1  0
  7  8  1  0
  7  6  1  6
  8  3  1  0
  9  7  1  0
 10  9  2  0
 11 12  1  0
 12 13  1  0
 13 14  1  6
 15 16  1  1
 15 13  1  0
 16  9  1  0
 17 15  1  0
 18 17  2  0
 19 17  1  0
M  END
$$$$
