GSI.pdb
     RDKit          3D

 19 18  0  0  1  0  0  0  0  0999 V2000
   13.0482  -11.4819  -10.8496 N   0  0  0  0  0  0  0  0  0  0  0  0
   14.1467  -10.5649  -10.8194 C   0  0  0  0  0  0  0  0  0  0  0  0
   14.9059  -10.5684  -12.1137 C   0  0  0  0  0  0  0  0  0  0  0  0
   14.4795  -11.2852  -13.0398 O   0  0  0  0  0  0  0  0  0  0  0  0
   15.7206   -7.6591  -13.9867 O   0  0  0  0  0  0  0  0  0  0  0  0
   15.9113   -8.9332  -14.5143 C   0  0  0  0  0  0  0  0  0  0  0  0
   16.7811   -9.6931  -13.5504 C   0  0  2  0  0  0  0  0  0  0  0  0
   16.0719   -9.7877  -12.2934 N   0  0  0  0  0  0  0  0  0  0  0  0
   18.0918   -9.0058  -13.3303 C   0  0  0  0  0  0  0  0  0  0  0  0
   18.2464   -8.2727  -12.3193 O   0  0  0  0  0  0  0  0  0  0  0  0
   23.1684  -11.1774  -14.4625 C   0  0  0  0  0  0  0  0  0  0  0  0
   21.9363  -10.5024  -13.9104 C   0  0  0  0  0  0  0  0  0  0  0  0
   21.6363   -9.1746  -14.4934 C   0  0  2  0  0  0  0  0  0  0  0  0
   22.8241   -8.2647  -14.1880 C   0  0  0  0  0  0  0  0  0  0  0  0
   20.4155   -8.4800  -13.9910 C   0  0  2  0  0  0  0  0  0  0  0  0
   19.1791   -9.1552  -14.2350 N   0  0  0  0  0  0  0  0  0  0  0  0
   20.3308   -7.1361  -14.5965 C   0  0  0  0  0  0  0  0  0  0  0  0
   21.0441   -6.2122  -14.1541 O   0  0  0  0  0  0  0  0  0  0  0  0
   19.4730   -6.8899  -15.6458 O   0  0  0  0  0  0  0  0  0  0  0  0
  2  1  1  0
  3  4  2  0
  3  2  1  0
  6  5  1  0
  7  8  1  0
  7  6  1  6
  8  3  1  0
  9  7  1  0
 10  9  2  0
 11 12  1  0
 12 13  1  0
 13 14  1  1
 15 16  1  6
 15 13  1  0
 16  9  1  0
 17 15  1  0
 18 17  2  0
 19 17  1  0
M  END
$$$$
