GSI.pdb
     RDKit          3D

 19 18  0  0  1  0  0  0  0  0999 V2000
   15.4865  -11.9462  -16.8308 N   0  0  0  0  0  0  0  0  0  0  0  0
   16.3970  -10.8934  -17.1640 C   0  0  0  0  0  0  0  0  0  0  0  0
   16.2025   -9.6945  -16.2828 C   0  0  0  0  0  0  0  0  0  0  0  0
   15.1503   -9.0390  -16.4111 O   0  0  0  0  0  0  0  0  0  0  0  0
   17.5749   -8.8784  -12.4119 O   0  0  0  0  0  0  0  0  0  0  0  0
   18.1263   -8.1596  -13.4688 C   0  0  0  0  0  0  0  0  0  0  0  0
   17.0874   -8.0892  -14.5546 C   0  0  2  0  0  0  0  0  0  0  0  0
   17.1742   -9.3066  -15.3306 N   0  0  0  0  0  0  0  0  0  0  0  0
   17.3060   -6.9119  -15.4518 C   0  0  0  0  0  0  0  0  0  0  0  0
   18.1681   -6.9795  -16.3659 O   0  0  0  0  0  0  0  0  0  0  0  0
   13.2031   -3.8654  -16.3447 C   0  0  0  0  0  0  0  0  0  0  0  0
   14.5222   -4.0320  -17.0593 C   0  0  0  0  0  0  0  0  0  0  0  0
   15.7109   -3.6066  -16.2855 C   0  0  2  0  0  0  0  0  0  0  0  0
   16.2858   -2.3722  -16.9767 C   0  0  0  0  0  0  0  0  0  0  0  0
   16.8223   -4.5940  -16.1630 C   0  0  2  0  0  0  0  0  0  0  0  0
   16.5643   -5.7073  -15.3039 N   0  0  0  0  0  0  0  0  0  0  0  0
   18.0357   -3.9096  -15.6741 C   0  0  0  0  0  0  0  0  0  0  0  0
   18.7604   -3.2864  -16.4769 O   0  0  0  0  0  0  0  0  0  0  0  0
   18.3774   -3.9504  -14.3403 O   0  0  0  0  0  0  0  0  0  0  0  0
  2  1  1  0
  3  4  2  0
  3  2  1  0
  6  5  1  0
  7  8  1  0
  7  6  1  1
  8  3  1  0
  9  7  1  0
 10  9  2  0
 11 12  1  0
 12 13  1  0
 13 14  1  6
 15 16  1  1
 15 13  1  0
 16  9  1  0
 17 15  1  0
 18 17  2  0
 19 17  1  0
M  END
$$$$
