GSI.pdb
     RDKit          3D

 19 18  0  0  1  0  0  0  0  0999 V2000
   17.5363  -15.4739  -16.7164 N   0  0  0  0  0  0  0  0  0  0  0  0
   17.0722  -14.3375  -15.9806 C   0  0  0  0  0  0  0  0  0  0  0  0
   17.8048  -13.0879  -16.3725 C   0  0  0  0  0  0  0  0  0  0  0  0
   19.0255  -13.1753  -16.6081 O   0  0  0  0  0  0  0  0  0  0  0  0
   15.8472   -9.4786  -16.3289 O   0  0  0  0  0  0  0  0  0  0  0  0
   16.7504   -9.6658  -17.3715 C   0  0  0  0  0  0  0  0  0  0  0  0
   17.8058  -10.6214  -16.8854 C   0  0  2  0  0  0  0  0  0  0  0  0
   17.1448  -11.8409  -16.4759 N   0  0  0  0  0  0  0  0  0  0  0  0
   18.5694  -10.0581  -15.7286 C   0  0  0  0  0  0  0  0  0  0  0  0
   18.1663  -10.2712  -14.5558 O   0  0  0  0  0  0  0  0  0  0  0  0
   23.8699  -10.6141  -14.8295 C   0  0  0  0  0  0  0  0  0  0  0  0
   22.3739  -10.4165  -14.8699 C   0  0  0  0  0  0  0  0  0  0  0  0
   21.9264   -9.0077  -14.7814 C   0  0  2  0  0  0  0  0  0  0  0  0
   22.4704   -8.4390  -13.4726 C   0  0  0  0  0  0  0  0  0  0  0  0
   20.4540   -8.7686  -14.7811 C   0  0  2  0  0  0  0  0  0  0  0  0
   19.7471   -9.2821  -15.9127 N   0  0  0  0  0  0  0  0  0  0  0  0
   20.1920   -7.3181  -14.6969 C   0  0  0  0  0  0  0  0  0  0  0  0
   19.9422   -6.6732  -15.7360 O   0  0  0  0  0  0  0  0  0  0  0  0
   20.2192   -6.6675  -13.4831 O   0  0  0  0  0  0  0  0  0  0  0  0
  2  1  1  0
  3  4  2  0
  3  2  1  0
  6  5  1  0
  7  8  1  0
  7  6  1  1
  8  3  1  0
  9  7  1  0
 10  9  2  0
 11 12  1  0
 12 13  1  0
 13 14  1  1
 15 16  1  6
 15 13  1  0
 16  9  1  0
 17 15  1  0
 18 17  2  0
 19 17  1  0
M  END
$$$$
