GSI.pdb
     RDKit          3D

 19 18  0  0  1  0  0  0  0  0999 V2000
   13.6549   -8.8781   -8.0713 N   0  0  0  0  0  0  0  0  0  0  0  0
   14.8722   -8.1331   -7.9641 C   0  0  0  0  0  0  0  0  0  0  0  0
   15.3761   -7.7002   -9.3096 C   0  0  0  0  0  0  0  0  0  0  0  0
   14.8762   -8.2316  -10.3199 O   0  0  0  0  0  0  0  0  0  0  0  0
   17.0256   -4.1384   -9.7012 O   0  0  0  0  0  0  0  0  0  0  0  0
   16.4962   -4.7750  -10.8204 C   0  0  0  0  0  0  0  0  0  0  0  0
   16.8582   -6.2318  -10.7217 C   0  0  2  0  0  0  0  0  0  0  0  0
   16.3872   -6.7200   -9.4443 N   0  0  0  0  0  0  0  0  0  0  0  0
   18.3366   -6.4407  -10.8186 C   0  0  0  0  0  0  0  0  0  0  0  0
   19.0110   -6.6014   -9.7685 O   0  0  0  0  0  0  0  0  0  0  0  0
   22.8336   -9.3273  -12.3307 C   0  0  0  0  0  0  0  0  0  0  0  0
   22.3118   -8.1016  -13.0406 C   0  0  0  0  0  0  0  0  0  0  0  0
   20.8536   -7.8782  -12.9130 C   0  0  2  0  0  0  0  0  0  0  0  0
   20.2950   -7.7030  -14.3234 C   0  0  0  0  0  0  0  0  0  0  0  0
   20.4221   -6.6886  -12.1231 C   0  0  2  0  0  0  0  0  0  0  0  0
   19.0111   -6.4638  -12.0705 N   0  0  0  0  0  0  0  0  0  0  0  0
   21.0589   -5.4759  -12.6739 C   0  0  0  0  0  0  0  0  0  0  0  0
   22.2811   -5.2873  -12.5038 O   0  0  0  0  0  0  0  0  0  0  0  0
   20.3192   -4.5492  -13.3749 O   0  0  0  0  0  0  0  0  0  0  0  0
  2  1  1  0
  3  4  2  0
  3  2  1  0
  6  5  1  0
  7  8  1  0
  7  6  1  1
  8  3  1  0
  9  7  1  0
 10  9  2  0
 11 12  1  0
 12 13  1  0
 13 14  1  6
 15 16  1  6
 15 13  1  0
 16  9  1  0
 17 15  1  0
 18 17  2  0
 19 17  1  0
M  END
$$$$
