GSI.pdb
     RDKit          3D

 19 18  0  0  1  0  0  0  0  0999 V2000
   14.8098  -13.2135  -15.6425 N   0  0  0  0  0  0  0  0  0  0  0  0
   14.9303  -11.8280  -15.3045 C   0  0  0  0  0  0  0  0  0  0  0  0
   16.1712  -11.2214  -15.8909 C   0  0  0  0  0  0  0  0  0  0  0  0
   17.1888  -11.9362  -15.9732 O   0  0  0  0  0  0  0  0  0  0  0  0
   16.1595   -7.2685  -16.7814 O   0  0  0  0  0  0  0  0  0  0  0  0
   16.9353   -8.0283  -17.6524 C   0  0  0  0  0  0  0  0  0  0  0  0
   17.3783   -9.2563  -16.9046 C   0  0  2  0  0  0  0  0  0  0  0  0
   16.2017   -9.8807  -16.3413 N   0  0  0  0  0  0  0  0  0  0  0  0
   18.3351   -8.9174  -15.8053 C   0  0  0  0  0  0  0  0  0  0  0  0
   17.8979   -8.7102  -14.6437 O   0  0  0  0  0  0  0  0  0  0  0  0
   23.2067  -11.3742  -15.0129 C   0  0  0  0  0  0  0  0  0  0  0  0
   21.8640  -10.6845  -15.0022 C   0  0  0  0  0  0  0  0  0  0  0  0
   21.9208   -9.2060  -14.9447 C   0  0  2  0  0  0  0  0  0  0  0  0
   22.6266   -8.8280  -13.6443 C   0  0  0  0  0  0  0  0  0  0  0  0
   20.6166   -8.4819  -14.9584 C   0  0  2  0  0  0  0  0  0  0  0  0
   19.7358   -8.8210  -16.0322 N   0  0  0  0  0  0  0  0  0  0  0  0
   20.8630   -7.0271  -15.0099 C   0  0  0  0  0  0  0  0  0  0  0  0
   20.6503   -6.4007  -16.0685 O   0  0  0  0  0  0  0  0  0  0  0  0
   21.3247   -6.3520  -13.9016 O   0  0  0  0  0  0  0  0  0  0  0  0
  2  1  1  0
  3  4  2  0
  3  2  1  0
  6  5  1  0
  7  8  1  0
  7  6  1  1
  8  3  1  0
  9  7  1  0
 10  9  2  0
 11 12  1  0
 12 13  1  0
 13 14  1  1
 15 16  1  6
 15 13  1  0
 16  9  1  0
 17 15  1  0
 18 17  2  0
 19 17  1  0
M  END
$$$$
