GSI.pdb
     RDKit          3D

 19 18  0  0  1  0  0  0  0  0999 V2000
   25.9052  -19.7370  -15.7090 N   0  0  0  0  0  0  0  0  0  0  0  0
   26.6153  -20.4228  -14.6727 C   0  0  0  0  0  0  0  0  0  0  0  0
   26.2860  -19.8698  -13.3172 C   0  0  0  0  0  0  0  0  0  0  0  0
   26.8118  -18.7906  -12.9824 O   0  0  0  0  0  0  0  0  0  0  0  0
   23.2896  -21.6094  -11.2365 O   0  0  0  0  0  0  0  0  0  0  0  0
   23.4872  -20.2440  -11.0510 C   0  0  0  0  0  0  0  0  0  0  0  0
   24.9635  -19.9826  -11.1759 C   0  0  2  0  0  0  0  0  0  0  0  0
   25.4074  -20.5406  -12.4343 N   0  0  0  0  0  0  0  0  0  0  0  0
   25.7315  -20.6106  -10.0559 C   0  0  0  0  0  0  0  0  0  0  0  0
   26.1654  -21.7850  -10.1825 O   0  0  0  0  0  0  0  0  0  0  0  0
   29.0805  -19.4478   -4.9493 C   0  0  0  0  0  0  0  0  0  0  0  0
   28.2243  -20.3661   -5.7872 C   0  0  0  0  0  0  0  0  0  0  0  0
   27.5413  -19.7158   -6.9289 C   0  0  2  0  0  0  0  0  0  0  0  0
   26.6681  -18.5993   -6.3606 C   0  0  0  0  0  0  0  0  0  0  0  0
   26.6557  -20.5791   -7.7630 C   0  0  2  0  0  0  0  0  0  0  0  0
   25.9899  -19.9172   -8.8413 N   0  0  0  0  0  0  0  0  0  0  0  0
   25.6293  -21.2039   -6.9053 C   0  0  0  0  0  0  0  0  0  0  0  0
   25.9709  -22.0269   -6.0311 O   0  0  0  0  0  0  0  0  0  0  0  0
   24.2973  -20.8881   -7.0582 O   0  0  0  0  0  0  0  0  0  0  0  0
  2  1  1  0
  3  4  2  0
  3  2  1  0
  6  5  1  0
  7  8  1  0
  7  6  1  1
  8  3  1  0
  9  7  1  0
 10  9  2  0
 11 12  1  0
 12 13  1  0
 13 14  1  1
 15 16  1  6
 15 13  1  0
 16  9  1  0
 17 15  1  0
 18 17  2  0
 19 17  1  0
M  END
$$$$
