GSI.pdb
     RDKit          3D

 19 18  0  0  1  0  0  0  0  0999 V2000
   24.5779  -13.2596  -20.2757 N   0  0  0  0  0  0  0  0  0  0  0  0
   24.3501  -11.8542  -20.1297 C   0  0  0  0  0  0  0  0  0  0  0  0
   23.8016  -11.5207  -18.7734 C   0  0  0  0  0  0  0  0  0  0  0  0
   22.6023  -11.7747  -18.5491 O   0  0  0  0  0  0  0  0  0  0  0  0
   25.9217  -11.5366  -15.2520 O   0  0  0  0  0  0  0  0  0  0  0  0
   25.3213  -10.3235  -15.5770 C   0  0  0  0  0  0  0  0  0  0  0  0
   24.1274  -10.6300  -16.4395 C   0  0  2  0  0  0  0  0  0  0  0  0
   24.6079  -10.9357  -17.7690 N   0  0  0  0  0  0  0  0  0  0  0  0
   23.1836   -9.4710  -16.5071 C   0  0  0  0  0  0  0  0  0  0  0  0
   23.4673   -8.4805  -17.2295 O   0  0  0  0  0  0  0  0  0  0  0  0
   18.2629  -10.8104  -16.3118 C   0  0  0  0  0  0  0  0  0  0  0  0
   19.0602   -9.6478  -16.8514 C   0  0  0  0  0  0  0  0  0  0  0  0
   19.6020   -8.7301  -15.8233 C   0  0  2  0  0  0  0  0  0  0  0  0
   18.8088   -7.4282  -15.9122 C   0  0  0  0  0  0  0  0  0  0  0  0
   21.0449   -8.3692  -15.9373 C   0  0  2  0  0  0  0  0  0  0  0  0
   21.9646   -9.4517  -15.7746 N   0  0  0  0  0  0  0  0  0  0  0  0
   21.3731   -7.3349  -14.9361 C   0  0  0  0  0  0  0  0  0  0  0  0
   21.7991   -7.6742  -13.8129 O   0  0  0  0  0  0  0  0  0  0  0  0
   21.2153   -5.9980  -15.2280 O   0  0  0  0  0  0  0  0  0  0  0  0
  2  1  1  0
  3  4  2  0
  3  2  1  0
  6  5  1  0
  7  8  1  0
  7  6  1  1
  8  3  1  0
  9  7  1  0
 10  9  2  0
 11 12  1  0
 12 13  1  0
 13 14  1  6
 15 16  1  1
 15 13  1  0
 16  9  1  0
 17 15  1  0
 18 17  2  0
 19 17  1  0
M  END
$$$$
