GSI.pdb
     RDKit          3D

 19 18  0  0  1  0  0  0  0  0999 V2000
   15.9911  -12.7925  -15.6931 N   0  0  0  0  0  0  0  0  0  0  0  0
   16.4119  -11.8086  -14.7428 C   0  0  0  0  0  0  0  0  0  0  0  0
   17.2913  -10.7698  -15.3748 C   0  0  0  0  0  0  0  0  0  0  0  0
   18.5235  -10.9556  -15.3539 O   0  0  0  0  0  0  0  0  0  0  0  0
   16.0978   -8.3941  -18.4226 O   0  0  0  0  0  0  0  0  0  0  0  0
   16.6429   -7.6712  -17.3652 C   0  0  0  0  0  0  0  0  0  0  0  0
   17.5647   -8.5954  -16.6172 C   0  0  2  0  0  0  0  0  0  0  0  0
   16.7540   -9.6095  -15.9799 N   0  0  0  0  0  0  0  0  0  0  0  0
   18.3537   -7.8645  -15.5770 C   0  0  0  0  0  0  0  0  0  0  0  0
   17.8327   -7.6250  -14.4570 O   0  0  0  0  0  0  0  0  0  0  0  0
   23.1260   -9.4743  -14.2122 C   0  0  0  0  0  0  0  0  0  0  0  0
   21.8076   -8.7661  -14.0154 C   0  0  0  0  0  0  0  0  0  0  0  0
   21.7728   -7.3650  -14.4933 C   0  0  2  0  0  0  0  0  0  0  0  0
   22.4136   -6.4990  -13.4109 C   0  0  0  0  0  0  0  0  0  0  0  0
   20.4282   -6.7841  -14.7759 C   0  0  2  0  0  0  0  0  0  0  0  0
   19.6861   -7.4274  -15.8149 N   0  0  0  0  0  0  0  0  0  0  0  0
   20.5739   -5.3587  -15.1321 C   0  0  0  0  0  0  0  0  0  0  0  0
   20.6150   -5.0223  -16.3335 O   0  0  0  0  0  0  0  0  0  0  0  0
   20.6643   -4.3944  -14.1527 O   0  0  0  0  0  0  0  0  0  0  0  0
  2  1  1  0
  3  4  2  0
  3  2  1  0
  6  5  1  0
  7  8  1  0
  7  6  1  1
  8  3  1  0
  9  7  1  0
 10  9  2  0
 11 12  1  0
 12 13  1  0
 13 14  1  1
 15 16  1  6
 15 13  1  0
 16  9  1  0
 17 15  1  0
 18 17  2  0
 19 17  1  0
M  END
$$$$
