GSI.pdb
     RDKit          3D

 19 18  0  0  1  0  0  0  0  0999 V2000
   33.1253  -34.4748   -6.4574 N   0  0  0  0  0  0  0  0  0  0  0  0
   32.8391  -34.7229   -5.0772 C   0  0  0  0  0  0  0  0  0  0  0  0
   31.4141  -35.1478   -4.8756 C   0  0  0  0  0  0  0  0  0  0  0  0
   30.5939  -34.8904   -5.7779 O   0  0  0  0  0  0  0  0  0  0  0  0
   30.3257  -36.9067   -1.3413 O   0  0  0  0  0  0  0  0  0  0  0  0
   29.6841  -37.3899   -2.4782 C   0  0  0  0  0  0  0  0  0  0  0  0
   29.6411  -36.2688   -3.4805 C   0  0  2  0  0  0  0  0  0  0  0  0
   30.9982  -35.8209   -3.7029 N   0  0  0  0  0  0  0  0  0  0  0  0
   28.8139  -35.1223   -2.9906 C   0  0  0  0  0  0  0  0  0  0  0  0
   29.3640  -34.1879   -2.3522 O   0  0  0  0  0  0  0  0  0  0  0  0
   24.3403  -33.1809   -5.7875 C   0  0  0  0  0  0  0  0  0  0  0  0
   25.6115  -33.4530   -5.0203 C   0  0  0  0  0  0  0  0  0  0  0  0
   25.4389  -33.6048   -3.5575 C   0  0  2  0  0  0  0  0  0  0  0  0
   24.8984  -32.2801   -3.0233 C   0  0  0  0  0  0  0  0  0  0  0  0
   26.6614  -33.9269   -2.7658 C   0  0  2  0  0  0  0  0  0  0  0  0
   27.4127  -35.0533   -3.2251 N   0  0  0  0  0  0  0  0  0  0  0  0
   26.2859  -34.1696   -1.3588 C   0  0  0  0  0  0  0  0  0  0  0  0
   26.1970  -35.3405   -0.9354 O   0  0  0  0  0  0  0  0  0  0  0  0
   26.0328  -33.1175   -0.5066 O   0  0  0  0  0  0  0  0  0  0  0  0
  2  1  1  0
  3  4  2  0
  3  2  1  0
  6  5  1  0
  7  8  1  0
  7  6  1  1
  8  3  1  0
  9  7  1  0
 10  9  2  0
 11 12  1  0
 12 13  1  0
 13 14  1  1
 15 16  1  6
 15 13  1  0
 16  9  1  0
 17 15  1  0
 18 17  2  0
 19 17  1  0
M  END
$$$$
