NEL.pdb
     RDKit          3D

 26 25  0  0  1  0  0  0  0  0999 V2000
    7.5903  -12.0843   17.9508 N   0  0  0  0  0  0  0  0  0  0  0  0
    7.8523  -13.4823   17.9720 C   0  0  0  0  0  0  0  0  0  0  0  0
    8.3094  -13.9847   16.8887 O   0  0  0  0  0  0  0  0  0  0  0  0
    7.6076  -14.3039   19.1823 C   0  0  0  0  0  0  0  0  0  0  0  0
    8.7061  -14.0126   20.1799 C   0  0  2  0  0  0  0  0  0  0  0  0
   10.0067  -14.0733   19.5423 N   0  0  0  0  0  0  0  0  0  0  0  0
    8.6592  -14.9363   21.3413 C   0  0  0  0  0  0  0  0  0  0  0  0
    7.5396  -15.0572   21.9285 O   0  0  0  0  0  0  0  0  0  0  0  0
    9.7853  -15.6673   21.8058 N   0  0  0  0  0  0  0  0  0  0  0  0
    9.6891  -16.6254   22.9319 C   0  0  1  0  0  0  0  0  0  0  0  0
   10.8119  -17.5755   22.7240 C   0  0  0  0  0  0  0  0  0  0  0  0
   10.6431  -18.6104   21.6731 C   0  0  0  0  0  0  0  0  0  0  0  0
   11.9229  -19.4181   21.6493 C   0  0  0  0  0  0  0  0  0  0  0  0
   12.2749  -19.9771   22.7309 O   0  0  0  0  0  0  0  0  0  0  0  0
    9.6853  -15.8625   24.1779 C   0  0  0  0  0  0  0  0  0  0  0  0
   10.6503  -15.0500   24.4165 O   0  0  0  0  0  0  0  0  0  0  0  0
   12.7013  -19.5679   20.5317 O   0  0  0  0  0  0  0  0  0  0  0  0
    8.1760  -12.1715   25.8768 C   0  0  0  0  0  0  0  0  0  0  0  0
    7.1592  -13.3037   25.8269 C   0  0  2  0  0  0  0  0  0  0  0  0
    5.7568  -12.8358   25.7809 C   0  0  0  0  0  0  0  0  0  0  0  0
    7.4919  -14.4492   26.6976 C   0  0  0  0  0  0  0  0  0  0  0  0
    8.7784  -15.1383   26.4398 C   0  0  2  0  0  0  0  0  0  0  0  0
    8.7113  -15.9064   25.1929 N   0  0  0  0  0  0  0  0  0  0  0  0
    9.2855  -16.0342   27.4710 C   0  0  0  0  0  0  0  0  0  0  0  0
    9.4141  -17.3912   27.2519 O   0  0  0  0  0  0  0  0  0  0  0  0
    9.6224  -15.6073   28.5915 O   0  0  0  0  0  0  0  0  0  0  0  0
  2  3  2  0
  2  1  1  0
  4  2  1  0
  5  4  1  0
  5  6  1  6
  7  5  1  0
  7  8  2  0
  9  7  1  0
 10  9  1  0
 11 12  1  0
 10 11  1  1
 12 13  1  0
 13 17  1  0
 13 14  2  0
 15 10  1  0
 16 15  2  0
 19 20  1  1
 19 18  1  0
 21 19  1  0
 22 21  1  1
 22 23  1  0
 23 15  1  0
 24 22  1  0
 25 24  1  0
 26 24  2  0
M  END
$$$$
