NEL.pdb
     RDKit          3D

 26 25  0  0  1  0  0  0  0  0999 V2000
    8.7194  -12.5207   17.5903 N   0  0  0  0  0  0  0  0  0  0  0  0
    7.7787  -13.5823   17.4827 C   0  0  0  0  0  0  0  0  0  0  0  0
    7.3504  -13.8362   16.3050 O   0  0  0  0  0  0  0  0  0  0  0  0
    7.3247  -14.3460   18.6702 C   0  0  0  0  0  0  0  0  0  0  0  0
    8.0279  -13.7876   19.8870 C   0  0  2  0  0  0  0  0  0  0  0  0
    9.3583  -13.3258   19.5431 N   0  0  0  0  0  0  0  0  0  0  0  0
    8.0968  -14.7784   20.9906 C   0  0  0  0  0  0  0  0  0  0  0  0
    6.9909  -15.1528   21.4903 O   0  0  0  0  0  0  0  0  0  0  0  0
    9.3161  -15.3068   21.4929 N   0  0  0  0  0  0  0  0  0  0  0  0
    9.3473  -16.3046   22.5877 C   0  0  1  0  0  0  0  0  0  0  0  0
   10.4897  -17.1963   22.2615 C   0  0  0  0  0  0  0  0  0  0  0  0
   10.7836  -18.3013   23.2084 C   0  0  0  0  0  0  0  0  0  0  0  0
   12.0215  -19.0005   22.6890 C   0  0  0  0  0  0  0  0  0  0  0  0
   11.9588  -20.2581   22.5455 O   0  0  0  0  0  0  0  0  0  0  0  0
    9.4073  -15.5839   23.8571 C   0  0  0  0  0  0  0  0  0  0  0  0
   10.2159  -14.5937   23.9763 O   0  0  0  0  0  0  0  0  0  0  0  0
   13.1830  -18.3457   22.3736 O   0  0  0  0  0  0  0  0  0  0  0  0
    8.2160  -12.1712   26.0627 C   0  0  0  0  0  0  0  0  0  0  0  0
    7.1545  -13.2612   26.0078 C   0  0  2  0  0  0  0  0  0  0  0  0
    5.7765  -12.7525   26.1816 C   0  0  0  0  0  0  0  0  0  0  0  0
    7.5377  -14.5088   26.6992 C   0  0  0  0  0  0  0  0  0  0  0  0
    8.8144  -15.1397   26.2891 C   0  0  2  0  0  0  0  0  0  0  0  0
    8.6539  -15.8488   25.0160 N   0  0  0  0  0  0  0  0  0  0  0  0
    9.4425  -16.0662   27.2220 C   0  0  0  0  0  0  0  0  0  0  0  0
   10.1414  -15.6196   28.3258 O   0  0  0  0  0  0  0  0  0  0  0  0
    9.3719  -17.2987   27.0574 O   0  0  0  0  0  0  0  0  0  0  0  0
  2  3  2  0
  2  1  1  0
  4  2  1  0
  5  4  1  0
  5  6  1  6
  7  5  1  0
  7  8  2  0
  9  7  1  0
 10  9  1  0
 11 12  1  0
 10 11  1  6
 12 13  1  0
 13 17  1  0
 13 14  2  0
 15 10  1  0
 16 15  2  0
 19 20  1  1
 19 18  1  0
 21 19  1  0
 22 21  1  1
 22 23  1  0
 23 15  1  0
 24 22  1  0
 25 24  1  0
 26 24  2  0
M  END
$$$$
