NEL.pdb
     RDKit          3D

 26 25  0  0  1  0  0  0  0  0999 V2000
    8.1838  -13.7746   17.5429 N   0  0  0  0  0  0  0  0  0  0  0  0
    8.4066  -12.9243   18.6613 C   0  0  0  0  0  0  0  0  0  0  0  0
    8.5975  -11.6878   18.3977 O   0  0  0  0  0  0  0  0  0  0  0  0
    8.4161  -13.4469   20.0492 C   0  0  0  0  0  0  0  0  0  0  0  0
    8.1615  -14.9365   19.9939 C   0  0  2  0  0  0  0  0  0  0  0  0
    6.8291  -15.2104   19.4925 N   0  0  0  0  0  0  0  0  0  0  0  0
    8.3556  -15.5814   21.3171 C   0  0  0  0  0  0  0  0  0  0  0  0
    7.3404  -15.6380   22.0780 O   0  0  0  0  0  0  0  0  0  0  0  0
    9.5964  -16.1209   21.7502 N   0  0  0  0  0  0  0  0  0  0  0  0
    9.7173  -16.9060   23.0010 C   0  0  1  0  0  0  0  0  0  0  0  0
   10.9577  -17.7059   22.8333 C   0  0  0  0  0  0  0  0  0  0  0  0
   11.3787  -18.5576   23.9740 C   0  0  0  0  0  0  0  0  0  0  0  0
   12.3732  -19.5581   23.4252 C   0  0  0  0  0  0  0  0  0  0  0  0
   11.9060  -20.5476   22.7860 O   0  0  0  0  0  0  0  0  0  0  0  0
    9.6725  -15.9759   24.1268 C   0  0  0  0  0  0  0  0  0  0  0  0
   10.5147  -15.0078   24.1719 O   0  0  0  0  0  0  0  0  0  0  0  0
   13.7288  -19.4421   23.5864 O   0  0  0  0  0  0  0  0  0  0  0  0
    8.1634  -12.3084   25.8264 C   0  0  0  0  0  0  0  0  0  0  0  0
    7.1058  -13.3953   25.9614 C   0  0  2  0  0  0  0  0  0  0  0  0
    5.7445  -12.8679   26.1996 C   0  0  0  0  0  0  0  0  0  0  0  0
    7.5500  -14.5738   26.7328 C   0  0  0  0  0  0  0  0  0  0  0  0
    8.8767  -15.1394   26.3917 C   0  0  2  0  0  0  0  0  0  0  0  0
    8.7801  -16.0078   25.2146 N   0  0  0  0  0  0  0  0  0  0  0  0
    9.5788  -15.8900   27.4245 C   0  0  0  0  0  0  0  0  0  0  0  0
   10.2414  -15.2558   28.4566 O   0  0  0  0  0  0  0  0  0  0  0  0
    9.6074  -17.1351   27.4141 O   0  0  0  0  0  0  0  0  0  0  0  0
  2  3  2  0
  2  1  1  0
  4  2  1  0
  5  4  1  0
  5  6  1  1
  7  5  1  0
  7  8  2  0
  9  7  1  0
 10  9  1  0
 11 12  1  0
 10 11  1  6
 12 13  1  0
 13 17  1  0
 13 14  2  0
 15 10  1  0
 16 15  2  0
 19 20  1  1
 19 18  1  0
 21 19  1  0
 22 21  1  1
 22 23  1  0
 23 15  1  0
 24 22  1  0
 25 24  1  0
 26 24  2  0
M  END
$$$$
