NEL.pdb
     RDKit          3D

 26 25  0  0  1  0  0  0  0  0999 V2000
    8.6518  -12.2109   17.4501 N   0  0  0  0  0  0  0  0  0  0  0  0
    8.0069  -13.4783   17.4118 C   0  0  0  0  0  0  0  0  0  0  0  0
    7.7361  -13.9359   16.2491 O   0  0  0  0  0  0  0  0  0  0  0  0
    7.6708  -14.2205   18.6510 C   0  0  0  0  0  0  0  0  0  0  0  0
    8.9031  -14.9742   19.0982 C   0  0  2  0  0  0  0  0  0  0  0  0
    9.2974  -15.9495   18.1007 N   0  0  0  0  0  0  0  0  0  0  0  0
    8.7021  -15.6352   20.4123 C   0  0  0  0  0  0  0  0  0  0  0  0
    7.5323  -15.5820   20.9040 O   0  0  0  0  0  0  0  0  0  0  0  0
    9.7375  -16.3043   21.1184 N   0  0  0  0  0  0  0  0  0  0  0  0
    9.5064  -16.9352   22.4389 C   0  0  1  0  0  0  0  0  0  0  0  0
   10.5922  -17.9392   22.5795 C   0  0  0  0  0  0  0  0  0  0  0  0
   10.7524  -18.5886   23.9048 C   0  0  0  0  0  0  0  0  0  0  0  0
   11.9454  -19.5136   23.7938 C   0  0  0  0  0  0  0  0  0  0  0  0
   13.0445  -19.1007   24.2708 O   0  0  0  0  0  0  0  0  0  0  0  0
    9.4454  -15.8762   23.4435 C   0  0  0  0  0  0  0  0  0  0  0  0
   10.3426  -14.9578   23.4392 O   0  0  0  0  0  0  0  0  0  0  0  0
   11.8891  -20.7528   23.2120 O   0  0  0  0  0  0  0  0  0  0  0  0
    5.7358  -12.1074   26.2490 C   0  0  0  0  0  0  0  0  0  0  0  0
    7.1703  -12.6093   26.1576 C   0  0  2  0  0  0  0  0  0  0  0  0
    8.1784  -11.5282   26.2110 C   0  0  0  0  0  0  0  0  0  0  0  0
    7.3629  -13.7053   25.1865 C   0  0  0  0  0  0  0  0  0  0  0  0
    8.4782  -14.6459   25.4470 C   0  0  2  0  0  0  0  0  0  0  0  0
    8.4816  -15.7284   24.4584 N   0  0  0  0  0  0  0  0  0  0  0  0
    8.5485  -15.2650   26.7641 C   0  0  0  0  0  0  0  0  0  0  0  0
    9.2678  -14.6940   27.7951 O   0  0  0  0  0  0  0  0  0  0  0  0
    7.9609  -16.3355   27.0090 O   0  0  0  0  0  0  0  0  0  0  0  0
  2  3  2  0
  2  1  1  0
  4  2  1  0
  5  4  1  0
  5  6  1  6
  7  5  1  0
  7  8  2  0
  9  7  1  0
 10  9  1  0
 11 12  1  0
 10 11  1  1
 12 13  1  0
 13 17  1  0
 13 14  2  0
 15 10  1  0
 16 15  2  0
 19 20  1  6
 19 18  1  0
 21 19  1  0
 22 21  1  1
 22 23  1  0
 23 15  1  0
 24 22  1  0
 25 24  1  0
 26 24  2  0
M  END
$$$$
