NEL.pdb
     RDKit          3D

 26 25  0  0  1  0  0  0  0  0999 V2000
    7.9360  -12.2342   17.2258 N   0  0  0  0  0  0  0  0  0  0  0  0
    7.9780  -13.6315   17.4889 C   0  0  0  0  0  0  0  0  0  0  0  0
    8.4681  -14.3632   16.5620 O   0  0  0  0  0  0  0  0  0  0  0  0
    7.4810  -14.2005   18.7652 C   0  0  0  0  0  0  0  0  0  0  0  0
    8.4851  -13.8766   19.8485 C   0  0  2  0  0  0  0  0  0  0  0  0
    9.8383  -13.9633   19.3356 N   0  0  0  0  0  0  0  0  0  0  0  0
    8.3266  -14.7581   21.0326 C   0  0  0  0  0  0  0  0  0  0  0  0
    7.1836  -14.7690   21.5861 O   0  0  0  0  0  0  0  0  0  0  0  0
    9.3735  -15.5650   21.5533 N   0  0  0  0  0  0  0  0  0  0  0  0
    9.1712  -16.4577   22.7185 C   0  0  1  0  0  0  0  0  0  0  0  0
   10.1195  -17.5818   22.5095 C   0  0  0  0  0  0  0  0  0  0  0  0
   10.1841  -18.6240   23.5648 C   0  0  0  0  0  0  0  0  0  0  0  0
   11.1658  -19.6702   23.0825 C   0  0  0  0  0  0  0  0  0  0  0  0
   10.6855  -20.6975   22.5168 O   0  0  0  0  0  0  0  0  0  0  0  0
    9.3383  -15.6634   23.9332 C   0  0  0  0  0  0  0  0  0  0  0  0
   10.3791  -14.9219   24.0573 O   0  0  0  0  0  0  0  0  0  0  0  0
   12.5234  -19.5566   23.2281 O   0  0  0  0  0  0  0  0  0  0  0  0
    8.0302  -12.0047   25.6228 C   0  0  0  0  0  0  0  0  0  0  0  0
    6.9889  -13.0702   25.9366 C   0  0  2  0  0  0  0  0  0  0  0  0
    5.6557  -12.5160   26.2581 C   0  0  0  0  0  0  0  0  0  0  0  0
    7.5016  -14.1904   26.7511 C   0  0  0  0  0  0  0  0  0  0  0  0
    8.7298  -14.8651   26.2690 C   0  0  2  0  0  0  0  0  0  0  0  0
    8.4606  -15.6043   25.0319 N   0  0  0  0  0  0  0  0  0  0  0  0
    9.4017  -15.7817   27.1810 C   0  0  0  0  0  0  0  0  0  0  0  0
   10.1344  -15.3241   28.2580 O   0  0  0  0  0  0  0  0  0  0  0  0
    9.3397  -17.0154   27.0218 O   0  0  0  0  0  0  0  0  0  0  0  0
  2  3  2  0
  2  1  1  0
  4  2  1  0
  5  4  1  0
  5  6  1  6
  7  5  1  0
  7  8  2  0
  9  7  1  0
 10  9  1  0
 11 12  1  0
 10 11  1  1
 12 13  1  0
 13 17  1  0
 13 14  2  0
 15 10  1  0
 16 15  2  0
 19 20  1  1
 19 18  1  0
 21 19  1  0
 22 21  1  1
 22 23  1  0
 23 15  1  0
 24 22  1  0
 25 24  1  0
 26 24  2  0
M  END
$$$$
