NEL.pdb
     RDKit          3D

 26 25  0  0  1  0  0  0  0  0999 V2000
    7.2046  -13.5922   16.5901 N   0  0  0  0  0  0  0  0  0  0  0  0
    8.0975  -13.3961   17.6800 C   0  0  0  0  0  0  0  0  0  0  0  0
    9.2316  -12.8812   17.3914 O   0  0  0  0  0  0  0  0  0  0  0  0
    7.7291  -13.7690   19.0674 C   0  0  0  0  0  0  0  0  0  0  0  0
    8.9086  -14.4784   19.6939 C   0  0  2  0  0  0  0  0  0  0  0  0
    9.4531  -15.4680   18.7852 N   0  0  0  0  0  0  0  0  0  0  0  0
    8.5510  -15.1108   20.9886 C   0  0  0  0  0  0  0  0  0  0  0  0
    7.3832  -14.8810   21.4319 O   0  0  0  0  0  0  0  0  0  0  0  0
    9.4390  -15.9378   21.7273 N   0  0  0  0  0  0  0  0  0  0  0  0
    9.0093  -16.6552   22.9504 C   0  0  1  0  0  0  0  0  0  0  0  0
    9.7248  -17.9562   22.9033 C   0  0  0  0  0  0  0  0  0  0  0  0
    9.4145  -18.8639   21.7703 C   0  0  0  0  0  0  0  0  0  0  0  0
   10.2883  -20.0877   21.9423 C   0  0  0  0  0  0  0  0  0  0  0  0
    9.8465  -21.0148   22.6849 O   0  0  0  0  0  0  0  0  0  0  0  0
    9.2733  -15.7921   24.0992 C   0  0  0  0  0  0  0  0  0  0  0  0
   10.4264  -15.2393   24.2141 O   0  0  0  0  0  0  0  0  0  0  0  0
   11.5113  -20.2334   21.3420 O   0  0  0  0  0  0  0  0  0  0  0  0
    7.9226  -11.8866   25.3126 C   0  0  0  0  0  0  0  0  0  0  0  0
    6.9528  -12.9408   25.8285 C   0  0  2  0  0  0  0  0  0  0  0  0
    5.6027  -12.4100   26.1171 C   0  0  0  0  0  0  0  0  0  0  0  0
    7.5537  -13.8950   26.7823 C   0  0  0  0  0  0  0  0  0  0  0  0
    8.7294  -14.6650   26.3121 C   0  0  2  0  0  0  0  0  0  0  0  0
    8.3811  -15.4740   25.1402 N   0  0  0  0  0  0  0  0  0  0  0  0
    9.3857  -15.5492   27.2664 C   0  0  0  0  0  0  0  0  0  0  0  0
   10.1238  -15.0541   28.3230 O   0  0  0  0  0  0  0  0  0  0  0  0
    9.3050  -16.7878   27.1635 O   0  0  0  0  0  0  0  0  0  0  0  0
  2  3  2  0
  2  1  1  0
  4  2  1  0
  5  4  1  0
  5  6  1  6
  7  5  1  0
  7  8  2  0
  9  7  1  0
 10  9  1  0
 11 12  1  0
 10 11  1  1
 12 13  1  0
 13 17  1  0
 13 14  2  0
 15 10  1  0
 16 15  2  0
 19 20  1  1
 19 18  1  0
 21 19  1  0
 22 21  1  1
 22 23  1  0
 23 15  1  0
 24 22  1  0
 25 24  1  0
 26 24  2  0
M  END
$$$$
