NEL.pdb
     RDKit          3D

 26 25  0  0  1  0  0  0  0  0999 V2000
    8.9120  -13.7918   16.8431 N   0  0  0  0  0  0  0  0  0  0  0  0
    7.7140  -13.7138   17.6062 C   0  0  0  0  0  0  0  0  0  0  0  0
    6.8200  -12.9116   17.1680 O   0  0  0  0  0  0  0  0  0  0  0  0
    7.5191  -14.5179   18.8371 C   0  0  0  0  0  0  0  0  0  0  0  0
    8.5724  -14.1062   19.8410 C   0  0  2  0  0  0  0  0  0  0  0  0
    9.9000  -14.2364   19.2733 N   0  0  0  0  0  0  0  0  0  0  0  0
    8.4729  -14.8864   21.1002 C   0  0  0  0  0  0  0  0  0  0  0  0
    7.3838  -14.7893   21.7463 O   0  0  0  0  0  0  0  0  0  0  0  0
    9.5182  -15.7120   21.5940 N   0  0  0  0  0  0  0  0  0  0  0  0
    9.3772  -16.4931   22.8452 C   0  0  1  0  0  0  0  0  0  0  0  0
   10.2834  -17.6576   22.6745 C   0  0  0  0  0  0  0  0  0  0  0  0
   10.0672  -18.5210   21.4864 C   0  0  0  0  0  0  0  0  0  0  0  0
   11.4217  -19.0750   21.0998 C   0  0  0  0  0  0  0  0  0  0  0  0
   12.3142  -19.1022   21.9991 O   0  0  0  0  0  0  0  0  0  0  0  0
    9.6455  -15.6004   23.9701 C   0  0  0  0  0  0  0  0  0  0  0  0
   10.7030  -14.8724   23.9522 O   0  0  0  0  0  0  0  0  0  0  0  0
   11.7182  -19.5390   19.8452 O   0  0  0  0  0  0  0  0  0  0  0  0
    7.2829  -12.1798   24.4346 C   0  0  0  0  0  0  0  0  0  0  0  0
    7.3408  -13.1365   25.6175 C   0  0  2  0  0  0  0  0  0  0  0  0
    6.1741  -13.0298   26.5205 C   0  0  0  0  0  0  0  0  0  0  0  0
    8.6844  -13.2728   26.2152 C   0  0  0  0  0  0  0  0  0  0  0  0
    9.2509  -14.6402   26.2908 C   0  0  2  0  0  0  0  0  0  0  0  0
    8.8533  -15.4287   25.1206 N   0  0  0  0  0  0  0  0  0  0  0  0
    8.9434  -15.4365   27.4717 C   0  0  0  0  0  0  0  0  0  0  0  0
    8.4407  -16.7183   27.3699 O   0  0  0  0  0  0  0  0  0  0  0  0
    9.1230  -14.9884   28.6199 O   0  0  0  0  0  0  0  0  0  0  0  0
  2  3  2  0
  2  1  1  0
  4  2  1  0
  5  4  1  0
  5  6  1  6
  7  5  1  0
  7  8  2  0
  9  7  1  0
 10  9  1  0
 11 12  1  0
 10 11  1  6
 12 13  1  0
 13 17  1  0
 13 14  2  0
 15 10  1  0
 16 15  2  0
 19 20  1  1
 19 18  1  0
 21 19  1  0
 22 21  1  1
 22 23  1  0
 23 15  1  0
 24 22  1  0
 25 24  1  0
 26 24  2  0
M  END
$$$$
