NEL.pdb
     RDKit          3D

 26 25  0  0  1  0  0  0  0  0999 V2000
    8.9288  -12.0709   18.2785 N   0  0  0  0  0  0  0  0  0  0  0  0
    8.1224  -13.2177   18.0374 C   0  0  0  0  0  0  0  0  0  0  0  0
    7.7634  -13.4072   16.8250 O   0  0  0  0  0  0  0  0  0  0  0  0
    7.7244  -14.1360   19.1319 C   0  0  0  0  0  0  0  0  0  0  0  0
    8.8351  -15.1429   19.3299 C   0  0  2  0  0  0  0  0  0  0  0  0
    8.8622  -16.0971   18.2389 N   0  0  0  0  0  0  0  0  0  0  0  0
    8.7161  -15.8510   20.6294 C   0  0  0  0  0  0  0  0  0  0  0  0
    7.6505  -16.5147   20.8213 O   0  0  0  0  0  0  0  0  0  0  0  0
    9.7189  -15.8147   21.6351 N   0  0  0  0  0  0  0  0  0  0  0  0
    9.6151  -16.6171   22.8764 C   0  0  1  0  0  0  0  0  0  0  0  0
   10.7844  -17.5326   22.8401 C   0  0  0  0  0  0  0  0  0  0  0  0
   10.9320  -18.4942   23.9614 C   0  0  0  0  0  0  0  0  0  0  0  0
   12.1513  -19.3366   23.6535 C   0  0  0  0  0  0  0  0  0  0  0  0
   11.9503  -20.5274   23.2695 O   0  0  0  0  0  0  0  0  0  0  0  0
    9.5266  -15.6955   24.0065 C   0  0  0  0  0  0  0  0  0  0  0  0
   10.5606  -15.0094   24.3363 O   0  0  0  0  0  0  0  0  0  0  0  0
   13.4366  -18.8763   23.7696 O   0  0  0  0  0  0  0  0  0  0  0  0
    5.5628  -12.1907   25.8891 C   0  0  0  0  0  0  0  0  0  0  0  0
    6.9858  -12.6583   26.1617 C   0  0  2  0  0  0  0  0  0  0  0  0
    8.0010  -11.9747   25.3310 C   0  0  0  0  0  0  0  0  0  0  0  0
    7.1104  -14.1151   26.3702 C   0  0  0  0  0  0  0  0  0  0  0  0
    8.4308  -14.7245   26.0848 C   0  0  2  0  0  0  0  0  0  0  0  0
    8.3989  -15.4524   24.8127 N   0  0  0  0  0  0  0  0  0  0  0  0
    8.9906  -15.6263   27.0832 C   0  0  0  0  0  0  0  0  0  0  0  0
    9.7479  -15.1579   28.1383 O   0  0  0  0  0  0  0  0  0  0  0  0
    8.8062  -16.8565   27.0210 O   0  0  0  0  0  0  0  0  0  0  0  0
  2  3  2  0
  2  1  1  0
  4  2  1  0
  5  4  1  0
  5  6  1  6
  7  5  1  0
  7  8  2  0
  9  7  1  0
 10  9  1  0
 11 12  1  0
 10 11  1  1
 12 13  1  0
 13 17  1  0
 13 14  2  0
 15 10  1  0
 16 15  2  0
 19 20  1  6
 19 18  1  0
 21 19  1  0
 22 21  1  1
 22 23  1  0
 23 15  1  0
 24 22  1  0
 25 24  1  0
 26 24  2  0
M  END
$$$$
