NEL.pdb
     RDKit          3D

 26 25  0  0  1  0  0  0  0  0999 V2000
    7.5432  -12.3028   17.8014 N   0  0  0  0  0  0  0  0  0  0  0  0
    8.4476  -13.0721   18.5848 C   0  0  0  0  0  0  0  0  0  0  0  0
    9.5937  -13.2944   18.0635 O   0  0  0  0  0  0  0  0  0  0  0  0
    8.0774  -13.5837   19.9267 C   0  0  0  0  0  0  0  0  0  0  0  0
    8.4946  -15.0348   20.0097 C   0  0  2  0  0  0  0  0  0  0  0  0
    7.7642  -15.8340   19.0457 N   0  0  0  0  0  0  0  0  0  0  0  0
    8.3144  -15.5860   21.3764 C   0  0  0  0  0  0  0  0  0  0  0  0
    7.1187  -15.7452   21.7737 O   0  0  0  0  0  0  0  0  0  0  0  0
    9.3963  -15.9313   22.2300 N   0  0  0  0  0  0  0  0  0  0  0  0
    9.1845  -16.6041   23.5329 C   0  0  1  0  0  0  0  0  0  0  0  0
   10.0763  -17.7917   23.5007 C   0  0  0  0  0  0  0  0  0  0  0  0
   11.5211  -17.5526   23.2571 C   0  0  0  0  0  0  0  0  0  0  0  0
   12.1908  -18.9099   23.2498 C   0  0  0  0  0  0  0  0  0  0  0  0
   12.0442  -19.6333   24.2800 O   0  0  0  0  0  0  0  0  0  0  0  0
    9.4178  -15.6255   24.5923 C   0  0  0  0  0  0  0  0  0  0  0  0
   10.4126  -14.8201   24.4916 O   0  0  0  0  0  0  0  0  0  0  0  0
   12.9333  -19.3805   22.1989 O   0  0  0  0  0  0  0  0  0  0  0  0
    7.5290  -12.0928   25.5901 C   0  0  0  0  0  0  0  0  0  0  0  0
    6.8475  -13.1938   26.3909 C   0  0  2  0  0  0  0  0  0  0  0  0
    5.4727  -12.8505   26.8150 C   0  0  0  0  0  0  0  0  0  0  0  0
    7.7350  -13.8710   27.3580 C   0  0  0  0  0  0  0  0  0  0  0  0
    8.9722  -14.4841   26.8198 C   0  0  2  0  0  0  0  0  0  0  0  0
    8.6527  -15.4451   25.7598 N   0  0  0  0  0  0  0  0  0  0  0  0
    9.8583  -15.1582   27.7598 C   0  0  0  0  0  0  0  0  0  0  0  0
   10.1248  -16.5094   27.6620 O   0  0  0  0  0  0  0  0  0  0  0  0
   10.4093  -14.5384   28.6891 O   0  0  0  0  0  0  0  0  0  0  0  0
  2  3  2  0
  2  1  1  0
  4  2  1  0
  5  4  1  0
  5  6  1  6
  7  5  1  0
  7  8  2  0
  9  7  1  0
 10  9  1  0
 11 12  1  0
 10 11  1  1
 12 13  1  0
 13 17  1  0
 13 14  2  0
 15 10  1  0
 16 15  2  0
 19 20  1  1
 19 18  1  0
 21 19  1  0
 22 21  1  1
 22 23  1  0
 23 15  1  0
 24 22  1  0
 25 24  1  0
 26 24  2  0
M  END
$$$$
