NEL.pdb
     RDKit          3D

 26 25  0  0  1  0  0  0  0  0999 V2000
    7.7946  -12.5264   17.0726 N   0  0  0  0  0  0  0  0  0  0  0  0
    7.9277  -13.9424   17.1009 C   0  0  0  0  0  0  0  0  0  0  0  0
    8.3320  -14.4903   16.0188 O   0  0  0  0  0  0  0  0  0  0  0  0
    7.6144  -14.7315   18.3169 C   0  0  0  0  0  0  0  0  0  0  0  0
    8.4926  -14.2323   19.4423 C   0  0  2  0  0  0  0  0  0  0  0  0
    9.8778  -14.1651   19.0200 N   0  0  0  0  0  0  0  0  0  0  0  0
    8.3661  -15.0738   20.6589 C   0  0  0  0  0  0  0  0  0  0  0  0
    7.1965  -15.2202   21.1316 O   0  0  0  0  0  0  0  0  0  0  0  0
    9.4707  -15.7019   21.2942 N   0  0  0  0  0  0  0  0  0  0  0  0
    9.3049  -16.5556   22.4938 C   0  0  1  0  0  0  0  0  0  0  0  0
   10.3915  -17.5641   22.3999 C   0  0  0  0  0  0  0  0  0  0  0  0
   10.5403  -18.5130   23.5320 C   0  0  0  0  0  0  0  0  0  0  0  0
   11.6612  -19.4598   23.1606 C   0  0  0  0  0  0  0  0  0  0  0  0
   12.6777  -18.9592   22.5930 O   0  0  0  0  0  0  0  0  0  0  0  0
    9.3009  -15.6895   23.6703 C   0  0  0  0  0  0  0  0  0  0  0  0
   10.2883  -14.8917   23.8628 O   0  0  0  0  0  0  0  0  0  0  0  0
   11.6250  -20.8072   23.4069 O   0  0  0  0  0  0  0  0  0  0  0  0
    6.1937  -11.7239   26.5089 C   0  0  0  0  0  0  0  0  0  0  0  0
    7.4640  -12.5357   26.2958 C   0  0  2  0  0  0  0  0  0  0  0  0
    8.4633  -11.8553   25.4437 C   0  0  0  0  0  0  0  0  0  0  0  0
    7.2275  -13.9789   26.0895 C   0  0  0  0  0  0  0  0  0  0  0  0
    8.4218  -14.8351   25.8975 C   0  0  2  0  0  0  0  0  0  0  0  0
    8.3045  -15.6146   24.6615 N   0  0  0  0  0  0  0  0  0  0  0  0
    8.7656  -15.7670   26.9636 C   0  0  0  0  0  0  0  0  0  0  0  0
    8.5833  -17.1282   26.8221 O   0  0  0  0  0  0  0  0  0  0  0  0
    9.2378  -15.3685   28.0451 O   0  0  0  0  0  0  0  0  0  0  0  0
  2  3  2  0
  2  1  1  0
  4  2  1  0
  5  4  1  0
  5  6  1  6
  7  5  1  0
  7  8  2  0
  9  7  1  0
 10  9  1  0
 11 12  1  0
 10 11  1  1
 12 13  1  0
 13 17  1  0
 13 14  2  0
 15 10  1  0
 16 15  2  0
 19 20  1  6
 19 18  1  0
 21 19  1  0
 22 21  1  1
 22 23  1  0
 23 15  1  0
 24 22  1  0
 25 24  1  0
 26 24  2  0
M  END
$$$$
