NEL.pdb
     RDKit          3D

 26 25  0  0  1  0  0  0  0  0999 V2000
    8.9202  -12.2185   17.6606 N   0  0  0  0  0  0  0  0  0  0  0  0
    8.1113  -13.3881   17.6977 C   0  0  0  0  0  0  0  0  0  0  0  0
    7.7692  -13.8707   16.5642 O   0  0  0  0  0  0  0  0  0  0  0  0
    7.6924  -14.0069   18.9788 C   0  0  0  0  0  0  0  0  0  0  0  0
    8.8613  -14.7947   19.5263 C   0  0  2  0  0  0  0  0  0  0  0  0
    9.1841  -15.9062   18.6535 N   0  0  0  0  0  0  0  0  0  0  0  0
    8.6043  -15.2815   20.9052 C   0  0  0  0  0  0  0  0  0  0  0  0
    7.3879  -15.4150   21.2450 O   0  0  0  0  0  0  0  0  0  0  0  0
    9.6365  -15.5938   21.8300 N   0  0  0  0  0  0  0  0  0  0  0  0
    9.3884  -16.4227   23.0328 C   0  0  1  0  0  0  0  0  0  0  0  0
   10.3514  -17.5488   22.9278 C   0  0  0  0  0  0  0  0  0  0  0  0
   10.3656  -18.5388   24.0340 C   0  0  0  0  0  0  0  0  0  0  0  0
   11.4944  -19.5032   23.7393 C   0  0  0  0  0  0  0  0  0  0  0  0
   12.1360  -19.9637   24.7305 O   0  0  0  0  0  0  0  0  0  0  0  0
    9.4976  -15.5614   24.2079 C   0  0  0  0  0  0  0  0  0  0  0  0
   10.5511  -14.8439   24.3616 O   0  0  0  0  0  0  0  0  0  0  0  0
   11.8450  -19.8919   22.4731 O   0  0  0  0  0  0  0  0  0  0  0  0
    7.8527  -11.8639   25.5032 C   0  0  0  0  0  0  0  0  0  0  0  0
    6.9011  -12.9772   25.9193 C   0  0  2  0  0  0  0  0  0  0  0  0
    5.5182  -12.5117   26.1618 C   0  0  0  0  0  0  0  0  0  0  0  0
    7.4912  -13.9527   26.8582 C   0  0  0  0  0  0  0  0  0  0  0  0
    8.7557  -14.6047   26.4434 C   0  0  2  0  0  0  0  0  0  0  0  0
    8.5488  -15.4107   25.2365 N   0  0  0  0  0  0  0  0  0  0  0  0
    9.4318  -15.4524   27.4169 C   0  0  0  0  0  0  0  0  0  0  0  0
    9.5494  -16.8155   27.2321 O   0  0  0  0  0  0  0  0  0  0  0  0
    9.9297  -14.9769   28.4548 O   0  0  0  0  0  0  0  0  0  0  0  0
  2  3  2  0
  2  1  1  0
  4  2  1  0
  5  4  1  0
  5  6  1  6
  7  5  1  0
  7  8  2  0
  9  7  1  0
 10  9  1  0
 11 12  1  0
 10 11  1  1
 12 13  1  0
 13 17  1  0
 13 14  2  0
 15 10  1  0
 16 15  2  0
 19 20  1  1
 19 18  1  0
 21 19  1  0
 22 21  1  1
 22 23  1  0
 23 15  1  0
 24 22  1  0
 25 24  1  0
 26 24  2  0
M  END
$$$$
