NEL.pdb
     RDKit          3D

 26 25  0  0  1  0  0  0  0  0999 V2000
    9.8246  -13.8841   17.8563 N   0  0  0  0  0  0  0  0  0  0  0  0
    8.4393  -13.9499   17.5399 C   0  0  0  0  0  0  0  0  0  0  0  0
    8.1530  -14.2393   16.3278 O   0  0  0  0  0  0  0  0  0  0  0  0
    7.3929  -13.6965   18.5599 C   0  0  0  0  0  0  0  0  0  0  0  0
    8.0782  -13.3359   19.8589 C   0  0  2  0  0  0  0  0  0  0  0  0
    9.4320  -12.8787   19.6143 N   0  0  0  0  0  0  0  0  0  0  0  0
    8.0838  -14.4707   20.8161 C   0  0  0  0  0  0  0  0  0  0  0  0
    6.9511  -14.9003   21.1974 O   0  0  0  0  0  0  0  0  0  0  0  0
    9.2722  -15.0753   21.3062 N   0  0  0  0  0  0  0  0  0  0  0  0
    9.2433  -16.1515   22.3242 C   0  0  1  0  0  0  0  0  0  0  0  0
   10.3580  -17.0605   21.9530 C   0  0  0  0  0  0  0  0  0  0  0  0
   10.1554  -17.9417   20.7756 C   0  0  0  0  0  0  0  0  0  0  0  0
   11.4241  -18.7515   20.6157 C   0  0  0  0  0  0  0  0  0  0  0  0
   11.7479  -19.5155   21.5736 O   0  0  0  0  0  0  0  0  0  0  0  0
    9.3041  -15.5291   23.6446 C   0  0  0  0  0  0  0  0  0  0  0  0
   10.2427  -14.6905   23.8980 O   0  0  0  0  0  0  0  0  0  0  0  0
   12.2212  -18.6952   19.5027 O   0  0  0  0  0  0  0  0  0  0  0  0
    8.4143  -12.0770   25.9851 C   0  0  0  0  0  0  0  0  0  0  0  0
    7.2386  -13.0119   25.7368 C   0  0  2  0  0  0  0  0  0  0  0  0
    5.9253  -12.3326   25.7787 C   0  0  0  0  0  0  0  0  0  0  0  0
    7.3711  -14.3306   26.3885 C   0  0  0  0  0  0  0  0  0  0  0  0
    8.5694  -15.1324   26.0458 C   0  0  2  0  0  0  0  0  0  0  0  0
    8.4213  -15.7406   24.7202 N   0  0  0  0  0  0  0  0  0  0  0  0
    8.9603  -16.1931   26.9653 C   0  0  0  0  0  0  0  0  0  0  0  0
    9.6001  -15.9185   28.1575 O   0  0  0  0  0  0  0  0  0  0  0  0
    8.7312  -17.3901   26.7084 O   0  0  0  0  0  0  0  0  0  0  0  0
  2  3  2  0
  2  1  1  0
  4  2  1  0
  5  4  1  0
  5  6  1  6
  7  5  1  0
  7  8  2  0
  9  7  1  0
 10  9  1  0
 11 12  1  0
 10 11  1  6
 12 13  1  0
 13 17  1  0
 13 14  2  0
 15 10  1  0
 16 15  2  0
 19 20  1  1
 19 18  1  0
 21 19  1  0
 22 21  1  1
 22 23  1  0
 23 15  1  0
 24 22  1  0
 25 24  1  0
 26 24  2  0
M  END
$$$$
