NEL.pdb
     RDKit          3D

 26 25  0  0  1  0  0  0  0  0999 V2000
    7.4365  -12.1854   18.1926 N   0  0  0  0  0  0  0  0  0  0  0  0
    8.3350  -13.1048   18.8017 C   0  0  0  0  0  0  0  0  0  0  0  0
    9.3034  -13.5109   18.0723 O   0  0  0  0  0  0  0  0  0  0  0  0
    8.1540  -13.5620   20.2009 C   0  0  0  0  0  0  0  0  0  0  0  0
    8.0803  -15.0724   20.1976 C   0  0  2  0  0  0  0  0  0  0  0  0
    6.8991  -15.5262   19.4901 N   0  0  0  0  0  0  0  0  0  0  0  0
    8.1025  -15.6313   21.5728 C   0  0  0  0  0  0  0  0  0  0  0  0
    7.0276  -15.5390   22.2430 O   0  0  0  0  0  0  0  0  0  0  0  0
    9.2459  -16.2466   22.1492 N   0  0  0  0  0  0  0  0  0  0  0  0
    9.1907  -16.9329   23.4612 C   0  0  1  0  0  0  0  0  0  0  0  0
   10.1532  -18.0584   23.3460 C   0  0  0  0  0  0  0  0  0  0  0  0
   10.3953  -18.8752   24.5618 C   0  0  0  0  0  0  0  0  0  0  0  0
   11.4682  -19.8807   24.2030 C   0  0  0  0  0  0  0  0  0  0  0  0
   12.5936  -19.4228   23.8427 O   0  0  0  0  0  0  0  0  0  0  0  0
    9.4477  -15.9416   24.5031 C   0  0  0  0  0  0  0  0  0  0  0  0
   10.5089  -15.2222   24.4337 O   0  0  0  0  0  0  0  0  0  0  0  0
   11.2789  -21.2369   24.2501 O   0  0  0  0  0  0  0  0  0  0  0  0
    8.5667  -11.9796   25.4909 C   0  0  0  0  0  0  0  0  0  0  0  0
    7.4821  -12.9258   25.9874 C   0  0  2  0  0  0  0  0  0  0  0  0
    6.1540  -12.2869   26.1137 C   0  0  0  0  0  0  0  0  0  0  0  0
    7.9275  -13.8430   27.0559 C   0  0  0  0  0  0  0  0  0  0  0  0
    9.0289  -14.7773   26.7240 C   0  0  2  0  0  0  0  0  0  0  0  0
    8.6403  -15.6620   25.6215 N   0  0  0  0  0  0  0  0  0  0  0  0
    9.5457  -15.6222   27.7927 C   0  0  0  0  0  0  0  0  0  0  0  0
    9.4236  -16.9968   27.7522 O   0  0  0  0  0  0  0  0  0  0  0  0
   10.1180  -15.1338   28.7853 O   0  0  0  0  0  0  0  0  0  0  0  0
  2  3  2  0
  2  1  1  0
  4  2  1  0
  5  4  1  0
  5  6  1  1
  7  5  1  0
  7  8  2  0
  9  7  1  0
 10  9  1  0
 11 12  1  0
 10 11  1  6
 12 13  1  0
 13 17  1  0
 13 14  2  0
 15 10  1  0
 16 15  2  0
 19 20  1  1
 19 18  1  0
 21 19  1  0
 22 21  1  1
 22 23  1  0
 23 15  1  0
 24 22  1  0
 25 24  1  0
 26 24  2  0
M  END
$$$$
