TFE.pdb
     RDKit          3D

 28 28  0  0  1  0  0  0  0  0999 V2000
   31.6572  -39.9089   -4.7168 C   0  0  0  0  0  0  0  0  0  0  0  0
   32.4075  -39.1467   -3.6675 C   0  0  1  0  0  0  0  0  0  0  0  0
   32.3175  -39.8073   -2.4441 O   0  0  0  0  0  0  0  0  0  0  0  0
   33.8601  -38.9315   -4.0481 C   0  0  2  0  0  0  0  0  0  0  0  0
   34.5782  -40.1761   -4.1543 N   0  0  0  0  0  0  0  0  0  0  0  0
   34.5499  -38.0702   -3.0461 C   0  0  0  0  0  0  0  0  0  0  0  0
   35.0901  -38.5340   -2.0082 O   0  0  0  0  0  0  0  0  0  0  0  0
   34.6217  -36.6584   -3.2359 N   0  0  0  0  0  0  0  0  0  0  0  0
   35.0549  -35.7227   -2.2476 C   0  0  1  0  0  0  0  0  0  0  0  0
   35.2651  -34.3343   -2.8128 C   0  0  0  0  0  0  0  0  0  0  0  0
   35.7788  -33.3953   -1.7871 C   0  0  0  0  0  0  0  0  0  0  0  0
   37.1291  -33.3615   -1.4564 C   0  0  0  0  0  0  0  0  0  0  0  0
   37.5844  -32.4792   -0.4985 C   0  0  0  0  0  0  0  0  0  0  0  0
   36.7453  -31.6032    0.1680 C   0  0  0  0  0  0  0  0  0  0  0  0
   35.4074  -31.6420   -0.1645 C   0  0  0  0  0  0  0  0  0  0  0  0
   34.9488  -32.5216   -1.1207 C   0  0  0  0  0  0  0  0  0  0  0  0
   34.0823  -35.6165   -1.1152 C   0  0  0  0  0  0  0  0  0  0  0  0
   32.8521  -35.4646   -1.3245 O   0  0  0  0  0  0  0  0  0  0  0  0
   34.4923  -35.6803    0.2394 N   0  0  0  0  0  0  0  0  0  0  0  0
   33.4894  -35.7154    1.3507 C   0  0  1  0  0  0  0  0  0  0  0  0
   33.8792  -36.8269    2.2471 C   0  0  0  0  0  0  0  0  0  0  0  0
   33.1771  -37.0332    3.5126 C   0  0  0  0  0  0  0  0  0  0  0  0
   33.4772  -38.1808    4.3557 C   0  0  0  0  0  0  0  0  0  0  0  0
   32.9372  -38.3159    5.4930 O   0  0  0  0  0  0  0  0  0  0  0  0
   33.6172  -34.4036    1.9946 C   0  0  0  0  0  0  0  0  0  0  0  0
   34.6608  -33.7429    2.1135 O   0  0  0  0  0  0  0  0  0  0  0  0
   34.3587  -39.1774    3.9619 O   0  0  0  0  0  0  0  0  0  0  0  0
   32.4675  -33.7985    2.5444 O   0  0  0  0  0  0  0  0  0  0  0  0
  2  4  1  0
  2  1  1  6
  3  2  1  0
  4  6  1  0
  4  5  1  1
  6  7  2  0
  8  9  1  0
  8  6  1  0
 10 11  1  0
  9 10  1  6
 11 12  2  0
 12 13  1  0
 14 13  2  0
 15 14  1  0
 16 15  2  0
 16 11  1  0
 17 18  2  0
 17  9  1  0
 19 17  1  0
 20 19  1  0
 20 25  1  0
 20 21  1  1
 22 23  1  0
 22 21  1  0
 23 24  2  0
 25 28  1  0
 26 25  2  0
 27 23  1  0
M  END
$$$$
