TFE.pdb
     RDKit          3D

 28 28  0  0  1  0  0  0  0  0999 V2000
   26.3206  -19.5429  -17.2778 C   0  0  0  0  0  0  0  0  0  0  0  0
   26.7952  -20.8758  -17.7711 C   0  0  1  0  0  0  0  0  0  0  0  0
   27.4445  -20.7264  -18.9947 O   0  0  0  0  0  0  0  0  0  0  0  0
   27.7033  -21.5641  -16.7697 C   0  0  2  0  0  0  0  0  0  0  0  0
   28.1570  -22.8454  -17.2474 N   0  0  0  0  0  0  0  0  0  0  0  0
   27.0043  -21.7636  -15.4683 C   0  0  0  0  0  0  0  0  0  0  0  0
   26.0171  -22.5334  -15.3381 O   0  0  0  0  0  0  0  0  0  0  0  0
   27.4426  -21.0719  -14.3005 N   0  0  0  0  0  0  0  0  0  0  0  0
   26.7538  -21.0643  -13.0494 C   0  0  1  0  0  0  0  0  0  0  0  0
   27.5342  -20.3614  -11.9593 C   0  0  0  0  0  0  0  0  0  0  0  0
   26.7785  -20.3154  -10.6848 C   0  0  0  0  0  0  0  0  0  0  0  0
   26.9216  -21.3149   -9.7286 C   0  0  0  0  0  0  0  0  0  0  0  0
   26.2080  -21.2511   -8.5497 C   0  0  0  0  0  0  0  0  0  0  0  0
   25.3341  -20.2173   -8.2615 C   0  0  0  0  0  0  0  0  0  0  0  0
   25.1967  -19.2293   -9.2140 C   0  0  0  0  0  0  0  0  0  0  0  0
   25.9077  -19.2894  -10.3926 C   0  0  0  0  0  0  0  0  0  0  0  0
   25.4139  -20.4062  -13.1539 C   0  0  0  0  0  0  0  0  0  0  0  0
   25.2686  -19.3164  -13.7635 O   0  0  0  0  0  0  0  0  0  0  0  0
   24.2496  -20.9704  -12.5767 N   0  0  0  0  0  0  0  0  0  0  0  0
   22.8936  -20.3992  -12.8542 C   0  0  1  0  0  0  0  0  0  0  0  0
   22.5231  -20.8168  -14.2250 C   0  0  0  0  0  0  0  0  0  0  0  0
   21.3690  -20.2157  -14.8914 C   0  0  0  0  0  0  0  0  0  0  0  0
   20.2284  -21.0274  -15.2885 C   0  0  0  0  0  0  0  0  0  0  0  0
   19.1784  -20.4960  -15.7558 O   0  0  0  0  0  0  0  0  0  0  0  0
   22.0314  -21.0014  -11.8315 C   0  0  0  0  0  0  0  0  0  0  0  0
   22.3150  -21.9707  -11.1105 O   0  0  0  0  0  0  0  0  0  0  0  0
   20.2315  -22.4108  -15.1799 O   0  0  0  0  0  0  0  0  0  0  0  0
   20.7485  -20.4566  -11.6136 O   0  0  0  0  0  0  0  0  0  0  0  0
  2  4  1  0
  2  1  1  1
  3  2  1  0
  4  6  1  0
  4  5  1  6
  6  7  2  0
  8  9  1  0
  8  6  1  0
 10 11  1  0
  9 10  1  1
 11 12  2  0
 12 13  1  0
 14 13  2  0
 15 14  1  0
 16 15  2  0
 16 11  1  0
 17 18  2  0
 17  9  1  0
 19 17  1  0
 20 19  1  0
 20 25  1  0
 20 21  1  6
 22 23  1  0
 22 21  1  0
 23 24  2  0
 25 28  1  0
 26 25  2  0
 27 23  1  0
M  END
$$$$
