TFE.pdb
     RDKit          3D

 28 28  0  0  1  0  0  0  0  0999 V2000
   27.0878  -19.0036  -14.8548 C   0  0  0  0  0  0  0  0  0  0  0  0
   26.6835  -19.4967  -13.4989 C   0  0  1  0  0  0  0  0  0  0  0  0
   25.3531  -19.9099  -13.5202 O   0  0  0  0  0  0  0  0  0  0  0  0
   27.5794  -20.6188  -13.0097 C   0  0  2  0  0  0  0  0  0  0  0  0
   27.4475  -21.8037  -13.8186 N   0  0  0  0  0  0  0  0  0  0  0  0
   27.2644  -20.9723  -11.5962 C   0  0  0  0  0  0  0  0  0  0  0  0
   26.5340  -21.9494  -11.2866 O   0  0  0  0  0  0  0  0  0  0  0  0
   27.7934  -20.1956  -10.5233 N   0  0  0  0  0  0  0  0  0  0  0  0
   27.4650  -20.3766   -9.1451 C   0  0  1  0  0  0  0  0  0  0  0  0
   28.3721  -19.5908   -8.2224 C   0  0  0  0  0  0  0  0  0  0  0  0
   28.0678  -19.8559   -6.7960 C   0  0  0  0  0  0  0  0  0  0  0  0
   28.5523  -20.9924   -6.1575 C   0  0  0  0  0  0  0  0  0  0  0  0
   28.2562  -21.2183   -4.8292 C   0  0  0  0  0  0  0  0  0  0  0  0
   27.4816  -20.3504   -4.0793 C   0  0  0  0  0  0  0  0  0  0  0  0
   27.0041  -19.2255   -4.7185 C   0  0  0  0  0  0  0  0  0  0  0  0
   27.2977  -18.9961   -6.0450 C   0  0  0  0  0  0  0  0  0  0  0  0
   26.0527  -19.9788   -8.8509 C   0  0  0  0  0  0  0  0  0  0  0  0
   25.6341  -18.8218   -9.1088 O   0  0  0  0  0  0  0  0  0  0  0  0
   25.1218  -20.8758   -8.2715 N   0  0  0  0  0  0  0  0  0  0  0  0
   23.6504  -20.6024   -8.3198 C   0  0  1  0  0  0  0  0  0  0  0  0
   23.2017  -20.9049   -9.6976 C   0  0  0  0  0  0  0  0  0  0  0  0
   21.8427  -20.5698  -10.1197 C   0  0  0  0  0  0  0  0  0  0  0  0
   21.3615  -20.9295  -11.4451 C   0  0  0  0  0  0  0  0  0  0  0  0
   22.1360  -21.4428  -12.3052 O   0  0  0  0  0  0  0  0  0  0  0  0
   23.0791  -21.5209   -7.3289 C   0  0  0  0  0  0  0  0  0  0  0  0
   23.6680  -22.4631   -6.7764 O   0  0  0  0  0  0  0  0  0  0  0  0
   20.0433  -20.7335  -11.8316 O   0  0  0  0  0  0  0  0  0  0  0  0
   21.7344  -21.3519   -6.9375 O   0  0  0  0  0  0  0  0  0  0  0  0
  2  4  1  0
  2  1  1  6
  3  2  1  0
  4  6  1  0
  4  5  1  6
  6  7  2  0
  8  9  1  0
  8  6  1  0
 10 11  1  0
  9 10  1  1
 11 12  2  0
 12 13  1  0
 14 13  2  0
 15 14  1  0
 16 15  2  0
 16 11  1  0
 17 18  2  0
 17  9  1  0
 19 17  1  0
 20 19  1  0
 20 25  1  0
 20 21  1  6
 22 23  1  0
 22 21  1  0
 23 24  2  0
 25 28  1  0
 26 25  2  0
 27 23  1  0
M  END
$$$$
