TFE.pdb
     RDKit          3D

 28 28  0  0  1  0  0  0  0  0999 V2000
   17.6506  -10.8344  -19.2036 C   0  0  0  0  0  0  0  0  0  0  0  0
   17.1984  -11.9945  -18.3700 C   0  0  1  0  0  0  0  0  0  0  0  0
   16.9099  -13.0845  -19.1885 O   0  0  0  0  0  0  0  0  0  0  0  0
   18.2244  -12.3768  -17.3202 C   0  0  2  0  0  0  0  0  0  0  0  0
   17.8429  -13.5672  -16.6038 N   0  0  0  0  0  0  0  0  0  0  0  0
   18.4155  -11.2726  -16.3372 C   0  0  0  0  0  0  0  0  0  0  0  0
   17.5172  -10.9182  -15.5300 O   0  0  0  0  0  0  0  0  0  0  0  0
   19.6526  -10.5652  -16.2784 N   0  0  0  0  0  0  0  0  0  0  0  0
   19.8882   -9.3966  -15.4917 C   0  0  1  0  0  0  0  0  0  0  0  0
   21.3462   -9.2285  -15.1210 C   0  0  0  0  0  0  0  0  0  0  0  0
   21.5948   -7.9346  -14.4415 C   0  0  0  0  0  0  0  0  0  0  0  0
   22.1063   -6.8447  -15.1375 C   0  0  0  0  0  0  0  0  0  0  0  0
   22.3296   -5.6503  -14.4842 C   0  0  0  0  0  0  0  0  0  0  0  0
   22.0644   -5.4757  -13.1370 C   0  0  0  0  0  0  0  0  0  0  0  0
   21.5575   -6.5605  -12.4527 C   0  0  0  0  0  0  0  0  0  0  0  0
   21.3329   -7.7551  -13.1016 C   0  0  0  0  0  0  0  0  0  0  0  0
   19.4453   -8.1519  -16.1945 C   0  0  0  0  0  0  0  0  0  0  0  0
   19.7601   -7.9320  -17.3915 O   0  0  0  0  0  0  0  0  0  0  0  0
   18.6559   -7.1648  -15.5544 N   0  0  0  0  0  0  0  0  0  0  0  0
   18.2724   -5.9020  -16.2617 C   0  0  1  0  0  0  0  0  0  0  0  0
   16.7938   -5.8765  -16.3253 C   0  0  0  0  0  0  0  0  0  0  0  0
   16.0998   -4.7059  -16.8595 C   0  0  0  0  0  0  0  0  0  0  0  0
   14.6478   -4.6750  -16.9512 C   0  0  0  0  0  0  0  0  0  0  0  0
   13.9453   -5.6423  -16.5341 O   0  0  0  0  0  0  0  0  0  0  0  0
   18.8166   -4.8342  -15.4158 C   0  0  0  0  0  0  0  0  0  0  0  0
   19.1393   -4.9363  -14.2220 O   0  0  0  0  0  0  0  0  0  0  0  0
   13.9638   -3.5956  -17.4919 O   0  0  0  0  0  0  0  0  0  0  0  0
   19.0080   -3.5527  -15.9735 O   0  0  0  0  0  0  0  0  0  0  0  0
  2  4  1  0
  2  1  1  6
  3  2  1  0
  4  6  1  0
  4  5  1  1
  6  7  2  0
  8  9  1  0
  8  6  1  0
 10 11  1  0
  9 10  1  6
 11 12  2  0
 12 13  1  0
 14 13  2  0
 15 14  1  0
 16 15  2  0
 16 11  1  0
 17 18  2  0
 17  9  1  0
 19 17  1  0
 20 19  1  0
 20 25  1  0
 20 21  1  1
 22 23  1  0
 22 21  1  0
 23 24  2  0
 25 28  1  0
 26 25  2  0
 27 23  1  0
M  END
$$$$
