TFE.pdb
     RDKit          3D

 28 28  0  0  1  0  0  0  0  0999 V2000
   24.0264   -4.7829  -19.1674 C   0  0  0  0  0  0  0  0  0  0  0  0
   24.7103   -5.8232  -20.0013 C   0  0  1  0  0  0  0  0  0  0  0  0
   25.6505   -5.2217  -20.8352 O   0  0  0  0  0  0  0  0  0  0  0  0
   25.3647   -6.8958  -19.1514 C   0  0  2  0  0  0  0  0  0  0  0  0
   26.0634   -7.8665  -19.9547 N   0  0  0  0  0  0  0  0  0  0  0  0
   24.3515   -7.6078  -18.3217 C   0  0  0  0  0  0  0  0  0  0  0  0
   23.6482   -8.5509  -18.7689 O   0  0  0  0  0  0  0  0  0  0  0  0
   24.1416   -7.2342  -16.9613 N   0  0  0  0  0  0  0  0  0  0  0  0
   23.2456   -7.8907  -16.0634 C   0  0  1  0  0  0  0  0  0  0  0  0
   23.9253   -8.3400  -14.7876 C   0  0  0  0  0  0  0  0  0  0  0  0
   24.8094   -9.5075  -15.0178 C   0  0  0  0  0  0  0  0  0  0  0  0
   26.1635   -9.3408  -15.2873 C   0  0  0  0  0  0  0  0  0  0  0  0
   26.9671  -10.4422  -15.4982 C   0  0  0  0  0  0  0  0  0  0  0  0
   26.4832  -11.7381  -15.4547 C   0  0  0  0  0  0  0  0  0  0  0  0
   25.1396  -11.8965  -15.1871 C   0  0  0  0  0  0  0  0  0  0  0  0
   24.3337  -10.7991  -14.9757 C   0  0  0  0  0  0  0  0  0  0  0  0
   22.0918   -7.0153  -15.6868 C   0  0  0  0  0  0  0  0  0  0  0  0
   22.2736   -5.8783  -15.1823 O   0  0  0  0  0  0  0  0  0  0  0  0
   20.7467   -7.4176  -15.8765 N   0  0  0  0  0  0  0  0  0  0  0  0
   19.6112   -6.4918  -15.5678 C   0  0  1  0  0  0  0  0  0  0  0  0
   18.8612   -6.2955  -16.8287 C   0  0  0  0  0  0  0  0  0  0  0  0
   18.2397   -7.4353  -17.5010 C   0  0  0  0  0  0  0  0  0  0  0  0
   17.5272   -7.2642  -18.7582 C   0  0  0  0  0  0  0  0  0  0  0  0
   17.0126   -8.2534  -19.3582 O   0  0  0  0  0  0  0  0  0  0  0  0
   18.8277   -7.2059  -14.5538 C   0  0  0  0  0  0  0  0  0  0  0  0
   19.0041   -8.3759  -14.1798 O   0  0  0  0  0  0  0  0  0  0  0  0
   17.3734   -6.0225  -19.3581 O   0  0  0  0  0  0  0  0  0  0  0  0
   17.7625   -6.5350  -13.9174 O   0  0  0  0  0  0  0  0  0  0  0  0
  2  4  1  0
  2  1  1  1
  3  2  1  0
  4  6  1  0
  4  5  1  6
  6  7  2  0
  8  9  1  0
  8  6  1  0
 10 11  1  0
  9 10  1  1
 11 12  2  0
 12 13  1  0
 14 13  2  0
 15 14  1  0
 16 15  2  0
 16 11  1  0
 17 18  2  0
 17  9  1  0
 19 17  1  0
 20 19  1  0
 20 25  1  0
 20 21  1  6
 22 23  1  0
 22 21  1  0
 23 24  2  0
 25 28  1  0
 26 25  2  0
 27 23  1  0
M  END
$$$$
