TFE.pdb
     RDKit          3D

 28 28  0  0  1  0  0  0  0  0999 V2000
   28.5316  -20.0363  -18.1287 C   0  0  0  0  0  0  0  0  0  0  0  0
   27.4875  -20.4029  -17.1184 C   0  0  1  0  0  0  0  0  0  0  0  0
   26.2654  -20.6151  -17.7531 O   0  0  0  0  0  0  0  0  0  0  0  0
   27.8822  -21.6222  -16.3070 C   0  0  2  0  0  0  0  0  0  0  0  0
   27.9435  -22.8113  -17.1183 N   0  0  0  0  0  0  0  0  0  0  0  0
   26.9169  -21.8559  -15.1955 C   0  0  0  0  0  0  0  0  0  0  0  0
   26.0008  -22.7166  -15.2605 O   0  0  0  0  0  0  0  0  0  0  0  0
   27.0025  -21.0932  -13.9932 N   0  0  0  0  0  0  0  0  0  0  0  0
   26.0362  -21.1155  -12.9417 C   0  0  1  0  0  0  0  0  0  0  0  0
   26.4689  -20.3087  -11.7362 C   0  0  0  0  0  0  0  0  0  0  0  0
   25.4968  -20.4203  -10.6225 C   0  0  0  0  0  0  0  0  0  0  0  0
   24.3306  -19.6629  -10.6087 C   0  0  0  0  0  0  0  0  0  0  0  0
   23.4404  -19.7834   -9.5617 C   0  0  0  0  0  0  0  0  0  0  0  0
   23.6531  -20.6410   -8.4964 C   0  0  0  0  0  0  0  0  0  0  0  0
   24.8116  -21.3891   -8.5162 C   0  0  0  0  0  0  0  0  0  0  0  0
   25.7031  -21.2718   -9.5601 C   0  0  0  0  0  0  0  0  0  0  0  0
   24.7083  -20.5933  -13.3928 C   0  0  0  0  0  0  0  0  0  0  0  0
   24.5931  -19.4414  -13.8829 O   0  0  0  0  0  0  0  0  0  0  0  0
   23.5222  -21.3614  -13.2921 N   0  0  0  0  0  0  0  0  0  0  0  0
   22.2188  -20.8452  -13.8181 C   0  0  1  0  0  0  0  0  0  0  0  0
   21.7535  -21.8117  -14.8381 C   0  0  0  0  0  0  0  0  0  0  0  0
   20.4655  -21.6186  -15.5022 C   0  0  0  0  0  0  0  0  0  0  0  0
   20.0335  -22.5090  -16.5690 C   0  0  0  0  0  0  0  0  0  0  0  0
   18.9393  -22.3185  -17.1772 O   0  0  0  0  0  0  0  0  0  0  0  0
   21.3439  -20.8060  -12.6413 C   0  0  0  0  0  0  0  0  0  0  0  0
   21.3934  -21.5695  -11.6643 O   0  0  0  0  0  0  0  0  0  0  0  0
   20.7896  -23.5999  -16.9736 O   0  0  0  0  0  0  0  0  0  0  0  0
   20.3364  -19.8211  -12.5727 O   0  0  0  0  0  0  0  0  0  0  0  0
  2  4  1  0
  2  1  1  6
  3  2  1  0
  4  6  1  0
  4  5  1  6
  6  7  2  0
  8  9  1  0
  8  6  1  0
 10 11  1  0
  9 10  1  1
 11 12  2  0
 12 13  1  0
 14 13  2  0
 15 14  1  0
 16 15  2  0
 16 11  1  0
 17 18  2  0
 17  9  1  0
 19 17  1  0
 20 19  1  0
 20 25  1  0
 20 21  1  6
 22 23  1  0
 22 21  1  0
 23 24  2  0
 25 28  1  0
 26 25  2  0
 27 23  1  0
M  END
$$$$
