TFE.pdb
     RDKit          3D

 28 28  0  0  1  0  0  0  0  0999 V2000
   17.6813  -11.5460  -21.0862 C   0  0  0  0  0  0  0  0  0  0  0  0
   17.8411  -10.7521  -19.8255 C   0  0  1  0  0  0  0  0  0  0  0  0
   16.7072   -9.9722  -19.6077 O   0  0  0  0  0  0  0  0  0  0  0  0
   18.1141  -11.6376  -18.6246 C   0  0  2  0  0  0  0  0  0  0  0  0
   17.0387  -12.5662  -18.3856 N   0  0  0  0  0  0  0  0  0  0  0  0
   18.3154  -10.8187  -17.3955 C   0  0  0  0  0  0  0  0  0  0  0  0
   17.4185  -10.6664  -16.5258 O   0  0  0  0  0  0  0  0  0  0  0  0
   19.5614  -10.1657  -17.1597 N   0  0  0  0  0  0  0  0  0  0  0  0
   19.7951   -9.1985  -16.1351 C   0  0  1  0  0  0  0  0  0  0  0  0
   21.2362   -9.1778  -15.6719 C   0  0  0  0  0  0  0  0  0  0  0  0
   21.4628   -8.1507  -14.6271 C   0  0  0  0  0  0  0  0  0  0  0  0
   21.2353   -8.4303  -13.2840 C   0  0  0  0  0  0  0  0  0  0  0  0
   21.4532   -7.4587  -12.3291 C   0  0  0  0  0  0  0  0  0  0  0  0
   21.8976   -6.1870  -12.6465 C   0  0  0  0  0  0  0  0  0  0  0  0
   22.1211   -5.9162  -13.9802 C   0  0  0  0  0  0  0  0  0  0  0  0
   21.9049   -6.8839  -14.9369 C   0  0  0  0  0  0  0  0  0  0  0  0
   19.4345   -7.8160  -16.5799 C   0  0  0  0  0  0  0  0  0  0  0  0
   19.7015   -7.4141  -17.7407 O   0  0  0  0  0  0  0  0  0  0  0  0
   18.7799   -6.8954  -15.7247 N   0  0  0  0  0  0  0  0  0  0  0  0
   18.3673   -5.5422  -16.2151 C   0  0  1  0  0  0  0  0  0  0  0  0
   17.1922   -5.7426  -17.0926 C   0  0  0  0  0  0  0  0  0  0  0  0
   16.4536   -4.5912  -17.6087 C   0  0  0  0  0  0  0  0  0  0  0  0
   17.0594   -3.6858  -18.5736 C   0  0  0  0  0  0  0  0  0  0  0  0
   17.5765   -4.1214  -19.6441 O   0  0  0  0  0  0  0  0  0  0  0  0
   18.0359   -4.8004  -14.9937 C   0  0  0  0  0  0  0  0  0  0  0  0
   17.9411   -5.2739  -13.8505 O   0  0  0  0  0  0  0  0  0  0  0  0
   17.1001   -2.3131  -18.3753 O   0  0  0  0  0  0  0  0  0  0  0  0
   17.7949   -3.4134  -15.0820 O   0  0  0  0  0  0  0  0  0  0  0  0
  2  4  1  0
  2  1  1  6
  3  2  1  0
  4  6  1  0
  4  5  1  1
  6  7  2  0
  8  9  1  0
  8  6  1  0
 10 11  1  0
  9 10  1  6
 11 12  2  0
 12 13  1  0
 14 13  2  0
 15 14  1  0
 16 15  2  0
 16 11  1  0
 17 18  2  0
 17  9  1  0
 19 17  1  0
 20 19  1  0
 20 25  1  0
 20 21  1  6
 22 23  1  0
 22 21  1  0
 23 24  2  0
 25 28  1  0
 26 25  2  0
 27 23  1  0
M  END
$$$$
