TFE.pdb
     RDKit          3D

 28 28  0  0  1  0  0  0  0  0999 V2000
   26.1317  -19.1516  -16.8885 C   0  0  0  0  0  0  0  0  0  0  0  0
   26.3704  -20.4685  -17.5624 C   0  0  1  0  0  0  0  0  0  0  0  0
   26.9738  -20.2661  -18.8018 O   0  0  0  0  0  0  0  0  0  0  0  0
   27.2098  -21.4013  -16.7101 C   0  0  2  0  0  0  0  0  0  0  0  0
   27.4628  -22.6547  -17.3740 N   0  0  0  0  0  0  0  0  0  0  0  0
   26.5382  -21.6810  -15.4091 C   0  0  0  0  0  0  0  0  0  0  0  0
   25.5275  -22.4248  -15.3120 O   0  0  0  0  0  0  0  0  0  0  0  0
   27.0314  -21.1007  -14.2032 N   0  0  0  0  0  0  0  0  0  0  0  0
   26.3348  -21.0932  -12.9563 C   0  0  1  0  0  0  0  0  0  0  0  0
   27.2028  -20.6267  -11.8073 C   0  0  0  0  0  0  0  0  0  0  0  0
   26.4489  -20.5825  -10.5317 C   0  0  0  0  0  0  0  0  0  0  0  0
   25.9128  -21.7382   -9.9739 C   0  0  0  0  0  0  0  0  0  0  0  0
   25.2148  -21.6729   -8.7858 C   0  0  0  0  0  0  0  0  0  0  0  0
   25.0147  -20.4862   -8.1022 C   0  0  0  0  0  0  0  0  0  0  0  0
   25.5487  -19.3438   -8.6607 C   0  0  0  0  0  0  0  0  0  0  0  0
   26.2467  -19.4049   -9.8471 C   0  0  0  0  0  0  0  0  0  0  0  0
   25.1206  -20.2197  -13.0004 C   0  0  0  0  0  0  0  0  0  0  0  0
   25.2105  -18.9904  -13.2475 O   0  0  0  0  0  0  0  0  0  0  0  0
   23.8182  -20.7265  -12.7678 N   0  0  0  0  0  0  0  0  0  0  0  0
   22.6194  -19.8307  -12.8150 C   0  0  1  0  0  0  0  0  0  0  0  0
   22.3244  -19.5816  -14.2440 C   0  0  0  0  0  0  0  0  0  0  0  0
   22.0031  -20.6955  -15.1346 C   0  0  0  0  0  0  0  0  0  0  0  0
   21.8006  -20.4791  -16.5593 C   0  0  0  0  0  0  0  0  0  0  0  0
   21.5782  -21.4484  -17.3430 O   0  0  0  0  0  0  0  0  0  0  0  0
   21.5642  -20.6033  -12.1503 C   0  0  0  0  0  0  0  0  0  0  0  0
   20.4134  -20.2113  -11.9019 O   0  0  0  0  0  0  0  0  0  0  0  0
   21.8378  -19.2139  -17.1279 O   0  0  0  0  0  0  0  0  0  0  0  0
   21.8420  -21.9235  -11.7381 O   0  0  0  0  0  0  0  0  0  0  0  0
  2  4  1  0
  2  1  1  1
  3  2  1  0
  4  6  1  0
  4  5  1  6
  6  7  2  0
  8  9  1  0
  8  6  1  0
 10 11  1  0
  9 10  1  1
 11 12  2  0
 12 13  1  0
 14 13  2  0
 15 14  1  0
 16 15  2  0
 16 11  1  0
 17 18  2  0
 17  9  1  0
 19 17  1  0
 20 19  1  0
 20 25  1  0
 20 21  1  6
 22 23  1  0
 22 21  1  0
 23 24  2  0
 25 28  1  0
 26 25  2  0
 27 23  1  0
M  END
$$$$
