TFE.pdb
     RDKit          3D

 28 28  0  0  1  0  0  0  0  0999 V2000
   18.7762   -8.5147  -18.9095 C   0  0  0  0  0  0  0  0  0  0  0  0
   18.2764   -9.8626  -18.4871 C   0  0  1  0  0  0  0  0  0  0  0  0
   17.6740  -10.5060  -19.5662 O   0  0  0  0  0  0  0  0  0  0  0  0
   19.3814  -10.7241  -17.9059 C   0  0  2  0  0  0  0  0  0  0  0  0
   18.9040  -12.0311  -17.5321 N   0  0  0  0  0  0  0  0  0  0  0  0
   19.9830  -10.0777  -16.7050 C   0  0  0  0  0  0  0  0  0  0  0  0
   19.4991  -10.2055  -15.5502 O   0  0  0  0  0  0  0  0  0  0  0  0
   21.1549   -9.2742  -16.8291 N   0  0  0  0  0  0  0  0  0  0  0  0
   21.8603   -8.6851  -15.7358 C   0  0  1  0  0  0  0  0  0  0  0  0
   23.2859   -9.1827  -15.6271 C   0  0  0  0  0  0  0  0  0  0  0  0
   23.3401  -10.6299  -15.3107 C   0  0  0  0  0  0  0  0  0  0  0  0
   23.2445  -11.0823  -13.9991 C   0  0  0  0  0  0  0  0  0  0  0  0
   23.2975  -12.4341  -13.7285 C   0  0  0  0  0  0  0  0  0  0  0  0
   23.4450  -13.3883  -14.7201 C   0  0  0  0  0  0  0  0  0  0  0  0
   23.5394  -12.9330  -16.0185 C   0  0  0  0  0  0  0  0  0  0  0  0
   23.4867  -11.5838  -16.2930 C   0  0  0  0  0  0  0  0  0  0  0  0
   21.8999   -7.1926  -15.8363 C   0  0  0  0  0  0  0  0  0  0  0  0
   22.3764   -6.6198  -16.8488 O   0  0  0  0  0  0  0  0  0  0  0  0
   21.4079   -6.3541  -14.8058 N   0  0  0  0  0  0  0  0  0  0  0  0
   21.2907   -4.8743  -15.0018 C   0  0  1  0  0  0  0  0  0  0  0  0
   19.8841   -4.5126  -14.7162 C   0  0  0  0  0  0  0  0  0  0  0  0
   18.8380   -4.7916  -15.6986 C   0  0  0  0  0  0  0  0  0  0  0  0
   17.5581   -5.3503  -15.2895 C   0  0  0  0  0  0  0  0  0  0  0  0
   17.3300   -6.5929  -15.3735 O   0  0  0  0  0  0  0  0  0  0  0  0
   22.2262   -4.3051  -14.0257 C   0  0  0  0  0  0  0  0  0  0  0  0
   22.8192   -4.9255  -13.1294 O   0  0  0  0  0  0  0  0  0  0  0  0
   16.5324   -4.5608  -14.7893 O   0  0  0  0  0  0  0  0  0  0  0  0
   22.5075   -2.9237  -14.0755 O   0  0  0  0  0  0  0  0  0  0  0  0
  2  4  1  0
  2  1  1  6
  3  2  1  0
  4  6  1  0
  4  5  1  1
  6  7  2  0
  8  9  1  0
  8  6  1  0
 10 11  1  0
  9 10  1  6
 11 12  2  0
 12 13  1  0
 14 13  2  0
 15 14  1  0
 16 15  2  0
 16 11  1  0
 17 18  2  0
 17  9  1  0
 19 17  1  0
 20 19  1  0
 20 25  1  0
 20 21  1  1
 22 23  1  0
 22 21  1  0
 23 24  2  0
 25 28  1  0
 26 25  2  0
 27 23  1  0
M  END
$$$$
