TFE.pdb
     RDKit          3D

 28 28  0  0  1  0  0  0  0  0999 V2000
   24.5072  -36.7222  -10.6535 C   0  0  0  0  0  0  0  0  0  0  0  0
   25.0742  -35.9897  -11.8312 C   0  0  1  0  0  0  0  0  0  0  0  0
   24.9587  -36.7719  -12.9784 O   0  0  0  0  0  0  0  0  0  0  0  0
   24.4090  -34.6423  -12.0390 C   0  0  2  0  0  0  0  0  0  0  0  0
   24.9448  -33.9488  -13.1825 N   0  0  0  0  0  0  0  0  0  0  0  0
   24.5768  -33.7761  -10.8376 C   0  0  0  0  0  0  0  0  0  0  0  0
   25.5679  -33.0164  -10.6805 O   0  0  0  0  0  0  0  0  0  0  0  0
   23.5956  -33.7803   -9.8024 N   0  0  0  0  0  0  0  0  0  0  0  0
   23.6916  -33.0418   -8.5836 C   0  0  1  0  0  0  0  0  0  0  0  0
   22.4234  -32.2798   -8.2632 C   0  0  0  0  0  0  0  0  0  0  0  0
   22.2522  -31.1017   -9.1465 C   0  0  0  0  0  0  0  0  0  0  0  0
   21.2831  -31.0867  -10.1438 C   0  0  0  0  0  0  0  0  0  0  0  0
   21.1420  -29.9791  -10.9540 C   0  0  0  0  0  0  0  0  0  0  0  0
   21.9354  -28.8526  -10.8228 C   0  0  0  0  0  0  0  0  0  0  0  0
   22.8946  -28.8741   -9.8320 C   0  0  0  0  0  0  0  0  0  0  0  0
   23.0386  -29.9783   -9.0206 C   0  0  0  0  0  0  0  0  0  0  0  0
   24.0041  -33.9266   -7.4180 C   0  0  0  0  0  0  0  0  0  0  0  0
   23.3911  -35.0094   -7.2386 O   0  0  0  0  0  0  0  0  0  0  0  0
   24.9973  -33.5942   -6.4639 N   0  0  0  0  0  0  0  0  0  0  0  0
   25.2987  -34.5022   -5.3122 C   0  0  1  0  0  0  0  0  0  0  0  0
   26.5166  -33.9753   -4.6562 C   0  0  0  0  0  0  0  0  0  0  0  0
   26.9989  -34.5711   -3.4113 C   0  0  0  0  0  0  0  0  0  0  0  0
   28.4210  -34.7797   -3.1842 C   0  0  0  0  0  0  0  0  0  0  0  0
   28.9632  -35.8999   -3.4173 O   0  0  0  0  0  0  0  0  0  0  0  0
   24.1124  -34.4049   -4.4548 C   0  0  0  0  0  0  0  0  0  0  0  0
   23.5588  -35.3420   -3.8588 O   0  0  0  0  0  0  0  0  0  0  0  0
   29.2493  -33.7735   -2.7079 O   0  0  0  0  0  0  0  0  0  0  0  0
   23.5119  -33.1432   -4.2615 O   0  0  0  0  0  0  0  0  0  0  0  0
  2  4  1  0
  2  1  1  1
  3  2  1  0
  4  6  1  0
  4  5  1  6
  6  7  2  0
  8  9  1  0
  8  6  1  0
 10 11  1  0
  9 10  1  1
 11 12  2  0
 12 13  1  0
 14 13  2  0
 15 14  1  0
 16 15  2  0
 16 11  1  0
 17 18  2  0
 17  9  1  0
 19 17  1  0
 20 19  1  0
 20 25  1  0
 20 21  1  1
 22 23  1  0
 22 21  1  0
 23 24  2  0
 25 28  1  0
 26 25  2  0
 27 23  1  0
M  END
$$$$
