TFE.pdb
     RDKit          3D

 28 28  0  0  1  0  0  0  0  0999 V2000
   27.9178  -12.2638  -15.3105 C   0  0  0  0  0  0  0  0  0  0  0  0
   26.9875  -11.2849  -15.9597 C   0  0  1  0  0  0  0  0  0  0  0  0
   27.6981  -10.4555  -16.8248 O   0  0  0  0  0  0  0  0  0  0  0  0
   25.8566  -11.9761  -16.6975 C   0  0  2  0  0  0  0  0  0  0  0  0
   26.3292  -12.6980  -17.8513 N   0  0  0  0  0  0  0  0  0  0  0  0
   24.8316  -10.9897  -17.1426 C   0  0  0  0  0  0  0  0  0  0  0  0
   24.8261  -10.4893  -18.2975 O   0  0  0  0  0  0  0  0  0  0  0  0
   23.7988  -10.5710  -16.2523 N   0  0  0  0  0  0  0  0  0  0  0  0
   22.7603   -9.6480  -16.5832 C   0  0  1  0  0  0  0  0  0  0  0  0
   21.3988  -10.3055  -16.6574 C   0  0  0  0  0  0  0  0  0  0  0  0
   21.2276  -11.0742  -17.9133 C   0  0  0  0  0  0  0  0  0  0  0  0
   21.4565  -12.4454  -17.9529 C   0  0  0  0  0  0  0  0  0  0  0  0
   21.2907  -13.1401  -19.1331 C   0  0  0  0  0  0  0  0  0  0  0  0
   20.8986  -12.5277  -20.3107 C   0  0  0  0  0  0  0  0  0  0  0  0
   20.6734  -11.1678  -20.2647 C   0  0  0  0  0  0  0  0  0  0  0  0
   20.8376  -10.4704  -19.0878 C   0  0  0  0  0  0  0  0  0  0  0  0
   22.6764   -8.5253  -15.5973 C   0  0  0  0  0  0  0  0  0  0  0  0
   22.8206   -8.7277  -14.3650 O   0  0  0  0  0  0  0  0  0  0  0  0
   22.4318   -7.1881  -15.9962 N   0  0  0  0  0  0  0  0  0  0  0  0
   22.4710   -6.0656  -15.0061 C   0  0  1  0  0  0  0  0  0  0  0  0
   22.3706   -4.8069  -15.7785 C   0  0  0  0  0  0  0  0  0  0  0  0
   22.1807   -3.5323  -15.0881 C   0  0  0  0  0  0  0  0  0  0  0  0
   22.0071   -2.2959  -15.8354 C   0  0  0  0  0  0  0  0  0  0  0  0
   21.7615   -1.2033  -15.2444 O   0  0  0  0  0  0  0  0  0  0  0  0
   21.3004   -6.2954  -14.1524 C   0  0  0  0  0  0  0  0  0  0  0  0
   20.1951   -6.7218  -14.5217 O   0  0  0  0  0  0  0  0  0  0  0  0
   22.1028   -2.2482  -17.2189 O   0  0  0  0  0  0  0  0  0  0  0  0
   21.3974   -6.0188  -12.7726 O   0  0  0  0  0  0  0  0  0  0  0  0
  2  4  1  0
  2  1  1  6
  3  2  1  0
  4  6  1  0
  4  5  1  6
  6  7  2  0
  8  9  1  0
  8  6  1  0
 10 11  1  0
  9 10  1  1
 11 12  2  0
 12 13  1  0
 14 13  2  0
 15 14  1  0
 16 15  2  0
 16 11  1  0
 17 18  2  0
 17  9  1  0
 19 17  1  0
 20 19  1  0
 20 25  1  0
 20 21  1  6
 22 23  1  0
 22 21  1  0
 23 24  2  0
 25 28  1  0
 26 25  2  0
 27 23  1  0
M  END
$$$$
