TFE.pdb
     RDKit          3D

 28 28  0  0  1  0  0  0  0  0999 V2000
   18.9560   -8.9293  -19.2373 C   0  0  0  0  0  0  0  0  0  0  0  0
   18.6560  -10.1381  -18.4043 C   0  0  1  0  0  0  0  0  0  0  0  0
   18.6466  -11.2777  -19.2059 O   0  0  0  0  0  0  0  0  0  0  0  0
   19.6402  -10.3018  -17.2617 C   0  0  2  0  0  0  0  0  0  0  0  0
   19.3621  -11.4775  -16.4766 N   0  0  0  0  0  0  0  0  0  0  0  0
   19.6124   -9.1136  -16.3622 C   0  0  0  0  0  0  0  0  0  0  0  0
   18.7101   -8.9320  -15.5037 O   0  0  0  0  0  0  0  0  0  0  0  0
   20.6322   -8.1201  -16.4474 N   0  0  0  0  0  0  0  0  0  0  0  0
   20.7222   -6.9683  -15.6076 C   0  0  1  0  0  0  0  0  0  0  0  0
   22.0422   -6.8865  -14.8711 C   0  0  0  0  0  0  0  0  0  0  0  0
   22.1687   -7.9536  -13.8498 C   0  0  0  0  0  0  0  0  0  0  0  0
   21.5474   -7.8390  -12.6109 C   0  0  0  0  0  0  0  0  0  0  0  0
   21.6791   -8.8448  -11.6759 C   0  0  0  0  0  0  0  0  0  0  0  0
   22.4168   -9.9917  -11.9127 C   0  0  0  0  0  0  0  0  0  0  0  0
   23.0304  -10.0990  -13.1431 C   0  0  0  0  0  0  0  0  0  0  0  0
   22.9011   -9.0968  -14.0797 C   0  0  0  0  0  0  0  0  0  0  0  0
   20.5466   -5.6989  -16.3804 C   0  0  0  0  0  0  0  0  0  0  0  0
   20.9714   -5.5888  -17.5584 O   0  0  0  0  0  0  0  0  0  0  0  0
   19.8993   -4.5650  -15.8307 N   0  0  0  0  0  0  0  0  0  0  0  0
   19.3843   -3.4666  -16.7084 C   0  0  1  0  0  0  0  0  0  0  0  0
   18.4045   -4.0789  -17.6336 C   0  0  0  0  0  0  0  0  0  0  0  0
   17.5992   -3.2365  -18.5164 C   0  0  0  0  0  0  0  0  0  0  0  0
   16.5926   -3.8183  -19.3915 C   0  0  0  0  0  0  0  0  0  0  0  0
   16.6835   -3.7179  -20.6504 O   0  0  0  0  0  0  0  0  0  0  0  0
   18.7612   -2.5208  -15.7762 C   0  0  0  0  0  0  0  0  0  0  0  0
   18.2705   -2.7960  -14.6701 O   0  0  0  0  0  0  0  0  0  0  0  0
   15.4939   -4.5080  -18.8990 O   0  0  0  0  0  0  0  0  0  0  0  0
   18.6929   -1.1573  -16.1315 O   0  0  0  0  0  0  0  0  0  0  0  0
  2  4  1  0
  2  1  1  6
  3  2  1  0
  4  6  1  0
  4  5  1  1
  6  7  2  0
  8  9  1  0
  8  6  1  0
 10 11  1  0
  9 10  1  6
 11 12  2  0
 12 13  1  0
 14 13  2  0
 15 14  1  0
 16 15  2  0
 16 11  1  0
 17 18  2  0
 17  9  1  0
 19 17  1  0
 20 19  1  0
 20 25  1  0
 20 21  1  6
 22 23  1  0
 22 21  1  0
 23 24  2  0
 25 28  1  0
 26 25  2  0
 27 23  1  0
M  END
$$$$
