TFE.pdb
     RDKit          3D

 28 28  0  0  1  0  0  0  0  0999 V2000
   19.5403  -12.3302  -21.2359 C   0  0  0  0  0  0  0  0  0  0  0  0
   19.4565  -11.4585  -20.0201 C   0  0  1  0  0  0  0  0  0  0  0  0
   18.1604  -10.9685  -19.8746 O   0  0  0  0  0  0  0  0  0  0  0  0
   19.8913  -12.1888  -18.7637 C   0  0  2  0  0  0  0  0  0  0  0  0
   19.0670  -13.3403  -18.4985 N   0  0  0  0  0  0  0  0  0  0  0  0
   19.8391  -11.2854  -17.5791 C   0  0  0  0  0  0  0  0  0  0  0  0
   18.8807  -11.2891  -16.7633 O   0  0  0  0  0  0  0  0  0  0  0  0
   20.8994  -10.3656  -17.3260 N   0  0  0  0  0  0  0  0  0  0  0  0
   20.8660   -9.3324  -16.3404 C   0  0  1  0  0  0  0  0  0  0  0  0
   22.1975   -9.1490  -15.6440 C   0  0  0  0  0  0  0  0  0  0  0  0
   22.1257   -8.1140  -14.5850 C   0  0  0  0  0  0  0  0  0  0  0  0
   21.7443   -8.4392  -13.2878 C   0  0  0  0  0  0  0  0  0  0  0  0
   21.6847   -7.4592  -12.3186 C   0  0  0  0  0  0  0  0  0  0  0  0
   21.9925   -6.1348  -12.5768 C   0  0  0  0  0  0  0  0  0  0  0  0
   22.3698   -5.8190  -13.8652 C   0  0  0  0  0  0  0  0  0  0  0  0
   22.4308   -6.7948  -14.8360 C   0  0  0  0  0  0  0  0  0  0  0  0
   20.4674   -8.0145  -16.9266 C   0  0  0  0  0  0  0  0  0  0  0  0
   21.0487   -7.5488  -17.9393 O   0  0  0  0  0  0  0  0  0  0  0  0
   19.4245   -7.2291  -16.3765 N   0  0  0  0  0  0  0  0  0  0  0  0
   19.0444   -5.9136  -16.9823 C   0  0  1  0  0  0  0  0  0  0  0  0
   17.5686   -5.9023  -17.0952 C   0  0  0  0  0  0  0  0  0  0  0  0
   16.7383   -5.8620  -15.8926 C   0  0  0  0  0  0  0  0  0  0  0  0
   15.2901   -5.7544  -15.9872 C   0  0  0  0  0  0  0  0  0  0  0  0
   14.7215   -4.6253  -16.0591 O   0  0  0  0  0  0  0  0  0  0  0  0
   19.5420   -4.9181  -16.0265 C   0  0  0  0  0  0  0  0  0  0  0  0
   19.6742   -3.7021  -16.2355 O   0  0  0  0  0  0  0  0  0  0  0  0
   14.4652   -6.8700  -16.0058 O   0  0  0  0  0  0  0  0  0  0  0  0
   19.9165   -5.3410  -14.7339 O   0  0  0  0  0  0  0  0  0  0  0  0
  2  4  1  0
  2  1  1  6
  3  2  1  0
  4  6  1  0
  4  5  1  1
  6  7  2  0
  8  9  1  0
  8  6  1  0
 10 11  1  0
  9 10  1  6
 11 12  2  0
 12 13  1  0
 14 13  2  0
 15 14  1  0
 16 15  2  0
 16 11  1  0
 17 18  2  0
 17  9  1  0
 19 17  1  0
 20 19  1  0
 20 25  1  0
 20 21  1  1
 22 23  1  0
 22 21  1  0
 23 24  2  0
 25 28  1  0
 26 25  2  0
 27 23  1  0
M  END
$$$$
