TFE.pdb
     RDKit          3D

 28 28  0  0  1  0  0  0  0  0999 V2000
   27.6489  -19.7831  -19.4377 C   0  0  0  0  0  0  0  0  0  0  0  0
   26.8563  -20.1876  -18.2322 C   0  0  1  0  0  0  0  0  0  0  0  0
   25.6504  -20.7631  -18.6270 O   0  0  0  0  0  0  0  0  0  0  0  0
   27.6277  -21.1363  -17.3345 C   0  0  2  0  0  0  0  0  0  0  0  0
   27.9344  -22.3767  -18.0003 N   0  0  0  0  0  0  0  0  0  0  0  0
   26.8563  -21.4412  -16.0960 C   0  0  0  0  0  0  0  0  0  0  0  0
   26.0184  -22.3781  -16.0305 O   0  0  0  0  0  0  0  0  0  0  0  0
   27.0475  -20.6620  -14.9167 N   0  0  0  0  0  0  0  0  0  0  0  0
   26.2996  -20.8116  -13.7092 C   0  0  1  0  0  0  0  0  0  0  0  0
   27.0442  -20.2971  -12.4957 C   0  0  0  0  0  0  0  0  0  0  0  0
   26.2755  -20.5134  -11.2468 C   0  0  0  0  0  0  0  0  0  0  0  0
   26.5154  -21.6191  -10.4383 C   0  0  0  0  0  0  0  0  0  0  0  0
   25.7875  -21.7998   -9.2803 C   0  0  0  0  0  0  0  0  0  0  0  0
   24.8051  -20.9150   -8.8709 C   0  0  0  0  0  0  0  0  0  0  0  0
   24.5721  -19.8207   -9.6772 C   0  0  0  0  0  0  0  0  0  0  0  0
   25.2970  -19.6366  -10.8344 C   0  0  0  0  0  0  0  0  0  0  0  0
   24.9833  -20.1030  -13.7764 C   0  0  0  0  0  0  0  0  0  0  0  0
   24.8976  -18.9268  -14.2118 O   0  0  0  0  0  0  0  0  0  0  0  0
   23.7759  -20.7138  -13.3568 N   0  0  0  0  0  0  0  0  0  0  0  0
   22.4648  -20.0010  -13.4789 C   0  0  1  0  0  0  0  0  0  0  0  0
   22.1888  -19.8529  -14.9256 C   0  0  0  0  0  0  0  0  0  0  0  0
   21.1925  -20.7025  -15.5760 C   0  0  0  0  0  0  0  0  0  0  0  0
   20.1285  -20.1237  -16.3826 C   0  0  0  0  0  0  0  0  0  0  0  0
   20.2866  -19.0170  -16.9770 O   0  0  0  0  0  0  0  0  0  0  0  0
   21.5065  -20.8896  -12.8126 C   0  0  0  0  0  0  0  0  0  0  0  0
   20.4362  -20.5506  -12.2841 O   0  0  0  0  0  0  0  0  0  0  0  0
   18.8995  -20.7476  -16.5433 O   0  0  0  0  0  0  0  0  0  0  0  0
   21.7896  -22.2699  -12.7443 O   0  0  0  0  0  0  0  0  0  0  0  0
  2  4  1  0
  2  1  1  6
  3  2  1  0
  4  6  1  0
  4  5  1  6
  6  7  2  0
  8  9  1  0
  8  6  1  0
 10 11  1  0
  9 10  1  1
 11 12  2  0
 12 13  1  0
 14 13  2  0
 15 14  1  0
 16 15  2  0
 16 11  1  0
 17 18  2  0
 17  9  1  0
 19 17  1  0
 20 19  1  0
 20 25  1  0
 20 21  1  6
 22 23  1  0
 22 21  1  0
 23 24  2  0
 25 28  1  0
 26 25  2  0
 27 23  1  0
M  END
$$$$
