HMN.pdb
     RDKit          3D

 27 27  0  0  1  0  0  0  0  0999 V2000
   10.2990  -13.4563   19.7905 N   0  0  0  0  0  0  0  0  0  0  0  0
    9.0588  -13.9097   20.3409 C   0  0  1  0  0  0  0  0  0  0  0  0
    8.6419  -15.1509   19.5797 C   0  0  0  0  0  0  0  0  0  0  0  0
    8.2068  -14.7693   18.2158 C   0  0  0  0  0  0  0  0  0  0  0  0
    8.2986  -13.5138   17.6340 C   0  0  0  0  0  0  0  0  0  0  0  0
    7.7979  -13.5757   16.3926 N   0  0  0  0  0  0  0  0  0  0  0  0
    7.3867  -14.8306   16.1563 C   0  0  0  0  0  0  0  0  0  0  0  0
    7.6405  -15.5551   17.2776 N   0  0  0  0  0  0  0  0  0  0  0  0
    9.2069  -14.1907   21.7859 C   0  0  0  0  0  0  0  0  0  0  0  0
   10.3226  -14.5434   22.2419 O   0  0  0  0  0  0  0  0  0  0  0  0
    7.1049  -12.3593   28.7926 C   0  0  0  0  0  0  0  0  0  0  0  0
    7.3827  -12.2426   27.0202 S   0  0  0  0  0  0  0  0  0  0  0  0
    6.7855  -13.7209   26.1426 C   0  0  0  0  0  0  0  0  0  0  0  0
    6.9908  -13.6258   24.6772 C   0  0  0  0  0  0  0  0  0  0  0  0
    8.2347  -14.2339   24.1232 C   0  0  2  0  0  0  0  0  0  0  0  0
    8.1077  -14.0659   22.6535 N   0  0  0  0  0  0  0  0  0  0  0  0
    8.4655  -15.6417   24.4547 C   0  0  0  0  0  0  0  0  0  0  0  0
    7.5685  -16.5203   24.2097 O   0  0  0  0  0  0  0  0  0  0  0  0
   10.3303  -18.0191   22.8280 N   0  0  0  0  0  0  0  0  0  0  0  0
   11.4340  -18.1707   23.7508 C   0  0  0  0  0  0  0  0  0  0  0  0
   12.5504  -18.4890   23.3052 O   0  0  0  0  0  0  0  0  0  0  0  0
   11.2307  -17.9505   25.1893 C   0  0  0  0  0  0  0  0  0  0  0  0
    9.8636  -17.4822   25.5018 C   0  0  2  0  0  0  0  0  0  0  0  0
    9.6718  -16.0850   25.0476 N   0  0  0  0  0  0  0  0  0  0  0  0
    9.6298  -17.5062   26.9716 C   0  0  0  0  0  0  0  0  0  0  0  0
    9.5239  -16.4668   27.6245 O   0  0  0  0  0  0  0  0  0  0  0  0
    9.5202  -18.7045   27.6778 O   0  0  0  0  0  0  0  0  0  0  0  0
  2  1  1  6
  2  3  1  0
  4  8  1  0
  4  3  1  0
  5  4  2  0
  6  5  1  0
  6  7  1  0
  7  8  2  0
  9  2  1  0
 10  9  2  0
 12 11  1  0
 13 12  1  0
 14 13  1  0
 15 14  1  1
 15 16  1  0
 16  9  1  0
 17 15  1  0
 17 18  2  0
 20 21  2  0
 20 19  1  0
 22 20  1  0
 23 22  1  1
 23 24  1  0
 24 17  1  0
 25 23  1  0
 26 25  2  0
 27 25  1  0
M  END
$$$$
