HMN.pdb
     RDKit          3D

 27 27  0  0  1  0  0  0  0  0999 V2000
    8.7251  -15.7758   20.5928 N   0  0  0  0  0  0  0  0  0  0  0  0
    8.7799  -14.3687   20.8447 C   0  0  1  0  0  0  0  0  0  0  0  0
    7.5582  -13.7378   20.2099 C   0  0  0  0  0  0  0  0  0  0  0  0
    7.6706  -13.8216   18.7349 C   0  0  0  0  0  0  0  0  0  0  0  0
    8.7587  -13.4469   17.9610 C   0  0  0  0  0  0  0  0  0  0  0  0
    8.4712  -13.6765   16.6724 N   0  0  0  0  0  0  0  0  0  0  0  0
    7.2331  -14.1868   16.5918 C   0  0  0  0  0  0  0  0  0  0  0  0
    6.7499  -14.2725   17.8590 N   0  0  0  0  0  0  0  0  0  0  0  0
    8.8248  -14.1057   22.3000 C   0  0  0  0  0  0  0  0  0  0  0  0
    9.0205  -12.9375   22.7174 O   0  0  0  0  0  0  0  0  0  0  0  0
    7.8907  -12.0151   27.8984 C   0  0  0  0  0  0  0  0  0  0  0  0
    6.7741  -12.1023   26.4920 S   0  0  0  0  0  0  0  0  0  0  0  0
    6.4798  -13.8199   25.9670 C   0  0  0  0  0  0  0  0  0  0  0  0
    7.0954  -14.1188   24.6516 C   0  0  0  0  0  0  0  0  0  0  0  0
    8.3603  -14.9087   24.6558 C   0  0  2  0  0  0  0  0  0  0  0  0
    8.6499  -15.1540   23.2203 N   0  0  0  0  0  0  0  0  0  0  0  0
    8.3254  -16.1755   25.3898 C   0  0  0  0  0  0  0  0  0  0  0  0
    7.9303  -16.2089   26.6060 O   0  0  0  0  0  0  0  0  0  0  0  0
   10.7098  -18.9682   22.1251 N   0  0  0  0  0  0  0  0  0  0  0  0
   11.5402  -18.5630   23.2383 C   0  0  0  0  0  0  0  0  0  0  0  0
   12.6528  -19.0987   23.3843 O   0  0  0  0  0  0  0  0  0  0  0  0
   11.0691  -17.5346   24.1763 C   0  0  0  0  0  0  0  0  0  0  0  0
   10.0209  -18.0393   25.0886 C   0  0  2  0  0  0  0  0  0  0  0  0
    8.7177  -17.3985   24.7949 N   0  0  0  0  0  0  0  0  0  0  0  0
   10.3636  -17.7189   26.5012 C   0  0  0  0  0  0  0  0  0  0  0  0
   10.7317  -18.5915   27.2890 O   0  0  0  0  0  0  0  0  0  0  0  0
   10.2836  -16.4178   26.9988 O   0  0  0  0  0  0  0  0  0  0  0  0
  2  1  1  1
  2  3  1  0
  4  8  1  0
  4  3  1  0
  5  4  2  0
  6  5  1  0
  6  7  1  0
  7  8  2  0
  9  2  1  0
 10  9  2  0
 12 11  1  0
 13 12  1  0
 14 13  1  0
 15 14  1  6
 15 16  1  0
 16  9  1  0
 17 15  1  0
 17 18  2  0
 20 21  2  0
 20 19  1  0
 22 20  1  0
 23 22  1  6
 23 24  1  0
 24 17  1  0
 25 23  1  0
 26 25  2  0
 27 25  1  0
M  END
$$$$
