HMN.pdb
     RDKit          3D

 27 27  0  0  1  0  0  0  0  0999 V2000
   10.8839  -13.6849   19.8979 N   0  0  0  0  0  0  0  0  0  0  0  0
    9.5754  -14.0775   20.3226 C   0  0  1  0  0  0  0  0  0  0  0  0
    9.1723  -15.2926   19.5133 C   0  0  0  0  0  0  0  0  0  0  0  0
    8.7307  -14.8627   18.1659 C   0  0  0  0  0  0  0  0  0  0  0  0
    8.8346  -13.5908   17.6229 C   0  0  0  0  0  0  0  0  0  0  0  0
    8.3226  -13.6071   16.3846 N   0  0  0  0  0  0  0  0  0  0  0  0
    7.8923  -14.8484   16.1130 C   0  0  0  0  0  0  0  0  0  0  0  0
    8.1458  -15.6111   17.2088 N   0  0  0  0  0  0  0  0  0  0  0  0
    9.5696  -14.3722   21.7724 C   0  0  0  0  0  0  0  0  0  0  0  0
   10.6368  -14.7019   22.3465 O   0  0  0  0  0  0  0  0  0  0  0  0
    7.0471  -12.6638   28.5417 C   0  0  0  0  0  0  0  0  0  0  0  0
    7.5097  -12.5939   26.8058 S   0  0  0  0  0  0  0  0  0  0  0  0
    6.6842  -13.8913   25.8325 C   0  0  0  0  0  0  0  0  0  0  0  0
    7.0410  -13.8280   24.3947 C   0  0  0  0  0  0  0  0  0  0  0  0
    8.3534  -14.4111   23.9927 C   0  0  2  0  0  0  0  0  0  0  0  0
    8.3780  -14.2860   22.5134 N   0  0  0  0  0  0  0  0  0  0  0  0
    8.5879  -15.8016   24.3880 C   0  0  0  0  0  0  0  0  0  0  0  0
    7.7159  -16.7028   24.1351 O   0  0  0  0  0  0  0  0  0  0  0  0
   13.3396  -17.5586   23.9322 N   0  0  0  0  0  0  0  0  0  0  0  0
   11.9833  -17.9980   24.1772 C   0  0  0  0  0  0  0  0  0  0  0  0
   11.3102  -18.4297   23.2249 O   0  0  0  0  0  0  0  0  0  0  0  0
   11.4180  -17.9320   25.5319 C   0  0  0  0  0  0  0  0  0  0  0  0
    9.9794  -17.5912   25.5281 C   0  0  2  0  0  0  0  0  0  0  0  0
    9.7709  -16.2034   25.0531 N   0  0  0  0  0  0  0  0  0  0  0  0
    9.4219  -17.6762   26.9056 C   0  0  0  0  0  0  0  0  0  0  0  0
   10.1513  -17.6596   27.8984 O   0  0  0  0  0  0  0  0  0  0  0  0
    8.0498  -17.7792   27.1369 O   0  0  0  0  0  0  0  0  0  0  0  0
  2  1  1  6
  2  3  1  0
  4  8  1  0
  4  3  1  0
  5  4  2  0
  6  5  1  0
  6  7  1  0
  7  8  2  0
  9  2  1  0
 10  9  2  0
 12 11  1  0
 13 12  1  0
 14 13  1  0
 15 14  1  6
 15 16  1  0
 16  9  1  0
 17 15  1  0
 17 18  2  0
 20 21  2  0
 20 19  1  0
 22 20  1  0
 23 22  1  1
 23 24  1  0
 24 17  1  0
 25 23  1  0
 26 25  2  0
 27 25  1  0
M  END
$$$$
