HMN.pdb
     RDKit          3D

 27 27  0  0  1  0  0  0  0  0999 V2000
    8.9741  -16.7783   19.2197 N   0  0  0  0  0  0  0  0  0  0  0  0
    8.3691  -17.0670   20.4835 C   0  0  1  0  0  0  0  0  0  0  0  0
    8.5704  -18.5413   20.7659 C   0  0  0  0  0  0  0  0  0  0  0  0
    7.9201  -19.3401   19.7009 C   0  0  0  0  0  0  0  0  0  0  0  0
    6.5639  -19.5950   19.5629 C   0  0  0  0  0  0  0  0  0  0  0  0
    6.3761  -20.3549   18.4752 N   0  0  0  0  0  0  0  0  0  0  0  0
    7.5677  -20.5976   17.9086 C   0  0  0  0  0  0  0  0  0  0  0  0
    8.5078  -19.9727   18.6652 N   0  0  0  0  0  0  0  0  0  0  0  0
    8.9684  -16.2303   21.5463 C   0  0  0  0  0  0  0  0  0  0  0  0
   10.2153  -16.0902   21.6018 O   0  0  0  0  0  0  0  0  0  0  0  0
    5.6000  -13.2796   27.1805 C   0  0  0  0  0  0  0  0  0  0  0  0
    6.1383  -12.2996   25.7727 S   0  0  0  0  0  0  0  0  0  0  0  0
    7.7050  -12.9138   25.0797 C   0  0  0  0  0  0  0  0  0  0  0  0
    7.4908  -13.9011   23.9944 C   0  0  0  0  0  0  0  0  0  0  0  0
    8.6933  -14.6154   23.4769 C   0  0  2  0  0  0  0  0  0  0  0  0
    8.1528  -15.5899   22.4956 N   0  0  0  0  0  0  0  0  0  0  0  0
    9.5126  -15.3039   24.4766 C   0  0  0  0  0  0  0  0  0  0  0  0
   10.1564  -14.6363   25.3577 O   0  0  0  0  0  0  0  0  0  0  0  0
   11.3395  -18.7835   27.7964 N   0  0  0  0  0  0  0  0  0  0  0  0
   10.1803  -17.9466   28.0163 C   0  0  0  0  0  0  0  0  0  0  0  0
    9.7014  -17.8720   29.1614 O   0  0  0  0  0  0  0  0  0  0  0  0
    9.5846  -17.2002   26.8994 C   0  0  0  0  0  0  0  0  0  0  0  0
   10.2978  -17.4265   25.6242 C   0  0  2  0  0  0  0  0  0  0  0  0
    9.6238  -16.7144   24.5134 N   0  0  0  0  0  0  0  0  0  0  0  0
   10.3038  -18.8752   25.2826 C   0  0  0  0  0  0  0  0  0  0  0  0
    9.6354  -19.3199   24.3481 O   0  0  0  0  0  0  0  0  0  0  0  0
   11.0646  -19.7961   26.0036 O   0  0  0  0  0  0  0  0  0  0  0  0
  2  1  1  6
  2  3  1  0
  4  8  1  0
  4  3  1  0
  5  4  2  0
  6  5  1  0
  6  7  1  0
  7  8  2  0
  9  2  1  0
 10  9  2  0
 12 11  1  0
 13 12  1  0
 14 13  1  0
 15 14  1  1
 15 16  1  0
 16  9  1  0
 17 15  1  0
 17 18  2  0
 20 21  2  0
 20 19  1  0
 22 20  1  0
 23 22  1  1
 23 24  1  0
 24 17  1  0
 25 23  1  0
 26 25  2  0
 27 25  1  0
M  END
$$$$
