HMN.pdb
     RDKit          3D

 27 27  0  0  1  0  0  0  0  0999 V2000
   10.3153  -16.1926   20.4523 N   0  0  0  0  0  0  0  0  0  0  0  0
    9.4282  -16.6981   21.4544 C   0  0  1  0  0  0  0  0  0  0  0  0
    9.3603  -18.2027   21.2947 C   0  0  0  0  0  0  0  0  0  0  0  0
    9.2121  -18.5396   19.8595 C   0  0  0  0  0  0  0  0  0  0  0  0
    8.9928  -17.6536   18.8154 C   0  0  0  0  0  0  0  0  0  0  0  0
    8.9157  -18.3460   17.6707 N   0  0  0  0  0  0  0  0  0  0  0  0
    9.0783  -19.6493   17.9442 C   0  0  0  0  0  0  0  0  0  0  0  0
    9.2592  -19.7593   19.2866 N   0  0  0  0  0  0  0  0  0  0  0  0
    9.9051  -16.3226   22.8036 C   0  0  0  0  0  0  0  0  0  0  0  0
   10.2868  -17.2144   23.6012 O   0  0  0  0  0  0  0  0  0  0  0  0
    6.0135  -12.1626   27.1100 C   0  0  0  0  0  0  0  0  0  0  0  0
    7.2671  -12.5936   25.8955 S   0  0  0  0  0  0  0  0  0  0  0  0
    6.7067  -13.9241   24.7873 C   0  0  0  0  0  0  0  0  0  0  0  0
    7.7584  -14.3355   23.8264 C   0  0  0  0  0  0  0  0  0  0  0  0
    9.1471  -14.4695   24.3533 C   0  0  2  0  0  0  0  0  0  0  0  0
    9.9348  -14.9742   23.2003 N   0  0  0  0  0  0  0  0  0  0  0  0
    9.3145  -15.3545   25.5082 C   0  0  0  0  0  0  0  0  0  0  0  0
    8.9674  -14.9670   26.6769 O   0  0  0  0  0  0  0  0  0  0  0  0
   10.0024  -21.1492   27.0553 N   0  0  0  0  0  0  0  0  0  0  0  0
    9.4023  -19.8553   27.2971 C   0  0  0  0  0  0  0  0  0  0  0  0
    8.9874  -19.5892   28.4387 O   0  0  0  0  0  0  0  0  0  0  0  0
    9.2888  -18.8773   26.2062 C   0  0  0  0  0  0  0  0  0  0  0  0
    9.9412  -17.5908   26.5303 C   0  0  2  0  0  0  0  0  0  0  0  0
    9.8557  -16.6564   25.3837 N   0  0  0  0  0  0  0  0  0  0  0  0
   11.3853  -17.8004   26.8239 C   0  0  0  0  0  0  0  0  0  0  0  0
   11.7573  -18.5584   27.7210 O   0  0  0  0  0  0  0  0  0  0  0  0
   12.3838  -17.1490   26.0989 O   0  0  0  0  0  0  0  0  0  0  0  0
  2  1  1  6
  2  3  1  0
  4  8  1  0
  4  3  1  0
  5  4  2  0
  6  5  1  0
  6  7  1  0
  7  8  2  0
  9  2  1  0
 10  9  2  0
 12 11  1  0
 13 12  1  0
 14 13  1  0
 15 14  1  6
 15 16  1  0
 16  9  1  0
 17 15  1  0
 17 18  2  0
 20 21  2  0
 20 19  1  0
 22 20  1  0
 23 22  1  6
 23 24  1  0
 24 17  1  0
 25 23  1  0
 26 25  2  0
 27 25  1  0
M  END
$$$$
