HMN.pdb
     RDKit          3D

 27 27  0  0  1  0  0  0  0  0999 V2000
    8.0823  -16.0580   21.1421 N   0  0  0  0  0  0  0  0  0  0  0  0
    8.6364  -14.7486   21.3003 C   0  0  1  0  0  0  0  0  0  0  0  0
    7.7063  -13.7678   20.6171 C   0  0  0  0  0  0  0  0  0  0  0  0
    7.7534  -13.9832   19.1520 C   0  0  0  0  0  0  0  0  0  0  0  0
    8.4439  -13.2219   18.2209 C   0  0  0  0  0  0  0  0  0  0  0  0
    8.2351  -13.7372   17.0017 N   0  0  0  0  0  0  0  0  0  0  0  0
    7.4322  -14.8058   17.1177 C   0  0  0  0  0  0  0  0  0  0  0  0
    7.1418  -14.9496   18.4375 N   0  0  0  0  0  0  0  0  0  0  0  0
    8.7971  -14.4255   22.7351 C   0  0  0  0  0  0  0  0  0  0  0  0
    9.6212  -13.5461   23.0884 O   0  0  0  0  0  0  0  0  0  0  0  0
    7.3822  -10.9312   27.3028 C   0  0  0  0  0  0  0  0  0  0  0  0
    6.0356  -11.9686   26.7172 S   0  0  0  0  0  0  0  0  0  0  0  0
    6.5178  -12.9440   25.2584 C   0  0  0  0  0  0  0  0  0  0  0  0
    6.8689  -14.3416   25.6077 C   0  0  0  0  0  0  0  0  0  0  0  0
    8.2011  -14.8409   25.1605 C   0  0  2  0  0  0  0  0  0  0  0  0
    8.0338  -15.0954   23.7073 N   0  0  0  0  0  0  0  0  0  0  0  0
    8.6958  -16.0445   25.8325 C   0  0  0  0  0  0  0  0  0  0  0  0
    8.9045  -16.0424   27.0946 O   0  0  0  0  0  0  0  0  0  0  0  0
    6.5270  -19.8057   24.1292 N   0  0  0  0  0  0  0  0  0  0  0  0
    7.3274  -19.6017   25.3168 C   0  0  0  0  0  0  0  0  0  0  0  0
    6.7539  -19.3684   26.3952 O   0  0  0  0  0  0  0  0  0  0  0  0
    8.7933  -19.6707   25.2414 C   0  0  0  0  0  0  0  0  0  0  0  0
    9.4453  -18.4686   25.8033 C   0  0  2  0  0  0  0  0  0  0  0  0
    8.9574  -17.2436   25.1275 N   0  0  0  0  0  0  0  0  0  0  0  0
   10.9180  -18.5319   25.5962 C   0  0  0  0  0  0  0  0  0  0  0  0
   11.5967  -19.4448   26.0691 O   0  0  0  0  0  0  0  0  0  0  0  0
   11.5978  -17.5619   24.8588 O   0  0  0  0  0  0  0  0  0  0  0  0
  2  1  1  1
  2  3  1  0
  4  8  1  0
  4  3  1  0
  5  4  2  0
  6  5  1  0
  6  7  1  0
  7  8  2  0
  9  2  1  0
 10  9  2  0
 12 11  1  0
 13 12  1  0
 14 13  1  0
 15 14  1  1
 15 16  1  0
 16  9  1  0
 17 15  1  0
 17 18  2  0
 20 21  2  0
 20 19  1  0
 22 20  1  0
 23 22  1  6
 23 24  1  0
 24 17  1  0
 25 23  1  0
 26 25  2  0
 27 25  1  0
M  END
$$$$
