HMN.pdb
     RDKit          3D

 27 27  0  0  1  0  0  0  0  0999 V2000
    8.1162  -16.1358   20.4364 N   0  0  0  0  0  0  0  0  0  0  0  0
    8.6821  -14.8444   20.6788 C   0  0  1  0  0  0  0  0  0  0  0  0
    7.7450  -13.8113   20.0884 C   0  0  0  0  0  0  0  0  0  0  0  0
    7.7619  -13.9183   18.6108 C   0  0  0  0  0  0  0  0  0  0  0  0
    8.5935  -13.2344   17.7366 C   0  0  0  0  0  0  0  0  0  0  0  0
    8.2996  -13.6046   16.4827 N   0  0  0  0  0  0  0  0  0  0  0  0
    7.3057  -14.5049   16.5213 C   0  0  0  0  0  0  0  0  0  0  0  0
    6.9822  -14.6913   17.8280 N   0  0  0  0  0  0  0  0  0  0  0  0
    8.8735  -14.6283   22.1299 C   0  0  0  0  0  0  0  0  0  0  0  0
    9.8996  -14.0331   22.5422 O   0  0  0  0  0  0  0  0  0  0  0  0
    7.5841  -12.1536   28.6716 C   0  0  0  0  0  0  0  0  0  0  0  0
    7.7596  -12.5353   26.9235 S   0  0  0  0  0  0  0  0  0  0  0  0
    6.7609  -13.9786   26.4423 C   0  0  0  0  0  0  0  0  0  0  0  0
    6.8603  -14.2726   24.9924 C   0  0  0  0  0  0  0  0  0  0  0  0
    8.1006  -14.9521   24.5190 C   0  0  2  0  0  0  0  0  0  0  0  0
    7.9150  -15.0841   23.0518 N   0  0  0  0  0  0  0  0  0  0  0  0
    8.3849  -16.2598   25.1140 C   0  0  0  0  0  0  0  0  0  0  0  0
    7.4718  -17.1533   25.1810 O   0  0  0  0  0  0  0  0  0  0  0  0
   11.5997  -18.2578   23.1727 N   0  0  0  0  0  0  0  0  0  0  0  0
   10.8755  -18.9134   24.2397 C   0  0  0  0  0  0  0  0  0  0  0  0
   10.0473  -19.7948   23.9507 O   0  0  0  0  0  0  0  0  0  0  0  0
   11.1205  -18.5380   25.6391 C   0  0  0  0  0  0  0  0  0  0  0  0
    9.9457  -17.8955   26.2659 C   0  0  2  0  0  0  0  0  0  0  0  0
    9.6616  -16.5882   25.6293 N   0  0  0  0  0  0  0  0  0  0  0  0
   10.2028  -17.6386   27.7093 C   0  0  0  0  0  0  0  0  0  0  0  0
   10.6393  -16.5561   28.1037 O   0  0  0  0  0  0  0  0  0  0  0  0
    9.9627  -18.6099   28.6818 O   0  0  0  0  0  0  0  0  0  0  0  0
  2  1  1  1
  2  3  1  0
  4  8  1  0
  4  3  1  0
  5  4  2  0
  6  5  1  0
  6  7  1  0
  7  8  2  0
  9  2  1  0
 10  9  2  0
 12 11  1  0
 13 12  1  0
 14 13  1  0
 15 14  1  1
 15 16  1  0
 16  9  1  0
 17 15  1  0
 17 18  2  0
 20 21  2  0
 20 19  1  0
 22 20  1  0
 23 22  1  6
 23 24  1  0
 24 17  1  0
 25 23  1  0
 26 25  2  0
 27 25  1  0
M  END
$$$$
