HMN.pdb
     RDKit          3D

 27 27  0  0  1  0  0  0  0  0999 V2000
   11.0927  -15.1262   21.1315 N   0  0  0  0  0  0  0  0  0  0  0  0
    9.7503  -14.7846   21.4890 C   0  0  1  0  0  0  0  0  0  0  0  0
    8.8188  -15.5629   20.5832 C   0  0  0  0  0  0  0  0  0  0  0  0
    8.2961  -14.6658   19.5262 C   0  0  0  0  0  0  0  0  0  0  0  0
    8.5875  -13.3204   19.3578 C   0  0  0  0  0  0  0  0  0  0  0  0
    7.9185  -12.8643   18.2900 N   0  0  0  0  0  0  0  0  0  0  0  0
    7.2058  -13.8726   17.7655 C   0  0  0  0  0  0  0  0  0  0  0  0
    7.4425  -14.9722   18.5283 N   0  0  0  0  0  0  0  0  0  0  0  0
    9.4993  -15.0972   22.9131 C   0  0  0  0  0  0  0  0  0  0  0  0
   10.3545  -15.7400   23.5710 O   0  0  0  0  0  0  0  0  0  0  0  0
    7.0246  -10.5355   27.1460 C   0  0  0  0  0  0  0  0  0  0  0  0
    7.2331  -12.3099   26.9448 S   0  0  0  0  0  0  0  0  0  0  0  0
    6.6040  -12.8874   25.3376 C   0  0  0  0  0  0  0  0  0  0  0  0
    6.6787  -14.3621   25.2019 C   0  0  0  0  0  0  0  0  0  0  0  0
    8.0261  -14.9567   24.9674 C   0  0  2  0  0  0  0  0  0  0  0  0
    8.3104  -14.6799   23.5366 N   0  0  0  0  0  0  0  0  0  0  0  0
    8.1536  -16.3896   25.2418 C   0  0  0  0  0  0  0  0  0  0  0  0
    7.4138  -17.2348   24.6296 O   0  0  0  0  0  0  0  0  0  0  0  0
    9.8750  -21.2610   24.7191 N   0  0  0  0  0  0  0  0  0  0  0  0
   10.6670  -20.1598   25.2220 C   0  0  0  0  0  0  0  0  0  0  0  0
   11.7597  -20.4034   25.7631 O   0  0  0  0  0  0  0  0  0  0  0  0
   10.1810  -18.7792   25.0914 C   0  0  0  0  0  0  0  0  0  0  0  0
    9.4117  -18.3366   26.2739 C   0  0  2  0  0  0  0  0  0  0  0  0
    9.0874  -16.8941   26.1782 N   0  0  0  0  0  0  0  0  0  0  0  0
   10.2104  -18.5296   27.5150 C   0  0  0  0  0  0  0  0  0  0  0  0
   11.0477  -17.7019   27.8779 O   0  0  0  0  0  0  0  0  0  0  0  0
   10.0492  -19.6549   28.3239 O   0  0  0  0  0  0  0  0  0  0  0  0
  2  1  1  6
  2  3  1  0
  4  8  1  0
  4  3  1  0
  5  4  2  0
  6  5  1  0
  6  7  1  0
  7  8  2  0
  9  2  1  0
 10  9  2  0
 12 11  1  0
 13 12  1  0
 14 13  1  0
 15 14  1  6
 15 16  1  0
 16  9  1  0
 17 15  1  0
 17 18  2  0
 20 21  2  0
 20 19  1  0
 22 20  1  0
 23 22  1  6
 23 24  1  0
 24 17  1  0
 25 23  1  0
 26 25  2  0
 27 25  1  0
M  END
$$$$
