HMN.pdb
     RDKit          3D

 27 27  0  0  1  0  0  0  0  0999 V2000
    8.2422  -15.9969   21.1607 N   0  0  0  0  0  0  0  0  0  0  0  0
    8.7304  -14.6756   21.4103 C   0  0  1  0  0  0  0  0  0  0  0  0
    7.7896  -13.7002   20.7342 C   0  0  0  0  0  0  0  0  0  0  0  0
    7.9016  -13.8463   19.2640 C   0  0  0  0  0  0  0  0  0  0  0  0
    8.6380  -13.0474   18.4023 C   0  0  0  0  0  0  0  0  0  0  0  0
    8.4815  -13.5027   17.1517 N   0  0  0  0  0  0  0  0  0  0  0  0
    7.6679  -14.5691   17.1805 C   0  0  0  0  0  0  0  0  0  0  0  0
    7.3173  -14.7728   18.4776 N   0  0  0  0  0  0  0  0  0  0  0  0
    8.8122  -14.4214   22.8655 C   0  0  0  0  0  0  0  0  0  0  0  0
    9.5317  -13.4865   23.2962 O   0  0  0  0  0  0  0  0  0  0  0  0
    6.4974  -10.5171   27.2364 C   0  0  0  0  0  0  0  0  0  0  0  0
    6.7682  -12.2936   27.2939 S   0  0  0  0  0  0  0  0  0  0  0  0
    6.7380  -13.0370   25.6331 C   0  0  0  0  0  0  0  0  0  0  0  0
    6.9010  -14.5102   25.6737 C   0  0  0  0  0  0  0  0  0  0  0  0
    8.2177  -15.0616   25.2418 C   0  0  2  0  0  0  0  0  0  0  0  0
    8.0902  -15.2185   23.7709 N   0  0  0  0  0  0  0  0  0  0  0  0
    8.6161  -16.3307   25.8546 C   0  0  0  0  0  0  0  0  0  0  0  0
    8.7920  -16.4125   27.1191 O   0  0  0  0  0  0  0  0  0  0  0  0
    6.4603  -19.8660   23.8135 N   0  0  0  0  0  0  0  0  0  0  0  0
    7.2019  -19.8521   25.0555 C   0  0  0  0  0  0  0  0  0  0  0  0
    6.5772  -19.7704   26.1275 O   0  0  0  0  0  0  0  0  0  0  0  0
    8.6691  -19.9337   25.0416 C   0  0  0  0  0  0  0  0  0  0  0  0
    9.3062  -18.7668   25.6884 C   0  0  2  0  0  0  0  0  0  0  0  0
    8.8176  -17.5034   25.0882 N   0  0  0  0  0  0  0  0  0  0  0  0
   10.7815  -18.8073   25.4954 C   0  0  0  0  0  0  0  0  0  0  0  0
   11.4630  -19.7379   25.9284 O   0  0  0  0  0  0  0  0  0  0  0  0
   11.4609  -17.7951   24.8168 O   0  0  0  0  0  0  0  0  0  0  0  0
  2  1  1  1
  2  3  1  0
  4  8  1  0
  4  3  1  0
  5  4  2  0
  6  5  1  0
  6  7  1  0
  7  8  2  0
  9  2  1  0
 10  9  2  0
 12 11  1  0
 13 12  1  0
 14 13  1  0
 15 14  1  1
 15 16  1  0
 16  9  1  0
 17 15  1  0
 17 18  2  0
 20 21  2  0
 20 19  1  0
 22 20  1  0
 23 22  1  6
 23 24  1  0
 24 17  1  0
 25 23  1  0
 26 25  2  0
 27 25  1  0
M  END
$$$$
