HMN.pdb
     RDKit          3D

 27 27  0  0  1  0  0  0  0  0999 V2000
   10.5735  -13.9032   19.7707 N   0  0  0  0  0  0  0  0  0  0  0  0
    9.2990  -14.1498   20.3720 C   0  0  1  0  0  0  0  0  0  0  0  0
    8.6586  -15.3094   19.6378 C   0  0  0  0  0  0  0  0  0  0  0  0
    8.2382  -14.8661   18.2881 C   0  0  0  0  0  0  0  0  0  0  0  0
    8.5073  -13.6427   17.6929 C   0  0  0  0  0  0  0  0  0  0  0  0
    7.9561  -13.6263   16.4716 N   0  0  0  0  0  0  0  0  0  0  0  0
    7.3407  -14.7997   16.2612 C   0  0  0  0  0  0  0  0  0  0  0  0
    7.5180  -15.5531   17.3783 N   0  0  0  0  0  0  0  0  0  0  0  0
    9.4565  -14.4477   21.8125 C   0  0  0  0  0  0  0  0  0  0  0  0
   10.5294  -14.9470   22.2330 O   0  0  0  0  0  0  0  0  0  0  0  0
    7.0543  -10.9397   27.4707 C   0  0  0  0  0  0  0  0  0  0  0  0
    6.1501  -12.3738   26.8721 S   0  0  0  0  0  0  0  0  0  0  0  0
    7.2684  -13.6667   26.2476 C   0  0  0  0  0  0  0  0  0  0  0  0
    7.4220  -13.6129   24.7737 C   0  0  0  0  0  0  0  0  0  0  0  0
    8.5637  -14.3669   24.1804 C   0  0  2  0  0  0  0  0  0  0  0  0
    8.4138  -14.1761   22.7156 N   0  0  0  0  0  0  0  0  0  0  0  0
    8.6285  -15.7943   24.5018 C   0  0  0  0  0  0  0  0  0  0  0  0
    7.6215  -16.5533   24.2862 O   0  0  0  0  0  0  0  0  0  0  0  0
   10.3291  -18.5549   22.8854 N   0  0  0  0  0  0  0  0  0  0  0  0
   11.4087  -18.5264   23.8478 C   0  0  0  0  0  0  0  0  0  0  0  0
   12.5807  -18.5964   23.4384 O   0  0  0  0  0  0  0  0  0  0  0  0
   11.1165  -18.4163   25.2837 C   0  0  0  0  0  0  0  0  0  0  0  0
    9.8062  -17.7841   25.5470 C   0  0  2  0  0  0  0  0  0  0  0  0
    9.7895  -16.3874   25.0529 N   0  0  0  0  0  0  0  0  0  0  0  0
    9.5358  -17.7395   27.0101 C   0  0  0  0  0  0  0  0  0  0  0  0
    9.2412  -18.7550   27.6424 O   0  0  0  0  0  0  0  0  0  0  0  0
    9.6024  -16.5478   27.7327 O   0  0  0  0  0  0  0  0  0  0  0  0
  2  1  1  6
  2  3  1  0
  4  8  1  0
  4  3  1  0
  5  4  2  0
  6  5  1  0
  6  7  1  0
  7  8  2  0
  9  2  1  0
 10  9  2  0
 12 11  1  0
 13 12  1  0
 14 13  1  0
 15 14  1  1
 15 16  1  0
 16  9  1  0
 17 15  1  0
 17 18  2  0
 20 21  2  0
 20 19  1  0
 22 20  1  0
 23 22  1  1
 23 24  1  0
 24 17  1  0
 25 23  1  0
 26 25  2  0
 27 25  1  0
M  END
$$$$
