HMN.pdb
     RDKit          3D

 27 27  0  0  1  0  0  0  0  0999 V2000
    7.2944  -15.4912   19.6637 N   0  0  0  0  0  0  0  0  0  0  0  0
    8.5208  -14.7686   19.8065 C   0  0  1  0  0  0  0  0  0  0  0  0
    8.3968  -13.4864   19.0100 C   0  0  0  0  0  0  0  0  0  0  0  0
    8.3554  -13.8067   17.5641 C   0  0  0  0  0  0  0  0  0  0  0  0
    8.3827  -15.0692   16.9906 C   0  0  0  0  0  0  0  0  0  0  0  0
    8.3287  -14.9390   15.6579 N   0  0  0  0  0  0  0  0  0  0  0  0
    8.2676  -13.6336   15.3549 C   0  0  0  0  0  0  0  0  0  0  0  0
    8.2845  -12.9471   16.5276 N   0  0  0  0  0  0  0  0  0  0  0  0
    8.7929  -14.4896   21.2338 C   0  0  0  0  0  0  0  0  0  0  0  0
    9.9096  -14.0294   21.5778 O   0  0  0  0  0  0  0  0  0  0  0  0
    7.6389  -12.1326   27.9155 C   0  0  0  0  0  0  0  0  0  0  0  0
    7.7746  -12.5224   26.1656 S   0  0  0  0  0  0  0  0  0  0  0  0
    6.7154  -13.9275   25.7010 C   0  0  0  0  0  0  0  0  0  0  0  0
    6.7572  -14.2055   24.2451 C   0  0  0  0  0  0  0  0  0  0  0  0
    8.0778  -14.5781   23.6609 C   0  0  2  0  0  0  0  0  0  0  0  0
    7.8106  -14.7356   22.2089 N   0  0  0  0  0  0  0  0  0  0  0  0
    8.6993  -15.7912   24.1968 C   0  0  0  0  0  0  0  0  0  0  0  0
    8.0507  -16.8935   24.2239 O   0  0  0  0  0  0  0  0  0  0  0  0
   13.5313  -18.9326   25.1735 N   0  0  0  0  0  0  0  0  0  0  0  0
   12.7979  -17.9767   25.9742 C   0  0  0  0  0  0  0  0  0  0  0  0
   12.7414  -18.1419   27.2053 O   0  0  0  0  0  0  0  0  0  0  0  0
   12.1336  -16.8322   25.3353 C   0  0  0  0  0  0  0  0  0  0  0  0
   10.6757  -17.0323   25.1928 C   0  0  2  0  0  0  0  0  0  0  0  0
   10.0234  -15.7980   24.6967 N   0  0  0  0  0  0  0  0  0  0  0  0
   10.0648  -17.3570   26.5107 C   0  0  0  0  0  0  0  0  0  0  0  0
    9.6808  -18.4962   26.7801 O   0  0  0  0  0  0  0  0  0  0  0  0
    9.8980  -16.3883   27.5009 O   0  0  0  0  0  0  0  0  0  0  0  0
  2  1  1  1
  2  3  1  0
  4  8  1  0
  4  3  1  0
  5  4  2  0
  6  5  1  0
  6  7  1  0
  7  8  2  0
  9  2  1  0
 10  9  2  0
 12 11  1  0
 13 12  1  0
 14 13  1  0
 15 14  1  1
 15 16  1  0
 16  9  1  0
 17 15  1  0
 17 18  2  0
 20 21  2  0
 20 19  1  0
 22 20  1  0
 23 22  1  1
 23 24  1  0
 24 17  1  0
 25 23  1  0
 26 25  2  0
 27 25  1  0
M  END
$$$$
