MSH.pdb
     RDKit          3D

 25 25  0  0  1  0  0  0  0  0999 V2000
    7.2914  -12.0390   19.3677 C   0  0  0  0  0  0  0  0  0  0  0  0
    8.0053  -12.8687   17.9369 S   0  0  0  0  0  0  0  0  0  0  0  0
    9.1810  -14.1539   18.4166 C   0  0  0  0  0  0  0  0  0  0  0  0
   10.1774  -13.6013   19.4067 C   0  0  0  0  0  0  0  0  0  0  0  0
   11.1448  -14.6532   19.9041 C   0  0  2  0  0  0  0  0  0  0  0  0
   11.4095  -15.5536   18.7981 N   0  0  0  0  0  0  0  0  0  0  0  0
   10.4909  -15.3434   21.0417 C   0  0  0  0  0  0  0  0  0  0  0  0
   10.1211  -14.6206   22.0075 O   0  0  0  0  0  0  0  0  0  0  0  0
   10.9988  -19.2173   21.9803 O   0  0  0  0  0  0  0  0  0  0  0  0
    9.6694  -18.8159   22.0985 C   0  0  0  0  0  0  0  0  0  0  0  0
    9.6784  -17.2972   22.3244 C   0  0  2  0  0  0  0  0  0  0  0  0
   10.2566  -16.7200   21.1230 N   0  0  0  0  0  0  0  0  0  0  0  0
   10.4189  -16.9302   23.5356 C   0  0  0  0  0  0  0  0  0  0  0  0
   11.6396  -16.6574   23.5002 O   0  0  0  0  0  0  0  0  0  0  0  0
    9.7356  -16.8843   24.7694 N   0  0  0  0  0  0  0  0  0  0  0  0
   10.4309  -16.5443   26.0217 C   0  0  1  0  0  0  0  0  0  0  0  0
    9.5677  -15.6020   26.7891 C   0  0  0  0  0  0  0  0  0  0  0  0
   10.0769  -15.2940   28.1619 C   0  0  0  0  0  0  0  0  0  0  0  0
   11.2165  -15.8129   28.7214 C   0  0  0  0  0  0  0  0  0  0  0  0
   11.3287  -15.3112   29.9587 N   0  0  0  0  0  0  0  0  0  0  0  0
   10.2840  -14.4984   30.1667 C   0  0  0  0  0  0  0  0  0  0  0  0
    9.5200  -14.4868   29.0727 N   0  0  0  0  0  0  0  0  0  0  0  0
   10.6842  -17.7607   26.7883 C   0  0  0  0  0  0  0  0  0  0  0  0
   11.7835  -17.8602   27.6030 O   0  0  0  0  0  0  0  0  0  0  0  0
    9.9092  -18.7449   26.7256 O   0  0  0  0  0  0  0  0  0  0  0  0
  1  2  1  0
  3  2  1  0
  4  3  1  0
  5  4  1  0
  5  6  1  6
  7  5  1  0
  8  7  2  0
  9 10  1  0
 11 10  1  6
 11 12  1  0
 12  7  1  0
 13 15  1  0
 13 11  1  0
 14 13  2  0
 16 15  1  0
 16 17  1  1
 17 18  1  0
 18 19  2  0
 18 22  1  0
 19 20  1  0
 20 21  1  0
 22 21  2  0
 23 16  1  0
 24 23  1  0
 25 23  2  0
M  END
$$$$
