MSH.pdb
     RDKit          3D

 25 25  0  0  1  0  0  0  0  0999 V2000
    8.1407  -11.5692   26.7369 C   0  0  0  0  0  0  0  0  0  0  0  0
    6.5021  -12.3164   26.7785 S   0  0  0  0  0  0  0  0  0  0  0  0
    6.2033  -13.3731   25.3438 C   0  0  0  0  0  0  0  0  0  0  0  0
    7.2998  -14.4032   25.2217 C   0  0  0  0  0  0  0  0  0  0  0  0
    7.1314  -15.2879   24.0057 C   0  0  2  0  0  0  0  0  0  0  0  0
    5.8811  -16.0060   24.1642 N   0  0  0  0  0  0  0  0  0  0  0  0
    8.2986  -16.2012   23.9663 C   0  0  0  0  0  0  0  0  0  0  0  0
    8.2296  -17.2416   24.6765 O   0  0  0  0  0  0  0  0  0  0  0  0
   11.5568  -15.5548   21.6619 O   0  0  0  0  0  0  0  0  0  0  0  0
   11.2514  -16.8906   21.9163 C   0  0  0  0  0  0  0  0  0  0  0  0
   10.5606  -16.9391   23.2867 C   0  0  2  0  0  0  0  0  0  0  0  0
    9.4571  -15.9974   23.2093 N   0  0  0  0  0  0  0  0  0  0  0  0
   11.4896  -16.6263   24.3772 C   0  0  0  0  0  0  0  0  0  0  0  0
   12.0457  -15.5087   24.4643 O   0  0  0  0  0  0  0  0  0  0  0  0
   11.7609  -17.6113   25.3505 N   0  0  0  0  0  0  0  0  0  0  0  0
   12.7061  -17.3648   26.4519 C   0  0  1  0  0  0  0  0  0  0  0  0
   11.9394  -17.3729   27.7302 C   0  0  0  0  0  0  0  0  0  0  0  0
   10.9612  -16.2479   27.8579 C   0  0  0  0  0  0  0  0  0  0  0  0
   11.2290  -15.0213   28.4099 C   0  0  0  0  0  0  0  0  0  0  0  0
   10.1050  -14.2941   28.3535 N   0  0  0  0  0  0  0  0  0  0  0  0
    9.1580  -15.0489   27.7801 C   0  0  0  0  0  0  0  0  0  0  0  0
    9.6780  -16.2400   27.4774 N   0  0  0  0  0  0  0  0  0  0  0  0
   13.7360  -18.3996   26.4556 C   0  0  0  0  0  0  0  0  0  0  0  0
   14.7581  -18.3686   27.3702 O   0  0  0  0  0  0  0  0  0  0  0  0
   13.7174  -19.3420   25.6281 O   0  0  0  0  0  0  0  0  0  0  0  0
  1  2  1  0
  3  2  1  0
  4  3  1  0
  5  4  1  0
  5  6  1  1
  7  5  1  0
  8  7  2  0
  9 10  1  0
 11 10  1  6
 11 12  1  0
 12  7  1  0
 13 15  1  0
 13 11  1  0
 14 13  2  0
 16 15  1  0
 16 17  1  1
 17 18  1  0
 18 19  2  0
 18 22  1  0
 19 20  1  0
 20 21  1  0
 22 21  2  0
 23 16  1  0
 24 23  1  0
 25 23  2  0
M  END
$$$$
