MSH.pdb
     RDKit          3D

 25 25  0  0  1  0  0  0  0  0999 V2000
    8.9424  -12.0294   19.7425 C   0  0  0  0  0  0  0  0  0  0  0  0
    7.3853  -12.7912   19.2523 S   0  0  0  0  0  0  0  0  0  0  0  0
    7.6104  -14.4966   18.7000 C   0  0  0  0  0  0  0  0  0  0  0  0
    9.0398  -14.7169   18.2679 C   0  0  0  0  0  0  0  0  0  0  0  0
    9.3116  -16.1523   17.8737 C   0  0  2  0  0  0  0  0  0  0  0  0
    8.2747  -16.5471   16.9394 N   0  0  0  0  0  0  0  0  0  0  0  0
    9.2794  -16.9592   19.1171 C   0  0  0  0  0  0  0  0  0  0  0  0
    8.1576  -17.4186   19.4668 O   0  0  0  0  0  0  0  0  0  0  0  0
   12.4164  -18.7652   20.7083 O   0  0  0  0  0  0  0  0  0  0  0  0
   11.1374  -19.2395   20.9941 C   0  0  0  0  0  0  0  0  0  0  0  0
   10.2278  -18.0119   21.1457 C   0  0  2  0  0  0  0  0  0  0  0  0
   10.3871  -17.2454   19.9219 N   0  0  0  0  0  0  0  0  0  0  0  0
   10.5586  -17.2324   22.3429 C   0  0  0  0  0  0  0  0  0  0  0  0
   11.4273  -16.3322   22.3197 O   0  0  0  0  0  0  0  0  0  0  0  0
    9.8789  -17.5064   23.5488 N   0  0  0  0  0  0  0  0  0  0  0  0
   10.2749  -16.8714   24.8166 C   0  0  1  0  0  0  0  0  0  0  0  0
    9.0477  -16.3280   25.4651 C   0  0  0  0  0  0  0  0  0  0  0  0
    8.4605  -15.1471   24.7583 C   0  0  0  0  0  0  0  0  0  0  0  0
    8.9994  -14.5312   23.6579 C   0  0  0  0  0  0  0  0  0  0  0  0
    8.1953  -13.5122   23.3256 N   0  0  0  0  0  0  0  0  0  0  0  0
    7.1786  -13.4924   24.1980 C   0  0  0  0  0  0  0  0  0  0  0  0
    7.3386  -14.4880   25.0720 N   0  0  0  0  0  0  0  0  0  0  0  0
   10.9260  -17.8557   25.6760 C   0  0  0  0  0  0  0  0  0  0  0  0
   11.0607  -19.1598   25.2720 O   0  0  0  0  0  0  0  0  0  0  0  0
   11.3791  -17.5405   26.8024 O   0  0  0  0  0  0  0  0  0  0  0  0
  1  2  1  0
  3  2  1  0
  4  3  1  0
  5  4  1  0
  5  6  1  6
  7  5  1  0
  8  7  2  0
  9 10  1  0
 11 10  1  6
 11 12  1  0
 12  7  1  0
 13 15  1  0
 13 11  1  0
 14 13  2  0
 16 15  1  0
 16 17  1  1
 17 18  1  0
 18 19  2  0
 18 22  1  0
 19 20  1  0
 20 21  1  0
 22 21  2  0
 23 16  1  0
 24 23  1  0
 25 23  2  0
M  END
$$$$
