MSH.pdb
     RDKit          3D

 25 25  0  0  1  0  0  0  0  0999 V2000
    7.0524  -13.0222   16.8844 C   0  0  0  0  0  0  0  0  0  0  0  0
    7.4848  -13.5034   18.5656 S   0  0  0  0  0  0  0  0  0  0  0  0
    9.1588  -12.9878   19.0079 C   0  0  0  0  0  0  0  0  0  0  0  0
    9.4147  -13.2579   20.4708 C   0  0  0  0  0  0  0  0  0  0  0  0
   10.2144  -14.5228   20.6956 C   0  0  2  0  0  0  0  0  0  0  0  0
   10.2057  -15.2661   19.4499 N   0  0  0  0  0  0  0  0  0  0  0  0
    9.5532  -15.2668   21.7943 C   0  0  0  0  0  0  0  0  0  0  0  0
    9.1160  -14.5829   22.7603 O   0  0  0  0  0  0  0  0  0  0  0  0
   10.1293  -19.1574   22.5430 O   0  0  0  0  0  0  0  0  0  0  0  0
    8.7964  -18.7918   22.7218 C   0  0  0  0  0  0  0  0  0  0  0  0
    8.7797  -17.2825   23.0034 C   0  0  2  0  0  0  0  0  0  0  0  0
    9.3802  -16.6541   21.8392 N   0  0  0  0  0  0  0  0  0  0  0  0
    9.4847  -16.9516   24.2458 C   0  0  0  0  0  0  0  0  0  0  0  0
   10.7130  -16.7132   24.2589 O   0  0  0  0  0  0  0  0  0  0  0  0
    8.7577  -16.9014   25.4541 N   0  0  0  0  0  0  0  0  0  0  0  0
    9.4053  -16.5456   26.7275 C   0  0  1  0  0  0  0  0  0  0  0  0
    8.3841  -15.9016   27.6018 C   0  0  0  0  0  0  0  0  0  0  0  0
    7.7587  -14.6800   27.0055 C   0  0  0  0  0  0  0  0  0  0  0  0
    8.4391  -13.6518   26.4050 C   0  0  0  0  0  0  0  0  0  0  0  0
    7.5383  -12.7420   26.0100 N   0  0  0  0  0  0  0  0  0  0  0  0
    6.3244  -13.1915   26.3558 C   0  0  0  0  0  0  0  0  0  0  0  0
    6.4568  -14.3725   26.9628 N   0  0  0  0  0  0  0  0  0  0  0  0
    9.9458  -17.7475   27.3558 C   0  0  0  0  0  0  0  0  0  0  0  0
   10.6607  -17.6672   28.5239 O   0  0  0  0  0  0  0  0  0  0  0  0
    9.7738  -18.8822   26.8498 O   0  0  0  0  0  0  0  0  0  0  0  0
  1  2  1  0
  3  2  1  0
  4  3  1  0
  5  4  1  0
  5  6  1  6
  7  5  1  0
  8  7  2  0
  9 10  1  0
 11 10  1  6
 11 12  1  0
 12  7  1  0
 13 15  1  0
 13 11  1  0
 14 13  2  0
 16 15  1  0
 16 17  1  1
 17 18  1  0
 18 19  2  0
 18 22  1  0
 19 20  1  0
 20 21  1  0
 22 21  2  0
 23 16  1  0
 24 23  1  0
 25 23  2  0
M  END
$$$$
