MSH.pdb
     RDKit          3D

 25 25  0  0  1  0  0  0  0  0999 V2000
    7.3635  -12.0118   20.2244 C   0  0  0  0  0  0  0  0  0  0  0  0
    8.0316  -12.2839   18.5737 S   0  0  0  0  0  0  0  0  0  0  0  0
    8.1040  -14.0396   18.1537 C   0  0  0  0  0  0  0  0  0  0  0  0
    8.3467  -14.8602   19.3970 C   0  0  0  0  0  0  0  0  0  0  0  0
    8.5160  -16.3334   19.0955 C   0  0  2  0  0  0  0  0  0  0  0  0
    7.2732  -16.7998   18.5105 N   0  0  0  0  0  0  0  0  0  0  0  0
    8.8165  -17.0094   20.3803 C   0  0  0  0  0  0  0  0  0  0  0  0
    7.8336  -17.2753   21.1254 O   0  0  0  0  0  0  0  0  0  0  0  0
   12.5173  -18.3061   21.5046 O   0  0  0  0  0  0  0  0  0  0  0  0
   11.4022  -18.9853   21.9920 C   0  0  0  0  0  0  0  0  0  0  0  0
   10.2775  -17.9507   22.1416 C   0  0  2  0  0  0  0  0  0  0  0  0
   10.0935  -17.3698   20.8228 N   0  0  0  0  0  0  0  0  0  0  0  0
   10.5947  -16.9435   23.1590 C   0  0  0  0  0  0  0  0  0  0  0  0
   11.2777  -15.9306   22.8881 O   0  0  0  0  0  0  0  0  0  0  0  0
   10.1166  -17.1235   24.4743 N   0  0  0  0  0  0  0  0  0  0  0  0
   10.5302  -16.2336   25.5718 C   0  0  1  0  0  0  0  0  0  0  0  0
    9.4718  -16.2699   26.6208 C   0  0  0  0  0  0  0  0  0  0  0  0
    9.8064  -15.4811   27.8475 C   0  0  0  0  0  0  0  0  0  0  0  0
   10.0097  -14.1255   27.8893 C   0  0  0  0  0  0  0  0  0  0  0  0
   10.2974  -13.7947   29.1554 N   0  0  0  0  0  0  0  0  0  0  0  0
   10.2744  -14.9172   29.8866 C   0  0  0  0  0  0  0  0  0  0  0  0
    9.9754  -15.9460   29.0912 N   0  0  0  0  0  0  0  0  0  0  0  0
   11.8120  -16.6803   26.1094 C   0  0  0  0  0  0  0  0  0  0  0  0
   12.0480  -18.0109   26.3458 O   0  0  0  0  0  0  0  0  0  0  0  0
   12.7301  -15.8662   26.3694 O   0  0  0  0  0  0  0  0  0  0  0  0
  1  2  1  0
  3  2  1  0
  4  3  1  0
  5  4  1  0
  5  6  1  1
  7  5  1  0
  8  7  2  0
  9 10  1  0
 11 10  1  6
 11 12  1  0
 12  7  1  0
 13 15  1  0
 13 11  1  0
 14 13  2  0
 16 15  1  0
 16 17  1  1
 17 18  1  0
 18 19  2  0
 18 22  1  0
 19 20  1  0
 20 21  1  0
 22 21  2  0
 23 16  1  0
 24 23  1  0
 25 23  2  0
M  END
$$$$
