MSH.pdb
     RDKit          3D

 25 25  0  0  1  0  0  0  0  0999 V2000
    8.3329  -10.6555   18.9744 C   0  0  0  0  0  0  0  0  0  0  0  0
    7.9638  -11.9686   20.1511 S   0  0  0  0  0  0  0  0  0  0  0  0
    8.3779  -13.6006   19.4962 C   0  0  0  0  0  0  0  0  0  0  0  0
    8.1357  -14.6572   20.5466 C   0  0  0  0  0  0  0  0  0  0  0  0
    8.4782  -16.0483   20.0594 C   0  0  2  0  0  0  0  0  0  0  0  0
    7.2762  -16.6076   19.4707 N   0  0  0  0  0  0  0  0  0  0  0  0
    8.9348  -16.8227   21.2384 C   0  0  0  0  0  0  0  0  0  0  0  0
    8.0395  -17.2539   22.0158 O   0  0  0  0  0  0  0  0  0  0  0  0
   12.8197  -17.2699   22.3029 O   0  0  0  0  0  0  0  0  0  0  0  0
   12.0383  -18.4110   22.4755 C   0  0  0  0  0  0  0  0  0  0  0  0
   10.5949  -17.9363   22.6968 C   0  0  2  0  0  0  0  0  0  0  0  0
   10.2686  -17.1072   21.5493 N   0  0  0  0  0  0  0  0  0  0  0  0
   10.4452  -17.2196   23.9673 C   0  0  0  0  0  0  0  0  0  0  0  0
   10.9049  -16.0670   24.1280 O   0  0  0  0  0  0  0  0  0  0  0  0
    9.7655  -17.8476   25.0326 N   0  0  0  0  0  0  0  0  0  0  0  0
    9.7864  -17.2888   26.3945 C   0  0  1  0  0  0  0  0  0  0  0  0
    8.3870  -16.9434   26.7744 C   0  0  0  0  0  0  0  0  0  0  0  0
    7.9095  -15.6417   26.2119 C   0  0  0  0  0  0  0  0  0  0  0  0
    8.6730  -14.7608   25.4895 C   0  0  0  0  0  0  0  0  0  0  0  0
    7.8991  -13.7136   25.1737 N   0  0  0  0  0  0  0  0  0  0  0  0
    6.6814  -13.9355   25.6868 C   0  0  0  0  0  0  0  0  0  0  0  0
    6.6860  -15.1101   26.3200 N   0  0  0  0  0  0  0  0  0  0  0  0
   10.3504  -18.2684   27.3184 C   0  0  0  0  0  0  0  0  0  0  0  0
   10.7572  -19.5003   26.8722 O   0  0  0  0  0  0  0  0  0  0  0  0
   10.4793  -18.0149   28.5400 O   0  0  0  0  0  0  0  0  0  0  0  0
  1  2  1  0
  3  2  1  0
  4  3  1  0
  5  4  1  0
  5  6  1  1
  7  5  1  0
  8  7  2  0
  9 10  1  0
 11 10  1  6
 11 12  1  0
 12  7  1  0
 13 15  1  0
 13 11  1  0
 14 13  2  0
 16 15  1  0
 16 17  1  1
 17 18  1  0
 18 19  2  0
 18 22  1  0
 19 20  1  0
 20 21  1  0
 22 21  2  0
 23 16  1  0
 24 23  1  0
 25 23  2  0
M  END
$$$$
