MSH.pdb
     RDKit          3D

 25 25  0  0  1  0  0  0  0  0999 V2000
    7.6821  -12.2600   19.6149 C   0  0  0  0  0  0  0  0  0  0  0  0
    7.7955  -12.6165   17.8527 S   0  0  0  0  0  0  0  0  0  0  0  0
    7.6948  -14.3880   17.5127 C   0  0  0  0  0  0  0  0  0  0  0  0
    8.0437  -15.1743   18.7529 C   0  0  0  0  0  0  0  0  0  0  0  0
    7.9309  -16.6686   18.5428 C   0  0  2  0  0  0  0  0  0  0  0  0
    6.5462  -16.9558   18.2198 N   0  0  0  0  0  0  0  0  0  0  0  0
    8.3563  -17.3195   19.8052 C   0  0  0  0  0  0  0  0  0  0  0  0
    7.7691  -16.9513   20.8595 O   0  0  0  0  0  0  0  0  0  0  0  0
   10.0117  -20.7306   20.0660 O   0  0  0  0  0  0  0  0  0  0  0  0
    9.6848  -20.2011   21.3130 C   0  0  0  0  0  0  0  0  0  0  0  0
    9.8674  -18.6797   21.2156 C   0  0  2  0  0  0  0  0  0  0  0  0
    9.3485  -18.2995   19.9130 N   0  0  0  0  0  0  0  0  0  0  0  0
   11.2680  -18.2856   21.3984 C   0  0  0  0  0  0  0  0  0  0  0  0
   12.1535  -18.6128   20.5771 O   0  0  0  0  0  0  0  0  0  0  0  0
   11.6224  -17.5187   22.5286 N   0  0  0  0  0  0  0  0  0  0  0  0
   13.0077  -17.0733   22.7524 C   0  0  1  0  0  0  0  0  0  0  0  0
   13.0458  -15.5901   22.6082 C   0  0  0  0  0  0  0  0  0  0  0  0
   12.9836  -15.1168   21.1902 C   0  0  0  0  0  0  0  0  0  0  0  0
   12.9400  -15.9261   20.0838 C   0  0  0  0  0  0  0  0  0  0  0  0
   12.9028  -15.1367   19.0018 N   0  0  0  0  0  0  0  0  0  0  0  0
   12.9229  -13.8648   19.4227 C   0  0  0  0  0  0  0  0  0  0  0  0
   12.9722  -13.8508   20.7561 N   0  0  0  0  0  0  0  0  0  0  0  0
   13.4442  -17.4785   24.0853 C   0  0  0  0  0  0  0  0  0  0  0  0
   14.7460  -17.3024   24.4807 O   0  0  0  0  0  0  0  0  0  0  0  0
   12.6473  -17.9965   24.9037 O   0  0  0  0  0  0  0  0  0  0  0  0
  1  2  1  0
  3  2  1  0
  4  3  1  0
  5  4  1  0
  5  6  1  1
  7  5  1  0
  8  7  2  0
  9 10  1  0
 11 10  1  6
 11 12  1  0
 12  7  1  0
 13 15  1  0
 13 11  1  0
 14 13  2  0
 16 15  1  0
 16 17  1  1
 17 18  1  0
 18 19  2  0
 18 22  1  0
 19 20  1  0
 20 21  1  0
 22 21  2  0
 23 16  1  0
 24 23  1  0
 25 23  2  0
M  END
$$$$
