MSH.pdb
     RDKit          3D

 25 25  0  0  1  0  0  0  0  0999 V2000
   13.2457  -15.3775   13.7533 C   0  0  0  0  0  0  0  0  0  0  0  0
   12.1192  -16.6918   13.2548 S   0  0  0  0  0  0  0  0  0  0  0  0
   10.4626  -16.4584   13.9370 C   0  0  0  0  0  0  0  0  0  0  0  0
   10.5511  -16.0904   15.3982 C   0  0  0  0  0  0  0  0  0  0  0  0
    9.1898  -15.9297   16.0391 C   0  0  2  0  0  0  0  0  0  0  0  0
    8.6210  -14.6923   15.5398 N   0  0  0  0  0  0  0  0  0  0  0  0
    9.4003  -15.8954   17.5063 C   0  0  0  0  0  0  0  0  0  0  0  0
    9.6567  -14.7705   18.0168 O   0  0  0  0  0  0  0  0  0  0  0  0
    9.5380  -19.2173   19.8666 O   0  0  0  0  0  0  0  0  0  0  0  0
    9.0036  -18.0758   20.4613 C   0  0  0  0  0  0  0  0  0  0  0  0
    9.6479  -16.8664   19.7688 C   0  0  2  0  0  0  0  0  0  0  0  0
    9.3366  -17.0044   18.3564 N   0  0  0  0  0  0  0  0  0  0  0  0
   11.0908  -16.7981   20.0212 C   0  0  0  0  0  0  0  0  0  0  0  0
   11.9258  -17.0428   19.1220 O   0  0  0  0  0  0  0  0  0  0  0  0
   11.5454  -16.4474   21.3102 N   0  0  0  0  0  0  0  0  0  0  0  0
   12.9799  -16.2982   21.6059 C   0  0  1  0  0  0  0  0  0  0  0  0
   13.4223  -14.9703   21.0931 C   0  0  0  0  0  0  0  0  0  0  0  0
   13.8872  -14.9935   19.6711 C   0  0  0  0  0  0  0  0  0  0  0  0
   13.9289  -16.1037   18.8670 C   0  0  0  0  0  0  0  0  0  0  0  0
   14.4113  -15.7267   17.6752 N   0  0  0  0  0  0  0  0  0  0  0  0
   14.6648  -14.4124   17.7339 C   0  0  0  0  0  0  0  0  0  0  0  0
   14.3461  -13.9638   18.9496 N   0  0  0  0  0  0  0  0  0  0  0  0
   13.1972  -16.3993   23.0460 C   0  0  0  0  0  0  0  0  0  0  0  0
   14.4629  -16.5401   23.5561 O   0  0  0  0  0  0  0  0  0  0  0  0
   12.2394  -16.3607   23.8549 O   0  0  0  0  0  0  0  0  0  0  0  0
  1  2  1  0
  3  2  1  0
  4  3  1  0
  5  4  1  0
  5  6  1  6
  7  5  1  0
  8  7  2  0
  9 10  1  0
 11 10  1  1
 11 12  1  0
 12  7  1  0
 13 15  1  0
 13 11  1  0
 14 13  2  0
 16 15  1  0
 16 17  1  1
 17 18  1  0
 18 19  2  0
 18 22  1  0
 19 20  1  0
 20 21  1  0
 22 21  2  0
 23 16  1  0
 24 23  1  0
 25 23  2  0
M  END
$$$$
