MSH.pdb
     RDKit          3D

 25 25  0  0  1  0  0  0  0  0999 V2000
    5.6348  -10.7081   26.2436 C   0  0  0  0  0  0  0  0  0  0  0  0
    6.3613  -12.3474   26.4166 S   0  0  0  0  0  0  0  0  0  0  0  0
    6.6071  -13.1511   24.8173 C   0  0  0  0  0  0  0  0  0  0  0  0
    7.2094  -14.5213   25.0131 C   0  0  0  0  0  0  0  0  0  0  0  0
    7.5388  -15.2024   23.7026 C   0  0  2  0  0  0  0  0  0  0  0  0
    6.2815  -15.5644   23.0763 N   0  0  0  0  0  0  0  0  0  0  0  0
    8.3646  -16.3909   24.0248 C   0  0  0  0  0  0  0  0  0  0  0  0
    7.7476  -17.4276   24.3941 O   0  0  0  0  0  0  0  0  0  0  0  0
   12.4474  -16.3891   24.2534 O   0  0  0  0  0  0  0  0  0  0  0  0
   11.8697  -17.5336   23.7069 C   0  0  0  0  0  0  0  0  0  0  0  0
   10.4669  -17.6627   24.3175 C   0  0  2  0  0  0  0  0  0  0  0  0
    9.7602  -16.4474   23.9509 N   0  0  0  0  0  0  0  0  0  0  0  0
   10.5202  -17.8645   25.7690 C   0  0  0  0  0  0  0  0  0  0  0  0
   10.6368  -16.9025   26.5607 O   0  0  0  0  0  0  0  0  0  0  0  0
   10.4376  -19.1763   26.2822 N   0  0  0  0  0  0  0  0  0  0  0  0
   10.6438  -19.4572   27.7126 C   0  0  1  0  0  0  0  0  0  0  0  0
    9.9202  -20.7171   28.0457 C   0  0  0  0  0  0  0  0  0  0  0  0
    8.4347  -20.6218   27.8936 C   0  0  0  0  0  0  0  0  0  0  0  0
    7.6502  -19.6062   28.3775 C   0  0  0  0  0  0  0  0  0  0  0  0
    6.3798  -19.8816   28.0527 N   0  0  0  0  0  0  0  0  0  0  0  0
    6.3714  -21.0415   27.3820 C   0  0  0  0  0  0  0  0  0  0  0  0
    7.6229  -21.4941   27.2841 N   0  0  0  0  0  0  0  0  0  0  0  0
   12.0718  -19.5887   27.9861 C   0  0  0  0  0  0  0  0  0  0  0  0
   12.9929  -19.4735   26.9760 O   0  0  0  0  0  0  0  0  0  0  0  0
   12.4967  -19.8094   29.1454 O   0  0  0  0  0  0  0  0  0  0  0  0
  1  2  1  0
  3  2  1  0
  4  3  1  0
  5  4  1  0
  5  6  1  1
  7  5  1  0
  8  7  2  0
  9 10  1  0
 11 10  1  1
 11 12  1  0
 12  7  1  0
 13 15  1  0
 13 11  1  0
 14 13  2  0
 16 15  1  0
 16 17  1  6
 17 18  1  0
 18 19  2  0
 18 22  1  0
 19 20  1  0
 20 21  1  0
 22 21  2  0
 23 16  1  0
 24 23  1  0
 25 23  2  0
M  END
$$$$
