MSH.pdb
     RDKit          3D

 25 25  0  0  1  0  0  0  0  0999 V2000
    8.7005  -11.3952   20.2400 C   0  0  0  0  0  0  0  0  0  0  0  0
    7.9693  -12.0167   18.7155 S   0  0  0  0  0  0  0  0  0  0  0  0
    8.3563  -13.7599   18.4407 C   0  0  0  0  0  0  0  0  0  0  0  0
    7.9987  -14.5691   19.6636 C   0  0  0  0  0  0  0  0  0  0  0  0
    8.3117  -16.0402   19.4973 C   0  0  2  0  0  0  0  0  0  0  0  0
    7.4051  -16.5635   18.4931 N   0  0  0  0  0  0  0  0  0  0  0  0
    8.1105  -16.6807   20.8192 C   0  0  0  0  0  0  0  0  0  0  0  0
    6.9263  -16.9897   21.1260 O   0  0  0  0  0  0  0  0  0  0  0  0
   10.4371  -19.1609   22.6255 O   0  0  0  0  0  0  0  0  0  0  0  0
    9.0862  -19.0257   22.9402 C   0  0  0  0  0  0  0  0  0  0  0  0
    8.7985  -17.5209   23.0426 C   0  0  2  0  0  0  0  0  0  0  0  0
    9.1238  -16.9643   21.7407 N   0  0  0  0  0  0  0  0  0  0  0  0
    9.5593  -16.8927   24.1274 C   0  0  0  0  0  0  0  0  0  0  0  0
   10.6084  -16.2482   23.9044 O   0  0  0  0  0  0  0  0  0  0  0  0
    9.0944  -17.0196   25.4536 N   0  0  0  0  0  0  0  0  0  0  0  0
    9.8548  -16.4754   26.5908 C   0  0  1  0  0  0  0  0  0  0  0  0
    9.6778  -14.9953   26.5998 C   0  0  0  0  0  0  0  0  0  0  0  0
    8.2627  -14.5524   26.3993 C   0  0  0  0  0  0  0  0  0  0  0  0
    7.2078  -15.3756   26.0989 C   0  0  0  0  0  0  0  0  0  0  0  0
    6.1128  -14.6115   25.9868 N   0  0  0  0  0  0  0  0  0  0  0  0
    6.4757  -13.3415   26.2118 C   0  0  0  0  0  0  0  0  0  0  0  0
    7.7856  -13.3036   26.4633 N   0  0  0  0  0  0  0  0  0  0  0  0
    9.3681  -17.0658   27.8342 C   0  0  0  0  0  0  0  0  0  0  0  0
    9.9546  -16.7551   29.0348 O   0  0  0  0  0  0  0  0  0  0  0  0
    8.4052  -17.8696   27.8420 O   0  0  0  0  0  0  0  0  0  0  0  0
  1  2  1  0
  3  2  1  0
  4  3  1  0
  5  4  1  0
  5  6  1  6
  7  5  1  0
  8  7  2  0
  9 10  1  0
 11 10  1  6
 11 12  1  0
 12  7  1  0
 13 15  1  0
 13 11  1  0
 14 13  2  0
 16 15  1  0
 16 17  1  1
 17 18  1  0
 18 19  2  0
 18 22  1  0
 19 20  1  0
 20 21  1  0
 22 21  2  0
 23 16  1  0
 24 23  1  0
 25 23  2  0
M  END
$$$$
