MSH.pdb
     RDKit          3D

 25 25  0  0  1  0  0  0  0  0999 V2000
    7.8243  -11.2940   20.9425 C   0  0  0  0  0  0  0  0  0  0  0  0
    7.3332  -12.1907   19.4592 S   0  0  0  0  0  0  0  0  0  0  0  0
    8.1194  -13.8142   19.3583 C   0  0  0  0  0  0  0  0  0  0  0  0
    8.2087  -14.4329   20.7322 C   0  0  0  0  0  0  0  0  0  0  0  0
    8.8831  -15.7875   20.7153 C   0  0  2  0  0  0  0  0  0  0  0  0
    8.2127  -16.5909   19.7107 N   0  0  0  0  0  0  0  0  0  0  0  0
    8.7416  -16.3616   22.0749 C   0  0  0  0  0  0  0  0  0  0  0  0
    7.7668  -15.9542   22.7646 O   0  0  0  0  0  0  0  0  0  0  0  0
   11.4303  -18.8993   23.7526 O   0  0  0  0  0  0  0  0  0  0  0  0
   10.0981  -19.1498   24.0766 C   0  0  0  0  0  0  0  0  0  0  0  0
    9.3552  -17.8091   23.9857 C   0  0  2  0  0  0  0  0  0  0  0  0
    9.5985  -17.3099   22.6432 N   0  0  0  0  0  0  0  0  0  0  0  0
    9.7961  -16.8698   25.0219 C   0  0  0  0  0  0  0  0  0  0  0  0
   10.6575  -15.9928   24.7881 O   0  0  0  0  0  0  0  0  0  0  0  0
    9.2333  -16.9595   26.3128 N   0  0  0  0  0  0  0  0  0  0  0  0
    9.7382  -16.1451   27.4305 C   0  0  1  0  0  0  0  0  0  0  0  0
    8.6093  -15.3219   27.9501 C   0  0  0  0  0  0  0  0  0  0  0  0
    8.1235  -14.2832   26.9889 C   0  0  0  0  0  0  0  0  0  0  0  0
    8.7704  -13.1108   26.6925 C   0  0  0  0  0  0  0  0  0  0  0  0
    8.0212  -12.4446   25.8035 N   0  0  0  0  0  0  0  0  0  0  0  0
    6.9324  -13.1836   25.5512 C   0  0  0  0  0  0  0  0  0  0  0  0
    6.9930  -14.3044   26.2728 N   0  0  0  0  0  0  0  0  0  0  0  0
   10.2695  -17.0181   28.4731 C   0  0  0  0  0  0  0  0  0  0  0  0
   10.8217  -16.4927   29.6137 O   0  0  0  0  0  0  0  0  0  0  0  0
   10.2371  -18.2666   28.3580 O   0  0  0  0  0  0  0  0  0  0  0  0
  1  2  1  0
  3  2  1  0
  4  3  1  0
  5  4  1  0
  5  6  1  6
  7  5  1  0
  8  7  2  0
  9 10  1  0
 11 10  1  1
 11 12  1  0
 12  7  1  0
 13 15  1  0
 13 11  1  0
 14 13  2  0
 16 15  1  0
 16 17  1  1
 17 18  1  0
 18 19  2  0
 18 22  1  0
 19 20  1  0
 20 21  1  0
 22 21  2  0
 23 16  1  0
 24 23  1  0
 25 23  2  0
M  END
$$$$
