MSH.pdb
     RDKit          3D

 25 25  0  0  1  0  0  0  0  0999 V2000
    7.0760  -18.6132   20.3801 C   0  0  0  0  0  0  0  0  0  0  0  0
    6.0495  -17.4698   19.4400 S   0  0  0  0  0  0  0  0  0  0  0  0
    6.5701  -15.7540   19.6615 C   0  0  0  0  0  0  0  0  0  0  0  0
    6.8690  -15.4869   21.1167 C   0  0  0  0  0  0  0  0  0  0  0  0
    7.1253  -14.0221   21.3966 C   0  0  2  0  0  0  0  0  0  0  0  0
    7.8437  -13.4842   20.2570 N   0  0  0  0  0  0  0  0  0  0  0  0
    7.9232  -13.9500   22.6441 C   0  0  0  0  0  0  0  0  0  0  0  0
    9.1649  -14.1461   22.5360 O   0  0  0  0  0  0  0  0  0  0  0  0
    6.2288  -13.3862   26.2221 O   0  0  0  0  0  0  0  0  0  0  0  0
    7.5645  -12.9893   26.1935 C   0  0  0  0  0  0  0  0  0  0  0  0
    8.2521  -13.8097   25.0926 C   0  0  2  0  0  0  0  0  0  0  0  0
    7.4078  -13.6841   23.9170 N   0  0  0  0  0  0  0  0  0  0  0  0
    8.4492  -15.2058   25.4953 C   0  0  0  0  0  0  0  0  0  0  0  0
    7.5417  -16.0583   25.3706 O   0  0  0  0  0  0  0  0  0  0  0  0
    9.6933  -15.5943   26.0360 N   0  0  0  0  0  0  0  0  0  0  0  0
    9.9403  -16.9749   26.4836 C   0  0  1  0  0  0  0  0  0  0  0  0
   11.2849  -17.3877   25.9900 C   0  0  0  0  0  0  0  0  0  0  0  0
   11.3980  -17.4264   24.4985 C   0  0  0  0  0  0  0  0  0  0  0  0
   10.3772  -17.7231   23.6320 C   0  0  0  0  0  0  0  0  0  0  0  0
   10.8695  -17.6673   22.3870 N   0  0  0  0  0  0  0  0  0  0  0  0
   12.1667  -17.3436   22.4743 C   0  0  0  0  0  0  0  0  0  0  0  0
   12.4906  -17.1964   23.7605 N   0  0  0  0  0  0  0  0  0  0  0  0
    9.8786  -17.0369   27.9409 C   0  0  0  0  0  0  0  0  0  0  0  0
   10.0255  -18.2317   28.5989 O   0  0  0  0  0  0  0  0  0  0  0  0
    9.6907  -16.0063   28.6306 O   0  0  0  0  0  0  0  0  0  0  0  0
  1  2  1  0
  3  2  1  0
  4  3  1  0
  5  4  1  0
  5  6  1  6
  7  5  1  0
  8  7  2  0
  9 10  1  0
 11 10  1  1
 11 12  1  0
 12  7  1  0
 13 15  1  0
 13 11  1  0
 14 13  2  0
 16 15  1  0
 16 17  1  1
 17 18  1  0
 18 19  2  0
 18 22  1  0
 19 20  1  0
 20 21  1  0
 22 21  2  0
 23 16  1  0
 24 23  1  0
 25 23  2  0
M  END
$$$$
