MSH.pdb
     RDKit          3D

 25 25  0  0  1  0  0  0  0  0999 V2000
    9.0101  -10.7815   19.6425 C   0  0  0  0  0  0  0  0  0  0  0  0
    8.9014  -12.5061   20.1517 S   0  0  0  0  0  0  0  0  0  0  0  0
    7.2672  -13.2055   19.8287 C   0  0  0  0  0  0  0  0  0  0  0  0
    7.1881  -14.6109   20.3737 C   0  0  0  0  0  0  0  0  0  0  0  0
    8.2756  -15.5080   19.8237 C   0  0  2  0  0  0  0  0  0  0  0  0
    7.7357  -16.1728   18.6530 N   0  0  0  0  0  0  0  0  0  0  0  0
    8.6324  -16.4677   20.8959 C   0  0  0  0  0  0  0  0  0  0  0  0
    7.8236  -17.4136   21.1033 O   0  0  0  0  0  0  0  0  0  0  0  0
   12.2143  -17.3326   21.9988 O   0  0  0  0  0  0  0  0  0  0  0  0
   11.1914  -18.2096   22.3555 C   0  0  0  0  0  0  0  0  0  0  0  0
    9.9881  -17.3500   22.7685 C   0  0  2  0  0  0  0  0  0  0  0  0
    9.7852  -16.4032   21.6854 N   0  0  0  0  0  0  0  0  0  0  0  0
   10.2076  -16.6882   24.0585 C   0  0  0  0  0  0  0  0  0  0  0  0
   11.0695  -15.7918   24.1970 O   0  0  0  0  0  0  0  0  0  0  0  0
    9.4262  -17.0736   25.1685 N   0  0  0  0  0  0  0  0  0  0  0  0
    9.6218  -16.4662   26.4952 C   0  0  1  0  0  0  0  0  0  0  0  0
    8.2811  -16.1250   27.0501 C   0  0  0  0  0  0  0  0  0  0  0  0
    7.6394  -14.9398   26.4002 C   0  0  0  0  0  0  0  0  0  0  0  0
    8.2942  -13.9873   25.6620 C   0  0  0  0  0  0  0  0  0  0  0  0
    7.3867  -13.0870   25.2603 N   0  0  0  0  0  0  0  0  0  0  0  0
    6.1938  -13.4684   25.7366 C   0  0  0  0  0  0  0  0  0  0  0  0
    6.3459  -14.5973   26.4316 N   0  0  0  0  0  0  0  0  0  0  0  0
   10.3227  -17.4050   27.3663 C   0  0  0  0  0  0  0  0  0  0  0  0
   10.6743  -18.6519   26.9150 O   0  0  0  0  0  0  0  0  0  0  0  0
   10.6225  -17.1017   28.5458 O   0  0  0  0  0  0  0  0  0  0  0  0
  1  2  1  0
  3  2  1  0
  4  3  1  0
  5  4  1  0
  5  6  1  6
  7  5  1  0
  8  7  2  0
  9 10  1  0
 11 10  1  6
 11 12  1  0
 12  7  1  0
 13 15  1  0
 13 11  1  0
 14 13  2  0
 16 15  1  0
 16 17  1  1
 17 18  1  0
 18 19  2  0
 18 22  1  0
 19 20  1  0
 20 21  1  0
 22 21  2  0
 23 16  1  0
 24 23  1  0
 25 23  2  0
M  END
$$$$
