MSH.pdb
     RDKit          3D

 25 25  0  0  1  0  0  0  0  0999 V2000
    8.6710  -11.5874   20.5208 C   0  0  0  0  0  0  0  0  0  0  0  0
    7.8957  -12.0752   18.9696 S   0  0  0  0  0  0  0  0  0  0  0  0
    8.4826  -13.6849   18.3965 C   0  0  0  0  0  0  0  0  0  0  0  0
    8.5333  -14.6583   19.5489 C   0  0  0  0  0  0  0  0  0  0  0  0
    8.9510  -16.0471   19.1169 C   0  0  2  0  0  0  0  0  0  0  0  0
    7.9642  -16.5176   18.1635 N   0  0  0  0  0  0  0  0  0  0  0  0
    8.9941  -16.8884   20.3369 C   0  0  0  0  0  0  0  0  0  0  0  0
    7.9016  -17.3912   20.7186 O   0  0  0  0  0  0  0  0  0  0  0  0
   12.3085  -18.4659   21.6664 O   0  0  0  0  0  0  0  0  0  0  0  0
   11.1317  -19.1153   22.0350 C   0  0  0  0  0  0  0  0  0  0  0  0
   10.0692  -18.0283   22.2520 C   0  0  2  0  0  0  0  0  0  0  0  0
   10.1421  -17.1628   21.0874 N   0  0  0  0  0  0  0  0  0  0  0  0
   10.2826  -17.2997   23.5066 C   0  0  0  0  0  0  0  0  0  0  0  0
   11.2046  -16.4628   23.6299 O   0  0  0  0  0  0  0  0  0  0  0  0
    9.4257  -17.5505   24.5992 N   0  0  0  0  0  0  0  0  0  0  0  0
    9.6597  -16.9374   25.9171 C   0  0  1  0  0  0  0  0  0  0  0  0
    8.3365  -16.5769   26.5012 C   0  0  0  0  0  0  0  0  0  0  0  0
    7.7197  -15.3547   25.8975 C   0  0  0  0  0  0  0  0  0  0  0  0
    8.3133  -14.5436   24.9643 C   0  0  0  0  0  0  0  0  0  0  0  0
    7.4568  -13.5530   24.6805 N   0  0  0  0  0  0  0  0  0  0  0  0
    6.3549  -13.7411   25.4192 C   0  0  0  0  0  0  0  0  0  0  0  0
    6.5133  -14.8386   26.1615 N   0  0  0  0  0  0  0  0  0  0  0  0
   10.3698  -17.8792   26.7774 C   0  0  0  0  0  0  0  0  0  0  0  0
   10.7425  -17.5238   28.0490 O   0  0  0  0  0  0  0  0  0  0  0  0
   10.6586  -19.0340   26.3824 O   0  0  0  0  0  0  0  0  0  0  0  0
  1  2  1  0
  3  2  1  0
  4  3  1  0
  5  4  1  0
  5  6  1  6
  7  5  1  0
  8  7  2  0
  9 10  1  0
 11 10  1  6
 11 12  1  0
 12  7  1  0
 13 15  1  0
 13 11  1  0
 14 13  2  0
 16 15  1  0
 16 17  1  1
 17 18  1  0
 18 19  2  0
 18 22  1  0
 19 20  1  0
 20 21  1  0
 22 21  2  0
 23 16  1  0
 24 23  1  0
 25 23  2  0
M  END
$$$$
