WTF.pdb
     RDKit          3D

 33 35  0  0  1  0  0  0  0  0999 V2000
   25.6628  -21.7283  -14.4648 N   0  0  0  0  0  0  0  0  0  0  0  0
   25.2570  -21.0368  -13.2500 C   0  0  1  0  0  0  0  0  0  0  0  0
   26.1089  -19.8630  -12.9252 C   0  0  0  0  0  0  0  0  0  0  0  0
   27.4508  -20.1645  -12.4275 C   0  0  0  0  0  0  0  0  0  0  0  0
   28.6336  -20.1300  -13.1298 C   0  0  0  0  0  0  0  0  0  0  0  0
   29.5944  -20.4800  -12.2706 N   0  0  0  0  0  0  0  0  0  0  0  0
   29.0998  -20.7362  -11.0627 C   0  0  0  0  0  0  0  0  0  0  0  0
   29.6481  -21.1276   -9.8487 C   0  0  0  0  0  0  0  0  0  0  0  0
   28.8613  -21.3218   -8.7349 C   0  0  0  0  0  0  0  0  0  0  0  0
   27.4952  -21.1333   -8.7876 C   0  0  0  0  0  0  0  0  0  0  0  0
   26.9519  -20.7449   -9.9924 C   0  0  0  0  0  0  0  0  0  0  0  0
   27.7291  -20.5467  -11.1168 C   0  0  0  0  0  0  0  0  0  0  0  0
   23.8042  -20.7563  -13.3057 C   0  0  0  0  0  0  0  0  0  0  0  0
   23.3139  -19.9536  -14.1401 O   0  0  0  0  0  0  0  0  0  0  0  0
   21.6972  -20.7130  -14.8377 C   0  0  0  0  0  0  0  0  0  0  0  0
   21.0202  -21.6367  -13.8357 C   0  0  1  0  0  0  0  0  0  0  0  0
   21.3656  -22.9312  -14.1545 O   0  0  0  0  0  0  0  0  0  0  0  0
   21.4718  -21.2153  -12.4674 C   0  0  2  0  0  0  0  0  0  0  0  0
   22.9089  -21.3965  -12.4033 N   0  0  0  0  0  0  0  0  0  0  0  0
   20.8057  -21.9300  -11.3751 C   0  0  0  0  0  0  0  0  0  0  0  0
   21.3548  -21.9804  -10.2518 O   0  0  0  0  0  0  0  0  0  0  0  0
   19.5489  -22.5598  -11.5876 N   0  0  0  0  0  0  0  0  0  0  0  0
   18.9160  -23.2686  -10.4999 C   0  0  1  0  0  0  0  0  0  0  0  0
   18.7003  -22.3521   -9.3075 C   0  0  0  0  0  0  0  0  0  0  0  0
   18.0531  -23.0882   -8.2013 C   0  0  0  0  0  0  0  0  0  0  0  0
   18.8334  -23.8716   -7.3821 C   0  0  0  0  0  0  0  0  0  0  0  0
   18.3057  -24.5978   -6.3171 C   0  0  0  0  0  0  0  0  0  0  0  0
   16.9531  -24.5058   -6.1050 C   0  0  0  0  0  0  0  0  0  0  0  0
   16.1502  -23.7252   -6.9150 C   0  0  0  0  0  0  0  0  0  0  0  0
   16.6959  -23.0189   -7.9589 C   0  0  0  0  0  0  0  0  0  0  0  0
   17.6103  -23.7897  -10.9537 C   0  0  0  0  0  0  0  0  0  0  0  0
   16.8829  -23.0560  -11.6656 O   0  0  0  0  0  0  0  0  0  0  0  0
   17.1589  -25.0648  -10.6198 O   0  0  0  0  0  0  0  0  0  0  0  0
  2  1  1  6
  2  3  1  0
  4  3  1  0
  5  4  2  0
  6  7  1  0
  6  5  1  0
  7 12  2  0
  8  9  2  0
  8  7  1  0
  9 10  1  0
 10 11  2  0
 12 11  1  0
 12  4  1  0
 13  2  1  0
 13 14  2  0
 16 15  1  6
 16 17  1  0
 16 18  1  0
 18 19  1  6
 19 13  1  0
 20 18  1  0
 21 20  2  0
 22 20  1  0
 23 22  1  0
 23 24  1  1
 24 25  1  0
 25 26  2  0
 26 27  1  0
 28 27  2  0
 29 28  1  0
 30 29  2  0
 30 25  1  0
 31 23  1  0
 32 31  2  0
 33 31  1  0
M  END
$$$$
