WTF.pdb
     RDKit          3D

 33 35  0  0  1  0  0  0  0  0999 V2000
   24.6323  -18.0885  -15.6565 N   0  0  0  0  0  0  0  0  0  0  0  0
   25.5831  -18.1014  -14.5545 C   0  0  1  0  0  0  0  0  0  0  0  0
   26.0567  -16.7472  -14.1663 C   0  0  0  0  0  0  0  0  0  0  0  0
   26.8339  -16.0276  -15.1750 C   0  0  0  0  0  0  0  0  0  0  0  0
   26.6354  -14.7438  -15.6288 C   0  0  0  0  0  0  0  0  0  0  0  0
   27.5806  -14.5155  -16.5444 N   0  0  0  0  0  0  0  0  0  0  0  0
   28.3711  -15.5732  -16.7045 C   0  0  0  0  0  0  0  0  0  0  0  0
   29.4704  -15.8554  -17.5041 C   0  0  0  0  0  0  0  0  0  0  0  0
   30.1027  -17.0779  -17.4500 C   0  0  0  0  0  0  0  0  0  0  0  0
   29.6635  -18.0684  -16.5955 C   0  0  0  0  0  0  0  0  0  0  0  0
   28.5727  -17.7878  -15.8023 C   0  0  0  0  0  0  0  0  0  0  0  0
   27.9294  -16.5664  -15.8466 C   0  0  0  0  0  0  0  0  0  0  0  0
   25.0369  -18.9131  -13.4431 C   0  0  0  0  0  0  0  0  0  0  0  0
   23.8315  -19.2692  -13.4103 O   0  0  0  0  0  0  0  0  0  0  0  0
   24.0930  -21.1460  -13.1922 C   0  0  0  0  0  0  0  0  0  0  0  0
   25.0585  -21.5402  -12.0840 C   0  0  1  0  0  0  0  0  0  0  0  0
   26.1220  -22.1955  -12.6638 O   0  0  0  0  0  0  0  0  0  0  0  0
   25.4493  -20.2808  -11.3664 C   0  0  2  0  0  0  0  0  0  0  0  0
   25.8729  -19.3189  -12.3651 N   0  0  0  0  0  0  0  0  0  0  0  0
   26.4890  -20.4729  -10.3516 C   0  0  0  0  0  0  0  0  0  0  0  0
   27.6924  -20.4238  -10.6910 O   0  0  0  0  0  0  0  0  0  0  0  0
   26.1358  -20.7125   -8.9955 N   0  0  0  0  0  0  0  0  0  0  0  0
   27.0243  -21.4802   -8.1544 C   0  0  1  0  0  0  0  0  0  0  0  0
   28.3331  -20.7417   -7.9311 C   0  0  0  0  0  0  0  0  0  0  0  0
   28.3185  -20.0489   -6.6257 C   0  0  0  0  0  0  0  0  0  0  0  0
   28.9034  -20.6650   -5.5430 C   0  0  0  0  0  0  0  0  0  0  0  0
   28.9347  -20.0833   -4.2778 C   0  0  0  0  0  0  0  0  0  0  0  0
   28.3512  -18.8489   -4.1411 C   0  0  0  0  0  0  0  0  0  0  0  0
   27.7581  -18.2115   -5.2145 C   0  0  0  0  0  0  0  0  0  0  0  0
   27.7408  -18.8072   -6.4519 C   0  0  0  0  0  0  0  0  0  0  0  0
   26.3733  -21.7191   -6.8499 C   0  0  0  0  0  0  0  0  0  0  0  0
   27.0265  -22.2953   -5.9468 O   0  0  0  0  0  0  0  0  0  0  0  0
   25.0621  -21.3279   -6.5876 O   0  0  0  0  0  0  0  0  0  0  0  0
  2  1  1  6
  2  3  1  0
  4  3  1  0
  5  4  2  0
  6  7  1  0
  6  5  1  0
  7 12  2  0
  8  9  2  0
  8  7  1  0
  9 10  1  0
 10 11  2  0
 12 11  1  0
 12  4  1  0
 13  2  1  0
 13 14  2  0
 16 15  1  6
 16 17  1  0
 16 18  1  0
 18 19  1  6
 19 13  1  0
 20 18  1  0
 21 20  2  0
 22 20  1  0
 23 22  1  0
 23 24  1  1
 24 25  1  0
 25 26  2  0
 26 27  1  0
 28 27  2  0
 29 28  1  0
 30 29  2  0
 30 25  1  0
 31 23  1  0
 32 31  2  0
 33 31  1  0
M  END
$$$$
