WTF.pdb
     RDKit          3D

 33 35  0  0  1  0  0  0  0  0999 V2000
   27.6455  -22.6351  -10.1422 N   0  0  0  0  0  0  0  0  0  0  0  0
   27.1554  -21.2665  -10.2133 C   0  0  1  0  0  0  0  0  0  0  0  0
   28.1948  -20.2494   -9.9065 C   0  0  0  0  0  0  0  0  0  0  0  0
   28.8815  -20.4031   -8.6242 C   0  0  0  0  0  0  0  0  0  0  0  0
   30.0649  -21.0613   -8.3798 C   0  0  0  0  0  0  0  0  0  0  0  0
   30.3009  -20.9423   -7.0706 N   0  0  0  0  0  0  0  0  0  0  0  0
   29.3423  -20.2490   -6.4626 C   0  0  0  0  0  0  0  0  0  0  0  0
   29.1096  -19.8505   -5.1532 C   0  0  0  0  0  0  0  0  0  0  0  0
   27.9942  -19.1172   -4.8134 C   0  0  0  0  0  0  0  0  0  0  0  0
   27.0656  -18.7520   -5.7666 C   0  0  0  0  0  0  0  0  0  0  0  0
   27.2971  -19.1478   -7.0657 C   0  0  0  0  0  0  0  0  0  0  0  0
   28.4112  -19.8831   -7.4201 C   0  0  0  0  0  0  0  0  0  0  0  0
   26.4452  -21.0643  -11.4968 C   0  0  0  0  0  0  0  0  0  0  0  0
   27.0384  -21.1366  -12.6030 O   0  0  0  0  0  0  0  0  0  0  0  0
   26.0085  -22.0320  -13.7825 C   0  0  0  0  0  0  0  0  0  0  0  0
   24.5110  -21.9021  -13.5451 C   0  0  1  0  0  0  0  0  0  0  0  0
   24.0843  -23.0444  -12.9050 O   0  0  0  0  0  0  0  0  0  0  0  0
   24.2950  -20.6502  -12.7451 C   0  0  2  0  0  0  0  0  0  0  0  0
   25.0510  -20.7785  -11.5147 N   0  0  0  0  0  0  0  0  0  0  0  0
   22.8863  -20.3593  -12.4651 C   0  0  0  0  0  0  0  0  0  0  0  0
   22.3808  -20.7560  -11.3913 O   0  0  0  0  0  0  0  0  0  0  0  0
   22.1008  -19.6339  -13.4022 N   0  0  0  0  0  0  0  0  0  0  0  0
   20.7465  -19.2658  -13.0608 C   0  0  1  0  0  0  0  0  0  0  0  0
   20.2727  -18.0956  -13.9060 C   0  0  0  0  0  0  0  0  0  0  0  0
   20.4446  -18.3940  -15.3432 C   0  0  0  0  0  0  0  0  0  0  0  0
   19.3481  -18.7954  -16.0715 C   0  0  0  0  0  0  0  0  0  0  0  0
   19.4210  -19.0959  -17.4296 C   0  0  0  0  0  0  0  0  0  0  0  0
   20.6478  -18.9766  -18.0327 C   0  0  0  0  0  0  0  0  0  0  0  0
   21.7625  -18.5753  -17.3211 C   0  0  0  0  0  0  0  0  0  0  0  0
   21.6633  -18.2849  -15.9824 C   0  0  0  0  0  0  0  0  0  0  0  0
   19.8559  -20.4220  -13.2903 C   0  0  0  0  0  0  0  0  0  0  0  0
   20.2840  -21.3876  -13.9674 O   0  0  0  0  0  0  0  0  0  0  0  0
   18.5598  -20.4778  -12.7822 O   0  0  0  0  0  0  0  0  0  0  0  0
  2  1  1  6
  2  3  1  0
  4  3  1  0
  5  4  2  0
  6  7  1  0
  6  5  1  0
  7 12  2  0
  8  9  2  0
  8  7  1  0
  9 10  1  0
 10 11  2  0
 12 11  1  0
 12  4  1  0
 13  2  1  0
 13 14  2  0
 16 15  1  1
 16 17  1  0
 16 18  1  0
 18 19  1  1
 19 13  1  0
 20 18  1  0
 21 20  2  0
 22 20  1  0
 23 22  1  0
 23 24  1  6
 24 25  1  0
 25 26  2  0
 26 27  1  0
 28 27  2  0
 29 28  1  0
 30 29  2  0
 30 25  1  0
 31 23  1  0
 32 31  2  0
 33 31  1  0
M  END
$$$$
