WTF.pdb
     RDKit          3D

 33 35  0  0  1  0  0  0  0  0999 V2000
   28.2845  -22.1774  -10.5200 N   0  0  0  0  0  0  0  0  0  0  0  0
   27.2558  -21.2152  -10.1533 C   0  0  1  0  0  0  0  0  0  0  0  0
   27.7931  -20.0005   -9.4864 C   0  0  0  0  0  0  0  0  0  0  0  0
   28.6611  -20.2349   -8.3327 C   0  0  0  0  0  0  0  0  0  0  0  0
   29.8703  -20.8915   -8.3121 C   0  0  0  0  0  0  0  0  0  0  0  0
   30.2953  -20.8624   -7.0462 N   0  0  0  0  0  0  0  0  0  0  0  0
   29.4334  -20.2283   -6.2562 C   0  0  0  0  0  0  0  0  0  0  0  0
   29.3937  -19.9273   -4.9014 C   0  0  0  0  0  0  0  0  0  0  0  0
   28.3372  -19.2364   -4.3501 C   0  0  0  0  0  0  0  0  0  0  0  0
   27.2775  -18.8180   -5.1285 C   0  0  0  0  0  0  0  0  0  0  0  0
   27.3174  -19.1169   -6.4727 C   0  0  0  0  0  0  0  0  0  0  0  0
   28.3704  -19.8089   -7.0384 C   0  0  0  0  0  0  0  0  0  0  0  0
   26.3889  -20.9515  -11.3243 C   0  0  0  0  0  0  0  0  0  0  0  0
   26.8637  -20.7576  -12.4723 O   0  0  0  0  0  0  0  0  0  0  0  0
   25.8454  -21.6816  -13.6775 C   0  0  0  0  0  0  0  0  0  0  0  0
   24.3736  -21.7988  -13.3089 C   0  0  1  0  0  0  0  0  0  0  0  0
   24.1591  -23.0708  -12.8267 O   0  0  0  0  0  0  0  0  0  0  0  0
   24.0793  -20.7202  -12.3070 C   0  0  2  0  0  0  0  0  0  0  0  0
   24.9735  -20.9094  -11.1815 N   0  0  0  0  0  0  0  0  0  0  0  0
   22.6827  -20.6845  -11.8648 C   0  0  0  0  0  0  0  0  0  0  0  0
   22.3794  -21.1744  -10.7539 O   0  0  0  0  0  0  0  0  0  0  0  0
   21.6816  -20.0998  -12.6878 N   0  0  0  0  0  0  0  0  0  0  0  0
   20.3510  -19.9066  -12.1602 C   0  0  1  0  0  0  0  0  0  0  0  0
   19.8620  -18.4928  -12.4256 C   0  0  0  0  0  0  0  0  0  0  0  0
   20.0360  -18.1458  -13.8516 C   0  0  0  0  0  0  0  0  0  0  0  0
   21.1869  -17.4986  -14.2394 C   0  0  0  0  0  0  0  0  0  0  0  0
   21.4319  -17.1354  -15.5616 C   0  0  0  0  0  0  0  0  0  0  0  0
   20.4683  -17.4500  -16.4866 C   0  0  0  0  0  0  0  0  0  0  0  0
   19.3049  -18.0997  -16.1198 C   0  0  0  0  0  0  0  0  0  0  0  0
   19.0880  -18.4467  -14.8088 C   0  0  0  0  0  0  0  0  0  0  0  0
   19.4296  -20.8670  -12.8012 C   0  0  0  0  0  0  0  0  0  0  0  0
   19.8397  -21.5328  -13.7825 O   0  0  0  0  0  0  0  0  0  0  0  0
   18.1236  -21.0592  -12.3555 O   0  0  0  0  0  0  0  0  0  0  0  0
  2  1  1  6
  2  3  1  0
  4  3  1  0
  5  4  2  0
  6  7  1  0
  6  5  1  0
  7 12  2  0
  8  9  2  0
  8  7  1  0
  9 10  1  0
 10 11  2  0
 12 11  1  0
 12  4  1  0
 13  2  1  0
 13 14  2  0
 16 15  1  1
 16 17  1  0
 16 18  1  0
 18 19  1  1
 19 13  1  0
 20 18  1  0
 21 20  2  0
 22 20  1  0
 23 22  1  0
 23 24  1  6
 24 25  1  0
 25 26  2  0
 26 27  1  0
 28 27  2  0
 29 28  1  0
 30 29  2  0
 30 25  1  0
 31 23  1  0
 32 31  2  0
 33 31  1  0
M  END
$$$$
