WTF.pdb
     RDKit          3D

 33 35  0  0  1  0  0  0  0  0999 V2000
   25.1722  -17.7313  -14.6214 N   0  0  0  0  0  0  0  0  0  0  0  0
   25.0278  -19.0107  -15.3000 C   0  0  1  0  0  0  0  0  0  0  0  0
   25.2998  -18.9400  -16.7595 C   0  0  0  0  0  0  0  0  0  0  0  0
   24.6288  -17.8609  -17.4838 C   0  0  0  0  0  0  0  0  0  0  0  0
   25.2030  -16.7440  -18.0461 C   0  0  0  0  0  0  0  0  0  0  0  0
   24.2082  -16.0434  -18.5970 N   0  0  0  0  0  0  0  0  0  0  0  0
   23.0337  -16.6428  -18.4220 C   0  0  0  0  0  0  0  0  0  0  0  0
   21.7262  -16.3476  -18.7837 C   0  0  0  0  0  0  0  0  0  0  0  0
   20.6832  -17.1840  -18.4521 C   0  0  0  0  0  0  0  0  0  0  0  0
   20.9029  -18.3490  -17.7458 C   0  0  0  0  0  0  0  0  0  0  0  0
   22.2004  -18.6413  -17.3872 C   0  0  0  0  0  0  0  0  0  0  0  0
   23.2554  -17.8116  -17.7133 C   0  0  0  0  0  0  0  0  0  0  0  0
   25.7991  -20.0437  -14.5716 C   0  0  0  0  0  0  0  0  0  0  0  0
   25.9600  -21.2020  -15.0337 O   0  0  0  0  0  0  0  0  0  0  0  0
   28.7407  -21.0368  -13.9985 C   0  0  0  0  0  0  0  0  0  0  0  0
   28.3971  -20.7744  -12.5395 C   0  0  1  0  0  0  0  0  0  0  0  0
   28.9704  -19.5750  -12.1798 O   0  0  0  0  0  0  0  0  0  0  0  0
   26.9001  -20.7810  -12.4274 C   0  0  2  0  0  0  0  0  0  0  0  0
   26.3884  -19.7506  -13.3097 N   0  0  0  0  0  0  0  0  0  0  0  0
   26.4053  -20.5922  -11.0610 C   0  0  0  0  0  0  0  0  0  0  0  0
   25.4471  -19.8132  -10.8590 O   0  0  0  0  0  0  0  0  0  0  0  0
   27.0063  -21.2860   -9.9753 N   0  0  0  0  0  0  0  0  0  0  0  0
   26.6515  -20.9309   -8.6210 C   0  0  1  0  0  0  0  0  0  0  0  0
   27.0494  -19.4971   -8.3140 C   0  0  0  0  0  0  0  0  0  0  0  0
   27.8512  -19.4384   -7.0739 C   0  0  0  0  0  0  0  0  0  0  0  0
   28.3650  -18.2257   -6.6750 C   0  0  0  0  0  0  0  0  0  0  0  0
   29.1304  -18.0806   -5.5203 C   0  0  0  0  0  0  0  0  0  0  0  0
   29.3615  -19.2100   -4.7759 C   0  0  0  0  0  0  0  0  0  0  0  0
   28.8555  -20.4382   -5.1573 C   0  0  0  0  0  0  0  0  0  0  0  0
   28.1036  -20.5538   -6.3008 C   0  0  0  0  0  0  0  0  0  0  0  0
   25.1919  -21.0773   -8.4465 C   0  0  0  0  0  0  0  0  0  0  0  0
   24.4272  -20.3685   -9.1445 O   0  0  0  0  0  0  0  0  0  0  0  0
   24.6354  -21.9730   -7.5359 O   0  0  0  0  0  0  0  0  0  0  0  0
  2  1  1  1
  2  3  1  0
  4  3  1  0
  5  4  2  0
  6  7  1  0
  6  5  1  0
  7 12  2  0
  8  9  2  0
  8  7  1  0
  9 10  1  0
 10 11  2  0
 12 11  1  0
 12  4  1  0
 13  2  1  0
 13 14  2  0
 16 15  1  6
 16 17  1  0
 16 18  1  0
 18 19  1  6
 19 13  1  0
 20 18  1  0
 21 20  2  0
 22 20  1  0
 23 22  1  0
 23 24  1  6
 24 25  1  0
 25 26  2  0
 26 27  1  0
 28 27  2  0
 29 28  1  0
 30 29  2  0
 30 25  1  0
 31 23  1  0
 32 31  2  0
 33 31  1  0
M  END
$$$$
