WTF.pdb
     RDKit          3D

 33 35  0  0  1  0  0  0  0  0999 V2000
   25.0027  -20.0835  -18.1975 N   0  0  0  0  0  0  0  0  0  0  0  0
   25.1668  -18.9911  -17.2497 C   0  0  1  0  0  0  0  0  0  0  0  0
   25.2043  -17.6515  -17.8922 C   0  0  0  0  0  0  0  0  0  0  0  0
   26.1665  -17.4912  -18.9821 C   0  0  0  0  0  0  0  0  0  0  0  0
   25.9146  -17.0763  -20.2696 C   0  0  0  0  0  0  0  0  0  0  0  0
   27.0886  -17.0838  -20.9064 N   0  0  0  0  0  0  0  0  0  0  0  0
   28.0755  -17.4778  -20.1064 C   0  0  0  0  0  0  0  0  0  0  0  0
   29.4434  -17.6569  -20.2628 C   0  0  0  0  0  0  0  0  0  0  0  0
   30.2346  -18.0891  -19.2214 C   0  0  0  0  0  0  0  0  0  0  0  0
   29.6926  -18.3602  -17.9816 C   0  0  0  0  0  0  0  0  0  0  0  0
   28.3354  -18.1822  -17.8271 C   0  0  0  0  0  0  0  0  0  0  0  0
   27.5305  -17.7494  -18.8627 C   0  0  0  0  0  0  0  0  0  0  0  0
   24.1744  -19.1322  -16.1599 C   0  0  0  0  0  0  0  0  0  0  0  0
   23.0147  -18.6553  -16.2514 O   0  0  0  0  0  0  0  0  0  0  0  0
   21.7839  -19.7904  -15.4772 C   0  0  0  0  0  0  0  0  0  0  0  0
   22.3586  -20.6515  -14.3619 C   0  0  1  0  0  0  0  0  0  0  0  0
   22.6109  -21.9018  -14.8812 O   0  0  0  0  0  0  0  0  0  0  0  0
   23.5867  -19.9554  -13.8512 C   0  0  2  0  0  0  0  0  0  0  0  0
   24.5101  -19.8216  -14.9608 N   0  0  0  0  0  0  0  0  0  0  0  0
   24.2253  -20.6309  -12.7183 C   0  0  0  0  0  0  0  0  0  0  0  0
   24.8886  -21.6724  -12.9212 O   0  0  0  0  0  0  0  0  0  0  0  0
   24.0936  -20.1099  -11.4020 N   0  0  0  0  0  0  0  0  0  0  0  0
   24.6677  -20.8323  -10.2908 C   0  0  1  0  0  0  0  0  0  0  0  0
   25.8935  -20.1143   -9.7520 C   0  0  0  0  0  0  0  0  0  0  0  0
   26.9862  -20.1416  -10.7466 C   0  0  0  0  0  0  0  0  0  0  0  0
   27.8874  -21.1810  -10.7113 C   0  0  0  0  0  0  0  0  0  0  0  0
   28.9459  -21.2845  -11.6106 C   0  0  0  0  0  0  0  0  0  0  0  0
   29.0653  -20.2956  -12.5544 C   0  0  0  0  0  0  0  0  0  0  0  0
   28.1720  -19.2424  -12.6086 C   0  0  0  0  0  0  0  0  0  0  0  0
   27.1365  -19.1640  -11.7097 C   0  0  0  0  0  0  0  0  0  0  0  0
   23.6618  -20.9489   -9.2151 C   0  0  0  0  0  0  0  0  0  0  0  0
   22.5625  -20.3595   -9.3512 O   0  0  0  0  0  0  0  0  0  0  0  0
   23.8903  -21.6888   -8.0569 O   0  0  0  0  0  0  0  0  0  0  0  0
  2  1  1  6
  2  3  1  0
  4  3  1  0
  5  4  2  0
  6  7  1  0
  6  5  1  0
  7 12  2  0
  8  9  2  0
  8  7  1  0
  9 10  1  0
 10 11  2  0
 12 11  1  0
 12  4  1  0
 13  2  1  0
 13 14  2  0
 16 15  1  6
 16 17  1  0
 16 18  1  0
 18 19  1  6
 19 13  1  0
 20 18  1  0
 21 20  2  0
 22 20  1  0
 23 22  1  0
 23 24  1  1
 24 25  1  0
 25 26  2  0
 26 27  1  0
 28 27  2  0
 29 28  1  0
 30 29  2  0
 30 25  1  0
 31 23  1  0
 32 31  2  0
 33 31  1  0
M  END
$$$$
