WTF.pdb
     RDKit          3D

 33 35  0  0  1  0  0  0  0  0999 V2000
   19.9674  -22.6882  -15.0091 N   0  0  0  0  0  0  0  0  0  0  0  0
   20.4627  -23.3215  -13.7957 C   0  0  1  0  0  0  0  0  0  0  0  0
   21.4540  -22.4945  -13.0594 C   0  0  0  0  0  0  0  0  0  0  0  0
   22.6081  -22.0387  -13.8337 C   0  0  0  0  0  0  0  0  0  0  0  0
   22.9040  -20.7515  -14.2198 C   0  0  0  0  0  0  0  0  0  0  0  0
   24.0478  -20.8157  -14.9066 N   0  0  0  0  0  0  0  0  0  0  0  0
   24.5017  -22.0636  -14.9837 C   0  0  0  0  0  0  0  0  0  0  0  0
   25.6115  -22.6621  -15.5647 C   0  0  0  0  0  0  0  0  0  0  0  0
   25.8232  -24.0203  -15.4769 C   0  0  0  0  0  0  0  0  0  0  0  0
   24.9357  -24.8364  -14.8056 C   0  0  0  0  0  0  0  0  0  0  0  0
   23.8347  -24.2419  -14.2293 C   0  0  0  0  0  0  0  0  0  0  0  0
   23.6103  -22.8815  -14.3098 C   0  0  0  0  0  0  0  0  0  0  0  0
   19.3173  -23.7918  -12.9836 C   0  0  0  0  0  0  0  0  0  0  0  0
   18.1436  -23.8040  -13.4344 O   0  0  0  0  0  0  0  0  0  0  0  0
   17.4144  -25.5296  -12.9238 C   0  0  0  0  0  0  0  0  0  0  0  0
   17.8993  -25.9982  -11.5595 C   0  0  1  0  0  0  0  0  0  0  0  0
   18.8364  -26.9870  -11.7612 O   0  0  0  0  0  0  0  0  0  0  0  0
   18.4416  -24.7952  -10.8436 C   0  0  2  0  0  0  0  0  0  0  0  0
   19.5155  -24.2500  -11.6508 N   0  0  0  0  0  0  0  0  0  0  0  0
   18.9014  -25.0720   -9.4800 C   0  0  0  0  0  0  0  0  0  0  0  0
   20.0860  -25.4298   -9.2940 O   0  0  0  0  0  0  0  0  0  0  0  0
   18.0124  -24.9360   -8.3789 N   0  0  0  0  0  0  0  0  0  0  0  0
   18.4829  -25.2282   -7.0449 C   0  0  1  0  0  0  0  0  0  0  0  0
   18.3160  -24.0233   -6.1346 C   0  0  0  0  0  0  0  0  0  0  0  0
   16.9369  -23.4989   -6.2202 C   0  0  0  0  0  0  0  0  0  0  0  0
   16.6147  -22.6503   -7.2545 C   0  0  0  0  0  0  0  0  0  0  0  0
   15.3399  -22.1111   -7.4107 C   0  0  0  0  0  0  0  0  0  0  0  0
   14.3937  -22.4602   -6.4801 C   0  0  0  0  0  0  0  0  0  0  0  0
   14.6948  -23.3108   -5.4333 C   0  0  0  0  0  0  0  0  0  0  0  0
   15.9600  -23.8288   -5.3023 C   0  0  0  0  0  0  0  0  0  0  0  0
   17.7122  -26.3622   -6.4950 C   0  0  0  0  0  0  0  0  0  0  0  0
   16.7290  -26.7940   -7.1440 O   0  0  0  0  0  0  0  0  0  0  0  0
   18.0380  -26.9681   -5.2834 O   0  0  0  0  0  0  0  0  0  0  0  0
  2  1  1  6
  2  3  1  0
  4  3  1  0
  5  4  2  0
  6  7  1  0
  6  5  1  0
  7 12  2  0
  8  9  2  0
  8  7  1  0
  9 10  1  0
 10 11  2  0
 12 11  1  0
 12  4  1  0
 13  2  1  0
 13 14  2  0
 16 15  1  6
 16 17  1  0
 16 18  1  0
 18 19  1  6
 19 13  1  0
 20 18  1  0
 21 20  2  0
 22 20  1  0
 23 22  1  0
 23 24  1  1
 24 25  1  0
 25 26  2  0
 26 27  1  0
 28 27  2  0
 29 28  1  0
 30 29  2  0
 30 25  1  0
 31 23  1  0
 32 31  2  0
 33 31  1  0
M  END
$$$$
