WTF.pdb
     RDKit          3D

 33 35  0  0  1  0  0  0  0  0999 V2000
   28.1306  -21.4568  -16.9110 N   0  0  0  0  0  0  0  0  0  0  0  0
   27.0202  -20.6678  -16.3984 C   0  0  1  0  0  0  0  0  0  0  0  0
   26.0507  -20.2593  -17.4483 C   0  0  0  0  0  0  0  0  0  0  0  0
   26.6138  -19.5553  -18.6001 C   0  0  0  0  0  0  0  0  0  0  0  0
   27.1622  -20.1073  -19.7349 C   0  0  0  0  0  0  0  0  0  0  0  0
   27.5440  -19.0860  -20.5063 N   0  0  0  0  0  0  0  0  0  0  0  0
   27.2739  -17.9153  -19.9355 C   0  0  0  0  0  0  0  0  0  0  0  0
   27.4597  -16.5884  -20.2993 C   0  0  0  0  0  0  0  0  0  0  0  0
   27.0663  -15.5564  -19.4763 C   0  0  0  0  0  0  0  0  0  0  0  0
   26.4714  -15.8068  -18.2565 C   0  0  0  0  0  0  0  0  0  0  0  0
   26.2873  -17.1236  -17.8961 C   0  0  0  0  0  0  0  0  0  0  0  0
   26.6770  -18.1679  -18.7117 C   0  0  0  0  0  0  0  0  0  0  0  0
   26.4226  -21.3584  -15.2329 C   0  0  0  0  0  0  0  0  0  0  0  0
   26.8488  -22.4703  -14.8291 O   0  0  0  0  0  0  0  0  0  0  0  0
   27.0526  -22.1786  -13.1592 C   0  0  0  0  0  0  0  0  0  0  0  0
   25.8831  -21.6145  -12.3658 C   0  0  1  0  0  0  0  0  0  0  0  0
   26.3157  -20.4716  -11.7308 O   0  0  0  0  0  0  0  0  0  0  0  0
   24.7630  -21.3739  -13.3359 C   0  0  2  0  0  0  0  0  0  0  0  0
   25.3334  -20.7749  -14.5267 N   0  0  0  0  0  0  0  0  0  0  0  0
   23.6806  -20.5436  -12.8004 C   0  0  0  0  0  0  0  0  0  0  0  0
   23.8699  -19.3165  -12.6447 O   0  0  0  0  0  0  0  0  0  0  0  0
   22.4281  -21.1245  -12.4610 N   0  0  0  0  0  0  0  0  0  0  0  0
   21.3353  -20.2715  -12.0560 C   0  0  1  0  0  0  0  0  0  0  0  0
   20.9201  -19.3471  -13.1880 C   0  0  0  0  0  0  0  0  0  0  0  0
   20.5160  -20.1320  -14.3733 C   0  0  0  0  0  0  0  0  0  0  0  0
   19.2024  -20.5251  -14.4903 C   0  0  0  0  0  0  0  0  0  0  0  0
   18.7368  -21.2660  -15.5739 C   0  0  0  0  0  0  0  0  0  0  0  0
   19.6490  -21.5995  -16.5433 C   0  0  0  0  0  0  0  0  0  0  0  0
   20.9731  -21.2156  -16.4466 C   0  0  0  0  0  0  0  0  0  0  0  0
   21.4065  -20.4851  -15.3673 C   0  0  0  0  0  0  0  0  0  0  0  0
   20.1828  -21.1097  -11.6666 C   0  0  0  0  0  0  0  0  0  0  0  0
   19.1464  -20.5477  -11.2373 O   0  0  0  0  0  0  0  0  0  0  0  0
   20.2061  -22.4997  -11.7590 O   0  0  0  0  0  0  0  0  0  0  0  0
  2  1  1  6
  2  3  1  0
  4  3  1  0
  5  4  2  0
  6  7  1  0
  6  5  1  0
  7 12  2  0
  8  9  2  0
  8  7  1  0
  9 10  1  0
 10 11  2  0
 12 11  1  0
 12  4  1  0
 13  2  1  0
 13 14  2  0
 16 15  1  6
 16 17  1  0
 16 18  1  0
 18 19  1  6
 19 13  1  0
 20 18  1  0
 21 20  2  0
 22 20  1  0
 23 22  1  0
 23 24  1  6
 24 25  1  0
 25 26  2  0
 26 27  1  0
 28 27  2  0
 29 28  1  0
 30 29  2  0
 30 25  1  0
 31 23  1  0
 32 31  2  0
 33 31  1  0
M  END
$$$$
