WTF.pdb
     RDKit          3D

 33 35  0  0  1  0  0  0  0  0999 V2000
   28.0776  -22.3067  -12.0122 N   0  0  0  0  0  0  0  0  0  0  0  0
   27.0187  -21.5135  -11.4054 C   0  0  1  0  0  0  0  0  0  0  0  0
   27.5164  -20.3038  -10.6999 C   0  0  0  0  0  0  0  0  0  0  0  0
   28.4672  -20.5419   -9.6143 C   0  0  0  0  0  0  0  0  0  0  0  0
   29.7274  -21.0867   -9.7071 C   0  0  0  0  0  0  0  0  0  0  0  0
   30.2216  -21.1112   -8.4665 N   0  0  0  0  0  0  0  0  0  0  0  0
   29.3561  -20.6160   -7.5862 C   0  0  0  0  0  0  0  0  0  0  0  0
   29.3699  -20.4185   -6.2120 C   0  0  0  0  0  0  0  0  0  0  0  0
   28.2920  -19.8672   -5.5550 C   0  0  0  0  0  0  0  0  0  0  0  0
   27.1566  -19.4907   -6.2429 C   0  0  0  0  0  0  0  0  0  0  0  0
   27.1435  -19.6868   -7.6064 C   0  0  0  0  0  0  0  0  0  0  0  0
   28.2171  -20.2385   -8.2776 C   0  0  0  0  0  0  0  0  0  0  0  0
   25.9589  -21.2589  -12.4076 C   0  0  0  0  0  0  0  0  0  0  0  0
   26.2158  -21.1519  -13.6338 O   0  0  0  0  0  0  0  0  0  0  0  0
   24.9123  -22.1969  -14.5299 C   0  0  0  0  0  0  0  0  0  0  0  0
   23.5419  -22.1676  -13.8689 C   0  0  1  0  0  0  0  0  0  0  0  0
   23.3626  -23.3665  -13.2154 O   0  0  0  0  0  0  0  0  0  0  0  0
   23.5148  -20.9768  -12.9552 C   0  0  2  0  0  0  0  0  0  0  0  0
   24.6001  -21.1261  -12.0056 N   0  0  0  0  0  0  0  0  0  0  0  0
   22.2370  -20.7874  -12.2631 C   0  0  0  0  0  0  0  0  0  0  0  0
   22.0960  -21.2371  -11.1039 O   0  0  0  0  0  0  0  0  0  0  0  0
   21.1680  -20.1000  -12.9003 N   0  0  0  0  0  0  0  0  0  0  0  0
   19.9589  -19.8239  -12.1601 C   0  0  1  0  0  0  0  0  0  0  0  0
   19.5721  -18.3594  -12.2794 C   0  0  0  0  0  0  0  0  0  0  0  0
   19.6230  -17.9256  -13.6912 C   0  0  0  0  0  0  0  0  0  0  0  0
   18.4578  -17.9175  -14.4234 C   0  0  0  0  0  0  0  0  0  0  0  0
   18.4157  -17.5232  -15.7586 C   0  0  0  0  0  0  0  0  0  0  0  0
   19.5989  -17.1341  -16.3346 C   0  0  0  0  0  0  0  0  0  0  0  0
   20.7810  -17.1343  -15.6185 C   0  0  0  0  0  0  0  0  0  0  0  0
   20.7949  -17.5279  -14.3028 C   0  0  0  0  0  0  0  0  0  0  0  0
   18.8625  -20.6600  -12.6905 C   0  0  0  0  0  0  0  0  0  0  0  0
   17.7501  -20.6342  -12.1107 O   0  0  0  0  0  0  0  0  0  0  0  0
   19.0198  -21.4746  -13.8098 O   0  0  0  0  0  0  0  0  0  0  0  0
  2  1  1  6
  2  3  1  0
  4  3  1  0
  5  4  2  0
  6  7  1  0
  6  5  1  0
  7 12  2  0
  8  9  2  0
  8  7  1  0
  9 10  1  0
 10 11  2  0
 12 11  1  0
 12  4  1  0
 13  2  1  0
 13 14  2  0
 16 15  1  1
 16 17  1  0
 16 18  1  0
 18 19  1  1
 19 13  1  0
 20 18  1  0
 21 20  2  0
 22 20  1  0
 23 22  1  0
 23 24  1  6
 24 25  1  0
 25 26  2  0
 26 27  1  0
 28 27  2  0
 29 28  1  0
 30 29  2  0
 30 25  1  0
 31 23  1  0
 32 31  2  0
 33 31  1  0
M  END
$$$$
