WTF.pdb
     RDKit          3D

 33 35  0  0  1  0  0  0  0  0999 V2000
   14.9770  -18.1661    2.4853 N   0  0  0  0  0  0  0  0  0  0  0  0
   15.6319  -18.9048    3.5549 C   0  0  1  0  0  0  0  0  0  0  0  0
   16.7102  -19.8082    3.0754 C   0  0  0  0  0  0  0  0  0  0  0  0
   16.3003  -20.8510    2.1352 C   0  0  0  0  0  0  0  0  0  0  0  0
   15.7818  -20.6847    0.8715 C   0  0  0  0  0  0  0  0  0  0  0  0
   15.5560  -21.9102    0.3907 N   0  0  0  0  0  0  0  0  0  0  0  0
   15.8979  -22.8497    1.2680 C   0  0  0  0  0  0  0  0  0  0  0  0
   15.8677  -24.2377    1.2700 C   0  0  0  0  0  0  0  0  0  0  0  0
   16.3008  -24.9637    2.3575 C   0  0  0  0  0  0  0  0  0  0  0  0
   16.7816  -24.3337    3.4873 C   0  0  0  0  0  0  0  0  0  0  0  0
   16.8113  -22.9565    3.4847 C   0  0  0  0  0  0  0  0  0  0  0  0
   16.3801  -22.2164    2.4012 C   0  0  0  0  0  0  0  0  0  0  0  0
   16.0360  -17.9653    4.6257 C   0  0  0  0  0  0  0  0  0  0  0  0
   16.3344  -16.7684    4.3818 O   0  0  0  0  0  0  0  0  0  0  0  0
   16.0008  -16.9628    9.3997 C   0  0  0  0  0  0  0  0  0  0  0  0
   15.6351  -17.9100    8.2662 C   0  0  1  0  0  0  0  0  0  0  0  0
   14.2756  -17.8222    8.0646 O   0  0  0  0  0  0  0  0  0  0  0  0
   16.4461  -17.5048    7.0696 C   0  0  2  0  0  0  0  0  0  0  0  0
   16.0989  -18.3966    5.9805 N   0  0  0  0  0  0  0  0  0  0  0  0
   17.8927  -17.5046    7.3041 C   0  0  0  0  0  0  0  0  0  0  0  0
   18.5234  -18.5836    7.2409 O   0  0  0  0  0  0  0  0  0  0  0  0
   18.5739  -16.2924    7.6003 N   0  0  0  0  0  0  0  0  0  0  0  0
   19.9835  -16.3272    7.9134 C   0  0  1  0  0  0  0  0  0  0  0  0
   20.8087  -15.7763    6.7627 C   0  0  0  0  0  0  0  0  0  0  0  0
   20.5502  -14.3318    6.5875 C   0  0  0  0  0  0  0  0  0  0  0  0
   21.2938  -13.4332    7.3177 C   0  0  0  0  0  0  0  0  0  0  0  0
   21.1160  -12.0556    7.2138 C   0  0  0  0  0  0  0  0  0  0  0  0
   20.1545  -11.6121    6.3409 C   0  0  0  0  0  0  0  0  0  0  0  0
   19.3960  -12.4963    5.5974 C   0  0  0  0  0  0  0  0  0  0  0  0
   19.5914  -13.8504    5.7188 C   0  0  0  0  0  0  0  0  0  0  0  0
   20.2332  -15.5151    9.1219 C   0  0  0  0  0  0  0  0  0  0  0  0
   19.3425  -14.7209    9.5092 O   0  0  0  0  0  0  0  0  0  0  0  0
   21.4209  -15.5999    9.8455 O   0  0  0  0  0  0  0  0  0  0  0  0
  2  1  1  6
  2  3  1  0
  4  3  1  0
  5  4  2  0
  6  7  1  0
  6  5  1  0
  7 12  2  0
  8  9  2  0
  8  7  1  0
  9 10  1  0
 10 11  2  0
 12 11  1  0
 12  4  1  0
 13  2  1  0
 13 14  2  0
 16 15  1  1
 16 17  1  0
 16 18  1  0
 18 19  1  6
 19 13  1  0
 20 18  1  0
 21 20  2  0
 22 20  1  0
 23 22  1  0
 23 24  1  6
 24 25  1  0
 25 26  2  0
 26 27  1  0
 28 27  2  0
 29 28  1  0
 30 29  2  0
 30 25  1  0
 31 23  1  0
 32 31  2  0
 33 31  1  0
M  END
$$$$
