WTF.pdb
     RDKit          3D

 33 35  0  0  1  0  0  0  0  0999 V2000
   27.3358  -21.5141  -11.8527 N   0  0  0  0  0  0  0  0  0  0  0  0
   26.2601  -21.1903  -10.9272 C   0  0  1  0  0  0  0  0  0  0  0  0
   26.6745  -20.2672   -9.8386 C   0  0  0  0  0  0  0  0  0  0  0  0
   27.8574  -20.6664   -9.0767 C   0  0  0  0  0  0  0  0  0  0  0  0
   28.9041  -21.4516   -9.5026 C   0  0  0  0  0  0  0  0  0  0  0  0
   29.7487  -21.5479   -8.4724 N   0  0  0  0  0  0  0  0  0  0  0  0
   29.3074  -20.8733   -7.4144 C   0  0  0  0  0  0  0  0  0  0  0  0
   29.7863  -20.6544   -6.1298 C   0  0  0  0  0  0  0  0  0  0  0  0
   29.0874  -19.8874   -5.2239 C   0  0  0  0  0  0  0  0  0  0  0  0
   27.8820  -19.3078   -5.5635 C   0  0  0  0  0  0  0  0  0  0  0  0
   27.4073  -19.5254   -6.8383 C   0  0  0  0  0  0  0  0  0  0  0  0
   28.0978  -20.2922   -7.7563 C   0  0  0  0  0  0  0  0  0  0  0  0
   25.0676  -20.7579  -11.6910 C   0  0  0  0  0  0  0  0  0  0  0  0
   25.1590  -20.0154  -12.7016 O   0  0  0  0  0  0  0  0  0  0  0  0
   24.0146  -20.5134  -13.9345 C   0  0  0  0  0  0  0  0  0  0  0  0
   22.7208  -21.1423  -13.4383 C   0  0  1  0  0  0  0  0  0  0  0  0
   22.8078  -22.5018  -13.6398 O   0  0  0  0  0  0  0  0  0  0  0  0
   22.5654  -20.7587  -11.9952 C   0  0  2  0  0  0  0  0  0  0  0  0
   23.7655  -21.1766  -11.2973 N   0  0  0  0  0  0  0  0  0  0  0  0
   21.3692  -21.3156  -11.3575 C   0  0  0  0  0  0  0  0  0  0  0  0
   21.4999  -22.1367  -10.4223 O   0  0  0  0  0  0  0  0  0  0  0  0
   20.0733  -20.9280  -11.7954 N   0  0  0  0  0  0  0  0  0  0  0  0
   18.9095  -21.4236  -11.0981 C   0  0  1  0  0  0  0  0  0  0  0  0
   18.0852  -20.2780  -10.5356 C   0  0  0  0  0  0  0  0  0  0  0  0
   17.9793  -19.1844  -11.5240 C   0  0  0  0  0  0  0  0  0  0  0  0
   16.8983  -19.1644  -12.3754 C   0  0  0  0  0  0  0  0  0  0  0  0
   16.7203  -18.1712  -13.3356 C   0  0  0  0  0  0  0  0  0  0  0  0
   17.6780  -17.1911  -13.4081 C   0  0  0  0  0  0  0  0  0  0  0  0
   18.7718  -17.1911  -12.5634 C   0  0  0  0  0  0  0  0  0  0  0  0
   18.9235  -18.1825  -11.6250 C   0  0  0  0  0  0  0  0  0  0  0  0
   18.0775  -22.2054  -12.0356 C   0  0  0  0  0  0  0  0  0  0  0  0
   17.0751  -22.8135  -11.5887 O   0  0  0  0  0  0  0  0  0  0  0  0
   18.3660  -22.2912  -13.3960 O   0  0  0  0  0  0  0  0  0  0  0  0
  2  1  1  6
  2  3  1  0
  4  3  1  0
  5  4  2  0
  6  7  1  0
  6  5  1  0
  7 12  2  0
  8  9  2  0
  8  7  1  0
  9 10  1  0
 10 11  2  0
 12 11  1  0
 12  4  1  0
 13  2  1  0
 13 14  2  0
 16 15  1  1
 16 17  1  0
 16 18  1  0
 18 19  1  1
 19 13  1  0
 20 18  1  0
 21 20  2  0
 22 20  1  0
 23 22  1  0
 23 24  1  6
 24 25  1  0
 25 26  2  0
 26 27  1  0
 28 27  2  0
 29 28  1  0
 30 29  2  0
 30 25  1  0
 31 23  1  0
 32 31  2  0
 33 31  1  0
M  END
$$$$
