WTF.pdb
     RDKit          3D

 33 35  0  0  1  0  0  0  0  0999 V2000
   25.7289  -19.8208  -15.9684 N   0  0  0  0  0  0  0  0  0  0  0  0
   26.5428  -19.7988  -14.7619 C   0  0  1  0  0  0  0  0  0  0  0  0
   27.7986  -19.0176  -14.9100 C   0  0  0  0  0  0  0  0  0  0  0  0
   28.6282  -19.3532  -16.0669 C   0  0  0  0  0  0  0  0  0  0  0  0
   28.9294  -18.5519  -17.1442 C   0  0  0  0  0  0  0  0  0  0  0  0
   29.7118  -19.2767  -17.9481 N   0  0  0  0  0  0  0  0  0  0  0  0
   29.9299  -20.4914  -17.4521 C   0  0  0  0  0  0  0  0  0  0  0  0
   30.6484  -21.6016  -17.8750 C   0  0  0  0  0  0  0  0  0  0  0  0
   30.6912  -22.7570  -17.1263 C   0  0  0  0  0  0  0  0  0  0  0  0
   30.0184  -22.8513  -15.9251 C   0  0  0  0  0  0  0  0  0  0  0  0
   29.3056  -21.7494  -15.5061 C   0  0  0  0  0  0  0  0  0  0  0  0
   29.2543  -20.5849  -16.2469 C   0  0  0  0  0  0  0  0  0  0  0  0
   25.7005  -19.4118  -13.6072 C   0  0  0  0  0  0  0  0  0  0  0  0
   24.9255  -18.4227  -13.6519 O   0  0  0  0  0  0  0  0  0  0  0  0
   23.2810  -19.0999  -12.9898 C   0  0  0  0  0  0  0  0  0  0  0  0
   23.4306  -20.0811  -11.8363 C   0  0  1  0  0  0  0  0  0  0  0  0
   23.1620  -21.3431  -12.3178 O   0  0  0  0  0  0  0  0  0  0  0  0
   24.8247  -19.9278  -11.3008 C   0  0  2  0  0  0  0  0  0  0  0  0
   25.7449  -20.1593  -12.3969 N   0  0  0  0  0  0  0  0  0  0  0  0
   25.1272  -20.8088  -10.1694 C   0  0  0  0  0  0  0  0  0  0  0  0
   25.5749  -21.9564  -10.3896 O   0  0  0  0  0  0  0  0  0  0  0  0
   24.9149  -20.3659   -8.8352 N   0  0  0  0  0  0  0  0  0  0  0  0
   25.0991  -21.2909   -7.7413 C   0  0  1  0  0  0  0  0  0  0  0  0
   25.5625  -20.5654   -6.4893 C   0  0  0  0  0  0  0  0  0  0  0  0
   26.9667  -20.1286   -6.6360 C   0  0  0  0  0  0  0  0  0  0  0  0
   27.9105  -21.0531   -7.0208 C   0  0  0  0  0  0  0  0  0  0  0  0
   29.2549  -20.7269   -7.1834 C   0  0  0  0  0  0  0  0  0  0  0  0
   29.6174  -19.4256   -6.9423 C   0  0  0  0  0  0  0  0  0  0  0  0
   28.6866  -18.4803   -6.5549 C   0  0  0  0  0  0  0  0  0  0  0  0
   27.3668  -18.8283   -6.4019 C   0  0  0  0  0  0  0  0  0  0  0  0
   23.8192  -21.9733   -7.4609 C   0  0  0  0  0  0  0  0  0  0  0  0
   22.7559  -21.4569   -7.8815 O   0  0  0  0  0  0  0  0  0  0  0  0
   23.7513  -23.1679   -6.7472 O   0  0  0  0  0  0  0  0  0  0  0  0
  2  1  1  6
  2  3  1  0
  4  3  1  0
  5  4  2  0
  6  7  1  0
  6  5  1  0
  7 12  2  0
  8  9  2  0
  8  7  1  0
  9 10  1  0
 10 11  2  0
 12 11  1  0
 12  4  1  0
 13  2  1  0
 13 14  2  0
 16 15  1  6
 16 17  1  0
 16 18  1  0
 18 19  1  6
 19 13  1  0
 20 18  1  0
 21 20  2  0
 22 20  1  0
 23 22  1  0
 23 24  1  1
 24 25  1  0
 25 26  2  0
 26 27  1  0
 28 27  2  0
 29 28  1  0
 30 29  2  0
 30 25  1  0
 31 23  1  0
 32 31  2  0
 33 31  1  0
M  END
$$$$
