WTF.pdb
     RDKit          3D

 33 35  0  0  1  0  0  0  0  0999 V2000
   28.2393  -19.2220  -16.7426 N   0  0  0  0  0  0  0  0  0  0  0  0
   27.1265  -18.7106  -15.9561 C   0  0  1  0  0  0  0  0  0  0  0  0
   26.3506  -17.6496  -16.6497 C   0  0  0  0  0  0  0  0  0  0  0  0
   27.1136  -16.4804  -17.0858 C   0  0  0  0  0  0  0  0  0  0  0  0
   27.5799  -16.2071  -18.3512 C   0  0  0  0  0  0  0  0  0  0  0  0
   28.2187  -15.0367  -18.2747 N   0  0  0  0  0  0  0  0  0  0  0  0
   28.1900  -14.5445  -17.0393 C   0  0  0  0  0  0  0  0  0  0  0  0
   28.6865  -13.3967  -16.4364 C   0  0  0  0  0  0  0  0  0  0  0  0
   28.4942  -13.1496  -15.0950 C   0  0  0  0  0  0  0  0  0  0  0  0
   27.7986  -14.0383  -14.3008 C   0  0  0  0  0  0  0  0  0  0  0  0
   27.3062  -15.1770  -14.8997 C   0  0  0  0  0  0  0  0  0  0  0  0
   27.4918  -15.4371  -16.2434 C   0  0  0  0  0  0  0  0  0  0  0  0
   26.3189  -19.8444  -15.4513 C   0  0  0  0  0  0  0  0  0  0  0  0
   26.6354  -21.0396  -15.6800 O   0  0  0  0  0  0  0  0  0  0  0  0
   26.6266  -21.6795  -13.9256 C   0  0  0  0  0  0  0  0  0  0  0  0
   25.3665  -21.3962  -13.1209 C   0  0  1  0  0  0  0  0  0  0  0  0
   25.7291  -20.6635  -12.0126 O   0  0  0  0  0  0  0  0  0  0  0  0
   24.4117  -20.6770  -14.0291 C   0  0  2  0  0  0  0  0  0  0  0  0
   25.1447  -19.6100  -14.6819 N   0  0  0  0  0  0  0  0  0  0  0  0
   23.2233  -20.1548  -13.3490 C   0  0  0  0  0  0  0  0  0  0  0  0
   23.3351  -19.1600  -12.5981 O   0  0  0  0  0  0  0  0  0  0  0  0
   21.9560  -20.7706  -13.5391 N   0  0  0  0  0  0  0  0  0  0  0  0
   20.7741  -20.1498  -12.9879 C   0  0  1  0  0  0  0  0  0  0  0  0
   20.5188  -18.7989  -13.6347 C   0  0  0  0  0  0  0  0  0  0  0  0
   20.3453  -18.9503  -15.0945 C   0  0  0  0  0  0  0  0  0  0  0  0
   21.4659  -19.0350  -15.8888 C   0  0  0  0  0  0  0  0  0  0  0  0
   21.3933  -19.1791  -17.2723 C   0  0  0  0  0  0  0  0  0  0  0  0
   20.1415  -19.2352  -17.8316 C   0  0  0  0  0  0  0  0  0  0  0  0
   19.0023  -19.1521  -17.0535 C   0  0  0  0  0  0  0  0  0  0  0  0
   19.1018  -19.0103  -15.6910 C   0  0  0  0  0  0  0  0  0  0  0  0
   19.6094  -21.0279  -13.2224 C   0  0  0  0  0  0  0  0  0  0  0  0
   18.5136  -20.7313  -12.6881 O   0  0  0  0  0  0  0  0  0  0  0  0
   19.6847  -22.1715  -14.0146 O   0  0  0  0  0  0  0  0  0  0  0  0
  2  1  1  6
  2  3  1  0
  4  3  1  0
  5  4  2  0
  6  7  1  0
  6  5  1  0
  7 12  2  0
  8  9  2  0
  8  7  1  0
  9 10  1  0
 10 11  2  0
 12 11  1  0
 12  4  1  0
 13  2  1  0
 13 14  2  0
 16 15  1  6
 16 17  1  0
 16 18  1  0
 18 19  1  1
 19 13  1  0
 20 18  1  0
 21 20  2  0
 22 20  1  0
 23 22  1  0
 23 24  1  6
 24 25  1  0
 25 26  2  0
 26 27  1  0
 28 27  2  0
 29 28  1  0
 30 29  2  0
 30 25  1  0
 31 23  1  0
 32 31  2  0
 33 31  1  0
M  END
$$$$
