WTF.pdb
     RDKit          3D

 33 35  0  0  1  0  0  0  0  0999 V2000
   28.1224  -22.0770  -11.7621 N   0  0  0  0  0  0  0  0  0  0  0  0
   27.0591  -21.3395  -11.0957 C   0  0  1  0  0  0  0  0  0  0  0  0
   27.5529  -20.2054  -10.2716 C   0  0  0  0  0  0  0  0  0  0  0  0
   28.4500  -20.5570   -9.1713 C   0  0  0  0  0  0  0  0  0  0  0  0
   29.6908  -21.1459   -9.2557 C   0  0  0  0  0  0  0  0  0  0  0  0
   30.1341  -21.2762   -8.0026 N   0  0  0  0  0  0  0  0  0  0  0  0
   29.2543  -20.8074   -7.1221 C   0  0  0  0  0  0  0  0  0  0  0  0
   29.2213  -20.7058   -5.7379 C   0  0  0  0  0  0  0  0  0  0  0  0
   28.1405  -20.1569   -5.0837 C   0  0  0  0  0  0  0  0  0  0  0  0
   27.0486  -19.6871   -5.7847 C   0  0  0  0  0  0  0  0  0  0  0  0
   27.0819  -19.7881   -7.1582 C   0  0  0  0  0  0  0  0  0  0  0  0
   28.1591  -20.3363   -7.8266 C   0  0  0  0  0  0  0  0  0  0  0  0
   26.0136  -20.9844  -12.0823 C   0  0  0  0  0  0  0  0  0  0  0  0
   26.2944  -20.4458  -13.1832 O   0  0  0  0  0  0  0  0  0  0  0  0
   22.7510  -21.6015  -14.9790 C   0  0  0  0  0  0  0  0  0  0  0  0
   23.8861  -21.8293  -13.9914 C   0  0  1  0  0  0  0  0  0  0  0  0
   25.0647  -21.4879  -14.6167 O   0  0  0  0  0  0  0  0  0  0  0  0
   23.5903  -20.9998  -12.7756 C   0  0  2  0  0  0  0  0  0  0  0  0
   24.6418  -21.2465  -11.8083 N   0  0  0  0  0  0  0  0  0  0  0  0
   22.2712  -21.2530  -12.1896 C   0  0  0  0  0  0  0  0  0  0  0  0
   22.1196  -22.2290  -11.4212 O   0  0  0  0  0  0  0  0  0  0  0  0
   21.1743  -20.3998  -12.4898 N   0  0  0  0  0  0  0  0  0  0  0  0
   19.9301  -20.5631  -11.7746 C   0  0  1  0  0  0  0  0  0  0  0  0
   19.4065  -19.2239  -11.2838 C   0  0  0  0  0  0  0  0  0  0  0  0
   19.3243  -18.2609  -12.4019 C   0  0  0  0  0  0  0  0  0  0  0  0
   18.1446  -18.1606  -13.1034 C   0  0  0  0  0  0  0  0  0  0  0  0
   17.9807  -17.2796  -14.1698 C   0  0  0  0  0  0  0  0  0  0  0  0
   19.0563  -16.4971  -14.5070 C   0  0  0  0  0  0  0  0  0  0  0  0
   20.2506  -16.5809  -13.8165 C   0  0  0  0  0  0  0  0  0  0  0  0
   20.3859  -17.4582  -12.7685 C   0  0  0  0  0  0  0  0  0  0  0  0
   18.9298  -21.1755  -12.6727 C   0  0  0  0  0  0  0  0  0  0  0  0
   19.1651  -21.2072  -13.9047 O   0  0  0  0  0  0  0  0  0  0  0  0
   17.7365  -21.7182  -12.2009 O   0  0  0  0  0  0  0  0  0  0  0  0
  2  1  1  6
  2  3  1  0
  4  3  1  0
  5  4  2  0
  6  7  1  0
  6  5  1  0
  7 12  2  0
  8  9  2  0
  8  7  1  0
  9 10  1  0
 10 11  2  0
 12 11  1  0
 12  4  1  0
 13  2  1  0
 13 14  2  0
 16 15  1  6
 16 17  1  0
 16 18  1  0
 18 19  1  1
 19 13  1  0
 20 18  1  0
 21 20  2  0
 22 20  1  0
 23 22  1  0
 23 24  1  6
 24 25  1  0
 25 26  2  0
 26 27  1  0
 28 27  2  0
 29 28  1  0
 30 29  2  0
 30 25  1  0
 31 23  1  0
 32 31  2  0
 33 31  1  0
M  END
$$$$
