GSA.pdb
     RDKit          3D

 16 15  0  0  1  0  0  0  0  0999 V2000
   18.5347  -12.5681  -15.1828 N   0  0  0  0  0  0  0  0  0  0  0  0
   17.5905  -11.4959  -15.0343 C   0  0  0  0  0  0  0  0  0  0  0  0
   18.1628  -10.2489  -15.6348 C   0  0  0  0  0  0  0  0  0  0  0  0
   18.7087  -10.2415  -16.7617 O   0  0  0  0  0  0  0  0  0  0  0  0
   16.9879   -6.6450  -14.2372 O   0  0  0  0  0  0  0  0  0  0  0  0
   17.5371   -6.7643  -15.4912 C   0  0  0  0  0  0  0  0  0  0  0  0
   18.6550   -7.8072  -15.5246 C   0  0  2  0  0  0  0  0  0  0  0  0
   18.1063   -9.0118  -14.9382 N   0  0  0  0  0  0  0  0  0  0  0  0
   19.7551   -7.3264  -14.6485 C   0  0  0  0  0  0  0  0  0  0  0  0
   19.6849   -7.4679  -13.3886 O   0  0  0  0  0  0  0  0  0  0  0  0
   23.3042   -6.2885  -15.0679 C   0  0  0  0  0  0  0  0  0  0  0  0
   22.0204   -6.3816  -14.2703 C   0  0  2  0  0  0  0  0  0  0  0  0
   20.9186   -6.6975  -15.1531 N   0  0  0  0  0  0  0  0  0  0  0  0
   21.7808   -5.1129  -13.5282 C   0  0  0  0  0  0  0  0  0  0  0  0
   20.7049   -4.3305  -13.8493 O   0  0  0  0  0  0  0  0  0  0  0  0
   22.5947   -4.8112  -12.6207 O   0  0  0  0  0  0  0  0  0  0  0  0
  2  1  1  0
  3  2  1  0
  4  3  2  0
  6  5  1  0
  7  6  1  1
  7  8  1  0
  8  3  1  0
  9 10  2  0
  9  7  1  0
 12 11  1  6
 12 13  1  0
 13  9  1  0
 14 12  1  0
 14 15  1  0
 16 14  2  0
M  END
$$$$
