GSA.pdb
     RDKit          3D

 16 15  0  0  1  0  0  0  0  0999 V2000
   19.1728   -9.9891  -19.6808 N   0  0  0  0  0  0  0  0  0  0  0  0
   20.4939  -10.1342  -19.1358 C   0  0  0  0  0  0  0  0  0  0  0  0
   20.5092   -9.6063  -17.7343 C   0  0  0  0  0  0  0  0  0  0  0  0
   19.4642   -9.4905  -17.0541 O   0  0  0  0  0  0  0  0  0  0  0  0
   23.2644   -8.5975  -13.9025 O   0  0  0  0  0  0  0  0  0  0  0  0
   23.0822   -9.1250  -15.1583 C   0  0  0  0  0  0  0  0  0  0  0  0
   21.7386   -8.7099  -15.7591 C   0  0  2  0  0  0  0  0  0  0  0  0
   21.7267   -9.2121  -17.1169 N   0  0  0  0  0  0  0  0  0  0  0  0
   21.7020   -7.2252  -15.8152 C   0  0  0  0  0  0  0  0  0  0  0  0
   22.3700   -6.5962  -16.6929 O   0  0  0  0  0  0  0  0  0  0  0  0
   19.5999   -4.4321  -14.7360 C   0  0  0  0  0  0  0  0  0  0  0  0
   20.9821   -4.9976  -14.9862 C   0  0  2  0  0  0  0  0  0  0  0  0
   20.9392   -6.4421  -14.9159 N   0  0  0  0  0  0  0  0  0  0  0  0
   21.9557   -4.4310  -14.0121 C   0  0  0  0  0  0  0  0  0  0  0  0
   22.4093   -3.1497  -14.1718 O   0  0  0  0  0  0  0  0  0  0  0  0
   22.3250   -5.1706  -13.0668 O   0  0  0  0  0  0  0  0  0  0  0  0
  2  1  1  0
  3  2  1  0
  4  3  2  0
  6  5  1  0
  7  6  1  6
  7  8  1  0
  8  3  1  0
  9 10  2  0
  9  7  1  0
 12 11  1  1
 12 13  1  0
 13  9  1  0
 14 12  1  0
 14 15  1  0
 16 14  2  0
M  END
$$$$
