GSA.pdb
     RDKit          3D

 16 15  0  0  1  0  0  0  0  0999 V2000
   21.7753  -21.0423  -12.9598 N   0  0  0  0  0  0  0  0  0  0  0  0
   22.7643  -21.7005  -13.7672 C   0  0  0  0  0  0  0  0  0  0  0  0
   23.9253  -20.7773  -13.9739 C   0  0  0  0  0  0  0  0  0  0  0  0
   23.8585  -19.5540  -13.7152 O   0  0  0  0  0  0  0  0  0  0  0  0
   27.5263  -22.3481  -15.1976 O   0  0  0  0  0  0  0  0  0  0  0  0
   27.5421  -21.1469  -14.5302 C   0  0  0  0  0  0  0  0  0  0  0  0
   26.2543  -20.3542  -14.7572 C   0  0  2  0  0  0  0  0  0  0  0  0
   25.1620  -21.2626  -14.4780 N   0  0  0  0  0  0  0  0  0  0  0  0
   26.1921  -19.9852  -16.1956 C   0  0  0  0  0  0  0  0  0  0  0  0
   25.6683  -20.7737  -17.0418 O   0  0  0  0  0  0  0  0  0  0  0  0
   26.2444  -16.9403  -18.2252 C   0  0  0  0  0  0  0  0  0  0  0  0
   26.5372  -18.4201  -18.0926 C   0  0  2  0  0  0  0  0  0  0  0  0
   26.7005  -18.7627  -16.6965 N   0  0  0  0  0  0  0  0  0  0  0  0
   27.7423  -18.7812  -18.8895 C   0  0  0  0  0  0  0  0  0  0  0  0
   27.6296  -18.9837  -20.2382 O   0  0  0  0  0  0  0  0  0  0  0  0
   28.8322  -18.8861  -18.2744 O   0  0  0  0  0  0  0  0  0  0  0  0
  2  1  1  0
  3  2  1  0
  4  3  2  0
  6  5  1  0
  7  6  1  6
  7  8  1  0
  8  3  1  0
  9 10  2  0
  9  7  1  0
 12 11  1  1
 12 13  1  0
 13  9  1  0
 14 12  1  0
 14 15  1  0
 16 14  2  0
M  END
$$$$
