GSA.pdb
     RDKit          3D

 16 15  0  0  1  0  0  0  0  0999 V2000
   20.6786  -11.8542  -18.3810 N   0  0  0  0  0  0  0  0  0  0  0  0
   20.6536  -10.4448  -18.6568 C   0  0  0  0  0  0  0  0  0  0  0  0
   20.4098   -9.6978  -17.3817 C   0  0  0  0  0  0  0  0  0  0  0  0
   19.3486   -9.8222  -16.7287 O   0  0  0  0  0  0  0  0  0  0  0  0
   22.1845   -7.8374  -13.4673 O   0  0  0  0  0  0  0  0  0  0  0  0
   22.2600   -8.5139  -14.6612 C   0  0  0  0  0  0  0  0  0  0  0  0
   21.1498   -8.0915  -15.6243 C   0  0  2  0  0  0  0  0  0  0  0  0
   21.3871   -8.8084  -16.8595 N   0  0  0  0  0  0  0  0  0  0  0  0
   21.3080   -6.6388  -15.8955 C   0  0  0  0  0  0  0  0  0  0  0  0
   22.2063   -6.2254  -16.6919 O   0  0  0  0  0  0  0  0  0  0  0  0
   19.3661   -3.5082  -15.3969 C   0  0  0  0  0  0  0  0  0  0  0  0
   20.6625   -4.2556  -15.6287 C   0  0  2  0  0  0  0  0  0  0  0  0
   20.4871   -5.6529  -15.2972 N   0  0  0  0  0  0  0  0  0  0  0  0
   21.7625   -3.6390  -14.8365 C   0  0  0  0  0  0  0  0  0  0  0  0
   22.4517   -2.5721  -15.3461 O   0  0  0  0  0  0  0  0  0  0  0  0
   22.0140   -4.1367  -13.7112 O   0  0  0  0  0  0  0  0  0  0  0  0
  2  1  1  0
  3  2  1  0
  4  3  2  0
  6  5  1  0
  7  6  1  1
  7  8  1  0
  8  3  1  0
  9 10  2  0
  9  7  1  0
 12 11  1  1
 12 13  1  0
 13  9  1  0
 14 12  1  0
 14 15  1  0
 16 14  2  0
M  END
$$$$
