GSA.pdb
     RDKit          3D

 16 15  0  0  1  0  0  0  0  0999 V2000
   18.1580  -12.4596  -16.5003 N   0  0  0  0  0  0  0  0  0  0  0  0
   18.9599  -11.4768  -17.1743 C   0  0  0  0  0  0  0  0  0  0  0  0
   19.8750  -10.8246  -16.1842 C   0  0  0  0  0  0  0  0  0  0  0  0
   19.5877  -10.7363  -14.9686 O   0  0  0  0  0  0  0  0  0  0  0  0
   23.7346  -11.1413  -15.3139 O   0  0  0  0  0  0  0  0  0  0  0  0
   23.3963   -9.9742  -15.9556 C   0  0  0  0  0  0  0  0  0  0  0  0
   21.9560   -9.5576  -15.6546 C   0  0  2  0  0  0  0  0  0  0  0  0
   21.1195  -10.2748  -16.5937 N   0  0  0  0  0  0  0  0  0  0  0  0
   21.8310   -8.1045  -15.9407 C   0  0  0  0  0  0  0  0  0  0  0  0
   21.4838   -7.7017  -17.0936 O   0  0  0  0  0  0  0  0  0  0  0  0
   20.3125   -5.5495  -15.5155 C   0  0  0  0  0  0  0  0  0  0  0  0
   21.7943   -5.7184  -15.2534 C   0  0  2  0  0  0  0  0  0  0  0  0
   22.0852   -7.1068  -14.9692 N   0  0  0  0  0  0  0  0  0  0  0  0
   22.2260   -4.8295  -14.1393 C   0  0  0  0  0  0  0  0  0  0  0  0
   22.2135   -3.4717  -14.3093 O   0  0  0  0  0  0  0  0  0  0  0  0
   22.5903   -5.3780  -13.0699 O   0  0  0  0  0  0  0  0  0  0  0  0
  2  1  1  0
  3  2  1  0
  4  3  2  0
  6  5  1  0
  7  6  1  6
  7  8  1  0
  8  3  1  0
  9 10  2  0
  9  7  1  0
 12 11  1  1
 12 13  1  0
 13  9  1  0
 14 12  1  0
 14 15  1  0
 16 14  2  0
M  END
$$$$
