GSA.pdb
     RDKit          3D

 16 15  0  0  1  0  0  0  0  0999 V2000
   26.2798  -22.1192  -11.7050 N   0  0  0  0  0  0  0  0  0  0  0  0
   25.2755  -22.0642  -12.7305 C   0  0  0  0  0  0  0  0  0  0  0  0
   25.1471  -20.6541  -13.2188 C   0  0  0  0  0  0  0  0  0  0  0  0
   24.4929  -19.7890  -12.5932 O   0  0  0  0  0  0  0  0  0  0  0  0
   28.0374  -18.6258  -14.8801 O   0  0  0  0  0  0  0  0  0  0  0  0
   26.9214  -18.5717  -15.6802 C   0  0  0  0  0  0  0  0  0  0  0  0
   25.6449  -18.8773  -14.8955 C   0  0  2  0  0  0  0  0  0  0  0  0
   25.7715  -20.2411  -14.4265 N   0  0  0  0  0  0  0  0  0  0  0  0
   24.5010  -18.8187  -15.8426 C   0  0  0  0  0  0  0  0  0  0  0  0
   24.2688  -19.7840  -16.6341 O   0  0  0  0  0  0  0  0  0  0  0  0
   21.3607  -16.9293  -16.2877 C   0  0  0  0  0  0  0  0  0  0  0  0
   22.5253  -17.7100  -16.8598 C   0  0  2  0  0  0  0  0  0  0  0  0
   23.6231  -17.7107  -15.9176 N   0  0  0  0  0  0  0  0  0  0  0  0
   22.9325  -17.1404  -18.1742 C   0  0  0  0  0  0  0  0  0  0  0  0
   22.0988  -17.2573  -19.2532 O   0  0  0  0  0  0  0  0  0  0  0  0
   24.0474  -16.5654  -18.2348 O   0  0  0  0  0  0  0  0  0  0  0  0
  2  1  1  0
  3  2  1  0
  4  3  2  0
  6  5  1  0
  7  6  1  6
  7  8  1  0
  8  3  1  0
  9 10  2  0
  9  7  1  0
 12 11  1  1
 12 13  1  0
 13  9  1  0
 14 12  1  0
 14 15  1  0
 16 14  2  0
M  END
$$$$
