GSA.pdb
     RDKit          3D

 16 15  0  0  1  0  0  0  0  0999 V2000
   20.7422  -11.7011  -19.4430 N   0  0  0  0  0  0  0  0  0  0  0  0
   21.6609  -10.6446  -19.1220 C   0  0  0  0  0  0  0  0  0  0  0  0
   21.1138   -9.8465  -17.9789 C   0  0  0  0  0  0  0  0  0  0  0  0
   19.8905   -9.6084  -17.8573 O   0  0  0  0  0  0  0  0  0  0  0  0
   21.8159   -8.5447  -13.4488 O   0  0  0  0  0  0  0  0  0  0  0  0
   22.1693   -9.1987  -14.6047 C   0  0  0  0  0  0  0  0  0  0  0  0
   21.4344   -8.6369  -15.8224 C   0  0  2  0  0  0  0  0  0  0  0  0
   21.9747   -9.3232  -16.9769 N   0  0  0  0  0  0  0  0  0  0  0  0
   21.7780   -7.1956  -15.9389 C   0  0  0  0  0  0  0  0  0  0  0  0
   22.9031   -6.8364  -16.4051 O   0  0  0  0  0  0  0  0  0  0  0  0
   20.1156   -3.8700  -15.6297 C   0  0  0  0  0  0  0  0  0  0  0  0
   21.3239   -4.7811  -15.5766 C   0  0  2  0  0  0  0  0  0  0  0  0
   20.8937   -6.1621  -15.5469 N   0  0  0  0  0  0  0  0  0  0  0  0
   22.1713   -4.4464  -14.3986 C   0  0  0  0  0  0  0  0  0  0  0  0
   23.0821   -3.4285  -14.4838 O   0  0  0  0  0  0  0  0  0  0  0  0
   22.0086   -5.1283  -13.3567 O   0  0  0  0  0  0  0  0  0  0  0  0
  2  1  1  0
  3  2  1  0
  4  3  2  0
  6  5  1  0
  7  6  1  1
  7  8  1  0
  8  3  1  0
  9 10  2  0
  9  7  1  0
 12 11  1  1
 12 13  1  0
 13  9  1  0
 14 12  1  0
 14 15  1  0
 16 14  2  0
M  END
$$$$
