GSA.pdb
     RDKit          3D

 16 15  0  0  1  0  0  0  0  0999 V2000
   13.4262  -10.0334   -9.0276 N   0  0  0  0  0  0  0  0  0  0  0  0
   14.8040   -9.6785   -8.8305 C   0  0  0  0  0  0  0  0  0  0  0  0
   15.1976   -8.6495   -9.8451 C   0  0  0  0  0  0  0  0  0  0  0  0
   14.3950   -8.2203  -10.7051 O   0  0  0  0  0  0  0  0  0  0  0  0
   17.0010   -5.6627   -8.8850 O   0  0  0  0  0  0  0  0  0  0  0  0
   16.5175   -5.7507  -10.1684 C   0  0  0  0  0  0  0  0  0  0  0  0
   16.8774   -7.0864  -10.8204 C   0  0  2  0  0  0  0  0  0  0  0  0
   16.5140   -8.1154   -9.8690 N   0  0  0  0  0  0  0  0  0  0  0  0
   18.3521   -7.1242  -11.0012 C   0  0  0  0  0  0  0  0  0  0  0  0
   19.1255   -7.1281   -9.9942 O   0  0  0  0  0  0  0  0  0  0  0  0
   20.7907   -7.7608  -13.7519 C   0  0  0  0  0  0  0  0  0  0  0  0
   20.4090   -7.2214  -12.3894 C   0  0  2  0  0  0  0  0  0  0  0  0
   18.9682   -7.1574  -12.2752 N   0  0  0  0  0  0  0  0  0  0  0  0
   21.0353   -5.8885  -12.1680 C   0  0  0  0  0  0  0  0  0  0  0  0
   20.2482   -4.7714  -12.0950 O   0  0  0  0  0  0  0  0  0  0  0  0
   22.2855   -5.8485  -12.0558 O   0  0  0  0  0  0  0  0  0  0  0  0
  2  1  1  0
  3  2  1  0
  4  3  2  0
  6  5  1  0
  7  6  1  1
  7  8  1  0
  8  3  1  0
  9 10  2  0
  9  7  1  0
 12 11  1  6
 12 13  1  0
 13  9  1  0
 14 12  1  0
 14 15  1  0
 16 14  2  0
M  END
$$$$
