GSA.pdb
     RDKit          3D

 16 15  0  0  1  0  0  0  0  0999 V2000
   16.2803   -9.2815  -15.9792 N   0  0  0  0  0  0  0  0  0  0  0  0
   17.4534   -8.6810  -16.5505 C   0  0  0  0  0  0  0  0  0  0  0  0
   18.1704   -7.8985  -15.4937 C   0  0  0  0  0  0  0  0  0  0  0  0
   17.5617   -7.1833  -14.6655 O   0  0  0  0  0  0  0  0  0  0  0  0
   22.4037   -7.0725  -13.2922 O   0  0  0  0  0  0  0  0  0  0  0  0
   21.6460   -7.7694  -14.2026 C   0  0  0  0  0  0  0  0  0  0  0  0
   20.2829   -7.1136  -14.4271 C   0  0  2  0  0  0  0  0  0  0  0  0
   19.5870   -7.9398  -15.3910 N   0  0  0  0  0  0  0  0  0  0  0  0
   20.5128   -5.7802  -15.0420 C   0  0  0  0  0  0  0  0  0  0  0  0
   20.8161   -5.6802  -16.2710 O   0  0  0  0  0  0  0  0  0  0  0  0
   19.3171   -2.5229  -15.0028 C   0  0  0  0  0  0  0  0  0  0  0  0
   20.6165   -3.2999  -14.9720 C   0  0  2  0  0  0  0  0  0  0  0  0
   20.4101   -4.5712  -14.3129 N   0  0  0  0  0  0  0  0  0  0  0  0
   21.6794   -2.5016  -14.3007 C   0  0  0  0  0  0  0  0  0  0  0  0
   22.1602   -1.3695  -14.9008 O   0  0  0  0  0  0  0  0  0  0  0  0
   22.0962   -2.9121  -13.1894 O   0  0  0  0  0  0  0  0  0  0  0  0
  2  1  1  0
  3  2  1  0
  4  3  2  0
  6  5  1  0
  7  6  1  6
  7  8  1  0
  8  3  1  0
  9 10  2  0
  9  7  1  0
 12 11  1  1
 12 13  1  0
 13  9  1  0
 14 12  1  0
 14 15  1  0
 16 14  2  0
M  END
$$$$
