GSA.pdb
     RDKit          3D

 16 15  0  0  1  0  0  0  0  0999 V2000
   16.9422   -9.6893  -16.2517 N   0  0  0  0  0  0  0  0  0  0  0  0
   18.1560   -9.1684  -16.8162 C   0  0  0  0  0  0  0  0  0  0  0  0
   18.9160   -8.4324  -15.7561 C   0  0  0  0  0  0  0  0  0  0  0  0
   18.3450   -7.8824  -14.7869 O   0  0  0  0  0  0  0  0  0  0  0  0
   22.6564   -9.2538  -14.2425 O   0  0  0  0  0  0  0  0  0  0  0  0
   22.5052   -8.0437  -14.8760 C   0  0  0  0  0  0  0  0  0  0  0  0
   21.0571   -7.5546  -14.8279 C   0  0  2  0  0  0  0  0  0  0  0  0
   20.3321   -8.3300  -15.8123 N   0  0  0  0  0  0  0  0  0  0  0  0
   21.0406   -6.1318  -15.2570 C   0  0  0  0  0  0  0  0  0  0  0  0
   21.0166   -5.8302  -16.4902 O   0  0  0  0  0  0  0  0  0  0  0  0
   19.6253   -3.1851  -14.9254 C   0  0  0  0  0  0  0  0  0  0  0  0
   21.0495   -3.6878  -14.8164 C   0  0  2  0  0  0  0  0  0  0  0  0
   21.0505   -5.0537  -14.3397 N   0  0  0  0  0  0  0  0  0  0  0  0
   21.8446   -2.7968  -13.9265 C   0  0  0  0  0  0  0  0  0  0  0  0
   22.2422   -1.5669  -14.3758 O   0  0  0  0  0  0  0  0  0  0  0  0
   22.1206   -3.2236  -12.7781 O   0  0  0  0  0  0  0  0  0  0  0  0
  2  1  1  0
  3  2  1  0
  4  3  2  0
  6  5  1  0
  7  6  1  6
  7  8  1  0
  8  3  1  0
  9 10  2  0
  9  7  1  0
 12 11  1  1
 12 13  1  0
 13  9  1  0
 14 12  1  0
 14 15  1  0
 16 14  2  0
M  END
$$$$
