GSA.pdb
     RDKit          3D

 16 15  0  0  1  0  0  0  0  0999 V2000
   25.2124  -11.7753  -16.3616 N   0  0  0  0  0  0  0  0  0  0  0  0
   23.8658  -11.7281  -15.8641 C   0  0  0  0  0  0  0  0  0  0  0  0
   23.2614  -10.4006  -16.2042 C   0  0  0  0  0  0  0  0  0  0  0  0
   23.8530   -9.5634  -16.9233 O   0  0  0  0  0  0  0  0  0  0  0  0
   19.2876   -9.9903  -16.4151 O   0  0  0  0  0  0  0  0  0  0  0  0
   19.8714   -8.9226  -15.7766 C   0  0  0  0  0  0  0  0  0  0  0  0
   21.3553   -8.7954  -16.1239 C   0  0  2  0  0  0  0  0  0  0  0  0
   21.9771  -10.0377  -15.7165 N   0  0  0  0  0  0  0  0  0  0  0  0
   21.9261   -7.7001  -15.2972 C   0  0  0  0  0  0  0  0  0  0  0  0
   22.1535   -7.8767  -14.0606 O   0  0  0  0  0  0  0  0  0  0  0  0
   23.4372   -4.3191  -15.8681 C   0  0  0  0  0  0  0  0  0  0  0  0
   22.8909   -5.4315  -14.9980 C   0  0  2  0  0  0  0  0  0  0  0  0
   22.2428   -6.4256  -15.8255 N   0  0  0  0  0  0  0  0  0  0  0  0
   21.9593   -4.8776  -13.9767 C   0  0  0  0  0  0  0  0  0  0  0  0
   20.6080   -4.9395  -14.1848 O   0  0  0  0  0  0  0  0  0  0  0  0
   22.4665   -4.3672  -12.9475 O   0  0  0  0  0  0  0  0  0  0  0  0
  2  1  1  0
  3  2  1  0
  4  3  2  0
  6  5  1  0
  7  6  1  1
  7  8  1  0
  8  3  1  0
  9 10  2  0
  9  7  1  0
 12 11  1  6
 12 13  1  0
 13  9  1  0
 14 12  1  0
 14 15  1  0
 16 14  2  0
M  END
$$$$
