GSA.pdb
     RDKit          3D

 16 15  0  0  1  0  0  0  0  0999 V2000
   18.0747  -12.9185  -15.7603 N   0  0  0  0  0  0  0  0  0  0  0  0
   17.9388  -11.5191  -16.0539 C   0  0  0  0  0  0  0  0  0  0  0  0
   19.2833  -10.8648  -15.9670 C   0  0  0  0  0  0  0  0  0  0  0  0
   20.2959  -11.4747  -15.5541 O   0  0  0  0  0  0  0  0  0  0  0  0
   20.3183   -7.8481  -18.3583 O   0  0  0  0  0  0  0  0  0  0  0  0
   21.2374   -8.5767  -17.6421 C   0  0  0  0  0  0  0  0  0  0  0  0
   20.7507   -8.8652  -16.2214 C   0  0  2  0  0  0  0  0  0  0  0  0
   19.4612   -9.5097  -16.3554 N   0  0  0  0  0  0  0  0  0  0  0  0
   20.5472   -7.5630  -15.5345 C   0  0  0  0  0  0  0  0  0  0  0  0
   19.4438   -6.9437  -15.6398 O   0  0  0  0  0  0  0  0  0  0  0  0
   22.1471   -5.5251  -12.8769 C   0  0  0  0  0  0  0  0  0  0  0  0
   21.3054   -5.6616  -14.1283 C   0  0  2  0  0  0  0  0  0  0  0  0
   21.5465   -6.9498  -14.7412 N   0  0  0  0  0  0  0  0  0  0  0  0
   21.5954   -4.5448  -15.0698 C   0  0  0  0  0  0  0  0  0  0  0  0
   21.2167   -3.2695  -14.7486 O   0  0  0  0  0  0  0  0  0  0  0  0
   22.1877   -4.8295  -16.1399 O   0  0  0  0  0  0  0  0  0  0  0  0
  2  1  1  0
  3  2  1  0
  4  3  2  0
  6  5  1  0
  7  6  1  6
  7  8  1  0
  8  3  1  0
  9 10  2  0
  9  7  1  0
 12 11  1  1
 12 13  1  0
 13  9  1  0
 14 12  1  0
 14 15  1  0
 16 14  2  0
M  END
$$$$
