GSA.pdb
     RDKit          3D

 16 15  0  0  1  0  0  0  0  0999 V2000
   23.8180  -20.2797   -8.9063 N   0  0  0  0  0  0  0  0  0  0  0  0
   23.8615  -21.2523   -9.9625 C   0  0  0  0  0  0  0  0  0  0  0  0
   24.5698  -20.6647  -11.1441 C   0  0  0  0  0  0  0  0  0  0  0  0
   24.7260  -19.4299  -11.2814 O   0  0  0  0  0  0  0  0  0  0  0  0
   27.3151  -21.6249  -15.0223 O   0  0  0  0  0  0  0  0  0  0  0  0
   26.6504  -22.0376  -13.8925 C   0  0  0  0  0  0  0  0  0  0  0  0
   25.7755  -20.9264  -13.3107 C   0  0  2  0  0  0  0  0  0  0  0  0
   25.0976  -21.4984  -12.1664 N   0  0  0  0  0  0  0  0  0  0  0  0
   24.7497  -20.5730  -14.3264 C   0  0  0  0  0  0  0  0  0  0  0  0
   23.7252  -21.3050  -14.4903 O   0  0  0  0  0  0  0  0  0  0  0  0
   23.7994  -17.6535  -16.4226 C   0  0  0  0  0  0  0  0  0  0  0  0
   23.8248  -19.1392  -16.1309 C   0  0  2  0  0  0  0  0  0  0  0  0
   24.8503  -19.4275  -15.1520 N   0  0  0  0  0  0  0  0  0  0  0  0
   24.0366  -19.9085  -17.3883 C   0  0  0  0  0  0  0  0  0  0  0  0
   25.2440  -20.5086  -17.6227 O   0  0  0  0  0  0  0  0  0  0  0  0
   23.0764  -19.9735  -18.1951 O   0  0  0  0  0  0  0  0  0  0  0  0
  2  1  1  0
  3  2  1  0
  4  3  2  0
  6  5  1  0
  7  6  1  6
  7  8  1  0
  8  3  1  0
  9 10  2  0
  9  7  1  0
 12 11  1  6
 12 13  1  0
 13  9  1  0
 14 12  1  0
 14 15  1  0
 16 14  2  0
M  END
$$$$
