ENS.pdb
     RDKit          3D

 24 23  0  0  1  0  0  0  0  0999 V2000
   16.0947  -18.9611   15.1290 N   0  0  0  0  0  0  0  0  0  0  0  0
   16.8702  -19.6625   16.1335 C   0  0  1  0  0  0  0  0  0  0  0  0
   17.7095  -18.6527   16.8778 C   0  0  0  0  0  0  0  0  0  0  0  0
   18.6819  -18.0671   15.8756 C   0  0  0  0  0  0  0  0  0  0  0  0
   19.6120  -17.1277   16.5207 C   0  0  0  0  0  0  0  0  0  0  0  0
   20.4766  -16.5604   15.8089 O   0  0  0  0  0  0  0  0  0  0  0  0
   15.9214  -20.3790   17.0097 C   0  0  0  0  0  0  0  0  0  0  0  0
   14.6818  -20.2207   16.8890 O   0  0  0  0  0  0  0  0  0  0  0  0
   19.5827  -16.8372   17.8720 O   0  0  0  0  0  0  0  0  0  0  0  0
   17.4715  -24.8916   17.9209 N   0  0  0  0  0  0  0  0  0  0  0  0
   16.2725  -24.1854   18.2161 C   0  0  0  0  0  0  0  0  0  0  0  0
   15.3170  -24.4094   17.4012 O   0  0  0  0  0  0  0  0  0  0  0  0
   16.1608  -23.2704   19.3771 C   0  0  0  0  0  0  0  0  0  0  0  0
   15.4856  -22.0066   18.9179 C   0  0  2  0  0  0  0  0  0  0  0  0
   16.3668  -21.2865   18.0368 N   0  0  0  0  0  0  0  0  0  0  0  0
   15.0596  -21.1648   20.0803 C   0  0  0  0  0  0  0  0  0  0  0  0
   15.9113  -20.3623   20.5107 O   0  0  0  0  0  0  0  0  0  0  0  0
   11.0678  -21.2154   21.8809 O   0  0  0  0  0  0  0  0  0  0  0  0
   11.8753  -20.0737   21.6920 C   0  0  0  0  0  0  0  0  0  0  0  0
   13.3215  -20.4203   21.7315 C   0  0  2  0  0  0  0  0  0  0  0  0
   13.7923  -21.2498   20.6691 N   0  0  0  0  0  0  0  0  0  0  0  0
   13.7300  -20.8882   23.0940 C   0  0  0  0  0  0  0  0  0  0  0  0
   13.5350  -20.2022   24.2638 O   0  0  0  0  0  0  0  0  0  0  0  0
   14.3101  -22.0234   23.2073 O   0  0  0  0  0  0  0  0  0  0  0  0
  2  1  1  6
  3  2  1  0
  4  3  1  0
  5  6  2  0
  5  4  1  0
  7  8  2  0
  7  2  1  0
  9  5  1  0
 11 10  1  0
 11 13  1  0
 12 11  2  0
 14 13  1  1
 14 15  1  0
 15  7  1  0
 16 14  1  0
 17 16  2  0
 20 19  1  1
 19 18  1  0
 20 21  1  0
 21 16  1  0
 22 20  1  0
 22 23  1  0
 24 22  2  0
M  END
$$$$
