ENS.pdb
     RDKit          3D

 24 23  0  0  1  0  0  0  0  0999 V2000
   13.3776  -20.1847   14.2009 N   0  0  0  0  0  0  0  0  0  0  0  0
   11.9997  -19.7337   14.2218 C   0  0  1  0  0  0  0  0  0  0  0  0
   11.3479  -20.1340   12.9206 C   0  0  0  0  0  0  0  0  0  0  0  0
   12.1784  -19.5268   11.8094 C   0  0  0  0  0  0  0  0  0  0  0  0
   11.6067  -19.8311   10.4887 C   0  0  0  0  0  0  0  0  0  0  0  0
   11.0767  -18.8973    9.8383 O   0  0  0  0  0  0  0  0  0  0  0  0
   11.3496  -20.3405   15.4010 C   0  0  0  0  0  0  0  0  0  0  0  0
   10.2918  -19.8599   15.8767 O   0  0  0  0  0  0  0  0  0  0  0  0
   11.6233  -21.0941    9.9265 O   0  0  0  0  0  0  0  0  0  0  0  0
   10.5443  -25.2829   15.2620 N   0  0  0  0  0  0  0  0  0  0  0  0
   10.3515  -24.2196   16.1869 C   0  0  0  0  0  0  0  0  0  0  0  0
    9.1525  -23.7887   16.2492 O   0  0  0  0  0  0  0  0  0  0  0  0
   11.4619  -23.6710   17.0015 C   0  0  0  0  0  0  0  0  0  0  0  0
   11.2506  -22.1885   17.1489 C   0  0  2  0  0  0  0  0  0  0  0  0
   11.8916  -21.5032   16.0577 N   0  0  0  0  0  0  0  0  0  0  0  0
   11.7448  -21.6982   18.4743 C   0  0  0  0  0  0  0  0  0  0  0  0
   12.9824  -21.5983   18.5894 O   0  0  0  0  0  0  0  0  0  0  0  0
   11.4555  -18.9789   22.2990 O   0  0  0  0  0  0  0  0  0  0  0  0
   10.9137  -19.4337   21.0780 C   0  0  0  0  0  0  0  0  0  0  0  0
   11.3209  -20.8360   20.7935 C   0  0  2  0  0  0  0  0  0  0  0  0
   10.8966  -21.3649   19.5371 N   0  0  0  0  0  0  0  0  0  0  0  0
   11.0318  -21.7315   21.9583 C   0  0  0  0  0  0  0  0  0  0  0  0
   11.5738  -21.6100   23.2107 O   0  0  0  0  0  0  0  0  0  0  0  0
   10.2097  -22.6999   21.8018 O   0  0  0  0  0  0  0  0  0  0  0  0
  2  1  1  6
  3  2  1  0
  4  3  1  0
  5  6  2  0
  5  4  1  0
  7  8  2  0
  7  2  1  0
  9  5  1  0
 11 10  1  0
 11 13  1  0
 12 11  2  0
 14 13  1  6
 14 15  1  0
 15  7  1  0
 16 14  1  0
 17 16  2  0
 20 19  1  1
 19 18  1  0
 20 21  1  0
 21 16  1  0
 22 20  1  0
 22 23  1  0
 24 22  2  0
M  END
$$$$
