ENS.pdb
     RDKit          3D

 24 23  0  0  1  0  0  0  0  0999 V2000
    8.5907  -12.6581   18.5076 N   0  0  0  0  0  0  0  0  0  0  0  0
    8.7422  -14.0997   18.4747 C   0  0  1  0  0  0  0  0  0  0  0  0
    9.9651  -14.4313   17.6545 C   0  0  0  0  0  0  0  0  0  0  0  0
   11.1628  -13.9191   18.4267 C   0  0  0  0  0  0  0  0  0  0  0  0
   12.4237  -14.3380   17.7954 C   0  0  0  0  0  0  0  0  0  0  0  0
   13.0315  -15.3262   18.2749 O   0  0  0  0  0  0  0  0  0  0  0  0
    8.8420  -14.5698   19.8713 C   0  0  0  0  0  0  0  0  0  0  0  0
    9.3830  -13.8622   20.7561 O   0  0  0  0  0  0  0  0  0  0  0  0
   12.9740  -13.6986   16.7002 O   0  0  0  0  0  0  0  0  0  0  0  0
    6.7528  -18.2015   19.4326 N   0  0  0  0  0  0  0  0  0  0  0  0
    6.5951  -17.5867   20.7056 C   0  0  0  0  0  0  0  0  0  0  0  0
    5.4759  -16.9968   20.8688 O   0  0  0  0  0  0  0  0  0  0  0  0
    7.6528  -17.6374   21.7430 C   0  0  0  0  0  0  0  0  0  0  0  0
    8.5174  -16.4149   21.5947 C   0  0  2  0  0  0  0  0  0  0  0  0
    8.3284  -15.8515   20.2839 N   0  0  0  0  0  0  0  0  0  0  0  0
    9.9569  -16.7324   21.8561 C   0  0  0  0  0  0  0  0  0  0  0  0
   10.5768  -17.2602   20.9117 O   0  0  0  0  0  0  0  0  0  0  0  0
   12.9037  -15.1986   23.4835 O   0  0  0  0  0  0  0  0  0  0  0  0
   13.0022  -16.6001   23.6156 C   0  0  0  0  0  0  0  0  0  0  0  0
   11.6586  -17.2386   23.6309 C   0  0  2  0  0  0  0  0  0  0  0  0
   10.5956  -16.4658   23.0731 N   0  0  0  0  0  0  0  0  0  0  0  0
   11.3480  -17.8164   24.9770 C   0  0  0  0  0  0  0  0  0  0  0  0
   12.1692  -18.6424   25.6984 O   0  0  0  0  0  0  0  0  0  0  0  0
   10.2287  -17.5293   25.5272 O   0  0  0  0  0  0  0  0  0  0  0  0
  2  1  1  1
  3  2  1  0
  4  3  1  0
  5  6  2  0
  5  4  1  0
  7  8  2  0
  7  2  1  0
  9  5  1  0
 11 10  1  0
 11 13  1  0
 12 11  2  0
 14 13  1  6
 14 15  1  0
 15  7  1  0
 16 14  1  0
 17 16  2  0
 20 19  1  1
 19 18  1  0
 20 21  1  0
 21 16  1  0
 22 20  1  0
 22 23  1  0
 24 22  2  0
M  END
$$$$
