ENS.pdb
     RDKit          3D

 24 23  0  0  1  0  0  0  0  0999 V2000
   14.3441  -15.1180   15.9094 N   0  0  0  0  0  0  0  0  0  0  0  0
   14.6515  -15.3422   17.3085 C   0  0  1  0  0  0  0  0  0  0  0  0
   15.3528  -14.1177   17.8440 C   0  0  0  0  0  0  0  0  0  0  0  0
   16.7192  -14.0752   17.1927 C   0  0  0  0  0  0  0  0  0  0  0  0
   17.5320  -12.9727   17.7291 C   0  0  0  0  0  0  0  0  0  0  0  0
   18.3799  -13.2338   18.6172 O   0  0  0  0  0  0  0  0  0  0  0  0
   13.3802  -15.6270   18.0044 C   0  0  0  0  0  0  0  0  0  0  0  0
   12.3016  -15.1125   17.6198 O   0  0  0  0  0  0  0  0  0  0  0  0
   17.4098  -11.6627   17.3047 O   0  0  0  0  0  0  0  0  0  0  0  0
   12.6375  -19.9750   21.4074 N   0  0  0  0  0  0  0  0  0  0  0  0
   12.8751  -19.0310   20.3702 C   0  0  0  0  0  0  0  0  0  0  0  0
   14.0997  -18.9212   20.0305 O   0  0  0  0  0  0  0  0  0  0  0  0
   11.7797  -18.2495   19.7482 C   0  0  0  0  0  0  0  0  0  0  0  0
   12.1098  -16.7874   19.8804 C   0  0  2  0  0  0  0  0  0  0  0  0
   13.3153  -16.5011   19.1483 N   0  0  0  0  0  0  0  0  0  0  0  0
   12.2287  -16.3850   21.3175 C   0  0  0  0  0  0  0  0  0  0  0  0
   13.3907  -16.2639   21.7532 O   0  0  0  0  0  0  0  0  0  0  0  0
    8.8126  -15.7022   23.7713 O   0  0  0  0  0  0  0  0  0  0  0  0
    9.9917  -14.9580   23.9886 C   0  0  0  0  0  0  0  0  0  0  0  0
   11.1908  -15.6862   23.4938 C   0  0  2  0  0  0  0  0  0  0  0  0
   11.1243  -16.1519   22.1458 N   0  0  0  0  0  0  0  0  0  0  0  0
   11.6366  -16.7263   24.4745 C   0  0  0  0  0  0  0  0  0  0  0  0
   12.0054  -16.4913   25.7728 O   0  0  0  0  0  0  0  0  0  0  0  0
   11.6843  -17.9484   24.0973 O   0  0  0  0  0  0  0  0  0  0  0  0
  2  1  1  6
  3  2  1  0
  4  3  1  0
  5  6  2  0
  5  4  1  0
  7  8  2  0
  7  2  1  0
  9  5  1  0
 11 10  1  0
 11 13  1  0
 12 11  2  0
 14 13  1  1
 14 15  1  0
 15  7  1  0
 16 14  1  0
 17 16  2  0
 20 19  1  1
 19 18  1  0
 20 21  1  0
 21 16  1  0
 22 20  1  0
 22 23  1  0
 24 22  2  0
M  END
$$$$
