ENS.pdb
     RDKit          3D

 24 23  0  0  1  0  0  0  0  0999 V2000
   11.4865  -17.2907   20.3720 N   0  0  0  0  0  0  0  0  0  0  0  0
   11.8182  -16.3593   21.4325 C   0  0  1  0  0  0  0  0  0  0  0  0
   12.6770  -15.2625   20.8515 C   0  0  0  0  0  0  0  0  0  0  0  0
   14.1175  -15.6463   21.1178 C   0  0  0  0  0  0  0  0  0  0  0  0
   15.0455  -14.6328   20.5931 C   0  0  0  0  0  0  0  0  0  0  0  0
   15.5607  -13.8206   21.3999 O   0  0  0  0  0  0  0  0  0  0  0  0
   10.5496  -15.8573   21.9983 C   0  0  0  0  0  0  0  0  0  0  0  0
    9.5874  -15.5448   21.2550 O   0  0  0  0  0  0  0  0  0  0  0  0
   15.3797  -14.5288   19.2556 O   0  0  0  0  0  0  0  0  0  0  0  0
    8.1534  -18.0438   21.4090 N   0  0  0  0  0  0  0  0  0  0  0  0
    7.8702  -17.6346   22.7416 C   0  0  0  0  0  0  0  0  0  0  0  0
    6.6522  -17.3148   22.9451 O   0  0  0  0  0  0  0  0  0  0  0  0
    8.9150  -17.5896   23.7923 C   0  0  0  0  0  0  0  0  0  0  0  0
    9.1847  -16.1477   24.1273 C   0  0  2  0  0  0  0  0  0  0  0  0
   10.3551  -15.7027   23.4178 N   0  0  0  0  0  0  0  0  0  0  0  0
    9.3272  -15.9505   25.6045 C   0  0  0  0  0  0  0  0  0  0  0  0
    8.3577  -16.3175   26.2974 O   0  0  0  0  0  0  0  0  0  0  0  0
    9.9869  -13.6778   29.4351 O   0  0  0  0  0  0  0  0  0  0  0  0
    9.7024  -13.9937   28.0895 C   0  0  0  0  0  0  0  0  0  0  0  0
   10.5939  -15.0730   27.5862 C   0  0  2  0  0  0  0  0  0  0  0  0
   10.4643  -15.3923   26.2007 N   0  0  0  0  0  0  0  0  0  0  0  0
   10.5640  -16.2666   28.4900 C   0  0  0  0  0  0  0  0  0  0  0  0
   11.0916  -16.3232   29.7531 O   0  0  0  0  0  0  0  0  0  0  0  0
   10.0015  -17.3390   28.0757 O   0  0  0  0  0  0  0  0  0  0  0  0
  2  1  1  6
  3  2  1  0
  4  3  1  0
  5  6  2  0
  5  4  1  0
  7  8  2  0
  7  2  1  0
  9  5  1  0
 11 10  1  0
 11 13  1  0
 12 11  2  0
 14 13  1  1
 14 15  1  0
 15  7  1  0
 16 14  1  0
 17 16  2  0
 20 19  1  1
 19 18  1  0
 20 21  1  0
 21 16  1  0
 22 20  1  0
 22 23  1  0
 24 22  2  0
M  END
$$$$
