ENS.pdb
     RDKit          3D

 24 23  0  0  1  0  0  0  0  0999 V2000
   13.6843  -13.7161   17.6044 N   0  0  0  0  0  0  0  0  0  0  0  0
   13.2982  -15.0228   18.0999 C   0  0  1  0  0  0  0  0  0  0  0  0
   14.5517  -15.7998   18.4210 C   0  0  0  0  0  0  0  0  0  0  0  0
   15.6945  -14.8061   18.4242 C   0  0  0  0  0  0  0  0  0  0  0  0
   16.9844  -15.4771   18.6467 C   0  0  0  0  0  0  0  0  0  0  0  0
   17.3815  -16.3057   17.7913 O   0  0  0  0  0  0  0  0  0  0  0  0
   12.4329  -14.8151   19.2788 C   0  0  0  0  0  0  0  0  0  0  0  0
   12.8970  -14.3531   20.3499 O   0  0  0  0  0  0  0  0  0  0  0  0
   17.7826  -15.2416   19.7507 O   0  0  0  0  0  0  0  0  0  0  0  0
    9.4378  -12.7408   19.2582 N   0  0  0  0  0  0  0  0  0  0  0  0
    8.4238  -13.7095   19.4963 C   0  0  0  0  0  0  0  0  0  0  0  0
    7.2396  -13.2998   19.2574 O   0  0  0  0  0  0  0  0  0  0  0  0
    8.7353  -15.0754   19.9810 C   0  0  0  0  0  0  0  0  0  0  0  0
   10.1749  -15.1034   20.4182 C   0  0  2  0  0  0  0  0  0  0  0  0
   11.0266  -15.1293   19.2584 N   0  0  0  0  0  0  0  0  0  0  0  0
   10.4446  -16.2626   21.3263 C   0  0  0  0  0  0  0  0  0  0  0  0
   11.1955  -17.1470   20.8697 O   0  0  0  0  0  0  0  0  0  0  0  0
   12.5775  -17.0219   25.0755 O   0  0  0  0  0  0  0  0  0  0  0  0
   11.9720  -16.4011   23.9622 C   0  0  0  0  0  0  0  0  0  0  0  0
   10.5871  -16.9011   23.7499 C   0  0  2  0  0  0  0  0  0  0  0  0
    9.9029  -16.3756   22.6124 N   0  0  0  0  0  0  0  0  0  0  0  0
    9.7906  -16.8461   25.0168 C   0  0  0  0  0  0  0  0  0  0  0  0
    9.9509  -17.6754   26.0955 O   0  0  0  0  0  0  0  0  0  0  0  0
    8.8771  -15.9571   25.1320 O   0  0  0  0  0  0  0  0  0  0  0  0
  2  1  1  1
  3  2  1  0
  4  3  1  0
  5  6  2  0
  5  4  1  0
  7  8  2  0
  7  2  1  0
  9  5  1  0
 11 10  1  0
 11 13  1  0
 12 11  2  0
 14 13  1  6
 14 15  1  0
 15  7  1  0
 16 14  1  0
 17 16  2  0
 20 19  1  1
 19 18  1  0
 20 21  1  0
 21 16  1  0
 22 20  1  0
 22 23  1  0
 24 22  2  0
M  END
$$$$
