ENS.pdb
     RDKit          3D

 24 23  0  0  1  0  0  0  0  0999 V2000
   14.4793  -18.5717   16.8116 N   0  0  0  0  0  0  0  0  0  0  0  0
   14.8152  -19.3015   18.0186 C   0  0  1  0  0  0  0  0  0  0  0  0
   16.2538  -19.7476   17.9203 C   0  0  0  0  0  0  0  0  0  0  0  0
   16.7516  -19.3244   16.5542 C   0  0  0  0  0  0  0  0  0  0  0  0
   18.2091  -19.4890   16.4428 C   0  0  0  0  0  0  0  0  0  0  0  0
   18.8971  -18.4970   16.0988 O   0  0  0  0  0  0  0  0  0  0  0  0
   14.5687  -18.4043   19.1656 C   0  0  0  0  0  0  0  0  0  0  0  0
   14.8432  -17.1809   19.1020 O   0  0  0  0  0  0  0  0  0  0  0  0
   18.8605  -20.6815   16.6978 O   0  0  0  0  0  0  0  0  0  0  0  0
   12.7360  -16.2926   23.3604 N   0  0  0  0  0  0  0  0  0  0  0  0
   12.0895  -17.5540   23.2412 C   0  0  0  0  0  0  0  0  0  0  0  0
   11.0752  -17.6982   24.0012 O   0  0  0  0  0  0  0  0  0  0  0  0
   12.5679  -18.6010   22.3070 C   0  0  0  0  0  0  0  0  0  0  0  0
   13.7468  -18.0533   21.5492 C   0  0  2  0  0  0  0  0  0  0  0  0
   14.0062  -18.8838   20.4028 N   0  0  0  0  0  0  0  0  0  0  0  0
   14.9521  -17.9367   22.4295 C   0  0  0  0  0  0  0  0  0  0  0  0
   15.6003  -18.9873   22.6048 O   0  0  0  0  0  0  0  0  0  0  0  0
   17.1550  -14.3067   23.2648 O   0  0  0  0  0  0  0  0  0  0  0  0
   17.5663  -15.6552   23.2052 C   0  0  0  0  0  0  0  0  0  0  0  0
   16.5446  -16.5600   23.7972 C   0  0  2  0  0  0  0  0  0  0  0  0
   15.3524  -16.7381   23.0322 N   0  0  0  0  0  0  0  0  0  0  0  0
   16.2988  -16.2318   25.2374 C   0  0  0  0  0  0  0  0  0  0  0  0
   17.2608  -16.1355   26.2082 O   0  0  0  0  0  0  0  0  0  0  0  0
   15.0981  -16.0144   25.6235 O   0  0  0  0  0  0  0  0  0  0  0  0
  2  1  1  6
  3  2  1  0
  4  3  1  0
  5  6  2  0
  5  4  1  0
  7  8  2  0
  7  2  1  0
  9  5  1  0
 11 10  1  0
 11 13  1  0
 12 11  2  0
 14 13  1  1
 14 15  1  0
 15  7  1  0
 16 14  1  0
 17 16  2  0
 20 19  1  6
 19 18  1  0
 20 21  1  0
 21 16  1  0
 22 20  1  0
 22 23  1  0
 24 22  2  0
M  END
$$$$
