ENS.pdb
     RDKit          3D

 24 23  0  0  1  0  0  0  0  0999 V2000
   10.0617  -18.7320   19.9168 N   0  0  0  0  0  0  0  0  0  0  0  0
    9.3270  -17.4829   19.9625 C   0  0  1  0  0  0  0  0  0  0  0  0
    8.3147  -17.4847   18.8430 C   0  0  0  0  0  0  0  0  0  0  0  0
    7.9759  -18.9335   18.5608 C   0  0  0  0  0  0  0  0  0  0  0  0
    7.0249  -19.0515   17.4449 C   0  0  0  0  0  0  0  0  0  0  0  0
    6.8281  -18.0460   16.7196 O   0  0  0  0  0  0  0  0  0  0  0  0
    8.7061  -17.3792   21.2987 C   0  0  0  0  0  0  0  0  0  0  0  0
    8.0592  -16.3572   21.6350 O   0  0  0  0  0  0  0  0  0  0  0  0
    6.3361  -20.2143   17.1537 O   0  0  0  0  0  0  0  0  0  0  0  0
    6.2998  -17.8979   25.4458 N   0  0  0  0  0  0  0  0  0  0  0  0
    6.2578  -19.1499   24.7719 C   0  0  0  0  0  0  0  0  0  0  0  0
    5.2916  -19.9041   25.1249 O   0  0  0  0  0  0  0  0  0  0  0  0
    7.2609  -19.5293   23.7484 C   0  0  0  0  0  0  0  0  0  0  0  0
    8.2252  -18.3856   23.5869 C   0  0  2  0  0  0  0  0  0  0  0  0
    8.8110  -18.4356   22.2733 N   0  0  0  0  0  0  0  0  0  0  0  0
    9.2711  -18.4013   24.6579 C   0  0  0  0  0  0  0  0  0  0  0  0
   10.1554  -17.5270   24.5663 O   0  0  0  0  0  0  0  0  0  0  0  0
   10.2206  -17.7400   28.9101 O   0  0  0  0  0  0  0  0  0  0  0  0
    9.5662  -17.8422   27.6640 C   0  0  0  0  0  0  0  0  0  0  0  0
    9.9013  -19.1197   26.9793 C   0  0  2  0  0  0  0  0  0  0  0  0
    9.2832  -19.3261   25.7090 N   0  0  0  0  0  0  0  0  0  0  0  0
    9.7758  -20.2842   27.9122 C   0  0  0  0  0  0  0  0  0  0  0  0
   10.7430  -20.7175   28.7805 O   0  0  0  0  0  0  0  0  0  0  0  0
    8.6822  -20.9489   27.9243 O   0  0  0  0  0  0  0  0  0  0  0  0
  2  1  1  1
  3  2  1  0
  4  3  1  0
  5  6  2  0
  5  4  1  0
  7  8  2  0
  7  2  1  0
  9  5  1  0
 11 10  1  0
 11 13  1  0
 12 11  2  0
 14 13  1  1
 14 15  1  0
 15  7  1  0
 16 14  1  0
 17 16  2  0
 20 19  1  1
 19 18  1  0
 20 21  1  0
 21 16  1  0
 22 20  1  0
 22 23  1  0
 24 22  2  0
M  END
$$$$
