ENS.pdb
     RDKit          3D

 24 23  0  0  1  0  0  0  0  0999 V2000
    8.7663  -12.4824   19.3637 N   0  0  0  0  0  0  0  0  0  0  0  0
    7.9400  -13.5003   19.9827 C   0  0  1  0  0  0  0  0  0  0  0  0
    8.1878  -14.8101   19.2748 C   0  0  0  0  0  0  0  0  0  0  0  0
    7.7342  -14.6264   17.8417 C   0  0  0  0  0  0  0  0  0  0  0  0
    7.7837  -15.8955   17.0995 C   0  0  0  0  0  0  0  0  0  0  0  0
    8.8466  -16.1972   16.5037 O   0  0  0  0  0  0  0  0  0  0  0  0
    8.2892  -13.5470   21.4170 C   0  0  0  0  0  0  0  0  0  0  0  0
    9.4870  -13.5340   21.7930 O   0  0  0  0  0  0  0  0  0  0  0  0
    6.7185  -16.7736   17.0245 O   0  0  0  0  0  0  0  0  0  0  0  0
    6.0098  -12.5489   27.0824 N   0  0  0  0  0  0  0  0  0  0  0  0
    6.8346  -13.1216   26.0748 C   0  0  0  0  0  0  0  0  0  0  0  0
    7.9307  -13.6093   26.5079 O   0  0  0  0  0  0  0  0  0  0  0  0
    6.4375  -13.1411   24.6467 C   0  0  0  0  0  0  0  0  0  0  0  0
    7.5683  -13.7348   23.8512 C   0  0  2  0  0  0  0  0  0  0  0  0
    7.2824  -13.6094   22.4463 N   0  0  0  0  0  0  0  0  0  0  0  0
    7.8157  -15.1597   24.2384 C   0  0  0  0  0  0  0  0  0  0  0  0
    7.1225  -16.0112   23.6475 O   0  0  0  0  0  0  0  0  0  0  0  0
   10.8212  -18.3688   24.0135 O   0  0  0  0  0  0  0  0  0  0  0  0
   10.1197  -17.1491   23.9054 C   0  0  0  0  0  0  0  0  0  0  0  0
    9.4816  -16.7750   25.1961 C   0  0  2  0  0  0  0  0  0  0  0  0
    8.7585  -15.5440   25.1994 N   0  0  0  0  0  0  0  0  0  0  0  0
   10.4407  -16.9190   26.3371 C   0  0  0  0  0  0  0  0  0  0  0  0
   10.8388  -18.1036   26.8987 O   0  0  0  0  0  0  0  0  0  0  0  0
   10.9509  -15.8633   26.8500 O   0  0  0  0  0  0  0  0  0  0  0  0
  2  1  1  6
  3  2  1  0
  4  3  1  0
  5  6  2  0
  5  4  1  0
  7  8  2  0
  7  2  1  0
  9  5  1  0
 11 10  1  0
 11 13  1  0
 12 11  2  0
 14 13  1  1
 14 15  1  0
 15  7  1  0
 16 14  1  0
 17 16  2  0
 20 19  1  6
 19 18  1  0
 20 21  1  0
 21 16  1  0
 22 20  1  0
 22 23  1  0
 24 22  2  0
M  END
$$$$
