ENS.pdb
     RDKit          3D

 24 23  0  0  1  0  0  0  0  0999 V2000
   11.0102  -17.8863   16.2825 N   0  0  0  0  0  0  0  0  0  0  0  0
   12.0259  -16.8881   16.5547 C   0  0  1  0  0  0  0  0  0  0  0  0
   12.2274  -16.0616   15.3079 C   0  0  0  0  0  0  0  0  0  0  0  0
   11.8989  -16.9564   14.1312 C   0  0  0  0  0  0  0  0  0  0  0  0
   12.0167  -16.2287   12.8582 C   0  0  0  0  0  0  0  0  0  0  0  0
   11.3200  -15.1974   12.6938 O   0  0  0  0  0  0  0  0  0  0  0  0
   11.5665  -16.0870   17.7073 C   0  0  0  0  0  0  0  0  0  0  0  0
   12.2820  -15.1745   18.1886 O   0  0  0  0  0  0  0  0  0  0  0  0
   12.8561  -16.6227   11.8328 O   0  0  0  0  0  0  0  0  0  0  0  0
    9.5733  -12.8619   19.0569 N   0  0  0  0  0  0  0  0  0  0  0  0
    8.3862  -13.6363   18.9364 C   0  0  0  0  0  0  0  0  0  0  0  0
    7.3472  -12.9610   18.6338 O   0  0  0  0  0  0  0  0  0  0  0  0
    8.3761  -15.1035   19.1481 C   0  0  0  0  0  0  0  0  0  0  0  0
    9.7836  -15.5470   19.4422 C   0  0  2  0  0  0  0  0  0  0  0  0
   10.2866  -16.3106   18.3309 N   0  0  0  0  0  0  0  0  0  0  0  0
    9.8530  -16.3228   20.7207 C   0  0  0  0  0  0  0  0  0  0  0  0
    9.1079  -17.3200   20.7919 O   0  0  0  0  0  0  0  0  0  0  0  0
   12.3908  -18.1637   21.8832 O   0  0  0  0  0  0  0  0  0  0  0  0
   12.0730  -17.5408   23.1089 C   0  0  0  0  0  0  0  0  0  0  0  0
   10.8358  -16.7223   22.9958 C   0  0  2  0  0  0  0  0  0  0  0  0
   10.6911  -15.9762   21.7873 N   0  0  0  0  0  0  0  0  0  0  0  0
   10.6019  -15.9187   24.2375 C   0  0  0  0  0  0  0  0  0  0  0  0
   10.5751  -16.4146   25.5144 O   0  0  0  0  0  0  0  0  0  0  0  0
   10.4108  -14.6579   24.1285 O   0  0  0  0  0  0  0  0  0  0  0  0
  2  1  1  6
  3  2  1  0
  4  3  1  0
  5  6  2  0
  5  4  1  0
  7  8  2  0
  7  2  1  0
  9  5  1  0
 11 10  1  0
 11 13  1  0
 12 11  2  0
 14 13  1  6
 14 15  1  0
 15  7  1  0
 16 14  1  0
 17 16  2  0
 20 19  1  1
 19 18  1  0
 20 21  1  0
 21 16  1  0
 22 20  1  0
 22 23  1  0
 24 22  2  0
M  END
$$$$
