ENS.pdb
     RDKit          3D

 24 23  0  0  1  0  0  0  0  0999 V2000
   14.7137  -13.7904   15.4802 N   0  0  0  0  0  0  0  0  0  0  0  0
   15.3957  -14.2127   16.6880 C   0  0  1  0  0  0  0  0  0  0  0  0
   16.5071  -13.2326   16.9746 C   0  0  0  0  0  0  0  0  0  0  0  0
   17.7689  -13.8116   16.3698 C   0  0  0  0  0  0  0  0  0  0  0  0
   18.9141  -12.9076   16.5574 C   0  0  0  0  0  0  0  0  0  0  0  0
   19.5193  -12.9314   17.6569 O   0  0  0  0  0  0  0  0  0  0  0  0
   14.3912  -14.2749   17.7690 C   0  0  0  0  0  0  0  0  0  0  0  0
   13.3913  -13.5157   17.7690 O   0  0  0  0  0  0  0  0  0  0  0  0
   19.3583  -12.0324   15.5837 O   0  0  0  0  0  0  0  0  0  0  0  0
   13.3022  -17.8353   18.9197 N   0  0  0  0  0  0  0  0  0  0  0  0
   12.1646  -16.9849   18.8411 C   0  0  0  0  0  0  0  0  0  0  0  0
   11.1411  -17.5253   18.3048 O   0  0  0  0  0  0  0  0  0  0  0  0
   12.1850  -15.5909   19.3450 C   0  0  0  0  0  0  0  0  0  0  0  0
   13.5448  -15.3210   19.9299 C   0  0  2  0  0  0  0  0  0  0  0  0
   14.5076  -15.2012   18.8669 N   0  0  0  0  0  0  0  0  0  0  0  0
   13.9353  -16.3830   20.9103 C   0  0  0  0  0  0  0  0  0  0  0  0
   15.0648  -16.8848   20.7461 O   0  0  0  0  0  0  0  0  0  0  0  0
   14.5014  -15.5395   25.1204 O   0  0  0  0  0  0  0  0  0  0  0  0
   13.9540  -15.4306   23.8243 C   0  0  0  0  0  0  0  0  0  0  0  0
   13.4338  -16.7390   23.3441 C   0  0  2  0  0  0  0  0  0  0  0  0
   13.1069  -16.8077   21.9560 N   0  0  0  0  0  0  0  0  0  0  0  0
   12.3593  -17.2599   24.2477 C   0  0  0  0  0  0  0  0  0  0  0  0
   11.0702  -17.5369   23.8755 O   0  0  0  0  0  0  0  0  0  0  0  0
   12.6402  -17.4777   25.4771 O   0  0  0  0  0  0  0  0  0  0  0  0
  2  1  1  6
  3  2  1  0
  4  3  1  0
  5  6  2  0
  5  4  1  0
  7  8  2  0
  7  2  1  0
  9  5  1  0
 11 10  1  0
 11 13  1  0
 12 11  2  0
 14 13  1  6
 14 15  1  0
 15  7  1  0
 16 14  1  0
 17 16  2  0
 20 19  1  1
 19 18  1  0
 20 21  1  0
 21 16  1  0
 22 20  1  0
 22 23  1  0
 24 22  2  0
M  END
$$$$
