ENS.pdb
     RDKit          3D

 24 23  0  0  1  0  0  0  0  0999 V2000
    8.1596  -12.8282   16.9985 N   0  0  0  0  0  0  0  0  0  0  0  0
    8.1126  -14.1928   17.4862 C   0  0  1  0  0  0  0  0  0  0  0  0
    8.9777  -15.0478   16.5927 C   0  0  0  0  0  0  0  0  0  0  0  0
    8.0886  -15.5549   15.4767 C   0  0  0  0  0  0  0  0  0  0  0  0
    8.8480  -16.3743   14.5198 C   0  0  0  0  0  0  0  0  0  0  0  0
    9.4725  -17.3731   14.9535 O   0  0  0  0  0  0  0  0  0  0  0  0
    8.5715  -14.1808   18.8901 C   0  0  0  0  0  0  0  0  0  0  0  0
    9.6855  -13.6941   19.2035 O   0  0  0  0  0  0  0  0  0  0  0  0
    8.9091  -16.1004   13.1661 O   0  0  0  0  0  0  0  0  0  0  0  0
    8.5048  -14.2158   24.1848 N   0  0  0  0  0  0  0  0  0  0  0  0
    7.4998  -15.0538   23.6269 C   0  0  0  0  0  0  0  0  0  0  0  0
    7.0596  -15.9476   24.4234 O   0  0  0  0  0  0  0  0  0  0  0  0
    7.0170  -14.8878   22.2351 C   0  0  0  0  0  0  0  0  0  0  0  0
    8.2136  -14.8332   21.3245 C   0  0  2  0  0  0  0  0  0  0  0  0
    7.7712  -14.7219   19.9595 N   0  0  0  0  0  0  0  0  0  0  0  0
    9.1009  -16.0229   21.5212 C   0  0  0  0  0  0  0  0  0  0  0  0
    9.2518  -16.7584   20.5258 O   0  0  0  0  0  0  0  0  0  0  0  0
   12.9926  -15.9773   22.4885 O   0  0  0  0  0  0  0  0  0  0  0  0
   12.0120  -16.8115   21.9107 C   0  0  0  0  0  0  0  0  0  0  0  0
   10.9169  -17.1074   22.8731 C   0  0  2  0  0  0  0  0  0  0  0  0
    9.7354  -16.3181   22.7338 N   0  0  0  0  0  0  0  0  0  0  0  0
   11.4342  -17.1841   24.2763 C   0  0  0  0  0  0  0  0  0  0  0  0
   10.8674  -16.5817   25.3686 O   0  0  0  0  0  0  0  0  0  0  0  0
   12.4926  -17.8658   24.5064 O   0  0  0  0  0  0  0  0  0  0  0  0
  2  1  1  6
  3  2  1  0
  4  3  1  0
  5  6  2  0
  5  4  1  0
  7  8  2  0
  7  2  1  0
  9  5  1  0
 11 10  1  0
 11 13  1  0
 12 11  2  0
 14 13  1  1
 14 15  1  0
 15  7  1  0
 16 14  1  0
 17 16  2  0
 20 19  1  6
 19 18  1  0
 20 21  1  0
 21 16  1  0
 22 20  1  0
 22 23  1  0
 24 22  2  0
M  END
$$$$
