ENS.pdb
     RDKit          3D

 24 23  0  0  1  0  0  0  0  0999 V2000
   12.5403  -22.0149   17.2817 N   0  0  0  0  0  0  0  0  0  0  0  0
   13.5098  -20.9915   17.6205 C   0  0  1  0  0  0  0  0  0  0  0  0
   13.2812  -19.8022   16.7196 C   0  0  0  0  0  0  0  0  0  0  0  0
   13.7561  -20.2011   15.3381 C   0  0  0  0  0  0  0  0  0  0  0  0
   13.6513  -19.0788   14.3930 C   0  0  0  0  0  0  0  0  0  0  0  0
   14.6705  -18.3760   14.1858 O   0  0  0  0  0  0  0  0  0  0  0  0
   13.3376  -20.6700   19.0517 C   0  0  0  0  0  0  0  0  0  0  0  0
   12.1965  -20.4853   19.5416 O   0  0  0  0  0  0  0  0  0  0  0  0
   12.4865  -18.7582   13.7208 O   0  0  0  0  0  0  0  0  0  0  0  0
   13.7199  -20.7564   23.9431 N   0  0  0  0  0  0  0  0  0  0  0  0
   15.0282  -21.0999   23.5030 C   0  0  0  0  0  0  0  0  0  0  0  0
   15.7757  -21.5921   24.4120 O   0  0  0  0  0  0  0  0  0  0  0  0
   15.4687  -20.8961   22.1023 C   0  0  0  0  0  0  0  0  0  0  0  0
   14.3478  -20.2345   21.3473 C   0  0  2  0  0  0  0  0  0  0  0  0
   14.4597  -20.5534   19.9484 N   0  0  0  0  0  0  0  0  0  0  0  0
   14.3371  -18.7551   21.5765 C   0  0  0  0  0  0  0  0  0  0  0  0
   15.1581  -18.0961   20.9083 O   0  0  0  0  0  0  0  0  0  0  0  0
   11.2200  -16.6801   23.7229 O   0  0  0  0  0  0  0  0  0  0  0  0
   11.9842  -16.1577   22.6577 C   0  0  0  0  0  0  0  0  0  0  0  0
   13.3656  -16.7098   22.6602 C   0  0  2  0  0  0  0  0  0  0  0  0
   13.4723  -18.1216   22.4770 N   0  0  0  0  0  0  0  0  0  0  0  0
   14.1568  -16.1861   23.8188 C   0  0  0  0  0  0  0  0  0  0  0  0
   14.4048  -14.8647   24.0822 O   0  0  0  0  0  0  0  0  0  0  0  0
   14.6535  -17.0202   24.6528 O   0  0  0  0  0  0  0  0  0  0  0  0
  2  1  1  6
  3  2  1  0
  4  3  1  0
  5  6  2  0
  5  4  1  0
  7  8  2  0
  7  2  1  0
  9  5  1  0
 11 10  1  0
 11 13  1  0
 12 11  2  0
 14 13  1  1
 14 15  1  0
 15  7  1  0
 16 14  1  0
 17 16  2  0
 20 19  1  1
 19 18  1  0
 20 21  1  0
 21 16  1  0
 22 20  1  0
 22 23  1  0
 24 22  2  0
M  END
$$$$
