ANM.pdb
     RDKit          3D

 22 21  0  0  1  0  0  0  0  0999 V2000
   25.5249  -32.1193   -4.9747 C   0  0  0  0  0  0  0  0  0  0  0  0
   25.5025  -33.6137   -4.9044 C   0  0  2  0  0  0  0  0  0  0  0  0
   24.1931  -34.1705   -5.1754 N   0  0  0  0  0  0  0  0  0  0  0  0
   25.9233  -34.1261   -3.5721 C   0  0  0  0  0  0  0  0  0  0  0  0
   25.0262  -34.2591   -2.6952 O   0  0  0  0  0  0  0  0  0  0  0  0
   30.2165  -37.0812   -3.3835 N   0  0  0  0  0  0  0  0  0  0  0  0
   29.1066  -36.8590   -2.4625 C   0  0  0  0  0  0  0  0  0  0  0  0
   28.4222  -37.8583   -2.1931 O   0  0  0  0  0  0  0  0  0  0  0  0
   28.8873  -35.5377   -1.9450 C   0  0  0  0  0  0  0  0  0  0  0  0
   27.5207  -34.9627   -1.8404 C   0  0  2  0  0  0  0  0  0  0  0  0
   27.2375  -34.4622   -3.2453 N   0  0  0  0  0  0  0  0  0  0  0  0
   27.3675  -33.7902   -0.9694 C   0  0  0  0  0  0  0  0  0  0  0  0
   27.7865  -32.6372   -1.3228 O   0  0  0  0  0  0  0  0  0  0  0  0
   22.0989  -31.7945    2.4773 C   0  0  0  0  0  0  0  0  0  0  0  0
   23.1754  -30.6033    1.6551 S   0  0  0  0  0  0  0  0  0  0  0  0
   24.9167  -31.0369    1.9612 C   0  0  0  0  0  0  0  0  0  0  0  0
   25.2687  -32.1404    1.0234 C   0  0  0  0  0  0  0  0  0  0  0  0
   26.6762  -32.6684    1.1674 C   0  0  2  0  0  0  0  0  0  0  0  0
   26.7535  -33.8449    0.2933 N   0  0  0  0  0  0  0  0  0  0  0  0
   27.0534  -32.9952    2.5446 C   0  0  0  0  0  0  0  0  0  0  0  0
   27.2533  -34.3248    2.9391 O   0  0  0  0  0  0  0  0  0  0  0  0
   27.2101  -32.1180    3.4112 O   0  0  0  0  0  0  0  0  0  0  0  0
  2  1  1  1
  2  3  1  0
  4  2  1  0
  4 11  1  0
  5  4  2  0
  7  6  1  0
  7  8  2  0
  9  7  1  0
 10 11  1  0
 10  9  1  6
 10 12  1  0
 12 13  2  0
 12 19  1  0
 15 14  1  0
 16 15  1  0
 17 16  1  0
 18 17  1  1
 19 18  1  0
 20 18  1  0
 20 21  1  0
 22 20  2  0
M  END
$$$$
