ANM.pdb
     RDKit          3D

 22 21  0  0  1  0  0  0  0  0999 V2000
   13.9368  -10.2112  -11.8172 C   0  0  0  0  0  0  0  0  0  0  0  0
   15.4077  -10.1261  -11.5569 C   0  0  2  0  0  0  0  0  0  0  0  0
   15.8121  -10.8504  -10.3695 N   0  0  0  0  0  0  0  0  0  0  0  0
   15.8744   -8.7232  -11.3879 C   0  0  0  0  0  0  0  0  0  0  0  0
   15.7011   -7.9363  -12.3585 O   0  0  0  0  0  0  0  0  0  0  0  0
   14.1799   -5.7204   -9.7354 N   0  0  0  0  0  0  0  0  0  0  0  0
   15.0965   -5.8308   -8.6053 C   0  0  0  0  0  0  0  0  0  0  0  0
   14.6452   -5.4664   -7.5084 O   0  0  0  0  0  0  0  0  0  0  0  0
   16.4203   -6.3388   -8.8316 C   0  0  0  0  0  0  0  0  0  0  0  0
   16.8652   -6.7696  -10.1828 C   0  0  2  0  0  0  0  0  0  0  0  0
   16.4847   -8.2383  -10.2305 N   0  0  0  0  0  0  0  0  0  0  0  0
   18.3105   -6.7315  -10.4403 C   0  0  0  0  0  0  0  0  0  0  0  0
   19.1108   -7.5497   -9.8748 O   0  0  0  0  0  0  0  0  0  0  0  0
   23.0603   -9.9395  -14.3969 C   0  0  0  0  0  0  0  0  0  0  0  0
   21.5152   -9.4454  -13.6083 S   0  0  0  0  0  0  0  0  0  0  0  0
   21.6355   -7.7159  -13.0531 C   0  0  0  0  0  0  0  0  0  0  0  0
   20.3501   -7.3777  -12.3790 C   0  0  0  0  0  0  0  0  0  0  0  0
   20.2890   -5.9867  -11.7944 C   0  0  2  0  0  0  0  0  0  0  0  0
   18.9117   -5.8133  -11.3178 N   0  0  0  0  0  0  0  0  0  0  0  0
   20.6717   -4.9278  -12.7315 C   0  0  0  0  0  0  0  0  0  0  0  0
   22.0001   -4.4906  -12.8189 O   0  0  0  0  0  0  0  0  0  0  0  0
   19.8447   -4.3789  -13.4797 O   0  0  0  0  0  0  0  0  0  0  0  0
  2  1  1  1
  2  3  1  0
  4  2  1  0
  4 11  1  0
  5  4  2  0
  7  6  1  0
  7  8  2  0
  9  7  1  0
 10 11  1  0
 10  9  1  1
 10 12  1  0
 12 13  2  0
 12 19  1  0
 15 14  1  0
 16 15  1  0
 17 16  1  0
 18 17  1  6
 19 18  1  0
 20 18  1  0
 20 21  1  0
 22 20  2  0
M  END
$$$$
