ANM.pdb
     RDKit          3D

 22 21  0  0  1  0  0  0  0  0999 V2000
   19.2804  -12.5403  -18.9091 C   0  0  0  0  0  0  0  0  0  0  0  0
   20.3006  -11.8385  -18.0692 C   0  0  2  0  0  0  0  0  0  0  0  0
   20.7363  -12.6281  -16.9358 N   0  0  0  0  0  0  0  0  0  0  0  0
   19.7997  -10.5456  -17.5290 C   0  0  0  0  0  0  0  0  0  0  0  0
   19.5452   -9.6322  -18.3611 O   0  0  0  0  0  0  0  0  0  0  0  0
   16.5032   -7.7198  -16.1348 N   0  0  0  0  0  0  0  0  0  0  0  0
   16.7463   -8.5605  -14.9670 C   0  0  0  0  0  0  0  0  0  0  0  0
   15.7910   -8.6850  -14.1849 O   0  0  0  0  0  0  0  0  0  0  0  0
   18.0366   -9.1693  -14.8059 C   0  0  0  0  0  0  0  0  0  0  0  0
   19.1441   -8.9040  -15.7610 C   0  0  2  0  0  0  0  0  0  0  0  0
   19.5993  -10.2927  -16.1715 N   0  0  0  0  0  0  0  0  0  0  0  0
   20.3382   -8.2467  -15.2144 C   0  0  0  0  0  0  0  0  0  0  0  0
   20.9146   -8.6795  -14.1606 O   0  0  0  0  0  0  0  0  0  0  0  0
   26.7709   -4.4233  -17.3414 C   0  0  0  0  0  0  0  0  0  0  0  0
   25.1813   -5.2085  -17.6732 S   0  0  0  0  0  0  0  0  0  0  0  0
   24.3110   -5.5187  -16.1047 C   0  0  0  0  0  0  0  0  0  0  0  0
   23.0282   -6.1998  -16.4383 C   0  0  0  0  0  0  0  0  0  0  0  0
   22.1469   -6.5062  -15.2509 C   0  0  2  0  0  0  0  0  0  0  0  0
   20.9311   -7.1163  -15.8019 N   0  0  0  0  0  0  0  0  0  0  0  0
   21.8355   -5.3395  -14.4216 C   0  0  0  0  0  0  0  0  0  0  0  0
   20.6569   -4.6086  -14.6224 O   0  0  0  0  0  0  0  0  0  0  0  0
   22.5939   -4.9529  -13.5159 O   0  0  0  0  0  0  0  0  0  0  0  0
  2  1  1  1
  2  3  1  0
  4  2  1  0
  4 11  1  0
  5  4  2  0
  7  6  1  0
  7  8  2  0
  9  7  1  0
 10 11  1  0
 10  9  1  1
 10 12  1  0
 12 13  2  0
 12 19  1  0
 15 14  1  0
 16 15  1  0
 17 16  1  0
 18 17  1  6
 19 18  1  0
 20 18  1  0
 20 21  1  0
 22 20  2  0
M  END
$$$$
