ANM.pdb
     RDKit          3D

 22 21  0  0  1  0  0  0  0  0999 V2000
   20.3264  -17.6712  -16.9745 C   0  0  0  0  0  0  0  0  0  0  0  0
   21.5521  -17.9367  -16.1585 C   0  0  2  0  0  0  0  0  0  0  0  0
   22.7441  -18.0907  -16.9668 N   0  0  0  0  0  0  0  0  0  0  0  0
   21.4283  -19.1675  -15.3312 C   0  0  0  0  0  0  0  0  0  0  0  0
   21.1038  -20.2320  -15.9252 O   0  0  0  0  0  0  0  0  0  0  0  0
   24.0650  -21.3914  -10.3860 N   0  0  0  0  0  0  0  0  0  0  0  0
   22.9709  -21.5363  -11.3407 C   0  0  0  0  0  0  0  0  0  0  0  0
   22.3491  -22.6088  -11.2884 O   0  0  0  0  0  0  0  0  0  0  0  0
   22.6954  -20.4598  -12.2500 C   0  0  0  0  0  0  0  0  0  0  0  0
   21.6098  -20.5567  -13.2606 C   0  0  2  0  0  0  0  0  0  0  0  0
   21.6485  -19.2069  -13.9539 N   0  0  0  0  0  0  0  0  0  0  0  0
   20.2421  -20.6913  -12.7429 C   0  0  0  0  0  0  0  0  0  0  0  0
   19.6298  -19.7052  -12.2116 O   0  0  0  0  0  0  0  0  0  0  0  0
   15.6995  -21.7393  -15.7842 C   0  0  0  0  0  0  0  0  0  0  0  0
   14.7948  -22.4794  -14.4104 S   0  0  0  0  0  0  0  0  0  0  0  0
   15.7956  -22.3810  -12.8929 C   0  0  0  0  0  0  0  0  0  0  0  0
   17.2157  -22.2086  -13.3106 C   0  0  0  0  0  0  0  0  0  0  0  0
   18.1917  -22.0232  -12.1734 C   0  0  2  0  0  0  0  0  0  0  0  0
   19.5134  -21.8915  -12.7978 N   0  0  0  0  0  0  0  0  0  0  0  0
   18.1688  -23.1039  -11.1846 C   0  0  0  0  0  0  0  0  0  0  0  0
   17.2692  -23.0768  -10.1106 O   0  0  0  0  0  0  0  0  0  0  0  0
   18.9368  -24.0787  -11.2554 O   0  0  0  0  0  0  0  0  0  0  0  0
  2  1  1  6
  2  3  1  0
  4  2  1  0
  4 11  1  0
  5  4  2  0
  7  6  1  0
  7  8  2  0
  9  7  1  0
 10 11  1  0
 10  9  1  1
 10 12  1  0
 12 13  2  0
 12 19  1  0
 15 14  1  0
 16 15  1  0
 17 16  1  0
 18 17  1  6
 19 18  1  0
 20 18  1  0
 20 21  1  0
 22 20  2  0
M  END
$$$$
