ANM.pdb
     RDKit          3D

 22 21  0  0  1  0  0  0  0  0999 V2000
   16.3877  -11.4931  -16.4123 C   0  0  0  0  0  0  0  0  0  0  0  0
   16.6246  -10.0203  -16.2959 C   0  0  2  0  0  0  0  0  0  0  0  0
   16.6074   -9.3444  -17.5769 N   0  0  0  0  0  0  0  0  0  0  0  0
   17.9309   -9.7038  -15.6572 C   0  0  0  0  0  0  0  0  0  0  0  0
   18.0985  -10.0849  -14.4664 O   0  0  0  0  0  0  0  0  0  0  0  0
   22.8626   -9.1160  -14.2986 N   0  0  0  0  0  0  0  0  0  0  0  0
   22.4907   -9.9161  -15.4610 C   0  0  0  0  0  0  0  0  0  0  0  0
   23.3267  -10.7576  -15.8251 O   0  0  0  0  0  0  0  0  0  0  0  0
   21.2197   -9.6829  -16.0869 C   0  0  0  0  0  0  0  0  0  0  0  0
   20.2314   -8.7366  -15.5066 C   0  0  2  0  0  0  0  0  0  0  0  0
   18.9651   -9.0178  -16.2951 N   0  0  0  0  0  0  0  0  0  0  0  0
   20.5020   -7.3060  -15.6988 C   0  0  0  0  0  0  0  0  0  0  0  0
   20.5953   -6.7954  -16.8652 O   0  0  0  0  0  0  0  0  0  0  0  0
   18.4342   -0.1927  -15.0074 C   0  0  0  0  0  0  0  0  0  0  0  0
   18.3096   -1.9742  -14.7537 S   0  0  0  0  0  0  0  0  0  0  0  0
   19.9411   -2.7441  -14.9975 C   0  0  0  0  0  0  0  0  0  0  0  0
   19.7887   -4.2002  -14.7187 C   0  0  0  0  0  0  0  0  0  0  0  0
   21.0576   -5.0071  -14.8569 C   0  0  2  0  0  0  0  0  0  0  0  0
   20.6692   -6.4048  -14.6337 N   0  0  0  0  0  0  0  0  0  0  0  0
   22.1296   -4.5946  -13.9477 C   0  0  0  0  0  0  0  0  0  0  0  0
   22.9731   -3.5231  -14.2699 O   0  0  0  0  0  0  0  0  0  0  0  0
   22.3341   -5.1703  -12.8652 O   0  0  0  0  0  0  0  0  0  0  0  0
  2  1  1  6
  2  3  1  0
  4  2  1  0
  4 11  1  0
  5  4  2  0
  7  6  1  0
  7  8  2  0
  9  7  1  0
 10 11  1  0
 10  9  1  6
 10 12  1  0
 12 13  2  0
 12 19  1  0
 15 14  1  0
 16 15  1  0
 17 16  1  0
 18 17  1  1
 19 18  1  0
 20 18  1  0
 20 21  1  0
 22 20  2  0
M  END
$$$$
