ANM.pdb
     RDKit          3D

 22 21  0  0  1  0  0  0  0  0999 V2000
   28.7813  -19.7020  -17.3355 C   0  0  0  0  0  0  0  0  0  0  0  0
   28.5275  -20.4719  -16.0779 C   0  0  2  0  0  0  0  0  0  0  0  0
   27.8315  -21.7202  -16.3127 N   0  0  0  0  0  0  0  0  0  0  0  0
   27.7172  -19.7028  -15.0948 C   0  0  0  0  0  0  0  0  0  0  0  0
   28.1901  -18.6058  -14.6894 O   0  0  0  0  0  0  0  0  0  0  0  0
   26.2476  -16.6660  -15.0946 N   0  0  0  0  0  0  0  0  0  0  0  0
   25.0005  -17.3754  -15.3612 C   0  0  0  0  0  0  0  0  0  0  0  0
   24.2737  -16.8771  -16.2347 O   0  0  0  0  0  0  0  0  0  0  0  0
   24.7067  -18.5674  -14.6166 C   0  0  0  0  0  0  0  0  0  0  0  0
   25.7077  -19.1778  -13.7031 C   0  0  2  0  0  0  0  0  0  0  0  0
   26.4806  -20.1238  -14.6042 N   0  0  0  0  0  0  0  0  0  0  0  0
   25.1805  -20.0150  -12.6178 C   0  0  0  0  0  0  0  0  0  0  0  0
   23.9286  -20.0866  -12.3783 O   0  0  0  0  0  0  0  0  0  0  0  0
   27.7515  -19.9399   -5.5193 C   0  0  0  0  0  0  0  0  0  0  0  0
   27.5194  -19.3738   -7.2162 S   0  0  0  0  0  0  0  0  0  0  0  0
   26.3118  -20.4432   -8.0599 C   0  0  0  0  0  0  0  0  0  0  0  0
   26.5952  -20.3628   -9.5208 C   0  0  0  0  0  0  0  0  0  0  0  0
   25.6137  -21.1035  -10.3974 C   0  0  2  0  0  0  0  0  0  0  0  0
   25.9976  -20.7922  -11.7794 N   0  0  0  0  0  0  0  0  0  0  0  0
   24.2113  -20.7677  -10.1397 C   0  0  0  0  0  0  0  0  0  0  0  0
   23.3698  -21.6627   -9.4656 O   0  0  0  0  0  0  0  0  0  0  0  0
   23.7143  -19.6880  -10.5034 O   0  0  0  0  0  0  0  0  0  0  0  0
  2  1  1  6
  2  3  1  0
  4  2  1  0
  4 11  1  0
  5  4  2  0
  7  6  1  0
  7  8  2  0
  9  7  1  0
 10 11  1  0
 10  9  1  6
 10 12  1  0
 12 13  2  0
 12 19  1  0
 15 14  1  0
 16 15  1  0
 17 16  1  0
 18 17  1  1
 19 18  1  0
 20 18  1  0
 20 21  1  0
 22 20  2  0
M  END
$$$$
