ANM.pdb
     RDKit          3D

 22 21  0  0  1  0  0  0  0  0999 V2000
   14.4847   -9.8681  -14.5703 C   0  0  0  0  0  0  0  0  0  0  0  0
   15.9544   -9.8747  -14.2899 C   0  0  2  0  0  0  0  0  0  0  0  0
   16.3494  -10.9312  -13.3811 N   0  0  0  0  0  0  0  0  0  0  0  0
   16.4251   -8.5942  -13.6954 C   0  0  0  0  0  0  0  0  0  0  0  0
   16.4534   -7.5836  -14.4499 O   0  0  0  0  0  0  0  0  0  0  0  0
   18.0973   -4.9415  -10.0909 N   0  0  0  0  0  0  0  0  0  0  0  0
   17.1546   -5.9508   -9.6197 C   0  0  0  0  0  0  0  0  0  0  0  0
   16.7813   -5.8310   -8.4424 O   0  0  0  0  0  0  0  0  0  0  0  0
   16.7344   -6.9845  -10.5234 C   0  0  0  0  0  0  0  0  0  0  0  0
   17.2867   -7.0831  -11.8997 C   0  0  2  0  0  0  0  0  0  0  0  0
   16.8311   -8.4533  -12.3679 N   0  0  0  0  0  0  0  0  0  0  0  0
   18.7503   -7.0957  -12.0197 C   0  0  0  0  0  0  0  0  0  0  0  0
   19.4511   -8.0478  -11.5377 O   0  0  0  0  0  0  0  0  0  0  0  0
   24.2365  -10.0434  -14.9702 C   0  0  0  0  0  0  0  0  0  0  0  0
   22.5343   -9.5228  -14.6779 S   0  0  0  0  0  0  0  0  0  0  0  0
   22.5178   -7.8368  -13.9916 C   0  0  0  0  0  0  0  0  0  0  0  0
   21.1112   -7.5303  -13.6063 C   0  0  0  0  0  0  0  0  0  0  0  0
   20.9200   -6.2027  -12.9126 C   0  0  2  0  0  0  0  0  0  0  0  0
   19.4778   -6.0832  -12.6678 N   0  0  0  0  0  0  0  0  0  0  0  0
   21.4351   -5.0562  -13.6650 C   0  0  0  0  0  0  0  0  0  0  0  0
   22.7699   -4.6507  -13.5332 O   0  0  0  0  0  0  0  0  0  0  0  0
   20.7191   -4.4024  -14.4428 O   0  0  0  0  0  0  0  0  0  0  0  0
  2  1  1  1
  2  3  1  0
  4  2  1  0
  4 11  1  0
  5  4  2  0
  7  6  1  0
  7  8  2  0
  9  7  1  0
 10 11  1  0
 10  9  1  1
 10 12  1  0
 12 13  2  0
 12 19  1  0
 15 14  1  0
 16 15  1  0
 17 16  1  0
 18 17  1  6
 19 18  1  0
 20 18  1  0
 20 21  1  0
 22 20  2  0
M  END
$$$$
