ANM.pdb
     RDKit          3D

 22 21  0  0  1  0  0  0  0  0999 V2000
   20.6945  -17.2833  -14.3601 C   0  0  0  0  0  0  0  0  0  0  0  0
   20.6902  -17.9796  -15.6844 C   0  0  2  0  0  0  0  0  0  0  0  0
   20.0603  -17.1986  -16.7290 N   0  0  0  0  0  0  0  0  0  0  0  0
   19.9829  -19.2879  -15.6360 C   0  0  0  0  0  0  0  0  0  0  0  0
   18.7399  -19.2645  -15.4216 O   0  0  0  0  0  0  0  0  0  0  0  0
   20.2248  -24.1188  -18.6068 N   0  0  0  0  0  0  0  0  0  0  0  0
   20.0271  -22.8570  -17.9008 C   0  0  0  0  0  0  0  0  0  0  0  0
   19.5221  -21.9404  -18.5674 O   0  0  0  0  0  0  0  0  0  0  0  0
   20.4188  -22.7635  -16.5226 C   0  0  0  0  0  0  0  0  0  0  0  0
   19.7896  -21.7803  -15.6024 C   0  0  2  0  0  0  0  0  0  0  0  0
   20.6112  -20.5213  -15.8122 N   0  0  0  0  0  0  0  0  0  0  0  0
   19.8828  -22.0732  -14.1664 C   0  0  0  0  0  0  0  0  0  0  0  0
   21.0109  -22.1591  -13.5748 O   0  0  0  0  0  0  0  0  0  0  0  0
   22.2356  -19.7121  -10.0313 C   0  0  0  0  0  0  0  0  0  0  0  0
   20.5133  -19.5146   -9.5326 S   0  0  0  0  0  0  0  0  0  0  0  0
   19.5879  -21.0368   -9.9075 C   0  0  0  0  0  0  0  0  0  0  0  0
   19.5205  -21.1588  -11.3913 C   0  0  0  0  0  0  0  0  0  0  0  0
   18.8796  -22.4308  -11.8931 C   0  0  2  0  0  0  0  0  0  0  0  0
   18.7586  -22.2712  -13.3470 N   0  0  0  0  0  0  0  0  0  0  0  0
   17.5859  -22.7317  -11.2750 C   0  0  0  0  0  0  0  0  0  0  0  0
   17.5141  -23.4145  -10.0536 O   0  0  0  0  0  0  0  0  0  0  0  0
   16.5103  -22.3983  -11.8013 O   0  0  0  0  0  0  0  0  0  0  0  0
  2  1  1  1
  2  3  1  0
  4  2  1  0
  4 11  1  0
  5  4  2  0
  7  6  1  0
  7  8  2  0
  9  7  1  0
 10 11  1  0
 10  9  1  6
 10 12  1  0
 12 13  2  0
 12 19  1  0
 15 14  1  0
 16 15  1  0
 17 16  1  0
 18 17  1  1
 19 18  1  0
 20 18  1  0
 20 21  1  0
 22 20  2  0
M  END
$$$$
