ANM.pdb
     RDKit          3D

 22 21  0  0  1  0  0  0  0  0999 V2000
   18.0828  -11.8758  -18.2773 C   0  0  0  0  0  0  0  0  0  0  0  0
   18.9969  -11.4039  -17.1908 C   0  0  2  0  0  0  0  0  0  0  0  0
   18.8572  -12.1659  -15.9670 N   0  0  0  0  0  0  0  0  0  0  0  0
   18.7716   -9.9756  -16.8393 C   0  0  0  0  0  0  0  0  0  0  0  0
   19.0317   -9.1153  -17.7246 O   0  0  0  0  0  0  0  0  0  0  0  0
   16.8639   -5.4584  -14.9175 N   0  0  0  0  0  0  0  0  0  0  0  0
   16.1395   -6.6728  -14.5565 C   0  0  0  0  0  0  0  0  0  0  0  0
   15.0096   -6.5021  -14.0730 O   0  0  0  0  0  0  0  0  0  0  0  0
   16.7645   -7.9463  -14.7785 C   0  0  0  0  0  0  0  0  0  0  0  0
   18.1181   -8.0511  -15.3835 C   0  0  2  0  0  0  0  0  0  0  0  0
   18.2952   -9.5428  -15.6012 N   0  0  0  0  0  0  0  0  0  0  0  0
   19.2475   -7.6425  -14.5384 C   0  0  0  0  0  0  0  0  0  0  0  0
   19.7157   -8.4112  -13.6330 O   0  0  0  0  0  0  0  0  0  0  0  0
   24.3882  -10.6045  -14.9193 C   0  0  0  0  0  0  0  0  0  0  0  0
   23.8217   -9.0268  -15.5856 S   0  0  0  0  0  0  0  0  0  0  0  0
   22.7893   -8.1751  -14.3517 C   0  0  0  0  0  0  0  0  0  0  0  0
   22.1581   -7.0094  -15.0326 C   0  0  0  0  0  0  0  0  0  0  0  0
   21.2512   -6.1792  -14.1557 C   0  0  2  0  0  0  0  0  0  0  0  0
   19.8920   -6.4001  -14.6634 N   0  0  0  0  0  0  0  0  0  0  0  0
   21.5899   -4.7543  -14.1261 C   0  0  0  0  0  0  0  0  0  0  0  0
   22.5233   -4.2561  -13.2075 O   0  0  0  0  0  0  0  0  0  0  0  0
   21.0702   -3.9368  -14.9050 O   0  0  0  0  0  0  0  0  0  0  0  0
  2  1  1  6
  2  3  1  0
  4  2  1  0
  4 11  1  0
  5  4  2  0
  7  6  1  0
  7  8  2  0
  9  7  1  0
 10 11  1  0
 10  9  1  1
 10 12  1  0
 12 13  2  0
 12 19  1  0
 15 14  1  0
 16 15  1  0
 17 16  1  0
 18 17  1  6
 19 18  1  0
 20 18  1  0
 20 21  1  0
 22 20  2  0
M  END
$$$$
