ANM.pdb
     RDKit          3D

 22 21  0  0  1  0  0  0  0  0999 V2000
   26.7600  -21.6158  -14.3027 C   0  0  0  0  0  0  0  0  0  0  0  0
   25.5852  -22.5376  -14.3975 C   0  0  2  0  0  0  0  0  0  0  0  0
   25.7472  -23.5529  -15.4177 N   0  0  0  0  0  0  0  0  0  0  0  0
   24.3200  -21.8159  -14.7022 C   0  0  0  0  0  0  0  0  0  0  0  0
   24.0048  -21.6914  -15.9173 O   0  0  0  0  0  0  0  0  0  0  0  0
   20.5457  -23.0011  -14.1641 N   0  0  0  0  0  0  0  0  0  0  0  0
   20.4508  -22.0623  -13.0509 C   0  0  0  0  0  0  0  0  0  0  0  0
   19.6693  -22.3825  -12.1418 O   0  0  0  0  0  0  0  0  0  0  0  0
   21.2446  -20.8663  -13.0812 C   0  0  0  0  0  0  0  0  0  0  0  0
   22.1988  -20.5965  -14.1884 C   0  0  2  0  0  0  0  0  0  0  0  0
   23.4759  -21.2772  -13.7304 N   0  0  0  0  0  0  0  0  0  0  0  0
   22.5632  -19.1916  -14.4125 C   0  0  0  0  0  0  0  0  0  0  0  0
   22.8432  -18.4119  -13.4412 O   0  0  0  0  0  0  0  0  0  0  0  0
   27.4400  -17.4552  -16.4260 C   0  0  0  0  0  0  0  0  0  0  0  0
   26.6646  -16.0960  -17.3232 S   0  0  0  0  0  0  0  0  0  0  0  0
   24.9635  -15.8553  -16.7215 C   0  0  0  0  0  0  0  0  0  0  0  0
   24.4137  -17.2027  -16.3999 C   0  0  0  0  0  0  0  0  0  0  0  0
   22.9968  -17.1999  -15.8778 C   0  0  2  0  0  0  0  0  0  0  0  0
   22.6369  -18.6102  -15.6896 N   0  0  0  0  0  0  0  0  0  0  0  0
   22.0408  -16.5120  -16.7489 C   0  0  0  0  0  0  0  0  0  0  0  0
   21.6902  -15.1751  -16.5177 O   0  0  0  0  0  0  0  0  0  0  0  0
   21.5065  -17.0778  -17.7181 O   0  0  0  0  0  0  0  0  0  0  0  0
  2  1  1  6
  2  3  1  0
  4  2  1  0
  4 11  1  0
  5  4  2  0
  7  6  1  0
  7  8  2  0
  9  7  1  0
 10 11  1  0
 10  9  1  1
 10 12  1  0
 12 13  2  0
 12 19  1  0
 15 14  1  0
 16 15  1  0
 17 16  1  0
 18 17  1  6
 19 18  1  0
 20 18  1  0
 20 21  1  0
 22 20  2  0
M  END
$$$$
