ANM.pdb
     RDKit          3D

 22 21  0  0  1  0  0  0  0  0999 V2000
   18.9104  -12.1876  -19.9588 C   0  0  0  0  0  0  0  0  0  0  0  0
   19.3058  -11.9929  -18.5289 C   0  0  2  0  0  0  0  0  0  0  0  0
   18.3365  -12.5335  -17.5982 N   0  0  0  0  0  0  0  0  0  0  0  0
   19.4871  -10.5577  -18.1800 C   0  0  0  0  0  0  0  0  0  0  0  0
   20.4436   -9.9463  -18.7301 O   0  0  0  0  0  0  0  0  0  0  0  0
   16.1036   -6.0530  -15.8083 N   0  0  0  0  0  0  0  0  0  0  0  0
   17.4291   -6.5038  -16.2199 C   0  0  0  0  0  0  0  0  0  0  0  0
   18.3371   -5.6635  -16.1250 O   0  0  0  0  0  0  0  0  0  0  0  0
   17.5890   -7.8499  -16.6933 C   0  0  0  0  0  0  0  0  0  0  0  0
   18.9187   -8.3774  -17.0967 C   0  0  2  0  0  0  0  0  0  0  0  0
   18.6681   -9.8620  -17.2899 N   0  0  0  0  0  0  0  0  0  0  0  0
   19.9903   -8.2887  -16.0964 C   0  0  0  0  0  0  0  0  0  0  0  0
   20.0984   -9.1459  -15.1566 O   0  0  0  0  0  0  0  0  0  0  0  0
   26.8449   -9.9899  -14.7721 C   0  0  0  0  0  0  0  0  0  0  0  0
   25.2847   -9.7946  -15.6560 S   0  0  0  0  0  0  0  0  0  0  0  0
   24.3274   -8.4336  -14.9174 C   0  0  0  0  0  0  0  0  0  0  0  0
   23.0305   -8.3585  -15.6477 C   0  0  0  0  0  0  0  0  0  0  0  0
   22.0905   -7.2824  -15.1589 C   0  0  2  0  0  0  0  0  0  0  0  0
   20.9649   -7.2765  -16.1008 N   0  0  0  0  0  0  0  0  0  0  0  0
   22.7059   -5.9578  -15.0471 C   0  0  0  0  0  0  0  0  0  0  0  0
   23.3194   -5.5482  -13.8558 O   0  0  0  0  0  0  0  0  0  0  0  0
   22.7100   -5.1507  -15.9925 O   0  0  0  0  0  0  0  0  0  0  0  0
  2  1  1  6
  2  3  1  0
  4  2  1  0
  4 11  1  0
  5  4  2  0
  7  6  1  0
  7  8  2  0
  9  7  1  0
 10 11  1  0
 10  9  1  1
 10 12  1  0
 12 13  2  0
 12 19  1  0
 15 14  1  0
 16 15  1  0
 17 16  1  0
 18 17  1  6
 19 18  1  0
 20 18  1  0
 20 21  1  0
 22 20  2  0
M  END
$$$$
