ANM.pdb
     RDKit          3D

 22 21  0  0  1  0  0  0  0  0999 V2000
   12.0820  -22.9792   -6.0415 C   0  0  0  0  0  0  0  0  0  0  0  0
   13.4556  -22.7919   -6.6042 C   0  0  2  0  0  0  0  0  0  0  0  0
   13.4562  -22.6184   -8.0422 N   0  0  0  0  0  0  0  0  0  0  0  0
   14.3530  -23.9411   -6.3066 C   0  0  0  0  0  0  0  0  0  0  0  0
   13.9103  -25.0971   -6.5497 O   0  0  0  0  0  0  0  0  0  0  0  0
   16.9681  -26.5930   -7.9005 N   0  0  0  0  0  0  0  0  0  0  0  0
   17.9484  -25.6180   -7.4336 C   0  0  0  0  0  0  0  0  0  0  0  0
   18.9573  -25.4864   -8.1438 O   0  0  0  0  0  0  0  0  0  0  0  0
   17.6873  -24.8973   -6.2195 C   0  0  0  0  0  0  0  0  0  0  0  0
   16.4169  -25.0765   -5.4690 C   0  0  2  0  0  0  0  0  0  0  0  0
   15.6389  -23.8109   -5.7807 N   0  0  0  0  0  0  0  0  0  0  0  0
   16.5209  -25.1209   -4.0048 C   0  0  0  0  0  0  0  0  0  0  0  0
   17.2548  -25.9823   -3.4139 O   0  0  0  0  0  0  0  0  0  0  0  0
   14.5794  -21.1384    2.5375 C   0  0  0  0  0  0  0  0  0  0  0  0
   14.4020  -21.4521    0.7701 S   0  0  0  0  0  0  0  0  0  0  0  0
   15.2327  -23.0132    0.3378 C   0  0  0  0  0  0  0  0  0  0  0  0
   15.2501  -23.1073   -1.1494 C   0  0  0  0  0  0  0  0  0  0  0  0
   15.8914  -24.3602   -1.6967 C   0  0  2  0  0  0  0  0  0  0  0  0
   15.8387  -24.2312   -3.1578 N   0  0  0  0  0  0  0  0  0  0  0  0
   15.2597  -25.6015   -1.2428 C   0  0  0  0  0  0  0  0  0  0  0  0
   14.1041  -26.0901   -1.8666 O   0  0  0  0  0  0  0  0  0  0  0  0
   15.7163  -26.2660   -0.2966 O   0  0  0  0  0  0  0  0  0  0  0  0
  2  1  1  6
  2  3  1  0
  4  2  1  0
  4 11  1  0
  5  4  2  0
  7  6  1  0
  7  8  2  0
  9  7  1  0
 10 11  1  0
 10  9  1  6
 10 12  1  0
 12 13  2  0
 12 19  1  0
 15 14  1  0
 16 15  1  0
 17 16  1  0
 18 17  1  1
 19 18  1  0
 20 18  1  0
 20 21  1  0
 22 20  2  0
M  END
$$$$
