ANM.pdb
     RDKit          3D

 22 21  0  0  1  0  0  0  0  0999 V2000
   28.5164  -18.4645  -14.7367 C   0  0  0  0  0  0  0  0  0  0  0  0
   27.2066  -19.1623  -14.9269 C   0  0  2  0  0  0  0  0  0  0  0  0
   26.4436  -18.6340  -16.0390 N   0  0  0  0  0  0  0  0  0  0  0  0
   26.3356  -19.0737  -13.7236 C   0  0  0  0  0  0  0  0  0  0  0  0
   26.1489  -17.9282  -13.2293 O   0  0  0  0  0  0  0  0  0  0  0  0
   22.9944  -18.6166  -13.7425 N   0  0  0  0  0  0  0  0  0  0  0  0
   22.6171  -19.8922  -13.1425 C   0  0  0  0  0  0  0  0  0  0  0  0
   21.4862  -20.3110  -13.4344 O   0  0  0  0  0  0  0  0  0  0  0  0
   23.5524  -20.5576  -12.2798 C   0  0  0  0  0  0  0  0  0  0  0  0
   24.8463  -19.9288  -11.9066 C   0  0  2  0  0  0  0  0  0  0  0  0
   25.7234  -20.1734  -13.1212 N   0  0  0  0  0  0  0  0  0  0  0  0
   25.5662  -20.5305  -10.7769 C   0  0  0  0  0  0  0  0  0  0  0  0
   26.0779  -21.6974  -10.8571 O   0  0  0  0  0  0  0  0  0  0  0  0
   29.2705  -19.2090   -3.9921 C   0  0  0  0  0  0  0  0  0  0  0  0
   28.5318  -18.6651   -5.5452 S   0  0  0  0  0  0  0  0  0  0  0  0
   27.5305  -20.0109   -6.2526 C   0  0  0  0  0  0  0  0  0  0  0  0
   27.0598  -19.5548   -7.5911 C   0  0  0  0  0  0  0  0  0  0  0  0
   26.2699  -20.5812   -8.3676 C   0  0  2  0  0  0  0  0  0  0  0  0
   25.7496  -19.8779   -9.5460 N   0  0  0  0  0  0  0  0  0  0  0  0
   25.1944  -21.2132   -7.5995 C   0  0  0  0  0  0  0  0  0  0  0  0
   25.4809  -22.1516   -6.5991 O   0  0  0  0  0  0  0  0  0  0  0  0
   23.9969  -20.9472   -7.8000 O   0  0  0  0  0  0  0  0  0  0  0  0
  2  1  1  1
  2  3  1  0
  4  2  1  0
  4 11  1  0
  5  4  2  0
  7  6  1  0
  7  8  2  0
  9  7  1  0
 10 11  1  0
 10  9  1  6
 10 12  1  0
 12 13  2  0
 12 19  1  0
 15 14  1  0
 16 15  1  0
 17 16  1  0
 18 17  1  1
 19 18  1  0
 20 18  1  0
 20 21  1  0
 22 20  2  0
M  END
$$$$
