ANM.pdb
     RDKit          3D

 22 21  0  0  1  0  0  0  0  0999 V2000
   20.1358  -11.0413  -18.9929 C   0  0  0  0  0  0  0  0  0  0  0  0
   20.9665   -9.7996  -19.0761 C   0  0  2  0  0  0  0  0  0  0  0  0
   22.3820  -10.0570  -18.9090 N   0  0  0  0  0  0  0  0  0  0  0  0
   20.5858   -8.7916  -18.0496 C   0  0  0  0  0  0  0  0  0  0  0  0
   19.5300   -8.1317  -18.2523 O   0  0  0  0  0  0  0  0  0  0  0  0
   20.4151   -5.8397  -13.5583 N   0  0  0  0  0  0  0  0  0  0  0  0
   20.9848   -7.1765  -13.4243 C   0  0  0  0  0  0  0  0  0  0  0  0
   21.2325   -7.5424  -12.2649 O   0  0  0  0  0  0  0  0  0  0  0  0
   21.2137   -7.9558  -14.6083 C   0  0  0  0  0  0  0  0  0  0  0  0
   20.8358   -7.4510  -15.9542 C   0  0  2  0  0  0  0  0  0  0  0  0
   21.3233   -8.5406  -16.8919 N   0  0  0  0  0  0  0  0  0  0  0  0
   21.5011   -6.2215  -16.4040 C   0  0  0  0  0  0  0  0  0  0  0  0
   22.7464   -6.2010  -16.6843 O   0  0  0  0  0  0  0  0  0  0  0  0
   21.5229   -0.7644  -21.5968 C   0  0  0  0  0  0  0  0  0  0  0  0
   20.8658   -2.2088  -20.7391 S   0  0  0  0  0  0  0  0  0  0  0  0
   21.6237   -2.3399  -19.0891 C   0  0  0  0  0  0  0  0  0  0  0  0
   21.0458   -3.5462  -18.4320 C   0  0  0  0  0  0  0  0  0  0  0  0
   21.5240   -3.7880  -17.0202 C   0  0  2  0  0  0  0  0  0  0  0  0
   20.8293   -4.9977  -16.5641 N   0  0  0  0  0  0  0  0  0  0  0  0
   21.2965   -2.6617  -16.1115 C   0  0  0  0  0  0  0  0  0  0  0  0
   22.2248   -1.6165  -16.0154 O   0  0  0  0  0  0  0  0  0  0  0  0
   20.2828   -2.5861  -15.3960 O   0  0  0  0  0  0  0  0  0  0  0  0
  2  1  1  1
  2  3  1  0
  4  2  1  0
  4 11  1  0
  5  4  2  0
  7  6  1  0
  7  8  2  0
  9  7  1  0
 10 11  1  0
 10  9  1  1
 10 12  1  0
 12 13  2  0
 12 19  1  0
 15 14  1  0
 16 15  1  0
 17 16  1  0
 18 17  1  6
 19 18  1  0
 20 18  1  0
 20 21  1  0
 22 20  2  0
M  END
$$$$
