ANM.pdb
     RDKit          3D

 22 21  0  0  1  0  0  0  0  0999 V2000
   26.4535  -17.0714  -18.4831 C   0  0  0  0  0  0  0  0  0  0  0  0
   25.0297  -17.4150  -18.7884 C   0  0  2  0  0  0  0  0  0  0  0  0
   24.1217  -16.3107  -18.5562 N   0  0  0  0  0  0  0  0  0  0  0  0
   24.5350  -18.5600  -17.9767 C   0  0  0  0  0  0  0  0  0  0  0  0
   25.1212  -19.6674  -18.1232 O   0  0  0  0  0  0  0  0  0  0  0  0
   22.2042  -20.4387  -12.8990 N   0  0  0  0  0  0  0  0  0  0  0  0
   22.1681  -19.4836  -14.0018 C   0  0  0  0  0  0  0  0  0  0  0  0
   21.1812  -18.7322  -14.0311 O   0  0  0  0  0  0  0  0  0  0  0  0
   23.2454  -19.4777  -14.9510 C   0  0  0  0  0  0  0  0  0  0  0  0
   23.0100  -19.7504  -16.3931 C   0  0  2  0  0  0  0  0  0  0  0  0
   23.4729  -18.4760  -17.0756 N   0  0  0  0  0  0  0  0  0  0  0  0
   21.6125  -19.9301  -16.8069 C   0  0  0  0  0  0  0  0  0  0  0  0
   20.9266  -18.9623  -17.2789 O   0  0  0  0  0  0  0  0  0  0  0  0
   19.6486  -24.5717  -20.3676 C   0  0  0  0  0  0  0  0  0  0  0  0
   18.2552  -24.5901  -19.2222 S   0  0  0  0  0  0  0  0  0  0  0  0
   18.1144  -22.9712  -18.4016 C   0  0  0  0  0  0  0  0  0  0  0  0
   19.4559  -22.6410  -17.8428 C   0  0  0  0  0  0  0  0  0  0  0  0
   19.5390  -21.3045  -17.1446 C   0  0  2  0  0  0  0  0  0  0  0  0
   20.9374  -21.1597  -16.7231 N   0  0  0  0  0  0  0  0  0  0  0  0
   18.6185  -21.1634  -16.0138 C   0  0  0  0  0  0  0  0  0  0  0  0
   17.2919  -20.7587  -16.2127 O   0  0  0  0  0  0  0  0  0  0  0  0
   18.9708  -21.3937  -14.8441 O   0  0  0  0  0  0  0  0  0  0  0  0
  2  1  1  1
  2  3  1  0
  4  2  1  0
  4 11  1  0
  5  4  2  0
  7  6  1  0
  7  8  2  0
  9  7  1  0
 10 11  1  0
 10  9  1  1
 10 12  1  0
 12 13  2  0
 12 19  1  0
 15 14  1  0
 16 15  1  0
 17 16  1  0
 18 17  1  1
 19 18  1  0
 20 18  1  0
 20 21  1  0
 22 20  2  0
M  END
$$$$
