NNR.pdb
     RDKit          3D

 28 27  0  0  1  0  0  0  0  0999 V2000
   10.0213  -16.7360   10.7960 N   0  0  0  0  0  0  0  0  0  0  0  0
   10.1855  -15.5374   11.5338 C   0  0  0  0  0  0  0  0  0  0  0  0
   10.6791  -14.5413   10.9061 O   0  0  0  0  0  0  0  0  0  0  0  0
    9.8026  -15.4580   12.9505 C   0  0  0  0  0  0  0  0  0  0  0  0
    9.3320  -16.7804   13.5300 C   0  0  2  0  0  0  0  0  0  0  0  0
    8.0697  -17.0884   12.8867 N   0  0  0  0  0  0  0  0  0  0  0  0
    9.1574  -16.6453   15.0096 C   0  0  0  0  0  0  0  0  0  0  0  0
    8.0257  -16.7407   15.5452 O   0  0  0  0  0  0  0  0  0  0  0  0
   11.8145  -19.3399   18.5906 N   0  0  0  0  0  0  0  0  0  0  0  0
   10.9947  -19.6957   17.4952 C   0  0  0  0  0  0  0  0  0  0  0  0
   10.5880  -20.8898   17.4816 O   0  0  0  0  0  0  0  0  0  0  0  0
   10.6543  -18.6980   16.4433 C   0  0  0  0  0  0  0  0  0  0  0  0
   10.5161  -17.2919   16.9970 C   0  0  2  0  0  0  0  0  0  0  0  0
   10.2783  -16.3998   15.8814 N   0  0  0  0  0  0  0  0  0  0  0  0
   11.7007  -16.8948   17.7863 C   0  0  0  0  0  0  0  0  0  0  0  0
   12.1289  -17.6977   18.6481 O   0  0  0  0  0  0  0  0  0  0  0  0
    7.9671  -14.1499   22.5410 N   0  0  0  0  0  0  0  0  0  0  0  0
    8.1728  -12.7406   22.3350 C   0  0  0  0  0  0  0  0  0  0  0  0
    7.9023  -11.8912   23.2626 N   0  0  0  0  0  0  0  0  0  0  0  0
    8.6812  -12.2468   21.1032 N   0  0  0  0  0  0  0  0  0  0  0  0
    8.8749  -13.0838   19.9395 C   0  0  0  0  0  0  0  0  0  0  0  0
   10.3915  -13.3658   19.8901 C   0  0  0  0  0  0  0  0  0  0  0  0
   10.7181  -14.2816   18.7574 C   0  0  0  0  0  0  0  0  0  0  0  0
   12.1759  -14.5606   18.5916 C   0  0  2  0  0  0  0  0  0  0  0  0
   12.3854  -15.6630   17.6327 N   0  0  0  0  0  0  0  0  0  0  0  0
   12.7485  -14.9975   19.8793 C   0  0  0  0  0  0  0  0  0  0  0  0
   12.5389  -16.1410   20.3866 O   0  0  0  0  0  0  0  0  0  0  0  0
   13.5714  -14.0871   20.5733 O   0  0  0  0  0  0  0  0  0  0  0  0
  1  2  1  0
  2  3  2  0
  4  2  1  0
  4  5  1  0
  5  6  1  6
  7  5  1  0
  7  8  2  0
  9 10  1  0
 10 12  1  0
 11 10  2  0
 13 12  1  6
 13 14  1  0
 14  7  1  0
 15 13  1  0
 16 15  2  0
 18 17  1  0
 19 18  2  0
 20 18  1  0
 21 22  1  0
 21 20  1  0
 22 23  1  0
 24 23  1  1
 24 25  1  0
 24 26  1  0
 25 15  1  0
 26 28  1  0
 27 26  2  0
M  END
$$$$
