NNR.pdb
     RDKit          3D

 28 27  0  0  1  0  0  0  0  0999 V2000
   11.3573  -20.3514   14.6468 N   0  0  0  0  0  0  0  0  0  0  0  0
   10.4718  -19.8810   15.6481 C   0  0  0  0  0  0  0  0  0  0  0  0
    9.3964  -19.3229   15.2456 O   0  0  0  0  0  0  0  0  0  0  0  0
   10.7873  -20.0341   17.0753 C   0  0  0  0  0  0  0  0  0  0  0  0
   10.4101  -18.8271   17.9160 C   0  0  2  0  0  0  0  0  0  0  0  0
   10.9715  -17.6675   17.2509 N   0  0  0  0  0  0  0  0  0  0  0  0
   10.9765  -18.9783   19.2924 C   0  0  0  0  0  0  0  0  0  0  0  0
   10.7061  -19.9769   20.0040 O   0  0  0  0  0  0  0  0  0  0  0  0
   14.4924  -19.8642   23.1427 N   0  0  0  0  0  0  0  0  0  0  0  0
   14.4717  -18.6321   22.4496 C   0  0  0  0  0  0  0  0  0  0  0  0
   15.0287  -17.6647   23.0372 O   0  0  0  0  0  0  0  0  0  0  0  0
   13.8241  -18.5211   21.1132 C   0  0  0  0  0  0  0  0  0  0  0  0
   12.3514  -18.1675   21.2071 C   0  0  2  0  0  0  0  0  0  0  0  0
   11.8545  -17.9860   19.8591 N   0  0  0  0  0  0  0  0  0  0  0  0
   12.1268  -16.9745   22.0499 C   0  0  0  0  0  0  0  0  0  0  0  0
   12.5483  -15.8711   21.6309 O   0  0  0  0  0  0  0  0  0  0  0  0
    6.1613  -13.3924   19.7712 N   0  0  0  0  0  0  0  0  0  0  0  0
    7.3228  -13.6726   18.9691 C   0  0  0  0  0  0  0  0  0  0  0  0
    7.4759  -13.1254   17.8150 N   0  0  0  0  0  0  0  0  0  0  0  0
    8.3335  -14.5598   19.4284 N   0  0  0  0  0  0  0  0  0  0  0  0
    8.1338  -15.4797   20.5267 C   0  0  0  0  0  0  0  0  0  0  0  0
    9.3086  -15.2193   21.4931 C   0  0  0  0  0  0  0  0  0  0  0  0
    9.2659  -16.1741   22.6399 C   0  0  0  0  0  0  0  0  0  0  0  0
   10.3946  -16.0264   23.6067 C   0  0  2  0  0  0  0  0  0  0  0  0
   11.4652  -16.9963   23.3034 N   0  0  0  0  0  0  0  0  0  0  0  0
    9.9219  -16.3226   24.9726 C   0  0  0  0  0  0  0  0  0  0  0  0
    9.3780  -15.4605   25.7275 O   0  0  0  0  0  0  0  0  0  0  0  0
   10.0884  -17.6376   25.4531 O   0  0  0  0  0  0  0  0  0  0  0  0
  1  2  1  0
  2  3  2  0
  4  2  1  0
  4  5  1  0
  5  6  1  6
  7  5  1  0
  7  8  2  0
  9 10  1  0
 10 12  1  0
 11 10  2  0
 13 12  1  6
 13 14  1  0
 14  7  1  0
 15 13  1  0
 16 15  2  0
 18 17  1  0
 19 18  2  0
 20 18  1  0
 21 22  1  0
 21 20  1  0
 22 23  1  0
 24 23  1  6
 24 25  1  0
 24 26  1  0
 25 15  1  0
 26 28  1  0
 27 26  2  0
M  END
$$$$
