NNR.pdb
     RDKit          3D

 28 27  0  0  1  0  0  0  0  0999 V2000
    7.8827  -17.4386   13.6547 N   0  0  0  0  0  0  0  0  0  0  0  0
    9.2460  -17.7559   13.8752 C   0  0  0  0  0  0  0  0  0  0  0  0
   10.0630  -17.4527   12.9423 O   0  0  0  0  0  0  0  0  0  0  0  0
    9.6846  -18.4020   15.1202 C   0  0  0  0  0  0  0  0  0  0  0  0
   10.5452  -17.5114   15.9989 C   0  0  2  0  0  0  0  0  0  0  0  0
   11.8107  -17.3489   15.3101 N   0  0  0  0  0  0  0  0  0  0  0  0
   10.7432  -18.1626   17.3311 C   0  0  0  0  0  0  0  0  0  0  0  0
    9.7804  -18.3548   18.1138 O   0  0  0  0  0  0  0  0  0  0  0  0
   15.0214  -20.7733   20.9637 N   0  0  0  0  0  0  0  0  0  0  0  0
   13.7151  -20.5978   20.4524 C   0  0  0  0  0  0  0  0  0  0  0  0
   12.7813  -21.0476   21.1715 O   0  0  0  0  0  0  0  0  0  0  0  0
   13.4940  -19.9207   19.1445 C   0  0  0  0  0  0  0  0  0  0  0  0
   12.1973  -19.1334   19.1080 C   0  0  2  0  0  0  0  0  0  0  0  0
   12.0450  -18.5957   17.7721 N   0  0  0  0  0  0  0  0  0  0  0  0
   12.1680  -18.0772   20.1412 C   0  0  0  0  0  0  0  0  0  0  0  0
   12.9715  -17.1220   20.0282 O   0  0  0  0  0  0  0  0  0  0  0  0
    6.4488  -12.6539   20.1921 N   0  0  0  0  0  0  0  0  0  0  0  0
    7.6053  -12.8357   19.3552 C   0  0  0  0  0  0  0  0  0  0  0  0
    7.7665  -12.1326   18.2900 N   0  0  0  0  0  0  0  0  0  0  0  0
    8.6020  -13.7949   19.6811 N   0  0  0  0  0  0  0  0  0  0  0  0
    8.6533  -14.4743   20.9570 C   0  0  0  0  0  0  0  0  0  0  0  0
    9.9026  -15.3777   20.8860 C   0  0  0  0  0  0  0  0  0  0  0  0
   10.0492  -16.1699   22.1427 C   0  0  0  0  0  0  0  0  0  0  0  0
   11.3114  -16.9637   22.2267 C   0  0  2  0  0  0  0  0  0  0  0  0
   11.2896  -18.0736   21.2539 N   0  0  0  0  0  0  0  0  0  0  0  0
   11.4297  -17.5701   23.5666 C   0  0  0  0  0  0  0  0  0  0  0  0
   11.2743  -18.8090   23.7905 O   0  0  0  0  0  0  0  0  0  0  0  0
   11.7325  -16.7173   24.6476 O   0  0  0  0  0  0  0  0  0  0  0  0
  1  2  1  0
  2  3  2  0
  4  2  1  0
  4  5  1  0
  5  6  1  6
  7  5  1  0
  7  8  2  0
  9 10  1  0
 10 12  1  0
 11 10  2  0
 13 12  1  6
 13 14  1  0
 14  7  1  0
 15 13  1  0
 16 15  2  0
 18 17  1  0
 19 18  2  0
 20 18  1  0
 21 22  1  0
 21 20  1  0
 22 23  1  0
 24 23  1  1
 24 25  1  0
 24 26  1  0
 25 15  1  0
 26 28  1  0
 27 26  2  0
M  END
$$$$
