NNR.pdb
     RDKit          3D

 28 27  0  0  1  0  0  0  0  0999 V2000
    9.4708  -16.1881   13.8174 N   0  0  0  0  0  0  0  0  0  0  0  0
   10.3851  -17.2616   13.9573 C   0  0  0  0  0  0  0  0  0  0  0  0
   10.3725  -18.1483   13.0389 O   0  0  0  0  0  0  0  0  0  0  0  0
   11.2973  -17.3386   15.1070 C   0  0  0  0  0  0  0  0  0  0  0  0
   11.0832  -16.2371   16.1301 C   0  0  2  0  0  0  0  0  0  0  0  0
   11.1254  -14.9832   15.4033 N   0  0  0  0  0  0  0  0  0  0  0  0
   12.1663  -16.2927   17.1605 C   0  0  0  0  0  0  0  0  0  0  0  0
   12.3848  -17.3367   17.8230 O   0  0  0  0  0  0  0  0  0  0  0  0
   17.5706  -13.9760   17.8458 N   0  0  0  0  0  0  0  0  0  0  0  0
   16.4663  -14.6440   18.4231 C   0  0  0  0  0  0  0  0  0  0  0  0
   16.7470  -15.6280   19.1608 O   0  0  0  0  0  0  0  0  0  0  0  0
   15.0747  -14.1869   18.1544 C   0  0  0  0  0  0  0  0  0  0  0  0
   14.0431  -15.2631   18.4379 C   0  0  2  0  0  0  0  0  0  0  0  0
   13.0032  -15.1523   17.4363 N   0  0  0  0  0  0  0  0  0  0  0  0
   13.5078  -15.1610   19.8116 C   0  0  0  0  0  0  0  0  0  0  0  0
   13.5397  -14.0410   20.3731 O   0  0  0  0  0  0  0  0  0  0  0  0
    6.5233  -13.8590   20.5308 N   0  0  0  0  0  0  0  0  0  0  0  0
    7.5948  -13.1550   19.8772 C   0  0  0  0  0  0  0  0  0  0  0  0
    7.3596  -12.1138   19.1592 N   0  0  0  0  0  0  0  0  0  0  0  0
    8.9422  -13.5881   20.0066 N   0  0  0  0  0  0  0  0  0  0  0  0
    9.3031  -14.9091   20.4723 C   0  0  0  0  0  0  0  0  0  0  0  0
   10.4338  -14.6832   21.4981 C   0  0  0  0  0  0  0  0  0  0  0  0
   10.9935  -15.9884   21.9580 C   0  0  0  0  0  0  0  0  0  0  0  0
   12.4845  -16.0660   21.9227 C   0  0  2  0  0  0  0  0  0  0  0  0
   12.9600  -16.2486   20.5373 N   0  0  0  0  0  0  0  0  0  0  0  0
   12.9400  -17.2405   22.6908 C   0  0  0  0  0  0  0  0  0  0  0  0
   13.5085  -18.2444   22.1634 O   0  0  0  0  0  0  0  0  0  0  0  0
   12.7272  -17.2351   24.0844 O   0  0  0  0  0  0  0  0  0  0  0  0
  1  2  1  0
  2  3  2  0
  4  2  1  0
  4  5  1  0
  5  6  1  6
  7  5  1  0
  7  8  2  0
  9 10  1  0
 10 12  1  0
 11 10  2  0
 13 12  1  6
 13 14  1  0
 14  7  1  0
 15 13  1  0
 16 15  2  0
 18 17  1  0
 19 18  2  0
 20 18  1  0
 21 22  1  0
 21 20  1  0
 22 23  1  0
 24 23  1  6
 24 25  1  0
 24 26  1  0
 25 15  1  0
 26 28  1  0
 27 26  2  0
M  END
$$$$
