NNR.pdb
     RDKit          3D

 28 27  0  0  1  0  0  0  0  0999 V2000
   14.9072  -17.2151   10.1181 N   0  0  0  0  0  0  0  0  0  0  0  0
   15.4542  -17.6920   11.3352 C   0  0  0  0  0  0  0  0  0  0  0  0
   16.6588  -17.3565   11.5923 O   0  0  0  0  0  0  0  0  0  0  0  0
   14.6636  -18.5304   12.2474 C   0  0  0  0  0  0  0  0  0  0  0  0
   14.7189  -18.0760   13.6952 C   0  0  2  0  0  0  0  0  0  0  0  0
   14.3142  -16.6837   13.7079 N   0  0  0  0  0  0  0  0  0  0  0  0
   16.1126  -18.2308   14.2163 C   0  0  0  0  0  0  0  0  0  0  0  0
   16.6818  -19.3497   14.2367 O   0  0  0  0  0  0  0  0  0  0  0  0
   20.1546  -17.7311   12.7942 N   0  0  0  0  0  0  0  0  0  0  0  0
   19.4111  -16.5758   13.1280 C   0  0  0  0  0  0  0  0  0  0  0  0
   19.0496  -15.8583   12.1555 O   0  0  0  0  0  0  0  0  0  0  0  0
   19.0943  -16.2583   14.5480 C   0  0  0  0  0  0  0  0  0  0  0  0
   18.2105  -17.3076   15.1964 C   0  0  2  0  0  0  0  0  0  0  0  0
   16.8595  -17.1044   14.7164 N   0  0  0  0  0  0  0  0  0  0  0  0
   18.2920  -17.2577   16.6711 C   0  0  0  0  0  0  0  0  0  0  0  0
   17.9245  -16.2058   17.2448 O   0  0  0  0  0  0  0  0  0  0  0  0
   16.2428  -23.9795   21.3451 N   0  0  0  0  0  0  0  0  0  0  0  0
   15.8101  -22.6449   21.6655 C   0  0  0  0  0  0  0  0  0  0  0  0
   15.0710  -22.4195   22.6941 N   0  0  0  0  0  0  0  0  0  0  0  0
   16.1872  -21.5386   20.8571 N   0  0  0  0  0  0  0  0  0  0  0  0
   16.9738  -21.6768   19.6511 C   0  0  0  0  0  0  0  0  0  0  0  0
   17.1016  -20.2473   19.0837 C   0  0  0  0  0  0  0  0  0  0  0  0
   18.3909  -19.6270   19.5098 C   0  0  0  0  0  0  0  0  0  0  0  0
   18.6332  -18.2638   18.9502 C   0  0  2  0  0  0  0  0  0  0  0  0
   18.7598  -18.3232   17.4808 N   0  0  0  0  0  0  0  0  0  0  0  0
   19.9079  -17.7321   19.4694 C   0  0  0  0  0  0  0  0  0  0  0  0
   20.0515  -17.2840   20.6473 O   0  0  0  0  0  0  0  0  0  0  0  0
   21.0184  -17.7275   18.6009 O   0  0  0  0  0  0  0  0  0  0  0  0
  1  2  1  0
  2  3  2  0
  4  2  1  0
  4  5  1  0
  5  6  1  6
  7  5  1  0
  7  8  2  0
  9 10  1  0
 10 12  1  0
 11 10  2  0
 13 12  1  6
 13 14  1  0
 14  7  1  0
 15 13  1  0
 16 15  2  0
 18 17  1  0
 19 18  2  0
 20 18  1  0
 21 22  1  0
 21 20  1  0
 22 23  1  0
 24 23  1  1
 24 25  1  0
 24 26  1  0
 25 15  1  0
 26 28  1  0
 27 26  2  0
M  END
$$$$
