NNR.pdb
     RDKit          3D

 28 27  0  0  1  0  0  0  0  0999 V2000
    8.1662  -12.4864   15.9804 N   0  0  0  0  0  0  0  0  0  0  0  0
    7.3150  -13.6192   15.9914 C   0  0  0  0  0  0  0  0  0  0  0  0
    6.5195  -13.7479   15.0012 O   0  0  0  0  0  0  0  0  0  0  0  0
    7.3558  -14.5902   17.0938 C   0  0  0  0  0  0  0  0  0  0  0  0
    8.2866  -14.1900   18.2248 C   0  0  2  0  0  0  0  0  0  0  0  0
    9.5811  -13.9333   17.6243 N   0  0  0  0  0  0  0  0  0  0  0  0
    8.3723  -15.3028   19.2210 C   0  0  0  0  0  0  0  0  0  0  0  0
    7.3735  -15.6535   19.8962 O   0  0  0  0  0  0  0  0  0  0  0  0
   11.9147  -20.0655   20.9088 N   0  0  0  0  0  0  0  0  0  0  0  0
   10.7271  -19.3014   20.8421 C   0  0  0  0  0  0  0  0  0  0  0  0
    9.7898  -19.6806   21.5963 O   0  0  0  0  0  0  0  0  0  0  0  0
   10.6256  -18.1303   19.9276 C   0  0  0  0  0  0  0  0  0  0  0  0
    9.6269  -17.0965   20.4138 C   0  0  2  0  0  0  0  0  0  0  0  0
    9.6027  -16.0180   19.4478 N   0  0  0  0  0  0  0  0  0  0  0  0
    9.9503  -16.6195   21.7747 C   0  0  0  0  0  0  0  0  0  0  0  0
   11.0231  -15.9925   21.9382 O   0  0  0  0  0  0  0  0  0  0  0  0
    7.5600  -10.4956   26.5653 N   0  0  0  0  0  0  0  0  0  0  0  0
    6.7081  -11.6538   26.5030 C   0  0  0  0  0  0  0  0  0  0  0  0
    5.6538  -11.7381   27.2354 N   0  0  0  0  0  0  0  0  0  0  0  0
    7.0055  -12.7359   25.6312 N   0  0  0  0  0  0  0  0  0  0  0  0
    7.6186  -13.9655   26.0834 C   0  0  0  0  0  0  0  0  0  0  0  0
    7.7539  -14.8406   24.8193 C   0  0  0  0  0  0  0  0  0  0  0  0
    8.4356  -16.1285   25.1434 C   0  0  0  0  0  0  0  0  0  0  0  0
    9.5942  -16.4519   24.2582 C   0  0  2  0  0  0  0  0  0  0  0  0
    9.1256  -16.8252   22.9092 N   0  0  0  0  0  0  0  0  0  0  0  0
   10.3221  -17.6167   24.7969 C   0  0  0  0  0  0  0  0  0  0  0  0
    9.9942  -18.8186   24.5586 O   0  0  0  0  0  0  0  0  0  0  0  0
   11.4405  -17.3680   25.6186 O   0  0  0  0  0  0  0  0  0  0  0  0
  1  2  1  0
  2  3  2  0
  4  2  1  0
  4  5  1  0
  5  6  1  6
  7  5  1  0
  7  8  2  0
  9 10  1  0
 10 12  1  0
 11 10  2  0
 13 12  1  6
 13 14  1  0
 14  7  1  0
 15 13  1  0
 16 15  2  0
 18 17  1  0
 19 18  2  0
 20 18  1  0
 21 22  1  0
 21 20  1  0
 22 23  1  0
 24 23  1  1
 24 25  1  0
 24 26  1  0
 25 15  1  0
 26 28  1  0
 27 26  2  0
M  END
$$$$
