NNR.pdb
     RDKit          3D

 28 27  0  0  1  0  0  0  0  0999 V2000
    8.1471  -17.9754   14.5596 N   0  0  0  0  0  0  0  0  0  0  0  0
    7.1129  -18.5091   15.3681 C   0  0  0  0  0  0  0  0  0  0  0  0
    6.0364  -18.8481   14.7714 O   0  0  0  0  0  0  0  0  0  0  0  0
    7.2837  -18.6596   16.8200 C   0  0  0  0  0  0  0  0  0  0  0  0
    8.5797  -18.0684   17.3461 C   0  0  2  0  0  0  0  0  0  0  0  0
    9.6498  -18.6532   16.5618 N   0  0  0  0  0  0  0  0  0  0  0  0
    8.7337  -18.4078   18.7949 C   0  0  0  0  0  0  0  0  0  0  0  0
    7.8885  -18.0368   19.6461 O   0  0  0  0  0  0  0  0  0  0  0  0
    9.0207  -22.1769   20.9938 N   0  0  0  0  0  0  0  0  0  0  0  0
   10.3481  -21.8992   20.5942 C   0  0  0  0  0  0  0  0  0  0  0  0
   10.9486  -22.8375   20.0023 O   0  0  0  0  0  0  0  0  0  0  0  0
   10.9650  -20.5725   20.8718 C   0  0  0  0  0  0  0  0  0  0  0  0
    9.9864  -19.4264   20.6941 C   0  0  2  0  0  0  0  0  0  0  0  0
    9.8567  -19.1732   19.2742 N   0  0  0  0  0  0  0  0  0  0  0  0
   10.4109  -18.2227   21.4390 C   0  0  0  0  0  0  0  0  0  0  0  0
   11.5039  -17.6941   21.1280 O   0  0  0  0  0  0  0  0  0  0  0  0
    9.8206  -12.7876   20.0825 N   0  0  0  0  0  0  0  0  0  0  0  0
    8.4490  -12.7367   19.6500 C   0  0  0  0  0  0  0  0  0  0  0  0
    8.1243  -12.1510   18.5516 N   0  0  0  0  0  0  0  0  0  0  0  0
    7.4149  -13.3322   20.4218 N   0  0  0  0  0  0  0  0  0  0  0  0
    7.6040  -13.7684   21.7879 C   0  0  0  0  0  0  0  0  0  0  0  0
    8.7941  -14.7498   21.7397 C   0  0  0  0  0  0  0  0  0  0  0  0
    9.0377  -15.3455   23.0867 C   0  0  0  0  0  0  0  0  0  0  0  0
   10.1198  -16.3743   23.1187 C   0  0  2  0  0  0  0  0  0  0  0  0
    9.6620  -17.6259   22.4842 N   0  0  0  0  0  0  0  0  0  0  0  0
   10.4551  -16.7005   24.5180 C   0  0  0  0  0  0  0  0  0  0  0  0
   11.0888  -15.9158   25.2872 O   0  0  0  0  0  0  0  0  0  0  0  0
   10.0435  -17.9538   25.0156 O   0  0  0  0  0  0  0  0  0  0  0  0
  1  2  1  0
  2  3  2  0
  4  2  1  0
  4  5  1  0
  5  6  1  6
  7  5  1  0
  7  8  2  0
  9 10  1  0
 10 12  1  0
 11 10  2  0
 13 12  1  6
 13 14  1  0
 14  7  1  0
 15 13  1  0
 16 15  2  0
 18 17  1  0
 19 18  2  0
 20 18  1  0
 21 22  1  0
 21 20  1  0
 22 23  1  0
 24 23  1  1
 24 25  1  0
 24 26  1  0
 25 15  1  0
 26 28  1  0
 27 26  2  0
M  END
$$$$
