NNR.pdb
     RDKit          3D

 28 27  0  0  1  0  0  0  0  0999 V2000
    6.4025  -18.8895   15.5879 N   0  0  0  0  0  0  0  0  0  0  0  0
    7.4031  -19.0041   16.5847 C   0  0  0  0  0  0  0  0  0  0  0  0
    7.7627  -20.1872   16.9022 O   0  0  0  0  0  0  0  0  0  0  0  0
    7.9895  -17.8125   17.2141 C   0  0  0  0  0  0  0  0  0  0  0  0
    8.5715  -18.0746   18.5919 C   0  0  2  0  0  0  0  0  0  0  0  0
    7.4742  -18.5241   19.4262 N   0  0  0  0  0  0  0  0  0  0  0  0
    9.1696  -16.8139   19.1314 C   0  0  0  0  0  0  0  0  0  0  0  0
   10.2667  -16.3768   18.7052 O   0  0  0  0  0  0  0  0  0  0  0  0
    6.3095  -12.6619   19.7156 N   0  0  0  0  0  0  0  0  0  0  0  0
    7.5858  -13.2698   19.7290 C   0  0  0  0  0  0  0  0  0  0  0  0
    8.1899  -13.2978   18.6219 O   0  0  0  0  0  0  0  0  0  0  0  0
    8.1488  -13.8307   20.9884 C   0  0  0  0  0  0  0  0  0  0  0  0
    9.1905  -14.9042   20.7335 C   0  0  2  0  0  0  0  0  0  0  0  0
    8.5133  -16.0493   20.1617 N   0  0  0  0  0  0  0  0  0  0  0  0
    9.9321  -15.2516   21.9638 C   0  0  0  0  0  0  0  0  0  0  0  0
    9.2699  -15.5721   22.9784 O   0  0  0  0  0  0  0  0  0  0  0  0
   10.9889  -19.7814   27.5873 N   0  0  0  0  0  0  0  0  0  0  0  0
   12.1591  -20.2601   26.9001 C   0  0  0  0  0  0  0  0  0  0  0  0
   12.9029  -21.1722   27.4194 N   0  0  0  0  0  0  0  0  0  0  0  0
   12.5259  -19.7409   25.6291 N   0  0  0  0  0  0  0  0  0  0  0  0
   11.7692  -18.7113   24.9512 C   0  0  0  0  0  0  0  0  0  0  0  0
   12.4420  -18.5552   23.5710 C   0  0  0  0  0  0  0  0  0  0  0  0
   11.6991  -17.5672   22.7340 C   0  0  0  0  0  0  0  0  0  0  0  0
   12.0315  -16.1405   23.0244 C   0  0  2  0  0  0  0  0  0  0  0  0
   11.3455  -15.2457   22.0718 N   0  0  0  0  0  0  0  0  0  0  0  0
   13.4803  -15.9219   22.8511 C   0  0  0  0  0  0  0  0  0  0  0  0
   14.3192  -16.0051   23.7989 O   0  0  0  0  0  0  0  0  0  0  0  0
   13.9453  -15.6047   21.5584 O   0  0  0  0  0  0  0  0  0  0  0  0
  1  2  1  0
  2  3  2  0
  4  2  1  0
  4  5  1  0
  5  6  1  1
  7  5  1  0
  7  8  2  0
  9 10  1  0
 10 12  1  0
 11 10  2  0
 13 12  1  1
 13 14  1  0
 14  7  1  0
 15 13  1  0
 16 15  2  0
 18 17  1  0
 19 18  2  0
 20 18  1  0
 21 22  1  0
 21 20  1  0
 22 23  1  0
 24 23  1  6
 24 25  1  0
 24 26  1  0
 25 15  1  0
 26 28  1  0
 27 26  2  0
M  END
$$$$
