NNR.pdb
     RDKit          3D

 28 27  0  0  1  0  0  0  0  0999 V2000
   10.1278  -17.5241   12.5068 N   0  0  0  0  0  0  0  0  0  0  0  0
    9.6567  -16.1877   12.5050 C   0  0  0  0  0  0  0  0  0  0  0  0
    9.3633  -15.6851   11.3687 O   0  0  0  0  0  0  0  0  0  0  0  0
    9.5174  -15.4288   13.7559 C   0  0  0  0  0  0  0  0  0  0  0  0
    9.9553  -16.1996   14.9887 C   0  0  2  0  0  0  0  0  0  0  0  0
    8.9801  -17.2544   15.1856 N   0  0  0  0  0  0  0  0  0  0  0  0
    9.9914  -15.2801   16.1682 C   0  0  0  0  0  0  0  0  0  0  0  0
   10.9904  -14.5562   16.4019 O   0  0  0  0  0  0  0  0  0  0  0  0
    8.3777  -11.8722   19.8213 N   0  0  0  0  0  0  0  0  0  0  0  0
    7.5172  -12.9934   19.7889 C   0  0  0  0  0  0  0  0  0  0  0  0
    6.7398  -13.1147   20.7750 O   0  0  0  0  0  0  0  0  0  0  0  0
    7.5545  -13.9491   18.6474 C   0  0  0  0  0  0  0  0  0  0  0  0
    8.9696  -14.2783   18.2093 C   0  0  2  0  0  0  0  0  0  0  0  0
    8.8833  -15.1865   17.0848 N   0  0  0  0  0  0  0  0  0  0  0  0
    9.7705  -14.8377   19.3181 C   0  0  0  0  0  0  0  0  0  0  0  0
    9.9726  -14.1135   20.3209 O   0  0  0  0  0  0  0  0  0  0  0  0
   16.8603  -13.7556   18.5461 N   0  0  0  0  0  0  0  0  0  0  0  0
   15.4736  -14.0906   18.3573 C   0  0  0  0  0  0  0  0  0  0  0  0
   14.7850  -13.5463   17.4168 N   0  0  0  0  0  0  0  0  0  0  0  0
   14.8258  -15.0320   19.2022 N   0  0  0  0  0  0  0  0  0  0  0  0
   14.5627  -16.3972   18.8033 C   0  0  0  0  0  0  0  0  0  0  0  0
   13.0295  -16.5553   18.8831 C   0  0  0  0  0  0  0  0  0  0  0  0
   12.5556  -16.3723   20.2868 C   0  0  0  0  0  0  0  0  0  0  0  0
   11.0974  -16.6281   20.4829 C   0  0  2  0  0  0  0  0  0  0  0  0
   10.3266  -16.1417   19.3219 N   0  0  0  0  0  0  0  0  0  0  0  0
   10.6152  -15.8819   21.6609 C   0  0  0  0  0  0  0  0  0  0  0  0
    9.7547  -14.9522   21.5966 O   0  0  0  0  0  0  0  0  0  0  0  0
   11.1461  -16.2300   22.9198 O   0  0  0  0  0  0  0  0  0  0  0  0
  1  2  1  0
  2  3  2  0
  4  2  1  0
  4  5  1  0
  5  6  1  1
  7  5  1  0
  7  8  2  0
  9 10  1  0
 10 12  1  0
 11 10  2  0
 13 12  1  1
 13 14  1  0
 14  7  1  0
 15 13  1  0
 16 15  2  0
 18 17  1  0
 19 18  2  0
 20 18  1  0
 21 22  1  0
 21 20  1  0
 22 23  1  0
 24 23  1  6
 24 25  1  0
 24 26  1  0
 25 15  1  0
 26 28  1  0
 27 26  2  0
M  END
$$$$
