NNR.pdb
     RDKit          3D

 28 27  0  0  1  0  0  0  0  0999 V2000
    8.8221  -14.6969   13.1997 N   0  0  0  0  0  0  0  0  0  0  0  0
    7.5771  -14.6233   13.8724 C   0  0  0  0  0  0  0  0  0  0  0  0
    6.5296  -14.7616   13.1558 O   0  0  0  0  0  0  0  0  0  0  0  0
    7.5088  -14.3985   15.3231 C   0  0  0  0  0  0  0  0  0  0  0  0
    8.8641  -14.1735   15.9698 C   0  0  2  0  0  0  0  0  0  0  0  0
    9.6309  -15.3854   15.7565 N   0  0  0  0  0  0  0  0  0  0  0  0
    8.6842  -13.9067   17.4308 C   0  0  0  0  0  0  0  0  0  0  0  0
    8.0145  -12.9258   17.8381 O   0  0  0  0  0  0  0  0  0  0  0  0
    7.4952  -13.2495   22.2621 N   0  0  0  0  0  0  0  0  0  0  0  0
    7.1576  -14.3819   21.4858 C   0  0  0  0  0  0  0  0  0  0  0  0
    6.5365  -15.2962   22.0937 O   0  0  0  0  0  0  0  0  0  0  0  0
    7.5284  -14.4555   20.0454 C   0  0  0  0  0  0  0  0  0  0  0  0
    9.0304  -14.4830   19.8312 C   0  0  2  0  0  0  0  0  0  0  0  0
    9.2713  -14.7622   18.4309 N   0  0  0  0  0  0  0  0  0  0  0  0
    9.6926  -15.4629   20.7174 C   0  0  0  0  0  0  0  0  0  0  0  0
    9.4215  -16.6762   20.5586 O   0  0  0  0  0  0  0  0  0  0  0  0
   17.0924  -13.3418   18.7023 N   0  0  0  0  0  0  0  0  0  0  0  0
   16.0671  -14.0220   17.9560 C   0  0  0  0  0  0  0  0  0  0  0  0
   16.0937  -14.0483   16.6701 N   0  0  0  0  0  0  0  0  0  0  0  0
   14.9974  -14.6845   18.6168 N   0  0  0  0  0  0  0  0  0  0  0  0
   14.6980  -14.4914   20.0186 C   0  0  0  0  0  0  0  0  0  0  0  0
   13.5432  -15.4682   20.3255 C   0  0  0  0  0  0  0  0  0  0  0  0
   13.0503  -15.2759   21.7214 C   0  0  0  0  0  0  0  0  0  0  0  0
   11.7737  -15.9879   22.0275 C   0  0  2  0  0  0  0  0  0  0  0  0
   10.6155  -15.1201   21.7374 N   0  0  0  0  0  0  0  0  0  0  0  0
   11.7171  -16.3121   23.4657 C   0  0  0  0  0  0  0  0  0  0  0  0
   10.9085  -15.7648   24.2754 O   0  0  0  0  0  0  0  0  0  0  0  0
   12.6142  -17.2838   23.9544 O   0  0  0  0  0  0  0  0  0  0  0  0
  1  2  1  0
  2  3  2  0
  4  2  1  0
  4  5  1  0
  5  6  1  1
  7  5  1  0
  7  8  2  0
  9 10  1  0
 10 12  1  0
 11 10  2  0
 13 12  1  6
 13 14  1  0
 14  7  1  0
 15 13  1  0
 16 15  2  0
 18 17  1  0
 19 18  2  0
 20 18  1  0
 21 22  1  0
 21 20  1  0
 22 23  1  0
 24 23  1  1
 24 25  1  0
 24 26  1  0
 25 15  1  0
 26 28  1  0
 27 26  2  0
M  END
$$$$
