NNR.pdb
     RDKit          3D

 28 27  0  0  1  0  0  0  0  0999 V2000
   12.0914  -27.0109   15.8179 N   0  0  0  0  0  0  0  0  0  0  0  0
   11.5067  -27.8044   16.8360 C   0  0  0  0  0  0  0  0  0  0  0  0
   11.9474  -28.9964   16.9575 O   0  0  0  0  0  0  0  0  0  0  0  0
   10.4465  -27.2699   17.7021 C   0  0  0  0  0  0  0  0  0  0  0  0
   10.0897  -25.8236   17.4075 C   0  0  2  0  0  0  0  0  0  0  0  0
   11.3385  -25.1334   17.1496 N   0  0  0  0  0  0  0  0  0  0  0  0
    9.3866  -25.2305   18.5872 C   0  0  0  0  0  0  0  0  0  0  0  0
    8.6697  -24.2059   18.4732 O   0  0  0  0  0  0  0  0  0  0  0  0
    5.9954  -25.4796   22.9017 N   0  0  0  0  0  0  0  0  0  0  0  0
    7.3769  -25.7697   22.9796 C   0  0  0  0  0  0  0  0  0  0  0  0
    7.9177  -25.5591   24.0997 O   0  0  0  0  0  0  0  0  0  0  0  0
    8.1138  -26.2892   21.7943 C   0  0  0  0  0  0  0  0  0  0  0  0
    8.8067  -25.1895   21.0112 C   0  0  2  0  0  0  0  0  0  0  0  0
    9.5022  -25.8085   19.9022 N   0  0  0  0  0  0  0  0  0  0  0  0
    9.7145  -24.3964   21.8663 C   0  0  0  0  0  0  0  0  0  0  0  0
    9.2270  -23.8248   22.8695 O   0  0  0  0  0  0  0  0  0  0  0  0
   11.2122  -19.1717   17.5901 N   0  0  0  0  0  0  0  0  0  0  0  0
   10.8134  -20.0951   18.6193 C   0  0  0  0  0  0  0  0  0  0  0  0
    9.8868  -20.9616   18.4060 N   0  0  0  0  0  0  0  0  0  0  0  0
   11.4316  -20.0776   19.8988 N   0  0  0  0  0  0  0  0  0  0  0  0
   12.7987  -20.4960   20.1184 C   0  0  0  0  0  0  0  0  0  0  0  0
   12.7027  -21.9565   20.6077 C   0  0  0  0  0  0  0  0  0  0  0  0
   12.0580  -22.0179   21.9527 C   0  0  0  0  0  0  0  0  0  0  0  0
   11.9296  -23.3968   22.5119 C   0  0  2  0  0  0  0  0  0  0  0  0
   11.1026  -24.2390   21.6256 N   0  0  0  0  0  0  0  0  0  0  0  0
   11.2422  -23.3428   23.8163 C   0  0  0  0  0  0  0  0  0  0  0  0
   10.0639  -22.8986   23.9688 O   0  0  0  0  0  0  0  0  0  0  0  0
   11.9423  -23.8132   24.9460 O   0  0  0  0  0  0  0  0  0  0  0  0
  1  2  1  0
  2  3  2  0
  4  2  1  0
  4  5  1  0
  5  6  1  1
  7  5  1  0
  7  8  2  0
  9 10  1  0
 10 12  1  0
 11 10  2  0
 13 12  1  1
 13 14  1  0
 14  7  1  0
 15 13  1  0
 16 15  2  0
 18 17  1  0
 19 18  2  0
 20 18  1  0
 21 22  1  0
 21 20  1  0
 22 23  1  0
 24 23  1  6
 24 25  1  0
 24 26  1  0
 25 15  1  0
 26 28  1  0
 27 26  2  0
M  END
$$$$
