NNR.pdb
     RDKit          3D

 28 27  0  0  1  0  0  0  0  0999 V2000
   11.3542  -18.9661   13.4983 N   0  0  0  0  0  0  0  0  0  0  0  0
   10.2361  -18.8151   14.3557 C   0  0  0  0  0  0  0  0  0  0  0  0
    9.4123  -19.7894   14.4001 O   0  0  0  0  0  0  0  0  0  0  0  0
   10.0459  -17.5927   15.1491 C   0  0  0  0  0  0  0  0  0  0  0  0
   10.4004  -17.7568   16.6165 C   0  0  2  0  0  0  0  0  0  0  0  0
    9.4096  -18.6502   17.1843 N   0  0  0  0  0  0  0  0  0  0  0  0
   10.3651  -16.4228   17.2928 C   0  0  0  0  0  0  0  0  0  0  0  0
   11.3261  -15.6197   17.2038 O   0  0  0  0  0  0  0  0  0  0  0  0
    8.1304  -11.7843   19.0179 N   0  0  0  0  0  0  0  0  0  0  0  0
    7.7805  -12.9676   19.7078 C   0  0  0  0  0  0  0  0  0  0  0  0
    7.4136  -12.8145   20.9050 O   0  0  0  0  0  0  0  0  0  0  0  0
    7.8532  -14.2927   19.0319 C   0  0  0  0  0  0  0  0  0  0  0  0
    9.2809  -14.7393   18.7774 C   0  0  2  0  0  0  0  0  0  0  0  0
    9.2289  -16.0040   18.0741 N   0  0  0  0  0  0  0  0  0  0  0  0
   10.0587  -14.8295   20.0308 C   0  0  0  0  0  0  0  0  0  0  0  0
   10.7574  -13.8429   20.3612 O   0  0  0  0  0  0  0  0  0  0  0  0
    7.3431  -13.3058   27.2443 N   0  0  0  0  0  0  0  0  0  0  0  0
    7.1131  -12.8259   25.9073 C   0  0  0  0  0  0  0  0  0  0  0  0
    6.5464  -11.6894   25.7021 N   0  0  0  0  0  0  0  0  0  0  0  0
    7.5059  -13.5916   24.7763 N   0  0  0  0  0  0  0  0  0  0  0  0
    8.5238  -14.6176   24.8354 C   0  0  0  0  0  0  0  0  0  0  0  0
    8.6643  -15.1339   23.3878 C   0  0  0  0  0  0  0  0  0  0  0  0
    9.7525  -16.1518   23.2972 C   0  0  0  0  0  0  0  0  0  0  0  0
   10.7355  -15.9065   22.1999 C   0  0  2  0  0  0  0  0  0  0  0  0
   10.0667  -15.9607   20.8852 N   0  0  0  0  0  0  0  0  0  0  0  0
   11.7606  -16.9677   22.2037 C   0  0  0  0  0  0  0  0  0  0  0  0
   11.8510  -17.8568   21.3036 O   0  0  0  0  0  0  0  0  0  0  0  0
   12.6836  -16.9836   23.2693 O   0  0  0  0  0  0  0  0  0  0  0  0
  1  2  1  0
  2  3  2  0
  4  2  1  0
  4  5  1  0
  5  6  1  1
  7  5  1  0
  7  8  2  0
  9 10  1  0
 10 12  1  0
 11 10  2  0
 13 12  1  1
 13 14  1  0
 14  7  1  0
 15 13  1  0
 16 15  2  0
 18 17  1  0
 19 18  2  0
 20 18  1  0
 21 22  1  0
 21 20  1  0
 22 23  1  0
 24 23  1  1
 24 25  1  0
 24 26  1  0
 25 15  1  0
 26 28  1  0
 27 26  2  0
M  END
$$$$
