NNR.pdb
     RDKit          3D

 28 27  0  0  1  0  0  0  0  0999 V2000
    8.3426  -15.2972   12.6094 N   0  0  0  0  0  0  0  0  0  0  0  0
    7.6088  -14.5534   13.5667 C   0  0  0  0  0  0  0  0  0  0  0  0
    6.7438  -13.7314   13.1131 O   0  0  0  0  0  0  0  0  0  0  0  0
    7.8416  -14.7289   15.0071 C   0  0  0  0  0  0  0  0  0  0  0  0
    8.9639  -15.6997   15.3296 C   0  0  2  0  0  0  0  0  0  0  0  0
    8.5510  -16.9933   14.8214 N   0  0  0  0  0  0  0  0  0  0  0  0
    9.1726  -15.7505   16.8101 C   0  0  0  0  0  0  0  0  0  0  0  0
    9.5943  -14.7527   17.4450 O   0  0  0  0  0  0  0  0  0  0  0  0
    9.8442  -17.4894   21.6651 N   0  0  0  0  0  0  0  0  0  0  0  0
    9.1531  -18.5012   20.9598 C   0  0  0  0  0  0  0  0  0  0  0  0
    8.8175  -19.5097   21.6392 O   0  0  0  0  0  0  0  0  0  0  0  0
    8.8580  -18.3513   19.5078 C   0  0  0  0  0  0  0  0  0  0  0  0
    9.2982  -17.0064   18.9597 C   0  0  2  0  0  0  0  0  0  0  0  0
    8.8995  -16.9448   17.5690 N   0  0  0  0  0  0  0  0  0  0  0  0
   10.7501  -16.7922   19.1339 C   0  0  0  0  0  0  0  0  0  0  0  0
   11.5312  -17.4177   18.3794 O   0  0  0  0  0  0  0  0  0  0  0  0
   16.4887  -12.0191   16.9904 N   0  0  0  0  0  0  0  0  0  0  0  0
   17.2150  -13.0061   17.7449 C   0  0  0  0  0  0  0  0  0  0  0  0
   18.4985  -13.0705   17.6846 N   0  0  0  0  0  0  0  0  0  0  0  0
   16.5368  -13.9362   18.5783 N   0  0  0  0  0  0  0  0  0  0  0  0
   15.1328  -14.2497   18.4282 C   0  0  0  0  0  0  0  0  0  0  0  0
   14.4822  -13.8514   19.7698 C   0  0  0  0  0  0  0  0  0  0  0  0
   13.0359  -14.2212   19.7818 C   0  0  0  0  0  0  0  0  0  0  0  0
   12.7692  -15.6539   20.1086 C   0  0  2  0  0  0  0  0  0  0  0  0
   11.3182  -15.9245   20.1003 N   0  0  0  0  0  0  0  0  0  0  0  0
   13.2533  -15.9521   21.4701 C   0  0  0  0  0  0  0  0  0  0  0  0
   12.4902  -16.0507   22.4785 O   0  0  0  0  0  0  0  0  0  0  0  0
   14.6399  -16.1359   21.6471 O   0  0  0  0  0  0  0  0  0  0  0  0
  1  2  1  0
  2  3  2  0
  4  2  1  0
  4  5  1  0
  5  6  1  1
  7  5  1  0
  7  8  2  0
  9 10  1  0
 10 12  1  0
 11 10  2  0
 13 12  1  6
 13 14  1  0
 14  7  1  0
 15 13  1  0
 16 15  2  0
 18 17  1  0
 19 18  2  0
 20 18  1  0
 21 22  1  0
 21 20  1  0
 22 23  1  0
 24 23  1  1
 24 25  1  0
 24 26  1  0
 25 15  1  0
 26 28  1  0
 27 26  2  0
M  END
$$$$
