NNR.pdb
     RDKit          3D

 28 27  0  0  1  0  0  0  0  0999 V2000
    7.7356  -13.8222   15.5909 N   0  0  0  0  0  0  0  0  0  0  0  0
    8.7644  -14.6038   16.1728 C   0  0  0  0  0  0  0  0  0  0  0  0
    9.4070  -15.3801   15.3890 O   0  0  0  0  0  0  0  0  0  0  0  0
    9.0667  -14.5159   17.6083 C   0  0  0  0  0  0  0  0  0  0  0  0
    8.0523  -13.7063   18.3966 C   0  0  2  0  0  0  0  0  0  0  0  0
    8.0987  -12.3570   17.8679 N   0  0  0  0  0  0  0  0  0  0  0  0
    8.4161  -13.7232   19.8476 C   0  0  0  0  0  0  0  0  0  0  0  0
    8.4875  -12.6624   20.5155 O   0  0  0  0  0  0  0  0  0  0  0  0
    8.1864  -15.1988   24.7308 N   0  0  0  0  0  0  0  0  0  0  0  0
    7.1481  -14.6835   23.9213 C   0  0  0  0  0  0  0  0  0  0  0  0
    6.0678  -14.4225   24.5180 O   0  0  0  0  0  0  0  0  0  0  0  0
    7.3532  -14.4756   22.4610 C   0  0  0  0  0  0  0  0  0  0  0  0
    8.7076  -14.9690   21.9869 C   0  0  2  0  0  0  0  0  0  0  0  0
    8.7001  -14.9553   20.5390 N   0  0  0  0  0  0  0  0  0  0  0  0
    9.0249  -16.3061   22.5306 C   0  0  0  0  0  0  0  0  0  0  0  0
    8.2419  -17.2486   22.2672 O   0  0  0  0  0  0  0  0  0  0  0  0
   15.7674  -14.5281   19.7039 N   0  0  0  0  0  0  0  0  0  0  0  0
   14.8918  -14.7903   18.5924 C   0  0  0  0  0  0  0  0  0  0  0  0
   15.3656  -15.1037   17.4382 N   0  0  0  0  0  0  0  0  0  0  0  0
   13.4802  -14.7122   18.7376 N   0  0  0  0  0  0  0  0  0  0  0  0
   12.8354  -14.3581   19.9830 C   0  0  0  0  0  0  0  0  0  0  0  0
   12.5641  -15.6999   20.6956 C   0  0  0  0  0  0  0  0  0  0  0  0
   11.8628  -15.4720   21.9936 C   0  0  0  0  0  0  0  0  0  0  0  0
   11.4972  -16.7224   22.7240 C   0  0  2  0  0  0  0  0  0  0  0  0
   10.1584  -16.5931   23.3320 N   0  0  0  0  0  0  0  0  0  0  0  0
   12.4493  -16.9505   23.8277 C   0  0  0  0  0  0  0  0  0  0  0  0
   12.2267  -16.6035   25.0273 O   0  0  0  0  0  0  0  0  0  0  0  0
   13.6679  -17.5895   23.5206 O   0  0  0  0  0  0  0  0  0  0  0  0
  1  2  1  0
  2  3  2  0
  4  2  1  0
  4  5  1  0
  5  6  1  6
  7  5  1  0
  7  8  2  0
  9 10  1  0
 10 12  1  0
 11 10  2  0
 13 12  1  1
 13 14  1  0
 14  7  1  0
 15 13  1  0
 16 15  2  0
 18 17  1  0
 19 18  2  0
 20 18  1  0
 21 22  1  0
 21 20  1  0
 22 23  1  0
 24 23  1  1
 24 25  1  0
 24 26  1  0
 25 15  1  0
 26 28  1  0
 27 26  2  0
M  END
$$$$
