NNR.pdb
     RDKit          3D

 28 27  0  0  1  0  0  0  0  0999 V2000
   10.5899  -18.3511   15.4434 N   0  0  0  0  0  0  0  0  0  0  0  0
    9.4807  -17.4881   15.6248 C   0  0  0  0  0  0  0  0  0  0  0  0
    9.0305  -16.9065   14.5813 O   0  0  0  0  0  0  0  0  0  0  0  0
    8.8873  -17.2815   16.9534 C   0  0  0  0  0  0  0  0  0  0  0  0
    9.6189  -18.0087   18.0678 C   0  0  2  0  0  0  0  0  0  0  0  0
    9.3354  -19.4203   17.8969 N   0  0  0  0  0  0  0  0  0  0  0  0
    9.1240  -17.5222   19.3931 C   0  0  0  0  0  0  0  0  0  0  0  0
    9.2789  -16.3285   19.7501 O   0  0  0  0  0  0  0  0  0  0  0  0
    5.2370  -17.5514   23.6530 N   0  0  0  0  0  0  0  0  0  0  0  0
    6.4019  -18.3240   23.4414 C   0  0  0  0  0  0  0  0  0  0  0  0
    7.0233  -18.6729   24.4823 O   0  0  0  0  0  0  0  0  0  0  0  0
    6.8371  -18.6834   22.0633 C   0  0  0  0  0  0  0  0  0  0  0  0
    8.0548  -17.8975   21.6134 C   0  0  2  0  0  0  0  0  0  0  0  0
    8.4501  -18.4015   20.3147 N   0  0  0  0  0  0  0  0  0  0  0  0
    9.1525  -17.9751   22.5998 C   0  0  0  0  0  0  0  0  0  0  0  0
    9.2141  -18.9905   23.3318 O   0  0  0  0  0  0  0  0  0  0  0  0
    4.8111  -12.2160   26.2500 N   0  0  0  0  0  0  0  0  0  0  0  0
    6.1917  -11.9737   26.5757 C   0  0  0  0  0  0  0  0  0  0  0  0
    6.5604  -10.8582   27.0998 N   0  0  0  0  0  0  0  0  0  0  0  0
    7.1862  -12.9584   26.3294 N   0  0  0  0  0  0  0  0  0  0  0  0
    7.3000  -13.6650   25.0724 C   0  0  0  0  0  0  0  0  0  0  0  0
    8.5117  -14.6054   25.2435 C   0  0  0  0  0  0  0  0  0  0  0  0
    8.7394  -15.3993   24.0000 C   0  0  0  0  0  0  0  0  0  0  0  0
   10.0823  -16.0478   23.9204 C   0  0  2  0  0  0  0  0  0  0  0  0
   10.1417  -16.9746   22.7731 N   0  0  0  0  0  0  0  0  0  0  0  0
   10.3191  -16.8525   25.1343 C   0  0  0  0  0  0  0  0  0  0  0  0
   10.1329  -16.4162   26.3107 O   0  0  0  0  0  0  0  0  0  0  0  0
   10.7760  -18.1754   24.9649 O   0  0  0  0  0  0  0  0  0  0  0  0
  1  2  1  0
  2  3  2  0
  4  2  1  0
  4  5  1  0
  5  6  1  6
  7  5  1  0
  7  8  2  0
  9 10  1  0
 10 12  1  0
 11 10  2  0
 13 12  1  1
 13 14  1  0
 14  7  1  0
 15 13  1  0
 16 15  2  0
 18 17  1  0
 19 18  2  0
 20 18  1  0
 21 22  1  0
 21 20  1  0
 22 23  1  0
 24 23  1  1
 24 25  1  0
 24 26  1  0
 25 15  1  0
 26 28  1  0
 27 26  2  0
M  END
$$$$
