ESE.pdb
     RDKit          3D

 25 24  0  0  1  0  0  0  0  0999 V2000
   25.4142  -21.7091  -11.6618 N   0  0  0  0  0  0  0  0  0  0  0  0
   25.2205  -21.7617  -13.1375 C   0  0  1  0  0  0  0  0  0  0  0  0
   24.3123  -22.9325  -13.3417 C   0  0  0  0  0  0  0  0  0  0  0  0
   24.8683  -24.2116  -13.7969 C   0  0  0  0  0  0  0  0  0  0  0  0
   25.5963  -24.2568  -15.0599 C   0  0  0  0  0  0  0  0  0  0  0  0
   26.1654  -25.3327  -15.4462 O   0  0  0  0  0  0  0  0  0  0  0  0
   24.6035  -20.4985  -13.5766 C   0  0  0  0  0  0  0  0  0  0  0  0
   23.7960  -19.9046  -12.8343 O   0  0  0  0  0  0  0  0  0  0  0  0
   25.6832  -23.1247  -15.8720 O   0  0  0  0  0  0  0  0  0  0  0  0
   25.4907  -18.9097  -17.3075 O   0  0  0  0  0  0  0  0  0  0  0  0
   25.2217  -18.0134  -16.2711 C   0  0  0  0  0  0  0  0  0  0  0  0
   24.2840  -18.6414  -15.2710 C   0  0  2  0  0  0  0  0  0  0  0  0
   24.8697  -19.8836  -14.8306 N   0  0  0  0  0  0  0  0  0  0  0  0
   22.9038  -18.8102  -15.7741 C   0  0  0  0  0  0  0  0  0  0  0  0
   22.6317  -19.9330  -16.2903 O   0  0  0  0  0  0  0  0  0  0  0  0
   21.9031  -17.8191  -15.7134 N   0  0  0  0  0  0  0  0  0  0  0  0
   20.5827  -17.9719  -16.3776 C   0  0  1  0  0  0  0  0  0  0  0  0
   19.6040  -18.1800  -15.2789 C   0  0  0  0  0  0  0  0  0  0  0  0
   19.4208  -19.6037  -14.8732 C   0  0  0  0  0  0  0  0  0  0  0  0
   18.4366  -19.8163  -13.7994 C   0  0  0  0  0  0  0  0  0  0  0  0
   17.8418  -18.8240  -13.3104 O   0  0  0  0  0  0  0  0  0  0  0  0
   20.3529  -17.0064  -17.4114 C   0  0  0  0  0  0  0  0  0  0  0  0
   20.8866  -15.8500  -17.3333 O   0  0  0  0  0  0  0  0  0  0  0  0
   18.1504  -21.0720  -13.3187 O   0  0  0  0  0  0  0  0  0  0  0  0
   19.5586  -17.2799  -18.5369 O   0  0  0  0  0  0  0  0  0  0  0  0
  2  1  1  1
  3  2  1  0
  4  3  1  0
  5  9  1  0
  5  4  1  0
  6  5  2  0
  7  2  1  0
  7  8  2  0
 10 11  1  0
 12 11  1  6
 12 13  1  0
 12 14  1  0
 13  7  1  0
 14 16  1  0
 15 14  2  0
 16 17  1  0
 17 22  1  0
 18 19  1  0
 17 18  1  1
 19 20  1  0
 20 21  2  0
 20 24  1  0
 22 23  2  0
 22 25  1  0
M  END
$$$$
