ESE.pdb
     RDKit          3D

 25 24  0  0  1  0  0  0  0  0999 V2000
   19.9542  -12.5944  -16.4034 N   0  0  0  0  0  0  0  0  0  0  0  0
   19.5851  -11.2393  -16.8988 C   0  0  1  0  0  0  0  0  0  0  0  0
   18.1724  -11.3967  -17.3645 C   0  0  0  0  0  0  0  0  0  0  0  0
   17.8915  -12.1610  -18.5850 C   0  0  0  0  0  0  0  0  0  0  0  0
   16.5077  -12.3193  -19.0176 C   0  0  0  0  0  0  0  0  0  0  0  0
   16.2257  -12.9867  -20.0690 O   0  0  0  0  0  0  0  0  0  0  0  0
   19.6978  -10.2837  -15.7838 C   0  0  0  0  0  0  0  0  0  0  0  0
   19.5238  -10.6676  -14.6098 O   0  0  0  0  0  0  0  0  0  0  0  0
   15.4645  -11.7453  -18.2891 O   0  0  0  0  0  0  0  0  0  0  0  0
   21.8108   -7.7589  -13.0357 O   0  0  0  0  0  0  0  0  0  0  0  0
   21.3653   -8.6535  -14.0109 C   0  0  0  0  0  0  0  0  0  0  0  0
   20.3158   -8.0004  -14.8747 C   0  0  2  0  0  0  0  0  0  0  0  0
   20.0008   -8.9049  -15.9529 N   0  0  0  0  0  0  0  0  0  0  0  0
   20.6938   -6.6536  -15.3541 C   0  0  0  0  0  0  0  0  0  0  0  0
   21.5460   -6.6131  -16.2886 O   0  0  0  0  0  0  0  0  0  0  0  0
   20.1737   -5.4471  -14.8431 N   0  0  0  0  0  0  0  0  0  0  0  0
   20.5564   -4.1169  -15.3836 C   0  0  1  0  0  0  0  0  0  0  0  0
   19.3961   -3.2277  -15.1165 C   0  0  0  0  0  0  0  0  0  0  0  0
   18.1070   -3.6980  -15.7011 C   0  0  0  0  0  0  0  0  0  0  0  0
   16.9739   -2.7771  -15.5147 C   0  0  0  0  0  0  0  0  0  0  0  0
   16.6646   -1.9926  -16.4455 O   0  0  0  0  0  0  0  0  0  0  0  0
   21.8920   -3.7280  -15.0394 C   0  0  0  0  0  0  0  0  0  0  0  0
   22.4792   -4.2747  -14.0472 O   0  0  0  0  0  0  0  0  0  0  0  0
   16.2447   -2.7538  -14.3496 O   0  0  0  0  0  0  0  0  0  0  0  0
   22.6064   -2.7590  -15.7629 O   0  0  0  0  0  0  0  0  0  0  0  0
  2  1  1  1
  3  2  1  0
  4  3  1  0
  5  9  1  0
  5  4  1  0
  6  5  2  0
  7  2  1  0
  7  8  2  0
 10 11  1  0
 12 11  1  6
 12 13  1  0
 12 14  1  0
 13  7  1  0
 14 16  1  0
 15 14  2  0
 16 17  1  0
 17 22  1  0
 18 19  1  0
 17 18  1  1
 19 20  1  0
 20 21  2  0
 20 24  1  0
 22 23  2  0
 22 25  1  0
M  END
$$$$
