ESE.pdb
     RDKit          3D

 25 24  0  0  1  0  0  0  0  0999 V2000
   16.8779  -12.4520  -15.4785 N   0  0  0  0  0  0  0  0  0  0  0  0
   17.2638  -11.1772  -16.1447 C   0  0  1  0  0  0  0  0  0  0  0  0
   16.0055  -10.3686  -16.1353 C   0  0  0  0  0  0  0  0  0  0  0  0
   16.0260   -8.9886  -16.6328 C   0  0  0  0  0  0  0  0  0  0  0  0
   15.9519   -8.7539  -18.0704 C   0  0  0  0  0  0  0  0  0  0  0  0
   14.9130   -8.2254  -18.5919 O   0  0  0  0  0  0  0  0  0  0  0  0
   18.3365  -10.5422  -15.3603 C   0  0  0  0  0  0  0  0  0  0  0  0
   18.1965  -10.3690  -14.1330 O   0  0  0  0  0  0  0  0  0  0  0  0
   17.0166   -9.1011  -18.9037 O   0  0  0  0  0  0  0  0  0  0  0  0
   22.2513   -9.8993  -16.8468 O   0  0  0  0  0  0  0  0  0  0  0  0
   21.9163  -10.1442  -15.5135 C   0  0  0  0  0  0  0  0  0  0  0  0
   20.6187   -9.4575  -15.1690 C   0  0  2  0  0  0  0  0  0  0  0  0
   19.5648  -10.0948  -15.9194 N   0  0  0  0  0  0  0  0  0  0  0  0
   20.6508   -7.9922  -15.3654 C   0  0  0  0  0  0  0  0  0  0  0  0
   19.9990   -7.5477  -16.3547 O   0  0  0  0  0  0  0  0  0  0  0  0
   21.3469   -7.0888  -14.5368 N   0  0  0  0  0  0  0  0  0  0  0  0
   21.4168   -5.6319  -14.8208 C   0  0  1  0  0  0  0  0  0  0  0  0
   20.0098   -5.1939  -15.0127 C   0  0  0  0  0  0  0  0  0  0  0  0
   19.8243   -3.7153  -15.0787 C   0  0  0  0  0  0  0  0  0  0  0  0
   18.4210   -3.2711  -15.0998 C   0  0  0  0  0  0  0  0  0  0  0  0
   17.5206   -4.0739  -14.7503 O   0  0  0  0  0  0  0  0  0  0  0  0
   22.3077   -4.9262  -13.9480 C   0  0  0  0  0  0  0  0  0  0  0  0
   22.6421   -3.7241  -14.2150 O   0  0  0  0  0  0  0  0  0  0  0  0
   18.0703   -2.0007  -15.4907 O   0  0  0  0  0  0  0  0  0  0  0  0
   22.8356   -5.5028  -12.7811 O   0  0  0  0  0  0  0  0  0  0  0  0
  2  1  1  1
  3  2  1  0
  4  3  1  0
  5  9  1  0
  5  4  1  0
  6  5  2  0
  7  2  1  0
  7  8  2  0
 10 11  1  0
 12 11  1  6
 12 13  1  0
 12 14  1  0
 13  7  1  0
 14 16  1  0
 15 14  2  0
 16 17  1  0
 17 22  1  0
 18 19  1  0
 17 18  1  1
 19 20  1  0
 20 21  2  0
 20 24  1  0
 22 23  2  0
 22 25  1  0
M  END
$$$$
