ESE.pdb
     RDKit          3D

 25 24  0  0  1  0  0  0  0  0999 V2000
   13.4198  -10.5095  -11.2446 N   0  0  0  0  0  0  0  0  0  0  0  0
   14.8056  -10.1611  -10.8250 C   0  0  1  0  0  0  0  0  0  0  0  0
   15.6738  -10.9459  -11.7565 C   0  0  0  0  0  0  0  0  0  0  0  0
   15.6899  -12.4106  -11.6726 C   0  0  0  0  0  0  0  0  0  0  0  0
   16.2820  -13.0454  -10.5006 C   0  0  0  0  0  0  0  0  0  0  0  0
   16.9282  -12.3555   -9.6421 O   0  0  0  0  0  0  0  0  0  0  0  0
   14.9942   -8.7089  -10.9829 C   0  0  0  0  0  0  0  0  0  0  0  0
   14.5514   -8.1260  -11.9928 O   0  0  0  0  0  0  0  0  0  0  0  0
   16.1519  -14.4198  -10.2940 O   0  0  0  0  0  0  0  0  0  0  0  0
   16.1682   -6.2907   -7.8384 O   0  0  0  0  0  0  0  0  0  0  0  0
   15.4713   -5.7826   -8.9366 C   0  0  0  0  0  0  0  0  0  0  0  0
   15.9109   -6.4802  -10.1992 C   0  0  2  0  0  0  0  0  0  0  0  0
   15.6692   -7.8925  -10.0346 N   0  0  0  0  0  0  0  0  0  0  0  0
   17.3064   -6.1835  -10.5878 C   0  0  0  0  0  0  0  0  0  0  0  0
   18.1928   -6.9523  -10.1141 O   0  0  0  0  0  0  0  0  0  0  0  0
   17.6938   -5.1226  -11.4315 N   0  0  0  0  0  0  0  0  0  0  0  0
   19.0821   -4.9679  -11.9382 C   0  0  1  0  0  0  0  0  0  0  0  0
   19.4743   -6.3083  -12.4460 C   0  0  0  0  0  0  0  0  0  0  0  0
   20.8172   -6.3575  -13.0933 C   0  0  0  0  0  0  0  0  0  0  0  0
   21.2144   -7.6861  -13.5873 C   0  0  0  0  0  0  0  0  0  0  0  0
   20.4500   -8.6637  -13.3935 O   0  0  0  0  0  0  0  0  0  0  0  0
   19.2699   -3.7852  -12.7253 C   0  0  0  0  0  0  0  0  0  0  0  0
   18.2919   -3.2952  -13.3823 O   0  0  0  0  0  0  0  0  0  0  0  0
   22.3989   -7.8848  -14.2560 O   0  0  0  0  0  0  0  0  0  0  0  0
   20.5034   -3.1182  -12.8034 O   0  0  0  0  0  0  0  0  0  0  0  0
  2  1  1  6
  3  2  1  0
  4  3  1  0
  5  9  1  0
  5  4  1  0
  6  5  2  0
  7  2  1  0
  7  8  2  0
 10 11  1  0
 12 11  1  1
 12 13  1  0
 12 14  1  0
 13  7  1  0
 14 16  1  0
 15 14  2  0
 16 17  1  0
 17 22  1  0
 18 19  1  0
 17 18  1  6
 19 20  1  0
 20 21  2  0
 20 24  1  0
 22 23  2  0
 22 25  1  0
M  END
$$$$
