ESE.pdb
     RDKit          3D

 25 24  0  0  1  0  0  0  0  0999 V2000
   13.3224   -9.4358   -9.4585 N   0  0  0  0  0  0  0  0  0  0  0  0
   14.7603   -9.1168   -9.6784 C   0  0  1  0  0  0  0  0  0  0  0  0
   15.1484   -9.9768  -10.8390 C   0  0  0  0  0  0  0  0  0  0  0  0
   15.2786  -11.4267  -10.6561 C   0  0  0  0  0  0  0  0  0  0  0  0
   15.6071  -12.2582  -11.8085 C   0  0  0  0  0  0  0  0  0  0  0  0
   16.8237  -12.4858  -12.1225 O   0  0  0  0  0  0  0  0  0  0  0  0
   14.8822   -7.6818   -9.9869 C   0  0  0  0  0  0  0  0  0  0  0  0
   13.9486   -7.0821  -10.5566 O   0  0  0  0  0  0  0  0  0  0  0  0
   14.5972  -12.8228  -12.5895 O   0  0  0  0  0  0  0  0  0  0  0  0
   16.4627   -4.7642   -8.0067 O   0  0  0  0  0  0  0  0  0  0  0  0
   15.8474   -4.5599   -9.2434 C   0  0  0  0  0  0  0  0  0  0  0  0
   16.3085   -5.6015  -10.2317 C   0  0  2  0  0  0  0  0  0  0  0  0
   16.0280   -6.9009   -9.6724 N   0  0  0  0  0  0  0  0  0  0  0  0
   17.7220   -5.4506  -10.6389 C   0  0  0  0  0  0  0  0  0  0  0  0
   18.5514   -6.2178  -10.0693 O   0  0  0  0  0  0  0  0  0  0  0  0
   18.1842   -4.5264  -11.5979 N   0  0  0  0  0  0  0  0  0  0  0  0
   19.5420   -4.6043  -12.1963 C   0  0  1  0  0  0  0  0  0  0  0  0
   19.7117   -6.0185  -12.6202 C   0  0  0  0  0  0  0  0  0  0  0  0
   21.0088   -6.3119  -13.2959 C   0  0  0  0  0  0  0  0  0  0  0  0
   21.2067   -7.7237  -13.6624 C   0  0  0  0  0  0  0  0  0  0  0  0
   21.7759   -8.4923  -12.8483 O   0  0  0  0  0  0  0  0  0  0  0  0
   19.8340   -3.5172  -13.0831 C   0  0  0  0  0  0  0  0  0  0  0  0
   18.8986   -2.9858  -13.7693 O   0  0  0  0  0  0  0  0  0  0  0  0
   20.7840   -8.2233  -14.8713 O   0  0  0  0  0  0  0  0  0  0  0  0
   21.1273   -2.9896  -13.2306 O   0  0  0  0  0  0  0  0  0  0  0  0
  2  1  1  6
  3  2  1  0
  4  3  1  0
  5  9  1  0
  5  4  1  0
  6  5  2  0
  7  2  1  0
  7  8  2  0
 10 11  1  0
 12 11  1  1
 12 13  1  0
 12 14  1  0
 13  7  1  0
 14 16  1  0
 15 14  2  0
 16 17  1  0
 17 22  1  0
 18 19  1  0
 17 18  1  6
 19 20  1  0
 20 21  2  0
 20 24  1  0
 22 23  2  0
 22 25  1  0
M  END
$$$$
