ESE.pdb
     RDKit          3D

 25 24  0  0  1  0  0  0  0  0999 V2000
   14.3993   -9.6232  -12.7065 N   0  0  0  0  0  0  0  0  0  0  0  0
   15.5125   -9.5309  -11.7215 C   0  0  1  0  0  0  0  0  0  0  0  0
   16.5227  -10.5128  -12.2240 C   0  0  0  0  0  0  0  0  0  0  0  0
   16.2556  -11.9510  -12.1107 C   0  0  0  0  0  0  0  0  0  0  0  0
   16.0756  -12.5347  -10.7863 C   0  0  0  0  0  0  0  0  0  0  0  0
   16.4184  -11.8910   -9.7381 O   0  0  0  0  0  0  0  0  0  0  0  0
   16.0306   -8.1522  -11.7246 C   0  0  0  0  0  0  0  0  0  0  0  0
   16.3196   -7.5941  -12.8020 O   0  0  0  0  0  0  0  0  0  0  0  0
   15.5233  -13.8083  -10.6392 O   0  0  0  0  0  0  0  0  0  0  0  0
   17.2849   -6.2240   -8.2084 O   0  0  0  0  0  0  0  0  0  0  0  0
   16.5692   -5.4782   -9.1472 C   0  0  0  0  0  0  0  0  0  0  0  0
   16.7758   -6.0459  -10.5288 C   0  0  2  0  0  0  0  0  0  0  0  0
   16.2338   -7.3822  -10.5467 N   0  0  0  0  0  0  0  0  0  0  0  0
   18.1803   -5.9955  -10.9887 C   0  0  0  0  0  0  0  0  0  0  0  0
   18.9765   -6.8116  -10.4397 O   0  0  0  0  0  0  0  0  0  0  0  0
   18.6683   -5.1147  -11.9753 N   0  0  0  0  0  0  0  0  0  0  0  0
   20.0758   -5.1446  -12.4508 C   0  0  1  0  0  0  0  0  0  0  0  0
   20.2866   -6.5132  -12.9902 C   0  0  0  0  0  0  0  0  0  0  0  0
   21.6328   -6.7425  -13.5903 C   0  0  0  0  0  0  0  0  0  0  0  0
   21.8577   -8.1069  -14.0950 C   0  0  0  0  0  0  0  0  0  0  0  0
   21.7096   -9.0795  -13.3142 O   0  0  0  0  0  0  0  0  0  0  0  0
   20.4464   -3.9801  -13.1991 C   0  0  0  0  0  0  0  0  0  0  0  0
   21.6788   -3.6905  -13.3582 O   0  0  0  0  0  0  0  0  0  0  0  0
   22.2244   -8.3447  -15.3984 O   0  0  0  0  0  0  0  0  0  0  0  0
   19.4981   -3.1274  -13.7875 O   0  0  0  0  0  0  0  0  0  0  0  0
  2  1  1  6
  3  2  1  0
  4  3  1  0
  5  9  1  0
  5  4  1  0
  6  5  2  0
  7  2  1  0
  7  8  2  0
 10 11  1  0
 12 11  1  1
 12 13  1  0
 12 14  1  0
 13  7  1  0
 14 16  1  0
 15 14  2  0
 16 17  1  0
 17 22  1  0
 18 19  1  0
 17 18  1  6
 19 20  1  0
 20 21  2  0
 20 24  1  0
 22 23  2  0
 22 25  1  0
M  END
$$$$
