ESE.pdb
     RDKit          3D

 25 24  0  0  1  0  0  0  0  0999 V2000
   19.5096  -13.6155  -18.0206 N   0  0  0  0  0  0  0  0  0  0  0  0
   18.5746  -13.0993  -16.9828 C   0  0  1  0  0  0  0  0  0  0  0  0
   19.1874  -13.5409  -15.6918 C   0  0  0  0  0  0  0  0  0  0  0  0
   18.9869  -14.9179  -15.2269 C   0  0  0  0  0  0  0  0  0  0  0  0
   17.6298  -15.3884  -14.9737 C   0  0  0  0  0  0  0  0  0  0  0  0
   16.9210  -15.8734  -15.9187 O   0  0  0  0  0  0  0  0  0  0  0  0
   18.5124  -11.6319  -17.0933 C   0  0  0  0  0  0  0  0  0  0  0  0
   19.5608  -10.9685  -17.2222 O   0  0  0  0  0  0  0  0  0  0  0  0
   17.0802  -15.3190  -13.6924 O   0  0  0  0  0  0  0  0  0  0  0  0
   15.0151   -9.4695  -16.3135 O   0  0  0  0  0  0  0  0  0  0  0  0
   15.7685   -9.0954  -17.4281 C   0  0  0  0  0  0  0  0  0  0  0  0
   17.2177   -9.4572  -17.2211 C   0  0  2  0  0  0  0  0  0  0  0  0
   17.3010  -10.8882  -17.0622 N   0  0  0  0  0  0  0  0  0  0  0  0
   17.8613   -8.7231  -16.1105 C   0  0  0  0  0  0  0  0  0  0  0  0
   17.9289   -9.3331  -15.0040 O   0  0  0  0  0  0  0  0  0  0  0  0
   18.3881   -7.4194  -16.2120 N   0  0  0  0  0  0  0  0  0  0  0  0
   18.9541   -6.6911  -15.0470 C   0  0  1  0  0  0  0  0  0  0  0  0
   20.3919   -6.4874  -15.3627 C   0  0  0  0  0  0  0  0  0  0  0  0
   21.1592   -5.7550  -14.3141 C   0  0  0  0  0  0  0  0  0  0  0  0
   22.5860   -5.5593  -14.6189 C   0  0  0  0  0  0  0  0  0  0  0  0
   23.1672   -4.5318  -14.1899 O   0  0  0  0  0  0  0  0  0  0  0  0
   18.1266   -5.6111  -14.5970 C   0  0  0  0  0  0  0  0  0  0  0  0
   18.1077   -5.2951  -13.3609 O   0  0  0  0  0  0  0  0  0  0  0  0
   23.2993   -6.4719  -15.3593 O   0  0  0  0  0  0  0  0  0  0  0  0
   17.3241   -4.8600  -15.4712 O   0  0  0  0  0  0  0  0  0  0  0  0
  2  1  1  6
  3  2  1  0
  4  3  1  0
  5  9  1  0
  5  4  1  0
  6  5  2  0
  7  2  1  0
  7  8  2  0
 10 11  1  0
 12 11  1  1
 12 13  1  0
 12 14  1  0
 13  7  1  0
 14 16  1  0
 15 14  2  0
 16 17  1  0
 17 22  1  0
 18 19  1  0
 17 18  1  6
 19 20  1  0
 20 21  2  0
 20 24  1  0
 22 23  2  0
 22 25  1  0
M  END
$$$$
