ESE.pdb
     RDKit          3D

 25 24  0  0  1  0  0  0  0  0999 V2000
   18.2061  -11.4730  -16.6676 N   0  0  0  0  0  0  0  0  0  0  0  0
   17.5868  -10.5560  -15.6709 C   0  0  1  0  0  0  0  0  0  0  0  0
   16.7803  -11.4631  -14.7968 C   0  0  0  0  0  0  0  0  0  0  0  0
   15.8171  -12.3883  -15.4039 C   0  0  0  0  0  0  0  0  0  0  0  0
   16.1233  -13.8141  -15.4262 C   0  0  0  0  0  0  0  0  0  0  0  0
   15.2866  -14.6533  -15.9018 O   0  0  0  0  0  0  0  0  0  0  0  0
   18.6603   -9.8777  -14.9247 C   0  0  0  0  0  0  0  0  0  0  0  0
   18.3816   -9.1383  -13.9596 O   0  0  0  0  0  0  0  0  0  0  0  0
   17.3385  -14.2886  -14.9292 O   0  0  0  0  0  0  0  0  0  0  0  0
   22.6510   -9.8275  -16.3068 O   0  0  0  0  0  0  0  0  0  0  0  0
   22.4080   -9.9219  -14.9350 C   0  0  0  0  0  0  0  0  0  0  0  0
   21.0959   -9.2618  -14.5930 C   0  0  2  0  0  0  0  0  0  0  0  0
   20.0417  -10.0077  -15.2351 N   0  0  0  0  0  0  0  0  0  0  0  0
   21.0526   -7.8201  -14.9188 C   0  0  0  0  0  0  0  0  0  0  0  0
   20.4720   -7.5098  -15.9995 O   0  0  0  0  0  0  0  0  0  0  0  0
   21.6061   -6.8014  -14.1168 N   0  0  0  0  0  0  0  0  0  0  0  0
   21.5280   -5.3631  -14.4816 C   0  0  1  0  0  0  0  0  0  0  0  0
   20.0855   -5.0853  -14.7066 C   0  0  0  0  0  0  0  0  0  0  0  0
   19.7502   -3.6410  -14.8690 C   0  0  0  0  0  0  0  0  0  0  0  0
   18.3132   -3.3545  -15.0098 C   0  0  0  0  0  0  0  0  0  0  0  0
   17.9251   -2.6274  -15.9576 O   0  0  0  0  0  0  0  0  0  0  0  0
   22.3303   -4.5214  -13.6441 C   0  0  0  0  0  0  0  0  0  0  0  0
   22.6245   -4.8951  -12.4600 O   0  0  0  0  0  0  0  0  0  0  0  0
   17.3849   -3.8625  -14.1323 O   0  0  0  0  0  0  0  0  0  0  0  0
   22.8280   -3.2810  -14.0756 O   0  0  0  0  0  0  0  0  0  0  0  0
  2  1  1  6
  3  2  1  0
  4  3  1  0
  5  9  1  0
  5  4  1  0
  6  5  2  0
  7  2  1  0
  7  8  2  0
 10 11  1  0
 12 11  1  6
 12 13  1  0
 12 14  1  0
 13  7  1  0
 14 16  1  0
 15 14  2  0
 16 17  1  0
 17 22  1  0
 18 19  1  0
 17 18  1  1
 19 20  1  0
 20 21  2  0
 20 24  1  0
 22 23  2  0
 22 25  1  0
M  END
$$$$
