ESE.pdb
     RDKit          3D

 25 24  0  0  1  0  0  0  0  0999 V2000
   20.3030  -13.4576  -17.5518 N   0  0  0  0  0  0  0  0  0  0  0  0
   19.6773  -12.1074  -17.4930 C   0  0  1  0  0  0  0  0  0  0  0  0
   18.2176  -12.3917  -17.3324 C   0  0  0  0  0  0  0  0  0  0  0  0
   17.4628  -12.9663  -18.4516 C   0  0  0  0  0  0  0  0  0  0  0  0
   16.0527  -13.2875  -18.2629 C   0  0  0  0  0  0  0  0  0  0  0  0
   15.6901  -14.1383  -17.3825 O   0  0  0  0  0  0  0  0  0  0  0  0
   20.2310  -11.3819  -16.3370 C   0  0  0  0  0  0  0  0  0  0  0  0
   20.2505  -11.9189  -15.2113 O   0  0  0  0  0  0  0  0  0  0  0  0
   15.0719  -12.6692  -19.0403 O   0  0  0  0  0  0  0  0  0  0  0  0
   23.3042   -9.5811  -13.8754 O   0  0  0  0  0  0  0  0  0  0  0  0
   22.6473  -10.1833  -14.9504 C   0  0  0  0  0  0  0  0  0  0  0  0
   21.4208   -9.3883  -15.3214 C   0  0  2  0  0  0  0  0  0  0  0  0
   20.7640  -10.0660  -16.4119 N   0  0  0  0  0  0  0  0  0  0  0  0
   21.7008   -7.9675  -15.6207 C   0  0  0  0  0  0  0  0  0  0  0  0
   21.7560   -7.6561  -16.8459 O   0  0  0  0  0  0  0  0  0  0  0  0
   21.9043   -6.9694  -14.6461 N   0  0  0  0  0  0  0  0  0  0  0  0
   21.9916   -5.5251  -14.9845 C   0  0  1  0  0  0  0  0  0  0  0  0
   20.8396   -5.2547  -15.8836 C   0  0  0  0  0  0  0  0  0  0  0  0
   20.7145   -3.8341  -16.3208 C   0  0  0  0  0  0  0  0  0  0  0  0
   19.5390   -3.5493  -17.1599 C   0  0  0  0  0  0  0  0  0  0  0  0
   19.4724   -4.0517  -18.3090 O   0  0  0  0  0  0  0  0  0  0  0  0
   22.2676   -4.6929  -13.8511 C   0  0  0  0  0  0  0  0  0  0  0  0
   22.0326   -5.1226  -12.6728 O   0  0  0  0  0  0  0  0  0  0  0  0
   18.5120   -2.7491  -16.7185 O   0  0  0  0  0  0  0  0  0  0  0  0
   22.8052   -3.4014  -13.9757 O   0  0  0  0  0  0  0  0  0  0  0  0
  2  1  1  1
  3  2  1  0
  4  3  1  0
  5  9  1  0
  5  4  1  0
  6  5  2  0
  7  2  1  0
  7  8  2  0
 10 11  1  0
 12 11  1  6
 12 13  1  0
 12 14  1  0
 13  7  1  0
 14 16  1  0
 15 14  2  0
 16 17  1  0
 17 22  1  0
 18 19  1  0
 17 18  1  1
 19 20  1  0
 20 21  2  0
 20 24  1  0
 22 23  2  0
 22 25  1  0
M  END
$$$$
