ESE.pdb
     RDKit          3D

 25 24  0  0  1  0  0  0  0  0999 V2000
   14.3860  -10.4502  -16.6723 N   0  0  0  0  0  0  0  0  0  0  0  0
   15.4118   -9.8612  -15.7675 C   0  0  1  0  0  0  0  0  0  0  0  0
   16.6318  -10.6904  -16.0155 C   0  0  0  0  0  0  0  0  0  0  0  0
   16.6673  -12.0840  -15.5582 C   0  0  0  0  0  0  0  0  0  0  0  0
   17.9030  -12.8449  -15.7039 C   0  0  0  0  0  0  0  0  0  0  0  0
   18.5812  -13.1895  -14.6784 O   0  0  0  0  0  0  0  0  0  0  0  0
   15.6149   -8.4511  -16.1410 C   0  0  0  0  0  0  0  0  0  0  0  0
   15.8434   -8.1442  -17.3282 O   0  0  0  0  0  0  0  0  0  0  0  0
   18.3671  -13.2127  -16.9680 O   0  0  0  0  0  0  0  0  0  0  0  0
   14.0965   -5.4476  -13.9363 O   0  0  0  0  0  0  0  0  0  0  0  0
   14.4605   -5.2609  -15.2714 C   0  0  0  0  0  0  0  0  0  0  0  0
   15.7492   -5.9869  -15.5650 C   0  0  2  0  0  0  0  0  0  0  0  0
   15.5687   -7.3740  -15.2139 N   0  0  0  0  0  0  0  0  0  0  0  0
   16.9328   -5.3848  -14.9144 C   0  0  0  0  0  0  0  0  0  0  0  0
   17.3911   -6.0022  -13.9094 O   0  0  0  0  0  0  0  0  0  0  0  0
   17.5607   -4.1959  -15.3381 N   0  0  0  0  0  0  0  0  0  0  0  0
   18.7631   -3.6408  -14.6642 C   0  0  1  0  0  0  0  0  0  0  0  0
   19.7466   -4.7540  -14.6201 C   0  0  0  0  0  0  0  0  0  0  0  0
   21.0625   -4.3951  -14.0164 C   0  0  0  0  0  0  0  0  0  0  0  0
   22.0419   -5.4934  -13.9767 C   0  0  0  0  0  0  0  0  0  0  0  0
   23.1778   -5.2816  -13.4846 O   0  0  0  0  0  0  0  0  0  0  0  0
   19.1278   -2.3384  -15.1377 C   0  0  0  0  0  0  0  0  0  0  0  0
   18.6222   -1.8890  -16.2196 O   0  0  0  0  0  0  0  0  0  0  0  0
   21.7456   -6.7447  -14.4628 O   0  0  0  0  0  0  0  0  0  0  0  0
   20.0280   -1.5093  -14.4486 O   0  0  0  0  0  0  0  0  0  0  0  0
  2  1  1  6
  3  2  1  0
  4  3  1  0
  5  9  1  0
  5  4  1  0
  6  5  2  0
  7  2  1  0
  7  8  2  0
 10 11  1  0
 12 11  1  1
 12 13  1  0
 12 14  1  0
 13  7  1  0
 14 16  1  0
 15 14  2  0
 16 17  1  0
 17 22  1  0
 18 19  1  0
 17 18  1  6
 19 20  1  0
 20 21  2  0
 20 24  1  0
 22 23  2  0
 22 25  1  0
M  END
$$$$
