ESE.pdb
     RDKit          3D

 25 24  0  0  1  0  0  0  0  0999 V2000
   19.6150  -13.0421  -16.6684 N   0  0  0  0  0  0  0  0  0  0  0  0
   19.9366  -11.7026  -17.2342 C   0  0  1  0  0  0  0  0  0  0  0  0
   18.5977  -11.0838  -17.4827 C   0  0  0  0  0  0  0  0  0  0  0  0
   17.7349  -11.6214  -18.5405 C   0  0  0  0  0  0  0  0  0  0  0  0
   16.4367  -11.0006  -18.7781 C   0  0  0  0  0  0  0  0  0  0  0  0
   15.4242  -11.7092  -19.0994 O   0  0  0  0  0  0  0  0  0  0  0  0
   20.7201  -10.9480  -16.2412 C   0  0  0  0  0  0  0  0  0  0  0  0
   20.2510  -10.7326  -15.1057 O   0  0  0  0  0  0  0  0  0  0  0  0
   16.2758   -9.6193  -18.6570 O   0  0  0  0  0  0  0  0  0  0  0  0
   24.6715  -10.9835  -15.3510 O   0  0  0  0  0  0  0  0  0  0  0  0
   24.2231   -9.7628  -15.8595 C   0  0  0  0  0  0  0  0  0  0  0  0
   22.7526   -9.5895  -15.5740 C   0  0  2  0  0  0  0  0  0  0  0  0
   22.0193  -10.4272  -16.4908 N   0  0  0  0  0  0  0  0  0  0  0  0
   22.3024   -8.1813  -15.6058 C   0  0  0  0  0  0  0  0  0  0  0  0
   21.8037   -7.7798  -16.6972 O   0  0  0  0  0  0  0  0  0  0  0  0
   22.3952   -7.2867  -14.5202 N   0  0  0  0  0  0  0  0  0  0  0  0
   21.8795   -5.8946  -14.5828 C   0  0  1  0  0  0  0  0  0  0  0  0
   20.5185   -5.9983  -15.1705 C   0  0  0  0  0  0  0  0  0  0  0  0
   19.7813   -4.7047  -15.2594 C   0  0  0  0  0  0  0  0  0  0  0  0
   18.4361   -4.8018  -15.8492 C   0  0  0  0  0  0  0  0  0  0  0  0
   18.0762   -5.8839  -16.3755 O   0  0  0  0  0  0  0  0  0  0  0  0
   22.1224   -5.1456  -13.3856 C   0  0  0  0  0  0  0  0  0  0  0  0
   22.2568   -5.7519  -12.2708 O   0  0  0  0  0  0  0  0  0  0  0  0
   17.5630   -3.7400  -15.8379 O   0  0  0  0  0  0  0  0  0  0  0  0
   22.2317   -3.7454  -13.3800 O   0  0  0  0  0  0  0  0  0  0  0  0
  2  1  1  1
  3  2  1  0
  4  3  1  0
  5  9  1  0
  5  4  1  0
  6  5  2  0
  7  2  1  0
  7  8  2  0
 10 11  1  0
 12 11  1  6
 12 13  1  0
 12 14  1  0
 13  7  1  0
 14 16  1  0
 15 14  2  0
 16 17  1  0
 17 22  1  0
 18 19  1  0
 17 18  1  1
 19 20  1  0
 20 21  2  0
 20 24  1  0
 22 23  2  0
 22 25  1  0
M  END
$$$$
