ESE.pdb
     RDKit          3D

 25 24  0  0  1  0  0  0  0  0999 V2000
   19.8973  -12.1908  -15.2792 N   0  0  0  0  0  0  0  0  0  0  0  0
   20.3724  -11.5905  -16.5566 C   0  0  1  0  0  0  0  0  0  0  0  0
   19.2211  -10.7515  -17.0124 C   0  0  0  0  0  0  0  0  0  0  0  0
   18.2372  -11.3141  -17.9440 C   0  0  0  0  0  0  0  0  0  0  0  0
   18.6308  -11.5559  -19.3274 C   0  0  0  0  0  0  0  0  0  0  0  0
   19.5129  -12.4349  -19.6101 O   0  0  0  0  0  0  0  0  0  0  0  0
   21.5718  -10.7818  -16.2792 C   0  0  0  0  0  0  0  0  0  0  0  0
   21.6449  -10.1089  -15.2315 O   0  0  0  0  0  0  0  0  0  0  0  0
   18.0490  -10.8319  -20.3696 O   0  0  0  0  0  0  0  0  0  0  0  0
   26.0231   -9.4197  -17.7608 O   0  0  0  0  0  0  0  0  0  0  0  0
   24.8950  -10.2243  -17.9342 C   0  0  0  0  0  0  0  0  0  0  0  0
   23.8140   -9.8197  -16.9638 C   0  0  2  0  0  0  0  0  0  0  0  0
   22.6934  -10.7084  -17.1499 N   0  0  0  0  0  0  0  0  0  0  0  0
   23.4317   -8.3945  -17.0594 C   0  0  0  0  0  0  0  0  0  0  0  0
   22.2550   -8.1584  -17.4604 O   0  0  0  0  0  0  0  0  0  0  0  0
   24.2799   -7.3152  -16.7387 N   0  0  0  0  0  0  0  0  0  0  0  0
   23.8016   -5.9094  -16.6825 C   0  0  1  0  0  0  0  0  0  0  0  0
   22.6689   -5.9106  -15.7205 C   0  0  0  0  0  0  0  0  0  0  0  0
   22.0697   -4.5684  -15.4668 C   0  0  0  0  0  0  0  0  0  0  0  0
   20.9046   -4.5743  -14.5671 C   0  0  0  0  0  0  0  0  0  0  0  0
   21.0716   -4.8483  -13.3528 O   0  0  0  0  0  0  0  0  0  0  0  0
   24.8639   -4.9525  -16.5865 C   0  0  0  0  0  0  0  0  0  0  0  0
   24.6517   -3.7320  -16.8927 O   0  0  0  0  0  0  0  0  0  0  0  0
   19.6391   -4.2866  -15.0205 O   0  0  0  0  0  0  0  0  0  0  0  0
   26.1543   -5.2979  -16.1531 O   0  0  0  0  0  0  0  0  0  0  0  0
  2  1  1  1
  3  2  1  0
  4  3  1  0
  5  9  1  0
  5  4  1  0
  6  5  2  0
  7  2  1  0
  7  8  2  0
 10 11  1  0
 12 11  1  6
 12 13  1  0
 12 14  1  0
 13  7  1  0
 14 16  1  0
 15 14  2  0
 16 17  1  0
 17 22  1  0
 18 19  1  0
 17 18  1  1
 19 20  1  0
 20 21  2  0
 20 24  1  0
 22 23  2  0
 22 25  1  0
M  END
$$$$
