ESE.pdb
     RDKit          3D

 25 24  0  0  1  0  0  0  0  0999 V2000
   24.2759  -21.0270  -10.6945 N   0  0  0  0  0  0  0  0  0  0  0  0
   24.0048  -21.3811  -12.1154 C   0  0  1  0  0  0  0  0  0  0  0  0
   22.5333  -21.1611  -12.2687 C   0  0  0  0  0  0  0  0  0  0  0  0
   21.6205  -22.3093  -12.2343 C   0  0  0  0  0  0  0  0  0  0  0  0
   20.4398  -22.2487  -11.3802 C   0  0  0  0  0  0  0  0  0  0  0  0
   19.9525  -23.3108  -10.8653 O   0  0  0  0  0  0  0  0  0  0  0  0
   24.7919  -20.4870  -12.9817 C   0  0  0  0  0  0  0  0  0  0  0  0
   24.8467  -19.2654  -12.7361 O   0  0  0  0  0  0  0  0  0  0  0  0
   19.8206  -21.0276  -11.1078 O   0  0  0  0  0  0  0  0  0  0  0  0
   28.1457  -19.9601  -16.4182 O   0  0  0  0  0  0  0  0  0  0  0  0
   27.4073  -20.7925  -15.5746 C   0  0  0  0  0  0  0  0  0  0  0  0
   26.2039  -20.0565  -15.0415 C   0  0  2  0  0  0  0  0  0  0  0  0
   25.5203  -20.9299  -14.1197 N   0  0  0  0  0  0  0  0  0  0  0  0
   25.3110  -19.5328  -16.0974 C   0  0  0  0  0  0  0  0  0  0  0  0
   24.4876  -20.3572  -16.5910 O   0  0  0  0  0  0  0  0  0  0  0  0
   25.3253  -18.2054  -16.5718 N   0  0  0  0  0  0  0  0  0  0  0  0
   24.3905  -17.7188  -17.6194 C   0  0  1  0  0  0  0  0  0  0  0  0
   23.4988  -16.7443  -16.9384 C   0  0  0  0  0  0  0  0  0  0  0  0
   22.4336  -16.1660  -17.8077 C   0  0  0  0  0  0  0  0  0  0  0  0
   21.6468  -15.0895  -17.1841 C   0  0  0  0  0  0  0  0  0  0  0  0
   22.1608  -14.4150  -16.2576 O   0  0  0  0  0  0  0  0  0  0  0  0
   25.0408  -17.4005  -18.8561 C   0  0  0  0  0  0  0  0  0  0  0  0
   26.1497  -16.7692  -18.8489 O   0  0  0  0  0  0  0  0  0  0  0  0
   20.3651  -14.8022  -17.5897 O   0  0  0  0  0  0  0  0  0  0  0  0
   24.5101  -17.7659  -20.1040 O   0  0  0  0  0  0  0  0  0  0  0  0
  2  1  1  1
  3  2  1  0
  4  3  1  0
  5  9  1  0
  5  4  1  0
  6  5  2  0
  7  2  1  0
  7  8  2  0
 10 11  1  0
 12 11  1  6
 12 13  1  0
 12 14  1  0
 13  7  1  0
 14 16  1  0
 15 14  2  0
 16 17  1  0
 17 22  1  0
 18 19  1  0
 17 18  1  1
 19 20  1  0
 20 21  2  0
 20 24  1  0
 22 23  2  0
 22 25  1  0
M  END
$$$$
