NYY.pdb
     RDKit          3D

 33 34  0  0  1  0  0  0  0  0999 V2000
   39.1487   -8.7873   -9.3157 N   0  0  0  0  0  0  0  0  0  0  0  0
   38.1519   -8.5418   -8.3203 C   0  0  0  0  0  0  0  0  0  0  0  0
   37.0193   -9.0573   -8.4923 O   0  0  0  0  0  0  0  0  0  0  0  0
   38.5351   -7.7023   -7.1772 C   0  0  0  0  0  0  0  0  0  0  0  0
   40.0031   -7.2706   -7.3508 C   0  0  2  0  0  0  0  0  0  0  0  0
   40.7920   -8.4514   -7.2041 N   0  0  0  0  0  0  0  0  0  0  0  0
   40.3293   -6.1758   -6.4182 C   0  0  0  0  0  0  0  0  0  0  0  0
   40.5898   -6.5544   -5.2245 O   0  0  0  0  0  0  0  0  0  0  0  0
   42.6962    1.2162   -2.3184 O   0  0  0  0  0  0  0  0  0  0  0  0
   42.3938    0.2798   -3.2780 C   0  0  0  0  0  0  0  0  0  0  0  0
   41.2505    0.4517   -4.0525 C   0  0  0  0  0  0  0  0  0  0  0  0
   40.9233   -0.4814   -5.0285 C   0  0  0  0  0  0  0  0  0  0  0  0
   41.7098   -1.5948   -5.2570 C   0  0  0  0  0  0  0  0  0  0  0  0
   41.3893   -2.6141   -6.2646 C   0  0  0  0  0  0  0  0  0  0  0  0
   40.6812   -3.8394   -5.7238 C   0  0  2  0  0  0  0  0  0  0  0  0
   40.3705   -4.7956   -6.7431 N   0  0  0  0  0  0  0  0  0  0  0  0
   39.4748   -3.3740   -4.9826 C   0  0  0  0  0  0  0  0  0  0  0  0
   38.4759   -3.0363   -5.6980 O   0  0  0  0  0  0  0  0  0  0  0  0
   42.8294   -1.7402   -4.4793 C   0  0  0  0  0  0  0  0  0  0  0  0
   43.1761   -0.8134   -3.4932 C   0  0  0  0  0  0  0  0  0  0  0  0
   33.2530   -2.0668    1.2269 O   0  0  0  0  0  0  0  0  0  0  0  0
   34.3747   -2.4817    0.4898 C   0  0  0  0  0  0  0  0  0  0  0  0
   34.2207   -2.9887   -0.8015 C   0  0  0  0  0  0  0  0  0  0  0  0
   35.3378   -3.3961   -1.5188 C   0  0  0  0  0  0  0  0  0  0  0  0
   36.6190   -3.3291   -1.0206 C   0  0  0  0  0  0  0  0  0  0  0  0
   37.8055   -3.7687   -1.7824 C   0  0  0  0  0  0  0  0  0  0  0  0
   38.1667   -2.8064   -2.9054 C   0  0  2  0  0  0  0  0  0  0  0  0
   39.3621   -3.2832   -3.5923 N   0  0  0  0  0  0  0  0  0  0  0  0
   38.4029   -1.4583   -2.3715 C   0  0  0  0  0  0  0  0  0  0  0  0
   39.5008   -1.1265   -1.8735 O   0  0  0  0  0  0  0  0  0  0  0  0
   36.7396   -2.8190    0.2706 C   0  0  0  0  0  0  0  0  0  0  0  0
   35.6425   -2.4079    1.0003 C   0  0  0  0  0  0  0  0  0  0  0  0
   37.3892   -0.4858   -2.4046 O   0  0  0  0  0  0  0  0  0  0  0  0
  2  1  1  0
  3  2  2  0
  4  5  1  0
  4  2  1  0
  5  6  1  1
  7  5  1  0
  7  8  2  0
  9 10  1  0
 10 11  2  0
 11 12  1  0
 13 12  2  0
 13 14  1  0
 15 14  1  6
 15 16  1  0
 16  7  1  0
 17 15  1  0
 18 17  2  0
 19 13  1  0
 20 10  1  0
 20 19  2  0
 22 21  1  0
 22 23  2  0
 24 23  1  0
 25 24  2  0
 26 25  1  0
 27 28  1  0
 27 26  1  1
 28 17  1  0
 29 27  1  0
 30 29  2  0
 31 32  2  0
 31 25  1  0
 32 22  1  0
 33 29  1  0
M  END
$$$$
