NYY.pdb
     RDKit          3D

 33 34  0  0  1  0  0  0  0  0999 V2000
   23.8522  -12.9201  -21.1549 N   0  0  0  0  0  0  0  0  0  0  0  0
   22.4641  -12.7059  -21.4233 C   0  0  0  0  0  0  0  0  0  0  0  0
   21.8500  -13.5996  -22.0574 O   0  0  0  0  0  0  0  0  0  0  0  0
   21.8702  -11.4534  -20.9365 C   0  0  0  0  0  0  0  0  0  0  0  0
   22.9236  -10.6964  -20.1064 C   0  0  2  0  0  0  0  0  0  0  0  0
   23.0942  -11.4366  -18.8976 N   0  0  0  0  0  0  0  0  0  0  0  0
   22.5229   -9.2882  -19.9309 C   0  0  0  0  0  0  0  0  0  0  0  0
   22.5504   -8.5903  -21.0024 O   0  0  0  0  0  0  0  0  0  0  0  0
   18.7115   -1.6569  -18.7469 O   0  0  0  0  0  0  0  0  0  0  0  0
   19.1094   -2.9683  -18.8525 C   0  0  0  0  0  0  0  0  0  0  0  0
   18.7045   -3.8772  -17.8796 C   0  0  0  0  0  0  0  0  0  0  0  0
   19.0941   -5.2081  -17.9642 C   0  0  0  0  0  0  0  0  0  0  0  0
   19.8860   -5.6652  -19.0007 C   0  0  0  0  0  0  0  0  0  0  0  0
   20.3357   -7.0585  -19.1166 C   0  0  0  0  0  0  0  0  0  0  0  0
   21.7689   -7.2998  -18.6889 C   0  0  2  0  0  0  0  0  0  0  0  0
   22.1280   -8.6856  -18.7089 N   0  0  0  0  0  0  0  0  0  0  0  0
   21.9515   -6.6760  -17.3477 C   0  0  0  0  0  0  0  0  0  0  0  0
   21.3569   -7.2514  -16.3787 O   0  0  0  0  0  0  0  0  0  0  0  0
   20.2716   -4.7487  -19.9446 C   0  0  0  0  0  0  0  0  0  0  0  0
   19.8904   -3.4065  -19.8780 C   0  0  0  0  0  0  0  0  0  0  0  0
   28.1049   -2.8156  -18.8683 O   0  0  0  0  0  0  0  0  0  0  0  0
   27.1741   -3.4007  -17.9936 C   0  0  0  0  0  0  0  0  0  0  0  0
   27.3521   -3.3098  -16.6122 C   0  0  0  0  0  0  0  0  0  0  0  0
   26.4250   -3.8934  -15.7589 C   0  0  0  0  0  0  0  0  0  0  0  0
   25.3142   -4.5733  -16.2041 C   0  0  0  0  0  0  0  0  0  0  0  0
   24.3324   -5.1988  -15.2952 C   0  0  0  0  0  0  0  0  0  0  0  0
   22.8956   -4.9754  -15.7461 C   0  0  2  0  0  0  0  0  0  0  0  0
   22.7101   -5.5324  -17.0816 N   0  0  0  0  0  0  0  0  0  0  0  0
   22.5764   -3.5415  -15.7553 C   0  0  0  0  0  0  0  0  0  0  0  0
   22.5197   -2.8693  -14.7024 O   0  0  0  0  0  0  0  0  0  0  0  0
   25.1649   -4.6468  -17.5876 C   0  0  0  0  0  0  0  0  0  0  0  0
   26.0742   -4.0732  -18.4532 C   0  0  0  0  0  0  0  0  0  0  0  0
   22.3221   -2.8707  -16.9634 O   0  0  0  0  0  0  0  0  0  0  0  0
  2  1  1  0
  3  2  2  0
  4  5  1  0
  4  2  1  0
  5  6  1  1
  7  5  1  0
  7  8  2  0
  9 10  1  0
 10 11  2  0
 11 12  1  0
 13 12  2  0
 13 14  1  0
 15 14  1  1
 15 16  1  0
 16  7  1  0
 17 15  1  0
 18 17  2  0
 19 13  1  0
 20 10  1  0
 20 19  2  0
 22 21  1  0
 22 23  2  0
 24 23  1  0
 25 24  2  0
 26 25  1  0
 27 28  1  0
 27 26  1  6
 28 17  1  0
 29 27  1  0
 30 29  2  0
 31 32  2  0
 31 25  1  0
 32 22  1  0
 33 29  1  0
M  END
$$$$
