NYY.pdb
     RDKit          3D

 33 34  0  0  1  0  0  0  0  0999 V2000
   19.1299   -6.6889  -24.0033 N   0  0  0  0  0  0  0  0  0  0  0  0
   19.4237   -7.9897  -23.4873 C   0  0  0  0  0  0  0  0  0  0  0  0
   18.4750   -8.8086  -23.4007 O   0  0  0  0  0  0  0  0  0  0  0  0
   20.8139   -8.2606  -23.0972 C   0  0  0  0  0  0  0  0  0  0  0  0
   21.6404   -6.9752  -23.2879 C   0  0  2  0  0  0  0  0  0  0  0  0
   22.5260   -7.2221  -24.3803 N   0  0  0  0  0  0  0  0  0  0  0  0
   22.2936   -6.5931  -22.0222 C   0  0  0  0  0  0  0  0  0  0  0  0
   23.2632   -7.3513  -21.6744 O   0  0  0  0  0  0  0  0  0  0  0  0
   26.6783   -1.8273  -23.7832 O   0  0  0  0  0  0  0  0  0  0  0  0
   25.8120   -2.3037  -22.8283 C   0  0  0  0  0  0  0  0  0  0  0  0
   24.4530   -2.3672  -23.1210 C   0  0  0  0  0  0  0  0  0  0  0  0
   23.5574   -2.8446  -22.1722 C   0  0  0  0  0  0  0  0  0  0  0  0
   23.9807   -3.2640  -20.9250 C   0  0  0  0  0  0  0  0  0  0  0  0
   23.0653   -3.7565  -19.8875 C   0  0  0  0  0  0  0  0  0  0  0  0
   22.6867   -5.2176  -20.0177 C   0  0  2  0  0  0  0  0  0  0  0  0
   21.9333   -5.4919  -21.2038 N   0  0  0  0  0  0  0  0  0  0  0  0
   21.9667   -5.6106  -18.7733 C   0  0  0  0  0  0  0  0  0  0  0  0
   20.7425   -5.2640  -18.7035 O   0  0  0  0  0  0  0  0  0  0  0  0
   25.3242   -3.1897  -20.6626 C   0  0  0  0  0  0  0  0  0  0  0  0
   26.2409   -2.7132  -21.6028 C   0  0  0  0  0  0  0  0  0  0  0  0
   19.7926   -9.5492  -11.0840 O   0  0  0  0  0  0  0  0  0  0  0  0
   20.3897   -9.1863  -12.3029 C   0  0  0  0  0  0  0  0  0  0  0  0
   21.7744   -9.2645  -12.4596 C   0  0  0  0  0  0  0  0  0  0  0  0
   22.3517   -8.9019  -13.6694 C   0  0  0  0  0  0  0  0  0  0  0  0
   21.6229   -8.4584  -14.7494 C   0  0  0  0  0  0  0  0  0  0  0  0
   22.2390   -8.0671  -16.0334 C   0  0  0  0  0  0  0  0  0  0  0  0
   21.7785   -6.6956  -16.5071 C   0  0  2  0  0  0  0  0  0  0  0  0
   22.5236   -6.3154  -17.7022 N   0  0  0  0  0  0  0  0  0  0  0  0
   21.9813   -5.6925  -15.4531 C   0  0  0  0  0  0  0  0  0  0  0  0
   23.0955   -5.1630  -15.2489 O   0  0  0  0  0  0  0  0  0  0  0  0
   20.2438   -8.3912  -14.5614 C   0  0  0  0  0  0  0  0  0  0  0  0
   19.6499   -8.7476  -13.3675 C   0  0  0  0  0  0  0  0  0  0  0  0
   20.9155   -5.2904  -14.6306 O   0  0  0  0  0  0  0  0  0  0  0  0
  2  1  1  0
  3  2  2  0
  4  5  1  0
  4  2  1  0
  5  6  1  6
  7  5  1  0
  7  8  2  0
  9 10  1  0
 10 11  2  0
 11 12  1  0
 13 12  2  0
 13 14  1  0
 15 14  1  1
 15 16  1  0
 16  7  1  0
 17 15  1  0
 18 17  2  0
 19 13  1  0
 20 10  1  0
 20 19  2  0
 22 21  1  0
 22 23  2  0
 24 23  1  0
 25 24  2  0
 26 25  1  0
 27 28  1  0
 27 26  1  1
 28 17  1  0
 29 27  1  0
 30 29  2  0
 31 32  2  0
 31 25  1  0
 32 22  1  0
 33 29  1  0
M  END
$$$$
