NYY.pdb
     RDKit          3D

 33 34  0  0  1  0  0  0  0  0999 V2000
   17.6475  -13.9927  -16.8759 N   0  0  0  0  0  0  0  0  0  0  0  0
   18.3107  -13.7083  -15.6414 C   0  0  0  0  0  0  0  0  0  0  0  0
   17.8817  -14.2767  -14.6066 O   0  0  0  0  0  0  0  0  0  0  0  0
   19.4402  -12.7699  -15.6851 C   0  0  0  0  0  0  0  0  0  0  0  0
   19.0668  -11.5889  -16.6002 C   0  0  2  0  0  0  0  0  0  0  0  0
   19.1682  -12.0684  -17.9412 N   0  0  0  0  0  0  0  0  0  0  0  0
   19.9012  -10.4139  -16.2872 C   0  0  0  0  0  0  0  0  0  0  0  0
   20.1768  -10.2733  -15.0462 O   0  0  0  0  0  0  0  0  0  0  0  0
   24.8166   -3.1084  -16.2375 O   0  0  0  0  0  0  0  0  0  0  0  0
   24.0921   -4.2025  -16.6467 C   0  0  0  0  0  0  0  0  0  0  0  0
   22.8507   -4.0052  -17.2437 C   0  0  0  0  0  0  0  0  0  0  0  0
   22.0992   -5.0952  -17.6653 C   0  0  0  0  0  0  0  0  0  0  0  0
   22.5528   -6.3911  -17.5061 C   0  0  0  0  0  0  0  0  0  0  0  0
   21.7818   -7.5707  -17.9198 C   0  0  0  0  0  0  0  0  0  0  0  0
   21.2090   -8.3859  -16.7785 C   0  0  2  0  0  0  0  0  0  0  0  0
   20.3942   -9.4738  -17.2282 N   0  0  0  0  0  0  0  0  0  0  0  0
   20.4767   -7.4508  -15.8781 C   0  0  0  0  0  0  0  0  0  0  0  0
   19.3196   -7.0892  -16.2705 O   0  0  0  0  0  0  0  0  0  0  0  0
   23.7782   -6.5568  -16.9141 C   0  0  0  0  0  0  0  0  0  0  0  0
   24.5492   -5.4744  -16.4837 C   0  0  0  0  0  0  0  0  0  0  0  0
   16.4292   -3.3036   -9.3711 O   0  0  0  0  0  0  0  0  0  0  0  0
   17.1262   -4.1578  -10.2420 C   0  0  0  0  0  0  0  0  0  0  0  0
   18.1138   -5.0122   -9.7496 C   0  0  0  0  0  0  0  0  0  0  0  0
   18.7957   -5.8508  -10.6214 C   0  0  0  0  0  0  0  0  0  0  0  0
   18.5509   -5.8905  -11.9752 C   0  0  0  0  0  0  0  0  0  0  0  0
   19.2814   -6.7784  -12.9021 C   0  0  0  0  0  0  0  0  0  0  0  0
   20.2194   -6.0130  -13.8252 C   0  0  2  0  0  0  0  0  0  0  0  0
   20.9558   -6.9531  -14.6628 N   0  0  0  0  0  0  0  0  0  0  0  0
   21.1599   -5.1995  -13.0431 C   0  0  0  0  0  0  0  0  0  0  0  0
   20.9495   -3.9902  -12.8043 O   0  0  0  0  0  0  0  0  0  0  0  0
   17.5598   -5.0258  -12.4357 C   0  0  0  0  0  0  0  0  0  0  0  0
   16.8697   -4.1850  -11.5861 C   0  0  0  0  0  0  0  0  0  0  0  0
   22.3413   -5.7620  -12.5310 O   0  0  0  0  0  0  0  0  0  0  0  0
  2  1  1  0
  3  2  2  0
  4  5  1  0
  4  2  1  0
  5  6  1  6
  7  5  1  0
  7  8  2  0
  9 10  1  0
 10 11  2  0
 11 12  1  0
 13 12  2  0
 13 14  1  0
 15 14  1  6
 15 16  1  0
 16  7  1  0
 17 15  1  0
 18 17  2  0
 19 13  1  0
 20 10  1  0
 20 19  2  0
 22 21  1  0
 22 23  2  0
 24 23  1  0
 25 24  2  0
 26 25  1  0
 27 28  1  0
 27 26  1  1
 28 17  1  0
 29 27  1  0
 30 29  2  0
 31 32  2  0
 31 25  1  0
 32 22  1  0
 33 29  1  0
M  END
$$$$
