NYY.pdb
     RDKit          3D

 33 34  0  0  1  0  0  0  0  0999 V2000
   13.6289  -29.3697  -15.7956 N   0  0  0  0  0  0  0  0  0  0  0  0
   14.8671  -29.0655  -15.1481 C   0  0  0  0  0  0  0  0  0  0  0  0
   15.2187  -27.8604  -15.1030 O   0  0  0  0  0  0  0  0  0  0  0  0
   15.6288  -30.1910  -14.5903 C   0  0  0  0  0  0  0  0  0  0  0  0
   17.0774  -30.1124  -15.1072 C   0  0  2  0  0  0  0  0  0  0  0  0
   17.0888  -30.7610  -16.3790 N   0  0  0  0  0  0  0  0  0  0  0  0
   18.0090  -30.6686  -14.1086 C   0  0  0  0  0  0  0  0  0  0  0  0
   18.0908  -31.9450  -14.1110 O   0  0  0  0  0  0  0  0  0  0  0  0
   24.2701  -32.2531   -8.0909 O   0  0  0  0  0  0  0  0  0  0  0  0
   23.4381  -31.6587   -9.0095 C   0  0  0  0  0  0  0  0  0  0  0  0
   23.3381  -32.2077  -10.2843 C   0  0  0  0  0  0  0  0  0  0  0  0
   22.5043  -31.6249  -11.2305 C   0  0  0  0  0  0  0  0  0  0  0  0
   21.7597  -30.4968  -10.9411 C   0  0  0  0  0  0  0  0  0  0  0  0
   20.8820  -29.8389  -11.9177 C   0  0  0  0  0  0  0  0  0  0  0  0
   19.6104  -30.5971  -12.2390 C   0  0  2  0  0  0  0  0  0  0  0  0
   18.7834  -29.9159  -13.1887 N   0  0  0  0  0  0  0  0  0  0  0  0
   18.9083  -30.8680  -10.9525 C   0  0  0  0  0  0  0  0  0  0  0  0
   18.3560  -29.8638  -10.3957 O   0  0  0  0  0  0  0  0  0  0  0  0
   21.8779  -29.9761   -9.6785 C   0  0  0  0  0  0  0  0  0  0  0  0
   22.7103  -30.5472   -8.7128 C   0  0  0  0  0  0  0  0  0  0  0  0
   14.0903  -34.5118   -4.5145 O   0  0  0  0  0  0  0  0  0  0  0  0
   14.8530  -34.2791   -5.6713 C   0  0  0  0  0  0  0  0  0  0  0  0
   16.0539  -34.9615   -5.8721 C   0  0  0  0  0  0  0  0  0  0  0  0
   16.7984  -34.7214   -7.0194 C   0  0  0  0  0  0  0  0  0  0  0  0
   16.4144  -33.8287   -7.9940 C   0  0  0  0  0  0  0  0  0  0  0  0
   17.2106  -33.5698   -9.2108 C   0  0  0  0  0  0  0  0  0  0  0  0
   18.0995  -32.3414   -9.0755 C   0  0  2  0  0  0  0  0  0  0  0  0
   18.8139  -32.1146  -10.3270 N   0  0  0  0  0  0  0  0  0  0  0  0
   19.0601  -32.5199   -7.9785 C   0  0  0  0  0  0  0  0  0  0  0  0
   18.8206  -32.1218   -6.8175 O   0  0  0  0  0  0  0  0  0  0  0  0
   15.2117  -33.1634   -7.7643 C   0  0  0  0  0  0  0  0  0  0  0  0
   14.4562  -33.3878   -6.6312 C   0  0  0  0  0  0  0  0  0  0  0  0
   20.2947  -33.1526   -8.2016 O   0  0  0  0  0  0  0  0  0  0  0  0
  2  1  1  0
  3  2  2  0
  4  5  1  0
  4  2  1  0
  5  6  1  6
  7  5  1  0
  7  8  2  0
  9 10  1  0
 10 11  2  0
 11 12  1  0
 13 12  2  0
 13 14  1  0
 15 14  1  1
 15 16  1  0
 16  7  1  0
 17 15  1  0
 18 17  2  0
 19 13  1  0
 20 10  1  0
 20 19  2  0
 22 21  1  0
 22 23  2  0
 24 23  1  0
 25 24  2  0
 26 25  1  0
 27 28  1  0
 27 26  1  6
 28 17  1  0
 29 27  1  0
 30 29  2  0
 31 32  2  0
 31 25  1  0
 32 22  1  0
 33 29  1  0
M  END
$$$$
