NYY.pdb
     RDKit          3D

 33 34  0  0  1  0  0  0  0  0999 V2000
   28.9543  -20.2896  -20.3910 N   0  0  0  0  0  0  0  0  0  0  0  0
   29.2469  -20.1487  -18.9984 C   0  0  0  0  0  0  0  0  0  0  0  0
   30.4549  -20.1595  -18.6542 O   0  0  0  0  0  0  0  0  0  0  0  0
   28.1071  -20.0058  -18.0826 C   0  0  0  0  0  0  0  0  0  0  0  0
   28.3790  -20.8441  -16.8197 C   0  0  2  0  0  0  0  0  0  0  0  0
   28.5042  -22.1988  -17.2527 N   0  0  0  0  0  0  0  0  0  0  0  0
   27.3342  -20.6007  -15.8079 C   0  0  0  0  0  0  0  0  0  0  0  0
   27.1990  -19.3752  -15.4677 O   0  0  0  0  0  0  0  0  0  0  0  0
   20.0658  -20.0126  -11.0949 O   0  0  0  0  0  0  0  0  0  0  0  0
   21.0702  -20.4752  -11.9112 C   0  0  0  0  0  0  0  0  0  0  0  0
   21.7512  -21.6347  -11.5530 C   0  0  0  0  0  0  0  0  0  0  0  0
   22.7707  -22.1219  -12.3615 C   0  0  0  0  0  0  0  0  0  0  0  0
   23.1371  -21.4794  -13.5292 C   0  0  0  0  0  0  0  0  0  0  0  0
   24.2210  -21.9500  -14.4013 C   0  0  0  0  0  0  0  0  0  0  0  0
   25.5304  -21.2044  -14.2438 C   0  0  2  0  0  0  0  0  0  0  0  0
   26.5089  -21.5905  -15.2151 N   0  0  0  0  0  0  0  0  0  0  0  0
   25.9985  -21.4038  -12.8429 C   0  0  0  0  0  0  0  0  0  0  0  0
   26.5653  -22.5182  -12.5969 O   0  0  0  0  0  0  0  0  0  0  0  0
   22.4507  -20.3390  -13.8577 C   0  0  0  0  0  0  0  0  0  0  0  0
   21.4226  -19.8330  -13.0587 C   0  0  0  0  0  0  0  0  0  0  0  0
   28.7449  -20.1347   -4.4975 O   0  0  0  0  0  0  0  0  0  0  0  0
   28.4008  -20.0287   -5.8556 C   0  0  0  0  0  0  0  0  0  0  0  0
   27.3797  -19.1665   -6.2581 C   0  0  0  0  0  0  0  0  0  0  0  0
   27.0492  -19.0719   -7.6036 C   0  0  0  0  0  0  0  0  0  0  0  0
   27.6829  -19.7955   -8.5881 C   0  0  0  0  0  0  0  0  0  0  0  0
   27.3259  -19.6984  -10.0179 C   0  0  0  0  0  0  0  0  0  0  0  0
   26.2893  -20.7337  -10.4316 C   0  0  2  0  0  0  0  0  0  0  0  0
   25.8641  -20.4788  -11.8035 N   0  0  0  0  0  0  0  0  0  0  0  0
   25.1281  -20.6865   -9.5329 C   0  0  0  0  0  0  0  0  0  0  0  0
   24.1568  -19.9282   -9.7457 O   0  0  0  0  0  0  0  0  0  0  0  0
   28.6971  -20.6470   -8.1543 C   0  0  0  0  0  0  0  0  0  0  0  0
   29.0418  -20.7554   -6.8222 C   0  0  0  0  0  0  0  0  0  0  0  0
   25.0709  -21.5031   -8.3909 O   0  0  0  0  0  0  0  0  0  0  0  0
  2  1  1  0
  3  2  2  0
  4  5  1  0
  4  2  1  0
  5  6  1  6
  7  5  1  0
  7  8  2  0
  9 10  1  0
 10 11  2  0
 11 12  1  0
 13 12  2  0
 13 14  1  0
 15 14  1  6
 15 16  1  0
 16  7  1  0
 17 15  1  0
 18 17  2  0
 19 13  1  0
 20 10  1  0
 20 19  2  0
 22 21  1  0
 22 23  2  0
 24 23  1  0
 25 24  2  0
 26 25  1  0
 27 28  1  0
 27 26  1  1
 28 17  1  0
 29 27  1  0
 30 29  2  0
 31 32  2  0
 31 25  1  0
 32 22  1  0
 33 29  1  0
M  END
$$$$
