NYY.pdb
     RDKit          3D

 33 34  0  0  1  0  0  0  0  0999 V2000
   16.8081  -22.3753  -10.9422 N   0  0  0  0  0  0  0  0  0  0  0  0
   15.7495  -21.4142  -10.9634 C   0  0  0  0  0  0  0  0  0  0  0  0
   15.7544  -20.5643  -11.8884 O   0  0  0  0  0  0  0  0  0  0  0  0
   14.7426  -21.4988   -9.8969 C   0  0  0  0  0  0  0  0  0  0  0  0
   14.8382  -22.8863   -9.2355 C   0  0  2  0  0  0  0  0  0  0  0  0
   13.9190  -23.7296   -9.9299 N   0  0  0  0  0  0  0  0  0  0  0  0
   14.6174  -22.7774   -7.7815 C   0  0  0  0  0  0  0  0  0  0  0  0
   15.6690  -22.5147   -7.1024 O   0  0  0  0  0  0  0  0  0  0  0  0
   12.9097  -20.3965    0.2791 O   0  0  0  0  0  0  0  0  0  0  0  0
   13.1063  -20.6482   -1.0578 C   0  0  0  0  0  0  0  0  0  0  0  0
   14.0939  -21.5526   -1.4364 C   0  0  0  0  0  0  0  0  0  0  0  0
   14.3120  -21.8234   -2.7815 C   0  0  0  0  0  0  0  0  0  0  0  0
   13.5677  -21.2111   -3.7723 C   0  0  0  0  0  0  0  0  0  0  0  0
   13.7792  -21.4545   -5.2051 C   0  0  0  0  0  0  0  0  0  0  0  0
   13.3118  -22.8102   -5.6937 C   0  0  2  0  0  0  0  0  0  0  0  0
   13.3737  -22.9381   -7.1183 N   0  0  0  0  0  0  0  0  0  0  0  0
   11.9415  -23.0376   -5.1533 C   0  0  0  0  0  0  0  0  0  0  0  0
   11.0127  -22.3381   -5.6744 O   0  0  0  0  0  0  0  0  0  0  0  0
   12.6024  -20.3239   -3.3716 C   0  0  0  0  0  0  0  0  0  0  0  0
   12.3671  -20.0382   -2.0246 C   0  0  0  0  0  0  0  0  0  0  0  0
    4.4311  -26.2559   -1.9139 O   0  0  0  0  0  0  0  0  0  0  0  0
    5.7386  -26.0693   -2.3929 C   0  0  0  0  0  0  0  0  0  0  0  0
    6.8262  -26.5977   -1.6958 C   0  0  0  0  0  0  0  0  0  0  0  0
    8.1134  -26.4051   -2.1799 C   0  0  0  0  0  0  0  0  0  0  0  0
    8.3881  -25.7068   -3.3337 C   0  0  0  0  0  0  0  0  0  0  0  0
    9.7582  -25.4975   -3.8439 C   0  0  0  0  0  0  0  0  0  0  0  0
   10.2652  -24.0845   -3.5906 C   0  0  2  0  0  0  0  0  0  0  0  0
   11.6089  -23.9414   -4.1400 N   0  0  0  0  0  0  0  0  0  0  0  0
   10.2820  -23.7946   -2.1505 C   0  0  0  0  0  0  0  0  0  0  0  0
   11.2309  -24.1454   -1.4156 O   0  0  0  0  0  0  0  0  0  0  0  0
    7.2817  -25.1918   -4.0063 C   0  0  0  0  0  0  0  0  0  0  0  0
    5.9942  -25.3724   -3.5428 C   0  0  0  0  0  0  0  0  0  0  0  0
    9.2185  -23.1040   -1.5453 O   0  0  0  0  0  0  0  0  0  0  0  0
  2  1  1  0
  3  2  2  0
  4  5  1  0
  4  2  1  0
  5  6  1  6
  7  5  1  0
  7  8  2  0
  9 10  1  0
 10 11  2  0
 11 12  1  0
 13 12  2  0
 13 14  1  0
 15 14  1  6
 15 16  1  0
 16  7  1  0
 17 15  1  0
 18 17  2  0
 19 13  1  0
 20 10  1  0
 20 19  2  0
 22 21  1  0
 22 23  2  0
 24 23  1  0
 25 24  2  0
 26 25  1  0
 27 28  1  0
 27 26  1  1
 28 17  1  0
 29 27  1  0
 30 29  2  0
 31 32  2  0
 31 25  1  0
 32 22  1  0
 33 29  1  0
M  END
$$$$
