NYY.pdb
     RDKit          3D

 33 34  0  0  1  0  0  0  0  0999 V2000
   19.8279  -11.4210    4.7819 N   0  0  0  0  0  0  0  0  0  0  0  0
   20.2030  -11.8567    6.0912 C   0  0  0  0  0  0  0  0  0  0  0  0
   21.1427  -11.2472    6.6598 O   0  0  0  0  0  0  0  0  0  0  0  0
   19.4580  -12.9863    6.6633 C   0  0  0  0  0  0  0  0  0  0  0  0
   18.4116  -13.4593    5.6371 C   0  0  2  0  0  0  0  0  0  0  0  0
   17.2728  -12.6141    5.8017 N   0  0  0  0  0  0  0  0  0  0  0  0
   18.1528  -14.9022    5.7966 C   0  0  0  0  0  0  0  0  0  0  0  0
   17.2565  -15.1888    6.6630 O   0  0  0  0  0  0  0  0  0  0  0  0
   13.3684  -18.6460    1.5056 O   0  0  0  0  0  0  0  0  0  0  0  0
   14.5866  -18.5277    2.1310 C   0  0  0  0  0  0  0  0  0  0  0  0
   15.4283  -17.4778    1.7766 C   0  0  0  0  0  0  0  0  0  0  0  0
   16.6649  -17.3371    2.3941 C   0  0  0  0  0  0  0  0  0  0  0  0
   17.0933  -18.2232    3.3646 C   0  0  0  0  0  0  0  0  0  0  0  0
   18.4000  -18.1217    4.0274 C   0  0  0  0  0  0  0  0  0  0  0  0
   18.4027  -17.3016    5.3012 C   0  0  2  0  0  0  0  0  0  0  0  0
   18.8026  -15.9438    5.0859 N   0  0  0  0  0  0  0  0  0  0  0  0
   19.2654  -18.0068    6.2910 C   0  0  0  0  0  0  0  0  0  0  0  0
   20.5124  -18.0278    6.0298 O   0  0  0  0  0  0  0  0  0  0  0  0
   16.2452  -19.2487    3.6938 C   0  0  0  0  0  0  0  0  0  0  0  0
   14.9979  -19.4074    3.0851 C   0  0  0  0  0  0  0  0  0  0  0  0
   23.7524  -14.7220   10.1813 O   0  0  0  0  0  0  0  0  0  0  0  0
   22.7578  -15.7077   10.0672 C   0  0  0  0  0  0  0  0  0  0  0  0
   21.4084  -15.3577   10.1348 C   0  0  0  0  0  0  0  0  0  0  0  0
   20.4355  -16.3421   10.0215 C   0  0  0  0  0  0  0  0  0  0  0  0
   20.7289  -17.6748    9.8430 C   0  0  0  0  0  0  0  0  0  0  0  0
   19.6931  -18.7214    9.7290 C   0  0  0  0  0  0  0  0  0  0  0  0
   19.6827  -19.3846    8.3587 C   0  0  2  0  0  0  0  0  0  0  0  0
   18.8166  -18.6321    7.4579 N   0  0  0  0  0  0  0  0  0  0  0  0
   19.2096  -20.7716    8.4622 C   0  0  0  0  0  0  0  0  0  0  0  0
   18.1525  -21.1531    7.9140 O   0  0  0  0  0  0  0  0  0  0  0  0
   22.0844  -17.9920    9.7800 C   0  0  0  0  0  0  0  0  0  0  0  0
   23.0671  -17.0291    9.8895 C   0  0  0  0  0  0  0  0  0  0  0  0
   19.9401  -21.7264    9.1896 O   0  0  0  0  0  0  0  0  0  0  0  0
  2  1  1  0
  3  2  2  0
  4  5  1  0
  4  2  1  0
  5  6  1  1
  7  5  1  0
  7  8  2  0
  9 10  1  0
 10 11  2  0
 11 12  1  0
 13 12  2  0
 13 14  1  0
 15 14  1  6
 15 16  1  0
 16  7  1  0
 17 15  1  0
 18 17  2  0
 19 13  1  0
 20 10  1  0
 20 19  2  0
 22 21  1  0
 22 23  2  0
 24 23  1  0
 25 24  2  0
 26 25  1  0
 27 28  1  0
 27 26  1  1
 28 17  1  0
 29 27  1  0
 30 29  2  0
 31 32  2  0
 31 25  1  0
 32 22  1  0
 33 29  1  0
M  END
$$$$
