NYY.pdb
     RDKit          3D

 33 34  0  0  1  0  0  0  0  0999 V2000
   10.2153  -18.3983    5.0078 N   0  0  0  0  0  0  0  0  0  0  0  0
   11.3076  -18.7564    5.8583 C   0  0  0  0  0  0  0  0  0  0  0  0
   11.1448  -18.6313    7.0975 O   0  0  0  0  0  0  0  0  0  0  0  0
   12.5344  -19.2394    5.2103 C   0  0  0  0  0  0  0  0  0  0  0  0
   13.7378  -18.4830    5.8032 C   0  0  2  0  0  0  0  0  0  0  0  0
   13.6871  -17.1601    5.2687 N   0  0  0  0  0  0  0  0  0  0  0  0
   14.9872  -19.2207    5.5401 C   0  0  0  0  0  0  0  0  0  0  0  0
   15.3658  -19.2062    4.3185 O   0  0  0  0  0  0  0  0  0  0  0  0
   17.0917  -17.6557   11.8726 O   0  0  0  0  0  0  0  0  0  0  0  0
   17.3494  -18.2129   10.6428 C   0  0  0  0  0  0  0  0  0  0  0  0
   17.8110  -19.5242   10.5791 C   0  0  0  0  0  0  0  0  0  0  0  0
   18.0790  -20.1095    9.3479 C   0  0  0  0  0  0  0  0  0  0  0  0
   17.9002  -19.4181    8.1644 C   0  0  0  0  0  0  0  0  0  0  0  0
   18.1900  -19.9929    6.8443 C   0  0  0  0  0  0  0  0  0  0  0  0
   16.9827  -20.5448    6.1142 C   0  0  2  0  0  0  0  0  0  0  0  0
   15.7598  -19.9129    6.5078 N   0  0  0  0  0  0  0  0  0  0  0  0
   16.9631  -22.0202    6.3241 C   0  0  0  0  0  0  0  0  0  0  0  0
   16.1139  -22.4525    7.1700 O   0  0  0  0  0  0  0  0  0  0  0  0
   17.4457  -18.1280    8.2560 C   0  0  0  0  0  0  0  0  0  0  0  0
   17.1701  -17.5215    9.4839 C   0  0  0  0  0  0  0  0  0  0  0  0
   20.1344  -27.2511    0.6628 O   0  0  0  0  0  0  0  0  0  0  0  0
   19.3400  -26.7142    1.6896 C   0  0  0  0  0  0  0  0  0  0  0  0
   18.4469  -25.6761    1.4195 C   0  0  0  0  0  0  0  0  0  0  0  0
   17.6682  -25.1540    2.4439 C   0  0  0  0  0  0  0  0  0  0  0  0
   17.7261  -25.6091    3.7415 C   0  0  0  0  0  0  0  0  0  0  0  0
   16.9017  -25.0484    4.8312 C   0  0  0  0  0  0  0  0  0  0  0  0
   17.7404  -24.3813    5.9126 C   0  0  2  0  0  0  0  0  0  0  0  0
   17.7892  -22.9427    5.6755 N   0  0  0  0  0  0  0  0  0  0  0  0
   19.1023  -24.9317    5.9201 C   0  0  0  0  0  0  0  0  0  0  0  0
   19.3334  -26.1225    6.2240 O   0  0  0  0  0  0  0  0  0  0  0  0
   18.6270  -26.6453    3.9790 C   0  0  0  0  0  0  0  0  0  0  0  0
   19.4096  -27.1789    2.9751 C   0  0  0  0  0  0  0  0  0  0  0  0
   20.2032  -24.1273    5.5807 O   0  0  0  0  0  0  0  0  0  0  0  0
  2  1  1  0
  3  2  2  0
  4  5  1  0
  4  2  1  0
  5  6  1  6
  7  5  1  0
  7  8  2  0
  9 10  1  0
 10 11  2  0
 11 12  1  0
 13 12  2  0
 13 14  1  0
 15 14  1  1
 15 16  1  0
 16  7  1  0
 17 15  1  0
 18 17  2  0
 19 13  1  0
 20 10  1  0
 20 19  2  0
 22 21  1  0
 22 23  2  0
 24 23  1  0
 25 24  2  0
 26 25  1  0
 27 28  1  0
 27 26  1  6
 28 17  1  0
 29 27  1  0
 30 29  2  0
 31 32  2  0
 31 25  1  0
 32 22  1  0
 33 29  1  0
M  END
$$$$
