NYY.pdb
     RDKit          3D

 33 34  0  0  1  0  0  0  0  0999 V2000
   23.6016  -11.2210  -25.5441 N   0  0  0  0  0  0  0  0  0  0  0  0
   23.3504  -10.1387  -24.6438 C   0  0  0  0  0  0  0  0  0  0  0  0
   24.1429   -9.1645  -24.6704 O   0  0  0  0  0  0  0  0  0  0  0  0
   22.1846  -10.2576  -23.7577 C   0  0  0  0  0  0  0  0  0  0  0  0
   22.5501   -9.6770  -22.3790 C   0  0  2  0  0  0  0  0  0  0  0  0
   23.4982  -10.5741  -21.8007 N   0  0  0  0  0  0  0  0  0  0  0  0
   21.3320   -9.4477  -21.5800 C   0  0  0  0  0  0  0  0  0  0  0  0
   20.2427   -9.7720  -22.1666 O   0  0  0  0  0  0  0  0  0  0  0  0
   19.1673  -15.1149  -19.7926 O   0  0  0  0  0  0  0  0  0  0  0  0
   19.3498  -13.7958  -19.4523 C   0  0  0  0  0  0  0  0  0  0  0  0
   18.2459  -12.9494  -19.4146 C   0  0  0  0  0  0  0  0  0  0  0  0
   18.4048  -11.6118  -19.0739 C   0  0  0  0  0  0  0  0  0  0  0  0
   19.6460  -11.0862  -18.7678 C   0  0  0  0  0  0  0  0  0  0  0  0
   19.8598   -9.6749  -18.4220 C   0  0  0  0  0  0  0  0  0  0  0  0
   20.0299   -8.7499  -19.6096 C   0  0  2  0  0  0  0  0  0  0  0  0
   21.2917   -8.9156  -20.2656 N   0  0  0  0  0  0  0  0  0  0  0  0
   19.8069   -7.3557  -19.1322 C   0  0  0  0  0  0  0  0  0  0  0  0
   20.7987   -6.7958  -18.5609 O   0  0  0  0  0  0  0  0  0  0  0  0
   20.7163  -11.9416  -18.8138 C   0  0  0  0  0  0  0  0  0  0  0  0
   20.5777  -13.2894  -19.1536 C   0  0  0  0  0  0  0  0  0  0  0  0
   16.1659    0.6394  -17.5206 O   0  0  0  0  0  0  0  0  0  0  0  0
   16.4471   -0.6483  -18.0071 C   0  0  0  0  0  0  0  0  0  0  0  0
   17.3339   -0.8210  -19.0709 C   0  0  0  0  0  0  0  0  0  0  0  0
   17.6023   -2.0992  -19.5425 C   0  0  0  0  0  0  0  0  0  0  0  0
   17.0320   -3.2338  -19.0117 C   0  0  0  0  0  0  0  0  0  0  0  0
   17.3137   -4.5921  -19.5186 C   0  0  0  0  0  0  0  0  0  0  0  0
   18.4254   -5.2849  -18.7429 C   0  0  2  0  0  0  0  0  0  0  0  0
   18.6165   -6.6345  -19.2627 N   0  0  0  0  0  0  0  0  0  0  0  0
   18.0951   -5.3437  -17.3127 C   0  0  0  0  0  0  0  0  0  0  0  0
   17.4041   -6.2676  -16.8303 O   0  0  0  0  0  0  0  0  0  0  0  0
   16.1513   -3.0281  -17.9515 C   0  0  0  0  0  0  0  0  0  0  0  0
   15.8713   -1.7663  -17.4671 C   0  0  0  0  0  0  0  0  0  0  0  0
   18.5518   -4.3510  -16.4294 O   0  0  0  0  0  0  0  0  0  0  0  0
  2  1  1  0
  3  2  2  0
  4  5  1  0
  4  2  1  0
  5  6  1  1
  7  5  1  0
  7  8  2  0
  9 10  1  0
 10 11  2  0
 11 12  1  0
 13 12  2  0
 13 14  1  0
 15 14  1  1
 15 16  1  0
 16  7  1  0
 17 15  1  0
 18 17  2  0
 19 13  1  0
 20 10  1  0
 20 19  2  0
 22 21  1  0
 22 23  2  0
 24 23  1  0
 25 24  2  0
 26 25  1  0
 27 28  1  0
 27 26  1  6
 28 17  1  0
 29 27  1  0
 30 29  2  0
 31 32  2  0
 31 25  1  0
 32 22  1  0
 33 29  1  0
M  END
$$$$
