LSP.pdb
     RDKit          3D

 22 22  0  0  1  0  0  0  0  0999 V2000
   15.9547  -26.1361    5.7726 C   0  0  0  0  0  0  0  0  0  0  0  0
   17.3316  -26.7231    5.5001 C   0  0  2  0  0  0  0  0  0  0  0  0
   17.8051  -27.3633    6.7972 C   0  0  0  0  0  0  0  0  0  0  0  0
   18.2978  -25.6540    5.0477 C   0  0  0  0  0  0  0  0  0  0  0  0
   17.8150  -24.9345    3.8249 C   0  0  2  0  0  0  0  0  0  0  0  0
   18.1932  -25.6820    2.6505 N   0  0  0  0  0  0  0  0  0  0  0  0
   18.3682  -23.5359    3.7679 C   0  0  0  0  0  0  0  0  0  0  0  0
   19.5655  -23.4168    3.4610 O   0  0  0  0  0  0  0  0  0  0  0  0
   17.5385  -18.9640    2.9115 O   0  0  0  0  0  0  0  0  0  0  0  0
   17.1142  -20.2775    3.0927 C   0  0  0  0  0  0  0  0  0  0  0  0
   18.0146  -21.0494    4.0365 C   0  0  2  0  0  0  0  0  0  0  0  0
   17.5725  -22.4178    4.0472 N   0  0  0  0  0  0  0  0  0  0  0  0
   18.0958  -20.4404    5.3788 C   0  0  0  0  0  0  0  0  0  0  0  0
   17.0753  -20.2746    6.1067 O   0  0  0  0  0  0  0  0  0  0  0  0
   19.3386  -20.0209    5.8970 N   0  0  0  0  0  0  0  0  0  0  0  0
   20.6324  -20.3777    5.2836 C   0  0  0  0  0  0  0  0  0  0  0  0
   21.2072  -18.9922    5.1085 C   0  0  0  0  0  0  0  0  0  0  0  0
   20.8451  -18.3435    6.4545 C   0  0  0  0  0  0  0  0  0  0  0  0
   19.7202  -19.2195    7.0266 C   0  0  1  0  0  0  0  0  0  0  0  0
   18.7243  -18.3375    7.6068 C   0  0  0  0  0  0  0  0  0  0  0  0
   18.7131  -17.7648    8.8450 O   0  0  0  0  0  0  0  0  0  0  0  0
   17.7173  -18.0577    6.8639 O   0  0  0  0  0  0  0  0  0  0  0  0
  2  1  1  1
  2  3  1  0
  4  2  1  0
  4  5  1  0
  5  6  1  6
  7  5  1  0
  8  7  2  0
  9 10  1  0
 11 12  1  0
 11 10  1  6
 12  7  1  0
 13 11  1  0
 14 13  2  0
 15 13  1  0
 16 15  1  0
 17 16  1  0
 17 18  1  0
 18 19  1  0
 19 15  1  0
 20 21  1  0
 19 20  1  6
 22 20  2  0
M  END
$$$$
