LSP.pdb
     RDKit          3D

 22 22  0  0  1  0  0  0  0  0999 V2000
   24.6418  -23.5852  -13.0820 C   0  0  0  0  0  0  0  0  0  0  0  0
   25.1868  -22.3492  -13.7821 C   0  0  2  0  0  0  0  0  0  0  0  0
   25.9289  -22.8322  -15.0202 C   0  0  0  0  0  0  0  0  0  0  0  0
   26.1109  -21.5736  -12.8735 C   0  0  0  0  0  0  0  0  0  0  0  0
   25.4195  -21.1033  -11.6298 C   0  0  2  0  0  0  0  0  0  0  0  0
   24.3014  -20.2669  -11.9922 N   0  0  0  0  0  0  0  0  0  0  0  0
   26.3715  -20.3609  -10.7309 C   0  0  0  0  0  0  0  0  0  0  0  0
   27.0886  -19.4974  -11.2619 O   0  0  0  0  0  0  0  0  0  0  0  0
   25.6084  -18.2366   -7.7704 O   0  0  0  0  0  0  0  0  0  0  0  0
   26.8059  -18.4507   -8.4474 C   0  0  0  0  0  0  0  0  0  0  0  0
   27.2413  -19.9018   -8.4045 C   0  0  2  0  0  0  0  0  0  0  0  0
   26.4478  -20.6287   -9.3583 N   0  0  0  0  0  0  0  0  0  0  0  0
   27.2047  -20.4720   -7.0433 C   0  0  0  0  0  0  0  0  0  0  0  0
   26.1293  -20.8620   -6.5045 O   0  0  0  0  0  0  0  0  0  0  0  0
   28.3917  -20.6020   -6.2929 N   0  0  0  0  0  0  0  0  0  0  0  0
   29.7352  -20.6263   -6.9027 C   0  0  0  0  0  0  0  0  0  0  0  0
   30.3771  -19.5067   -6.1183 C   0  0  0  0  0  0  0  0  0  0  0  0
   29.8817  -19.8133   -4.6955 C   0  0  0  0  0  0  0  0  0  0  0  0
   28.6657  -20.7319   -4.8886 C   0  0  1  0  0  0  0  0  0  0  0  0
   27.6409  -20.3123   -3.9504 C   0  0  0  0  0  0  0  0  0  0  0  0
   27.4667  -20.6962   -2.6529 O   0  0  0  0  0  0  0  0  0  0  0  0
   26.7801  -19.4719   -4.3941 O   0  0  0  0  0  0  0  0  0  0  0  0
  2  1  1  1
  2  3  1  0
  4  2  1  0
  4  5  1  0
  5  6  1  6
  7  5  1  0
  8  7  2  0
  9 10  1  0
 11 12  1  0
 11 10  1  1
 12  7  1  0
 13 11  1  0
 14 13  2  0
 15 13  1  0
 16 15  1  0
 17 16  1  0
 17 18  1  0
 18 19  1  0
 19 15  1  0
 20 21  1  0
 19 20  1  1
 22 20  2  0
M  END
$$$$
