LSP.pdb
     RDKit          3D

 22 22  0  0  1  0  0  0  0  0999 V2000
   24.6863  -23.9892  -19.2818 C   0  0  0  0  0  0  0  0  0  0  0  0
   24.1387  -25.0354  -18.3225 C   0  0  2  0  0  0  0  0  0  0  0  0
   22.6396  -25.1232  -18.5712 C   0  0  0  0  0  0  0  0  0  0  0  0
   24.4213  -24.6575  -16.8878 C   0  0  0  0  0  0  0  0  0  0  0  0
   25.8868  -24.4858  -16.6251 C   0  0  2  0  0  0  0  0  0  0  0  0
   26.5224  -25.7806  -16.6005 N   0  0  0  0  0  0  0  0  0  0  0  0
   26.1210  -23.7521  -15.3320 C   0  0  0  0  0  0  0  0  0  0  0  0
   26.0785  -24.4239  -14.2886 O   0  0  0  0  0  0  0  0  0  0  0  0
   26.7108  -19.5566  -15.4443 O   0  0  0  0  0  0  0  0  0  0  0  0
   27.2931  -20.3412  -14.4526 C   0  0  0  0  0  0  0  0  0  0  0  0
   26.4594  -21.5623  -14.1195 C   0  0  2  0  0  0  0  0  0  0  0  0
   26.3757  -22.3752  -15.3028 N   0  0  0  0  0  0  0  0  0  0  0  0
   25.1458  -21.2197  -13.5395 C   0  0  0  0  0  0  0  0  0  0  0  0
   24.1626  -20.8732  -14.2552 O   0  0  0  0  0  0  0  0  0  0  0  0
   24.9472  -21.2728  -12.1443 N   0  0  0  0  0  0  0  0  0  0  0  0
   25.9636  -21.7780  -11.2014 C   0  0  0  0  0  0  0  0  0  0  0  0
   26.0527  -20.5850  -10.2797 C   0  0  0  0  0  0  0  0  0  0  0  0
   24.5675  -20.2277  -10.1053 C   0  0  0  0  0  0  0  0  0  0  0  0
   23.8555  -20.9061  -11.2854 C   0  0  1  0  0  0  0  0  0  0  0  0
   22.8648  -19.9773  -11.7975 C   0  0  0  0  0  0  0  0  0  0  0  0
   21.6577  -19.6387  -11.2594 O   0  0  0  0  0  0  0  0  0  0  0  0
   23.1545  -19.3967  -12.9034 O   0  0  0  0  0  0  0  0  0  0  0  0
  2  1  1  6
  2  3  1  0
  4  2  1  0
  4  5  1  0
  5  6  1  1
  7  5  1  0
  8  7  2  0
  9 10  1  0
 11 12  1  0
 11 10  1  6
 12  7  1  0
 13 11  1  0
 14 13  2  0
 15 13  1  0
 16 15  1  0
 17 16  1  0
 17 18  1  0
 18 19  1  0
 19 15  1  0
 20 21  1  0
 19 20  1  6
 22 20  2  0
M  END
$$$$
