LSP.pdb
     RDKit          3D

 22 22  0  0  1  0  0  0  0  0999 V2000
   12.7568   -7.0882  -10.3010 C   0  0  0  0  0  0  0  0  0  0  0  0
   13.5216   -5.9965   -9.5676 C   0  0  2  0  0  0  0  0  0  0  0  0
   12.8222   -4.6806   -9.8776 C   0  0  0  0  0  0  0  0  0  0  0  0
   14.9646   -5.9525  -10.0114 C   0  0  0  0  0  0  0  0  0  0  0  0
   15.7089   -7.2003   -9.6438 C   0  0  2  0  0  0  0  0  0  0  0  0
   15.8769   -7.2517   -8.2119 N   0  0  0  0  0  0  0  0  0  0  0  0
   17.0422   -7.2582  -10.3396 C   0  0  0  0  0  0  0  0  0  0  0  0
   17.9481   -6.5443   -9.8796 O   0  0  0  0  0  0  0  0  0  0  0  0
   19.5237   -9.4131  -13.9662 O   0  0  0  0  0  0  0  0  0  0  0  0
   18.4076   -9.3176  -13.1395 C   0  0  0  0  0  0  0  0  0  0  0  0
   18.4125   -8.0504  -12.3080 C   0  0  2  0  0  0  0  0  0  0  0  0
   17.2554   -8.0785  -11.4546 N   0  0  0  0  0  0  0  0  0  0  0  0
   18.5174   -6.8267  -13.1271 C   0  0  0  0  0  0  0  0  0  0  0  0
   17.5923   -6.4547  -13.9047 O   0  0  0  0  0  0  0  0  0  0  0  0
   19.6739   -6.0224  -13.0617 N   0  0  0  0  0  0  0  0  0  0  0  0
   20.6741   -6.1305  -11.9822 C   0  0  0  0  0  0  0  0  0  0  0  0
   21.9122   -6.3446  -12.8201 C   0  0  0  0  0  0  0  0  0  0  0  0
   21.7035   -5.3080  -13.9362 C   0  0  0  0  0  0  0  0  0  0  0  0
   20.2032   -4.9802  -13.8970 C   0  0  1  0  0  0  0  0  0  0  0  0
   19.7326   -4.8971  -15.2675 C   0  0  0  0  0  0  0  0  0  0  0  0
   19.8801   -3.8733  -16.1570 O   0  0  0  0  0  0  0  0  0  0  0  0
   19.0897   -5.9162  -15.7058 O   0  0  0  0  0  0  0  0  0  0  0  0
  2  1  1  6
  2  3  1  0
  4  2  1  0
  4  5  1  0
  5  6  1  1
  7  5  1  0
  8  7  2  0
  9 10  1  0
 11 12  1  0
 11 10  1  6
 12  7  1  0
 13 11  1  0
 14 13  2  0
 15 13  1  0
 16 15  1  0
 17 16  1  0
 17 18  1  0
 18 19  1  0
 19 15  1  0
 20 21  1  0
 19 20  1  6
 22 20  2  0
M  END
$$$$
