LSP.pdb
     RDKit          3D

 22 22  0  0  1  0  0  0  0  0999 V2000
   23.5341  -13.5236  -13.9524 C   0  0  0  0  0  0  0  0  0  0  0  0
   22.8310  -13.9828  -15.2210 C   0  0  2  0  0  0  0  0  0  0  0  0
   23.6110  -15.1770  -15.7525 C   0  0  0  0  0  0  0  0  0  0  0  0
   22.7839  -12.8755  -16.2471 C   0  0  0  0  0  0  0  0  0  0  0  0
   21.3817  -12.5454  -16.6606 C   0  0  2  0  0  0  0  0  0  0  0  0
   20.9373  -13.5002  -17.6464 N   0  0  0  0  0  0  0  0  0  0  0  0
   21.2939  -11.1427  -17.1992 C   0  0  0  0  0  0  0  0  0  0  0  0
   21.3291  -11.0110  -18.4334 O   0  0  0  0  0  0  0  0  0  0  0  0
   19.3063   -7.3911  -18.0082 O   0  0  0  0  0  0  0  0  0  0  0  0
   19.6490   -8.6694  -17.5762 C   0  0  0  0  0  0  0  0  0  0  0  0
   20.9310   -8.6806  -16.7678 C   0  0  2  0  0  0  0  0  0  0  0  0
   21.1775  -10.0346  -16.3507 N   0  0  0  0  0  0  0  0  0  0  0  0
   20.9170   -7.7094  -15.6561 C   0  0  0  0  0  0  0  0  0  0  0  0
   20.0259   -7.7243  -14.7590 O   0  0  0  0  0  0  0  0  0  0  0  0
   21.9179   -6.7205  -15.5611 N   0  0  0  0  0  0  0  0  0  0  0  0
   23.1805   -6.7721  -16.3232 C   0  0  0  0  0  0  0  0  0  0  0  0
   23.1132   -5.4211  -16.9947 C   0  0  0  0  0  0  0  0  0  0  0  0
   22.6423   -4.5306  -15.8332 C   0  0  0  0  0  0  0  0  0  0  0  0
   22.0378   -5.5025  -14.8086 C   0  0  1  0  0  0  0  0  0  0  0  0
   20.8252   -4.8986  -14.2877 C   0  0  0  0  0  0  0  0  0  0  0  0
   20.6621   -4.1623  -13.1508 O   0  0  0  0  0  0  0  0  0  0  0  0
   19.7621   -5.0795  -14.9813 O   0  0  0  0  0  0  0  0  0  0  0  0
  2  1  1  1
  2  3  1  0
  4  2  1  0
  4  5  1  0
  5  6  1  6
  7  5  1  0
  8  7  2  0
  9 10  1  0
 11 12  1  0
 11 10  1  1
 12  7  1  0
 13 11  1  0
 14 13  2  0
 15 13  1  0
 16 15  1  0
 17 16  1  0
 17 18  1  0
 18 19  1  0
 19 15  1  0
 20 21  1  0
 19 20  1  6
 22 20  2  0
M  END
$$$$
