LSP.pdb
     RDKit          3D

 22 22  0  0  1  0  0  0  0  0999 V2000
   37.4647   -8.4820   -8.7071 C   0  0  0  0  0  0  0  0  0  0  0  0
   38.7578   -9.2254   -8.4071 C   0  0  2  0  0  0  0  0  0  0  0  0
   38.6776  -10.5632   -9.1287 C   0  0  0  0  0  0  0  0  0  0  0  0
   38.9349   -9.4293   -6.9212 C   0  0  0  0  0  0  0  0  0  0  0  0
   40.2479  -10.0714   -6.5898 C   0  0  2  0  0  0  0  0  0  0  0  0
   40.3515  -10.2363   -5.1604 N   0  0  0  0  0  0  0  0  0  0  0  0
   41.3967   -9.2542   -7.1169 C   0  0  0  0  0  0  0  0  0  0  0  0
   41.5773   -8.1394   -6.6008 O   0  0  0  0  0  0  0  0  0  0  0  0
   45.6906   -9.4696   -9.2201 O   0  0  0  0  0  0  0  0  0  0  0  0
   44.5022  -10.0510   -8.7866 C   0  0  0  0  0  0  0  0  0  0  0  0
   43.3754   -9.0438   -8.6726 C   0  0  2  0  0  0  0  0  0  0  0  0
   42.2261   -9.7261   -8.1420 N   0  0  0  0  0  0  0  0  0  0  0  0
   43.1119   -8.3315   -9.9385 C   0  0  0  0  0  0  0  0  0  0  0  0
   42.6930   -8.9268  -10.9724 O   0  0  0  0  0  0  0  0  0  0  0  0
   43.3223   -6.9401  -10.0303 N   0  0  0  0  0  0  0  0  0  0  0  0
   43.4850   -6.0673   -8.8516 C   0  0  0  0  0  0  0  0  0  0  0  0
   44.8044   -5.4243   -9.2070 C   0  0  0  0  0  0  0  0  0  0  0  0
   44.5980   -5.1183  -10.6995 C   0  0  0  0  0  0  0  0  0  0  0  0
   43.4382   -6.0273  -11.1337 C   0  0  1  0  0  0  0  0  0  0  0  0
   43.7665   -6.5706  -12.4388 C   0  0  0  0  0  0  0  0  0  0  0  0
   44.3924   -7.7452  -12.7384 O   0  0  0  0  0  0  0  0  0  0  0  0
   43.4291   -5.8558  -13.4484 O   0  0  0  0  0  0  0  0  0  0  0  0
  2  1  1  1
  2  3  1  0
  4  2  1  0
  4  5  1  0
  5  6  1  1
  7  5  1  0
  8  7  2  0
  9 10  1  0
 11 12  1  0
 11 10  1  6
 12  7  1  0
 13 11  1  0
 14 13  2  0
 15 13  1  0
 16 15  1  0
 17 16  1  0
 17 18  1  0
 18 19  1  0
 19 15  1  0
 20 21  1  0
 19 20  1  6
 22 20  2  0
M  END
$$$$
