LSP.pdb
     RDKit          3D

 22 22  0  0  1  0  0  0  0  0999 V2000
   28.1849  -21.9648  -17.4780 C   0  0  0  0  0  0  0  0  0  0  0  0
   27.9353  -22.0906  -15.9825 C   0  0  2  0  0  0  0  0  0  0  0  0
   26.9540  -23.2385  -15.7920 C   0  0  0  0  0  0  0  0  0  0  0  0
   27.3743  -20.8081  -15.4157 C   0  0  0  0  0  0  0  0  0  0  0  0
   26.0169  -20.4912  -15.9662 C   0  0  2  0  0  0  0  0  0  0  0  0
   26.1526  -19.5794  -17.0758 N   0  0  0  0  0  0  0  0  0  0  0  0
   25.1257  -19.9080  -14.9027 C   0  0  0  0  0  0  0  0  0  0  0  0
   25.2731  -18.7024  -14.6444 O   0  0  0  0  0  0  0  0  0  0  0  0
   21.6277  -20.0073  -14.9837 O   0  0  0  0  0  0  0  0  0  0  0  0
   22.2138  -19.3621  -13.8982 C   0  0  0  0  0  0  0  0  0  0  0  0
   23.2671  -20.2153  -13.2201 C   0  0  2  0  0  0  0  0  0  0  0  0
   24.1726  -20.6859  -14.2333 N   0  0  0  0  0  0  0  0  0  0  0  0
   22.6881  -21.2928  -12.3935 C   0  0  0  0  0  0  0  0  0  0  0  0
   22.0146  -22.2385  -12.8941 O   0  0  0  0  0  0  0  0  0  0  0  0
   22.8762  -21.2978  -10.9958 N   0  0  0  0  0  0  0  0  0  0  0  0
   24.0247  -20.6515  -10.3321 C   0  0  0  0  0  0  0  0  0  0  0  0
   23.2773  -19.7631   -9.3662 C   0  0  0  0  0  0  0  0  0  0  0  0
   22.1921  -20.7231   -8.8520 C   0  0  0  0  0  0  0  0  0  0  0  0
   22.1282  -21.8459   -9.8985 C   0  0  1  0  0  0  0  0  0  0  0  0
   20.7299  -22.1677  -10.1173 C   0  0  0  0  0  0  0  0  0  0  0  0
   19.9551  -23.0815   -9.4648 O   0  0  0  0  0  0  0  0  0  0  0  0
   20.1392  -21.5122  -11.0475 O   0  0  0  0  0  0  0  0  0  0  0  0
  2  1  1  6
  2  3  1  0
  4  2  1  0
  4  5  1  0
  5  6  1  6
  7  5  1  0
  8  7  2  0
  9 10  1  0
 11 12  1  0
 11 10  1  6
 12  7  1  0
 13 11  1  0
 14 13  2  0
 15 13  1  0
 16 15  1  0
 17 16  1  0
 17 18  1  0
 18 19  1  0
 19 15  1  0
 20 21  1  0
 19 20  1  6
 22 20  2  0
M  END
$$$$
