LSP.pdb
     RDKit          3D

 22 22  0  0  1  0  0  0  0  0999 V2000
   21.9434  -17.8330  -19.5552 C   0  0  0  0  0  0  0  0  0  0  0  0
   23.3215  -17.3365  -19.1442 C   0  0  2  0  0  0  0  0  0  0  0  0
   24.3145  -17.9023  -20.1496 C   0  0  0  0  0  0  0  0  0  0  0  0
   23.6649  -17.7849  -17.7434 C   0  0  0  0  0  0  0  0  0  0  0  0
   22.6684  -17.3020  -16.7336 C   0  0  2  0  0  0  0  0  0  0  0  0
   22.7412  -15.8642  -16.6407 N   0  0  0  0  0  0  0  0  0  0  0  0
   22.9107  -17.9360  -15.3902 C   0  0  0  0  0  0  0  0  0  0  0  0
   23.7059  -17.3588  -14.6311 O   0  0  0  0  0  0  0  0  0  0  0  0
   20.4939  -19.4947  -12.5006 O   0  0  0  0  0  0  0  0  0  0  0  0
   21.1758  -20.3964  -13.3131 C   0  0  0  0  0  0  0  0  0  0  0  0
   22.5057  -19.8496  -13.7921 C   0  0  2  0  0  0  0  0  0  0  0  0
   22.2705  -19.1223  -15.0101 N   0  0  0  0  0  0  0  0  0  0  0  0
   23.5446  -20.8914  -13.9130 C   0  0  0  0  0  0  0  0  0  0  0  0
   23.5484  -21.7333  -14.8564 O   0  0  0  0  0  0  0  0  0  0  0  0
   24.5828  -20.9762  -12.9623 N   0  0  0  0  0  0  0  0  0  0  0  0
   24.8917  -19.8975  -12.0039 C   0  0  0  0  0  0  0  0  0  0  0  0
   24.8106  -20.6857  -10.7182 C   0  0  0  0  0  0  0  0  0  0  0  0
   25.5603  -21.9710  -11.1051 C   0  0  0  0  0  0  0  0  0  0  0  0
   25.5506  -21.9883  -12.6412 C   0  0  1  0  0  0  0  0  0  0  0  0
   25.2828  -23.3498  -13.0667 C   0  0  0  0  0  0  0  0  0  0  0  0
   26.1193  -24.4274  -13.0469 O   0  0  0  0  0  0  0  0  0  0  0  0
   24.1072  -23.5763  -13.5258 O   0  0  0  0  0  0  0  0  0  0  0  0
  2  1  1  6
  2  3  1  0
  4  2  1  0
  4  5  1  0
  5  6  1  1
  7  5  1  0
  8  7  2  0
  9 10  1  0
 11 12  1  0
 11 10  1  6
 12  7  1  0
 13 11  1  0
 14 13  2  0
 15 13  1  0
 16 15  1  0
 17 16  1  0
 17 18  1  0
 18 19  1  0
 19 15  1  0
 20 21  1  0
 19 20  1  1
 22 20  2  0
M  END
$$$$
