LSP.pdb
     RDKit          3D

 22 22  0  0  1  0  0  0  0  0999 V2000
   23.9954  -20.9906   -9.7411 C   0  0  0  0  0  0  0  0  0  0  0  0
   25.4818  -21.2581   -9.5576 C   0  0  2  0  0  0  0  0  0  0  0  0
   25.8946  -20.5905   -8.2535 C   0  0  0  0  0  0  0  0  0  0  0  0
   26.2797  -20.7078  -10.7158 C   0  0  0  0  0  0  0  0  0  0  0  0
   25.8403  -21.2799  -12.0294 C   0  0  2  0  0  0  0  0  0  0  0  0
   26.3480  -22.6240  -12.1586 N   0  0  0  0  0  0  0  0  0  0  0  0
   26.3058  -20.4217  -13.1748 C   0  0  0  0  0  0  0  0  0  0  0  0
   27.5259  -20.2053  -13.2558 O   0  0  0  0  0  0  0  0  0  0  0  0
   26.8188  -20.8163  -16.4204 O   0  0  0  0  0  0  0  0  0  0  0  0
   25.8048  -19.8634  -16.4629 C   0  0  0  0  0  0  0  0  0  0  0  0
   25.7504  -19.0225  -15.2031 C   0  0  2  0  0  0  0  0  0  0  0  0
   25.4075  -19.8898  -14.1085 N   0  0  0  0  0  0  0  0  0  0  0  0
   24.8626  -17.8503  -15.3333 C   0  0  0  0  0  0  0  0  0  0  0  0
   23.6146  -17.9652  -15.5013 O   0  0  0  0  0  0  0  0  0  0  0  0
   25.3922  -16.5448  -15.2703 N   0  0  0  0  0  0  0  0  0  0  0  0
   26.7132  -16.2351  -14.6901 C   0  0  0  0  0  0  0  0  0  0  0  0
   27.3264  -15.5045  -15.8609 C   0  0  0  0  0  0  0  0  0  0  0  0
   26.1567  -14.6107  -16.3043 C   0  0  0  0  0  0  0  0  0  0  0  0
   24.9074  -15.2587  -15.6886 C   0  0  1  0  0  0  0  0  0  0  0  0
   23.8513  -15.2167  -16.6834 C   0  0  0  0  0  0  0  0  0  0  0  0
   22.7045  -14.4778  -16.6758 O   0  0  0  0  0  0  0  0  0  0  0  0
   24.0093  -15.9739  -17.7060 O   0  0  0  0  0  0  0  0  0  0  0  0
  2  1  1  6
  2  3  1  0
  4  2  1  0
  4  5  1  0
  5  6  1  6
  7  5  1  0
  8  7  2  0
  9 10  1  0
 11 12  1  0
 11 10  1  6
 12  7  1  0
 13 11  1  0
 14 13  2  0
 15 13  1  0
 16 15  1  0
 17 16  1  0
 17 18  1  0
 18 19  1  0
 19 15  1  0
 20 21  1  0
 19 20  1  6
 22 20  2  0
M  END
$$$$
