LSP.pdb
     RDKit          3D

 22 22  0  0  1  0  0  0  0  0999 V2000
   16.9836  -14.8943  -19.1136 C   0  0  0  0  0  0  0  0  0  0  0  0
   18.4476  -14.7450  -19.4995 C   0  0  2  0  0  0  0  0  0  0  0  0
   18.7925  -15.9261  -20.3954 C   0  0  0  0  0  0  0  0  0  0  0  0
   19.3325  -14.7261  -18.2757 C   0  0  0  0  0  0  0  0  0  0  0  0
   20.7849  -14.6147  -18.6282 C   0  0  2  0  0  0  0  0  0  0  0  0
   21.3942  -15.9206  -18.5607 N   0  0  0  0  0  0  0  0  0  0  0  0
   21.4899  -13.6494  -17.7136 C   0  0  0  0  0  0  0  0  0  0  0  0
   21.7103  -14.0329  -16.5533 O   0  0  0  0  0  0  0  0  0  0  0  0
   24.5028   -9.9308  -17.5303 O   0  0  0  0  0  0  0  0  0  0  0  0
   23.7256  -10.8616  -18.2141 C   0  0  0  0  0  0  0  0  0  0  0  0
   22.5954  -11.4055  -17.3633 C   0  0  2  0  0  0  0  0  0  0  0  0
   21.8811  -12.3765  -18.1474 N   0  0  0  0  0  0  0  0  0  0  0  0
   21.7353  -10.3438  -16.8045 C   0  0  0  0  0  0  0  0  0  0  0  0
   20.9614   -9.6529  -17.5274 O   0  0  0  0  0  0  0  0  0  0  0  0
   21.7521  -10.0672  -15.4217 N   0  0  0  0  0  0  0  0  0  0  0  0
   22.3460  -10.9762  -14.4224 C   0  0  0  0  0  0  0  0  0  0  0  0
   23.2987  -10.0129  -13.7552 C   0  0  0  0  0  0  0  0  0  0  0  0
   22.4157   -8.7617  -13.6191 C   0  0  0  0  0  0  0  0  0  0  0  0
   21.2743   -8.9708  -14.6257 C   0  0  1  0  0  0  0  0  0  0  0  0
   21.0293   -7.7020  -15.2866 C   0  0  0  0  0  0  0  0  0  0  0  0
   20.4388   -6.5803  -14.7824 O   0  0  0  0  0  0  0  0  0  0  0  0
   21.4135   -7.6183  -16.5070 O   0  0  0  0  0  0  0  0  0  0  0  0
  2  1  1  1
  2  3  1  0
  4  2  1  0
  4  5  1  0
  5  6  1  1
  7  5  1  0
  8  7  2  0
  9 10  1  0
 11 12  1  0
 11 10  1  6
 12  7  1  0
 13 11  1  0
 14 13  2  0
 15 13  1  0
 16 15  1  0
 17 16  1  0
 17 18  1  0
 18 19  1  0
 19 15  1  0
 20 21  1  0
 19 20  1  6
 22 20  2  0
M  END
$$$$
