LSP.pdb
     RDKit          3D

 22 22  0  0  1  0  0  0  0  0999 V2000
   17.1775  -14.0466  -20.2845 C   0  0  0  0  0  0  0  0  0  0  0  0
   17.7715  -14.9484  -19.2127 C   0  0  2  0  0  0  0  0  0  0  0  0
   16.6114  -15.6921  -18.5664 C   0  0  0  0  0  0  0  0  0  0  0  0
   18.5295  -14.1429  -18.1842 C   0  0  0  0  0  0  0  0  0  0  0  0
   19.6393  -13.3431  -18.7964 C   0  0  2  0  0  0  0  0  0  0  0  0
   20.6365  -14.2394  -19.3287 N   0  0  0  0  0  0  0  0  0  0  0  0
   20.2485  -12.4057  -17.7886 C   0  0  0  0  0  0  0  0  0  0  0  0
   19.5926  -12.1849  -16.7576 O   0  0  0  0  0  0  0  0  0  0  0  0
   24.2324  -12.1555  -16.8912 O   0  0  0  0  0  0  0  0  0  0  0  0
   23.6524  -10.9880  -17.3799 C   0  0  0  0  0  0  0  0  0  0  0  0
   22.1663  -10.9175  -17.0907 C   0  0  2  0  0  0  0  0  0  0  0  0
   21.4973  -11.8081  -18.0002 N   0  0  0  0  0  0  0  0  0  0  0  0
   21.6415   -9.5379  -17.1158 C   0  0  0  0  0  0  0  0  0  0  0  0
   21.5587   -8.8675  -18.1847 O   0  0  0  0  0  0  0  0  0  0  0  0
   21.2077   -8.9188  -15.9252 N   0  0  0  0  0  0  0  0  0  0  0  0
   20.9698   -9.6572  -14.6700 C   0  0  0  0  0  0  0  0  0  0  0  0
   21.8612   -8.8599  -13.7477 C   0  0  0  0  0  0  0  0  0  0  0  0
   21.5316   -7.4216  -14.1794 C   0  0  0  0  0  0  0  0  0  0  0  0
   20.8976   -7.5612  -15.5717 C   0  0  1  0  0  0  0  0  0  0  0  0
   21.4270   -6.4992  -16.4074 C   0  0  0  0  0  0  0  0  0  0  0  0
   20.9846   -5.2147  -16.5328 O   0  0  0  0  0  0  0  0  0  0  0  0
   22.4432   -6.8022  -17.1282 O   0  0  0  0  0  0  0  0  0  0  0  0
  2  1  1  6
  2  3  1  0
  4  2  1  0
  4  5  1  0
  5  6  1  1
  7  5  1  0
  8  7  2  0
  9 10  1  0
 11 12  1  0
 11 10  1  6
 12  7  1  0
 13 11  1  0
 14 13  2  0
 15 13  1  0
 16 15  1  0
 17 16  1  0
 17 18  1  0
 18 19  1  0
 19 15  1  0
 20 21  1  0
 19 20  1  6
 22 20  2  0
M  END
$$$$
