LSP.pdb
     RDKit          3D

 22 22  0  0  1  0  0  0  0  0999 V2000
   15.4225  -14.3129  -16.3202 C   0  0  0  0  0  0  0  0  0  0  0  0
   16.4384  -15.1280  -15.5340 C   0  0  2  0  0  0  0  0  0  0  0  0
   15.8276  -15.3969  -14.1659 C   0  0  0  0  0  0  0  0  0  0  0  0
   17.7451  -14.3827  -15.3989 C   0  0  0  0  0  0  0  0  0  0  0  0
   18.3479  -14.0499  -16.7300 C   0  0  2  0  0  0  0  0  0  0  0  0
   19.0003  -15.2201  -17.2647 N   0  0  0  0  0  0  0  0  0  0  0  0
   19.3182  -12.9054  -16.6121 C   0  0  0  0  0  0  0  0  0  0  0  0
   20.4678  -13.1797  -16.2313 O   0  0  0  0  0  0  0  0  0  0  0  0
   20.8617   -8.9362  -18.5043 O   0  0  0  0  0  0  0  0  0  0  0  0
   19.9805  -10.0060  -18.3737 C   0  0  0  0  0  0  0  0  0  0  0  0
   19.8238  -10.4516  -16.9335 C   0  0  2  0  0  0  0  0  0  0  0  0
   18.9456  -11.5902  -16.9173 N   0  0  0  0  0  0  0  0  0  0  0  0
   19.3966   -9.3586  -16.0378 C   0  0  0  0  0  0  0  0  0  0  0  0
   18.2362   -8.8591  -16.0898 O   0  0  0  0  0  0  0  0  0  0  0  0
   20.2878   -8.8333  -15.0793 N   0  0  0  0  0  0  0  0  0  0  0  0
   21.5657   -9.4796  -14.7235 C   0  0  0  0  0  0  0  0  0  0  0  0
   22.5006   -8.3197  -14.9715 C   0  0  0  0  0  0  0  0  0  0  0  0
   21.7166   -7.1598  -14.3362 C   0  0  0  0  0  0  0  0  0  0  0  0
   20.2680   -7.6631  -14.2460 C   0  0  1  0  0  0  0  0  0  0  0  0
   19.3946   -6.5680  -14.6258 C   0  0  0  0  0  0  0  0  0  0  0  0
   18.8944   -5.5683  -13.8438 O   0  0  0  0  0  0  0  0  0  0  0  0
   19.0397   -6.5307  -15.8574 O   0  0  0  0  0  0  0  0  0  0  0  0
  2  1  1  6
  2  3  1  0
  4  2  1  0
  4  5  1  0
  5  6  1  1
  7  5  1  0
  8  7  2  0
  9 10  1  0
 11 12  1  0
 11 10  1  6
 12  7  1  0
 13 11  1  0
 14 13  2  0
 15 13  1  0
 16 15  1  0
 17 16  1  0
 17 18  1  0
 18 19  1  0
 19 15  1  0
 20 21  1  0
 19 20  1  6
 22 20  2  0
M  END
$$$$
