HNA.pdb
     RDKit          3D

 24 24  0  0  1  0  0  0  0  0999 V2000
    8.9929  -16.4326   20.8212 N   0  0  0  0  0  0  0  0  0  0  0  0
    9.0015  -15.5108   21.9181 C   0  0  1  0  0  0  0  0  0  0  0  0
    7.7869  -14.5996   21.7439 C   0  0  0  0  0  0  0  0  0  0  0  0
    7.8827  -13.9393   20.4305 C   0  0  0  0  0  0  0  0  0  0  0  0
    8.4013  -12.7028   20.1880 C   0  0  0  0  0  0  0  0  0  0  0  0
    8.3142  -12.4445   18.8602 N   0  0  0  0  0  0  0  0  0  0  0  0
    7.7422  -13.5277   18.3040 C   0  0  0  0  0  0  0  0  0  0  0  0
    7.4771  -14.4445   19.2644 N   0  0  0  0  0  0  0  0  0  0  0  0
    8.8775  -16.1651   23.2268 C   0  0  0  0  0  0  0  0  0  0  0  0
    8.0772  -17.1377   23.3218 O   0  0  0  0  0  0  0  0  0  0  0  0
   12.7019  -19.2731   25.5492 N   0  0  0  0  0  0  0  0  0  0  0  0
   11.3424  -18.8757   25.6285 C   0  0  0  0  0  0  0  0  0  0  0  0
   10.6360  -19.4173   26.5082 O   0  0  0  0  0  0  0  0  0  0  0  0
   10.8681  -17.8589   24.6721 C   0  0  0  0  0  0  0  0  0  0  0  0
   10.0737  -16.7603   25.3382 C   0  0  2  0  0  0  0  0  0  0  0  0
    9.5985  -15.7760   24.3923 N   0  0  0  0  0  0  0  0  0  0  0  0
   10.8111  -16.1435   26.4588 C   0  0  0  0  0  0  0  0  0  0  0  0
   11.3921  -16.8747   27.2830 O   0  0  0  0  0  0  0  0  0  0  0  0
    9.0223  -13.4310   27.5361 C   0  0  0  0  0  0  0  0  0  0  0  0
   10.3733  -14.1169   27.7976 C   0  0  2  0  0  0  0  0  0  0  0  0
   10.8779  -14.7466   26.6248 N   0  0  0  0  0  0  0  0  0  0  0  0
   10.1883  -15.0054   28.9405 C   0  0  0  0  0  0  0  0  0  0  0  0
   10.6160  -14.6102   30.1920 O   0  0  0  0  0  0  0  0  0  0  0  0
    9.6506  -16.1276   28.8356 O   0  0  0  0  0  0  0  0  0  0  0  0
  2  1  1  6
  3  2  1  0
  4  8  1  0
  4  3  1  0
  5  4  2  0
  6  5  1  0
  6  7  1  0
  7  8  2  0
  9 10  2  0
  9  2  1  0
 12 14  1  0
 12 11  1  0
 13 12  2  0
 15 14  1  6
 15 16  1  0
 16  9  1  0
 17 15  1  0
 18 17  2  0
 20 19  1  6
 20 21  1  0
 21 17  1  0
 22 23  1  0
 22 20  1  0
 24 22  2  0
M  END
$$$$
