HNA.pdb
     RDKit          3D

 24 24  0  0  1  0  0  0  0  0999 V2000
    8.8842  -15.1702   20.6902 N   0  0  0  0  0  0  0  0  0  0  0  0
    8.0274  -14.3283   21.4713 C   0  0  1  0  0  0  0  0  0  0  0  0
    6.7455  -14.1255   20.6643 C   0  0  0  0  0  0  0  0  0  0  0  0
    7.1135  -13.7193   19.2969 C   0  0  0  0  0  0  0  0  0  0  0  0
    7.6145  -12.5079   18.9253 C   0  0  0  0  0  0  0  0  0  0  0  0
    7.8276  -12.5145   17.5867 N   0  0  0  0  0  0  0  0  0  0  0  0
    7.4540  -13.7320   17.1533 C   0  0  0  0  0  0  0  0  0  0  0  0
    7.0162  -14.4716   18.1995 N   0  0  0  0  0  0  0  0  0  0  0  0
    7.6479  -14.9224   22.7595 C   0  0  0  0  0  0  0  0  0  0  0  0
    6.6039  -14.4860   23.3208 O   0  0  0  0  0  0  0  0  0  0  0  0
    7.3962  -17.3975   27.1944 N   0  0  0  0  0  0  0  0  0  0  0  0
    7.3091  -18.3329   26.1313 C   0  0  0  0  0  0  0  0  0  0  0  0
    6.9792  -19.5044   26.4227 O   0  0  0  0  0  0  0  0  0  0  0  0
    7.6129  -17.8546   24.7703 C   0  0  0  0  0  0  0  0  0  0  0  0
    8.0138  -16.3985   24.7420 C   0  0  2  0  0  0  0  0  0  0  0  0
    8.3779  -15.9554   23.4152 N   0  0  0  0  0  0  0  0  0  0  0  0
    9.0605  -16.0917   25.7371 C   0  0  0  0  0  0  0  0  0  0  0  0
   10.2108  -16.5395   25.5707 O   0  0  0  0  0  0  0  0  0  0  0  0
    9.5050  -13.5468   28.4279 C   0  0  0  0  0  0  0  0  0  0  0  0
    9.8449  -14.8780   27.7377 C   0  0  2  0  0  0  0  0  0  0  0  0
    8.7963  -15.3042   26.8744 N   0  0  0  0  0  0  0  0  0  0  0  0
   10.1992  -15.8268   28.7885 C   0  0  0  0  0  0  0  0  0  0  0  0
   11.2041  -15.5157   29.6823 O   0  0  0  0  0  0  0  0  0  0  0  0
    9.6240  -16.9276   28.9180 O   0  0  0  0  0  0  0  0  0  0  0  0
  2  1  1  6
  3  2  1  0
  4  8  1  0
  4  3  1  0
  5  4  2  0
  6  5  1  0
  6  7  1  0
  7  8  2  0
  9 10  2  0
  9  2  1  0
 12 14  1  0
 12 11  1  0
 13 12  2  0
 15 14  1  6
 15 16  1  0
 16  9  1  0
 17 15  1  0
 18 17  2  0
 20 19  1  1
 20 21  1  0
 21 17  1  0
 22 23  1  0
 22 20  1  0
 24 22  2  0
M  END
$$$$
