HNA.pdb
     RDKit          3D

 24 24  0  0  1  0  0  0  0  0999 V2000
   11.3150  -16.0327   10.9592 N   0  0  0  0  0  0  0  0  0  0  0  0
   11.6692  -15.1437   12.0256 C   0  0  1  0  0  0  0  0  0  0  0  0
   10.5615  -15.2417   13.0740 C   0  0  0  0  0  0  0  0  0  0  0  0
    9.4565  -14.3549   12.6705 C   0  0  0  0  0  0  0  0  0  0  0  0
    9.4382  -13.5379   11.5802 C   0  0  0  0  0  0  0  0  0  0  0  0
    8.2530  -12.8812   11.5453 N   0  0  0  0  0  0  0  0  0  0  0  0
    7.5578  -13.3045   12.6165 C   0  0  0  0  0  0  0  0  0  0  0  0
    8.2935  -14.2074   13.3071 N   0  0  0  0  0  0  0  0  0  0  0  0
   12.9320  -15.5016   12.6839 C   0  0  0  0  0  0  0  0  0  0  0  0
   13.2306  -16.7272   12.7512 O   0  0  0  0  0  0  0  0  0  0  0  0
   17.1966  -12.3776   12.2474 N   0  0  0  0  0  0  0  0  0  0  0  0
   16.6668  -13.6657   12.5174 C   0  0  0  0  0  0  0  0  0  0  0  0
   16.6937  -14.5040   11.5886 O   0  0  0  0  0  0  0  0  0  0  0  0
   16.1273  -13.9165   13.8662 C   0  0  0  0  0  0  0  0  0  0  0  0
   15.0675  -14.9928   13.8773 C   0  0  2  0  0  0  0  0  0  0  0  0
   13.8394  -14.5601   13.2497 N   0  0  0  0  0  0  0  0  0  0  0  0
   14.8389  -15.5326   15.2324 C   0  0  0  0  0  0  0  0  0  0  0  0
   13.7394  -15.3445   15.7868 O   0  0  0  0  0  0  0  0  0  0  0  0
   14.4021  -17.7169   17.2739 C   0  0  0  0  0  0  0  0  0  0  0  0
   15.6035  -16.7582   17.2335 C   0  0  2  0  0  0  0  0  0  0  0  0
   15.8312  -16.2572   15.9206 N   0  0  0  0  0  0  0  0  0  0  0  0
   16.7349  -17.4643   17.8262 C   0  0  0  0  0  0  0  0  0  0  0  0
   16.6626  -17.8980   19.1347 O   0  0  0  0  0  0  0  0  0  0  0  0
   17.7846  -17.6982   17.1916 O   0  0  0  0  0  0  0  0  0  0  0  0
  2  1  1  6
  3  2  1  0
  4  8  1  0
  4  3  1  0
  5  4  2  0
  6  5  1  0
  6  7  1  0
  7  8  2  0
  9 10  2  0
  9  2  1  0
 12 14  1  0
 12 11  1  0
 13 12  2  0
 15 14  1  1
 15 16  1  0
 16  9  1  0
 17 15  1  0
 18 17  2  0
 20 19  1  6
 20 21  1  0
 21 17  1  0
 22 23  1  0
 22 20  1  0
 24 22  2  0
M  END
$$$$
