HNA.pdb
     RDKit          3D

 24 24  0  0  1  0  0  0  0  0999 V2000
    7.5127  -16.8308   19.9695 N   0  0  0  0  0  0  0  0  0  0  0  0
    8.2187  -15.8813   20.7775 C   0  0  1  0  0  0  0  0  0  0  0  0
    7.4824  -14.5487   20.6451 C   0  0  0  0  0  0  0  0  0  0  0  0
    7.7879  -13.9754   19.3229 C   0  0  0  0  0  0  0  0  0  0  0  0
    8.4621  -12.8153   19.0857 C   0  0  0  0  0  0  0  0  0  0  0  0
    8.5440  -12.6228   17.7465 N   0  0  0  0  0  0  0  0  0  0  0  0
    7.9180  -13.6690   17.1780 C   0  0  0  0  0  0  0  0  0  0  0  0
    7.4540  -14.4988   18.1422 N   0  0  0  0  0  0  0  0  0  0  0  0
    8.2391  -16.2340   22.2028 C   0  0  0  0  0  0  0  0  0  0  0  0
    7.1375  -16.5188   22.7514 O   0  0  0  0  0  0  0  0  0  0  0  0
    9.2585  -19.1235   26.6367 N   0  0  0  0  0  0  0  0  0  0  0  0
   10.2520  -18.2819   26.0733 C   0  0  0  0  0  0  0  0  0  0  0  0
   11.1562  -17.8713   26.8348 O   0  0  0  0  0  0  0  0  0  0  0  0
   10.1431  -17.9572   24.6393 C   0  0  0  0  0  0  0  0  0  0  0  0
    9.3612  -16.6894   24.3884 C   0  0  2  0  0  0  0  0  0  0  0  0
    9.4161  -16.2757   23.0045 N   0  0  0  0  0  0  0  0  0  0  0  0
    9.7537  -15.6039   25.3089 C   0  0  0  0  0  0  0  0  0  0  0  0
   10.8601  -15.0504   25.1632 O   0  0  0  0  0  0  0  0  0  0  0  0
    8.1774  -13.1303   27.4889 C   0  0  0  0  0  0  0  0  0  0  0  0
    9.3110  -14.1403   27.2461 C   0  0  2  0  0  0  0  0  0  0  0  0
    8.9110  -15.1731   26.3518 N   0  0  0  0  0  0  0  0  0  0  0  0
    9.7610  -14.6018   28.5555 C   0  0  0  0  0  0  0  0  0  0  0  0
   10.2942  -13.6997   29.4540 O   0  0  0  0  0  0  0  0  0  0  0  0
    9.6839  -15.7978   28.9063 O   0  0  0  0  0  0  0  0  0  0  0  0
  2  1  1  6
  3  2  1  0
  4  8  1  0
  4  3  1  0
  5  4  2  0
  6  5  1  0
  6  7  1  0
  7  8  2  0
  9 10  2  0
  9  2  1  0
 12 14  1  0
 12 11  1  0
 13 12  2  0
 15 14  1  6
 15 16  1  0
 16  9  1  0
 17 15  1  0
 18 17  2  0
 20 19  1  1
 20 21  1  0
 21 17  1  0
 22 23  1  0
 22 20  1  0
 24 22  2  0
M  END
$$$$
