HNA.pdb
     RDKit          3D

 24 24  0  0  1  0  0  0  0  0999 V2000
    8.9073  -17.5532   14.1901 N   0  0  0  0  0  0  0  0  0  0  0  0
    8.8498  -16.7536   15.3776 C   0  0  1  0  0  0  0  0  0  0  0  0
    7.4005  -16.2957   15.5369 C   0  0  0  0  0  0  0  0  0  0  0  0
    6.5173  -17.4528   15.3103 C   0  0  0  0  0  0  0  0  0  0  0  0
    6.9124  -18.7112   14.9686 C   0  0  0  0  0  0  0  0  0  0  0  0
    5.8146  -19.4973   14.8496 N   0  0  0  0  0  0  0  0  0  0  0  0
    4.7581  -18.7098   15.1204 C   0  0  0  0  0  0  0  0  0  0  0  0
    5.1865  -17.4569   15.4029 N   0  0  0  0  0  0  0  0  0  0  0  0
    9.2147  -17.4926   16.5929 C   0  0  0  0  0  0  0  0  0  0  0  0
    9.1930  -18.7545   16.5396 O   0  0  0  0  0  0  0  0  0  0  0  0
   11.6184  -20.8002   19.4871 N   0  0  0  0  0  0  0  0  0  0  0  0
   11.8292  -19.3974   19.5076 C   0  0  0  0  0  0  0  0  0  0  0  0
   12.5021  -18.9315   20.4544 O   0  0  0  0  0  0  0  0  0  0  0  0
   11.2415  -18.5994   18.4161 C   0  0  0  0  0  0  0  0  0  0  0  0
   10.1612  -17.6606   18.8993 C   0  0  2  0  0  0  0  0  0  0  0  0
    9.5902  -16.8816   17.8239 N   0  0  0  0  0  0  0  0  0  0  0  0
   10.6220  -16.8122   20.0162 C   0  0  0  0  0  0  0  0  0  0  0  0
   11.5314  -15.9842   19.8188 O   0  0  0  0  0  0  0  0  0  0  0  0
    9.2777  -15.7166   23.2951 C   0  0  0  0  0  0  0  0  0  0  0  0
   10.4497  -16.0253   22.3490 C   0  0  2  0  0  0  0  0  0  0  0  0
   10.0618  -16.9112   21.3045 N   0  0  0  0  0  0  0  0  0  0  0  0
   11.5549  -16.4981   23.1767 C   0  0  0  0  0  0  0  0  0  0  0  0
   12.1826  -15.6272   24.0444 O   0  0  0  0  0  0  0  0  0  0  0  0
   11.9660  -17.6765   23.1346 O   0  0  0  0  0  0  0  0  0  0  0  0
  2  1  1  6
  3  2  1  0
  4  8  1  0
  4  3  1  0
  5  4  2  0
  6  5  1  0
  6  7  1  0
  7  8  2  0
  9 10  2  0
  9  2  1  0
 12 14  1  0
 12 11  1  0
 13 12  2  0
 15 14  1  6
 15 16  1  0
 16  9  1  0
 17 15  1  0
 18 17  2  0
 20 19  1  1
 20 21  1  0
 21 17  1  0
 22 23  1  0
 22 20  1  0
 24 22  2  0
M  END
$$$$
