HNA.pdb
     RDKit          3D

 24 24  0  0  1  0  0  0  0  0999 V2000
    5.8070  -15.7617   20.9398 N   0  0  0  0  0  0  0  0  0  0  0  0
    7.0634  -15.5169   21.5837 C   0  0  1  0  0  0  0  0  0  0  0  0
    7.3348  -14.0168   21.4752 C   0  0  0  0  0  0  0  0  0  0  0  0
    7.9144  -13.7414   20.1492 C   0  0  0  0  0  0  0  0  0  0  0  0
    8.1978  -14.6647   19.1880 C   0  0  0  0  0  0  0  0  0  0  0  0
    8.7190  -14.0286   18.1105 N   0  0  0  0  0  0  0  0  0  0  0  0
    8.7488  -12.7209   18.4248 C   0  0  0  0  0  0  0  0  0  0  0  0
    8.2563  -12.5430   19.6734 N   0  0  0  0  0  0  0  0  0  0  0  0
    7.0610  -15.8624   23.0109 C   0  0  0  0  0  0  0  0  0  0  0  0
    6.0388  -15.5545   23.6862 O   0  0  0  0  0  0  0  0  0  0  0  0
    6.8599  -18.7633   27.3820 N   0  0  0  0  0  0  0  0  0  0  0  0
    8.0875  -18.8032   26.6721 C   0  0  0  0  0  0  0  0  0  0  0  0
    9.1033  -19.1744   27.3017 O   0  0  0  0  0  0  0  0  0  0  0  0
    8.0721  -18.4057   25.2525 C   0  0  0  0  0  0  0  0  0  0  0  0
    8.0175  -16.9074   25.0691 C   0  0  2  0  0  0  0  0  0  0  0  0
    8.1324  -16.5199   23.6813 N   0  0  0  0  0  0  0  0  0  0  0  0
    8.9966  -16.2076   25.9243 C   0  0  0  0  0  0  0  0  0  0  0  0
   10.2119  -16.3128   25.6726 O   0  0  0  0  0  0  0  0  0  0  0  0
    8.9916  -13.4994   28.4900 C   0  0  0  0  0  0  0  0  0  0  0  0
    9.5522  -14.7874   27.8648 C   0  0  2  0  0  0  0  0  0  0  0  0
    8.5961  -15.4208   27.0216 N   0  0  0  0  0  0  0  0  0  0  0  0
   10.0483  -15.6143   28.9603 C   0  0  0  0  0  0  0  0  0  0  0  0
   11.1002  -15.1674   29.7343 O   0  0  0  0  0  0  0  0  0  0  0  0
    9.5551  -16.7284   29.2342 O   0  0  0  0  0  0  0  0  0  0  0  0
  2  1  1  1
  3  2  1  0
  4  8  1  0
  4  3  1  0
  5  4  2  0
  6  5  1  0
  6  7  1  0
  7  8  2  0
  9 10  2  0
  9  2  1  0
 12 14  1  0
 12 11  1  0
 13 12  2  0
 15 14  1  6
 15 16  1  0
 16  9  1  0
 17 15  1  0
 18 17  2  0
 20 19  1  1
 20 21  1  0
 21 17  1  0
 22 23  1  0
 22 20  1  0
 24 22  2  0
M  END
$$$$
