HNA.pdb
     RDKit          3D

 24 24  0  0  1  0  0  0  0  0999 V2000
   10.4737  -15.2861   14.8946 N   0  0  0  0  0  0  0  0  0  0  0  0
   10.2554  -14.7924   16.2219 C   0  0  1  0  0  0  0  0  0  0  0  0
    8.7476  -14.8293   16.4687 C   0  0  0  0  0  0  0  0  0  0  0  0
    8.4733  -14.2129   17.7783 C   0  0  0  0  0  0  0  0  0  0  0  0
    9.4035  -13.8258   18.6955 C   0  0  0  0  0  0  0  0  0  0  0  0
    8.7660  -13.3030   19.7714 N   0  0  0  0  0  0  0  0  0  0  0  0
    7.4504  -13.3762   19.5001 C   0  0  0  0  0  0  0  0  0  0  0  0
    7.2690  -13.9333   18.2795 N   0  0  0  0  0  0  0  0  0  0  0  0
   10.8921  -15.6146   17.2587 C   0  0  0  0  0  0  0  0  0  0  0  0
   11.2644  -16.7780   16.9369 O   0  0  0  0  0  0  0  0  0  0  0  0
   13.2718  -13.9987   18.6186 N   0  0  0  0  0  0  0  0  0  0  0  0
   13.9417  -15.2472   18.6897 C   0  0  0  0  0  0  0  0  0  0  0  0
   15.1466  -15.2725   18.3525 O   0  0  0  0  0  0  0  0  0  0  0  0
   13.1697  -16.4144   19.1537 C   0  0  0  0  0  0  0  0  0  0  0  0
   11.7601  -16.0544   19.5601 C   0  0  2  0  0  0  0  0  0  0  0  0
   11.1165  -15.1874   18.5991 N   0  0  0  0  0  0  0  0  0  0  0  0
   11.7001  -15.5071   20.9300 C   0  0  0  0  0  0  0  0  0  0  0  0
   12.4257  -14.5413   21.2336 O   0  0  0  0  0  0  0  0  0  0  0  0
    9.3322  -15.2316   23.6571 C   0  0  0  0  0  0  0  0  0  0  0  0
   10.7823  -15.4983   23.2210 C   0  0  2  0  0  0  0  0  0  0  0  0
   10.8431  -16.0467   21.9087 N   0  0  0  0  0  0  0  0  0  0  0  0
   11.3974  -16.3195   24.2589 C   0  0  0  0  0  0  0  0  0  0  0  0
   11.6015  -15.7925   25.5183 O   0  0  0  0  0  0  0  0  0  0  0  0
   11.7539  -17.4988   24.0556 O   0  0  0  0  0  0  0  0  0  0  0  0
  2  1  1  6
  3  2  1  0
  4  8  1  0
  4  3  1  0
  5  4  2  0
  6  5  1  0
  6  7  1  0
  7  8  2  0
  9 10  2  0
  9  2  1  0
 12 14  1  0
 12 11  1  0
 13 12  2  0
 15 14  1  6
 15 16  1  0
 16  9  1  0
 17 15  1  0
 18 17  2  0
 20 19  1  1
 20 21  1  0
 21 17  1  0
 22 23  1  0
 22 20  1  0
 24 22  2  0
M  END
$$$$
