HNA.pdb
     RDKit          3D

 24 24  0  0  1  0  0  0  0  0999 V2000
    8.4887  -16.0612   20.9697 N   0  0  0  0  0  0  0  0  0  0  0  0
    8.1623  -14.8282   21.6227 C   0  0  1  0  0  0  0  0  0  0  0  0
    7.0267  -14.1883   20.8248 C   0  0  0  0  0  0  0  0  0  0  0  0
    7.5280  -13.8612   19.4787 C   0  0  0  0  0  0  0  0  0  0  0  0
    8.2361  -12.7498   19.1324 C   0  0  0  0  0  0  0  0  0  0  0  0
    8.5169  -12.8050   17.8075 N   0  0  0  0  0  0  0  0  0  0  0  0
    7.9765  -13.9516   17.3569 C   0  0  0  0  0  0  0  0  0  0  0  0
    7.3703  -14.6001   18.3793 N   0  0  0  0  0  0  0  0  0  0  0  0
    7.6858  -15.0095   22.9998 C   0  0  0  0  0  0  0  0  0  0  0  0
    6.4925  -14.6828   23.2543 O   0  0  0  0  0  0  0  0  0  0  0  0
    7.8613  -19.4132   26.8338 N   0  0  0  0  0  0  0  0  0  0  0  0
    7.1817  -18.3320   26.2157 C   0  0  0  0  0  0  0  0  0  0  0  0
    6.0673  -18.0103   26.6855 O   0  0  0  0  0  0  0  0  0  0  0  0
    7.8383  -17.6732   25.0719 C   0  0  0  0  0  0  0  0  0  0  0  0
    7.8667  -16.1689   25.2058 C   0  0  2  0  0  0  0  0  0  0  0  0
    8.4788  -15.5279   24.0638 N   0  0  0  0  0  0  0  0  0  0  0  0
    8.4768  -15.7364   26.4788 C   0  0  0  0  0  0  0  0  0  0  0  0
    7.9818  -16.1222   27.5548 O   0  0  0  0  0  0  0  0  0  0  0  0
    9.2849  -13.5117   28.5091 C   0  0  0  0  0  0  0  0  0  0  0  0
   10.1904  -14.4940   27.7481 C   0  0  2  0  0  0  0  0  0  0  0  0
    9.6069  -14.8968   26.5136 N   0  0  0  0  0  0  0  0  0  0  0  0
   10.5034  -15.5857   28.6646 C   0  0  0  0  0  0  0  0  0  0  0  0
   10.1680  -16.8814   28.3270 O   0  0  0  0  0  0  0  0  0  0  0  0
   11.0714  -15.3972   29.7607 O   0  0  0  0  0  0  0  0  0  0  0  0
  2  1  1  6
  3  2  1  0
  4  8  1  0
  4  3  1  0
  5  4  2  0
  6  5  1  0
  6  7  1  0
  7  8  2  0
  9 10  2  0
  9  2  1  0
 12 14  1  0
 12 11  1  0
 13 12  2  0
 15 14  1  6
 15 16  1  0
 16  9  1  0
 17 15  1  0
 18 17  2  0
 20 19  1  1
 20 21  1  0
 21 17  1  0
 22 23  1  0
 22 20  1  0
 24 22  2  0
M  END
$$$$
