HNA.pdb
     RDKit          3D

 24 24  0  0  1  0  0  0  0  0999 V2000
    9.1058  -17.2414   17.0475 N   0  0  0  0  0  0  0  0  0  0  0  0
    9.6951  -16.3430   17.9954 C   0  0  1  0  0  0  0  0  0  0  0  0
    8.6004  -15.3665   18.4242 C   0  0  0  0  0  0  0  0  0  0  0  0
    8.2996  -14.4747   17.2909 C   0  0  0  0  0  0  0  0  0  0  0  0
    8.7813  -13.2130   17.1106 C   0  0  0  0  0  0  0  0  0  0  0  0
    8.2799  -12.7143   15.9542 N   0  0  0  0  0  0  0  0  0  0  0  0
    7.4956  -13.6781   15.4388 C   0  0  0  0  0  0  0  0  0  0  0  0
    7.5064  -14.7574   16.2563 N   0  0  0  0  0  0  0  0  0  0  0  0
   10.1845  -17.0156   19.2055 C   0  0  0  0  0  0  0  0  0  0  0  0
    9.4073  -17.8308   19.7774 O   0  0  0  0  0  0  0  0  0  0  0  0
   13.8672  -20.2405   21.8167 N   0  0  0  0  0  0  0  0  0  0  0  0
   13.8054  -18.8281   21.9353 C   0  0  0  0  0  0  0  0  0  0  0  0
   14.1516  -18.3278   23.0289 O   0  0  0  0  0  0  0  0  0  0  0  0
   13.3398  -18.0613   20.7654 C   0  0  0  0  0  0  0  0  0  0  0  0
   11.9166  -17.5779   20.9163 C   0  0  2  0  0  0  0  0  0  0  0  0
   11.4742  -16.8095   19.7747 N   0  0  0  0  0  0  0  0  0  0  0  0
   11.7078  -16.8557   22.1870 C   0  0  0  0  0  0  0  0  0  0  0  0
   12.1996  -15.7205   22.3318 O   0  0  0  0  0  0  0  0  0  0  0  0
    9.3541  -16.1423   24.5834 C   0  0  0  0  0  0  0  0  0  0  0  0
   10.7783  -16.7103   24.4687 C   0  0  2  0  0  0  0  0  0  0  0  0
   10.9655  -17.4142   23.2456 N   0  0  0  0  0  0  0  0  0  0  0  0
   11.0241  -17.4963   25.6736 C   0  0  0  0  0  0  0  0  0  0  0  0
   11.1090  -16.8649   26.8981 O   0  0  0  0  0  0  0  0  0  0  0  0
   11.1636  -18.7370   25.6463 O   0  0  0  0  0  0  0  0  0  0  0  0
  2  1  1  6
  3  2  1  0
  4  8  1  0
  4  3  1  0
  5  4  2  0
  6  5  1  0
  6  7  1  0
  7  8  2  0
  9 10  2  0
  9  2  1  0
 12 14  1  0
 12 11  1  0
 13 12  2  0
 15 14  1  6
 15 16  1  0
 16  9  1  0
 17 15  1  0
 18 17  2  0
 20 19  1  1
 20 21  1  0
 21 17  1  0
 22 23  1  0
 22 20  1  0
 24 22  2  0
M  END
$$$$
