HNA.pdb
     RDKit          3D

 24 24  0  0  1  0  0  0  0  0999 V2000
    7.9835  -17.6653   19.2165 N   0  0  0  0  0  0  0  0  0  0  0  0
    8.8870  -16.7162   19.7959 C   0  0  1  0  0  0  0  0  0  0  0  0
    8.0387  -15.7106   20.5737 C   0  0  0  0  0  0  0  0  0  0  0  0
    7.8565  -14.5096   19.7404 C   0  0  0  0  0  0  0  0  0  0  0  0
    8.3217  -14.3327   18.4720 C   0  0  0  0  0  0  0  0  0  0  0  0
    7.9543  -13.1020   18.0388 N   0  0  0  0  0  0  0  0  0  0  0  0
    7.2671  -12.5384   19.0487 C   0  0  0  0  0  0  0  0  0  0  0  0
    7.2061  -13.3992   20.0921 N   0  0  0  0  0  0  0  0  0  0  0  0
    9.8338  -17.3195   20.7424 C   0  0  0  0  0  0  0  0  0  0  0  0
    9.6221  -18.5115   21.1029 O   0  0  0  0  0  0  0  0  0  0  0  0
   13.7538  -18.8478   23.4438 N   0  0  0  0  0  0  0  0  0  0  0  0
   14.2892  -17.9024   22.5315 C   0  0  0  0  0  0  0  0  0  0  0  0
   15.5351  -17.8451   22.4289 O   0  0  0  0  0  0  0  0  0  0  0  0
   13.3401  -17.0633   21.7775 C   0  0  0  0  0  0  0  0  0  0  0  0
   11.9012  -17.3391   22.1455 C   0  0  2  0  0  0  0  0  0  0  0  0
   10.9716  -16.6506   21.2788 N   0  0  0  0  0  0  0  0  0  0  0  0
   11.6325  -17.0723   23.5725 C   0  0  0  0  0  0  0  0  0  0  0  0
   12.3943  -17.5470   24.4362 O   0  0  0  0  0  0  0  0  0  0  0  0
    9.0396  -15.1716   25.5726 C   0  0  0  0  0  0  0  0  0  0  0  0
   10.2502  -16.0975   25.3698 C   0  0  2  0  0  0  0  0  0  0  0  0
   10.5355  -16.2934   23.9889 N   0  0  0  0  0  0  0  0  0  0  0  0
    9.9849  -17.3200   26.1216 C   0  0  0  0  0  0  0  0  0  0  0  0
    9.9481  -18.5338   25.4652 O   0  0  0  0  0  0  0  0  0  0  0  0
    9.7861  -17.3176   27.3544 O   0  0  0  0  0  0  0  0  0  0  0  0
  2  1  1  1
  3  2  1  0
  4  8  1  0
  4  3  1  0
  5  4  2  0
  6  5  1  0
  6  7  1  0
  7  8  2  0
  9 10  2  0
  9  2  1  0
 12 14  1  0
 12 11  1  0
 13 12  2  0
 15 14  1  6
 15 16  1  0
 16  9  1  0
 17 15  1  0
 18 17  2  0
 20 19  1  6
 20 21  1  0
 21 17  1  0
 22 23  1  0
 22 20  1  0
 24 22  2  0
M  END
$$$$
