HNA.pdb
     RDKit          3D

 24 24  0  0  1  0  0  0  0  0999 V2000
   14.4782  -15.1328   14.5983 N   0  0  0  0  0  0  0  0  0  0  0  0
   14.8694  -15.2290   15.9733 C   0  0  1  0  0  0  0  0  0  0  0  0
   15.2477  -13.8200   16.4286 C   0  0  0  0  0  0  0  0  0  0  0  0
   16.5545  -13.4747   15.8426 C   0  0  0  0  0  0  0  0  0  0  0  0
   17.7091  -14.1855   15.9771 C   0  0  0  0  0  0  0  0  0  0  0  0
   18.6948  -13.5521   15.2956 N   0  0  0  0  0  0  0  0  0  0  0  0
   18.1314  -12.4587   14.7507 C   0  0  0  0  0  0  0  0  0  0  0  0
   16.8202  -12.4096   15.0847 N   0  0  0  0  0  0  0  0  0  0  0  0
   13.7914  -15.7013   16.8514 C   0  0  0  0  0  0  0  0  0  0  0  0
   12.6370  -15.2208   16.6722 O   0  0  0  0  0  0  0  0  0  0  0  0
   13.6046  -20.4195   19.9426 N   0  0  0  0  0  0  0  0  0  0  0  0
   13.8077  -19.3867   18.9915 C   0  0  0  0  0  0  0  0  0  0  0  0
   14.9771  -19.2005   18.5867 O   0  0  0  0  0  0  0  0  0  0  0  0
   12.6298  -18.6151   18.5548 C   0  0  0  0  0  0  0  0  0  0  0  0
   12.8367  -17.1232   18.6708 C   0  0  2  0  0  0  0  0  0  0  0  0
   13.9618  -16.6629   17.8887 N   0  0  0  0  0  0  0  0  0  0  0  0
   12.9201  -16.6823   20.0774 C   0  0  0  0  0  0  0  0  0  0  0  0
   14.0338  -16.4202   20.5698 O   0  0  0  0  0  0  0  0  0  0  0  0
   10.5040  -15.6344   22.7697 C   0  0  0  0  0  0  0  0  0  0  0  0
   11.8655  -16.1057   22.2330 C   0  0  2  0  0  0  0  0  0  0  0  0
   11.7728  -16.5483   20.8832 N   0  0  0  0  0  0  0  0  0  0  0  0
   12.3749  -17.1003   23.1718 C   0  0  0  0  0  0  0  0  0  0  0  0
   12.5327  -18.4097   22.7643 O   0  0  0  0  0  0  0  0  0  0  0  0
   12.6799  -16.8151   24.3487 O   0  0  0  0  0  0  0  0  0  0  0  0
  2  1  1  6
  3  2  1  0
  4  8  1  0
  4  3  1  0
  5  4  2  0
  6  5  1  0
  6  7  1  0
  7  8  2  0
  9 10  2  0
  9  2  1  0
 12 14  1  0
 12 11  1  0
 13 12  2  0
 15 14  1  1
 15 16  1  0
 16  9  1  0
 17 15  1  0
 18 17  2  0
 20 19  1  1
 20 21  1  0
 21 17  1  0
 22 23  1  0
 22 20  1  0
 24 22  2  0
M  END
$$$$
