HNA.pdb
     RDKit          3D

 24 24  0  0  1  0  0  0  0  0999 V2000
    8.6082  -17.1282   18.4944 N   0  0  0  0  0  0  0  0  0  0  0  0
    9.6173  -16.3109   19.0999 C   0  0  1  0  0  0  0  0  0  0  0  0
    8.9018  -15.3460   20.0446 C   0  0  0  0  0  0  0  0  0  0  0  0
    8.2040  -14.3315   19.2358 C   0  0  0  0  0  0  0  0  0  0  0  0
    8.1314  -14.2982   17.8756 C   0  0  0  0  0  0  0  0  0  0  0  0
    7.4054  -13.2161   17.5026 N   0  0  0  0  0  0  0  0  0  0  0  0
    7.0411  -12.5981   18.6407 C   0  0  0  0  0  0  0  0  0  0  0  0
    7.5294  -13.2800   19.7036 N   0  0  0  0  0  0  0  0  0  0  0  0
   10.5815  -17.0771   19.8997 C   0  0  0  0  0  0  0  0  0  0  0  0
   10.3255  -17.2420   21.1256 O   0  0  0  0  0  0  0  0  0  0  0  0
   11.2503  -21.2363   20.3447 N   0  0  0  0  0  0  0  0  0  0  0  0
   11.9120  -20.4952   19.3321 C   0  0  0  0  0  0  0  0  0  0  0  0
   11.4507  -20.5702   18.1711 O   0  0  0  0  0  0  0  0  0  0  0  0
   13.0878  -19.6967   19.7238 C   0  0  0  0  0  0  0  0  0  0  0  0
   12.7135  -18.3317   20.2517 C   0  0  2  0  0  0  0  0  0  0  0  0
   11.7827  -17.6446   19.3851 N   0  0  0  0  0  0  0  0  0  0  0  0
   13.9014  -17.5091   20.5549 C   0  0  0  0  0  0  0  0  0  0  0  0
   14.8035  -17.9810   21.2727 O   0  0  0  0  0  0  0  0  0  0  0  0
   15.1673  -14.0623   19.6361 C   0  0  0  0  0  0  0  0  0  0  0  0
   15.1760  -15.4022   20.3903 C   0  0  2  0  0  0  0  0  0  0  0  0
   14.0462  -16.2006   20.0548 N   0  0  0  0  0  0  0  0  0  0  0  0
   15.3099  -15.0932   21.8104 C   0  0  0  0  0  0  0  0  0  0  0  0
   14.3300  -15.4969   22.6948 O   0  0  0  0  0  0  0  0  0  0  0  0
   16.2887  -14.4687   22.2700 O   0  0  0  0  0  0  0  0  0  0  0  0
  2  1  1  1
  3  2  1  0
  4  8  1  0
  4  3  1  0
  5  4  2  0
  6  5  1  0
  6  7  1  0
  7  8  2  0
  9 10  2  0
  9  2  1  0
 12 14  1  0
 12 11  1  0
 13 12  2  0
 15 14  1  6
 15 16  1  0
 16  9  1  0
 17 15  1  0
 18 17  2  0
 20 19  1  6
 20 21  1  0
 21 17  1  0
 22 23  1  0
 22 20  1  0
 24 22  2  0
M  END
$$$$
