HNA.pdb
     RDKit          3D

 24 24  0  0  1  0  0  0  0  0999 V2000
   14.2339  -19.4132   18.1912 N   0  0  0  0  0  0  0  0  0  0  0  0
   13.4419  -18.6924   19.1432 C   0  0  1  0  0  0  0  0  0  0  0  0
   12.2092  -19.5472   19.4355 C   0  0  0  0  0  0  0  0  0  0  0  0
   11.3510  -19.5545   18.2382 C   0  0  0  0  0  0  0  0  0  0  0  0
   11.4516  -18.7126   17.1716 C   0  0  0  0  0  0  0  0  0  0  0  0
   10.4888  -19.0296   16.2716 N   0  0  0  0  0  0  0  0  0  0  0  0
    9.8086  -20.0638   16.7984 C   0  0  0  0  0  0  0  0  0  0  0  0
   10.3353  -20.3868   18.0032 N   0  0  0  0  0  0  0  0  0  0  0  0
   14.1329  -18.4646   20.4186 C   0  0  0  0  0  0  0  0  0  0  0  0
   14.3604  -19.4697   21.1491 O   0  0  0  0  0  0  0  0  0  0  0  0
   17.8308  -17.0104   23.7839 N   0  0  0  0  0  0  0  0  0  0  0  0
   17.0804  -15.8834   23.3603 C   0  0  0  0  0  0  0  0  0  0  0  0
   17.1039  -14.8693   24.0931 O   0  0  0  0  0  0  0  0  0  0  0  0
   16.3334  -15.9934   22.0940 C   0  0  0  0  0  0  0  0  0  0  0  0
   15.2545  -17.0494   22.1456 C   0  0  2  0  0  0  0  0  0  0  0  0
   14.5621  -17.1885   20.8844 N   0  0  0  0  0  0  0  0  0  0  0  0
   14.3225  -16.8361   23.2706 C   0  0  0  0  0  0  0  0  0  0  0  0
   14.7598  -16.8523   24.4369 O   0  0  0  0  0  0  0  0  0  0  0  0
   10.7887  -15.6298   23.6780 C   0  0  0  0  0  0  0  0  0  0  0  0
   12.0732  -16.3299   24.1513 C   0  0  2  0  0  0  0  0  0  0  0  0
   12.9473  -16.6138   23.0641 N   0  0  0  0  0  0  0  0  0  0  0  0
   11.6641  -17.4940   24.9306 C   0  0  0  0  0  0  0  0  0  0  0  0
   11.9784  -18.7620   24.4847 O   0  0  0  0  0  0  0  0  0  0  0  0
   11.0309  -17.3931   26.0022 O   0  0  0  0  0  0  0  0  0  0  0  0
  2  1  1  6
  3  2  1  0
  4  8  1  0
  4  3  1  0
  5  4  2  0
  6  5  1  0
  6  7  1  0
  7  8  2  0
  9 10  2  0
  9  2  1  0
 12 14  1  0
 12 11  1  0
 13 12  2  0
 15 14  1  6
 15 16  1  0
 16  9  1  0
 17 15  1  0
 18 17  2  0
 20 19  1  6
 20 21  1  0
 21 17  1  0
 22 23  1  0
 22 20  1  0
 24 22  2  0
M  END
$$$$
