HMM.pdb
     RDKit          3D

 27 27  0  0  1  0  0  0  0  0999 V2000
    7.6716  -17.6788   19.8178 N   0  0  0  0  0  0  0  0  0  0  0  0
    8.5325  -16.5307   19.8694 C   0  0  1  0  0  0  0  0  0  0  0  0
    8.1982  -15.5649   18.7638 C   0  0  0  0  0  0  0  0  0  0  0  0
    8.2444  -16.2508   17.4417 C   0  0  0  0  0  0  0  0  0  0  0  0
    9.2104  -16.0883   16.4811 C   0  0  0  0  0  0  0  0  0  0  0  0
    8.8829  -16.8846   15.4440 N   0  0  0  0  0  0  0  0  0  0  0  0
    7.7553  -17.5123   15.7602 C   0  0  0  0  0  0  0  0  0  0  0  0
    7.3500  -17.1375   16.9778 N   0  0  0  0  0  0  0  0  0  0  0  0
    8.5580  -15.8808   21.1885 C   0  0  0  0  0  0  0  0  0  0  0  0
    8.2210  -14.6677   21.2466 O   0  0  0  0  0  0  0  0  0  0  0  0
    7.2035  -12.0155   25.3102 C   0  0  0  0  0  0  0  0  0  0  0  0
    6.1542  -13.5169   25.3159 S   0  0  0  0  0  0  0  0  0  0  0  0
    7.2448  -14.9369   25.3298 C   0  0  0  0  0  0  0  0  0  0  0  0
    7.4336  -15.5442   23.9596 C   0  0  0  0  0  0  0  0  0  0  0  0
    8.8849  -15.8025   23.6496 C   0  0  2  0  0  0  0  0  0  0  0  0
    8.9303  -16.5127   22.3868 N   0  0  0  0  0  0  0  0  0  0  0  0
    9.4951  -16.6716   24.6970 C   0  0  0  0  0  0  0  0  0  0  0  0
    8.9779  -17.7963   24.9899 O   0  0  0  0  0  0  0  0  0  0  0  0
   10.2603  -12.4899   28.6348 C   0  0  0  0  0  0  0  0  0  0  0  0
   11.1002  -13.7939   29.5366 S   0  0  0  0  0  0  0  0  0  0  0  0
   11.6375  -15.0898   28.3852 C   0  0  0  0  0  0  0  0  0  0  0  0
   10.4644  -15.8294   27.8027 C   0  0  0  0  0  0  0  0  0  0  0  0
   10.9210  -16.8013   26.7754 C   0  0  2  0  0  0  0  0  0  0  0  0
   10.6645  -16.3076   25.4171 N   0  0  0  0  0  0  0  0  0  0  0  0
   10.4043  -18.1797   26.9209 C   0  0  0  0  0  0  0  0  0  0  0  0
    9.2287  -18.5507   26.7131 O   0  0  0  0  0  0  0  0  0  0  0  0
   11.2602  -19.2313   27.3301 O   0  0  0  0  0  0  0  0  0  0  0  0
  2  1  1  1
  2  3  1  0
  4  3  1  0
  5  4  2  0
  6  5  1  0
  7  6  1  0
  7  8  2  0
  8  4  1  0
  9  2  1  0
  9 10  2  0
 12 11  1  0
 13 14  1  0
 13 12  1  0
 15 14  1  1
 15 16  1  0
 16  9  1  0
 17 24  1  0
 17 15  1  0
 18 17  2  0
 20 19  1  0
 21 20  1  0
 22 21  1  0
 23 22  1  1
 23 24  1  0
 23 25  1  0
 25 27  1  0
 26 25  2  0
M  END
$$$$
