HMM.pdb
     RDKit          3D

 27 27  0  0  1  0  0  0  0  0999 V2000
   10.3307  -17.7909   19.3760 N   0  0  0  0  0  0  0  0  0  0  0  0
   10.9858  -17.9899   20.6382 C   0  0  1  0  0  0  0  0  0  0  0  0
   12.3357  -17.3232   20.6480 C   0  0  0  0  0  0  0  0  0  0  0  0
   13.2771  -18.0402   19.7422 C   0  0  0  0  0  0  0  0  0  0  0  0
   13.9083  -19.2284   20.0103 C   0  0  0  0  0  0  0  0  0  0  0  0
   14.6671  -19.5305   18.9381 N   0  0  0  0  0  0  0  0  0  0  0  0
   14.5050  -18.5601   18.0451 C   0  0  0  0  0  0  0  0  0  0  0  0
   13.6587  -17.6401   18.5192 N   0  0  0  0  0  0  0  0  0  0  0  0
   10.1613  -17.5963   21.7906 C   0  0  0  0  0  0  0  0  0  0  0  0
    9.8756  -16.3748   21.9121 O   0  0  0  0  0  0  0  0  0  0  0  0
    7.8988  -20.8820   27.6565 C   0  0  0  0  0  0  0  0  0  0  0  0
    6.6350  -20.1719   26.5368 S   0  0  0  0  0  0  0  0  0  0  0  0
    7.3768  -18.7696   25.7066 C   0  0  0  0  0  0  0  0  0  0  0  0
    8.2556  -19.1732   24.5462 C   0  0  0  0  0  0  0  0  0  0  0  0
    8.9492  -17.9903   23.9227 C   0  0  2  0  0  0  0  0  0  0  0  0
    9.6699  -18.4814   22.7648 N   0  0  0  0  0  0  0  0  0  0  0  0
    9.9370  -17.4041   24.8741 C   0  0  0  0  0  0  0  0  0  0  0  0
   10.8504  -16.6208   24.4613 O   0  0  0  0  0  0  0  0  0  0  0  0
    8.6545  -11.7113   29.0098 C   0  0  0  0  0  0  0  0  0  0  0  0
    8.2750  -13.0125   27.8342 S   0  0  0  0  0  0  0  0  0  0  0  0
    9.4389  -14.3891   28.0441 C   0  0  0  0  0  0  0  0  0  0  0  0
    9.1600  -15.4993   27.0684 C   0  0  0  0  0  0  0  0  0  0  0  0
   10.1190  -16.6174   27.2653 C   0  0  2  0  0  0  0  0  0  0  0  0
    9.9215  -17.6765   26.2685 N   0  0  0  0  0  0  0  0  0  0  0  0
   10.1561  -17.1995   28.6246 C   0  0  0  0  0  0  0  0  0  0  0  0
    9.3788  -18.0693   29.0742 O   0  0  0  0  0  0  0  0  0  0  0  0
   11.1340  -16.7836   29.5608 O   0  0  0  0  0  0  0  0  0  0  0  0
  2  1  1  6
  2  3  1  0
  4  3  1  0
  5  4  2  0
  6  5  1  0
  7  6  1  0
  7  8  2  0
  8  4  1  0
  9  2  1  0
  9 10  2  0
 12 11  1  0
 13 14  1  0
 13 12  1  0
 15 14  1  1
 15 16  1  0
 16  9  1  0
 17 24  1  0
 17 15  1  0
 18 17  2  0
 20 19  1  0
 21 20  1  0
 22 21  1  0
 23 22  1  1
 23 24  1  0
 23 25  1  0
 25 27  1  0
 26 25  2  0
M  END
$$$$
