HMM.pdb
     RDKit          3D

 27 27  0  0  1  0  0  0  0  0999 V2000
    7.8210  -19.4254   18.3916 N   0  0  0  0  0  0  0  0  0  0  0  0
    8.4870  -18.4768   19.2392 C   0  0  1  0  0  0  0  0  0  0  0  0
    8.7835  -17.2070   18.4865 C   0  0  0  0  0  0  0  0  0  0  0  0
    9.8501  -17.4400   17.4722 C   0  0  0  0  0  0  0  0  0  0  0  0
   11.2021  -17.3477   17.6864 C   0  0  0  0  0  0  0  0  0  0  0  0
   11.8136  -17.6329   16.5196 N   0  0  0  0  0  0  0  0  0  0  0  0
   10.8675  -17.8908   15.6229 C   0  0  0  0  0  0  0  0  0  0  0  0
    9.6607  -17.7778   16.1870 N   0  0  0  0  0  0  0  0  0  0  0  0
    7.7757  -18.2234   20.5012 C   0  0  0  0  0  0  0  0  0  0  0  0
    6.5225  -18.1005   20.4488 O   0  0  0  0  0  0  0  0  0  0  0  0
    9.3025  -20.2410   26.8478 C   0  0  0  0  0  0  0  0  0  0  0  0
    7.6482  -20.6129   26.1548 S   0  0  0  0  0  0  0  0  0  0  0  0
    7.1779  -19.2351   25.1126 C   0  0  0  0  0  0  0  0  0  0  0  0
    7.8336  -19.2785   23.7525 C   0  0  0  0  0  0  0  0  0  0  0  0
    7.5993  -18.0129   22.9700 C   0  0  2  0  0  0  0  0  0  0  0  0
    8.3906  -18.1085   21.7593 N   0  0  0  0  0  0  0  0  0  0  0  0
    8.0692  -16.8272   23.7433 C   0  0  0  0  0  0  0  0  0  0  0  0
    9.3075  -16.5429   23.8075 O   0  0  0  0  0  0  0  0  0  0  0  0
    6.3878  -10.1640   27.2242 C   0  0  0  0  0  0  0  0  0  0  0  0
    5.7782  -11.8507   27.2777 S   0  0  0  0  0  0  0  0  0  0  0  0
    7.0886  -12.9945   26.7595 C   0  0  0  0  0  0  0  0  0  0  0  0
    6.5771  -14.0058   25.7706 C   0  0  0  0  0  0  0  0  0  0  0  0
    7.6814  -14.8875   25.3107 C   0  0  2  0  0  0  0  0  0  0  0  0
    7.1854  -15.9606   24.4408 N   0  0  0  0  0  0  0  0  0  0  0  0
    8.5382  -15.4523   26.3761 C   0  0  0  0  0  0  0  0  0  0  0  0
    8.4232  -16.5866   26.8890 O   0  0  0  0  0  0  0  0  0  0  0  0
    9.6087  -14.6985   26.9162 O   0  0  0  0  0  0  0  0  0  0  0  0
  2  1  1  6
  2  3  1  0
  4  3  1  0
  5  4  2  0
  6  5  1  0
  7  6  1  0
  7  8  2  0
  8  4  1  0
  9  2  1  0
  9 10  2  0
 12 11  1  0
 13 14  1  0
 13 12  1  0
 15 14  1  1
 15 16  1  0
 16  9  1  0
 17 24  1  0
 17 15  1  0
 18 17  2  0
 20 19  1  0
 21 20  1  0
 22 21  1  0
 23 22  1  1
 23 24  1  0
 23 25  1  0
 25 27  1  0
 26 25  2  0
M  END
$$$$
