HMM.pdb
     RDKit          3D

 27 27  0  0  1  0  0  0  0  0999 V2000
    8.4130  -17.3868   19.8457 N   0  0  0  0  0  0  0  0  0  0  0  0
    9.6265  -16.6501   20.0616 C   0  0  1  0  0  0  0  0  0  0  0  0
    9.9006  -15.7257   18.9053 C   0  0  0  0  0  0  0  0  0  0  0  0
    8.8936  -14.6279   18.8663 C   0  0  0  0  0  0  0  0  0  0  0  0
    9.1021  -13.3270   19.2486 C   0  0  0  0  0  0  0  0  0  0  0  0
    7.9453  -12.6622   19.0574 N   0  0  0  0  0  0  0  0  0  0  0  0
    7.0600  -13.5275   18.5746 C   0  0  0  0  0  0  0  0  0  0  0  0
    7.6217  -14.7344   18.4510 N   0  0  0  0  0  0  0  0  0  0  0  0
    9.6609  -15.9506   21.3548 C   0  0  0  0  0  0  0  0  0  0  0  0
   10.7141  -15.3244   21.6503 O   0  0  0  0  0  0  0  0  0  0  0  0
    5.9982  -11.8179   25.8896 C   0  0  0  0  0  0  0  0  0  0  0  0
    5.8614  -13.6434   25.9528 S   0  0  0  0  0  0  0  0  0  0  0  0
    7.4427  -14.3202   25.4556 C   0  0  0  0  0  0  0  0  0  0  0  0
    7.3992  -14.9712   24.0932 C   0  0  0  0  0  0  0  0  0  0  0  0
    8.7747  -15.3204   23.5881 C   0  0  2  0  0  0  0  0  0  0  0  0
    8.6069  -15.9296   22.2835 N   0  0  0  0  0  0  0  0  0  0  0  0
    9.4238  -16.3160   24.4891 C   0  0  0  0  0  0  0  0  0  0  0  0
    9.5199  -17.5371   24.1456 O   0  0  0  0  0  0  0  0  0  0  0  0
   10.1439  -12.9155   28.9591 C   0  0  0  0  0  0  0  0  0  0  0  0
   11.0875  -14.3166   29.5638 S   0  0  0  0  0  0  0  0  0  0  0  0
   10.5587  -15.8283   28.7101 C   0  0  0  0  0  0  0  0  0  0  0  0
   11.5228  -16.2112   27.6209 C   0  0  0  0  0  0  0  0  0  0  0  0
   10.8098  -16.9023   26.5152 C   0  0  2  0  0  0  0  0  0  0  0  0
    9.9632  -15.9727   25.7579 N   0  0  0  0  0  0  0  0  0  0  0  0
   10.0307  -18.0986   26.9024 C   0  0  0  0  0  0  0  0  0  0  0  0
   10.5021  -19.1956   27.2730 O   0  0  0  0  0  0  0  0  0  0  0  0
    8.6149  -18.0767   26.8765 O   0  0  0  0  0  0  0  0  0  0  0  0
  2  1  1  6
  2  3  1  0
  4  3  1  0
  5  4  2  0
  6  5  1  0
  7  6  1  0
  7  8  2  0
  8  4  1  0
  9  2  1  0
  9 10  2  0
 12 11  1  0
 13 14  1  0
 13 12  1  0
 15 14  1  1
 15 16  1  0
 16  9  1  0
 17 24  1  0
 17 15  1  0
 18 17  2  0
 20 19  1  0
 21 20  1  0
 22 21  1  0
 23 22  1  1
 23 24  1  0
 23 25  1  0
 25 27  1  0
 26 25  2  0
M  END
$$$$
