HMM.pdb
     RDKit          3D

 27 27  0  0  1  0  0  0  0  0999 V2000
    9.8639  -17.0563   19.5723 N   0  0  0  0  0  0  0  0  0  0  0  0
    9.2982  -15.7429   19.7026 C   0  0  1  0  0  0  0  0  0  0  0  0
    7.9233  -15.6927   19.0912 C   0  0  0  0  0  0  0  0  0  0  0  0
    7.9170  -14.8023   17.8962 C   0  0  0  0  0  0  0  0  0  0  0  0
    9.0086  -14.1756   17.3506 C   0  0  0  0  0  0  0  0  0  0  0  0
    8.5759  -13.4695   16.2871 N   0  0  0  0  0  0  0  0  0  0  0  0
    7.2646  -13.6584   16.1863 C   0  0  0  0  0  0  0  0  0  0  0  0
    6.8439  -14.4704   17.1615 N   0  0  0  0  0  0  0  0  0  0  0  0
    9.3129  -15.2369   21.0835 C   0  0  0  0  0  0  0  0  0  0  0  0
    9.3539  -13.9876   21.2454 O   0  0  0  0  0  0  0  0  0  0  0  0
    6.7491  -11.9121   26.7492 C   0  0  0  0  0  0  0  0  0  0  0  0
    6.6229  -12.7528   25.1267 S   0  0  0  0  0  0  0  0  0  0  0  0
    7.9541  -13.9465   25.0329 C   0  0  0  0  0  0  0  0  0  0  0  0
    8.0822  -14.5752   23.6653 C   0  0  0  0  0  0  0  0  0  0  0  0
    9.3006  -15.4544   23.5579 C   0  0  2  0  0  0  0  0  0  0  0  0
    9.2848  -16.0434   22.2335 N   0  0  0  0  0  0  0  0  0  0  0  0
    9.2383  -16.5567   24.5606 C   0  0  0  0  0  0  0  0  0  0  0  0
    8.1209  -17.0540   24.9106 O   0  0  0  0  0  0  0  0  0  0  0  0
    9.3604  -13.1068   28.6639 C   0  0  0  0  0  0  0  0  0  0  0  0
   10.5680  -14.1752   29.4510 S   0  0  0  0  0  0  0  0  0  0  0  0
   10.4938  -15.8329   28.7159 C   0  0  0  0  0  0  0  0  0  0  0  0
   10.4685  -15.7680   27.2134 C   0  0  0  0  0  0  0  0  0  0  0  0
   10.5590  -17.1330   26.6327 C   0  0  2  0  0  0  0  0  0  0  0  0
   10.3949  -17.1084   25.1744 N   0  0  0  0  0  0  0  0  0  0  0  0
    9.6594  -18.1450   27.2282 C   0  0  0  0  0  0  0  0  0  0  0  0
    8.4177  -18.1967   27.0925 O   0  0  0  0  0  0  0  0  0  0  0  0
   10.1786  -19.1831   28.0397 O   0  0  0  0  0  0  0  0  0  0  0  0
  2  1  1  1
  2  3  1  0
  4  3  1  0
  5  4  2  0
  6  5  1  0
  7  6  1  0
  7  8  2  0
  8  4  1  0
  9  2  1  0
  9 10  2  0
 12 11  1  0
 13 14  1  0
 13 12  1  0
 15 14  1  6
 15 16  1  0
 16  9  1  0
 17 24  1  0
 17 15  1  0
 18 17  2  0
 20 19  1  0
 21 20  1  0
 22 21  1  0
 23 22  1  1
 23 24  1  0
 23 25  1  0
 25 27  1  0
 26 25  2  0
M  END
$$$$
