HMM.pdb
     RDKit          3D

 27 27  0  0  1  0  0  0  0  0999 V2000
    8.2835  -16.1038   19.6257 N   0  0  0  0  0  0  0  0  0  0  0  0
    9.4657  -15.3888   20.0173 C   0  0  1  0  0  0  0  0  0  0  0  0
    9.7641  -14.2802   19.0433 C   0  0  0  0  0  0  0  0  0  0  0  0
    8.9961  -14.4752   17.7812 C   0  0  0  0  0  0  0  0  0  0  0  0
    7.9683  -13.6857   17.3312 C   0  0  0  0  0  0  0  0  0  0  0  0
    7.5495  -14.2019   16.1587 N   0  0  0  0  0  0  0  0  0  0  0  0
    8.2960  -15.2704   15.9009 C   0  0  0  0  0  0  0  0  0  0  0  0
    9.1859  -15.4532   16.8817 N   0  0  0  0  0  0  0  0  0  0  0  0
    9.4244  -14.9128   21.4082 C   0  0  0  0  0  0  0  0  0  0  0  0
   10.4018  -14.2317   21.8198 O   0  0  0  0  0  0  0  0  0  0  0  0
    7.3094  -11.2285   26.0711 C   0  0  0  0  0  0  0  0  0  0  0  0
    6.0976  -12.5660   25.7582 S   0  0  0  0  0  0  0  0  0  0  0  0
    7.0102  -14.1009   25.6277 C   0  0  0  0  0  0  0  0  0  0  0  0
    7.0559  -14.6373   24.2164 C   0  0  0  0  0  0  0  0  0  0  0  0
    8.4648  -14.7337   23.6923 C   0  0  2  0  0  0  0  0  0  0  0  0
    8.3764  -15.1616   22.3102 N   0  0  0  0  0  0  0  0  0  0  0  0
    9.2344  -15.7612   24.4516 C   0  0  0  0  0  0  0  0  0  0  0  0
    9.2332  -16.9783   24.0814 O   0  0  0  0  0  0  0  0  0  0  0  0
    9.7540  -14.3148   31.1185 C   0  0  0  0  0  0  0  0  0  0  0  0
   10.9909  -14.5044   29.8326 S   0  0  0  0  0  0  0  0  0  0  0  0
   10.4413  -15.7472   28.6296 C   0  0  0  0  0  0  0  0  0  0  0  0
   11.4431  -15.9209   27.5212 C   0  0  0  0  0  0  0  0  0  0  0  0
   10.7862  -16.4760   26.3092 C   0  0  2  0  0  0  0  0  0  0  0  0
    9.9995  -15.4539   25.6087 N   0  0  0  0  0  0  0  0  0  0  0  0
    9.9680  -17.6899   26.5215 C   0  0  0  0  0  0  0  0  0  0  0  0
   10.3997  -18.8574   26.6375 O   0  0  0  0  0  0  0  0  0  0  0  0
    8.5573  -17.6021   26.6122 O   0  0  0  0  0  0  0  0  0  0  0  0
  2  1  1  6
  2  3  1  0
  4  3  1  0
  5  4  2  0
  6  5  1  0
  7  6  1  0
  7  8  2  0
  8  4  1  0
  9  2  1  0
  9 10  2  0
 12 11  1  0
 13 14  1  0
 13 12  1  0
 15 14  1  1
 15 16  1  0
 16  9  1  0
 17 24  1  0
 17 15  1  0
 18 17  2  0
 20 19  1  0
 21 20  1  0
 22 21  1  0
 23 22  1  1
 23 24  1  0
 23 25  1  0
 25 27  1  0
 26 25  2  0
M  END
$$$$
