HMM.pdb
     RDKit          3D

 27 27  0  0  1  0  0  0  0  0999 V2000
    9.2223  -17.8772   20.0693 N   0  0  0  0  0  0  0  0  0  0  0  0
    9.5061  -16.4717   20.1468 C   0  0  1  0  0  0  0  0  0  0  0  0
    8.7753  -15.7209   19.0657 C   0  0  0  0  0  0  0  0  0  0  0  0
    9.0692  -16.3135   17.7303 C   0  0  0  0  0  0  0  0  0  0  0  0
    8.3159  -17.2602   17.0835 C   0  0  0  0  0  0  0  0  0  0  0  0
    8.9237  -17.5233   15.9096 N   0  0  0  0  0  0  0  0  0  0  0  0
   10.0114  -16.7632   15.8414 C   0  0  0  0  0  0  0  0  0  0  0  0
   10.1169  -16.0168   16.9455 N   0  0  0  0  0  0  0  0  0  0  0  0
    9.2660  -15.9018   21.4811 C   0  0  0  0  0  0  0  0  0  0  0  0
    8.6703  -14.7928   21.5421 O   0  0  0  0  0  0  0  0  0  0  0  0
    7.2796  -12.0287   25.5651 C   0  0  0  0  0  0  0  0  0  0  0  0
    6.3669  -13.5398   25.0766 S   0  0  0  0  0  0  0  0  0  0  0  0
    7.4717  -14.9317   25.2956 C   0  0  0  0  0  0  0  0  0  0  0  0
    7.8995  -15.5520   23.9864 C   0  0  0  0  0  0  0  0  0  0  0  0
    9.3727  -15.8649   23.9626 C   0  0  2  0  0  0  0  0  0  0  0  0
    9.6517  -16.5027   22.6911 N   0  0  0  0  0  0  0  0  0  0  0  0
    9.7202  -16.8224   25.0521 C   0  0  0  0  0  0  0  0  0  0  0  0
    9.8567  -18.0632   24.8072 O   0  0  0  0  0  0  0  0  0  0  0  0
   10.1183  -12.4770   28.8470 C   0  0  0  0  0  0  0  0  0  0  0  0
   10.7725  -13.9651   29.6065 S   0  0  0  0  0  0  0  0  0  0  0  0
   11.3421  -15.1122   28.3205 C   0  0  0  0  0  0  0  0  0  0  0  0
   10.9257  -16.5260   28.6206 C   0  0  0  0  0  0  0  0  0  0  0  0
   10.6385  -17.2615   27.3616 C   0  0  2  0  0  0  0  0  0  0  0  0
    9.9160  -16.4196   26.4005 N   0  0  0  0  0  0  0  0  0  0  0  0
    9.9476  -18.5598   27.5197 C   0  0  0  0  0  0  0  0  0  0  0  0
    8.7681  -18.8108   27.1898 O   0  0  0  0  0  0  0  0  0  0  0  0
   10.6187  -19.6692   28.0896 O   0  0  0  0  0  0  0  0  0  0  0  0
  2  1  1  1
  2  3  1  0
  4  3  1  0
  5  4  2  0
  6  5  1  0
  7  6  1  0
  7  8  2  0
  8  4  1  0
  9  2  1  0
  9 10  2  0
 12 11  1  0
 13 14  1  0
 13 12  1  0
 15 14  1  6
 15 16  1  0
 16  9  1  0
 17 24  1  0
 17 15  1  0
 18 17  2  0
 20 19  1  0
 21 20  1  0
 22 21  1  0
 23 22  1  1
 23 24  1  0
 23 25  1  0
 25 27  1  0
 26 25  2  0
M  END
$$$$
