HMM.pdb
     RDKit          3D

 27 27  0  0  1  0  0  0  0  0999 V2000
   10.5813  -16.1374   19.2479 N   0  0  0  0  0  0  0  0  0  0  0  0
    9.7606  -16.8679   20.1725 C   0  0  1  0  0  0  0  0  0  0  0  0
   10.2218  -18.2971   20.2790 C   0  0  0  0  0  0  0  0  0  0  0  0
    9.6823  -19.1040   19.1482 C   0  0  0  0  0  0  0  0  0  0  0  0
    8.8685  -18.6439   18.1441 C   0  0  0  0  0  0  0  0  0  0  0  0
    8.6102  -19.6852   17.3281 N   0  0  0  0  0  0  0  0  0  0  0  0
    9.2445  -20.7454   17.8170 C   0  0  0  0  0  0  0  0  0  0  0  0
    9.9053  -20.4094   18.9296 N   0  0  0  0  0  0  0  0  0  0  0  0
    9.6462  -16.2197   21.4876 C   0  0  0  0  0  0  0  0  0  0  0  0
   10.7080  -15.8103   22.0294 O   0  0  0  0  0  0  0  0  0  0  0  0
    5.9924  -12.0402   25.8797 C   0  0  0  0  0  0  0  0  0  0  0  0
    7.4427  -13.1024   25.5282 S   0  0  0  0  0  0  0  0  0  0  0  0
    6.8473  -14.7791   25.3284 C   0  0  0  0  0  0  0  0  0  0  0  0
    6.9859  -15.2854   23.9120 C   0  0  0  0  0  0  0  0  0  0  0  0
    8.4270  -15.3873   23.4854 C   0  0  2  0  0  0  0  0  0  0  0  0
    8.4413  -16.0239   22.1831 N   0  0  0  0  0  0  0  0  0  0  0  0
    9.1921  -16.2469   24.4343 C   0  0  0  0  0  0  0  0  0  0  0  0
    9.1831  -17.5134   24.3152 O   0  0  0  0  0  0  0  0  0  0  0  0
   11.2521  -12.9032   28.5704 C   0  0  0  0  0  0  0  0  0  0  0  0
   10.0671  -14.1305   29.1261 S   0  0  0  0  0  0  0  0  0  0  0  0
   10.6681  -15.7938   28.7186 C   0  0  0  0  0  0  0  0  0  0  0  0
   11.4540  -15.7961   27.4361 C   0  0  0  0  0  0  0  0  0  0  0  0
   10.7459  -16.5846   26.3942 C   0  0  2  0  0  0  0  0  0  0  0  0
    9.9612  -15.7189   25.5060 N   0  0  0  0  0  0  0  0  0  0  0  0
    9.9070  -17.6972   26.8905 C   0  0  0  0  0  0  0  0  0  0  0  0
    8.6674  -17.6697   27.0502 O   0  0  0  0  0  0  0  0  0  0  0  0
   10.4897  -18.9405   27.2380 O   0  0  0  0  0  0  0  0  0  0  0  0
  2  1  1  6
  2  3  1  0
  4  3  1  0
  5  4  2  0
  6  5  1  0
  7  6  1  0
  7  8  2  0
  8  4  1  0
  9  2  1  0
  9 10  2  0
 12 11  1  0
 13 14  1  0
 13 12  1  0
 15 14  1  1
 15 16  1  0
 16  9  1  0
 17 24  1  0
 17 15  1  0
 18 17  2  0
 20 19  1  0
 21 20  1  0
 22 21  1  0
 23 22  1  1
 23 24  1  0
 23 25  1  0
 25 27  1  0
 26 25  2  0
M  END
$$$$
