HMM.pdb
     RDKit          3D

 27 27  0  0  1  0  0  0  0  0999 V2000
    9.6704  -16.4529   18.5467 N   0  0  0  0  0  0  0  0  0  0  0  0
    8.5998  -16.7799   19.4461 C   0  0  1  0  0  0  0  0  0  0  0  0
    8.3014  -18.2550   19.4042 C   0  0  0  0  0  0  0  0  0  0  0  0
    7.8215  -18.6509   18.0501 C   0  0  0  0  0  0  0  0  0  0  0  0
    8.5057  -19.4211   17.1442 C   0  0  0  0  0  0  0  0  0  0  0  0
    7.7259  -19.5436   16.0517 N   0  0  0  0  0  0  0  0  0  0  0  0
    6.6033  -18.8712   16.2822 C   0  0  0  0  0  0  0  0  0  0  0  0
    6.6436  -18.3187   17.4989 N   0  0  0  0  0  0  0  0  0  0  0  0
    8.8219  -16.2948   20.8166 C   0  0  0  0  0  0  0  0  0  0  0  0
    9.9628  -16.4760   21.3207 O   0  0  0  0  0  0  0  0  0  0  0  0
    8.2333  -12.2681   26.9463 C   0  0  0  0  0  0  0  0  0  0  0  0
    8.0799  -12.5197   25.1384 S   0  0  0  0  0  0  0  0  0  0  0  0
    7.1164  -14.0067   24.8807 C   0  0  0  0  0  0  0  0  0  0  0  0
    6.9934  -14.3798   23.4222 C   0  0  0  0  0  0  0  0  0  0  0  0
    8.1709  -15.1878   22.9429 C   0  0  2  0  0  0  0  0  0  0  0  0
    7.8564  -15.6451   21.6038 N   0  0  0  0  0  0  0  0  0  0  0  0
    8.3702  -16.3843   23.8108 C   0  0  0  0  0  0  0  0  0  0  0  0
    7.7803  -17.4810   23.5504 O   0  0  0  0  0  0  0  0  0  0  0  0
   13.1610  -19.1724   22.5737 C   0  0  0  0  0  0  0  0  0  0  0  0
   12.2341  -20.3537   23.5559 S   0  0  0  0  0  0  0  0  0  0  0  0
   11.3356  -19.4869   24.8732 C   0  0  0  0  0  0  0  0  0  0  0  0
   10.6319  -18.2658   24.3479 C   0  0  0  0  0  0  0  0  0  0  0  0
    9.8752  -17.5937   25.4362 C   0  0  2  0  0  0  0  0  0  0  0  0
    9.2110  -16.3760   24.9560 N   0  0  0  0  0  0  0  0  0  0  0  0
   10.6428  -17.3022   26.6666 C   0  0  0  0  0  0  0  0  0  0  0  0
   11.2655  -18.1353   27.3603 O   0  0  0  0  0  0  0  0  0  0  0  0
   10.7265  -15.9804   27.1683 O   0  0  0  0  0  0  0  0  0  0  0  0
  2  1  1  6
  2  3  1  0
  4  3  1  0
  5  4  2  0
  6  5  1  0
  7  6  1  0
  7  8  2  0
  8  4  1  0
  9  2  1  0
  9 10  2  0
 12 11  1  0
 13 14  1  0
 13 12  1  0
 15 14  1  1
 15 16  1  0
 16  9  1  0
 17 24  1  0
 17 15  1  0
 18 17  2  0
 20 19  1  0
 21 20  1  0
 22 21  1  0
 23 22  1  6
 23 24  1  0
 23 25  1  0
 25 27  1  0
 26 25  2  0
M  END
$$$$
