HMM.pdb
     RDKit          3D

 27 27  0  0  1  0  0  0  0  0999 V2000
   10.5052  -17.9270   18.3611 N   0  0  0  0  0  0  0  0  0  0  0  0
    9.9111  -18.1956   19.6405 C   0  0  1  0  0  0  0  0  0  0  0  0
   10.6714  -19.2750   20.3641 C   0  0  0  0  0  0  0  0  0  0  0  0
   10.5632  -20.5684   19.6318 C   0  0  0  0  0  0  0  0  0  0  0  0
    9.4059  -21.1357   19.1619 C   0  0  0  0  0  0  0  0  0  0  0  0
    9.7420  -22.2955   18.5629 N   0  0  0  0  0  0  0  0  0  0  0  0
   11.0599  -22.4321   18.6634 C   0  0  0  0  0  0  0  0  0  0  0  0
   11.5791  -21.3859   19.3139 N   0  0  0  0  0  0  0  0  0  0  0  0
    9.7337  -16.9905   20.4647 C   0  0  0  0  0  0  0  0  0  0  0  0
   10.7470  -16.2688   20.6665 O   0  0  0  0  0  0  0  0  0  0  0  0
    8.2954  -11.8186   18.5944 C   0  0  0  0  0  0  0  0  0  0  0  0
    8.3914  -12.6601   20.2186 S   0  0  0  0  0  0  0  0  0  0  0  0
    7.1665  -13.9660   20.2226 C   0  0  0  0  0  0  0  0  0  0  0  0
    7.1224  -14.7241   21.5284 C   0  0  0  0  0  0  0  0  0  0  0  0
    8.4397  -15.3820   21.8462 C   0  0  2  0  0  0  0  0  0  0  0  0
    8.5188  -16.5860   21.0427 N   0  0  0  0  0  0  0  0  0  0  0  0
    8.4928  -15.7752   23.2839 C   0  0  0  0  0  0  0  0  0  0  0  0
    7.8832  -16.8127   23.6965 O   0  0  0  0  0  0  0  0  0  0  0  0
    8.0678  -11.5654   27.7723 C   0  0  0  0  0  0  0  0  0  0  0  0
    6.6840  -12.3112   26.9073 S   0  0  0  0  0  0  0  0  0  0  0  0
    7.2958  -13.3643   25.5616 C   0  0  0  0  0  0  0  0  0  0  0  0
    7.5551  -14.7680   26.0358 C   0  0  0  0  0  0  0  0  0  0  0  0
    8.9410  -15.1834   25.6961 C   0  0  2  0  0  0  0  0  0  0  0  0
    9.2102  -15.0340   24.2610 N   0  0  0  0  0  0  0  0  0  0  0  0
    9.3352  -16.5353   26.1489 C   0  0  0  0  0  0  0  0  0  0  0  0
    9.3081  -16.9540   27.3266 O   0  0  0  0  0  0  0  0  0  0  0  0
    9.7968  -17.5006   25.2211 O   0  0  0  0  0  0  0  0  0  0  0  0
  2  1  1  6
  2  3  1  0
  4  3  1  0
  5  4  2  0
  6  5  1  0
  7  6  1  0
  7  8  2  0
  8  4  1  0
  9  2  1  0
  9 10  2  0
 12 11  1  0
 13 14  1  0
 13 12  1  0
 15 14  1  1
 15 16  1  0
 16  9  1  0
 17 24  1  0
 17 15  1  0
 18 17  2  0
 20 19  1  0
 21 20  1  0
 22 21  1  0
 23 22  1  6
 23 24  1  0
 23 25  1  0
 25 27  1  0
 26 25  2  0
M  END
$$$$
