HMM.pdb
     RDKit          3D

 27 27  0  0  1  0  0  0  0  0999 V2000
    8.9068  -18.3134   19.4813 N   0  0  0  0  0  0  0  0  0  0  0  0
    8.6754  -18.4233   20.8943 C   0  0  1  0  0  0  0  0  0  0  0  0
    9.3980  -19.6165   21.4606 C   0  0  0  0  0  0  0  0  0  0  0  0
    8.6731  -20.8735   21.1212 C   0  0  0  0  0  0  0  0  0  0  0  0
    7.5073  -20.9648   20.4039 C   0  0  0  0  0  0  0  0  0  0  0  0
    7.1883  -22.2717   20.3212 N   0  0  0  0  0  0  0  0  0  0  0  0
    8.1273  -22.9558   20.9660 C   0  0  0  0  0  0  0  0  0  0  0  0
    9.0435  -22.1179   21.4618 N   0  0  0  0  0  0  0  0  0  0  0  0
    8.9773  -17.1872   21.6317 C   0  0  0  0  0  0  0  0  0  0  0  0
   10.1113  -16.6662   21.4554 O   0  0  0  0  0  0  0  0  0  0  0  0
    6.3411  -11.3331   26.1637 C   0  0  0  0  0  0  0  0  0  0  0  0
    6.1826  -13.1241   25.8142 S   0  0  0  0  0  0  0  0  0  0  0  0
    7.5164  -13.5781   24.7094 C   0  0  0  0  0  0  0  0  0  0  0  0
    7.3457  -14.9589   24.1211 C   0  0  0  0  0  0  0  0  0  0  0  0
    8.4796  -15.3262   23.1999 C   0  0  2  0  0  0  0  0  0  0  0  0
    8.0950  -16.5457   22.5171 N   0  0  0  0  0  0  0  0  0  0  0  0
    9.7195  -15.5996   23.9824 C   0  0  0  0  0  0  0  0  0  0  0  0
   10.7878  -14.9473   23.7555 O   0  0  0  0  0  0  0  0  0  0  0  0
   10.1429  -13.5458   30.1461 C   0  0  0  0  0  0  0  0  0  0  0  0
   11.2122  -13.8583   28.7396 S   0  0  0  0  0  0  0  0  0  0  0  0
   10.5590  -15.2443   27.7669 C   0  0  0  0  0  0  0  0  0  0  0  0
   11.3465  -15.4481   26.5016 C   0  0  0  0  0  0  0  0  0  0  0  0
   10.9714  -16.7338   25.8575 C   0  0  2  0  0  0  0  0  0  0  0  0
    9.7853  -16.5824   25.0064 N   0  0  0  0  0  0  0  0  0  0  0  0
   10.7972  -17.8833   26.7721 C   0  0  0  0  0  0  0  0  0  0  0  0
    9.7259  -18.4857   27.0010 O   0  0  0  0  0  0  0  0  0  0  0  0
   11.8996  -18.4068   27.4907 O   0  0  0  0  0  0  0  0  0  0  0  0
  2  1  1  6
  2  3  1  0
  4  3  1  0
  5  4  2  0
  6  5  1  0
  7  6  1  0
  7  8  2  0
  8  4  1  0
  9  2  1  0
  9 10  2  0
 12 11  1  0
 13 14  1  0
 13 12  1  0
 15 14  1  1
 15 16  1  0
 16  9  1  0
 17 24  1  0
 17 15  1  0
 18 17  2  0
 20 19  1  0
 21 20  1  0
 22 21  1  0
 23 22  1  1
 23 24  1  0
 23 25  1  0
 25 27  1  0
 26 25  2  0
M  END
$$$$
