INN.pdb
     RDKit          3D

 25 24  0  0  1  0  0  0  0  0999 V2000
    7.0603  -11.2605   25.9714 C   0  0  0  0  0  0  0  0  0  0  0  0
    7.3410  -12.6914   25.6009 C   0  0  0  0  0  0  0  0  0  0  0  0
    6.1045  -13.5599   25.6333 C   0  0  2  0  0  0  0  0  0  0  0  0
    5.4162  -13.5185   26.9712 C   0  0  0  0  0  0  0  0  0  0  0  0
    6.5271  -14.9595   25.2455 C   0  0  2  0  0  0  0  0  0  0  0  0
    7.6697  -15.3142   26.0343 N   0  0  0  0  0  0  0  0  0  0  0  0
    6.8579  -15.0791   23.8128 C   0  0  0  0  0  0  0  0  0  0  0  0
    5.9343  -15.1817   22.9738 O   0  0  0  0  0  0  0  0  0  0  0  0
    8.5479  -12.4012   19.4157 N   0  0  0  0  0  0  0  0  0  0  0  0
    8.0745  -13.6140   19.9412 C   0  0  0  0  0  0  0  0  0  0  0  0
    7.8263  -14.5969   19.1801 O   0  0  0  0  0  0  0  0  0  0  0  0
    7.8604  -13.7570   21.3887 C   0  0  0  0  0  0  0  0  0  0  0  0
    8.4552  -15.0741   21.9132 C   0  0  2  0  0  0  0  0  0  0  0  0
    8.1967  -15.0813   23.3532 N   0  0  0  0  0  0  0  0  0  0  0  0
    9.9221  -15.0682   21.6717 C   0  0  0  0  0  0  0  0  0  0  0  0
   10.3523  -14.9950   20.4698 O   0  0  0  0  0  0  0  0  0  0  0  0
   11.5622  -17.3462   25.6913 N   0  0  0  0  0  0  0  0  0  0  0  0
   10.6810  -17.9552   24.7375 C   0  0  0  0  0  0  0  0  0  0  0  0
   10.0495  -18.9623   25.1169 O   0  0  0  0  0  0  0  0  0  0  0  0
   10.5434  -17.4028   23.3822 C   0  0  0  0  0  0  0  0  0  0  0  0
   11.5760  -16.3748   23.0441 C   0  0  2  0  0  0  0  0  0  0  0  0
   10.8334  -15.1422   22.7396 N   0  0  0  0  0  0  0  0  0  0  0  0
   12.4199  -16.7155   21.8793 C   0  0  0  0  0  0  0  0  0  0  0  0
   11.7704  -17.2491   20.7520 O   0  0  0  0  0  0  0  0  0  0  0  0
   13.6482  -16.5800   21.7905 O   0  0  0  0  0  0  0  0  0  0  0  0
  1  2  1  0
  2  3  1  0
  3  4  1  1
  5  3  1  0
  5  6  1  1
  7  8  2  0
  7  5  1  0
 10  9  1  0
 10 12  1  0
 11 10  2  0
 13 12  1  1
 13 14  1  0
 14  7  1  0
 15 22  1  0
 15 13  1  0
 16 15  2  0
 18 17  1  0
 19 18  2  0
 20 18  1  0
 21 22  1  0
 21 20  1  6
 23 21  1  0
 24 23  1  0
 25 23  2  0
M  END
$$$$
