INN.pdb
     RDKit          3D

 25 24  0  0  1  0  0  0  0  0999 V2000
    6.6591  -11.3711   27.3597 C   0  0  0  0  0  0  0  0  0  0  0  0
    6.2299  -12.3999   26.3492 C   0  0  0  0  0  0  0  0  0  0  0  0
    7.1726  -13.5789   26.2747 C   0  0  2  0  0  0  0  0  0  0  0  0
    8.5932  -13.1548   26.0151 C   0  0  0  0  0  0  0  0  0  0  0  0
    6.6447  -14.5106   25.2064 C   0  0  2  0  0  0  0  0  0  0  0  0
    5.3347  -14.9398   25.5977 N   0  0  0  0  0  0  0  0  0  0  0  0
    7.5097  -15.6873   24.9977 C   0  0  0  0  0  0  0  0  0  0  0  0
    7.3033  -16.7290   25.6608 O   0  0  0  0  0  0  0  0  0  0  0  0
    9.9317  -15.2765   20.6739 N   0  0  0  0  0  0  0  0  0  0  0  0
    9.6578  -16.3890   21.4853 C   0  0  0  0  0  0  0  0  0  0  0  0
    8.7972  -17.2509   21.1340 O   0  0  0  0  0  0  0  0  0  0  0  0
   10.3707  -16.5663   22.7588 C   0  0  0  0  0  0  0  0  0  0  0  0
    9.3951  -16.8761   23.9059 C   0  0  2  0  0  0  0  0  0  0  0  0
    8.5737  -15.6758   24.0641 N   0  0  0  0  0  0  0  0  0  0  0  0
   10.1753  -17.1117   25.1492 C   0  0  0  0  0  0  0  0  0  0  0  0
   10.8122  -16.1360   25.6757 O   0  0  0  0  0  0  0  0  0  0  0  0
    7.8054  -19.8897   27.7246 N   0  0  0  0  0  0  0  0  0  0  0  0
    9.0441  -19.4196   28.2740 C   0  0  0  0  0  0  0  0  0  0  0  0
    8.9720  -18.6979   29.2894 O   0  0  0  0  0  0  0  0  0  0  0  0
   10.3266  -19.7827   27.6544 C   0  0  0  0  0  0  0  0  0  0  0  0
   11.0053  -18.6425   26.9641 C   0  0  2  0  0  0  0  0  0  0  0  0
   10.2211  -18.3834   25.7470 N   0  0  0  0  0  0  0  0  0  0  0  0
   12.4056  -18.9100   26.5734 C   0  0  0  0  0  0  0  0  0  0  0  0
   13.3618  -18.9483   27.6037 O   0  0  0  0  0  0  0  0  0  0  0  0
   12.8291  -19.1052   25.4256 O   0  0  0  0  0  0  0  0  0  0  0  0
  1  2  1  0
  2  3  1  0
  3  4  1  6
  5  3  1  0
  5  6  1  1
  7  8  2  0
  7  5  1  0
 10  9  1  0
 10 12  1  0
 11 10  2  0
 13 12  1  6
 13 14  1  0
 14  7  1  0
 15 22  1  0
 15 13  1  0
 16 15  2  0
 18 17  1  0
 19 18  2  0
 20 18  1  0
 21 22  1  0
 21 20  1  6
 23 21  1  0
 24 23  1  0
 25 23  2  0
M  END
$$$$
