INN.pdb
     RDKit          3D

 25 24  0  0  1  0  0  0  0  0999 V2000
    6.4397  -10.6279   26.8269 C   0  0  0  0  0  0  0  0  0  0  0  0
    7.1126  -11.9715   26.9013 C   0  0  0  0  0  0  0  0  0  0  0  0
    6.6566  -12.9176   25.8144 C   0  0  2  0  0  0  0  0  0  0  0  0
    5.1639  -13.1098   25.8180 C   0  0  0  0  0  0  0  0  0  0  0  0
    7.4058  -14.2176   26.0056 C   0  0  2  0  0  0  0  0  0  0  0  0
    8.7186  -13.9079   26.4894 N   0  0  0  0  0  0  0  0  0  0  0  0
    7.5091  -15.0047   24.7622 C   0  0  0  0  0  0  0  0  0  0  0  0
    6.6851  -15.9214   24.5430 O   0  0  0  0  0  0  0  0  0  0  0  0
    6.5299  -14.3474   21.3927 N   0  0  0  0  0  0  0  0  0  0  0  0
    7.8065  -14.0479   20.8909 C   0  0  0  0  0  0  0  0  0  0  0  0
    7.9526  -13.2126   19.9486 O   0  0  0  0  0  0  0  0  0  0  0  0
    8.9940  -14.7043   21.4568 C   0  0  0  0  0  0  0  0  0  0  0  0
    8.6173  -15.6243   22.6296 C   0  0  2  0  0  0  0  0  0  0  0  0
    8.5181  -14.7541   23.8014 N   0  0  0  0  0  0  0  0  0  0  0  0
    9.7095  -16.6118   22.8350 C   0  0  0  0  0  0  0  0  0  0  0  0
   10.1167  -17.3022   21.8388 O   0  0  0  0  0  0  0  0  0  0  0  0
   12.6070  -17.5033   21.7030 N   0  0  0  0  0  0  0  0  0  0  0  0
   13.2023  -16.6829   22.7176 C   0  0  0  0  0  0  0  0  0  0  0  0
   14.1903  -15.9989   22.3812 O   0  0  0  0  0  0  0  0  0  0  0  0
   12.6585  -16.6637   24.0831 C   0  0  0  0  0  0  0  0  0  0  0  0
   11.5102  -17.6004   24.2864 C   0  0  2  0  0  0  0  0  0  0  0  0
   10.2941  -16.7941   24.1006 N   0  0  0  0  0  0  0  0  0  0  0  0
   11.4602  -18.2256   25.6249 C   0  0  0  0  0  0  0  0  0  0  0  0
   11.7989  -19.5877   25.7086 O   0  0  0  0  0  0  0  0  0  0  0  0
   11.1488  -17.6723   26.6888 O   0  0  0  0  0  0  0  0  0  0  0  0
  1  2  1  0
  2  3  1  0
  3  4  1  1
  5  3  1  0
  5  6  1  6
  7  8  2  0
  7  5  1  0
 10  9  1  0
 10 12  1  0
 11 10  2  0
 13 12  1  6
 13 14  1  0
 14  7  1  0
 15 22  1  0
 15 13  1  0
 16 15  2  0
 18 17  1  0
 19 18  2  0
 20 18  1  0
 21 22  1  0
 21 20  1  1
 23 21  1  0
 24 23  1  0
 25 23  2  0
M  END
$$$$
