INN.pdb
     RDKit          3D

 25 24  0  0  1  0  0  0  0  0999 V2000
    7.7437  -10.8798   26.0056 C   0  0  0  0  0  0  0  0  0  0  0  0
    6.8542  -12.0871   26.1262 C   0  0  0  0  0  0  0  0  0  0  0  0
    7.5299  -13.3618   25.6759 C   0  0  2  0  0  0  0  0  0  0  0  0
    8.0410  -13.2654   24.2635 C   0  0  0  0  0  0  0  0  0  0  0  0
    6.5338  -14.4863   25.8531 C   0  0  2  0  0  0  0  0  0  0  0  0
    5.8799  -14.3070   27.1155 N   0  0  0  0  0  0  0  0  0  0  0  0
    7.1642  -15.8192   25.8067 C   0  0  0  0  0  0  0  0  0  0  0  0
    7.7719  -16.2487   26.8136 O   0  0  0  0  0  0  0  0  0  0  0  0
    8.6547  -20.5247   24.5656 N   0  0  0  0  0  0  0  0  0  0  0  0
    7.3442  -20.3023   24.1139 C   0  0  0  0  0  0  0  0  0  0  0  0
    6.6185  -21.2683   23.7302 O   0  0  0  0  0  0  0  0  0  0  0  0
    6.7969  -18.9382   24.0810 C   0  0  0  0  0  0  0  0  0  0  0  0
    7.7997  -17.9209   24.6496 C   0  0  2  0  0  0  0  0  0  0  0  0
    7.1031  -16.6344   24.6511 N   0  0  0  0  0  0  0  0  0  0  0  0
    8.9758  -17.8481   23.7431 C   0  0  0  0  0  0  0  0  0  0  0  0
    9.1298  -18.7535   22.8533 O   0  0  0  0  0  0  0  0  0  0  0  0
    9.1078  -14.6461   21.0325 N   0  0  0  0  0  0  0  0  0  0  0  0
   10.0982  -15.6752   21.1629 C   0  0  0  0  0  0  0  0  0  0  0  0
   10.0399  -16.6196   20.3493 O   0  0  0  0  0  0  0  0  0  0  0  0
   11.1247  -15.6014   22.2125 C   0  0  0  0  0  0  0  0  0  0  0  0
   11.1723  -16.8095   23.0932 C   0  0  2  0  0  0  0  0  0  0  0  0
    9.9124  -16.8053   23.8521 N   0  0  0  0  0  0  0  0  0  0  0  0
   12.2983  -16.8244   24.0507 C   0  0  0  0  0  0  0  0  0  0  0  0
   12.0598  -16.2875   25.3282 O   0  0  0  0  0  0  0  0  0  0  0  0
   13.4387  -17.2629   23.8451 O   0  0  0  0  0  0  0  0  0  0  0  0
  1  2  1  0
  2  3  1  0
  3  4  1  6
  5  3  1  0
  5  6  1  1
  7  8  2  0
  7  5  1  0
 10  9  1  0
 10 12  1  0
 11 10  2  0
 13 12  1  6
 13 14  1  0
 14  7  1  0
 15 22  1  0
 15 13  1  0
 16 15  2  0
 18 17  1  0
 19 18  2  0
 20 18  1  0
 21 22  1  0
 21 20  1  1
 23 21  1  0
 24 23  1  0
 25 23  2  0
M  END
$$$$
