INN.pdb
     RDKit          3D

 25 24  0  0  1  0  0  0  0  0999 V2000
    7.2626  -12.0133   18.4750 C   0  0  0  0  0  0  0  0  0  0  0  0
    8.4209  -12.9648   18.6040 C   0  0  0  0  0  0  0  0  0  0  0  0
    8.2843  -13.8999   19.7835 C   0  0  2  0  0  0  0  0  0  0  0  0
    8.0843  -13.1570   21.0771 C   0  0  0  0  0  0  0  0  0  0  0  0
    9.5159  -14.7776   19.8072 C   0  0  2  0  0  0  0  0  0  0  0  0
    9.5767  -15.4931   18.5670 N   0  0  0  0  0  0  0  0  0  0  0  0
    9.5135  -15.7336   20.9308 C   0  0  0  0  0  0  0  0  0  0  0  0
    9.4423  -15.3043   22.1047 O   0  0  0  0  0  0  0  0  0  0  0  0
   10.3950  -20.0607   19.3681 N   0  0  0  0  0  0  0  0  0  0  0  0
    9.2445  -19.5337   19.9761 C   0  0  0  0  0  0  0  0  0  0  0  0
    8.2449  -19.1853   19.2787 O   0  0  0  0  0  0  0  0  0  0  0  0
    9.1873  -19.3795   21.4370 C   0  0  0  0  0  0  0  0  0  0  0  0
    9.7464  -18.0164   21.8765 C   0  0  2  0  0  0  0  0  0  0  0  0
    9.5895  -17.1316   20.7220 N   0  0  0  0  0  0  0  0  0  0  0  0
   11.1909  -18.1695   22.1925 C   0  0  0  0  0  0  0  0  0  0  0  0
   11.8880  -19.0033   21.5190 O   0  0  0  0  0  0  0  0  0  0  0  0
   13.8335  -16.5897   21.1560 N   0  0  0  0  0  0  0  0  0  0  0  0
   14.2099  -15.8538   22.3281 C   0  0  0  0  0  0  0  0  0  0  0  0
   14.8435  -14.7939   22.1486 O   0  0  0  0  0  0  0  0  0  0  0  0
   13.8559  -16.3431   23.6683 C   0  0  0  0  0  0  0  0  0  0  0  0
   13.1712  -17.6730   23.6615 C   0  0  2  0  0  0  0  0  0  0  0  0
   11.7938  -17.4154   23.2146 N   0  0  0  0  0  0  0  0  0  0  0  0
   13.1211  -18.3419   24.9788 C   0  0  0  0  0  0  0  0  0  0  0  0
   14.2983  -18.9691   25.4238 O   0  0  0  0  0  0  0  0  0  0  0  0
   12.1442  -18.4092   25.7378 O   0  0  0  0  0  0  0  0  0  0  0  0
  1  2  1  0
  2  3  1  0
  3  4  1  1
  5  3  1  0
  5  6  1  6
  7  8  2  0
  7  5  1  0
 10  9  1  0
 10 12  1  0
 11 10  2  0
 13 12  1  6
 13 14  1  0
 14  7  1  0
 15 22  1  0
 15 13  1  0
 16 15  2  0
 18 17  1  0
 19 18  2  0
 20 18  1  0
 21 22  1  0
 21 20  1  1
 23 21  1  0
 24 23  1  0
 25 23  2  0
M  END
$$$$
