INN.pdb
     RDKit          3D

 25 24  0  0  1  0  0  0  0  0999 V2000
    7.6892  -11.4944   19.8649 C   0  0  0  0  0  0  0  0  0  0  0  0
    8.3341  -12.5569   20.7128 C   0  0  0  0  0  0  0  0  0  0  0  0
    8.4281  -13.8919   20.0105 C   0  0  2  0  0  0  0  0  0  0  0  0
    7.0751  -14.4289   19.6278 C   0  0  0  0  0  0  0  0  0  0  0  0
    9.1828  -14.8301   20.9259 C   0  0  2  0  0  0  0  0  0  0  0  0
    9.9472  -14.0377   21.8433 N   0  0  0  0  0  0  0  0  0  0  0  0
   10.0804  -15.7429   20.1929 C   0  0  0  0  0  0  0  0  0  0  0  0
    9.6130  -16.7827   19.6755 O   0  0  0  0  0  0  0  0  0  0  0  0
   15.1101  -14.7679   18.2539 N   0  0  0  0  0  0  0  0  0  0  0  0
   13.7285  -14.6032   18.4417 C   0  0  0  0  0  0  0  0  0  0  0  0
   13.2639  -13.5261   18.9222 O   0  0  0  0  0  0  0  0  0  0  0  0
   12.8010  -15.6853   18.0808 C   0  0  0  0  0  0  0  0  0  0  0  0
   12.3026  -16.4323   19.3287 C   0  0  2  0  0  0  0  0  0  0  0  0
   11.4641  -15.4781   20.0546 N   0  0  0  0  0  0  0  0  0  0  0  0
   13.4737  -16.8022   20.1663 C   0  0  0  0  0  0  0  0  0  0  0  0
   14.3408  -17.6153   19.6952 O   0  0  0  0  0  0  0  0  0  0  0  0
   16.9472  -16.4048   20.7554 N   0  0  0  0  0  0  0  0  0  0  0  0
   16.3985  -15.4206   21.6428 C   0  0  0  0  0  0  0  0  0  0  0  0
   16.6760  -14.2280   21.4022 O   0  0  0  0  0  0  0  0  0  0  0  0
   15.5518  -15.8198   22.7761 C   0  0  0  0  0  0  0  0  0  0  0  0
   14.5533  -16.8805   22.4367 C   0  0  2  0  0  0  0  0  0  0  0  0
   13.6370  -16.2739   21.4589 N   0  0  0  0  0  0  0  0  0  0  0  0
   13.7608  -17.3651   23.5865 C   0  0  0  0  0  0  0  0  0  0  0  0
   14.4621  -18.0067   24.6227 O   0  0  0  0  0  0  0  0  0  0  0  0
   12.5349  -17.2653   23.7348 O   0  0  0  0  0  0  0  0  0  0  0  0
  1  2  1  0
  2  3  1  0
  3  4  1  1
  5  3  1  0
  5  6  1  1
  7  8  2  0
  7  5  1  0
 10  9  1  0
 10 12  1  0
 11 10  2  0
 13 12  1  6
 13 14  1  0
 14  7  1  0
 15 22  1  0
 15 13  1  0
 16 15  2  0
 18 17  1  0
 19 18  2  0
 20 18  1  0
 21 22  1  0
 21 20  1  1
 23 21  1  0
 24 23  1  0
 25 23  2  0
M  END
$$$$
