INN.pdb
     RDKit          3D

 25 24  0  0  1  0  0  0  0  0999 V2000
    6.5373  -12.3982   18.5746 C   0  0  0  0  0  0  0  0  0  0  0  0
    7.9902  -12.5955   18.9122 C   0  0  0  0  0  0  0  0  0  0  0  0
    8.2596  -13.9142   19.5995 C   0  0  2  0  0  0  0  0  0  0  0  0
    7.4090  -14.0990   20.8274 C   0  0  0  0  0  0  0  0  0  0  0  0
    9.7391  -13.9662   19.9100 C   0  0  2  0  0  0  0  0  0  0  0  0
   10.4568  -13.6424   18.7127 N   0  0  0  0  0  0  0  0  0  0  0  0
   10.1720  -15.2867   20.4051 C   0  0  0  0  0  0  0  0  0  0  0  0
    9.7128  -15.7201   21.4862 O   0  0  0  0  0  0  0  0  0  0  0  0
   10.2293  -18.2284   16.9000 N   0  0  0  0  0  0  0  0  0  0  0  0
   10.3159  -18.4799   18.2785 C   0  0  0  0  0  0  0  0  0  0  0  0
    9.2966  -18.8506   18.9347 O   0  0  0  0  0  0  0  0  0  0  0  0
   11.5977  -18.3146   18.9793 C   0  0  0  0  0  0  0  0  0  0  0  0
   11.4469  -17.4073   20.2113 C   0  0  2  0  0  0  0  0  0  0  0  0
   11.0971  -16.0854   19.6910 N   0  0  0  0  0  0  0  0  0  0  0  0
   12.7538  -17.3339   20.9162 C   0  0  0  0  0  0  0  0  0  0  0  0
   13.3396  -18.4201   21.2508 O   0  0  0  0  0  0  0  0  0  0  0  0
   15.5971  -15.9960   19.3459 N   0  0  0  0  0  0  0  0  0  0  0  0
   15.7818  -14.8132   20.1359 C   0  0  0  0  0  0  0  0  0  0  0  0
   16.3937  -13.8673   19.5993 O   0  0  0  0  0  0  0  0  0  0  0  0
   15.2667  -14.7400   21.5107 C   0  0  0  0  0  0  0  0  0  0  0  0
   14.6053  -15.9994   21.9730 C   0  0  2  0  0  0  0  0  0  0  0  0
   13.3473  -16.0954   21.2170 N   0  0  0  0  0  0  0  0  0  0  0  0
   14.2901  -16.0303   23.4169 C   0  0  0  0  0  0  0  0  0  0  0  0
   12.9759  -15.7003   23.7927 O   0  0  0  0  0  0  0  0  0  0  0  0
   15.0672  -16.3180   24.3379 O   0  0  0  0  0  0  0  0  0  0  0  0
  1  2  1  0
  2  3  1  0
  3  4  1  1
  5  3  1  0
  5  6  1  6
  7  8  2  0
  7  5  1  0
 10  9  1  0
 10 12  1  0
 11 10  2  0
 13 12  1  6
 13 14  1  0
 14  7  1  0
 15 22  1  0
 15 13  1  0
 16 15  2  0
 18 17  1  0
 19 18  2  0
 20 18  1  0
 21 22  1  0
 21 20  1  1
 23 21  1  0
 24 23  1  0
 25 23  2  0
M  END
$$$$
