INN.pdb
     RDKit          3D

 25 24  0  0  1  0  0  0  0  0999 V2000
    7.8512  -11.5852   19.7829 C   0  0  0  0  0  0  0  0  0  0  0  0
    7.5826  -12.9208   19.1444 C   0  0  0  0  0  0  0  0  0  0  0  0
    8.4213  -14.0321   19.7324 C   0  0  2  0  0  0  0  0  0  0  0  0
    9.6826  -13.5151   20.3705 C   0  0  0  0  0  0  0  0  0  0  0  0
    8.7003  -15.0211   18.6225 C   0  0  2  0  0  0  0  0  0  0  0  0
    7.4468  -15.5489   18.1710 N   0  0  0  0  0  0  0  0  0  0  0  0
    9.5778  -16.1269   19.0510 C   0  0  0  0  0  0  0  0  0  0  0  0
    9.1354  -16.9952   19.8369 O   0  0  0  0  0  0  0  0  0  0  0  0
   13.2119  -19.7264   19.1342 N   0  0  0  0  0  0  0  0  0  0  0  0
   13.7668  -18.6118   18.4855 C   0  0  0  0  0  0  0  0  0  0  0  0
   14.9995  -18.5805   18.1916 O   0  0  0  0  0  0  0  0  0  0  0  0
   12.9184  -17.4623   18.1385 C   0  0  0  0  0  0  0  0  0  0  0  0
   11.7640  -17.2983   19.1407 C   0  0  2  0  0  0  0  0  0  0  0  0
   10.9143  -16.2381   18.5981 N   0  0  0  0  0  0  0  0  0  0  0  0
   12.3221  -16.8670   20.4493 C   0  0  0  0  0  0  0  0  0  0  0  0
   12.8204  -15.6942   20.5546 O   0  0  0  0  0  0  0  0  0  0  0  0
   10.4746  -17.3016   25.9136 N   0  0  0  0  0  0  0  0  0  0  0  0
   11.4986  -16.9609   24.9690 C   0  0  0  0  0  0  0  0  0  0  0  0
   12.0605  -15.8571   25.1209 O   0  0  0  0  0  0  0  0  0  0  0  0
   11.8537  -17.8830   23.8807 C   0  0  0  0  0  0  0  0  0  0  0  0
   12.7997  -17.2975   22.8809 C   0  0  2  0  0  0  0  0  0  0  0  0
   12.3090  -17.7261   21.5622 N   0  0  0  0  0  0  0  0  0  0  0  0
   14.2008  -17.7445   23.0296 C   0  0  0  0  0  0  0  0  0  0  0  0
   15.1000  -16.8446   23.6287 O   0  0  0  0  0  0  0  0  0  0  0  0
   14.6703  -18.8362   22.6794 O   0  0  0  0  0  0  0  0  0  0  0  0
  1  2  1  0
  2  3  1  0
  3  4  1  6
  5  3  1  0
  5  6  1  1
  7  8  2  0
  7  5  1  0
 10  9  1  0
 10 12  1  0
 11 10  2  0
 13 12  1  6
 13 14  1  0
 14  7  1  0
 15 22  1  0
 15 13  1  0
 16 15  2  0
 18 17  1  0
 19 18  2  0
 20 18  1  0
 21 22  1  0
 21 20  1  1
 23 21  1  0
 24 23  1  0
 25 23  2  0
M  END
$$$$
