INN.pdb
     RDKit          3D

 25 24  0  0  1  0  0  0  0  0999 V2000
    7.9481  -11.6004   26.5911 C   0  0  0  0  0  0  0  0  0  0  0  0
    6.9802  -12.6941   26.2297 C   0  0  0  0  0  0  0  0  0  0  0  0
    7.6672  -13.9480   25.7397 C   0  0  2  0  0  0  0  0  0  0  0  0
    8.5783  -13.6774   24.5726 C   0  0  0  0  0  0  0  0  0  0  0  0
    6.5865  -14.9526   25.4066 C   0  0  2  0  0  0  0  0  0  0  0  0
    5.6688  -15.0002   26.5061 N   0  0  0  0  0  0  0  0  0  0  0  0
    7.1225  -16.3028   25.1499 C   0  0  0  0  0  0  0  0  0  0  0  0
    7.4261  -17.0390   26.1159 O   0  0  0  0  0  0  0  0  0  0  0  0
    4.9466  -19.6301   23.5893 N   0  0  0  0  0  0  0  0  0  0  0  0
    5.5170  -18.6943   22.7119 C   0  0  0  0  0  0  0  0  0  0  0  0
    4.7977  -17.8228   22.1373 O   0  0  0  0  0  0  0  0  0  0  0  0
    6.9633  -18.7160   22.4488 C   0  0  0  0  0  0  0  0  0  0  0  0
    7.7569  -18.1754   23.6495 C   0  0  2  0  0  0  0  0  0  0  0  0
    7.3056  -16.7962   23.8358 N   0  0  0  0  0  0  0  0  0  0  0  0
    9.2044  -18.1831   23.3109 C   0  0  0  0  0  0  0  0  0  0  0  0
    9.7855  -19.3021   23.0984 O   0  0  0  0  0  0  0  0  0  0  0  0
   14.1325  -16.4722   22.6898 N   0  0  0  0  0  0  0  0  0  0  0  0
   13.1920  -15.4889   22.2364 C   0  0  0  0  0  0  0  0  0  0  0  0
   13.6618  -14.4690   21.6920 O   0  0  0  0  0  0  0  0  0  0  0  0
   11.7473  -15.6928   22.4144 C   0  0  0  0  0  0  0  0  0  0  0  0
   11.4010  -16.9762   23.1001 C   0  0  2  0  0  0  0  0  0  0  0  0
    9.9353  -16.9853   23.2230 N   0  0  0  0  0  0  0  0  0  0  0  0
   11.9871  -17.1267   24.4488 C   0  0  0  0  0  0  0  0  0  0  0  0
   11.3015  -16.5205   25.5163 O   0  0  0  0  0  0  0  0  0  0  0  0
   13.0265  -17.7347   24.7402 O   0  0  0  0  0  0  0  0  0  0  0  0
  1  2  1  0
  2  3  1  0
  3  4  1  6
  5  3  1  0
  5  6  1  1
  7  8  2  0
  7  5  1  0
 10  9  1  0
 10 12  1  0
 11 10  2  0
 13 12  1  6
 13 14  1  0
 14  7  1  0
 15 22  1  0
 15 13  1  0
 16 15  2  0
 18 17  1  0
 19 18  2  0
 20 18  1  0
 21 22  1  0
 21 20  1  1
 23 21  1  0
 24 23  1  0
 25 23  2  0
M  END
$$$$
