INN.pdb
     RDKit          3D

 25 24  0  0  1  0  0  0  0  0999 V2000
    6.4820  -10.3408   26.5806 C   0  0  0  0  0  0  0  0  0  0  0  0
    7.1532  -11.6719   26.7836 C   0  0  0  0  0  0  0  0  0  0  0  0
    6.5535  -12.7679   25.9331 C   0  0  2  0  0  0  0  0  0  0  0  0
    5.1111  -13.0276   26.2756 C   0  0  0  0  0  0  0  0  0  0  0  0
    7.4178  -13.9969   26.1074 C   0  0  2  0  0  0  0  0  0  0  0  0
    8.7772  -13.5680   26.2543 N   0  0  0  0  0  0  0  0  0  0  0  0
    7.3137  -14.9331   24.9721 C   0  0  0  0  0  0  0  0  0  0  0  0
    6.3337  -15.7090   24.9012 O   0  0  0  0  0  0  0  0  0  0  0  0
    8.5537  -15.6746   19.1978 N   0  0  0  0  0  0  0  0  0  0  0  0
    7.8111  -15.8567   20.3753 C   0  0  0  0  0  0  0  0  0  0  0  0
    6.8787  -16.7140   20.4271 O   0  0  0  0  0  0  0  0  0  0  0  0
    8.1092  -15.0497   21.5675 C   0  0  0  0  0  0  0  0  0  0  0  0
    8.1174  -15.9144   22.8388 C   0  0  2  0  0  0  0  0  0  0  0  0
    8.2943  -14.9821   23.9523 N   0  0  0  0  0  0  0  0  0  0  0  0
    9.2763  -16.8436   22.7798 C   0  0  0  0  0  0  0  0  0  0  0  0
    9.3428  -17.6921   21.8256 O   0  0  0  0  0  0  0  0  0  0  0  0
   13.8131  -19.1960   23.6158 N   0  0  0  0  0  0  0  0  0  0  0  0
   13.8789  -17.7633   23.6228 C   0  0  0  0  0  0  0  0  0  0  0  0
   15.0166  -17.2515   23.5936 O   0  0  0  0  0  0  0  0  0  0  0  0
   12.6518  -16.9550   23.6627 C   0  0  0  0  0  0  0  0  0  0  0  0
   11.3997  -17.7671   23.7620 C   0  0  2  0  0  0  0  0  0  0  0  0
   10.2905  -16.8011   23.7525 N   0  0  0  0  0  0  0  0  0  0  0  0
   11.2984  -18.5878   24.9872 C   0  0  0  0  0  0  0  0  0  0  0  0
   11.8235  -19.8910   24.9303 O   0  0  0  0  0  0  0  0  0  0  0  0
   10.7956  -18.2466   26.0669 O   0  0  0  0  0  0  0  0  0  0  0  0
  1  2  1  0
  2  3  1  0
  3  4  1  1
  5  3  1  0
  5  6  1  6
  7  8  2  0
  7  5  1  0
 10  9  1  0
 10 12  1  0
 11 10  2  0
 13 12  1  6
 13 14  1  0
 14  7  1  0
 15 22  1  0
 15 13  1  0
 16 15  2  0
 18 17  1  0
 19 18  2  0
 20 18  1  0
 21 22  1  0
 21 20  1  1
 23 21  1  0
 24 23  1  0
 25 23  2  0
M  END
$$$$
