INN.pdb
     RDKit          3D

 25 24  0  0  1  0  0  0  0  0999 V2000
    7.9511  -11.3338   19.8587 C   0  0  0  0  0  0  0  0  0  0  0  0
    8.3328  -12.6955   20.3723 C   0  0  0  0  0  0  0  0  0  0  0  0
    9.1002  -13.5119   19.3581 C   0  0  2  0  0  0  0  0  0  0  0  0
    8.3340  -13.6893   18.0748 C   0  0  0  0  0  0  0  0  0  0  0  0
    9.4450  -14.8321   20.0108 C   0  0  2  0  0  0  0  0  0  0  0  0
    9.5043  -14.6261   21.4277 N   0  0  0  0  0  0  0  0  0  0  0  0
   10.7279  -15.3849   19.5366 C   0  0  0  0  0  0  0  0  0  0  0  0
   10.7583  -16.0478   18.4750 O   0  0  0  0  0  0  0  0  0  0  0  0
   13.3510  -14.9733   17.0304 N   0  0  0  0  0  0  0  0  0  0  0  0
   14.0653  -14.1550   17.9198 C   0  0  0  0  0  0  0  0  0  0  0  0
   14.7532  -13.1797   17.4926 O   0  0  0  0  0  0  0  0  0  0  0  0
   14.0227  -14.4229   19.3647 C   0  0  0  0  0  0  0  0  0  0  0  0
   13.1887  -15.6767   19.6753 C   0  0  2  0  0  0  0  0  0  0  0  0
   11.9350  -15.1879   20.2493 N   0  0  0  0  0  0  0  0  0  0  0  0
   13.9110  -16.4959   20.6839 C   0  0  0  0  0  0  0  0  0  0  0  0
   14.9599  -17.1345   20.3280 O   0  0  0  0  0  0  0  0  0  0  0  0
   16.2559  -16.0821   22.1381 N   0  0  0  0  0  0  0  0  0  0  0  0
   15.9189  -16.0766   23.5322 C   0  0  0  0  0  0  0  0  0  0  0  0
   16.6979  -15.4729   24.2977 O   0  0  0  0  0  0  0  0  0  0  0  0
   14.7083  -16.7562   24.0152 C   0  0  0  0  0  0  0  0  0  0  0  0
   14.0068  -17.5551   22.9632 C   0  0  2  0  0  0  0  0  0  0  0  0
   13.4578  -16.5763   22.0124 N   0  0  0  0  0  0  0  0  0  0  0  0
   12.8987  -18.3928   23.4685 C   0  0  0  0  0  0  0  0  0  0  0  0
   13.2324  -19.4240   24.3642 O   0  0  0  0  0  0  0  0  0  0  0  0
   11.6980  -18.2818   23.1839 O   0  0  0  0  0  0  0  0  0  0  0  0
  1  2  1  0
  2  3  1  0
  3  4  1  6
  5  3  1  0
  5  6  1  1
  7  8  2  0
  7  5  1  0
 10  9  1  0
 10 12  1  0
 11 10  2  0
 13 12  1  1
 13 14  1  0
 14  7  1  0
 15 22  1  0
 15 13  1  0
 16 15  2  0
 18 17  1  0
 19 18  2  0
 20 18  1  0
 21 22  1  0
 21 20  1  1
 23 21  1  0
 24 23  1  0
 25 23  2  0
M  END
$$$$
