INN.pdb
     RDKit          3D

 25 24  0  0  1  0  0  0  0  0999 V2000
    8.0997  -13.5354   21.4966 C   0  0  0  0  0  0  0  0  0  0  0  0
    7.8672  -14.5016   20.3670 C   0  0  0  0  0  0  0  0  0  0  0  0
    8.4407  -14.0196   19.0544 C   0  0  2  0  0  0  0  0  0  0  0  0
    7.9079  -12.6670   18.6643 C   0  0  0  0  0  0  0  0  0  0  0  0
    8.1414  -15.0783   18.0164 C   0  0  2  0  0  0  0  0  0  0  0  0
    6.7277  -15.3127   18.0144 N   0  0  0  0  0  0  0  0  0  0  0  0
    8.8531  -16.3450   18.2721 C   0  0  0  0  0  0  0  0  0  0  0  0
    8.2367  -17.3045   18.7888 O   0  0  0  0  0  0  0  0  0  0  0  0
   11.8250  -20.4408   17.7808 N   0  0  0  0  0  0  0  0  0  0  0  0
   12.5464  -19.3353   17.3030 C   0  0  0  0  0  0  0  0  0  0  0  0
   13.7740  -19.4421   17.0058 O   0  0  0  0  0  0  0  0  0  0  0  0
   11.8809  -18.0342   17.1417 C   0  0  0  0  0  0  0  0  0  0  0  0
   10.8831  -17.7728   18.2818 C   0  0  2  0  0  0  0  0  0  0  0  0
   10.2212  -16.5112   17.9492 N   0  0  0  0  0  0  0  0  0  0  0  0
   11.6372  -17.6181   19.5536 C   0  0  0  0  0  0  0  0  0  0  0  0
   12.2535  -18.6293   20.0359 O   0  0  0  0  0  0  0  0  0  0  0  0
   13.6314  -13.8674   18.9016 N   0  0  0  0  0  0  0  0  0  0  0  0
   14.0108  -14.6960   20.0091 C   0  0  0  0  0  0  0  0  0  0  0  0
   15.0927  -15.3097   19.9088 O   0  0  0  0  0  0  0  0  0  0  0  0
   13.1511  -14.8029   21.1966 C   0  0  0  0  0  0  0  0  0  0  0  0
   12.5550  -16.1615   21.3871 C   0  0  2  0  0  0  0  0  0  0  0  0
   11.6796  -16.3843   20.2264 N   0  0  0  0  0  0  0  0  0  0  0  0
   11.7505  -16.3093   22.6184 C   0  0  0  0  0  0  0  0  0  0  0  0
   10.3722  -16.5375   22.4593 O   0  0  0  0  0  0  0  0  0  0  0  0
   12.1653  -16.2526   23.7845 O   0  0  0  0  0  0  0  0  0  0  0  0
  1  2  1  0
  2  3  1  0
  3  4  1  6
  5  3  1  0
  5  6  1  1
  7  8  2  0
  7  5  1  0
 10  9  1  0
 10 12  1  0
 11 10  2  0
 13 12  1  6
 13 14  1  0
 14  7  1  0
 15 22  1  0
 15 13  1  0
 16 15  2  0
 18 17  1  0
 19 18  2  0
 20 18  1  0
 21 22  1  0
 21 20  1  6
 23 21  1  0
 24 23  1  0
 25 23  2  0
M  END
$$$$
