INN.pdb
     RDKit          3D

 25 24  0  0  1  0  0  0  0  0999 V2000
    7.5504  -12.0068   20.5701 C   0  0  0  0  0  0  0  0  0  0  0  0
    7.2328  -13.4746   20.6612 C   0  0  0  0  0  0  0  0  0  0  0  0
    8.4105  -14.3534   20.3078 C   0  0  2  0  0  0  0  0  0  0  0  0
    8.9222  -14.0855   18.9179 C   0  0  0  0  0  0  0  0  0  0  0  0
    7.9728  -15.7892   20.4942 C   0  0  2  0  0  0  0  0  0  0  0  0
    7.6454  -15.9789   21.8764 N   0  0  0  0  0  0  0  0  0  0  0  0
    9.0104  -16.7584   20.0935 C   0  0  0  0  0  0  0  0  0  0  0  0
    9.3932  -16.7937   18.9021 O   0  0  0  0  0  0  0  0  0  0  0  0
   12.7822  -18.4132   19.4604 N   0  0  0  0  0  0  0  0  0  0  0  0
   12.3385  -17.0884   19.3221 C   0  0  0  0  0  0  0  0  0  0  0  0
   12.5976  -16.4246   18.2737 O   0  0  0  0  0  0  0  0  0  0  0  0
   11.5643  -16.4537   20.3988 C   0  0  0  0  0  0  0  0  0  0  0  0
   11.0025  -17.5011   21.3740 C   0  0  2  0  0  0  0  0  0  0  0  0
    9.5913  -17.6564   21.0208 N   0  0  0  0  0  0  0  0  0  0  0  0
   11.1127  -16.9744   22.7598 C   0  0  0  0  0  0  0  0  0  0  0  0
   12.2577  -16.6064   23.1941 O   0  0  0  0  0  0  0  0  0  0  0  0
    6.9578  -14.5038   24.4049 N   0  0  0  0  0  0  0  0  0  0  0  0
    8.3444  -14.7864   24.6386 C   0  0  0  0  0  0  0  0  0  0  0  0
    9.1711  -13.9797   24.1664 O   0  0  0  0  0  0  0  0  0  0  0  0
    8.7507  -15.9757   25.4010 C   0  0  0  0  0  0  0  0  0  0  0  0
   10.0921  -16.5106   25.0113 C   0  0  2  0  0  0  0  0  0  0  0  0
    9.9831  -16.8776   23.5912 N   0  0  0  0  0  0  0  0  0  0  0  0
   10.5204  -17.7023   25.7737 C   0  0  0  0  0  0  0  0  0  0  0  0
   10.3314  -18.9550   25.1636 O   0  0  0  0  0  0  0  0  0  0  0  0
   11.0319  -17.7144   26.9021 O   0  0  0  0  0  0  0  0  0  0  0  0
  1  2  1  0
  2  3  1  0
  3  4  1  6
  5  3  1  0
  5  6  1  1
  7  8  2  0
  7  5  1  0
 10  9  1  0
 10 12  1  0
 11 10  2  0
 13 12  1  6
 13 14  1  0
 14  7  1  0
 15 22  1  0
 15 13  1  0
 16 15  2  0
 18 17  1  0
 19 18  2  0
 20 18  1  0
 21 22  1  0
 21 20  1  1
 23 21  1  0
 24 23  1  0
 25 23  2  0
M  END
$$$$
