WHC.pdb
     RDKit          3D

 31 33  0  0  1  0  0  0  0  0999 V2000
    6.6245  -18.2778   24.8376 N   0  0  0  0  0  0  0  0  0  0  0  0
    6.8066  -16.8926   24.4859 C   0  0  1  0  0  0  0  0  0  0  0  0
    7.5673  -16.0900   25.5186 C   0  0  0  0  0  0  0  0  0  0  0  0
    6.6727  -15.0305   26.0607 C   0  0  0  0  0  0  0  0  0  0  0  0
    5.3989  -15.2704   26.6001 C   0  0  0  0  0  0  0  0  0  0  0  0
    4.9535  -14.0894   27.0103 N   0  0  0  0  0  0  0  0  0  0  0  0
    5.8265  -13.1176   26.7823 C   0  0  0  0  0  0  0  0  0  0  0  0
    5.8355  -11.7446   27.0110 C   0  0  0  0  0  0  0  0  0  0  0  0
    6.9284  -10.9870   26.6344 C   0  0  0  0  0  0  0  0  0  0  0  0
    8.0355  -11.5400   26.0308 C   0  0  0  0  0  0  0  0  0  0  0  0
    8.0191  -12.9028   25.8085 C   0  0  0  0  0  0  0  0  0  0  0  0
    6.9268  -13.6912   26.1782 C   0  0  0  0  0  0  0  0  0  0  0  0
    7.5119  -16.7948   23.1885 C   0  0  0  0  0  0  0  0  0  0  0  0
    8.3931  -17.6509   22.9021 O   0  0  0  0  0  0  0  0  0  0  0  0
    7.2255  -15.7766   22.2599 N   0  0  0  0  0  0  0  0  0  0  0  0
    7.9333  -15.6865   21.0134 C   0  0  1  0  0  0  0  0  0  0  0  0
    7.4431  -14.5176   20.2234 C   0  0  0  0  0  0  0  0  0  0  0  0
    8.0823  -14.3169   18.9226 C   0  0  0  0  0  0  0  0  0  0  0  0
    9.0901  -15.0101   18.3393 C   0  0  0  0  0  0  0  0  0  0  0  0
    9.3284  -14.4485   17.1324 N   0  0  0  0  0  0  0  0  0  0  0  0
    8.4708  -13.4116   16.9666 C   0  0  0  0  0  0  0  0  0  0  0  0
    7.7171  -13.3305   18.0520 N   0  0  0  0  0  0  0  0  0  0  0  0
    9.3711  -15.3328   21.3721 C   0  0  0  0  0  0  0  0  0  0  0  0
    9.6421  -14.5451   22.3050 O   0  0  0  0  0  0  0  0  0  0  0  0
   10.4604  -15.8892   20.6506 N   0  0  0  0  0  0  0  0  0  0  0  0
   11.7561  -16.1869   21.2569 C   0  0  1  0  0  0  0  0  0  0  0  0
   11.7071  -17.1364   22.3961 C   0  0  0  0  0  0  0  0  0  0  0  0
   13.3941  -17.4491   23.0146 S   0  0  0  0  0  0  0  0  0  0  0  0
   12.6682  -16.7618   20.1870 C   0  0  0  0  0  0  0  0  0  0  0  0
   12.1242  -17.3750   19.2683 O   0  0  0  0  0  0  0  0  0  0  0  0
   14.0232  -16.6061   20.2502 O   0  0  0  0  0  0  0  0  0  0  0  0
  2  1  1  1
  2 13  1  0
  2  3  1  0
  3  4  1  0
  4  5  2  0
  5  6  1  0
  7  6  1  0
  8  7  2  0
  9  8  1  0
 10 11  1  0
 10  9  2  0
 11 12  2  0
 12  4  1  0
 12  7  1  0
 13 14  2  0
 15 13  1  0
 15 16  1  0
 16 17  1  6
 17 18  1  0
 18 22  1  0
 19 18  2  0
 19 20  1  0
 20 21  1  0
 22 21  2  0
 23 24  2  0
 23 16  1  0
 25 23  1  0
 26 25  1  0
 26 27  1  1
 28 27  1  0
 29 31  1  0
 29 26  1  0
 30 29  2  0
M  END
$$$$
