WHC.pdb
     RDKit          3D

 31 33  0  0  1  0  0  0  0  0999 V2000
    7.4011  -17.0356   24.1455 N   0  0  0  0  0  0  0  0  0  0  0  0
    7.8085  -16.3438   22.9492 C   0  0  1  0  0  0  0  0  0  0  0  0
    7.5198  -14.8586   22.9683 C   0  0  0  0  0  0  0  0  0  0  0  0
    6.9292  -14.4990   24.2869 C   0  0  0  0  0  0  0  0  0  0  0  0
    6.2185  -15.3914   25.1051 C   0  0  0  0  0  0  0  0  0  0  0  0
    5.9053  -14.7063   26.1978 N   0  0  0  0  0  0  0  0  0  0  0  0
    6.3513  -13.4583   26.1520 C   0  0  0  0  0  0  0  0  0  0  0  0
    6.2819  -12.3682   27.0148 C   0  0  0  0  0  0  0  0  0  0  0  0
    6.8576  -11.1638   26.6567 C   0  0  0  0  0  0  0  0  0  0  0  0
    7.5135  -10.9881   25.4589 C   0  0  0  0  0  0  0  0  0  0  0  0
    7.5788  -12.0746   24.6091 C   0  0  0  0  0  0  0  0  0  0  0  0
    7.0043  -13.3024   24.9463 C   0  0  0  0  0  0  0  0  0  0  0  0
    9.2567  -16.5474   22.7227 C   0  0  0  0  0  0  0  0  0  0  0  0
    9.9456  -15.5978   22.2587 O   0  0  0  0  0  0  0  0  0  0  0  0
    9.8918  -17.7691   23.0144 N   0  0  0  0  0  0  0  0  0  0  0  0
   11.2922  -17.9590   22.7582 C   0  0  1  0  0  0  0  0  0  0  0  0
   11.7164  -17.1496   21.5767 C   0  0  0  0  0  0  0  0  0  0  0  0
   11.1290  -17.5405   20.2949 C   0  0  0  0  0  0  0  0  0  0  0  0
   10.3196  -18.5862   19.9988 C   0  0  0  0  0  0  0  0  0  0  0  0
   10.0354  -18.5229   18.6782 N   0  0  0  0  0  0  0  0  0  0  0  0
   10.6648  -17.4410   18.1569 C   0  0  0  0  0  0  0  0  0  0  0  0
   11.3290  -16.8468   19.1360 N   0  0  0  0  0  0  0  0  0  0  0  0
   12.0233  -17.3304   23.9378 C   0  0  0  0  0  0  0  0  0  0  0  0
   12.8324  -16.3890   23.7849 O   0  0  0  0  0  0  0  0  0  0  0  0
   11.8099  -17.7990   25.2613 N   0  0  0  0  0  0  0  0  0  0  0  0
   11.6417  -16.9111   26.4095 C   0  0  1  0  0  0  0  0  0  0  0  0
   10.5213  -15.9455   26.2911 C   0  0  0  0  0  0  0  0  0  0  0  0
   10.5126  -14.8273   27.7320 S   0  0  0  0  0  0  0  0  0  0  0  0
   11.4181  -17.7617   27.6479 C   0  0  0  0  0  0  0  0  0  0  0  0
   11.5750  -17.2063   28.7355 O   0  0  0  0  0  0  0  0  0  0  0  0
   11.0652  -19.0771   27.5517 O   0  0  0  0  0  0  0  0  0  0  0  0
  2  1  1  1
  2 13  1  0
  2  3  1  0
  3  4  1  0
  4  5  2  0
  5  6  1  0
  7  6  1  0
  8  7  2  0
  9  8  1  0
 10 11  1  0
 10  9  2  0
 11 12  2  0
 12  4  1  0
 12  7  1  0
 13 14  2  0
 15 13  1  0
 15 16  1  0
 16 17  1  6
 17 18  1  0
 18 22  1  0
 19 18  2  0
 19 20  1  0
 20 21  1  0
 22 21  2  0
 23 24  2  0
 23 16  1  0
 25 23  1  0
 26 25  1  0
 26 27  1  6
 28 27  1  0
 29 31  1  0
 29 26  1  0
 30 29  2  0
M  END
$$$$
