WHC.pdb
     RDKit          3D

 31 33  0  0  1  0  0  0  0  0999 V2000
    6.4564  -17.1485   23.4381 N   0  0  0  0  0  0  0  0  0  0  0  0
    7.5012  -16.1565   23.4351 C   0  0  1  0  0  0  0  0  0  0  0  0
    8.1815  -15.9747   24.7744 C   0  0  0  0  0  0  0  0  0  0  0  0
    7.3073  -15.1476   25.6510 C   0  0  0  0  0  0  0  0  0  0  0  0
    6.2939  -15.6658   26.4728 C   0  0  0  0  0  0  0  0  0  0  0  0
    5.7871  -14.6236   27.1198 N   0  0  0  0  0  0  0  0  0  0  0  0
    6.3845  -13.4877   26.7862 C   0  0  0  0  0  0  0  0  0  0  0  0
    6.2242  -12.1573   27.1628 C   0  0  0  0  0  0  0  0  0  0  0  0
    7.0244  -11.1783   26.6045 C   0  0  0  0  0  0  0  0  0  0  0  0
    7.9966  -11.4644   25.6724 C   0  0  0  0  0  0  0  0  0  0  0  0
    8.1498  -12.7867   25.3050 C   0  0  0  0  0  0  0  0  0  0  0  0
    7.3536  -13.7951   25.8530 C   0  0  0  0  0  0  0  0  0  0  0  0
    8.5220  -16.5087   22.4232 C   0  0  0  0  0  0  0  0  0  0  0  0
    8.7910  -17.7241   22.2189 O   0  0  0  0  0  0  0  0  0  0  0  0
    9.1999  -15.5271   21.6761 N   0  0  0  0  0  0  0  0  0  0  0  0
   10.2606  -15.8800   20.7742 C   0  0  1  0  0  0  0  0  0  0  0  0
   10.4301  -14.8204   19.7352 C   0  0  0  0  0  0  0  0  0  0  0  0
    9.3035  -14.6436   18.8184 C   0  0  0  0  0  0  0  0  0  0  0  0
    8.1884  -15.3981   18.6647 C   0  0  0  0  0  0  0  0  0  0  0  0
    7.4380  -14.8270   17.6953 N   0  0  0  0  0  0  0  0  0  0  0  0
    8.0842  -13.7214   17.2502 C   0  0  0  0  0  0  0  0  0  0  0  0
    9.2155  -13.6112   17.9292 N   0  0  0  0  0  0  0  0  0  0  0  0
   11.5438  -15.8243   21.5935 C   0  0  0  0  0  0  0  0  0  0  0  0
   11.7976  -14.8650   22.3548 O   0  0  0  0  0  0  0  0  0  0  0  0
   12.5036  -16.8681   21.5168 N   0  0  0  0  0  0  0  0  0  0  0  0
   13.0795  -17.5166   22.6927 C   0  0  1  0  0  0  0  0  0  0  0  0
   12.0902  -18.1307   23.6124 C   0  0  0  0  0  0  0  0  0  0  0  0
   12.7802  -18.2132   25.2987 S   0  0  0  0  0  0  0  0  0  0  0  0
   14.0405  -18.5962   22.2256 C   0  0  0  0  0  0  0  0  0  0  0  0
   13.5597  -19.5136   21.5600 O   0  0  0  0  0  0  0  0  0  0  0  0
   15.3692  -18.5470   22.5361 O   0  0  0  0  0  0  0  0  0  0  0  0
  2  1  1  1
  2 13  1  0
  2  3  1  0
  3  4  1  0
  4  5  2  0
  5  6  1  0
  7  6  1  0
  8  7  2  0
  9  8  1  0
 10 11  1  0
 10  9  2  0
 11 12  2  0
 12  4  1  0
 12  7  1  0
 13 14  2  0
 15 13  1  0
 15 16  1  0
 16 17  1  6
 17 18  1  0
 18 22  1  0
 19 18  2  0
 19 20  1  0
 20 21  1  0
 22 21  2  0
 23 24  2  0
 23 16  1  0
 25 23  1  0
 26 25  1  0
 26 27  1  6
 28 27  1  0
 29 31  1  0
 29 26  1  0
 30 29  2  0
M  END
$$$$
