WHC.pdb
     RDKit          3D

 31 33  0  0  1  0  0  0  0  0999 V2000
    6.4527  -17.8837   25.0307 N   0  0  0  0  0  0  0  0  0  0  0  0
    6.4130  -16.9433   23.9400 C   0  0  1  0  0  0  0  0  0  0  0  0
    5.8931  -15.5755   24.3248 C   0  0  0  0  0  0  0  0  0  0  0  0
    6.6956  -15.0586   25.4675 C   0  0  0  0  0  0  0  0  0  0  0  0
    7.5504  -15.8466   26.2544 C   0  0  0  0  0  0  0  0  0  0  0  0
    8.1088  -15.0138   27.1239 N   0  0  0  0  0  0  0  0  0  0  0  0
    7.6888  -13.7662   26.9637 C   0  0  0  0  0  0  0  0  0  0  0  0
    7.9568  -12.5598   27.6045 C   0  0  0  0  0  0  0  0  0  0  0  0
    7.3265  -11.4013   27.1912 C   0  0  0  0  0  0  0  0  0  0  0  0
    6.4259  -11.3839   26.1498 C   0  0  0  0  0  0  0  0  0  0  0  0
    6.1665  -12.5845   25.5188 C   0  0  0  0  0  0  0  0  0  0  0  0
    6.7889  -13.7698   25.9175 C   0  0  0  0  0  0  0  0  0  0  0  0
    7.7658  -16.7954   23.3582 C   0  0  0  0  0  0  0  0  0  0  0  0
    8.5693  -17.7661   23.4163 O   0  0  0  0  0  0  0  0  0  0  0  0
    8.1826  -15.6037   22.7358 N   0  0  0  0  0  0  0  0  0  0  0  0
    9.3324  -15.5771   21.8754 C   0  0  1  0  0  0  0  0  0  0  0  0
    9.4089  -14.2712   21.1545 C   0  0  0  0  0  0  0  0  0  0  0  0
    8.5738  -14.1559   19.9585 C   0  0  0  0  0  0  0  0  0  0  0  0
    7.4522  -13.4230   19.7556 C   0  0  0  0  0  0  0  0  0  0  0  0
    7.0446  -13.6416   18.4848 N   0  0  0  0  0  0  0  0  0  0  0  0
    7.9108  -14.5058   17.9007 C   0  0  0  0  0  0  0  0  0  0  0  0
    8.8363  -14.8190   18.7942 N   0  0  0  0  0  0  0  0  0  0  0  0
   10.5458  -15.5797   22.7966 C   0  0  0  0  0  0  0  0  0  0  0  0
   10.7364  -14.6732   23.6369 O   0  0  0  0  0  0  0  0  0  0  0  0
   11.5103  -16.6199   22.7288 N   0  0  0  0  0  0  0  0  0  0  0  0
   12.7077  -16.6596   23.5653 C   0  0  1  0  0  0  0  0  0  0  0  0
   12.7971  -17.8326   24.4695 C   0  0  0  0  0  0  0  0  0  0  0  0
   11.2746  -17.9645   25.4651 S   0  0  0  0  0  0  0  0  0  0  0  0
   13.9280  -16.6523   22.6607 C   0  0  0  0  0  0  0  0  0  0  0  0
   13.7209  -16.7691   21.4527 O   0  0  0  0  0  0  0  0  0  0  0  0
   15.1886  -16.5265   23.1697 O   0  0  0  0  0  0  0  0  0  0  0  0
  2  1  1  1
  2 13  1  0
  2  3  1  0
  3  4  1  0
  4  5  2  0
  5  6  1  0
  7  6  1  0
  8  7  2  0
  9  8  1  0
 10 11  1  0
 10  9  2  0
 11 12  2  0
 12  4  1  0
 12  7  1  0
 13 14  2  0
 15 13  1  0
 15 16  1  0
 16 17  1  1
 17 18  1  0
 18 22  1  0
 19 18  2  0
 19 20  1  0
 20 21  1  0
 22 21  2  0
 23 24  2  0
 23 16  1  0
 25 23  1  0
 26 25  1  0
 26 27  1  6
 28 27  1  0
 29 31  1  0
 29 26  1  0
 30 29  2  0
M  END
$$$$
