WHC.pdb
     RDKit          3D

 31 33  0  0  1  0  0  0  0  0999 V2000
    6.3374  -17.5987   24.5676 N   0  0  0  0  0  0  0  0  0  0  0  0
    7.3177  -16.6130   24.1895 C   0  0  1  0  0  0  0  0  0  0  0  0
    7.9850  -15.9271   25.3616 C   0  0  0  0  0  0  0  0  0  0  0  0
    7.0769  -14.8678   25.8812 C   0  0  0  0  0  0  0  0  0  0  0  0
    5.8455  -15.1187   26.5071 C   0  0  0  0  0  0  0  0  0  0  0  0
    5.3732  -13.9301   26.8616 N   0  0  0  0  0  0  0  0  0  0  0  0
    6.1907  -12.9435   26.5194 C   0  0  0  0  0  0  0  0  0  0  0  0
    6.1537  -11.5586   26.6544 C   0  0  0  0  0  0  0  0  0  0  0  0
    7.1915  -10.7873   26.1661 C   0  0  0  0  0  0  0  0  0  0  0  0
    8.2868  -11.3378   25.5391 C   0  0  0  0  0  0  0  0  0  0  0  0
    8.3162  -12.7124   25.4102 C   0  0  0  0  0  0  0  0  0  0  0  0
    7.2800  -13.5147   25.8937 C   0  0  0  0  0  0  0  0  0  0  0  0
    8.3589  -17.2414   23.3461 C   0  0  0  0  0  0  0  0  0  0  0  0
    8.7599  -18.4036   23.6287 O   0  0  0  0  0  0  0  0  0  0  0  0
    8.9132  -16.5826   22.2325 N   0  0  0  0  0  0  0  0  0  0  0  0
   10.1613  -17.0074   21.6628 C   0  0  1  0  0  0  0  0  0  0  0  0
   10.5791  -16.0715   20.5763 C   0  0  0  0  0  0  0  0  0  0  0  0
   11.8357  -16.4006   19.9026 C   0  0  0  0  0  0  0  0  0  0  0  0
   13.0056  -15.7174   19.8753 C   0  0  0  0  0  0  0  0  0  0  0  0
   13.8770  -16.4276   19.1235 N   0  0  0  0  0  0  0  0  0  0  0  0
   13.2506  -17.5481   18.6872 C   0  0  0  0  0  0  0  0  0  0  0  0
   12.0132  -17.5308   19.1575 N   0  0  0  0  0  0  0  0  0  0  0  0
   11.2064  -16.8199   22.7552 C   0  0  0  0  0  0  0  0  0  0  0  0
   11.4116  -15.7061   23.2858 O   0  0  0  0  0  0  0  0  0  0  0  0
   11.9909  -17.9132   23.2090 N   0  0  0  0  0  0  0  0  0  0  0  0
   13.0973  -17.7700   24.1527 C   0  0  1  0  0  0  0  0  0  0  0  0
   12.7278  -17.9537   25.5780 C   0  0  0  0  0  0  0  0  0  0  0  0
   11.6815  -19.4365   25.7603 S   0  0  0  0  0  0  0  0  0  0  0  0
   14.1692  -18.7855   23.7963 C   0  0  0  0  0  0  0  0  0  0  0  0
   13.8696  -19.6329   22.9549 O   0  0  0  0  0  0  0  0  0  0  0  0
   15.3997  -18.7561   24.3871 O   0  0  0  0  0  0  0  0  0  0  0  0
  2  1  1  1
  2 13  1  0
  2  3  1  0
  3  4  1  0
  4  5  2  0
  5  6  1  0
  7  6  1  0
  8  7  2  0
  9  8  1  0
 10 11  1  0
 10  9  2  0
 11 12  2  0
 12  4  1  0
 12  7  1  0
 13 14  2  0
 15 13  1  0
 15 16  1  0
 16 17  1  6
 17 18  1  0
 18 22  1  0
 19 18  2  0
 19 20  1  0
 20 21  1  0
 22 21  2  0
 23 24  2  0
 23 16  1  0
 25 23  1  0
 26 25  1  0
 26 27  1  1
 28 27  1  0
 29 31  1  0
 29 26  1  0
 30 29  2  0
M  END
$$$$
