WHC.pdb
     RDKit          3D

 31 33  0  0  1  0  0  0  0  0999 V2000
    9.3665  -15.3484   24.5377 N   0  0  0  0  0  0  0  0  0  0  0  0
    8.4635  -16.2010   23.8074 C   0  0  1  0  0  0  0  0  0  0  0  0
    7.0566  -15.6555   23.6955 C   0  0  0  0  0  0  0  0  0  0  0  0
    6.6688  -15.0503   24.9994 C   0  0  0  0  0  0  0  0  0  0  0  0
    5.9012  -15.7027   25.9771 C   0  0  0  0  0  0  0  0  0  0  0  0
    5.8185  -14.8547   26.9947 N   0  0  0  0  0  0  0  0  0  0  0  0
    6.4632  -13.7207   26.7560 C   0  0  0  0  0  0  0  0  0  0  0  0
    6.6656  -12.5466   27.4758 C   0  0  0  0  0  0  0  0  0  0  0  0
    7.3994  -11.5136   26.9237 C   0  0  0  0  0  0  0  0  0  0  0  0
    7.9540  -11.5940   25.6661 C   0  0  0  0  0  0  0  0  0  0  0  0
    7.7494  -12.7624   24.9590 C   0  0  0  0  0  0  0  0  0  0  0  0
    7.0109  -13.8209   25.4932 C   0  0  0  0  0  0  0  0  0  0  0  0
    8.9936  -16.4416   22.4468 C   0  0  0  0  0  0  0  0  0  0  0  0
    8.4036  -17.2641   21.6940 O   0  0  0  0  0  0  0  0  0  0  0  0
   10.1356  -15.7755   21.9638 N   0  0  0  0  0  0  0  0  0  0  0  0
   10.6898  -16.0882   20.6761 C   0  0  1  0  0  0  0  0  0  0  0  0
   10.6621  -14.8828   19.7945 C   0  0  0  0  0  0  0  0  0  0  0  0
    9.3475  -14.5068   19.2735 C   0  0  0  0  0  0  0  0  0  0  0  0
    8.1685  -15.1711   19.3434 C   0  0  0  0  0  0  0  0  0  0  0  0
    7.2358  -14.4165   18.7193 N   0  0  0  0  0  0  0  0  0  0  0  0
    7.8334  -13.2875   18.2651 C   0  0  0  0  0  0  0  0  0  0  0  0
    9.1133  -13.3430   18.5991 N   0  0  0  0  0  0  0  0  0  0  0  0
   12.1704  -16.3590   20.9113 C   0  0  0  0  0  0  0  0  0  0  0  0
   12.9000  -15.5454   21.5194 O   0  0  0  0  0  0  0  0  0  0  0  0
   12.7765  -17.5541   20.4409 N   0  0  0  0  0  0  0  0  0  0  0  0
   13.6550  -18.3850   21.2613 C   0  0  1  0  0  0  0  0  0  0  0  0
   13.0480  -18.8759   22.5232 C   0  0  0  0  0  0  0  0  0  0  0  0
   14.0917  -18.3964   23.9400 S   0  0  0  0  0  0  0  0  0  0  0  0
   14.0930  -19.5834   20.4372 C   0  0  0  0  0  0  0  0  0  0  0  0
   13.2051  -20.2106   19.8592 O   0  0  0  0  0  0  0  0  0  0  0  0
   15.4071  -19.9433   20.3500 O   0  0  0  0  0  0  0  0  0  0  0  0
  2  1  1  6
  2 13  1  0
  2  3  1  0
  3  4  1  0
  4  5  2  0
  5  6  1  0
  7  6  1  0
  8  7  2  0
  9  8  1  0
 10 11  1  0
 10  9  2  0
 11 12  2  0
 12  4  1  0
 12  7  1  0
 13 14  2  0
 15 13  1  0
 15 16  1  0
 16 17  1  6
 17 18  1  0
 18 22  1  0
 19 18  2  0
 19 20  1  0
 20 21  1  0
 22 21  2  0
 23 24  2  0
 23 16  1  0
 25 23  1  0
 26 25  1  0
 26 27  1  1
 28 27  1  0
 29 31  1  0
 29 26  1  0
 30 29  2  0
M  END
$$$$
