WHC.pdb
     RDKit          3D

 31 33  0  0  1  0  0  0  0  0999 V2000
    6.4256  -17.0967   23.5041 N   0  0  0  0  0  0  0  0  0  0  0  0
    7.4455  -16.0805   23.4500 C   0  0  1  0  0  0  0  0  0  0  0  0
    8.1042  -15.7977   24.7825 C   0  0  0  0  0  0  0  0  0  0  0  0
    7.1576  -15.0263   25.6343 C   0  0  0  0  0  0  0  0  0  0  0  0
    6.1050  -15.5990   26.3658 C   0  0  0  0  0  0  0  0  0  0  0  0
    5.5350  -14.5958   27.0216 N   0  0  0  0  0  0  0  0  0  0  0  0
    6.1275  -13.4352   26.7758 C   0  0  0  0  0  0  0  0  0  0  0  0
    5.9142  -12.1257   27.1968 C   0  0  0  0  0  0  0  0  0  0  0  0
    6.7269  -11.1083   26.7335 C   0  0  0  0  0  0  0  0  0  0  0  0
    7.7630  -11.3349   25.8555 C   0  0  0  0  0  0  0  0  0  0  0  0
    7.9685  -12.6369   25.4436 C   0  0  0  0  0  0  0  0  0  0  0  0
    7.1611  -13.6832   25.8956 C   0  0  0  0  0  0  0  0  0  0  0  0
    8.4873  -16.4695   22.4735 C   0  0  0  0  0  0  0  0  0  0  0  0
    8.8218  -17.6824   22.3824 O   0  0  0  0  0  0  0  0  0  0  0  0
    9.1143  -15.5263   21.6378 N   0  0  0  0  0  0  0  0  0  0  0  0
   10.1715  -15.9108   20.7448 C   0  0  1  0  0  0  0  0  0  0  0  0
   10.3752  -14.8611   19.7020 C   0  0  0  0  0  0  0  0  0  0  0  0
    9.2756  -14.6870   18.7524 C   0  0  0  0  0  0  0  0  0  0  0  0
    8.7076  -15.5877   17.9142 C   0  0  0  0  0  0  0  0  0  0  0  0
    7.7219  -14.9539   17.2393 N   0  0  0  0  0  0  0  0  0  0  0  0
    7.6774  -13.6651   17.6580 C   0  0  0  0  0  0  0  0  0  0  0  0
    8.6201  -13.5028   18.5734 N   0  0  0  0  0  0  0  0  0  0  0  0
   11.4502  -15.8842   21.5725 C   0  0  0  0  0  0  0  0  0  0  0  0
   11.8074  -14.8628   22.1996 O   0  0  0  0  0  0  0  0  0  0  0  0
   12.2873  -17.0282   21.6578 N   0  0  0  0  0  0  0  0  0  0  0  0
   13.1375  -17.3163   22.8107 C   0  0  1  0  0  0  0  0  0  0  0  0
   12.4129  -17.7902   24.0157 C   0  0  0  0  0  0  0  0  0  0  0  0
   12.6579  -16.6141   25.3881 S   0  0  0  0  0  0  0  0  0  0  0  0
   14.1517  -18.3734   22.4095 C   0  0  0  0  0  0  0  0  0  0  0  0
   13.9005  -19.0230   21.3943 O   0  0  0  0  0  0  0  0  0  0  0  0
   15.2811  -18.5896   23.1456 O   0  0  0  0  0  0  0  0  0  0  0  0
  2  1  1  1
  2 13  1  0
  2  3  1  0
  3  4  1  0
  4  5  2  0
  5  6  1  0
  7  6  1  0
  8  7  2  0
  9  8  1  0
 10 11  1  0
 10  9  2  0
 11 12  2  0
 12  4  1  0
 12  7  1  0
 13 14  2  0
 15 13  1  0
 15 16  1  0
 16 17  1  6
 17 18  1  0
 18 22  1  0
 19 18  2  0
 19 20  1  0
 20 21  1  0
 22 21  2  0
 23 24  2  0
 23 16  1  0
 25 23  1  0
 26 25  1  0
 26 27  1  1
 28 27  1  0
 29 31  1  0
 29 26  1  0
 30 29  2  0
M  END
$$$$
