WHC.pdb
     RDKit          3D

 31 33  0  0  1  0  0  0  0  0999 V2000
    6.9451  -18.4262   24.8260 N   0  0  0  0  0  0  0  0  0  0  0  0
    6.9960  -17.0321   24.4662 C   0  0  1  0  0  0  0  0  0  0  0  0
    7.7275  -16.1643   25.4669 C   0  0  0  0  0  0  0  0  0  0  0  0
    6.7879  -15.1344   25.9896 C   0  0  0  0  0  0  0  0  0  0  0  0
    5.4834  -15.4055   26.4319 C   0  0  0  0  0  0  0  0  0  0  0  0
    4.9996  -14.2454   26.8583 N   0  0  0  0  0  0  0  0  0  0  0  0
    5.8761  -13.2588   26.7288 C   0  0  0  0  0  0  0  0  0  0  0  0
    5.8559  -11.8962   27.0125 C   0  0  0  0  0  0  0  0  0  0  0  0
    6.9639  -11.1158   26.7411 C   0  0  0  0  0  0  0  0  0  0  0  0
    8.1144  -11.6356   26.1917 C   0  0  0  0  0  0  0  0  0  0  0  0
    8.1267  -12.9883   25.9142 C   0  0  0  0  0  0  0  0  0  0  0  0
    7.0201  -13.7991   26.1776 C   0  0  0  0  0  0  0  0  0  0  0  0
    7.6381  -16.8809   23.1414 C   0  0  0  0  0  0  0  0  0  0  0  0
    8.3960  -17.7961   22.7178 O   0  0  0  0  0  0  0  0  0  0  0  0
    7.4247  -15.7470   22.3353 N   0  0  0  0  0  0  0  0  0  0  0  0
    8.0074  -15.6448   21.0265 C   0  0  1  0  0  0  0  0  0  0  0  0
    7.4378  -14.4727   20.2967 C   0  0  0  0  0  0  0  0  0  0  0  0
    7.9383  -14.2663   18.9373 C   0  0  0  0  0  0  0  0  0  0  0  0
    8.8385  -14.9906   18.2291 C   0  0  0  0  0  0  0  0  0  0  0  0
    8.9698  -14.4072   17.0161 N   0  0  0  0  0  0  0  0  0  0  0  0
    8.1532  -13.3259   16.9711 C   0  0  0  0  0  0  0  0  0  0  0  0
    7.5296  -13.2393   18.1358 N   0  0  0  0  0  0  0  0  0  0  0  0
    9.4718  -15.2867   21.2462 C   0  0  0  0  0  0  0  0  0  0  0  0
    9.8114  -14.2665   21.8849 O   0  0  0  0  0  0  0  0  0  0  0  0
   10.5086  -16.1059   20.7258 N   0  0  0  0  0  0  0  0  0  0  0  0
   11.7275  -16.4246   21.4660 C   0  0  1  0  0  0  0  0  0  0  0  0
   11.5056  -17.0826   22.7773 C   0  0  0  0  0  0  0  0  0  0  0  0
   12.8704  -16.6717   23.9152 S   0  0  0  0  0  0  0  0  0  0  0  0
   12.5885  -17.3351   20.6076 C   0  0  0  0  0  0  0  0  0  0  0  0
   13.8054  -17.2723   20.7839 O   0  0  0  0  0  0  0  0  0  0  0  0
   12.0335  -18.1754   19.6856 O   0  0  0  0  0  0  0  0  0  0  0  0
  2  1  1  1
  2 13  1  0
  2  3  1  0
  3  4  1  0
  4  5  2  0
  5  6  1  0
  7  6  1  0
  8  7  2  0
  9  8  1  0
 10 11  1  0
 10  9  2  0
 11 12  2  0
 12  4  1  0
 12  7  1  0
 13 14  2  0
 15 13  1  0
 15 16  1  0
 16 17  1  6
 17 18  1  0
 18 22  1  0
 19 18  2  0
 19 20  1  0
 20 21  1  0
 22 21  2  0
 23 24  2  0
 23 16  1  0
 25 23  1  0
 26 25  1  0
 26 27  1  1
 28 27  1  0
 29 31  1  0
 29 26  1  0
 30 29  2  0
M  END
$$$$
