WHC.pdb
     RDKit          3D

 31 33  0  0  1  0  0  0  0  0999 V2000
    7.0175  -16.6914   23.6667 N   0  0  0  0  0  0  0  0  0  0  0  0
    8.1218  -16.1363   24.4070 C   0  0  1  0  0  0  0  0  0  0  0  0
    7.8084  -15.8521   25.8597 C   0  0  0  0  0  0  0  0  0  0  0  0
    6.8604  -14.7063   25.9333 C   0  0  0  0  0  0  0  0  0  0  0  0
    5.5334  -14.8051   26.3807 C   0  0  0  0  0  0  0  0  0  0  0  0
    5.0469  -13.5709   26.3395 N   0  0  0  0  0  0  0  0  0  0  0  0
    5.9421  -12.6935   25.9069 C   0  0  0  0  0  0  0  0  0  0  0  0
    5.9280  -11.3198   25.6822 C   0  0  0  0  0  0  0  0  0  0  0  0
    7.0580  -10.6850   25.2023 C   0  0  0  0  0  0  0  0  0  0  0  0
    8.2250  -11.3634   24.9311 C   0  0  0  0  0  0  0  0  0  0  0  0
    8.2311  -12.7256   25.1577 C   0  0  0  0  0  0  0  0  0  0  0  0
    7.1024  -13.3917   25.6411 C   0  0  0  0  0  0  0  0  0  0  0  0
    9.2813  -17.0532   24.3376 C   0  0  0  0  0  0  0  0  0  0  0  0
    9.3128  -18.0624   25.0939 O   0  0  0  0  0  0  0  0  0  0  0  0
   10.3502  -16.8364   23.4479 N   0  0  0  0  0  0  0  0  0  0  0  0
   11.5573  -17.6102   23.5332 C   0  0  1  0  0  0  0  0  0  0  0  0
   12.4830  -17.2492   22.4180 C   0  0  0  0  0  0  0  0  0  0  0  0
   13.7678  -17.9494   22.4070 C   0  0  0  0  0  0  0  0  0  0  0  0
   14.8947  -17.6977   23.1161 C   0  0  0  0  0  0  0  0  0  0  0  0
   15.8153  -18.6238   22.7644 N   0  0  0  0  0  0  0  0  0  0  0  0
   15.2612  -19.4482   21.8416 C   0  0  0  0  0  0  0  0  0  0  0  0
   14.0213  -19.0385   21.6234 N   0  0  0  0  0  0  0  0  0  0  0  0
   12.2704  -17.1373   24.7937 C   0  0  0  0  0  0  0  0  0  0  0  0
   12.3947  -15.9224   25.0632 O   0  0  0  0  0  0  0  0  0  0  0  0
   12.8245  -18.0692   25.7108 N   0  0  0  0  0  0  0  0  0  0  0  0
   12.6596  -17.9649   27.1589 C   0  0  1  0  0  0  0  0  0  0  0  0
   11.3215  -17.5009   27.6014 C   0  0  0  0  0  0  0  0  0  0  0  0
   11.4342  -15.7908   28.2254 S   0  0  0  0  0  0  0  0  0  0  0  0
   12.9264  -19.3280   27.7738 C   0  0  0  0  0  0  0  0  0  0  0  0
   12.7538  -20.3059   27.0459 O   0  0  0  0  0  0  0  0  0  0  0  0
   13.3329  -19.4546   29.0711 O   0  0  0  0  0  0  0  0  0  0  0  0
  2  1  1  1
  2 13  1  0
  2  3  1  0
  3  4  1  0
  4  5  2  0
  5  6  1  0
  7  6  1  0
  8  7  2  0
  9  8  1  0
 10 11  1  0
 10  9  2  0
 11 12  2  0
 12  4  1  0
 12  7  1  0
 13 14  2  0
 15 13  1  0
 15 16  1  0
 16 17  1  6
 17 18  1  0
 18 22  1  0
 19 18  2  0
 19 20  1  0
 20 21  1  0
 22 21  2  0
 23 24  2  0
 23 16  1  0
 25 23  1  0
 26 25  1  0
 26 27  1  6
 28 27  1  0
 29 31  1  0
 29 26  1  0
 30 29  2  0
M  END
$$$$
