WHC.pdb
     RDKit          3D

 31 33  0  0  1  0  0  0  0  0999 V2000
    6.3186  -17.2338   23.6831 N   0  0  0  0  0  0  0  0  0  0  0  0
    7.2118  -16.1159   23.5149 C   0  0  1  0  0  0  0  0  0  0  0  0
    7.9202  -15.6973   24.7847 C   0  0  0  0  0  0  0  0  0  0  0  0
    7.0142  -14.8191   25.5752 C   0  0  0  0  0  0  0  0  0  0  0  0
    5.8744  -15.2700   26.2597 C   0  0  0  0  0  0  0  0  0  0  0  0
    5.3757  -14.2024   26.8705 N   0  0  0  0  0  0  0  0  0  0  0  0
    6.0931  -13.1114   26.6386 C   0  0  0  0  0  0  0  0  0  0  0  0
    5.9913  -11.7792   27.0289 C   0  0  0  0  0  0  0  0  0  0  0  0
    6.9239  -10.8568   26.5934 C   0  0  0  0  0  0  0  0  0  0  0  0
    7.9747  -11.2025   25.7735 C   0  0  0  0  0  0  0  0  0  0  0  0
    8.0690  -12.5262   25.3917 C   0  0  0  0  0  0  0  0  0  0  0  0
    7.1393  -13.4781   25.8167 C   0  0  0  0  0  0  0  0  0  0  0  0
    8.2248  -16.4361   22.4846 C   0  0  0  0  0  0  0  0  0  0  0  0
    8.4677  -17.6446   22.2164 O   0  0  0  0  0  0  0  0  0  0  0  0
    8.9235  -15.4313   21.7894 N   0  0  0  0  0  0  0  0  0  0  0  0
    9.9258  -15.7610   20.8149 C   0  0  1  0  0  0  0  0  0  0  0  0
   10.1441  -14.6106   19.8877 C   0  0  0  0  0  0  0  0  0  0  0  0
    9.0471  -14.3229   18.9631 C   0  0  0  0  0  0  0  0  0  0  0  0
    8.1975  -13.2677   18.9327 C   0  0  0  0  0  0  0  0  0  0  0  0
    7.3591  -13.4470   17.8868 N   0  0  0  0  0  0  0  0  0  0  0  0
    7.6882  -14.6084   17.2695 C   0  0  0  0  0  0  0  0  0  0  0  0
    8.7097  -15.1402   17.9227 N   0  0  0  0  0  0  0  0  0  0  0  0
   11.2340  -15.8879   21.5853 C   0  0  0  0  0  0  0  0  0  0  0  0
   11.8693  -14.8832   21.9740 O   0  0  0  0  0  0  0  0  0  0  0  0
   11.7812  -17.1630   21.8877 N   0  0  0  0  0  0  0  0  0  0  0  0
   13.0370  -17.3461   22.6120 C   0  0  1  0  0  0  0  0  0  0  0  0
   12.9198  -18.1110   23.8780 C   0  0  0  0  0  0  0  0  0  0  0  0
   11.5542  -17.4394   24.8832 S   0  0  0  0  0  0  0  0  0  0  0  0
   14.0181  -18.0647   21.7019 C   0  0  0  0  0  0  0  0  0  0  0  0
   13.5876  -18.4379   20.6105 O   0  0  0  0  0  0  0  0  0  0  0  0
   15.3101  -18.2858   22.0840 O   0  0  0  0  0  0  0  0  0  0  0  0
  2  1  1  1
  2 13  1  0
  2  3  1  0
  3  4  1  0
  4  5  2  0
  5  6  1  0
  7  6  1  0
  8  7  2  0
  9  8  1  0
 10 11  1  0
 10  9  2  0
 11 12  2  0
 12  4  1  0
 12  7  1  0
 13 14  2  0
 15 13  1  0
 15 16  1  0
 16 17  1  6
 17 18  1  0
 18 22  1  0
 19 18  2  0
 19 20  1  0
 20 21  1  0
 22 21  2  0
 23 24  2  0
 23 16  1  0
 25 23  1  0
 26 25  1  0
 26 27  1  1
 28 27  1  0
 29 31  1  0
 29 26  1  0
 30 29  2  0
M  END
$$$$
