WHC.pdb
     RDKit          3D

 31 33  0  0  1  0  0  0  0  0999 V2000
    6.2054  -17.2356   23.6019 N   0  0  0  0  0  0  0  0  0  0  0  0
    7.2079  -16.2050   23.5087 C   0  0  1  0  0  0  0  0  0  0  0  0
    7.8745  -15.8735   24.8259 C   0  0  0  0  0  0  0  0  0  0  0  0
    7.0051  -14.9309   25.5825 C   0  0  0  0  0  0  0  0  0  0  0  0
    5.8188  -15.3003   26.2361 C   0  0  0  0  0  0  0  0  0  0  0  0
    5.3731  -14.1968   26.8238 N   0  0  0  0  0  0  0  0  0  0  0  0
    6.1666  -13.1571   26.6053 C   0  0  0  0  0  0  0  0  0  0  0  0
    6.1406  -11.8174   26.9824 C   0  0  0  0  0  0  0  0  0  0  0  0
    7.1438  -10.9617   26.5679 C   0  0  0  0  0  0  0  0  0  0  0  0
    8.1932  -11.3826   25.7822 C   0  0  0  0  0  0  0  0  0  0  0  0
    8.2121  -12.7132   25.4134 C   0  0  0  0  0  0  0  0  0  0  0  0
    7.2102  -13.5986   25.8176 C   0  0  0  0  0  0  0  0  0  0  0  0
    8.2467  -16.6050   22.5334 C   0  0  0  0  0  0  0  0  0  0  0  0
    8.5313  -17.8273   22.4054 O   0  0  0  0  0  0  0  0  0  0  0  0
    8.9250  -15.6618   21.7388 N   0  0  0  0  0  0  0  0  0  0  0  0
    9.9433  -16.0668   20.8104 C   0  0  1  0  0  0  0  0  0  0  0  0
   10.2557  -14.9522   19.8665 C   0  0  0  0  0  0  0  0  0  0  0  0
    9.1946  -14.6040   18.9211 C   0  0  0  0  0  0  0  0  0  0  0  0
    8.1141  -15.3234   18.5322 C   0  0  0  0  0  0  0  0  0  0  0  0
    7.4214  -14.5743   17.6446 N   0  0  0  0  0  0  0  0  0  0  0  0
    8.0687  -13.3939   17.4844 C   0  0  0  0  0  0  0  0  0  0  0  0
    9.1442  -13.4125   18.2562 N   0  0  0  0  0  0  0  0  0  0  0  0
   11.2140  -16.2428   21.6321 C   0  0  0  0  0  0  0  0  0  0  0  0
   11.8098  -15.2675   22.1402 O   0  0  0  0  0  0  0  0  0  0  0  0
   11.7701  -17.5316   21.8478 N   0  0  0  0  0  0  0  0  0  0  0  0
   13.0166  -17.7560   22.5765 C   0  0  1  0  0  0  0  0  0  0  0  0
   12.8787  -18.5679   23.8108 C   0  0  0  0  0  0  0  0  0  0  0  0
   11.2065  -18.3563   24.5076 S   0  0  0  0  0  0  0  0  0  0  0  0
   13.9991  -18.4497   21.6488 C   0  0  0  0  0  0  0  0  0  0  0  0
   13.5624  -18.8204   20.5589 O   0  0  0  0  0  0  0  0  0  0  0  0
   15.2989  -18.6522   22.0141 O   0  0  0  0  0  0  0  0  0  0  0  0
  2  1  1  1
  2 13  1  0
  2  3  1  0
  3  4  1  0
  4  5  2  0
  5  6  1  0
  7  6  1  0
  8  7  2  0
  9  8  1  0
 10 11  1  0
 10  9  2  0
 11 12  2  0
 12  4  1  0
 12  7  1  0
 13 14  2  0
 15 13  1  0
 15 16  1  0
 16 17  1  6
 17 18  1  0
 18 22  1  0
 19 18  2  0
 19 20  1  0
 20 21  1  0
 22 21  2  0
 23 24  2  0
 23 16  1  0
 25 23  1  0
 26 25  1  0
 26 27  1  1
 28 27  1  0
 29 31  1  0
 29 26  1  0
 30 29  2  0
M  END
$$$$
