WHC.pdb
     RDKit          3D

 31 33  0  0  1  0  0  0  0  0999 V2000
    5.8478  -17.0755   23.5224 N   0  0  0  0  0  0  0  0  0  0  0  0
    7.1172  -16.4203   23.7094 C   0  0  1  0  0  0  0  0  0  0  0  0
    7.5165  -16.2539   25.1594 C   0  0  0  0  0  0  0  0  0  0  0  0
    6.7847  -15.0899   25.7305 C   0  0  0  0  0  0  0  0  0  0  0  0
    5.5463  -15.1783   26.3860 C   0  0  0  0  0  0  0  0  0  0  0  0
    5.2601  -13.9444   26.7825 N   0  0  0  0  0  0  0  0  0  0  0  0
    6.2026  -13.0766   26.4403 C   0  0  0  0  0  0  0  0  0  0  0  0
    6.3698  -11.7051   26.6094 C   0  0  0  0  0  0  0  0  0  0  0  0
    7.4955  -11.0779   26.1096 C   0  0  0  0  0  0  0  0  0  0  0  0
    8.4833  -11.7626   25.4378 C   0  0  0  0  0  0  0  0  0  0  0  0
    8.3103  -13.1229   25.2752 C   0  0  0  0  0  0  0  0  0  0  0  0
    7.1816  -13.7810   25.7695 C   0  0  0  0  0  0  0  0  0  0  0  0
    8.1776  -17.1741   23.0040 C   0  0  0  0  0  0  0  0  0  0  0  0
    7.8546  -17.9714   22.0813 O   0  0  0  0  0  0  0  0  0  0  0  0
    9.5391  -17.0247   23.3283 N   0  0  0  0  0  0  0  0  0  0  0  0
   10.5699  -17.4543   22.4251 C   0  0  1  0  0  0  0  0  0  0  0  0
   10.4730  -16.7063   21.1359 C   0  0  0  0  0  0  0  0  0  0  0  0
   11.4569  -17.0690   20.1154 C   0  0  0  0  0  0  0  0  0  0  0  0
   12.4616  -17.9767   20.1684 C   0  0  0  0  0  0  0  0  0  0  0  0
   13.0957  -17.9558   18.9741 N   0  0  0  0  0  0  0  0  0  0  0  0
   12.4858  -17.0396   18.1824 C   0  0  0  0  0  0  0  0  0  0  0  0
   11.4941  -16.5008   18.8745 N   0  0  0  0  0  0  0  0  0  0  0  0
   11.8852  -16.9927   23.0398 C   0  0  0  0  0  0  0  0  0  0  0  0
   12.3219  -15.8336   22.8668 O   0  0  0  0  0  0  0  0  0  0  0  0
   12.6669  -17.8725   23.8347 N   0  0  0  0  0  0  0  0  0  0  0  0
   12.6351  -17.8762   25.2955 C   0  0  1  0  0  0  0  0  0  0  0  0
   11.2753  -17.8592   25.8889 C   0  0  0  0  0  0  0  0  0  0  0  0
   10.9286  -16.2140   26.5957 S   0  0  0  0  0  0  0  0  0  0  0  0
   13.3631  -19.1142   25.7903 C   0  0  0  0  0  0  0  0  0  0  0  0
   14.0190  -18.9928   26.8252 O   0  0  0  0  0  0  0  0  0  0  0  0
   13.2923  -20.2977   25.1133 O   0  0  0  0  0  0  0  0  0  0  0  0
  2  1  1  1
  2 13  1  0
  2  3  1  0
  3  4  1  0
  4  5  2  0
  5  6  1  0
  7  6  1  0
  8  7  2  0
  9  8  1  0
 10 11  1  0
 10  9  2  0
 11 12  2  0
 12  4  1  0
 12  7  1  0
 13 14  2  0
 15 13  1  0
 15 16  1  0
 16 17  1  6
 17 18  1  0
 18 22  1  0
 19 18  2  0
 19 20  1  0
 20 21  1  0
 22 21  2  0
 23 24  2  0
 23 16  1  0
 25 23  1  0
 26 25  1  0
 26 27  1  6
 28 27  1  0
 29 31  1  0
 29 26  1  0
 30 29  2  0
M  END
$$$$
