WHC.pdb
     RDKit          3D

 31 33  0  0  1  0  0  0  0  0999 V2000
    6.1627  -17.2505   23.5443 N   0  0  0  0  0  0  0  0  0  0  0  0
    7.0947  -16.1584   23.4240 C   0  0  1  0  0  0  0  0  0  0  0  0
    7.7665  -15.7761   24.7247 C   0  0  0  0  0  0  0  0  0  0  0  0
    6.8402  -14.9157   25.5111 C   0  0  0  0  0  0  0  0  0  0  0  0
    5.7264  -15.3936   26.2196 C   0  0  0  0  0  0  0  0  0  0  0  0
    5.1978  -14.3329   26.8172 N   0  0  0  0  0  0  0  0  0  0  0  0
    5.8726  -13.2218   26.5552 C   0  0  0  0  0  0  0  0  0  0  0  0
    5.7283  -11.8868   26.9219 C   0  0  0  0  0  0  0  0  0  0  0  0
    6.6215  -10.9403   26.4564 C   0  0  0  0  0  0  0  0  0  0  0  0
    7.6730  -11.2641   25.6286 C   0  0  0  0  0  0  0  0  0  0  0  0
    7.8097  -12.5907   25.2703 C   0  0  0  0  0  0  0  0  0  0  0  0
    6.9203  -13.5667   25.7258 C   0  0  0  0  0  0  0  0  0  0  0  0
    8.1361  -16.4974   22.4285 C   0  0  0  0  0  0  0  0  0  0  0  0
    8.4095  -17.7101   22.2140 O   0  0  0  0  0  0  0  0  0  0  0  0
    8.8289  -15.5062   21.7084 N   0  0  0  0  0  0  0  0  0  0  0  0
    9.8798  -15.8508   20.7920 C   0  0  1  0  0  0  0  0  0  0  0  0
   10.1288  -14.7244   19.8432 C   0  0  0  0  0  0  0  0  0  0  0  0
    9.0562  -14.4509   18.8863 C   0  0  0  0  0  0  0  0  0  0  0  0
    8.3193  -13.3270   18.7130 C   0  0  0  0  0  0  0  0  0  0  0  0
    7.4544  -13.5568   17.6990 N   0  0  0  0  0  0  0  0  0  0  0  0
    7.6549  -14.8180   17.2438 C   0  0  0  0  0  0  0  0  0  0  0  0
    8.6240  -15.3606   17.9644 N   0  0  0  0  0  0  0  0  0  0  0  0
   11.1514  -15.9393   21.6263 C   0  0  0  0  0  0  0  0  0  0  0  0
   11.9197  -14.9617   21.7613 O   0  0  0  0  0  0  0  0  0  0  0  0
   11.5105  -17.1468   22.2820 N   0  0  0  0  0  0  0  0  0  0  0  0
   12.7748  -17.3294   22.9914 C   0  0  1  0  0  0  0  0  0  0  0  0
   12.6425  -17.8377   24.3791 C   0  0  0  0  0  0  0  0  0  0  0  0
   11.4830  -16.7866   25.3157 S   0  0  0  0  0  0  0  0  0  0  0  0
   13.6352  -18.3000   22.2009 C   0  0  0  0  0  0  0  0  0  0  0  0
   13.0735  -18.9362   21.3090 O   0  0  0  0  0  0  0  0  0  0  0  0
   14.9637  -18.4567   22.4746 O   0  0  0  0  0  0  0  0  0  0  0  0
  2  1  1  1
  2 13  1  0
  2  3  1  0
  3  4  1  0
  4  5  2  0
  5  6  1  0
  7  6  1  0
  8  7  2  0
  9  8  1  0
 10 11  1  0
 10  9  2  0
 11 12  2  0
 12  4  1  0
 12  7  1  0
 13 14  2  0
 15 13  1  0
 15 16  1  0
 16 17  1  6
 17 18  1  0
 18 22  1  0
 19 18  2  0
 19 20  1  0
 20 21  1  0
 22 21  2  0
 23 24  2  0
 23 16  1  0
 25 23  1  0
 26 25  1  0
 26 27  1  1
 28 27  1  0
 29 31  1  0
 29 26  1  0
 30 29  2  0
M  END
$$$$
