WHC.pdb
     RDKit          3D

 31 33  0  0  1  0  0  0  0  0999 V2000
    6.5165  -18.3147   24.9364 N   0  0  0  0  0  0  0  0  0  0  0  0
    6.9009  -17.5701   23.7644 C   0  0  1  0  0  0  0  0  0  0  0  0
    6.4228  -16.1345   23.7628 C   0  0  0  0  0  0  0  0  0  0  0  0
    6.6264  -15.5568   25.1198 C   0  0  0  0  0  0  0  0  0  0  0  0
    6.6795  -16.3129   26.3015 C   0  0  0  0  0  0  0  0  0  0  0  0
    6.9194  -15.4430   27.2748 N   0  0  0  0  0  0  0  0  0  0  0  0
    7.0246  -14.2009   26.8223 C   0  0  0  0  0  0  0  0  0  0  0  0
    7.2569  -12.9648   27.4187 C   0  0  0  0  0  0  0  0  0  0  0  0
    7.2981  -11.8198   26.6457 C   0  0  0  0  0  0  0  0  0  0  0  0
    7.1174  -11.8454   25.2810 C   0  0  0  0  0  0  0  0  0  0  0  0
    6.8885  -13.0757   24.6971 C   0  0  0  0  0  0  0  0  0  0  0  0
    6.8408  -14.2477   25.4554 C   0  0  0  0  0  0  0  0  0  0  0  0
    8.3741  -17.5845   23.6239 C   0  0  0  0  0  0  0  0  0  0  0  0
    9.0448  -18.4343   24.2715 O   0  0  0  0  0  0  0  0  0  0  0  0
    9.0511  -16.6803   22.7841 N   0  0  0  0  0  0  0  0  0  0  0  0
   10.4324  -16.8750   22.4420 C   0  0  1  0  0  0  0  0  0  0  0  0
   10.7660  -16.1285   21.1921 C   0  0  0  0  0  0  0  0  0  0  0  0
   10.3347  -16.7564   19.9428 C   0  0  0  0  0  0  0  0  0  0  0  0
    9.6963  -17.9351   19.7440 C   0  0  0  0  0  0  0  0  0  0  0  0
    9.5072  -18.0788   18.4127 N   0  0  0  0  0  0  0  0  0  0  0  0
   10.0248  -16.9927   17.7877 C   0  0  0  0  0  0  0  0  0  0  0  0
   10.5280  -16.1923   18.7145 N   0  0  0  0  0  0  0  0  0  0  0  0
   11.2366  -16.1784   23.5324 C   0  0  0  0  0  0  0  0  0  0  0  0
   11.0126  -14.9924   23.8599 O   0  0  0  0  0  0  0  0  0  0  0  0
   12.2783  -16.8587   24.2172 N   0  0  0  0  0  0  0  0  0  0  0  0
   12.5779  -16.6509   25.6322 C   0  0  1  0  0  0  0  0  0  0  0  0
   11.4374  -16.8876   26.5514 C   0  0  0  0  0  0  0  0  0  0  0  0
   11.4749  -15.6720   27.9106 S   0  0  0  0  0  0  0  0  0  0  0  0
   13.7158  -17.5772   26.0250 C   0  0  0  0  0  0  0  0  0  0  0  0
   13.6517  -18.7361   25.6143 O   0  0  0  0  0  0  0  0  0  0  0  0
   14.7523  -17.1402   26.7989 O   0  0  0  0  0  0  0  0  0  0  0  0
  2  1  1  1
  2 13  1  0
  2  3  1  0
  3  4  1  0
  4  5  2  0
  5  6  1  0
  7  6  1  0
  8  7  2  0
  9  8  1  0
 10 11  1  0
 10  9  2  0
 11 12  2  0
 12  4  1  0
 12  7  1  0
 13 14  2  0
 15 13  1  0
 15 16  1  0
 16 17  1  6
 17 18  1  0
 18 22  1  0
 19 18  2  0
 19 20  1  0
 20 21  1  0
 22 21  2  0
 23 24  2  0
 23 16  1  0
 25 23  1  0
 26 25  1  0
 26 27  1  1
 28 27  1  0
 29 31  1  0
 29 26  1  0
 30 29  2  0
M  END
$$$$
