WHC.pdb
     RDKit          3D

 31 33  0  0  1  0  0  0  0  0999 V2000
    6.1765  -17.5188   24.8747 N   0  0  0  0  0  0  0  0  0  0  0  0
    6.7639  -16.2842   24.4205 C   0  0  1  0  0  0  0  0  0  0  0  0
    8.0026  -15.8733   25.1862 C   0  0  0  0  0  0  0  0  0  0  0  0
    7.5999  -14.9961   26.3198 C   0  0  0  0  0  0  0  0  0  0  0  0
    7.3711  -15.4498   27.6285 C   0  0  0  0  0  0  0  0  0  0  0  0
    7.0829  -14.3668   28.3396 N   0  0  0  0  0  0  0  0  0  0  0  0
    7.1070  -13.2634   27.6045 C   0  0  0  0  0  0  0  0  0  0  0  0
    6.8768  -11.9156   27.8654 C   0  0  0  0  0  0  0  0  0  0  0  0
    6.9742  -10.9866   26.8466 C   0  0  0  0  0  0  0  0  0  0  0  0
    7.2972  -11.3401   25.5557 C   0  0  0  0  0  0  0  0  0  0  0  0
    7.5250  -12.6789   25.3055 C   0  0  0  0  0  0  0  0  0  0  0  0
    7.4320  -13.6381   26.3167 C   0  0  0  0  0  0  0  0  0  0  0  0
    7.1022  -16.3905   22.9837 C   0  0  0  0  0  0  0  0  0  0  0  0
    7.3321  -17.5280   22.4890 O   0  0  0  0  0  0  0  0  0  0  0  0
    7.1706  -15.2593   22.1489 N   0  0  0  0  0  0  0  0  0  0  0  0
    7.5416  -15.3768   20.7663 C   0  0  1  0  0  0  0  0  0  0  0  0
    7.2799  -14.0929   20.0495 C   0  0  0  0  0  0  0  0  0  0  0  0
    7.5622  -14.0979   18.6137 C   0  0  0  0  0  0  0  0  0  0  0  0
    8.2177  -13.1828   17.8592 C   0  0  0  0  0  0  0  0  0  0  0  0
    8.2280  -13.6349   16.5847 N   0  0  0  0  0  0  0  0  0  0  0  0
    7.5826  -14.8266   16.5486 C   0  0  0  0  0  0  0  0  0  0  0  0
    7.1774  -15.1063   17.7776 N   0  0  0  0  0  0  0  0  0  0  0  0
    9.0578  -15.5245   20.7501 C   0  0  0  0  0  0  0  0  0  0  0  0
    9.7982  -14.7896   21.4400 O   0  0  0  0  0  0  0  0  0  0  0  0
    9.6858  -16.5087   19.9416 N   0  0  0  0  0  0  0  0  0  0  0  0
   11.1359  -16.6493   19.8297 C   0  0  1  0  0  0  0  0  0  0  0  0
   11.7662  -17.4682   20.8945 C   0  0  0  0  0  0  0  0  0  0  0  0
   10.5089  -17.9669   22.1180 S   0  0  0  0  0  0  0  0  0  0  0  0
   11.4569  -17.2761   18.4838 C   0  0  0  0  0  0  0  0  0  0  0  0
   10.5018  -17.6831   17.8220 O   0  0  0  0  0  0  0  0  0  0  0  0
   12.7433  -17.3831   18.0390 O   0  0  0  0  0  0  0  0  0  0  0  0
  2  1  1  1
  2 13  1  0
  2  3  1  0
  3  4  1  0
  4  5  2  0
  5  6  1  0
  7  6  1  0
  8  7  2  0
  9  8  1  0
 10 11  1  0
 10  9  2  0
 11 12  2  0
 12  4  1  0
 12  7  1  0
 13 14  2  0
 15 13  1  0
 15 16  1  0
 16 17  1  6
 17 18  1  0
 18 22  1  0
 19 18  2  0
 19 20  1  0
 20 21  1  0
 22 21  2  0
 23 24  2  0
 23 16  1  0
 25 23  1  0
 26 25  1  0
 26 27  1  1
 28 27  1  0
 29 31  1  0
 29 26  1  0
 30 29  2  0
M  END
$$$$
