WHC.pdb
     RDKit          3D

 31 33  0  0  1  0  0  0  0  0999 V2000
    6.3937  -17.2296   23.2878 N   0  0  0  0  0  0  0  0  0  0  0  0
    7.3630  -16.1699   23.1727 C   0  0  1  0  0  0  0  0  0  0  0  0
    8.1842  -15.9480   24.4240 C   0  0  0  0  0  0  0  0  0  0  0  0
    7.3704  -15.1781   25.4046 C   0  0  0  0  0  0  0  0  0  0  0  0
    6.3553  -15.7337   26.1995 C   0  0  0  0  0  0  0  0  0  0  0  0
    5.9124  -14.7423   26.9626 N   0  0  0  0  0  0  0  0  0  0  0  0
    6.5521  -13.6047   26.7277 C   0  0  0  0  0  0  0  0  0  0  0  0
    6.4616  -12.3139   27.2409 C   0  0  0  0  0  0  0  0  0  0  0  0
    7.2911  -11.3181   26.7607 C   0  0  0  0  0  0  0  0  0  0  0  0
    8.2258  -11.5488   25.7765 C   0  0  0  0  0  0  0  0  0  0  0  0
    8.3100  -12.8321   25.2735 C   0  0  0  0  0  0  0  0  0  0  0  0
    7.4828  -13.8563   25.7403 C   0  0  0  0  0  0  0  0  0  0  0  0
    8.2773  -16.4492   22.0429 C   0  0  0  0  0  0  0  0  0  0  0  0
    8.5051  -17.6468   21.7185 O   0  0  0  0  0  0  0  0  0  0  0  0
    8.8978  -15.4173   21.3143 N   0  0  0  0  0  0  0  0  0  0  0  0
    9.8597  -15.7065   20.2876 C   0  0  1  0  0  0  0  0  0  0  0  0
    9.9772  -14.5512   19.3483 C   0  0  0  0  0  0  0  0  0  0  0  0
    9.0264  -14.5373   18.2362 C   0  0  0  0  0  0  0  0  0  0  0  0
    8.1099  -15.4665   17.8719 C   0  0  0  0  0  0  0  0  0  0  0  0
    7.4629  -14.9977   16.7808 N   0  0  0  0  0  0  0  0  0  0  0  0
    7.9750  -13.7814   16.4700 C   0  0  0  0  0  0  0  0  0  0  0  0
    8.9237  -13.5032   17.3506 N   0  0  0  0  0  0  0  0  0  0  0  0
   11.2118  -15.7733   20.9865 C   0  0  0  0  0  0  0  0  0  0  0  0
   11.6235  -14.8430   21.7140 O   0  0  0  0  0  0  0  0  0  0  0  0
   12.0577  -16.9034   20.8312 N   0  0  0  0  0  0  0  0  0  0  0  0
   13.0738  -17.2856   21.8092 C   0  0  1  0  0  0  0  0  0  0  0  0
   12.5423  -17.8927   23.0544 C   0  0  0  0  0  0  0  0  0  0  0  0
   13.9050  -18.1882   24.2300 S   0  0  0  0  0  0  0  0  0  0  0  0
   14.0235  -18.2749   21.1561 C   0  0  0  0  0  0  0  0  0  0  0  0
   13.5522  -18.9935   20.2743 O   0  0  0  0  0  0  0  0  0  0  0  0
   15.3320  -18.3601   21.5362 O   0  0  0  0  0  0  0  0  0  0  0  0
  2  1  1  1
  2 13  1  0
  2  3  1  0
  3  4  1  0
  4  5  2  0
  5  6  1  0
  7  6  1  0
  8  7  2  0
  9  8  1  0
 10 11  1  0
 10  9  2  0
 11 12  2  0
 12  4  1  0
 12  7  1  0
 13 14  2  0
 15 13  1  0
 15 16  1  0
 16 17  1  6
 17 18  1  0
 18 22  1  0
 19 18  2  0
 19 20  1  0
 20 21  1  0
 22 21  2  0
 23 24  2  0
 23 16  1  0
 25 23  1  0
 26 25  1  0
 26 27  1  1
 28 27  1  0
 29 31  1  0
 29 26  1  0
 30 29  2  0
M  END
$$$$
