VIQ.pdb
     RDKit          3D

 25 24  0  0  1  0  0  0  0  0999 V2000
    7.8496  -12.7347   27.2574 C   0  0  0  0  0  0  0  0  0  0  0  0
    7.0751  -12.0025   26.1996 C   0  0  2  0  0  0  0  0  0  0  0  0
    6.4171  -10.7947   26.7998 C   0  0  0  0  0  0  0  0  0  0  0  0
    6.0917  -12.8758   25.4672 C   0  0  2  0  0  0  0  0  0  0  0  0
    5.1247  -13.3477   26.4411 N   0  0  0  0  0  0  0  0  0  0  0  0
    6.7520  -14.0169   24.7808 C   0  0  0  0  0  0  0  0  0  0  0  0
    6.7744  -15.1704   25.2426 O   0  0  0  0  0  0  0  0  0  0  0  0
    8.0071  -12.3226   20.0394 C   0  0  0  0  0  0  0  0  0  0  0  0
    7.3429  -13.5642   20.6679 C   0  0  0  0  0  0  0  0  0  0  0  0
    8.3991  -14.3082   21.4242 C   0  0  2  0  0  0  0  0  0  0  0  0
    9.0409  -15.3172   20.4933 C   0  0  0  0  0  0  0  0  0  0  0  0
    7.9565  -14.9047   22.7320 C   0  0  2  0  0  0  0  0  0  0  0  0
    7.3932  -13.7905   23.5335 N   0  0  0  0  0  0  0  0  0  0  0  0
    9.0812  -15.4725   23.4932 C   0  0  0  0  0  0  0  0  0  0  0  0
    9.9845  -14.6999   23.9211 O   0  0  0  0  0  0  0  0  0  0  0  0
    9.0509  -18.8875   28.2166 N   0  0  0  0  0  0  0  0  0  0  0  0
    8.5186  -19.4150   27.0178 C   0  0  0  0  0  0  0  0  0  0  0  0
    7.6982  -20.3549   27.0798 O   0  0  0  0  0  0  0  0  0  0  0  0
    8.9074  -18.8836   25.6968 C   0  0  0  0  0  0  0  0  0  0  0  0
   10.0908  -17.9463   25.8358 C   0  0  0  0  0  0  0  0  0  0  0  0
   10.4552  -17.3277   24.5003 C   0  0  2  0  0  0  0  0  0  0  0  0
    9.2632  -16.8439   23.8119 N   0  0  0  0  0  0  0  0  0  0  0  0
   11.1520  -18.3776   23.7265 C   0  0  0  0  0  0  0  0  0  0  0  0
   10.6555  -18.8475   22.6882 O   0  0  0  0  0  0  0  0  0  0  0  0
   12.3771  -18.8307   24.1837 O   0  0  0  0  0  0  0  0  0  0  0  0
  2  1  1  1
  2  3  1  0
  4  2  1  0
  4  6  1  0
  4  5  1  1
  6  7  2  0
  9  8  1  0
 10  9  1  0
 10 11  1  6
 12 10  1  0
 13  6  1  0
 12 13  1  1
 14 15  2  0
 14 12  1  0
 16 17  1  0
 17 18  2  0
 19 17  1  0
 19 20  1  0
 21 20  1  1
 21 22  1  0
 22 14  1  0
 23 21  1  0
 23 25  1  0
 24 23  2  0
M  END
$$$$
