VIQ.pdb
     RDKit          3D

 25 24  0  0  1  0  0  0  0  0999 V2000
    6.6515  -16.1472   19.2109 C   0  0  0  0  0  0  0  0  0  0  0  0
    7.4139  -15.9353   20.4871 C   0  0  2  0  0  0  0  0  0  0  0  0
    7.0133  -16.9739   21.4936 C   0  0  0  0  0  0  0  0  0  0  0  0
    7.2854  -14.5391   21.0349 C   0  0  2  0  0  0  0  0  0  0  0  0
    7.7101  -13.6249   19.9907 N   0  0  0  0  0  0  0  0  0  0  0  0
    8.0879  -14.3413   22.2704 C   0  0  0  0  0  0  0  0  0  0  0  0
    9.3262  -14.2361   22.2700 O   0  0  0  0  0  0  0  0  0  0  0  0
    5.8361  -11.4960   26.3739 C   0  0  0  0  0  0  0  0  0  0  0  0
    6.8430  -12.0232   25.3319 C   0  0  0  0  0  0  0  0  0  0  0  0
    7.2413  -13.4054   25.7466 C   0  0  2  0  0  0  0  0  0  0  0  0
    7.7710  -13.3512   27.1654 C   0  0  0  0  0  0  0  0  0  0  0  0
    8.1600  -14.1240   24.7970 C   0  0  2  0  0  0  0  0  0  0  0  0
    7.4175  -14.2673   23.5206 N   0  0  0  0  0  0  0  0  0  0  0  0
    8.4972  -15.4777   25.2669 C   0  0  0  0  0  0  0  0  0  0  0  0
    7.5633  -16.2674   25.5833 O   0  0  0  0  0  0  0  0  0  0  0  0
   13.5663  -18.8923   23.9881 N   0  0  0  0  0  0  0  0  0  0  0  0
   12.5645  -18.3180   23.1725 C   0  0  0  0  0  0  0  0  0  0  0  0
   12.7374  -18.2783   21.9359 O   0  0  0  0  0  0  0  0  0  0  0  0
   11.3213  -17.7650   23.7445 C   0  0  0  0  0  0  0  0  0  0  0  0
   11.3183  -17.9299   25.2515 C   0  0  0  0  0  0  0  0  0  0  0  0
   10.0435  -17.3761   25.8573 C   0  0  2  0  0  0  0  0  0  0  0  0
    9.8062  -16.0099   25.4035 N   0  0  0  0  0  0  0  0  0  0  0  0
   10.2086  -17.4497   27.3250 C   0  0  0  0  0  0  0  0  0  0  0  0
   10.2761  -16.4191   28.0169 O   0  0  0  0  0  0  0  0  0  0  0  0
   10.2871  -18.6975   27.9183 O   0  0  0  0  0  0  0  0  0  0  0  0
  2  1  1  6
  2  3  1  0
  4  2  1  0
  4  6  1  0
  4  5  1  6
  6  7  2  0
  9  8  1  0
 10  9  1  0
 10 11  1  1
 12 10  1  0
 13  6  1  0
 12 13  1  6
 14 15  2  0
 14 12  1  0
 16 17  1  0
 17 18  2  0
 19 17  1  0
 19 20  1  0
 21 20  1  6
 21 22  1  0
 22 14  1  0
 23 21  1  0
 23 25  1  0
 24 23  2  0
M  END
$$$$
