VIQ.pdb
     RDKit          3D

 25 24  0  0  1  0  0  0  0  0999 V2000
    7.4218  -17.6939   21.3152 C   0  0  0  0  0  0  0  0  0  0  0  0
    6.1306  -17.0088   21.6592 C   0  0  2  0  0  0  0  0  0  0  0  0
    5.0459  -17.4820   20.7364 C   0  0  0  0  0  0  0  0  0  0  0  0
    6.2382  -15.5075   21.6810 C   0  0  2  0  0  0  0  0  0  0  0  0
    6.4743  -15.0718   20.3168 N   0  0  0  0  0  0  0  0  0  0  0  0
    7.3194  -15.0319   22.5833 C   0  0  0  0  0  0  0  0  0  0  0  0
    8.4848  -14.8280   22.2032 O   0  0  0  0  0  0  0  0  0  0  0  0
    5.8705  -11.7708   26.7136 C   0  0  0  0  0  0  0  0  0  0  0  0
    6.7036  -12.3153   25.5358 C   0  0  0  0  0  0  0  0  0  0  0  0
    7.3522  -13.5859   25.9897 C   0  0  2  0  0  0  0  0  0  0  0  0
    8.2313  -13.2801   27.1856 C   0  0  0  0  0  0  0  0  0  0  0  0
    8.0598  -14.3675   24.9171 C   0  0  2  0  0  0  0  0  0  0  0  0
    7.0181  -14.7950   23.9512 N   0  0  0  0  0  0  0  0  0  0  0  0
    8.6990  -15.5838   25.4453 C   0  0  0  0  0  0  0  0  0  0  0  0
    7.9899  -16.4349   26.0526 O   0  0  0  0  0  0  0  0  0  0  0  0
   13.6489  -18.7496   23.1943 N   0  0  0  0  0  0  0  0  0  0  0  0
   12.5889  -17.8913   22.8223 C   0  0  0  0  0  0  0  0  0  0  0  0
   12.1130  -17.9784   21.6706 O   0  0  0  0  0  0  0  0  0  0  0  0
   12.0312  -16.8964   23.7593 C   0  0  0  0  0  0  0  0  0  0  0  0
   11.9509  -17.4789   25.1566 C   0  0  0  0  0  0  0  0  0  0  0  0
   10.5995  -17.2013   25.7854 C   0  0  2  0  0  0  0  0  0  0  0  0
   10.0752  -15.9153   25.3378 N   0  0  0  0  0  0  0  0  0  0  0  0
   10.8018  -17.2357   27.2498 C   0  0  0  0  0  0  0  0  0  0  0  0
   10.5600  -16.2415   27.9559 O   0  0  0  0  0  0  0  0  0  0  0  0
   11.2688  -18.4051   27.8240 O   0  0  0  0  0  0  0  0  0  0  0  0
  2  1  1  6
  2  3  1  0
  4  2  1  0
  4  6  1  0
  4  5  1  6
  6  7  2  0
  9  8  1  0
 10  9  1  0
 10 11  1  1
 12 10  1  0
 13  6  1  0
 12 13  1  6
 14 15  2  0
 14 12  1  0
 16 17  1  0
 17 18  2  0
 19 17  1  0
 19 20  1  0
 21 20  1  6
 21 22  1  0
 22 14  1  0
 23 21  1  0
 23 25  1  0
 24 23  2  0
M  END
$$$$
