VIQ.pdb
     RDKit          3D

 25 24  0  0  1  0  0  0  0  0999 V2000
    7.6045  -12.2608   20.7050 C   0  0  0  0  0  0  0  0  0  0  0  0
    8.1112  -13.5136   20.0503 C   0  0  2  0  0  0  0  0  0  0  0  0
    7.3975  -13.7273   18.7476 C   0  0  0  0  0  0  0  0  0  0  0  0
    8.0360  -14.7253   20.9405 C   0  0  2  0  0  0  0  0  0  0  0  0
    6.6334  -15.0707   21.0819 N   0  0  0  0  0  0  0  0  0  0  0  0
    8.6598  -14.4894   22.2689 C   0  0  0  0  0  0  0  0  0  0  0  0
    9.8742  -14.2764   22.4242 O   0  0  0  0  0  0  0  0  0  0  0  0
    5.7535  -11.8657   26.0665 C   0  0  0  0  0  0  0  0  0  0  0  0
    6.9311  -12.3138   25.1776 C   0  0  0  0  0  0  0  0  0  0  0  0
    7.3342  -13.6864   25.6188 C   0  0  2  0  0  0  0  0  0  0  0  0
    7.6680  -13.6412   27.0964 C   0  0  0  0  0  0  0  0  0  0  0  0
    8.4029  -14.3427   24.7886 C   0  0  2  0  0  0  0  0  0  0  0  0
    7.8371  -14.5058   23.4268 N   0  0  0  0  0  0  0  0  0  0  0  0
    8.7492  -15.6838   25.2871 C   0  0  0  0  0  0  0  0  0  0  0  0
    7.8507  -16.5704   25.3369 O   0  0  0  0  0  0  0  0  0  0  0  0
   13.9320  -20.8730   25.6060 N   0  0  0  0  0  0  0  0  0  0  0  0
   13.0823  -19.8822   25.0628 C   0  0  0  0  0  0  0  0  0  0  0  0
   13.3540  -19.3962   23.9445 O   0  0  0  0  0  0  0  0  0  0  0  0
   11.8841  -19.4084   25.7827 C   0  0  0  0  0  0  0  0  0  0  0  0
   11.5509  -17.9883   25.3694 C   0  0  0  0  0  0  0  0  0  0  0  0
   10.3130  -17.4883   26.0881 C   0  0  2  0  0  0  0  0  0  0  0  0
   10.0314  -16.1022   25.7299 N   0  0  0  0  0  0  0  0  0  0  0  0
   10.5756  -17.6424   27.5351 C   0  0  0  0  0  0  0  0  0  0  0  0
   10.7419  -16.6518   28.2675 O   0  0  0  0  0  0  0  0  0  0  0  0
   10.6329  -18.9205   28.0629 O   0  0  0  0  0  0  0  0  0  0  0  0
  2  1  1  1
  2  3  1  0
  4  2  1  0
  4  6  1  0
  4  5  1  1
  6  7  2  0
  9  8  1  0
 10  9  1  0
 10 11  1  1
 12 10  1  0
 13  6  1  0
 12 13  1  6
 14 15  2  0
 14 12  1  0
 16 17  1  0
 17 18  2  0
 19 17  1  0
 19 20  1  0
 21 20  1  6
 21 22  1  0
 22 14  1  0
 23 21  1  0
 23 25  1  0
 24 23  2  0
M  END
$$$$
