VIQ.pdb
     RDKit          3D

 25 24  0  0  1  0  0  0  0  0999 V2000
    7.8045  -12.3541   20.9664 C   0  0  0  0  0  0  0  0  0  0  0  0
    8.1074  -13.6599   20.2896 C   0  0  2  0  0  0  0  0  0  0  0  0
    7.2759  -13.7901   19.0472 C   0  0  0  0  0  0  0  0  0  0  0  0
    7.9575  -14.8518   21.1968 C   0  0  2  0  0  0  0  0  0  0  0  0
    6.5378  -15.0377   21.4342 N   0  0  0  0  0  0  0  0  0  0  0  0
    8.6908  -14.6816   22.4784 C   0  0  0  0  0  0  0  0  0  0  0  0
    9.9196  -14.5077   22.5435 O   0  0  0  0  0  0  0  0  0  0  0  0
    6.2774  -11.6361   26.1229 C   0  0  0  0  0  0  0  0  0  0  0  0
    7.2906  -12.3235   25.1857 C   0  0  0  0  0  0  0  0  0  0  0  0
    7.6693  -13.6306   25.8095 C   0  0  2  0  0  0  0  0  0  0  0  0
    8.1501  -13.3710   27.2230 C   0  0  0  0  0  0  0  0  0  0  0  0
    8.6175  -14.4778   25.0062 C   0  0  2  0  0  0  0  0  0  0  0  0
    7.9617  -14.7175   23.6971 N   0  0  0  0  0  0  0  0  0  0  0  0
    8.8544  -15.7904   25.6290 C   0  0  0  0  0  0  0  0  0  0  0  0
    7.8652  -16.5270   25.9027 O   0  0  0  0  0  0  0  0  0  0  0  0
   12.3783  -19.3749   22.3283 N   0  0  0  0  0  0  0  0  0  0  0  0
   12.3199  -19.1834   23.7278 C   0  0  0  0  0  0  0  0  0  0  0  0
   13.2504  -19.6174   24.4392 O   0  0  0  0  0  0  0  0  0  0  0  0
   11.1886  -18.4845   24.3684 C   0  0  0  0  0  0  0  0  0  0  0  0
   11.3875  -18.4310   25.8704 C   0  0  0  0  0  0  0  0  0  0  0  0
   10.2617  -17.6692   26.5419 C   0  0  2  0  0  0  0  0  0  0  0  0
   10.1212  -16.3372   25.9631 N   0  0  0  0  0  0  0  0  0  0  0  0
   10.5920  -17.6135   27.9822 C   0  0  0  0  0  0  0  0  0  0  0  0
   10.8331  -16.5317   28.5453 O   0  0  0  0  0  0  0  0  0  0  0  0
   10.6278  -18.7979   28.6972 O   0  0  0  0  0  0  0  0  0  0  0  0
  2  1  1  1
  2  3  1  0
  4  2  1  0
  4  6  1  0
  4  5  1  1
  6  7  2  0
  9  8  1  0
 10  9  1  0
 10 11  1  1
 12 10  1  0
 13  6  1  0
 12 13  1  6
 14 15  2  0
 14 12  1  0
 16 17  1  0
 17 18  2  0
 19 17  1  0
 19 20  1  0
 21 20  1  6
 21 22  1  0
 22 14  1  0
 23 21  1  0
 23 25  1  0
 24 23  2  0
M  END
$$$$
