VIQ.pdb
     RDKit          3D

 25 24  0  0  1  0  0  0  0  0999 V2000
    7.9353  -17.1233   21.1107 C   0  0  0  0  0  0  0  0  0  0  0  0
    7.0002  -15.9683   20.8950 C   0  0  2  0  0  0  0  0  0  0  0  0
    6.3937  -16.0580   19.5252 C   0  0  0  0  0  0  0  0  0  0  0  0
    7.6392  -14.6280   21.1428 C   0  0  2  0  0  0  0  0  0  0  0  0
    8.6341  -14.4257   20.1056 N   0  0  0  0  0  0  0  0  0  0  0  0
    8.2553  -14.5371   22.4924 C   0  0  0  0  0  0  0  0  0  0  0  0
    9.4550  -14.7755   22.7122 O   0  0  0  0  0  0  0  0  0  0  0  0
    5.4974  -11.3722   26.0831 C   0  0  0  0  0  0  0  0  0  0  0  0
    6.7091  -11.9097   25.2954 C   0  0  0  0  0  0  0  0  0  0  0  0
    6.9840  -13.2991   25.7805 C   0  0  2  0  0  0  0  0  0  0  0  0
    7.3232  -13.2381   27.2563 C   0  0  0  0  0  0  0  0  0  0  0  0
    7.9857  -14.0777   24.9729 C   0  0  2  0  0  0  0  0  0  0  0  0
    7.4425  -14.1599   23.5947 N   0  0  0  0  0  0  0  0  0  0  0  0
    8.1484  -15.4548   25.4669 C   0  0  0  0  0  0  0  0  0  0  0  0
    7.2815  -16.3220   25.1629 O   0  0  0  0  0  0  0  0  0  0  0  0
   12.0222  -19.7434   23.7248 N   0  0  0  0  0  0  0  0  0  0  0  0
   11.5406  -18.4152   23.6740 C   0  0  0  0  0  0  0  0  0  0  0  0
   11.4313  -17.8511   22.5648 O   0  0  0  0  0  0  0  0  0  0  0  0
   11.1641  -17.6793   24.8969 C   0  0  0  0  0  0  0  0  0  0  0  0
    9.8028  -18.1343   25.3850 C   0  0  0  0  0  0  0  0  0  0  0  0
    9.3686  -17.3427   26.6031 C   0  0  2  0  0  0  0  0  0  0  0  0
    9.2156  -15.9295   26.2739 N   0  0  0  0  0  0  0  0  0  0  0  0
   10.4034  -17.5601   27.6368 C   0  0  0  0  0  0  0  0  0  0  0  0
   10.6160  -18.6915   28.1059 O   0  0  0  0  0  0  0  0  0  0  0  0
   11.1365  -16.4714   28.0756 O   0  0  0  0  0  0  0  0  0  0  0  0
  2  1  1  6
  2  3  1  0
  4  2  1  0
  4  6  1  0
  4  5  1  6
  6  7  2  0
  9  8  1  0
 10  9  1  0
 10 11  1  1
 12 10  1  0
 13  6  1  0
 12 13  1  6
 14 15  2  0
 14 12  1  0
 16 17  1  0
 17 18  2  0
 19 17  1  0
 19 20  1  0
 21 20  1  6
 21 22  1  0
 22 14  1  0
 23 21  1  0
 23 25  1  0
 24 23  2  0
M  END
$$$$
