VIQ.pdb
     RDKit          3D

 25 24  0  0  1  0  0  0  0  0999 V2000
    7.3292  -12.5132   20.2909 C   0  0  0  0  0  0  0  0  0  0  0  0
    8.1798  -13.5730   19.6520 C   0  0  2  0  0  0  0  0  0  0  0  0
    7.5758  -13.9837   18.3410 C   0  0  0  0  0  0  0  0  0  0  0  0
    8.4373  -14.7539   20.5495 C   0  0  2  0  0  0  0  0  0  0  0  0
    7.1985  -15.5044   20.6414 N   0  0  0  0  0  0  0  0  0  0  0  0
    8.9102  -14.3454   21.8982 C   0  0  0  0  0  0  0  0  0  0  0  0
    9.9685  -13.7230   22.0905 O   0  0  0  0  0  0  0  0  0  0  0  0
    5.6581  -12.2598   25.7575 C   0  0  0  0  0  0  0  0  0  0  0  0
    6.9129  -12.5250   24.9013 C   0  0  0  0  0  0  0  0  0  0  0  0
    7.3580  -13.9281   25.1735 C   0  0  2  0  0  0  0  0  0  0  0  0
    7.4874  -14.1127   26.6721 C   0  0  0  0  0  0  0  0  0  0  0  0
    8.5752  -14.3775   24.4127 C   0  0  2  0  0  0  0  0  0  0  0  0
    8.1217  -14.6772   23.0323 N   0  0  0  0  0  0  0  0  0  0  0  0
    9.1523  -15.6132   24.9667 C   0  0  0  0  0  0  0  0  0  0  0  0
    8.8248  -16.7236   24.4609 O   0  0  0  0  0  0  0  0  0  0  0  0
   11.9829  -16.3626   30.5330 N   0  0  0  0  0  0  0  0  0  0  0  0
   11.4770  -15.2510   29.8210 C   0  0  0  0  0  0  0  0  0  0  0  0
   11.4373  -14.1365   30.3839 O   0  0  0  0  0  0  0  0  0  0  0  0
   10.9952  -15.3739   28.4312 C   0  0  0  0  0  0  0  0  0  0  0  0
   11.0907  -16.8144   27.9683 C   0  0  0  0  0  0  0  0  0  0  0  0
   10.5573  -16.9694   26.5575 C   0  0  2  0  0  0  0  0  0  0  0  0
   10.0730  -15.6923   26.0444 N   0  0  0  0  0  0  0  0  0  0  0  0
    9.4814  -17.9818   26.6233 C   0  0  0  0  0  0  0  0  0  0  0  0
    8.2869  -17.6596   26.5014 O   0  0  0  0  0  0  0  0  0  0  0  0
    9.8323  -19.3053   26.8247 O   0  0  0  0  0  0  0  0  0  0  0  0
  2  1  1  1
  2  3  1  0
  4  2  1  0
  4  6  1  0
  4  5  1  1
  6  7  2  0
  9  8  1  0
 10  9  1  0
 10 11  1  1
 12 10  1  0
 13  6  1  0
 12 13  1  6
 14 15  2  0
 14 12  1  0
 16 17  1  0
 17 18  2  0
 19 17  1  0
 19 20  1  0
 21 20  1  1
 21 22  1  0
 22 14  1  0
 23 21  1  0
 23 25  1  0
 24 23  2  0
M  END
$$$$
