VIQ.pdb
     RDKit          3D

 25 24  0  0  1  0  0  0  0  0999 V2000
    6.4533  -16.9232   19.2657 C   0  0  0  0  0  0  0  0  0  0  0  0
    7.2985  -16.6867   20.4842 C   0  0  2  0  0  0  0  0  0  0  0  0
    6.9019  -17.6457   21.5683 C   0  0  0  0  0  0  0  0  0  0  0  0
    7.2767  -15.2582   20.9584 C   0  0  2  0  0  0  0  0  0  0  0  0
    7.6620  -14.4244   19.8346 N   0  0  0  0  0  0  0  0  0  0  0  0
    8.1794  -15.0344   22.1178 C   0  0  0  0  0  0  0  0  0  0  0  0
    9.4184  -15.0141   22.0238 O   0  0  0  0  0  0  0  0  0  0  0  0
    6.0875  -11.9348   26.1388 C   0  0  0  0  0  0  0  0  0  0  0  0
    7.0482  -12.4855   25.0657 C   0  0  0  0  0  0  0  0  0  0  0  0
    7.5759  -13.7961   25.5607 C   0  0  2  0  0  0  0  0  0  0  0  0
    8.2302  -13.5760   26.9098 C   0  0  0  0  0  0  0  0  0  0  0  0
    8.4488  -14.5467   24.5929 C   0  0  2  0  0  0  0  0  0  0  0  0
    7.6096  -14.8322   23.4033 N   0  0  0  0  0  0  0  0  0  0  0  0
    8.8991  -15.8384   25.1367 C   0  0  0  0  0  0  0  0  0  0  0  0
    8.0361  -16.7053   25.4524 O   0  0  0  0  0  0  0  0  0  0  0  0
   14.3933  -18.8762   24.3668 N   0  0  0  0  0  0  0  0  0  0  0  0
   13.2316  -19.2492   23.6526 C   0  0  0  0  0  0  0  0  0  0  0  0
   13.3506  -19.9375   22.6169 O   0  0  0  0  0  0  0  0  0  0  0  0
   11.8837  -18.8465   24.0994 C   0  0  0  0  0  0  0  0  0  0  0  0
   11.9805  -17.9586   25.3244 C   0  0  0  0  0  0  0  0  0  0  0  0
   10.6033  -17.5625   25.8199 C   0  0  2  0  0  0  0  0  0  0  0  0
   10.2477  -16.2285   25.3479 N   0  0  0  0  0  0  0  0  0  0  0  0
   10.6516  -17.6314   27.2962 C   0  0  0  0  0  0  0  0  0  0  0  0
   10.4903  -16.6145   27.9930 O   0  0  0  0  0  0  0  0  0  0  0  0
   10.8813  -18.8590   27.8923 O   0  0  0  0  0  0  0  0  0  0  0  0
  2  1  1  6
  2  3  1  0
  4  2  1  0
  4  6  1  0
  4  5  1  6
  6  7  2  0
  9  8  1  0
 10  9  1  0
 10 11  1  1
 12 10  1  0
 13  6  1  0
 12 13  1  6
 14 15  2  0
 14 12  1  0
 16 17  1  0
 17 18  2  0
 19 17  1  0
 19 20  1  0
 21 20  1  6
 21 22  1  0
 22 14  1  0
 23 21  1  0
 23 25  1  0
 24 23  2  0
M  END
$$$$
