VIQ.pdb
     RDKit          3D

 25 24  0  0  1  0  0  0  0  0999 V2000
    7.5790  -12.3980   20.7847 C   0  0  0  0  0  0  0  0  0  0  0  0
    8.0647  -13.6818   20.1757 C   0  0  2  0  0  0  0  0  0  0  0  0
    7.2649  -13.9914   18.9441 C   0  0  0  0  0  0  0  0  0  0  0  0
    8.0791  -14.8344   21.1438 C   0  0  2  0  0  0  0  0  0  0  0  0
    6.6992  -15.2174   21.3797 N   0  0  0  0  0  0  0  0  0  0  0  0
    8.7589  -14.4910   22.4203 C   0  0  0  0  0  0  0  0  0  0  0  0
    9.9415  -14.1142   22.4836 O   0  0  0  0  0  0  0  0  0  0  0  0
    5.9164  -11.9070   26.1566 C   0  0  0  0  0  0  0  0  0  0  0  0
    7.0608  -12.3661   25.2307 C   0  0  0  0  0  0  0  0  0  0  0  0
    7.6121  -13.6404   25.7906 C   0  0  2  0  0  0  0  0  0  0  0  0
    8.0595  -13.3889   27.2165 C   0  0  0  0  0  0  0  0  0  0  0  0
    8.6613  -14.3137   24.9492 C   0  0  2  0  0  0  0  0  0  0  0  0
    8.0311  -14.5946   23.6358 N   0  0  0  0  0  0  0  0  0  0  0  0
    9.0888  -15.6018   25.5191 C   0  0  0  0  0  0  0  0  0  0  0  0
    8.2166  -16.4793   25.7743 O   0  0  0  0  0  0  0  0  0  0  0  0
   14.5011  -16.7545   24.7629 N   0  0  0  0  0  0  0  0  0  0  0  0
   13.4834  -16.9397   23.7993 C   0  0  0  0  0  0  0  0  0  0  0  0
   13.7200  -16.6601   22.6050 O   0  0  0  0  0  0  0  0  0  0  0  0
   12.1502  -17.4545   24.1684 C   0  0  0  0  0  0  0  0  0  0  0  0
   12.0973  -17.7578   25.6528 C   0  0  0  0  0  0  0  0  0  0  0  0
   10.7715  -17.3278   26.2496 C   0  0  2  0  0  0  0  0  0  0  0  0
   10.4245  -15.9773   25.8196 N   0  0  0  0  0  0  0  0  0  0  0  0
   10.9219  -17.4183   27.7179 C   0  0  0  0  0  0  0  0  0  0  0  0
   11.2293  -18.4899   28.2679 O   0  0  0  0  0  0  0  0  0  0  0  0
   10.7124  -16.2783   28.4741 O   0  0  0  0  0  0  0  0  0  0  0  0
  2  1  1  1
  2  3  1  0
  4  2  1  0
  4  6  1  0
  4  5  1  1
  6  7  2  0
  9  8  1  0
 10  9  1  0
 10 11  1  1
 12 10  1  0
 13  6  1  0
 12 13  1  6
 14 15  2  0
 14 12  1  0
 16 17  1  0
 17 18  2  0
 19 17  1  0
 19 20  1  0
 21 20  1  6
 21 22  1  0
 22 14  1  0
 23 21  1  0
 23 25  1  0
 24 23  2  0
M  END
$$$$
