VIQ.pdb
     RDKit          3D

 25 24  0  0  1  0  0  0  0  0999 V2000
    9.0468  -18.1479   22.1428 C   0  0  0  0  0  0  0  0  0  0  0  0
    7.8572  -17.3257   21.7380 C   0  0  2  0  0  0  0  0  0  0  0  0
    7.3408  -17.8025   20.4121 C   0  0  0  0  0  0  0  0  0  0  0  0
    8.1263  -15.8446   21.7395 C   0  0  2  0  0  0  0  0  0  0  0  0
    9.0070  -15.5647   20.6203 N   0  0  0  0  0  0  0  0  0  0  0  0
    8.7296  -15.3817   23.0167 C   0  0  0  0  0  0  0  0  0  0  0  0
    9.9430  -15.4715   23.2701 O   0  0  0  0  0  0  0  0  0  0  0  0
    5.7838  -11.5864   25.7343 C   0  0  0  0  0  0  0  0  0  0  0  0
    6.9752  -12.2841   25.0477 C   0  0  0  0  0  0  0  0  0  0  0  0
    7.3762  -13.4435   25.9057 C   0  0  2  0  0  0  0  0  0  0  0  0
    7.7465  -12.9233   27.2801 C   0  0  0  0  0  0  0  0  0  0  0  0
    8.4181  -14.3531   25.3147 C   0  0  2  0  0  0  0  0  0  0  0  0
    7.8876  -14.8059   24.0053 N   0  0  0  0  0  0  0  0  0  0  0  0
    8.6422  -15.5517   26.1394 C   0  0  0  0  0  0  0  0  0  0  0  0
    7.8319  -16.5168   26.0516 O   0  0  0  0  0  0  0  0  0  0  0  0
   12.2794  -20.1112   26.6475 N   0  0  0  0  0  0  0  0  0  0  0  0
   12.6648  -18.8443   26.1523 C   0  0  0  0  0  0  0  0  0  0  0  0
   13.7900  -18.7152   25.6254 O   0  0  0  0  0  0  0  0  0  0  0  0
   11.7723  -17.6721   26.2423 C   0  0  0  0  0  0  0  0  0  0  0  0
   10.4336  -18.0756   26.8282 C   0  0  0  0  0  0  0  0  0  0  0  0
    9.9039  -17.0060   27.7632 C   0  0  2  0  0  0  0  0  0  0  0  0
    9.7118  -15.7464   27.0523 N   0  0  0  0  0  0  0  0  0  0  0  0
   10.8902  -16.8778   28.8575 C   0  0  0  0  0  0  0  0  0  0  0  0
   11.1348  -17.8306   29.6176 O   0  0  0  0  0  0  0  0  0  0  0  0
   11.5412  -15.6675   29.0204 O   0  0  0  0  0  0  0  0  0  0  0  0
  2  1  1  6
  2  3  1  0
  4  2  1  0
  4  6  1  0
  4  5  1  6
  6  7  2  0
  9  8  1  0
 10  9  1  0
 10 11  1  1
 12 10  1  0
 13  6  1  0
 12 13  1  6
 14 15  2  0
 14 12  1  0
 16 17  1  0
 17 18  2  0
 19 17  1  0
 19 20  1  0
 21 20  1  6
 21 22  1  0
 22 14  1  0
 23 21  1  0
 23 25  1  0
 24 23  2  0
M  END
$$$$
