VIQ.pdb
     RDKit          3D

 25 24  0  0  1  0  0  0  0  0999 V2000
    6.7279  -16.1697   18.9552 C   0  0  0  0  0  0  0  0  0  0  0  0
    7.3890  -16.0481   20.2979 C   0  0  2  0  0  0  0  0  0  0  0  0
    6.7849  -17.0382   21.2502 C   0  0  0  0  0  0  0  0  0  0  0  0
    7.3669  -14.6479   20.8501 C   0  0  2  0  0  0  0  0  0  0  0  0
    7.9035  -13.7712   19.8254 N   0  0  0  0  0  0  0  0  0  0  0  0
    8.1441  -14.5260   22.1112 C   0  0  0  0  0  0  0  0  0  0  0  0
    9.3861  -14.5437   22.1516 O   0  0  0  0  0  0  0  0  0  0  0  0
    6.1070  -11.3731   26.0060 C   0  0  0  0  0  0  0  0  0  0  0  0
    7.0739  -12.0649   25.0241 C   0  0  0  0  0  0  0  0  0  0  0  0
    7.3299  -13.4470   25.5393 C   0  0  2  0  0  0  0  0  0  0  0  0
    7.8832  -13.3442   26.9463 C   0  0  0  0  0  0  0  0  0  0  0  0
    8.1533  -14.3280   24.6405 C   0  0  2  0  0  0  0  0  0  0  0  0
    7.4438  -14.3816   23.3387 N   0  0  0  0  0  0  0  0  0  0  0  0
    8.2494  -15.7061   25.1488 C   0  0  0  0  0  0  0  0  0  0  0  0
    7.5612  -16.6119   24.5994 O   0  0  0  0  0  0  0  0  0  0  0  0
   13.3263  -17.7495   23.7120 N   0  0  0  0  0  0  0  0  0  0  0  0
   12.0955  -18.1489   23.1426 C   0  0  0  0  0  0  0  0  0  0  0  0
   12.1013  -18.7726   22.0603 O   0  0  0  0  0  0  0  0  0  0  0  0
   10.8056  -17.8478   23.7939 C   0  0  0  0  0  0  0  0  0  0  0  0
   11.0212  -16.9461   24.9934 C   0  0  0  0  0  0  0  0  0  0  0  0
   10.0121  -17.2420   26.0855 C   0  0  2  0  0  0  0  0  0  0  0  0
    9.0646  -16.1414   26.2264 N   0  0  0  0  0  0  0  0  0  0  0  0
   10.7870  -17.4657   27.3249 C   0  0  0  0  0  0  0  0  0  0  0  0
   10.9542  -18.6101   27.7811 O   0  0  0  0  0  0  0  0  0  0  0  0
   11.3270  -16.3683   27.9725 O   0  0  0  0  0  0  0  0  0  0  0  0
  2  1  1  6
  2  3  1  0
  4  2  1  0
  4  6  1  0
  4  5  1  6
  6  7  2  0
  9  8  1  0
 10  9  1  0
 10 11  1  1
 12 10  1  0
 13  6  1  0
 12 13  1  6
 14 15  2  0
 14 12  1  0
 16 17  1  0
 17 18  2  0
 19 17  1  0
 19 20  1  0
 21 20  1  6
 21 22  1  0
 22 14  1  0
 23 21  1  0
 23 25  1  0
 24 23  2  0
M  END
$$$$
