VIQ.pdb
     RDKit          3D

 25 24  0  0  1  0  0  0  0  0999 V2000
    6.0170  -17.1346   22.5224 C   0  0  0  0  0  0  0  0  0  0  0  0
    6.6234  -16.4537   21.3293 C   0  0  2  0  0  0  0  0  0  0  0  0
    7.8748  -17.1730   20.9186 C   0  0  0  0  0  0  0  0  0  0  0  0
    6.8610  -14.9819   21.5380 C   0  0  2  0  0  0  0  0  0  0  0  0
    7.3223  -14.4357   20.2750 N   0  0  0  0  0  0  0  0  0  0  0  0
    7.8446  -14.7168   22.6204 C   0  0  0  0  0  0  0  0  0  0  0  0
    9.0747  -14.7809   22.4552 O   0  0  0  0  0  0  0  0  0  0  0  0
    5.8216  -11.4319   26.3894 C   0  0  0  0  0  0  0  0  0  0  0  0
    6.8609  -11.9546   25.3773 C   0  0  0  0  0  0  0  0  0  0  0  0
    7.5060  -13.1656   25.9759 C   0  0  2  0  0  0  0  0  0  0  0  0
    8.3053  -12.7378   27.1902 C   0  0  0  0  0  0  0  0  0  0  0  0
    8.2923  -14.0175   25.0177 C   0  0  2  0  0  0  0  0  0  0  0  0
    7.3673  -14.3719   23.9132 N   0  0  0  0  0  0  0  0  0  0  0  0
    8.7462  -15.2745   25.6349 C   0  0  0  0  0  0  0  0  0  0  0  0
    7.8894  -16.0563   26.1356 O   0  0  0  0  0  0  0  0  0  0  0  0
   14.2174  -16.5320   24.8096 N   0  0  0  0  0  0  0  0  0  0  0  0
   13.2480  -17.0212   23.9043 C   0  0  0  0  0  0  0  0  0  0  0  0
   13.4986  -17.0074   22.6806 O   0  0  0  0  0  0  0  0  0  0  0  0
   11.9492  -17.5472   24.3681 C   0  0  0  0  0  0  0  0  0  0  0  0
   11.8416  -17.4250   25.8753 C   0  0  0  0  0  0  0  0  0  0  0  0
   10.4409  -17.0188   26.2900 C   0  0  2  0  0  0  0  0  0  0  0  0
   10.0913  -15.7188   25.7272 N   0  0  0  0  0  0  0  0  0  0  0  0
   10.4282  -17.0018   27.7686 C   0  0  0  0  0  0  0  0  0  0  0  0
   10.2002  -15.9541   28.3978 O   0  0  0  0  0  0  0  0  0  0  0  0
   10.6768  -18.1838   28.4441 O   0  0  0  0  0  0  0  0  0  0  0  0
  2  1  1  1
  2  3  1  0
  4  2  1  0
  4  6  1  0
  4  5  1  6
  6  7  2  0
  9  8  1  0
 10  9  1  0
 10 11  1  1
 12 10  1  0
 13  6  1  0
 12 13  1  6
 14 15  2  0
 14 12  1  0
 16 17  1  0
 17 18  2  0
 19 17  1  0
 19 20  1  0
 21 20  1  1
 21 22  1  0
 22 14  1  0
 23 21  1  0
 23 25  1  0
 24 23  2  0
M  END
$$$$
