VIQ.pdb
     RDKit          3D

 25 24  0  0  1  0  0  0  0  0999 V2000
    6.5802  -16.7441   19.4534 C   0  0  0  0  0  0  0  0  0  0  0  0
    7.3321  -16.3526   20.6929 C   0  0  2  0  0  0  0  0  0  0  0  0
    7.0092  -17.3092   21.8032 C   0  0  0  0  0  0  0  0  0  0  0  0
    7.1096  -14.9203   21.0992 C   0  0  2  0  0  0  0  0  0  0  0  0
    7.4374  -14.0909   19.9542 N   0  0  0  0  0  0  0  0  0  0  0  0
    7.9240  -14.5360   22.2818 C   0  0  0  0  0  0  0  0  0  0  0  0
    9.1466  -14.3199   22.2272 O   0  0  0  0  0  0  0  0  0  0  0  0
    5.7216  -11.5018   26.2718 C   0  0  0  0  0  0  0  0  0  0  0  0
    6.7111  -12.0713   25.2354 C   0  0  0  0  0  0  0  0  0  0  0  0
    7.1479  -13.4187   25.7198 C   0  0  2  0  0  0  0  0  0  0  0  0
    7.7131  -13.2705   27.1181 C   0  0  0  0  0  0  0  0  0  0  0  0
    8.0559  -14.1752   24.7895 C   0  0  2  0  0  0  0  0  0  0  0  0
    7.2844  -14.4059   23.5435 N   0  0  0  0  0  0  0  0  0  0  0  0
    8.4307  -15.4930   25.3280 C   0  0  0  0  0  0  0  0  0  0  0  0
    7.5189  -16.2974   25.6707 O   0  0  0  0  0  0  0  0  0  0  0  0
   13.4716  -18.8856   24.0510 N   0  0  0  0  0  0  0  0  0  0  0  0
   12.4083  -18.3937   23.2598 C   0  0  0  0  0  0  0  0  0  0  0  0
   12.5132  -18.4239   22.0154 O   0  0  0  0  0  0  0  0  0  0  0  0
   11.1791  -17.8461   23.8663 C   0  0  0  0  0  0  0  0  0  0  0  0
   11.2764  -17.8883   25.3786 C   0  0  0  0  0  0  0  0  0  0  0  0
   10.0299  -17.3113   26.0208 C   0  0  2  0  0  0  0  0  0  0  0  0
    9.7544  -15.9743   25.5057 N   0  0  0  0  0  0  0  0  0  0  0  0
   10.2739  -17.3019   27.4792 C   0  0  0  0  0  0  0  0  0  0  0  0
   10.4120  -16.2344   28.1012 O   0  0  0  0  0  0  0  0  0  0  0  0
   10.3460  -18.5136   28.1439 O   0  0  0  0  0  0  0  0  0  0  0  0
  2  1  1  6
  2  3  1  0
  4  2  1  0
  4  6  1  0
  4  5  1  6
  6  7  2  0
  9  8  1  0
 10  9  1  0
 10 11  1  1
 12 10  1  0
 13  6  1  0
 12 13  1  6
 14 15  2  0
 14 12  1  0
 16 17  1  0
 17 18  2  0
 19 17  1  0
 19 20  1  0
 21 20  1  6
 21 22  1  0
 22 14  1  0
 23 21  1  0
 23 25  1  0
 24 23  2  0
M  END
$$$$
