VIQ.pdb
     RDKit          3D

 25 24  0  0  1  0  0  0  0  0999 V2000
    6.7842  -14.4274   21.1053 C   0  0  0  0  0  0  0  0  0  0  0  0
    7.7786  -15.4825   20.7144 C   0  0  2  0  0  0  0  0  0  0  0  0
    7.1386  -16.4536   19.7659 C   0  0  0  0  0  0  0  0  0  0  0  0
    8.4081  -16.1761   21.8928 C   0  0  2  0  0  0  0  0  0  0  0  0
    7.3694  -16.9561   22.5401 N   0  0  0  0  0  0  0  0  0  0  0  0
    9.0243  -15.2186   22.8483 C   0  0  0  0  0  0  0  0  0  0  0  0
    9.9850  -14.4864   22.5563 O   0  0  0  0  0  0  0  0  0  0  0  0
    5.9096  -12.7951   26.7159 C   0  0  0  0  0  0  0  0  0  0  0  0
    7.0136  -12.9258   25.6475 C   0  0  0  0  0  0  0  0  0  0  0  0
    8.0301  -13.8962   26.1636 C   0  0  2  0  0  0  0  0  0  0  0  0
    8.5536  -13.3880   27.4919 C   0  0  0  0  0  0  0  0  0  0  0  0
    9.1218  -14.2621   25.1960 C   0  0  2  0  0  0  0  0  0  0  0  0
    8.4976  -15.1265   24.1644 N   0  0  0  0  0  0  0  0  0  0  0  0
   10.1940  -15.0415   25.8362 C   0  0  0  0  0  0  0  0  0  0  0  0
   10.9958  -14.4556   26.6171 O   0  0  0  0  0  0  0  0  0  0  0  0
   11.0452  -15.8109   30.1141 N   0  0  0  0  0  0  0  0  0  0  0  0
   11.1890  -17.2168   30.1542 C   0  0  0  0  0  0  0  0  0  0  0  0
   11.7622  -17.7407   31.1327 O   0  0  0  0  0  0  0  0  0  0  0  0
   10.6794  -18.0797   29.0705 C   0  0  0  0  0  0  0  0  0  0  0  0
   10.0966  -17.2334   27.9559 C   0  0  0  0  0  0  0  0  0  0  0  0
   10.9886  -17.2582   26.7301 C   0  0  2  0  0  0  0  0  0  0  0  0
   10.4287  -16.4313   25.6663 N   0  0  0  0  0  0  0  0  0  0  0  0
   11.1064  -18.6752   26.3241 C   0  0  0  0  0  0  0  0  0  0  0  0
   10.5143  -19.1079   25.3203 O   0  0  0  0  0  0  0  0  0  0  0  0
   11.8948  -19.5172   27.0889 O   0  0  0  0  0  0  0  0  0  0  0  0
  2  1  1  1
  2  3  1  0
  4  2  1  0
  4  6  1  0
  4  5  1  1
  6  7  2  0
  9  8  1  0
 10  9  1  0
 10 11  1  1
 12 10  1  0
 13  6  1  0
 12 13  1  6
 14 15  2  0
 14 12  1  0
 16 17  1  0
 17 18  2  0
 19 17  1  0
 19 20  1  0
 21 20  1  1
 21 22  1  0
 22 14  1  0
 23 21  1  0
 23 25  1  0
 24 23  2  0
M  END
$$$$
