YVS.pdb
     RDKit          3D

 26 26  0  0  1  0  0  0  0  0999 V2000
    6.1794  -10.5221   27.8519 O   0  0  0  0  0  0  0  0  0  0  0  0
    6.5417  -11.7727   27.3695 C   0  0  0  0  0  0  0  0  0  0  0  0
    5.5949  -12.5884   26.7715 C   0  0  0  0  0  0  0  0  0  0  0  0
    5.9036  -13.8260   26.2823 C   0  0  0  0  0  0  0  0  0  0  0  0
    7.1981  -14.3328   26.3616 C   0  0  0  0  0  0  0  0  0  0  0  0
    7.5803  -15.6418   25.8537 C   0  0  0  0  0  0  0  0  0  0  0  0
    6.6747  -16.2167   24.7953 C   0  0  2  0  0  0  0  0  0  0  0  0
    6.2293  -17.5571   25.1586 N   0  0  0  0  0  0  0  0  0  0  0  0
    7.2875  -16.2687   23.4487 C   0  0  0  0  0  0  0  0  0  0  0  0
    7.8772  -17.3383   23.0693 O   0  0  0  0  0  0  0  0  0  0  0  0
    8.1451  -13.5295   26.9538 C   0  0  0  0  0  0  0  0  0  0  0  0
    7.8285  -12.2606   27.4555 C   0  0  0  0  0  0  0  0  0  0  0  0
    7.9482  -13.9399   19.0663 C   0  0  0  0  0  0  0  0  0  0  0  0
    7.4841  -14.0294   20.4855 C   0  0  2  0  0  0  0  0  0  0  0  0
    8.0811  -12.8464   21.2327 C   0  0  0  0  0  0  0  0  0  0  0  0
    7.8684  -15.3397   21.1634 C   0  0  2  0  0  0  0  0  0  0  0  0
    7.2785  -15.2206   22.5204 N   0  0  0  0  0  0  0  0  0  0  0  0
    9.3097  -15.5606   21.2538 C   0  0  0  0  0  0  0  0  0  0  0  0
    9.9651  -15.2323   22.3077 O   0  0  0  0  0  0  0  0  0  0  0  0
   10.5627  -18.8500   21.0418 O   0  0  0  0  0  0  0  0  0  0  0  0
   11.3484  -17.7972   21.5029 C   0  0  0  0  0  0  0  0  0  0  0  0
   11.4099  -16.6729   20.4895 C   0  0  2  0  0  0  0  0  0  0  0  0
   10.0794  -16.1418   20.2162 N   0  0  0  0  0  0  0  0  0  0  0  0
   12.0792  -17.1164   19.2448 C   0  0  0  0  0  0  0  0  0  0  0  0
   13.3807  -17.5635   19.2682 O   0  0  0  0  0  0  0  0  0  0  0  0
   11.4704  -17.0917   18.1483 O   0  0  0  0  0  0  0  0  0  0  0  0
  2  3  2  0
  2  1  1  0
  4  3  1  0
  5  4  2  0
  6  5  1  0
  7  6  1  0
  7  9  1  0
  7  8  1  1
  9 17  1  0
  9 10  2  0
 11  5  1  0
 11 12  2  0
 12  2  1  0
 14 13  1  6
 14 15  1  0
 16 14  1  0
 16 17  1  1
 18 16  1  0
 18 19  2  0
 20 21  1  0
 22 21  1  1
 22 23  1  0
 23 18  1  0
 24 22  1  0
 25 24  1  0
 26 24  2  0
M  END
$$$$
