YVS.pdb
     RDKit          3D

 26 26  0  0  1  0  0  0  0  0999 V2000
   10.2487  -13.1656   29.6699 O   0  0  0  0  0  0  0  0  0  0  0  0
    9.7563  -14.1663   28.8428 C   0  0  0  0  0  0  0  0  0  0  0  0
   10.3025  -15.4386   28.8896 C   0  0  0  0  0  0  0  0  0  0  0  0
    9.8517  -16.4550   28.0958 C   0  0  0  0  0  0  0  0  0  0  0  0
    8.8108  -16.2594   27.1918 C   0  0  0  0  0  0  0  0  0  0  0  0
    8.2914  -17.3078   26.3265 C   0  0  0  0  0  0  0  0  0  0  0  0
    7.1153  -16.9177   25.4690 C   0  0  2  0  0  0  0  0  0  0  0  0
    6.0092  -17.8527   25.6399 N   0  0  0  0  0  0  0  0  0  0  0  0
    7.4344  -16.8182   24.0268 C   0  0  0  0  0  0  0  0  0  0  0  0
    7.4416  -17.8787   23.3120 O   0  0  0  0  0  0  0  0  0  0  0  0
    8.2623  -14.9989   27.1385 C   0  0  0  0  0  0  0  0  0  0  0  0
    8.7244  -13.9568   27.9524 C   0  0  0  0  0  0  0  0  0  0  0  0
    6.2750  -13.8812   21.5642 C   0  0  0  0  0  0  0  0  0  0  0  0
    7.7406  -14.1702   21.4875 C   0  0  2  0  0  0  0  0  0  0  0  0
    8.1781  -13.9148   20.0531 C   0  0  0  0  0  0  0  0  0  0  0  0
    8.0973  -15.5906   21.9110 C   0  0  2  0  0  0  0  0  0  0  0  0
    7.7367  -15.6301   23.3504 N   0  0  0  0  0  0  0  0  0  0  0  0
    9.5077  -15.9268   21.7315 C   0  0  0  0  0  0  0  0  0  0  0  0
   10.4195  -15.3518   22.4286 O   0  0  0  0  0  0  0  0  0  0  0  0
   10.9527  -19.4734   21.0576 O   0  0  0  0  0  0  0  0  0  0  0  0
   11.7989  -18.4162   21.3810 C   0  0  0  0  0  0  0  0  0  0  0  0
   11.3983  -17.1495   20.6531 C   0  0  2  0  0  0  0  0  0  0  0  0
    9.9709  -16.8902   20.8018 N   0  0  0  0  0  0  0  0  0  0  0  0
   11.7888  -17.2115   19.2257 C   0  0  0  0  0  0  0  0  0  0  0  0
   13.0992  -17.4287   18.8649 O   0  0  0  0  0  0  0  0  0  0  0  0
   10.9312  -17.0670   18.3217 O   0  0  0  0  0  0  0  0  0  0  0  0
  2  3  2  0
  2  1  1  0
  4  3  1  0
  5  4  2  0
  6  5  1  0
  7  6  1  0
  7  9  1  0
  7  8  1  6
  9 17  1  0
  9 10  2  0
 11  5  1  0
 11 12  2  0
 12  2  1  0
 14 13  1  6
 14 15  1  0
 16 14  1  0
 16 17  1  1
 18 16  1  0
 18 19  2  0
 20 21  1  0
 22 21  1  6
 22 23  1  0
 23 18  1  0
 24 22  1  0
 25 24  1  0
 26 24  2  0
M  END
$$$$
