YVS.pdb
     RDKit          3D

 26 26  0  0  1  0  0  0  0  0999 V2000
    5.4149  -10.5118   28.7956 O   0  0  0  0  0  0  0  0  0  0  0  0
    6.0351  -11.4261   27.9544 C   0  0  0  0  0  0  0  0  0  0  0  0
    5.6434  -11.5288   26.6295 C   0  0  0  0  0  0  0  0  0  0  0  0
    6.2235  -12.4128   25.7644 C   0  0  0  0  0  0  0  0  0  0  0  0
    7.2471  -13.2621   26.1766 C   0  0  0  0  0  0  0  0  0  0  0  0
    7.9003  -14.2186   25.2957 C   0  0  0  0  0  0  0  0  0  0  0  0
    6.9803  -15.1688   24.5735 C   0  0  2  0  0  0  0  0  0  0  0  0
    6.4797  -16.2001   25.4751 N   0  0  0  0  0  0  0  0  0  0  0  0
    7.6001  -15.8243   23.3998 C   0  0  0  0  0  0  0  0  0  0  0  0
    8.0057  -17.0331   23.4986 O   0  0  0  0  0  0  0  0  0  0  0  0
    7.6427  -13.1669   27.4908 C   0  0  0  0  0  0  0  0  0  0  0  0
    7.0478  -12.2606   28.3778 C   0  0  0  0  0  0  0  0  0  0  0  0
    8.5110  -13.7167   19.7607 C   0  0  0  0  0  0  0  0  0  0  0  0
    8.0167  -15.1280   19.7953 C   0  0  2  0  0  0  0  0  0  0  0  0
    6.4973  -15.0771   19.7405 C   0  0  0  0  0  0  0  0  0  0  0  0
    8.4823  -15.8993   21.0251 C   0  0  2  0  0  0  0  0  0  0  0  0
    7.7871  -15.2233   22.1491 N   0  0  0  0  0  0  0  0  0  0  0  0
    9.9283  -15.8703   21.2314 C   0  0  0  0  0  0  0  0  0  0  0  0
   10.4580  -15.0848   22.0977 O   0  0  0  0  0  0  0  0  0  0  0  0
   12.3025  -19.1220   22.8502 O   0  0  0  0  0  0  0  0  0  0  0  0
   11.3030  -18.4021   22.2012 C   0  0  0  0  0  0  0  0  0  0  0  0
   11.8903  -17.4139   21.2146 C   0  0  2  0  0  0  0  0  0  0  0  0
   10.8382  -16.6859   20.5145 N   0  0  0  0  0  0  0  0  0  0  0  0
   12.8013  -18.0915   20.2633 C   0  0  0  0  0  0  0  0  0  0  0  0
   14.1659  -17.9540   20.3787 O   0  0  0  0  0  0  0  0  0  0  0  0
   12.3437  -18.8021   19.3364 O   0  0  0  0  0  0  0  0  0  0  0  0
  2  3  2  0
  2  1  1  0
  4  3  1  0
  5  4  2  0
  6  5  1  0
  7  6  1  0
  7  9  1  0
  7  8  1  1
  9 17  1  0
  9 10  2  0
 11  5  1  0
 11 12  2  0
 12  2  1  0
 14 13  1  1
 14 15  1  0
 16 14  1  0
 16 17  1  1
 18 16  1  0
 18 19  2  0
 20 21  1  0
 22 21  1  1
 22 23  1  0
 23 18  1  0
 24 22  1  0
 25 24  1  0
 26 24  2  0
M  END
$$$$
