YVS.pdb
     RDKit          3D

 26 26  0  0  1  0  0  0  0  0999 V2000
    5.5504  -10.5824   28.1088 O   0  0  0  0  0  0  0  0  0  0  0  0
    6.0793  -11.6267   27.3620 C   0  0  0  0  0  0  0  0  0  0  0  0
    6.8914  -11.3601   26.2717 C   0  0  0  0  0  0  0  0  0  0  0  0
    7.4345  -12.3536   25.5072 C   0  0  0  0  0  0  0  0  0  0  0  0
    7.1957  -13.6960   25.7896 C   0  0  0  0  0  0  0  0  0  0  0  0
    7.7518  -14.7917   25.0101 C   0  0  0  0  0  0  0  0  0  0  0  0
    6.8224  -15.4006   23.9921 C   0  0  2  0  0  0  0  0  0  0  0  0
    6.1523  -16.5778   24.5325 N   0  0  0  0  0  0  0  0  0  0  0  0
    7.4878  -15.7736   22.7234 C   0  0  0  0  0  0  0  0  0  0  0  0
    7.9278  -16.9650   22.5731 O   0  0  0  0  0  0  0  0  0  0  0  0
    6.3903  -13.9701   26.8708 C   0  0  0  0  0  0  0  0  0  0  0  0
    5.8335  -12.9515   27.6546 C   0  0  0  0  0  0  0  0  0  0  0  0
    9.0905  -13.0349   19.8971 C   0  0  0  0  0  0  0  0  0  0  0  0
    8.1694  -14.1280   19.4565 C   0  0  2  0  0  0  0  0  0  0  0  0
    6.7590  -13.5581   19.4536 C   0  0  0  0  0  0  0  0  0  0  0  0
    8.2432  -15.3696   20.3381 C   0  0  2  0  0  0  0  0  0  0  0  0
    7.6842  -14.9141   21.6357 N   0  0  0  0  0  0  0  0  0  0  0  0
    9.5969  -15.8872   20.5221 C   0  0  0  0  0  0  0  0  0  0  0  0
   10.4078  -15.3400   21.3534 O   0  0  0  0  0  0  0  0  0  0  0  0
   10.5666  -19.6515   20.3037 O   0  0  0  0  0  0  0  0  0  0  0  0
   11.5181  -18.7602   20.7921 C   0  0  0  0  0  0  0  0  0  0  0  0
   11.4826  -17.4489   20.0344 C   0  0  2  0  0  0  0  0  0  0  0  0
   10.1097  -17.0058   19.8202 N   0  0  0  0  0  0  0  0  0  0  0  0
   12.2203  -17.5553   18.7544 C   0  0  0  0  0  0  0  0  0  0  0  0
   13.5252  -17.9926   18.7302 O   0  0  0  0  0  0  0  0  0  0  0  0
   11.6676  -17.2486   17.6710 O   0  0  0  0  0  0  0  0  0  0  0  0
  2  3  2  0
  2  1  1  0
  4  3  1  0
  5  4  2  0
  6  5  1  0
  7  6  1  0
  7  9  1  0
  7  8  1  1
  9 17  1  0
  9 10  2  0
 11  5  1  0
 11 12  2  0
 12  2  1  0
 14 13  1  1
 14 15  1  0
 16 14  1  0
 16 17  1  1
 18 16  1  0
 18 19  2  0
 20 21  1  0
 22 21  1  6
 22 23  1  0
 23 18  1  0
 24 22  1  0
 25 24  1  0
 26 24  2  0
M  END
$$$$
