YVS.pdb
     RDKit          3D

 26 26  0  0  1  0  0  0  0  0999 V2000
   11.6662  -16.7117   40.5659 O   0  0  0  0  0  0  0  0  0  0  0  0
   11.8855  -17.4201   39.3919 C   0  0  0  0  0  0  0  0  0  0  0  0
   11.7561  -16.7898   38.1650 C   0  0  0  0  0  0  0  0  0  0  0  0
   11.9615  -17.4448   36.9839 C   0  0  0  0  0  0  0  0  0  0  0  0
   12.3145  -18.7915   36.9555 C   0  0  0  0  0  0  0  0  0  0  0  0
   12.5477  -19.5346   35.7263 C   0  0  0  0  0  0  0  0  0  0  0  0
   11.4244  -20.4409   35.2931 C   0  0  2  0  0  0  0  0  0  0  0  0
   11.2053  -21.5053   36.2657 N   0  0  0  0  0  0  0  0  0  0  0  0
   11.6293  -21.0507   33.9598 C   0  0  0  0  0  0  0  0  0  0  0  0
   12.1262  -22.2263   33.8780 O   0  0  0  0  0  0  0  0  0  0  0  0
   12.4453  -19.4256   38.1694 C   0  0  0  0  0  0  0  0  0  0  0  0
   12.2347  -18.7540   39.3805 C   0  0  0  0  0  0  0  0  0  0  0  0
    9.3792  -21.0873   30.6661 C   0  0  0  0  0  0  0  0  0  0  0  0
   10.7248  -20.4716   30.4481 C   0  0  2  0  0  0  0  0  0  0  0  0
   11.1394  -20.7838   29.0181 C   0  0  0  0  0  0  0  0  0  0  0  0
   11.7798  -20.9661   31.4313 C   0  0  2  0  0  0  0  0  0  0  0  0
   11.3164  -20.4395   32.7396 N   0  0  0  0  0  0  0  0  0  0  0  0
   13.1303  -20.4899   31.1418 C   0  0  0  0  0  0  0  0  0  0  0  0
   13.4178  -19.2400   31.1971 O   0  0  0  0  0  0  0  0  0  0  0  0
   16.4886  -23.0158   30.6618 O   0  0  0  0  0  0  0  0  0  0  0  0
   16.5891  -21.7333   31.1942 C   0  0  0  0  0  0  0  0  0  0  0  0
   15.5463  -20.8088   30.6003 C   0  0  2  0  0  0  0  0  0  0  0  0
   14.2034  -21.3451   30.7895 N   0  0  0  0  0  0  0  0  0  0  0  0
   15.8244  -20.5446   29.1696 C   0  0  0  0  0  0  0  0  0  0  0  0
   17.0256  -19.9996   28.7766 O   0  0  0  0  0  0  0  0  0  0  0  0
   14.9692  -20.8135   28.2922 O   0  0  0  0  0  0  0  0  0  0  0  0
  2  3  2  0
  2  1  1  0
  4  3  1  0
  5  4  2  0
  6  5  1  0
  7  6  1  0
  7  9  1  0
  7  8  1  1
  9 17  1  0
  9 10  2  0
 11  5  1  0
 11 12  2  0
 12  2  1  0
 14 13  1  1
 14 15  1  0
 16 14  1  0
 16 17  1  1
 18 16  1  0
 18 19  2  0
 20 21  1  0
 22 21  1  6
 22 23  1  0
 23 18  1  0
 24 22  1  0
 25 24  1  0
 26 24  2  0
M  END
$$$$
