YVS.pdb
     RDKit          3D

 26 26  0  0  1  0  0  0  0  0999 V2000
    6.0582  -10.3074   28.3242 O   0  0  0  0  0  0  0  0  0  0  0  0
    6.4910  -11.4232   27.6203 C   0  0  0  0  0  0  0  0  0  0  0  0
    5.8096  -11.8382   26.4877 C   0  0  0  0  0  0  0  0  0  0  0  0
    6.1973  -12.9294   25.7628 C   0  0  0  0  0  0  0  0  0  0  0  0
    7.3074  -13.6850   26.1308 C   0  0  0  0  0  0  0  0  0  0  0  0
    7.7642  -14.8528   25.3926 C   0  0  0  0  0  0  0  0  0  0  0  0
    6.7077  -15.5669   24.5897 C   0  0  2  0  0  0  0  0  0  0  0  0
    6.2537  -16.7715   25.2751 N   0  0  0  0  0  0  0  0  0  0  0  0
    7.1422  -15.9337   23.2228 C   0  0  0  0  0  0  0  0  0  0  0  0
    7.2909  -17.1679   22.9225 O   0  0  0  0  0  0  0  0  0  0  0  0
    7.9902  -13.2802   27.2545 C   0  0  0  0  0  0  0  0  0  0  0  0
    7.5927  -12.1614   27.9978 C   0  0  0  0  0  0  0  0  0  0  0  0
    8.0876  -14.3351   18.5757 C   0  0  0  0  0  0  0  0  0  0  0  0
    7.7314  -14.1512   20.0167 C   0  0  2  0  0  0  0  0  0  0  0  0
    8.6941  -13.1244   20.5938 C   0  0  0  0  0  0  0  0  0  0  0  0
    7.7847  -15.4457   20.8203 C   0  0  2  0  0  0  0  0  0  0  0  0
    7.4121  -15.0234   22.1937 N   0  0  0  0  0  0  0  0  0  0  0  0
    9.0970  -16.0877   20.8249 C   0  0  0  0  0  0  0  0  0  0  0  0
   10.0459  -15.6497   21.5704 O   0  0  0  0  0  0  0  0  0  0  0  0
   12.1196  -19.5697   19.2060 O   0  0  0  0  0  0  0  0  0  0  0  0
   10.8207  -19.0709   19.2551 C   0  0  0  0  0  0  0  0  0  0  0  0
   10.7437  -17.8224   20.1096 C   0  0  2  0  0  0  0  0  0  0  0  0
    9.4195  -17.2162   20.0315 N   0  0  0  0  0  0  0  0  0  0  0  0
   11.8016  -16.8561   19.7340 C   0  0  0  0  0  0  0  0  0  0  0  0
   12.9690  -16.7759   20.4587 O   0  0  0  0  0  0  0  0  0  0  0  0
   11.6508  -16.0945   18.7487 O   0  0  0  0  0  0  0  0  0  0  0  0
  2  3  2  0
  2  1  1  0
  4  3  1  0
  5  4  2  0
  6  5  1  0
  7  6  1  0
  7  9  1  0
  7  8  1  1
  9 17  1  0
  9 10  2  0
 11  5  1  0
 11 12  2  0
 12  2  1  0
 14 13  1  6
 14 15  1  0
 16 14  1  0
 16 17  1  1
 18 16  1  0
 18 19  2  0
 20 21  1  0
 22 21  1  6
 22 23  1  0
 23 18  1  0
 24 22  1  0
 25 24  1  0
 26 24  2  0
M  END
$$$$
