YVS.pdb
     RDKit          3D

 26 26  0  0  1  0  0  0  0  0999 V2000
   10.2235  -14.4998   31.0528 O   0  0  0  0  0  0  0  0  0  0  0  0
   10.0023  -14.6900   29.6953 C   0  0  0  0  0  0  0  0  0  0  0  0
   10.1567  -15.9477   29.1352 C   0  0  0  0  0  0  0  0  0  0  0  0
    9.9505  -16.1838   27.8055 C   0  0  0  0  0  0  0  0  0  0  0  0
    9.5712  -15.1613   26.9398 C   0  0  0  0  0  0  0  0  0  0  0  0
    9.3359  -15.3595   25.5175 C   0  0  0  0  0  0  0  0  0  0  0  0
    7.9227  -15.7194   25.1377 C   0  0  2  0  0  0  0  0  0  0  0  0
    7.4871  -16.9289   25.8265 N   0  0  0  0  0  0  0  0  0  0  0  0
    7.7238  -15.9040   23.6825 C   0  0  0  0  0  0  0  0  0  0  0  0
    7.5198  -17.0795   23.2219 O   0  0  0  0  0  0  0  0  0  0  0  0
    9.4154  -13.9088   27.4874 C   0  0  0  0  0  0  0  0  0  0  0  0
    9.6269  -13.6668   28.8507 C   0  0  0  0  0  0  0  0  0  0  0  0
    7.1601  -13.7568   19.2060 C   0  0  0  0  0  0  0  0  0  0  0  0
    7.3297  -13.7471   20.6921 C   0  0  2  0  0  0  0  0  0  0  0  0
    8.4539  -12.7738   21.0133 C   0  0  0  0  0  0  0  0  0  0  0  0
    7.6317  -15.1239   21.2728 C   0  0  2  0  0  0  0  0  0  0  0  0
    7.7364  -14.8754   22.7326 N   0  0  0  0  0  0  0  0  0  0  0  0
    8.8658  -15.7225   20.7699 C   0  0  0  0  0  0  0  0  0  0  0  0
   10.0117  -15.3450   21.2086 O   0  0  0  0  0  0  0  0  0  0  0  0
    9.0144  -19.4159   19.1873 O   0  0  0  0  0  0  0  0  0  0  0  0
   10.1975  -18.8115   19.6032 C   0  0  0  0  0  0  0  0  0  0  0  0
   10.1671  -17.3171   19.3569 C   0  0  2  0  0  0  0  0  0  0  0  0
    8.8976  -16.7420   19.7867 N   0  0  0  0  0  0  0  0  0  0  0  0
   10.4448  -17.0077   17.9353 C   0  0  0  0  0  0  0  0  0  0  0  0
   11.5949  -17.4606   17.3297 O   0  0  0  0  0  0  0  0  0  0  0  0
    9.6360  -16.3276   17.2595 O   0  0  0  0  0  0  0  0  0  0  0  0
  2  3  2  0
  2  1  1  0
  4  3  1  0
  5  4  2  0
  6  5  1  0
  7  6  1  0
  7  9  1  0
  7  8  1  1
  9 17  1  0
  9 10  2  0
 11  5  1  0
 11 12  2  0
 12  2  1  0
 14 13  1  6
 14 15  1  0
 16 14  1  0
 16 17  1  1
 18 16  1  0
 18 19  2  0
 20 21  1  0
 22 21  1  6
 22 23  1  0
 23 18  1  0
 24 22  1  0
 25 24  1  0
 26 24  2  0
M  END
$$$$
