YVS.pdb
     RDKit          3D

 26 26  0  0  1  0  0  0  0  0999 V2000
   10.8300  -14.6938   30.4525 O   0  0  0  0  0  0  0  0  0  0  0  0
   10.1501  -14.8655   29.2540 C   0  0  0  0  0  0  0  0  0  0  0  0
    9.5860  -13.7750   28.6123 C   0  0  0  0  0  0  0  0  0  0  0  0
    8.9080  -13.8943   27.4322 C   0  0  0  0  0  0  0  0  0  0  0  0
    8.7495  -15.1302   26.8109 C   0  0  0  0  0  0  0  0  0  0  0  0
    8.0401  -15.3116   25.5534 C   0  0  0  0  0  0  0  0  0  0  0  0
    8.8858  -15.7629   24.3906 C   0  0  2  0  0  0  0  0  0  0  0  0
   10.0857  -14.9434   24.2663 N   0  0  0  0  0  0  0  0  0  0  0  0
    8.1708  -15.7576   23.0944 C   0  0  0  0  0  0  0  0  0  0  0  0
    7.0505  -16.3663   22.9940 O   0  0  0  0  0  0  0  0  0  0  0  0
    9.3067  -16.2189   27.4411 C   0  0  0  0  0  0  0  0  0  0  0  0
   10.0018  -16.0966   28.6510 C   0  0  0  0  0  0  0  0  0  0  0  0
    8.5666  -12.8750   20.1977 C   0  0  0  0  0  0  0  0  0  0  0  0
    7.4644  -13.8827   20.2809 C   0  0  2  0  0  0  0  0  0  0  0  0
    6.4844  -13.3959   21.3377 C   0  0  0  0  0  0  0  0  0  0  0  0
    7.9561  -15.2870   20.6133 C   0  0  2  0  0  0  0  0  0  0  0  0
    8.6222  -15.1245   21.9299 N   0  0  0  0  0  0  0  0  0  0  0  0
    8.8923  -15.8350   19.6348 C   0  0  0  0  0  0  0  0  0  0  0  0
   10.1462  -15.5664   19.6952 O   0  0  0  0  0  0  0  0  0  0  0  0
   10.6740  -19.6512   18.7617 O   0  0  0  0  0  0  0  0  0  0  0  0
    9.8124  -18.6560   19.2152 C   0  0  0  0  0  0  0  0  0  0  0  0
    9.4045  -17.7278   18.0897 C   0  0  2  0  0  0  0  0  0  0  0  0
    8.5041  -16.6864   18.5711 N   0  0  0  0  0  0  0  0  0  0  0  0
    8.8014  -18.4857   16.9690 C   0  0  0  0  0  0  0  0  0  0  0  0
    9.5623  -19.3514   16.2167 O   0  0  0  0  0  0  0  0  0  0  0  0
    7.5866  -18.3508   16.6870 O   0  0  0  0  0  0  0  0  0  0  0  0
  2  3  2  0
  2  1  1  0
  4  3  1  0
  5  4  2  0
  6  5  1  0
  7  6  1  0
  7  9  1  0
  7  8  1  6
  9 17  1  0
  9 10  2  0
 11  5  1  0
 11 12  2  0
 12  2  1  0
 14 13  1  1
 14 15  1  0
 16 14  1  0
 16 17  1  1
 18 16  1  0
 18 19  2  0
 20 21  1  0
 22 21  1  1
 22 23  1  0
 23 18  1  0
 24 22  1  0
 25 24  1  0
 26 24  2  0
M  END
$$$$
