YVS.pdb
     RDKit          3D

 26 26  0  0  1  0  0  0  0  0999 V2000
    5.5578  -10.6312   28.6946 O   0  0  0  0  0  0  0  0  0  0  0  0
    6.1231  -11.4905   27.7618 C   0  0  0  0  0  0  0  0  0  0  0  0
    7.0878  -12.4045   28.1533 C   0  0  0  0  0  0  0  0  0  0  0  0
    7.6724  -13.2697   27.2724 C   0  0  0  0  0  0  0  0  0  0  0  0
    7.3233  -13.2750   25.9244 C   0  0  0  0  0  0  0  0  0  0  0  0
    7.9123  -14.1769   24.9461 C   0  0  0  0  0  0  0  0  0  0  0  0
    6.9361  -15.0396   24.1887 C   0  0  2  0  0  0  0  0  0  0  0  0
    6.4138  -16.1064   25.0349 N   0  0  0  0  0  0  0  0  0  0  0  0
    7.4998  -15.6416   22.9593 C   0  0  0  0  0  0  0  0  0  0  0  0
    7.6917  -16.9051   22.9113 O   0  0  0  0  0  0  0  0  0  0  0  0
    6.3659  -12.3706   25.5266 C   0  0  0  0  0  0  0  0  0  0  0  0
    5.7666  -11.4835   26.4298 C   0  0  0  0  0  0  0  0  0  0  0  0
    9.0749  -13.3574   19.7061 C   0  0  0  0  0  0  0  0  0  0  0  0
    8.1329  -14.4999   19.4948 C   0  0  2  0  0  0  0  0  0  0  0  0
    6.7223  -13.9305   19.4988 C   0  0  0  0  0  0  0  0  0  0  0  0
    8.2705  -15.5961   20.5454 C   0  0  2  0  0  0  0  0  0  0  0  0
    7.8515  -14.9316   21.8049 N   0  0  0  0  0  0  0  0  0  0  0  0
    9.6260  -16.1250   20.6770 C   0  0  0  0  0  0  0  0  0  0  0  0
   10.5098  -15.5145   21.3801 O   0  0  0  0  0  0  0  0  0  0  0  0
   10.6150  -19.9638   19.5835 O   0  0  0  0  0  0  0  0  0  0  0  0
   11.4375  -19.3047   20.4930 C   0  0  0  0  0  0  0  0  0  0  0  0
   11.4230  -17.8076   20.2621 C   0  0  2  0  0  0  0  0  0  0  0  0
   10.0625  -17.3229   20.0594 N   0  0  0  0  0  0  0  0  0  0  0  0
   12.3015  -17.4368   19.1287 C   0  0  0  0  0  0  0  0  0  0  0  0
   13.6404  -17.7557   19.1444 O   0  0  0  0  0  0  0  0  0  0  0  0
   11.8395  -16.8259   18.1354 O   0  0  0  0  0  0  0  0  0  0  0  0
  2  3  2  0
  2  1  1  0
  4  3  1  0
  5  4  2  0
  6  5  1  0
  7  6  1  0
  7  9  1  0
  7  8  1  1
  9 17  1  0
  9 10  2  0
 11  5  1  0
 11 12  2  0
 12  2  1  0
 14 13  1  1
 14 15  1  0
 16 14  1  0
 16 17  1  1
 18 16  1  0
 18 19  2  0
 20 21  1  0
 22 21  1  6
 22 23  1  0
 23 18  1  0
 24 22  1  0
 25 24  1  0
 26 24  2  0
M  END
$$$$
