YVS.pdb
     RDKit          3D

 26 26  0  0  1  0  0  0  0  0999 V2000
    3.6008  -22.7003   15.9540 O   0  0  0  0  0  0  0  0  0  0  0  0
    4.4545  -21.8526   16.6471 C   0  0  0  0  0  0  0  0  0  0  0  0
    5.7730  -22.2187   16.8637 C   0  0  0  0  0  0  0  0  0  0  0  0
    6.6500  -21.4186   17.5398 C   0  0  0  0  0  0  0  0  0  0  0  0
    6.2572  -20.1836   18.0491 C   0  0  0  0  0  0  0  0  0  0  0  0
    7.1514  -19.2925   18.7729 C   0  0  0  0  0  0  0  0  0  0  0  0
    7.5005  -18.0086   18.0654 C   0  0  2  0  0  0  0  0  0  0  0  0
    8.2460  -18.2718   16.8399 N   0  0  0  0  0  0  0  0  0  0  0  0
    8.2742  -17.0594   18.8972 C   0  0  0  0  0  0  0  0  0  0  0  0
    9.5489  -17.1547   18.9356 O   0  0  0  0  0  0  0  0  0  0  0  0
    4.9495  -19.8117   17.8386 C   0  0  0  0  0  0  0  0  0  0  0  0
    4.0503  -20.6321   17.1455 C   0  0  0  0  0  0  0  0  0  0  0  0
    7.2919  -13.1771   19.5171 C   0  0  0  0  0  0  0  0  0  0  0  0
    7.6235  -13.9346   20.7635 C   0  0  2  0  0  0  0  0  0  0  0  0
    8.2717  -12.9549   21.7300 C   0  0  0  0  0  0  0  0  0  0  0  0
    8.5390  -15.1284   20.5172 C   0  0  2  0  0  0  0  0  0  0  0  0
    7.7204  -16.0313   19.6697 N   0  0  0  0  0  0  0  0  0  0  0  0
    8.9572  -15.8169   21.7360 C   0  0  0  0  0  0  0  0  0  0  0  0
    8.0973  -16.3695   22.5127 O   0  0  0  0  0  0  0  0  0  0  0  0
   12.5189  -17.6080   22.2372 O   0  0  0  0  0  0  0  0  0  0  0  0
   11.4557  -17.8777   23.0945 C   0  0  0  0  0  0  0  0  0  0  0  0
   10.6507  -16.6269   23.3817 C   0  0  2  0  0  0  0  0  0  0  0  0
   10.3082  -15.9305   22.1469 N   0  0  0  0  0  0  0  0  0  0  0  0
   11.3710  -15.7361   24.3207 C   0  0  0  0  0  0  0  0  0  0  0  0
   11.7612  -16.1903   25.5601 O   0  0  0  0  0  0  0  0  0  0  0  0
   11.6375  -14.5527   24.0015 O   0  0  0  0  0  0  0  0  0  0  0  0
  2  3  2  0
  2  1  1  0
  4  3  1  0
  5  4  2  0
  6  5  1  0
  7  6  1  0
  7  9  1  0
  7  8  1  6
  9 17  1  0
  9 10  2  0
 11  5  1  0
 11 12  2  0
 12  2  1  0
 14 13  1  6
 14 15  1  0
 16 14  1  0
 16 17  1  6
 18 16  1  0
 18 19  2  0
 20 21  1  0
 22 21  1  6
 22 23  1  0
 23 18  1  0
 24 22  1  0
 25 24  1  0
 26 24  2  0
M  END
$$$$
