YVS.pdb
     RDKit          3D

 26 26  0  0  1  0  0  0  0  0999 V2000
    5.5925  -10.3665   27.7776 O   0  0  0  0  0  0  0  0  0  0  0  0
    6.1035  -11.5685   27.3063 C   0  0  0  0  0  0  0  0  0  0  0  0
    5.3017  -12.4226   26.5666 C   0  0  0  0  0  0  0  0  0  0  0  0
    5.7596  -13.6150   26.0821 C   0  0  0  0  0  0  0  0  0  0  0  0
    7.0677  -14.0342   26.3105 C   0  0  0  0  0  0  0  0  0  0  0  0
    7.6058  -15.2920   25.8147 C   0  0  0  0  0  0  0  0  0  0  0  0
    6.7573  -16.0023   24.7918 C   0  0  2  0  0  0  0  0  0  0  0  0
    6.2026  -17.2361   25.3369 N   0  0  0  0  0  0  0  0  0  0  0  0
    7.4747  -16.3184   23.5360 C   0  0  0  0  0  0  0  0  0  0  0  0
    8.0364  -17.4598   23.4054 O   0  0  0  0  0  0  0  0  0  0  0  0
    7.8711  -13.1922   27.0442 C   0  0  0  0  0  0  0  0  0  0  0  0
    7.4017  -11.9696   27.5410 C   0  0  0  0  0  0  0  0  0  0  0  0
    8.8269  -13.4083   20.7440 C   0  0  0  0  0  0  0  0  0  0  0  0
    8.0941  -14.6269   20.2799 C   0  0  2  0  0  0  0  0  0  0  0  0
    6.6192  -14.2639   20.1959 C   0  0  0  0  0  0  0  0  0  0  0  0
    8.2972  -15.8343   21.1882 C   0  0  2  0  0  0  0  0  0  0  0  0
    7.5969  -15.4547   22.4408 N   0  0  0  0  0  0  0  0  0  0  0  0
    9.6989  -16.1409   21.4632 C   0  0  0  0  0  0  0  0  0  0  0  0
   10.3803  -15.4372   22.2931 O   0  0  0  0  0  0  0  0  0  0  0  0
   11.2030  -19.8085   21.2525 O   0  0  0  0  0  0  0  0  0  0  0  0
   11.9226  -18.8156   21.9118 C   0  0  0  0  0  0  0  0  0  0  0  0
   11.7896  -17.4811   21.2073 C   0  0  2  0  0  0  0  0  0  0  0  0
   10.4001  -17.2116   20.8557 N   0  0  0  0  0  0  0  0  0  0  0  0
   12.6683  -17.4196   20.0165 C   0  0  0  0  0  0  0  0  0  0  0  0
   12.1466  -17.1486   18.7720 O   0  0  0  0  0  0  0  0  0  0  0  0
   13.9030  -17.6136   20.1229 O   0  0  0  0  0  0  0  0  0  0  0  0
  2  3  2  0
  2  1  1  0
  4  3  1  0
  5  4  2  0
  6  5  1  0
  7  6  1  0
  7  9  1  0
  7  8  1  1
  9 17  1  0
  9 10  2  0
 11  5  1  0
 11 12  2  0
 12  2  1  0
 14 13  1  1
 14 15  1  0
 16 14  1  0
 16 17  1  1
 18 16  1  0
 18 19  2  0
 20 21  1  0
 22 21  1  6
 22 23  1  0
 23 18  1  0
 24 22  1  0
 25 24  1  0
 26 24  2  0
M  END
$$$$
