YVS.pdb
     RDKit          3D

 26 26  0  0  1  0  0  0  0  0999 V2000
    5.0652   -9.9566   26.8430 O   0  0  0  0  0  0  0  0  0  0  0  0
    5.8019  -11.1027   26.5750 C   0  0  0  0  0  0  0  0  0  0  0  0
    6.5347  -11.2001   25.4033 C   0  0  0  0  0  0  0  0  0  0  0  0
    7.2743  -12.3069   25.0961 C   0  0  0  0  0  0  0  0  0  0  0  0
    7.3281  -13.4019   25.9544 C   0  0  0  0  0  0  0  0  0  0  0  0
    8.1021  -14.6025   25.6767 C   0  0  0  0  0  0  0  0  0  0  0  0
    7.4447  -15.6002   24.7584 C   0  0  2  0  0  0  0  0  0  0  0  0
    6.3720  -16.3138   25.4418 N   0  0  0  0  0  0  0  0  0  0  0  0
    8.3824  -16.5906   24.1829 C   0  0  0  0  0  0  0  0  0  0  0  0
    8.3890  -17.7857   24.6382 O   0  0  0  0  0  0  0  0  0  0  0  0
    6.6034  -13.3139   27.1206 C   0  0  0  0  0  0  0  0  0  0  0  0
    5.8451  -12.1792   27.4356 C   0  0  0  0  0  0  0  0  0  0  0  0
    9.1787  -16.7186   20.3388 C   0  0  0  0  0  0  0  0  0  0  0  0
   10.4271  -16.8796   21.1470 C   0  0  2  0  0  0  0  0  0  0  0  0
   11.3297  -17.8483   20.3980 C   0  0  0  0  0  0  0  0  0  0  0  0
   10.1670  -17.3773   22.5643 C   0  0  2  0  0  0  0  0  0  0  0  0
    9.2914  -16.3313   23.1499 N   0  0  0  0  0  0  0  0  0  0  0  0
   11.3762  -17.5360   23.3687 C   0  0  0  0  0  0  0  0  0  0  0  0
   12.1616  -16.5442   23.5866 O   0  0  0  0  0  0  0  0  0  0  0  0
   12.0609  -20.9189   25.5701 O   0  0  0  0  0  0  0  0  0  0  0  0
   12.7557  -19.7772   25.9602 C   0  0  0  0  0  0  0  0  0  0  0  0
   12.9632  -18.8346   24.7926 C   0  0  2  0  0  0  0  0  0  0  0  0
   11.7679  -18.7623   23.9601 N   0  0  0  0  0  0  0  0  0  0  0  0
   14.1502  -19.2271   23.9981 C   0  0  0  0  0  0  0  0  0  0  0  0
   15.3951  -19.2931   24.5814 O   0  0  0  0  0  0  0  0  0  0  0  0
   14.0401  -19.5058   22.7801 O   0  0  0  0  0  0  0  0  0  0  0  0
  2  3  2  0
  2  1  1  0
  4  3  1  0
  5  4  2  0
  6  5  1  0
  7  6  1  0
  7  9  1  0
  7  8  1  1
  9 17  1  0
  9 10  2  0
 11  5  1  0
 11 12  2  0
 12  2  1  0
 14 13  1  6
 14 15  1  0
 16 14  1  0
 16 17  1  1
 18 16  1  0
 18 19  2  0
 20 21  1  0
 22 21  1  1
 22 23  1  0
 23 18  1  0
 24 22  1  0
 25 24  1  0
 26 24  2  0
M  END
$$$$
