YVS.pdb
     RDKit          3D

 26 26  0  0  1  0  0  0  0  0999 V2000
   10.5159  -14.7455   30.2685 O   0  0  0  0  0  0  0  0  0  0  0  0
    9.8963  -14.7548   29.0259 C   0  0  0  0  0  0  0  0  0  0  0  0
    9.8420  -15.9241   28.2848 C   0  0  0  0  0  0  0  0  0  0  0  0
    9.2436  -15.9824   27.0581 C   0  0  0  0  0  0  0  0  0  0  0  0
    8.6533  -14.8579   26.4872 C   0  0  0  0  0  0  0  0  0  0  0  0
    8.0008  -14.8667   25.1866 C   0  0  0  0  0  0  0  0  0  0  0  0
    8.7287  -15.6161   24.1006 C   0  0  2  0  0  0  0  0  0  0  0  0
   10.0969  -15.1322   23.9568 N   0  0  0  0  0  0  0  0  0  0  0  0
    8.0615  -15.5526   22.7806 C   0  0  0  0  0  0  0  0  0  0  0  0
    6.8264  -15.8708   22.6867 O   0  0  0  0  0  0  0  0  0  0  0  0
    8.7025  -13.6922   27.2162 C   0  0  0  0  0  0  0  0  0  0  0  0
    9.3160  -13.6324   28.4740 C   0  0  0  0  0  0  0  0  0  0  0  0
    9.2402  -13.0929   19.7308 C   0  0  0  0  0  0  0  0  0  0  0  0
    7.9059  -13.7598   19.8420 C   0  0  2  0  0  0  0  0  0  0  0  0
    7.0824  -12.9614   20.8413 C   0  0  0  0  0  0  0  0  0  0  0  0
    7.9964  -15.2205   20.2689 C   0  0  2  0  0  0  0  0  0  0  0  0
    8.6782  -15.1610   21.5861 N   0  0  0  0  0  0  0  0  0  0  0  0
    8.7508  -16.0633   19.3443 C   0  0  0  0  0  0  0  0  0  0  0  0
   10.0218  -15.9345   19.2175 O   0  0  0  0  0  0  0  0  0  0  0  0
    7.0270  -19.1118   16.9745 O   0  0  0  0  0  0  0  0  0  0  0  0
    8.3117  -19.2740   17.4858 C   0  0  0  0  0  0  0  0  0  0  0  0
    8.9863  -17.9364   17.7108 C   0  0  2  0  0  0  0  0  0  0  0  0
    8.1583  -17.0655   18.5371 N   0  0  0  0  0  0  0  0  0  0  0  0
    9.3281  -17.2910   16.4222 C   0  0  0  0  0  0  0  0  0  0  0  0
   10.1748  -17.9088   15.5300 O   0  0  0  0  0  0  0  0  0  0  0  0
    8.8512  -16.1701   16.1227 O   0  0  0  0  0  0  0  0  0  0  0  0
  2  3  2  0
  2  1  1  0
  4  3  1  0
  5  4  2  0
  6  5  1  0
  7  6  1  0
  7  9  1  0
  7  8  1  6
  9 17  1  0
  9 10  2  0
 11  5  1  0
 11 12  2  0
 12  2  1  0
 14 13  1  1
 14 15  1  0
 16 14  1  0
 16 17  1  1
 18 16  1  0
 18 19  2  0
 20 21  1  0
 22 21  1  6
 22 23  1  0
 23 18  1  0
 24 22  1  0
 25 24  1  0
 26 24  2  0
M  END
$$$$
