GVQ.pdb
     RDKit          3D

 21 20  0  0  1  0  0  0  0  0999 V2000
    8.4677  -17.9734   16.6389 N   0  0  0  0  0  0  0  0  0  0  0  0
    7.6586  -17.5235   17.7501 C   0  0  0  0  0  0  0  0  0  0  0  0
    8.3952  -16.5670   18.6163 C   0  0  0  0  0  0  0  0  0  0  0  0
    9.6478  -16.6641   18.6556 O   0  0  0  0  0  0  0  0  0  0  0  0
    7.2106  -12.6927   19.5709 C   0  0  0  0  0  0  0  0  0  0  0  0
    7.5673  -13.5443   20.7468 C   0  0  2  0  0  0  0  0  0  0  0  0
    8.2475  -12.7668   21.8483 C   0  0  0  0  0  0  0  0  0  0  0  0
    8.3925  -14.7526   20.3621 C   0  0  2  0  0  0  0  0  0  0  0  0
    7.7206  -15.5736   19.3782 N   0  0  0  0  0  0  0  0  0  0  0  0
    8.6628  -15.5677   21.5828 C   0  0  0  0  0  0  0  0  0  0  0  0
    7.6915  -16.1579   22.1061 O   0  0  0  0  0  0  0  0  0  0  0  0
   10.3645  -20.6409   21.8965 N   0  0  0  0  0  0  0  0  0  0  0  0
   11.2860  -19.7113   21.3441 C   0  0  0  0  0  0  0  0  0  0  0  0
   12.0745  -20.1021   20.4565 O   0  0  0  0  0  0  0  0  0  0  0  0
   11.2815  -18.3241   21.8353 C   0  0  0  0  0  0  0  0  0  0  0  0
   10.2233  -17.9870   22.8203 C   0  0  0  0  0  0  0  0  0  0  0  0
   10.2487  -16.5719   23.2686 C   0  0  2  0  0  0  0  0  0  0  0  0
    9.9647  -15.6764   22.1370 N   0  0  0  0  0  0  0  0  0  0  0  0
   11.5300  -16.1784   23.8572 C   0  0  0  0  0  0  0  0  0  0  0  0
   11.9388  -16.7439   24.9011 O   0  0  0  0  0  0  0  0  0  0  0  0
   12.3523  -15.1977   23.3300 O   0  0  0  0  0  0  0  0  0  0  0  0
  1  2  1  0
  3  2  1  0
  3  4  2  0
  6  5  1  6
  6  8  1  0
  7  6  1  0
  8  9  1  6
  8 10  1  0
  9  3  1  0
 10 11  2  0
 13 14  2  0
 13 12  1  0
 15 13  1  0
 16 15  1  0
 17 16  1  6
 18 10  1  0
 18 17  1  0
 19 21  1  0
 19 17  1  0
 20 19  2  0
M  END
$$$$
