GVQ.pdb
     RDKit          3D

 21 20  0  0  1  0  0  0  0  0999 V2000
    9.0126  -17.6675   16.5365 N   0  0  0  0  0  0  0  0  0  0  0  0
    8.1592  -17.5146   17.6941 C   0  0  0  0  0  0  0  0  0  0  0  0
    8.7576  -16.6026   18.7030 C   0  0  0  0  0  0  0  0  0  0  0  0
   10.0111  -16.5778   18.7934 O   0  0  0  0  0  0  0  0  0  0  0  0
    7.0654  -12.9846   19.8251 C   0  0  0  0  0  0  0  0  0  0  0  0
    7.5284  -13.8320   20.9664 C   0  0  2  0  0  0  0  0  0  0  0  0
    8.0878  -13.0197   22.1100 C   0  0  0  0  0  0  0  0  0  0  0  0
    8.5147  -14.8967   20.5390 C   0  0  2  0  0  0  0  0  0  0  0  0
    7.9538  -15.7826   19.5419 N   0  0  0  0  0  0  0  0  0  0  0  0
    8.9211  -15.6933   21.7338 C   0  0  0  0  0  0  0  0  0  0  0  0
    8.0821  -16.4946   22.2024 O   0  0  0  0  0  0  0  0  0  0  0  0
   15.1258  -17.4369   21.6507 N   0  0  0  0  0  0  0  0  0  0  0  0
   14.2961  -16.6929   22.5318 C   0  0  0  0  0  0  0  0  0  0  0  0
   14.8062  -15.7682   23.2003 O   0  0  0  0  0  0  0  0  0  0  0  0
   12.8683  -17.0363   22.6280 C   0  0  0  0  0  0  0  0  0  0  0  0
   12.0900  -16.2974   23.6536 C   0  0  0  0  0  0  0  0  0  0  0  0
   10.6194  -16.3818   23.4679 C   0  0  2  0  0  0  0  0  0  0  0  0
   10.2047  -15.5564   22.3235 N   0  0  0  0  0  0  0  0  0  0  0  0
    9.8657  -15.9484   24.6456 C   0  0  0  0  0  0  0  0  0  0  0  0
    9.5582  -14.7385   24.7811 O   0  0  0  0  0  0  0  0  0  0  0  0
    9.4519  -16.8019   25.6537 O   0  0  0  0  0  0  0  0  0  0  0  0
  1  2  1  0
  3  2  1  0
  3  4  2  0
  6  5  1  6
  6  8  1  0
  7  6  1  0
  8  9  1  6
  8 10  1  0
  9  3  1  0
 10 11  2  0
 13 14  2  0
 13 12  1  0
 15 13  1  0
 16 15  1  0
 17 16  1  1
 18 10  1  0
 18 17  1  0
 19 21  1  0
 19 17  1  0
 20 19  2  0
M  END
$$$$
