GVQ.pdb
     RDKit          3D

 21 20  0  0  1  0  0  0  0  0999 V2000
    4.2554  -18.6097   20.3190 N   0  0  0  0  0  0  0  0  0  0  0  0
    4.3996  -17.3310   20.9793 C   0  0  0  0  0  0  0  0  0  0  0  0
    5.7895  -16.8147   20.8827 C   0  0  0  0  0  0  0  0  0  0  0  0
    6.7085  -17.6510   20.6933 O   0  0  0  0  0  0  0  0  0  0  0  0
    6.7301  -13.0370   19.5377 C   0  0  0  0  0  0  0  0  0  0  0  0
    7.4824  -13.4269   20.7694 C   0  0  2  0  0  0  0  0  0  0  0  0
    8.9096  -12.9334   20.7650 C   0  0  0  0  0  0  0  0  0  0  0  0
    7.4361  -14.9158   21.0336 C   0  0  2  0  0  0  0  0  0  0  0  0
    6.0833  -15.4281   20.9984 N   0  0  0  0  0  0  0  0  0  0  0  0
    8.0337  -15.1927   22.3728 C   0  0  0  0  0  0  0  0  0  0  0  0
    7.4495  -14.7170   23.3719 O   0  0  0  0  0  0  0  0  0  0  0  0
    6.2920  -17.0608   25.4104 N   0  0  0  0  0  0  0  0  0  0  0  0
    7.4681  -17.8564   25.4582 C   0  0  0  0  0  0  0  0  0  0  0  0
    7.8651  -18.2759   26.5666 O   0  0  0  0  0  0  0  0  0  0  0  0
    8.1774  -18.1577   24.2045 C   0  0  0  0  0  0  0  0  0  0  0  0
    9.5958  -17.7246   24.1402 C   0  0  0  0  0  0  0  0  0  0  0  0
    9.7701  -16.2802   23.8451 C   0  0  2  0  0  0  0  0  0  0  0  0
    9.2164  -15.9630   22.5200 N   0  0  0  0  0  0  0  0  0  0  0  0
   11.1699  -15.8526   23.8738 C   0  0  0  0  0  0  0  0  0  0  0  0
   11.7550  -15.5547   22.8035 O   0  0  0  0  0  0  0  0  0  0  0  0
   11.9207  -15.7474   25.0318 O   0  0  0  0  0  0  0  0  0  0  0  0
  1  2  1  0
  3  2  1  0
  3  4  2  0
  6  5  1  6
  6  8  1  0
  7  6  1  0
  8  9  1  1
  8 10  1  0
  9  3  1  0
 10 11  2  0
 13 14  2  0
 13 12  1  0
 15 13  1  0
 16 15  1  0
 17 16  1  6
 18 10  1  0
 18 17  1  0
 19 21  1  0
 19 17  1  0
 20 19  2  0
M  END
$$$$
