GVQ.pdb
     RDKit          3D

 21 20  0  0  1  0  0  0  0  0999 V2000
    8.2463  -17.8253   16.9913 N   0  0  0  0  0  0  0  0  0  0  0  0
    7.4745  -17.1620   18.0189 C   0  0  0  0  0  0  0  0  0  0  0  0
    8.3406  -16.3865   18.9442 C   0  0  0  0  0  0  0  0  0  0  0  0
    9.5833  -16.5522   18.8536 O   0  0  0  0  0  0  0  0  0  0  0  0
    6.7306  -13.5988   22.0192 C   0  0  0  0  0  0  0  0  0  0  0  0
    8.0705  -13.5333   21.3595 C   0  0  2  0  0  0  0  0  0  0  0  0
    8.0981  -12.5884   20.1818 C   0  0  0  0  0  0  0  0  0  0  0  0
    8.5899  -14.8966   20.9587 C   0  0  2  0  0  0  0  0  0  0  0  0
    7.7970  -15.4865   19.9018 N   0  0  0  0  0  0  0  0  0  0  0  0
    8.5711  -15.7956   22.1499 C   0  0  0  0  0  0  0  0  0  0  0  0
    7.6444  -16.6332   22.2227 O   0  0  0  0  0  0  0  0  0  0  0  0
   14.1344  -19.3868   22.6664 N   0  0  0  0  0  0  0  0  0  0  0  0
   12.8654  -19.1264   22.0832 C   0  0  0  0  0  0  0  0  0  0  0  0
   12.7497  -19.1952   20.8405 O   0  0  0  0  0  0  0  0  0  0  0  0
   11.7337  -18.7843   22.9595 C   0  0  0  0  0  0  0  0  0  0  0  0
   10.9126  -17.6222   22.5367 C   0  0  0  0  0  0  0  0  0  0  0  0
   10.2564  -16.9092   23.6614 C   0  0  2  0  0  0  0  0  0  0  0  0
    9.5588  -15.7131   23.1655 N   0  0  0  0  0  0  0  0  0  0  0  0
   11.1954  -16.4950   24.7053 C   0  0  0  0  0  0  0  0  0  0  0  0
   11.8596  -15.4386   24.5659 O   0  0  0  0  0  0  0  0  0  0  0  0
   11.4115  -17.2044   25.8741 O   0  0  0  0  0  0  0  0  0  0  0  0
  1  2  1  0
  3  2  1  0
  3  4  2  0
  6  5  1  6
  6  8  1  0
  7  6  1  0
  8  9  1  6
  8 10  1  0
  9  3  1  0
 10 11  2  0
 13 14  2  0
 13 12  1  0
 15 13  1  0
 16 15  1  0
 17 16  1  6
 18 10  1  0
 18 17  1  0
 19 21  1  0
 19 17  1  0
 20 19  2  0
M  END
$$$$
