GVQ.pdb
     RDKit          3D

 21 20  0  0  1  0  0  0  0  0999 V2000
    5.2977  -18.4567   23.7742 N   0  0  0  0  0  0  0  0  0  0  0  0
    5.2712  -17.5445   24.8962 C   0  0  0  0  0  0  0  0  0  0  0  0
    6.2160  -16.4131   24.7089 C   0  0  0  0  0  0  0  0  0  0  0  0
    7.0101  -16.4737   23.7363 O   0  0  0  0  0  0  0  0  0  0  0  0
    5.4232  -12.4984   25.6974 C   0  0  0  0  0  0  0  0  0  0  0  0
    6.7518  -12.9761   26.1888 C   0  0  2  0  0  0  0  0  0  0  0  0
    7.8200  -11.9110   26.1184 C   0  0  0  0  0  0  0  0  0  0  0  0
    7.2123  -14.2369   25.4909 C   0  0  2  0  0  0  0  0  0  0  0  0
    6.2321  -15.2968   25.5897 N   0  0  0  0  0  0  0  0  0  0  0  0
    8.4950  -14.6928   26.1028 C   0  0  0  0  0  0  0  0  0  0  0  0
    8.6584  -14.4743   27.3239 O   0  0  0  0  0  0  0  0  0  0  0  0
   11.0989  -19.5290   27.7742 N   0  0  0  0  0  0  0  0  0  0  0  0
   10.1206  -19.4133   26.7505 C   0  0  0  0  0  0  0  0  0  0  0  0
    9.6585  -20.4565   26.2402 O   0  0  0  0  0  0  0  0  0  0  0  0
    9.6868  -18.0726   26.3261 C   0  0  0  0  0  0  0  0  0  0  0  0
   10.4247  -16.9315   26.9234 C   0  0  0  0  0  0  0  0  0  0  0  0
   10.7345  -15.8458   25.9595 C   0  0  2  0  0  0  0  0  0  0  0  0
    9.4963  -15.3486   25.3406 N   0  0  0  0  0  0  0  0  0  0  0  0
   11.6456  -16.2662   24.8936 C   0  0  0  0  0  0  0  0  0  0  0  0
   11.2234  -16.3736   23.7160 O   0  0  0  0  0  0  0  0  0  0  0  0
   12.9827  -16.5626   25.0941 O   0  0  0  0  0  0  0  0  0  0  0  0
  1  2  1  0
  3  2  1  0
  3  4  2  0
  6  5  1  6
  6  8  1  0
  7  6  1  0
  8  9  1  1
  8 10  1  0
  9  3  1  0
 10 11  2  0
 13 14  2  0
 13 12  1  0
 15 13  1  0
 16 15  1  0
 17 16  1  1
 18 10  1  0
 18 17  1  0
 19 21  1  0
 19 17  1  0
 20 19  2  0
M  END
$$$$
