GVQ.pdb
     RDKit          3D

 21 20  0  0  1  0  0  0  0  0999 V2000
    7.6143  -15.1788   20.7679 N   0  0  0  0  0  0  0  0  0  0  0  0
    6.8729  -15.2560   22.0073 C   0  0  0  0  0  0  0  0  0  0  0  0
    7.6260  -14.6545   23.1381 C   0  0  0  0  0  0  0  0  0  0  0  0
    8.8697  -14.5280   23.0065 O   0  0  0  0  0  0  0  0  0  0  0  0
    6.0736  -11.9146   25.7839 C   0  0  0  0  0  0  0  0  0  0  0  0
    6.8184  -13.0220   26.4577 C   0  0  2  0  0  0  0  0  0  0  0  0
    7.6127  -12.5515   27.6528 C   0  0  0  0  0  0  0  0  0  0  0  0
    7.7023  -13.7947   25.5035 C   0  0  2  0  0  0  0  0  0  0  0  0
    6.9765  -14.2331   24.3310 N   0  0  0  0  0  0  0  0  0  0  0  0
    8.2614  -14.9841   26.2107 C   0  0  0  0  0  0  0  0  0  0  0  0
    7.5886  -16.0386   26.1812 O   0  0  0  0  0  0  0  0  0  0  0  0
   11.7752  -16.1497   23.5704 N   0  0  0  0  0  0  0  0  0  0  0  0
   11.4301  -17.4308   24.0784 C   0  0  0  0  0  0  0  0  0  0  0  0
   11.2669  -18.3725   23.2729 O   0  0  0  0  0  0  0  0  0  0  0  0
   11.2758  -17.6046   25.5315 C   0  0  0  0  0  0  0  0  0  0  0  0
   11.3794  -16.3694   26.3483 C   0  0  0  0  0  0  0  0  0  0  0  0
   10.2309  -16.1571   27.2647 C   0  0  2  0  0  0  0  0  0  0  0  0
    9.5049  -14.9332   26.8926 N   0  0  0  0  0  0  0  0  0  0  0  0
   10.6289  -16.0476   28.6691 C   0  0  0  0  0  0  0  0  0  0  0  0
   10.7338  -14.9160   29.2031 O   0  0  0  0  0  0  0  0  0  0  0  0
   10.9058  -17.1350   29.4794 O   0  0  0  0  0  0  0  0  0  0  0  0
  1  2  1  0
  3  2  1  0
  3  4  2  0
  6  5  1  6
  6  8  1  0
  7  6  1  0
  8  9  1  6
  8 10  1  0
  9  3  1  0
 10 11  2  0
 13 14  2  0
 13 12  1  0
 15 13  1  0
 16 15  1  0
 17 16  1  6
 18 10  1  0
 18 17  1  0
 19 21  1  0
 19 17  1  0
 20 19  2  0
M  END
$$$$
