GVQ.pdb
     RDKit          3D

 21 20  0  0  1  0  0  0  0  0999 V2000
    9.1846  -16.1697   15.3795 N   0  0  0  0  0  0  0  0  0  0  0  0
    8.2530  -15.9375   16.4612 C   0  0  0  0  0  0  0  0  0  0  0  0
    8.9463  -15.5033   17.7016 C   0  0  0  0  0  0  0  0  0  0  0  0
   10.1999  -15.5915   17.7283 O   0  0  0  0  0  0  0  0  0  0  0  0
    6.7682  -14.1389   21.3111 C   0  0  0  0  0  0  0  0  0  0  0  0
    8.0707  -13.5912   20.8226 C   0  0  2  0  0  0  0  0  0  0  0  0
    7.9077  -12.3275   20.0120 C   0  0  0  0  0  0  0  0  0  0  0  0
    8.8816  -14.6128   20.0559 C   0  0  2  0  0  0  0  0  0  0  0  0
    8.2304  -15.0043   18.8245 N   0  0  0  0  0  0  0  0  0  0  0  0
    9.0829  -15.8184   20.9123 C   0  0  0  0  0  0  0  0  0  0  0  0
    8.5709  -16.8916   20.5229 O   0  0  0  0  0  0  0  0  0  0  0  0
   13.5952  -19.8203   20.0961 N   0  0  0  0  0  0  0  0  0  0  0  0
   13.6432  -18.5577   20.7457 C   0  0  0  0  0  0  0  0  0  0  0  0
   14.5401  -17.7494   20.4226 O   0  0  0  0  0  0  0  0  0  0  0  0
   12.6387  -18.2460   21.7750 C   0  0  0  0  0  0  0  0  0  0  0  0
   11.7075  -17.1343   21.4585 C   0  0  0  0  0  0  0  0  0  0  0  0
   10.7178  -16.8561   22.5296 C   0  0  2  0  0  0  0  0  0  0  0  0
    9.8232  -15.7622   22.1217 N   0  0  0  0  0  0  0  0  0  0  0  0
   11.3381  -16.4926   23.8048 C   0  0  0  0  0  0  0  0  0  0  0  0
   11.5390  -15.2842   24.0807 O   0  0  0  0  0  0  0  0  0  0  0  0
   11.7312  -17.4126   24.7613 O   0  0  0  0  0  0  0  0  0  0  0  0
  1  2  1  0
  3  2  1  0
  3  4  2  0
  6  5  1  6
  6  8  1  0
  7  6  1  0
  8  9  1  6
  8 10  1  0
  9  3  1  0
 10 11  2  0
 13 14  2  0
 13 12  1  0
 15 13  1  0
 16 15  1  0
 17 16  1  6
 18 10  1  0
 18 17  1  0
 19 21  1  0
 19 17  1  0
 20 19  2  0
M  END
$$$$
