GVQ.pdb
     RDKit          3D

 21 20  0  0  1  0  0  0  0  0999 V2000
   10.1458  -15.1249   14.3808 N   0  0  0  0  0  0  0  0  0  0  0  0
    9.1794  -15.4489   15.4069 C   0  0  0  0  0  0  0  0  0  0  0  0
    9.6099  -14.9615   16.7429 C   0  0  0  0  0  0  0  0  0  0  0  0
   10.8446  -14.9090   16.9724 O   0  0  0  0  0  0  0  0  0  0  0  0
    7.3433  -12.3808   19.0402 C   0  0  0  0  0  0  0  0  0  0  0  0
    7.9406  -13.5062   19.8223 C   0  0  2  0  0  0  0  0  0  0  0  0
    8.3989  -13.0850   21.1982 C   0  0  0  0  0  0  0  0  0  0  0  0
    9.0601  -14.2022   19.0797 C   0  0  2  0  0  0  0  0  0  0  0  0
    8.6705  -14.5658   17.7345 N   0  0  0  0  0  0  0  0  0  0  0  0
    9.4523  -15.4318   19.8291 C   0  0  0  0  0  0  0  0  0  0  0  0
    9.1316  -16.5343   19.3318 O   0  0  0  0  0  0  0  0  0  0  0  0
   14.8624  -15.5125   18.0481 N   0  0  0  0  0  0  0  0  0  0  0  0
   14.8036  -15.1383   19.4173 C   0  0  0  0  0  0  0  0  0  0  0  0
   15.5852  -14.2561   19.8332 O   0  0  0  0  0  0  0  0  0  0  0  0
   13.8278  -15.8013   20.2971 C   0  0  0  0  0  0  0  0  0  0  0  0
   12.4404  -15.2766   20.2405 C   0  0  0  0  0  0  0  0  0  0  0  0
   11.5122  -15.9282   21.1986 C   0  0  2  0  0  0  0  0  0  0  0  0
   10.1605  -15.3660   21.0571 N   0  0  0  0  0  0  0  0  0  0  0  0
   11.9290  -15.7796   22.5940 C   0  0  0  0  0  0  0  0  0  0  0  0
   11.5391  -14.7900   23.2613 O   0  0  0  0  0  0  0  0  0  0  0  0
   12.7471  -16.6797   23.2547 O   0  0  0  0  0  0  0  0  0  0  0  0
  1  2  1  0
  3  2  1  0
  3  4  2  0
  6  5  1  6
  6  8  1  0
  7  6  1  0
  8  9  1  6
  8 10  1  0
  9  3  1  0
 10 11  2  0
 13 14  2  0
 13 12  1  0
 15 13  1  0
 16 15  1  0
 17 16  1  6
 18 10  1  0
 18 17  1  0
 19 21  1  0
 19 17  1  0
 20 19  2  0
M  END
$$$$
