GVQ.pdb
     RDKit          3D

 21 20  0  0  1  0  0  0  0  0999 V2000
    9.0423  -17.5764   16.8274 N   0  0  0  0  0  0  0  0  0  0  0  0
    8.0950  -17.0208   17.7684 C   0  0  0  0  0  0  0  0  0  0  0  0
    8.7766  -16.3288   18.8929 C   0  0  0  0  0  0  0  0  0  0  0  0
    9.9761  -16.6292   19.1188 O   0  0  0  0  0  0  0  0  0  0  0  0
    6.6024  -13.8639   21.7916 C   0  0  0  0  0  0  0  0  0  0  0  0
    7.9506  -13.4871   21.2668 C   0  0  2  0  0  0  0  0  0  0  0  0
    7.8851  -12.4375   20.1831 C   0  0  0  0  0  0  0  0  0  0  0  0
    8.7492  -14.6840   20.7991 C   0  0  2  0  0  0  0  0  0  0  0  0
    8.1087  -15.3605   19.6919 N   0  0  0  0  0  0  0  0  0  0  0  0
    8.9081  -15.6388   21.9351 C   0  0  0  0  0  0  0  0  0  0  0  0
    7.9763  -16.4485   22.1396 O   0  0  0  0  0  0  0  0  0  0  0  0
   13.4498  -19.3917   21.9166 N   0  0  0  0  0  0  0  0  0  0  0  0
   13.3864  -18.0307   22.3191 C   0  0  0  0  0  0  0  0  0  0  0  0
   14.4528  -17.4256   22.5618 O   0  0  0  0  0  0  0  0  0  0  0  0
   12.0709  -17.3818   22.4373 C   0  0  0  0  0  0  0  0  0  0  0  0
   11.5323  -17.2509   23.8144 C   0  0  0  0  0  0  0  0  0  0  0  0
   10.2123  -16.5748   23.8815 C   0  0  2  0  0  0  0  0  0  0  0  0
   10.0648  -15.6380   22.7573 N   0  0  0  0  0  0  0  0  0  0  0  0
   10.0086  -15.8344   25.1278 C   0  0  0  0  0  0  0  0  0  0  0  0
    9.9182  -14.5823   25.1039 O   0  0  0  0  0  0  0  0  0  0  0  0
    9.9033  -16.4322   26.3717 O   0  0  0  0  0  0  0  0  0  0  0  0
  1  2  1  0
  3  2  1  0
  3  4  2  0
  6  5  1  6
  6  8  1  0
  7  6  1  0
  8  9  1  6
  8 10  1  0
  9  3  1  0
 10 11  2  0
 13 14  2  0
 13 12  1  0
 15 13  1  0
 16 15  1  0
 17 16  1  1
 18 10  1  0
 18 17  1  0
 19 21  1  0
 19 17  1  0
 20 19  2  0
M  END
$$$$
