MGS.pdb
     RDKit          3D

 19 18  0  0  1  0  0  0  0  0999 V2000
    7.3934  -11.3376   27.4313 C   0  0  0  0  0  0  0  0  0  0  0  0
    6.3739  -11.9962   26.1323 S   0  0  0  0  0  0  0  0  0  0  0  0
    6.1998  -13.7529   26.0743 C   0  0  0  0  0  0  0  0  0  0  0  0
    7.3082  -14.5314   25.4792 C   0  0  0  0  0  0  0  0  0  0  0  0
    7.5437  -14.4966   24.0286 C   0  0  2  0  0  0  0  0  0  0  0  0
    6.5377  -15.2271   23.3034 N   0  0  0  0  0  0  0  0  0  0  0  0
    8.8894  -14.9831   23.6284 C   0  0  0  0  0  0  0  0  0  0  0  0
    9.9109  -14.4412   24.0771 O   0  0  0  0  0  0  0  0  0  0  0  0
    9.0562  -16.0865   22.7173 N   0  0  0  0  0  0  0  0  0  0  0  0
   10.3767  -16.5156   22.3308 C   0  0  0  0  0  0  0  0  0  0  0  0
   11.2816  -16.8790   23.3968 C   0  0  0  0  0  0  0  0  0  0  0  0
   11.8109  -15.9083   24.0482 O   0  0  0  0  0  0  0  0  0  0  0  0
   11.1553  -19.8501   25.9817 O   0  0  0  0  0  0  0  0  0  0  0  0
   12.4092  -19.8414   25.3482 C   0  0  0  0  0  0  0  0  0  0  0  0
   12.6220  -18.4989   24.7108 C   0  0  2  0  0  0  0  0  0  0  0  0
   11.5973  -18.2045   23.7401 N   0  0  0  0  0  0  0  0  0  0  0  0
   13.9870  -18.4356   24.0804 C   0  0  0  0  0  0  0  0  0  0  0  0
   15.1208  -18.2316   24.8172 O   0  0  0  0  0  0  0  0  0  0  0  0
   14.0693  -18.5777   22.8319 O   0  0  0  0  0  0  0  0  0  0  0  0
  1  2  1  0
  3  2  1  0
  4  5  1  0
  4  3  1  0
  5  6  1  6
  7  9  1  0
  7  5  1  0
  8  7  2  0
 10 11  1  0
 10  9  1  0
 11 16  1  0
 12 11  2  0
 13 14  1  0
 15 14  1  6
 15 17  1  0
 16 15  1  0
 17 19  2  0
 17 18  1  0
M  END
$$$$
