MGS.pdb
     RDKit          3D

 19 18  0  0  1  0  0  0  0  0999 V2000
    5.4424  -11.6735   26.8069 C   0  0  0  0  0  0  0  0  0  0  0  0
    6.8819  -11.1024   25.9339 S   0  0  0  0  0  0  0  0  0  0  0  0
    7.7895  -12.3135   25.0233 C   0  0  0  0  0  0  0  0  0  0  0  0
    7.3220  -13.7153   25.0938 C   0  0  0  0  0  0  0  0  0  0  0  0
    8.0100  -14.7660   24.3299 C   0  0  2  0  0  0  0  0  0  0  0  0
    8.1498  -14.4160   22.9408 N   0  0  0  0  0  0  0  0  0  0  0  0
    7.3697  -16.1023   24.4386 C   0  0  0  0  0  0  0  0  0  0  0  0
    6.9709  -16.6910   23.4223 O   0  0  0  0  0  0  0  0  0  0  0  0
    7.1903  -16.7554   25.7102 N   0  0  0  0  0  0  0  0  0  0  0  0
    6.9705  -18.1785   25.7708 C   0  0  0  0  0  0  0  0  0  0  0  0
    8.1352  -19.0096   25.9705 C   0  0  0  0  0  0  0  0  0  0  0  0
    7.9136  -20.2204   26.3333 O   0  0  0  0  0  0  0  0  0  0  0  0
   12.0493  -17.7868   25.1867 O   0  0  0  0  0  0  0  0  0  0  0  0
   11.6985  -19.1391   25.0379 C   0  0  0  0  0  0  0  0  0  0  0  0
   10.5741  -19.4556   25.9811 C   0  0  2  0  0  0  0  0  0  0  0  0
    9.4561  -18.5651   25.7910 N   0  0  0  0  0  0  0  0  0  0  0  0
   11.0615  -19.4027   27.4038 C   0  0  0  0  0  0  0  0  0  0  0  0
   12.0155  -20.2593   27.8794 O   0  0  0  0  0  0  0  0  0  0  0  0
   10.5638  -18.5342   28.1679 O   0  0  0  0  0  0  0  0  0  0  0  0
  1  2  1  0
  3  2  1  0
  4  5  1  0
  4  3  1  0
  5  6  1  6
  7  9  1  0
  7  5  1  0
  8  7  2  0
 10 11  1  0
 10  9  1  0
 11 16  1  0
 12 11  2  0
 13 14  1  0
 15 14  1  6
 15 17  1  0
 16 15  1  0
 17 19  2  0
 17 18  1  0
M  END
$$$$
