MGS.pdb
     RDKit          3D

 19 18  0  0  1  0  0  0  0  0999 V2000
    6.4383  -11.0185   27.0386 C   0  0  0  0  0  0  0  0  0  0  0  0
    7.1212  -12.6206   26.6818 S   0  0  0  0  0  0  0  0  0  0  0  0
    5.9798  -13.8801   26.2016 C   0  0  0  0  0  0  0  0  0  0  0  0
    6.5249  -15.0736   25.5181 C   0  0  0  0  0  0  0  0  0  0  0  0
    7.9709  -15.1991   25.2853 C   0  0  2  0  0  0  0  0  0  0  0  0
    8.6183  -13.9151   25.2222 N   0  0  0  0  0  0  0  0  0  0  0  0
    8.3163  -15.9845   24.0722 C   0  0  0  0  0  0  0  0  0  0  0  0
    8.0582  -17.1963   24.0153 O   0  0  0  0  0  0  0  0  0  0  0  0
    8.9549  -15.3769   22.9326 N   0  0  0  0  0  0  0  0  0  0  0  0
    9.4368  -16.1953   21.8485 C   0  0  0  0  0  0  0  0  0  0  0  0
   10.7433  -16.7898   22.0120 C   0  0  0  0  0  0  0  0  0  0  0  0
   11.1162  -17.6035   21.0925 O   0  0  0  0  0  0  0  0  0  0  0  0
   13.6816  -15.2748   24.3238 O   0  0  0  0  0  0  0  0  0  0  0  0
   13.9990  -16.2382   23.3516 C   0  0  0  0  0  0  0  0  0  0  0  0
   12.8579  -17.2070   23.2374 C   0  0  2  0  0  0  0  0  0  0  0  0
   11.5953  -16.5250   23.0977 N   0  0  0  0  0  0  0  0  0  0  0  0
   12.8379  -18.1261   24.4288 C   0  0  0  0  0  0  0  0  0  0  0  0
   13.8864  -18.9506   24.7305 O   0  0  0  0  0  0  0  0  0  0  0  0
   11.8140  -18.1226   25.1618 O   0  0  0  0  0  0  0  0  0  0  0  0
  1  2  1  0
  3  2  1  0
  4  5  1  0
  4  3  1  0
  5  6  1  6
  7  9  1  0
  7  5  1  0
  8  7  2  0
 10 11  1  0
 10  9  1  0
 11 16  1  0
 12 11  2  0
 13 14  1  0
 15 14  1  1
 15 17  1  0
 16 15  1  0
 17 19  2  0
 17 18  1  0
M  END
$$$$
