MGS.pdb
     RDKit          3D

 19 18  0  0  1  0  0  0  0  0999 V2000
    5.5084  -11.4439   27.3782 C   0  0  0  0  0  0  0  0  0  0  0  0
    6.5294  -12.5979   26.4915 S   0  0  0  0  0  0  0  0  0  0  0  0
    7.1473  -12.0685   24.9239 C   0  0  0  0  0  0  0  0  0  0  0  0
    8.0699  -12.9777   24.2091 C   0  0  0  0  0  0  0  0  0  0  0  0
    7.5753  -14.2405   23.6420 C   0  0  2  0  0  0  0  0  0  0  0  0
    6.9117  -15.0497   24.6302 N   0  0  0  0  0  0  0  0  0  0  0  0
    8.6264  -15.0476   22.9702 C   0  0  0  0  0  0  0  0  0  0  0  0
    9.4247  -14.5106   22.1875 O   0  0  0  0  0  0  0  0  0  0  0  0
    8.7560  -16.4642   23.1990 N   0  0  0  0  0  0  0  0  0  0  0  0
    9.9257  -17.1697   22.7396 C   0  0  0  0  0  0  0  0  0  0  0  0
   10.8920  -17.5520   23.7432 C   0  0  0  0  0  0  0  0  0  0  0  0
   11.9603  -18.1203   23.3158 O   0  0  0  0  0  0  0  0  0  0  0  0
   10.0415  -17.3116   27.7375 O   0  0  0  0  0  0  0  0  0  0  0  0
   11.4171  -17.3326   27.4528 C   0  0  0  0  0  0  0  0  0  0  0  0
   11.6211  -17.9164   26.0848 C   0  0  2  0  0  0  0  0  0  0  0  0
   10.7192  -17.3363   25.1209 N   0  0  0  0  0  0  0  0  0  0  0  0
   11.4613  -19.4120   26.1311 C   0  0  0  0  0  0  0  0  0  0  0  0
   12.2621  -20.2066   26.9041 O   0  0  0  0  0  0  0  0  0  0  0  0
   10.5547  -19.9323   25.4289 O   0  0  0  0  0  0  0  0  0  0  0  0
  1  2  1  0
  3  2  1  0
  4  5  1  0
  4  3  1  0
  5  6  1  1
  7  9  1  0
  7  5  1  0
  8  7  2  0
 10 11  1  0
 10  9  1  0
 11 16  1  0
 12 11  2  0
 13 14  1  0
 15 14  1  1
 15 17  1  0
 16 15  1  0
 17 19  2  0
 17 18  1  0
M  END
$$$$
