MGS.pdb
     RDKit          3D

 19 18  0  0  1  0  0  0  0  0999 V2000
    5.6825  -11.1447   27.0613 C   0  0  0  0  0  0  0  0  0  0  0  0
    7.0243  -12.1289   26.4357 S   0  0  0  0  0  0  0  0  0  0  0  0
    6.6360  -13.7819   25.9497 C   0  0  0  0  0  0  0  0  0  0  0  0
    7.7074  -14.5772   25.3107 C   0  0  0  0  0  0  0  0  0  0  0  0
    7.4356  -15.9417   24.8361 C   0  0  2  0  0  0  0  0  0  0  0  0
    6.9121  -16.7800   25.8824 N   0  0  0  0  0  0  0  0  0  0  0  0
    8.6114  -16.6054   24.2158 C   0  0  0  0  0  0  0  0  0  0  0  0
    9.3997  -17.2630   24.9118 O   0  0  0  0  0  0  0  0  0  0  0  0
    8.8765  -16.5114   22.8028 N   0  0  0  0  0  0  0  0  0  0  0  0
   10.0412  -17.1461   22.2389 C   0  0  0  0  0  0  0  0  0  0  0  0
   11.2814  -16.4080   22.3047 C   0  0  0  0  0  0  0  0  0  0  0  0
   11.3083  -15.2860   21.6826 O   0  0  0  0  0  0  0  0  0  0  0  0
   14.0366  -16.9409   25.1643 O   0  0  0  0  0  0  0  0  0  0  0  0
   14.0916  -15.7655   24.3966 C   0  0  0  0  0  0  0  0  0  0  0  0
   13.6382  -16.0765   22.9995 C   0  0  2  0  0  0  0  0  0  0  0  0
   12.4216  -16.8502   22.9968 N   0  0  0  0  0  0  0  0  0  0  0  0
   14.7276  -16.7940   22.2493 C   0  0  0  0  0  0  0  0  0  0  0  0
   14.5241  -18.0080   21.6536 O   0  0  0  0  0  0  0  0  0  0  0  0
   15.8579  -16.2435   22.1772 O   0  0  0  0  0  0  0  0  0  0  0  0
  1  2  1  0
  3  2  1  0
  4  5  1  0
  4  3  1  0
  5  6  1  1
  7  9  1  0
  7  5  1  0
  8  7  2  0
 10 11  1  0
 10  9  1  0
 11 16  1  0
 12 11  2  0
 13 14  1  0
 15 14  1  1
 15 17  1  0
 16 15  1  0
 17 19  2  0
 17 18  1  0
M  END
$$$$
