MGS.pdb
     RDKit          3D

 19 18  0  0  1  0  0  0  0  0999 V2000
    5.0914  -11.2095   25.7812 C   0  0  0  0  0  0  0  0  0  0  0  0
    6.8087  -11.5078   25.4310 S   0  0  0  0  0  0  0  0  0  0  0  0
    7.3045  -13.1958   25.2749 C   0  0  0  0  0  0  0  0  0  0  0  0
    6.7601  -13.9667   24.1356 C   0  0  0  0  0  0  0  0  0  0  0  0
    7.1490  -15.3703   23.9365 C   0  0  2  0  0  0  0  0  0  0  0  0
    6.6427  -16.2213   24.9811 N   0  0  0  0  0  0  0  0  0  0  0  0
    8.6150  -15.5727   23.8042 C   0  0  0  0  0  0  0  0  0  0  0  0
    9.1646  -15.4705   22.6969 O   0  0  0  0  0  0  0  0  0  0  0  0
    9.4416  -15.8907   24.9405 N   0  0  0  0  0  0  0  0  0  0  0  0
   10.8698  -16.0103   24.7884 C   0  0  0  0  0  0  0  0  0  0  0  0
   11.6235  -16.3625   25.9695 C   0  0  0  0  0  0  0  0  0  0  0  0
   12.8588  -16.6588   25.7877 O   0  0  0  0  0  0  0  0  0  0  0  0
   10.5968  -15.0467   29.3053 O   0  0  0  0  0  0  0  0  0  0  0  0
   11.4990  -16.0699   29.6416 C   0  0  0  0  0  0  0  0  0  0  0  0
   11.8728  -16.8169   28.3941 C   0  0  2  0  0  0  0  0  0  0  0  0
   11.0814  -16.3940   27.2656 N   0  0  0  0  0  0  0  0  0  0  0  0
   11.7339  -18.2987   28.6169 C   0  0  0  0  0  0  0  0  0  0  0  0
   12.3894  -18.9483   29.6260 O   0  0  0  0  0  0  0  0  0  0  0  0
   10.9845  -18.9463   27.8391 O   0  0  0  0  0  0  0  0  0  0  0  0
  1  2  1  0
  3  2  1  0
  4  5  1  0
  4  3  1  0
  5  6  1  1
  7  9  1  0
  7  5  1  0
  8  7  2  0
 10 11  1  0
 10  9  1  0
 11 16  1  0
 12 11  2  0
 13 14  1  0
 15 14  1  1
 15 17  1  0
 16 15  1  0
 17 19  2  0
 17 18  1  0
M  END
$$$$
