MGS.pdb
     RDKit          3D

 19 18  0  0  1  0  0  0  0  0999 V2000
    8.1274  -11.3642   20.2328 C   0  0  0  0  0  0  0  0  0  0  0  0
    7.2085  -12.2682   19.0085 S   0  0  0  0  0  0  0  0  0  0  0  0
    7.7583  -13.9092   18.6559 C   0  0  0  0  0  0  0  0  0  0  0  0
    8.1801  -14.7500   19.7978 C   0  0  0  0  0  0  0  0  0  0  0  0
    8.5237  -16.1642   19.5904 C   0  0  2  0  0  0  0  0  0  0  0  0
    7.5384  -16.8449   18.7921 N   0  0  0  0  0  0  0  0  0  0  0  0
    8.7417  -16.9187   20.8517 C   0  0  0  0  0  0  0  0  0  0  0  0
    7.7897  -17.4684   21.4261 O   0  0  0  0  0  0  0  0  0  0  0  0
   10.0484  -17.0386   21.4467 N   0  0  0  0  0  0  0  0  0  0  0  0
   10.2091  -16.9247   22.8744 C   0  0  0  0  0  0  0  0  0  0  0  0
   11.5590  -16.9877   23.3852 C   0  0  0  0  0  0  0  0  0  0  0  0
   12.2025  -15.8783   23.4277 O   0  0  0  0  0  0  0  0  0  0  0  0
   11.1200  -19.1334   26.4156 O   0  0  0  0  0  0  0  0  0  0  0  0
   11.9169  -17.9904   26.2360 C   0  0  0  0  0  0  0  0  0  0  0  0
   12.8591  -18.2302   25.0920 C   0  0  2  0  0  0  0  0  0  0  0  0
   12.1777  -18.1711   23.8227 N   0  0  0  0  0  0  0  0  0  0  0  0
   13.5540  -19.5541   25.2624 C   0  0  0  0  0  0  0  0  0  0  0  0
   13.0664  -20.7086   24.7152 O   0  0  0  0  0  0  0  0  0  0  0  0
   14.6191  -19.5813   25.9337 O   0  0  0  0  0  0  0  0  0  0  0  0
  1  2  1  0
  3  2  1  0
  4  5  1  0
  4  3  1  0
  5  6  1  1
  7  9  1  0
  7  5  1  0
  8  7  2  0
 10 11  1  0
 10  9  1  0
 11 16  1  0
 12 11  2  0
 13 14  1  0
 15 14  1  1
 15 17  1  0
 16 15  1  0
 17 19  2  0
 17 18  1  0
M  END
$$$$
