MGS.pdb
     RDKit          3D

 19 18  0  0  1  0  0  0  0  0999 V2000
    5.9928  -11.1119   27.8164 C   0  0  0  0  0  0  0  0  0  0  0  0
    6.8043  -11.8371   26.4107 S   0  0  0  0  0  0  0  0  0  0  0  0
    6.0845  -13.3093   25.7518 C   0  0  0  0  0  0  0  0  0  0  0  0
    6.7079  -13.8951   24.5448 C   0  0  0  0  0  0  0  0  0  0  0  0
    7.7970  -14.8740   24.6733 C   0  0  2  0  0  0  0  0  0  0  0  0
    8.8989  -14.3541   25.4395 N   0  0  0  0  0  0  0  0  0  0  0  0
    8.3002  -15.3845   23.3718 C   0  0  0  0  0  0  0  0  0  0  0  0
    7.6056  -16.1521   22.6886 O   0  0  0  0  0  0  0  0  0  0  0  0
    9.5952  -15.0125   22.8615 N   0  0  0  0  0  0  0  0  0  0  0  0
   10.2007  -15.7709   21.7960 C   0  0  0  0  0  0  0  0  0  0  0  0
   11.4218  -16.4760   22.1107 C   0  0  0  0  0  0  0  0  0  0  0  0
   11.8624  -17.2782   21.2111 O   0  0  0  0  0  0  0  0  0  0  0  0
   15.7508  -16.1553   23.6784 O   0  0  0  0  0  0  0  0  0  0  0  0
   14.4442  -15.6449   23.6003 C   0  0  0  0  0  0  0  0  0  0  0  0
   13.4840  -16.7893   23.4510 C   0  0  2  0  0  0  0  0  0  0  0  0
   12.1247  -16.3271   23.3183 N   0  0  0  0  0  0  0  0  0  0  0  0
   13.6150  -17.7306   24.6177 C   0  0  0  0  0  0  0  0  0  0  0  0
   14.7007  -18.5468   24.7769 O   0  0  0  0  0  0  0  0  0  0  0  0
   12.6850  -17.7541   25.4665 O   0  0  0  0  0  0  0  0  0  0  0  0
  1  2  1  0
  3  2  1  0
  4  5  1  0
  4  3  1  0
  5  6  1  6
  7  9  1  0
  7  5  1  0
  8  7  2  0
 10 11  1  0
 10  9  1  0
 11 16  1  0
 12 11  2  0
 13 14  1  0
 15 14  1  1
 15 17  1  0
 16 15  1  0
 17 19  2  0
 17 18  1  0
M  END
$$$$
