MGS.pdb
     RDKit          3D

 19 18  0  0  1  0  0  0  0  0999 V2000
    7.1018  -11.4690   27.8989 C   0  0  0  0  0  0  0  0  0  0  0  0
    7.5657  -12.1327   26.3162 S   0  0  0  0  0  0  0  0  0  0  0  0
    6.4515  -13.2917   25.5848 C   0  0  0  0  0  0  0  0  0  0  0  0
    6.7987  -13.8261   24.2497 C   0  0  0  0  0  0  0  0  0  0  0  0
    7.8329  -14.8615   24.1112 C   0  0  2  0  0  0  0  0  0  0  0  0
    9.1111  -14.4122   24.5971 N   0  0  0  0  0  0  0  0  0  0  0  0
    7.9858  -15.3737   22.7249 C   0  0  0  0  0  0  0  0  0  0  0  0
    7.1000  -16.0761   22.2147 O   0  0  0  0  0  0  0  0  0  0  0  0
    9.1520  -15.0781   21.9322 N   0  0  0  0  0  0  0  0  0  0  0  0
    9.5771  -15.9883   20.8988 C   0  0  0  0  0  0  0  0  0  0  0  0
   10.9526  -16.4278   20.9431 C   0  0  0  0  0  0  0  0  0  0  0  0
   11.1968  -17.5817   20.4374 O   0  0  0  0  0  0  0  0  0  0  0  0
   13.8554  -14.8198   19.5432 O   0  0  0  0  0  0  0  0  0  0  0  0
   14.2773  -15.1038   20.8529 C   0  0  0  0  0  0  0  0  0  0  0  0
   13.3635  -16.1380   21.4439 C   0  0  2  0  0  0  0  0  0  0  0  0
   12.0000  -15.6724   21.4971 N   0  0  0  0  0  0  0  0  0  0  0  0
   13.8456  -16.5327   22.8137 C   0  0  0  0  0  0  0  0  0  0  0  0
   15.0913  -17.0560   23.0247 O   0  0  0  0  0  0  0  0  0  0  0  0
   13.0632  -16.3682   23.7865 O   0  0  0  0  0  0  0  0  0  0  0  0
  1  2  1  0
  3  2  1  0
  4  5  1  0
  4  3  1  0
  5  6  1  6
  7  9  1  0
  7  5  1  0
  8  7  2  0
 10 11  1  0
 10  9  1  0
 11 16  1  0
 12 11  2  0
 13 14  1  0
 15 14  1  1
 15 17  1  0
 16 15  1  0
 17 19  2  0
 17 18  1  0
M  END
$$$$
