MGS.pdb
     RDKit          3D

 19 18  0  0  1  0  0  0  0  0999 V2000
    6.7311  -11.4213   26.2899 C   0  0  0  0  0  0  0  0  0  0  0  0
    6.1036  -13.0208   26.7463 S   0  0  0  0  0  0  0  0  0  0  0  0
    6.5655  -14.3779   25.7146 C   0  0  0  0  0  0  0  0  0  0  0  0
    7.2817  -14.0693   24.4575 C   0  0  0  0  0  0  0  0  0  0  0  0
    7.7747  -15.1559   23.5989 C   0  0  2  0  0  0  0  0  0  0  0  0
    6.9103  -16.3060   23.6383 N   0  0  0  0  0  0  0  0  0  0  0  0
    9.1668  -15.5760   23.9045 C   0  0  0  0  0  0  0  0  0  0  0  0
   10.1061  -14.7767   23.7733 O   0  0  0  0  0  0  0  0  0  0  0  0
    9.4738  -16.9085   24.3583 N   0  0  0  0  0  0  0  0  0  0  0  0
   10.8338  -17.2766   24.6621 C   0  0  0  0  0  0  0  0  0  0  0  0
   11.3573  -16.8414   25.9363 C   0  0  0  0  0  0  0  0  0  0  0  0
   12.5865  -17.1249   26.1721 O   0  0  0  0  0  0  0  0  0  0  0  0
   10.4978  -13.6722   27.8020 O   0  0  0  0  0  0  0  0  0  0  0  0
   10.5793  -14.6441   28.8133 C   0  0  0  0  0  0  0  0  0  0  0  0
   11.1203  -15.9143   28.2236 C   0  0  2  0  0  0  0  0  0  0  0  0
   10.6048  -16.1446   26.8969 N   0  0  0  0  0  0  0  0  0  0  0  0
   10.8087  -17.0778   29.1257 C   0  0  0  0  0  0  0  0  0  0  0  0
   11.2939  -17.1606   30.4016 O   0  0  0  0  0  0  0  0  0  0  0  0
   10.0749  -17.9963   28.6746 O   0  0  0  0  0  0  0  0  0  0  0  0
  1  2  1  0
  3  2  1  0
  4  5  1  0
  4  3  1  0
  5  6  1  1
  7  9  1  0
  7  5  1  0
  8  7  2  0
 10 11  1  0
 10  9  1  0
 11 16  1  0
 12 11  2  0
 13 14  1  0
 15 14  1  1
 15 17  1  0
 16 15  1  0
 17 19  2  0
 17 18  1  0
M  END
$$$$
