MGS.pdb
     RDKit          3D

 19 18  0  0  1  0  0  0  0  0999 V2000
    5.2291  -11.4477   26.3074 C   0  0  0  0  0  0  0  0  0  0  0  0
    6.3979  -12.6644   26.8677 S   0  0  0  0  0  0  0  0  0  0  0  0
    7.5603  -13.2552   25.6763 C   0  0  0  0  0  0  0  0  0  0  0  0
    7.0550  -13.5606   24.3198 C   0  0  0  0  0  0  0  0  0  0  0  0
    7.3122  -14.8736   23.7108 C   0  0  2  0  0  0  0  0  0  0  0  0
    6.5415  -15.9160   24.3359 N   0  0  0  0  0  0  0  0  0  0  0  0
    8.7471  -15.2595   23.7033 C   0  0  0  0  0  0  0  0  0  0  0  0
    9.5921  -14.5214   23.1747 O   0  0  0  0  0  0  0  0  0  0  0  0
    9.2044  -16.4880   24.3011 N   0  0  0  0  0  0  0  0  0  0  0  0
   10.6070  -16.8195   24.2966 C   0  0  0  0  0  0  0  0  0  0  0  0
   11.3186  -16.6579   25.5434 C   0  0  0  0  0  0  0  0  0  0  0  0
   12.5442  -17.0381   25.5513 O   0  0  0  0  0  0  0  0  0  0  0  0
    9.9878  -14.2751   28.3986 O   0  0  0  0  0  0  0  0  0  0  0  0
   11.3086  -14.7056   28.6083 C   0  0  0  0  0  0  0  0  0  0  0  0
   11.4985  -16.0348   27.9365 C   0  0  2  0  0  0  0  0  0  0  0  0
   10.7467  -16.1207   26.7091 N   0  0  0  0  0  0  0  0  0  0  0  0
   11.1166  -17.1480   28.8742 C   0  0  0  0  0  0  0  0  0  0  0  0
   11.7174  -17.3135   30.0915 O   0  0  0  0  0  0  0  0  0  0  0  0
   10.2114  -17.9441   28.5100 O   0  0  0  0  0  0  0  0  0  0  0  0
  1  2  1  0
  3  2  1  0
  4  5  1  0
  4  3  1  0
  5  6  1  1
  7  9  1  0
  7  5  1  0
  8  7  2  0
 10 11  1  0
 10  9  1  0
 11 16  1  0
 12 11  2  0
 13 14  1  0
 15 14  1  1
 15 17  1  0
 16 15  1  0
 17 19  2  0
 17 18  1  0
M  END
$$$$
