MGS.pdb
     RDKit          3D

 19 18  0  0  1  0  0  0  0  0999 V2000
    5.5687  -10.9197   27.0404 C   0  0  0  0  0  0  0  0  0  0  0  0
    7.0194  -11.7013   26.3732 S   0  0  0  0  0  0  0  0  0  0  0  0
    6.7609  -12.8984   25.1005 C   0  0  0  0  0  0  0  0  0  0  0  0
    7.9577  -13.5172   24.4895 C   0  0  0  0  0  0  0  0  0  0  0  0
    7.8305  -14.3398   23.2779 C   0  0  2  0  0  0  0  0  0  0  0  0
    6.6802  -15.2032   23.3331 N   0  0  0  0  0  0  0  0  0  0  0  0
    9.0390  -15.1492   22.9739 C   0  0  0  0  0  0  0  0  0  0  0  0
   10.1350  -14.5966   22.7952 O   0  0  0  0  0  0  0  0  0  0  0  0
    8.9842  -16.5855   22.8764 N   0  0  0  0  0  0  0  0  0  0  0  0
   10.1835  -17.3419   22.6179 C   0  0  0  0  0  0  0  0  0  0  0  0
   11.0290  -17.6306   23.7531 C   0  0  0  0  0  0  0  0  0  0  0  0
   12.2800  -17.7765   23.5070 O   0  0  0  0  0  0  0  0  0  0  0  0
    9.9876  -17.0252   27.6379 O   0  0  0  0  0  0  0  0  0  0  0  0
   11.3417  -17.2036   27.3085 C   0  0  0  0  0  0  0  0  0  0  0  0
   11.4380  -18.1458   26.1436 C   0  0  2  0  0  0  0  0  0  0  0  0
   10.5575  -17.7545   25.0710 N   0  0  0  0  0  0  0  0  0  0  0  0
   11.1422  -19.5522   26.5896 C   0  0  0  0  0  0  0  0  0  0  0  0
   11.8779  -20.1798   27.5565 O   0  0  0  0  0  0  0  0  0  0  0  0
   10.1813  -20.1562   26.0440 O   0  0  0  0  0  0  0  0  0  0  0  0
  1  2  1  0
  3  2  1  0
  4  5  1  0
  4  3  1  0
  5  6  1  1
  7  9  1  0
  7  5  1  0
  8  7  2  0
 10 11  1  0
 10  9  1  0
 11 16  1  0
 12 11  2  0
 13 14  1  0
 15 14  1  1
 15 17  1  0
 16 15  1  0
 17 19  2  0
 17 18  1  0
M  END
$$$$
