MGS.pdb
     RDKit          3D

 19 18  0  0  1  0  0  0  0  0999 V2000
    8.5601  -12.1378   28.1397 C   0  0  0  0  0  0  0  0  0  0  0  0
    7.2972  -11.8946   26.9124 S   0  0  0  0  0  0  0  0  0  0  0  0
    6.5535  -13.3490   26.2407 C   0  0  0  0  0  0  0  0  0  0  0  0
    7.2335  -14.0014   25.1003 C   0  0  0  0  0  0  0  0  0  0  0  0
    6.6474  -15.1934   24.4706 C   0  0  2  0  0  0  0  0  0  0  0  0
    6.2851  -16.1912   25.4425 N   0  0  0  0  0  0  0  0  0  0  0  0
    7.5136  -15.8095   23.4323 C   0  0  0  0  0  0  0  0  0  0  0  0
    7.9604  -15.1233   22.5007 O   0  0  0  0  0  0  0  0  0  0  0  0
    7.8621  -17.2069   23.4679 N   0  0  0  0  0  0  0  0  0  0  0  0
    8.6644  -17.7820   22.4178 C   0  0  0  0  0  0  0  0  0  0  0  0
   10.0968  -17.6380   22.5393 C   0  0  0  0  0  0  0  0  0  0  0  0
   10.8071  -18.2925   21.6944 O   0  0  0  0  0  0  0  0  0  0  0  0
   14.1362  -15.5456   23.4648 O   0  0  0  0  0  0  0  0  0  0  0  0
   12.7381  -15.4809   23.3413 C   0  0  0  0  0  0  0  0  0  0  0  0
   12.1602  -16.8311   23.6523 C   0  0  2  0  0  0  0  0  0  0  0  0
   10.7254  -16.8394   23.5097 N   0  0  0  0  0  0  0  0  0  0  0  0
   12.5602  -17.2586   25.0386 C   0  0  0  0  0  0  0  0  0  0  0  0
   13.8614  -17.5082   25.3770 O   0  0  0  0  0  0  0  0  0  0  0  0
   11.6537  -17.3850   25.9035 O   0  0  0  0  0  0  0  0  0  0  0  0
  1  2  1  0
  3  2  1  0
  4  5  1  0
  4  3  1  0
  5  6  1  1
  7  9  1  0
  7  5  1  0
  8  7  2  0
 10 11  1  0
 10  9  1  0
 11 16  1  0
 12 11  2  0
 13 14  1  0
 15 14  1  1
 15 17  1  0
 16 15  1  0
 17 19  2  0
 17 18  1  0
M  END
$$$$
