HMP.pdb
     RDKit          3D

 26 27  0  0  1  0  0  0  0  0999 V2000
   25.7389  -18.0607  -18.6939 N   0  0  0  0  0  0  0  0  0  0  0  0
   25.2362  -17.8199  -17.3502 C   0  0  1  0  0  0  0  0  0  0  0  0
   23.7897  -17.4743  -17.3249 C   0  0  0  0  0  0  0  0  0  0  0  0
   23.6429  -16.0468  -17.7426 C   0  0  0  0  0  0  0  0  0  0  0  0
   24.5718  -15.0323  -17.6513 C   0  0  0  0  0  0  0  0  0  0  0  0
   24.0159  -13.8975  -18.1485 N   0  0  0  0  0  0  0  0  0  0  0  0
   22.7836  -14.2345  -18.5259 C   0  0  0  0  0  0  0  0  0  0  0  0
   22.5404  -15.5314  -18.2878 N   0  0  0  0  0  0  0  0  0  0  0  0
   25.4968  -19.0235  -16.5557 C   0  0  0  0  0  0  0  0  0  0  0  0
   25.2155  -20.1819  -16.9873 O   0  0  0  0  0  0  0  0  0  0  0  0
   30.0943  -21.1705  -12.1521 C   0  0  0  0  0  0  0  0  0  0  0  0
   28.6645  -20.5063  -11.2382 S   0  0  0  0  0  0  0  0  0  0  0  0
   27.1309  -20.7874  -12.2215 C   0  0  0  0  0  0  0  0  0  0  0  0
   27.1435  -19.8576  -13.3803 C   0  0  0  0  0  0  0  0  0  0  0  0
   26.0090  -20.0088  -14.3601 C   0  0  2  0  0  0  0  0  0  0  0  0
   26.0760  -18.9284  -15.2773 N   0  0  0  0  0  0  0  0  0  0  0  0
   24.6980  -20.2393  -13.8081 C   0  0  0  0  0  0  0  0  0  0  0  0
   23.9912  -19.1466  -13.6958 O   0  0  0  0  0  0  0  0  0  0  0  0
   24.0367  -21.4063  -13.3674 N   0  0  0  0  0  0  0  0  0  0  0  0
   24.4099  -22.7625  -13.2069 C   0  0  0  0  0  0  0  0  0  0  0  0
   23.1577  -23.5541  -13.4719 C   0  0  0  0  0  0  0  0  0  0  0  0
   22.0554  -22.5364  -13.6652 C   0  0  0  0  0  0  0  0  0  0  0  0
   22.6247  -21.3438  -12.9376 C   0  0  1  0  0  0  0  0  0  0  0  0
   22.4955  -21.5585  -11.4877 C   0  0  0  0  0  0  0  0  0  0  0  0
   21.3312  -21.4348  -10.7499 O   0  0  0  0  0  0  0  0  0  0  0  0
   23.5233  -21.8916  -10.8036 O   0  0  0  0  0  0  0  0  0  0  0  0
  2  1  1  6
  2  9  1  0
  3  2  1  0
  4  3  1  0
  5  4  2  0
  6  5  1  0
  7  6  1  0
  7  8  2  0
  8  4  1  0
  9 10  2  0
 12 11  1  0
 13 12  1  0
 14 13  1  0
 15 14  1  1
 16  9  1  0
 16 15  1  0
 17 15  1  0
 18 17  2  0
 19 17  1  0
 19 23  1  0
 20 21  1  0
 20 19  1  0
 21 22  1  0
 23 22  1  0
 24 25  1  0
 23 24  1  1
 26 24  2  0
M  END
$$$$
