HMP.pdb
     RDKit          3D

 26 27  0  0  1  0  0  0  0  0999 V2000
   20.5486  -19.5416  -13.9448 N   0  0  0  0  0  0  0  0  0  0  0  0
   21.2763  -20.7008  -13.4521 C   0  0  1  0  0  0  0  0  0  0  0  0
   21.1595  -21.8829  -14.3474 C   0  0  0  0  0  0  0  0  0  0  0  0
   19.8993  -22.6083  -14.0019 C   0  0  0  0  0  0  0  0  0  0  0  0
   19.7125  -23.9653  -13.8462 C   0  0  0  0  0  0  0  0  0  0  0  0
   18.4094  -24.1844  -13.5331 N   0  0  0  0  0  0  0  0  0  0  0  0
   17.8379  -22.9814  -13.5044 C   0  0  0  0  0  0  0  0  0  0  0  0
   18.7244  -22.0157  -13.7857 N   0  0  0  0  0  0  0  0  0  0  0  0
   22.6790  -20.3089  -13.2891 C   0  0  0  0  0  0  0  0  0  0  0  0
   23.2537  -19.5303  -14.1079 O   0  0  0  0  0  0  0  0  0  0  0  0
   26.1291  -19.4987   -7.7605 C   0  0  0  0  0  0  0  0  0  0  0  0
   26.9578  -20.8923   -8.5924 S   0  0  0  0  0  0  0  0  0  0  0  0
   26.7106  -20.7471  -10.4132 C   0  0  0  0  0  0  0  0  0  0  0  0
   25.2599  -20.8926  -10.6995 C   0  0  0  0  0  0  0  0  0  0  0  0
   24.8122  -20.4653  -12.0732 C   0  0  2  0  0  0  0  0  0  0  0  0
   23.4370  -20.7883  -12.2054 N   0  0  0  0  0  0  0  0  0  0  0  0
   25.6301  -20.8823  -13.1839 C   0  0  0  0  0  0  0  0  0  0  0  0
   25.2067  -21.9829  -13.7458 O   0  0  0  0  0  0  0  0  0  0  0  0
   26.7908  -20.3379  -13.7754 N   0  0  0  0  0  0  0  0  0  0  0  0
   27.7457  -19.3677  -13.3867 C   0  0  0  0  0  0  0  0  0  0  0  0
   28.1973  -18.7182  -14.6669 C   0  0  0  0  0  0  0  0  0  0  0  0
   27.5182  -19.4813  -15.7825 C   0  0  0  0  0  0  0  0  0  0  0  0
   27.2337  -20.7998  -15.1068 C   0  0  1  0  0  0  0  0  0  0  0  0
   28.4820  -21.5737  -15.0180 C   0  0  0  0  0  0  0  0  0  0  0  0
   29.1636  -22.1387  -16.0817 O   0  0  0  0  0  0  0  0  0  0  0  0
   29.0256  -21.7684  -13.8770 O   0  0  0  0  0  0  0  0  0  0  0  0
  2  1  1  6
  2  9  1  0
  3  2  1  0
  4  3  1  0
  5  4  2  0
  6  5  1  0
  7  6  1  0
  7  8  2  0
  8  4  1  0
  9 10  2  0
 12 11  1  0
 13 12  1  0
 14 13  1  0
 15 14  1  1
 16  9  1  0
 16 15  1  0
 17 15  1  0
 18 17  2  0
 19 17  1  0
 19 23  1  0
 20 21  1  0
 20 19  1  0
 21 22  1  0
 23 22  1  0
 24 25  1  0
 23 24  1  1
 26 24  2  0
M  END
$$$$
