HMP.pdb
     RDKit          3D

 26 27  0  0  1  0  0  0  0  0999 V2000
   20.7689  -14.0551  -18.9417 N   0  0  0  0  0  0  0  0  0  0  0  0
   21.7193  -13.0801  -19.4539 C   0  0  1  0  0  0  0  0  0  0  0  0
   21.1963  -12.3160  -20.6180 C   0  0  0  0  0  0  0  0  0  0  0  0
   21.0427  -13.2603  -21.7662 C   0  0  0  0  0  0  0  0  0  0  0  0
   22.0182  -13.7298  -22.6198 C   0  0  0  0  0  0  0  0  0  0  0  0
   21.4352  -14.5664  -23.5165 N   0  0  0  0  0  0  0  0  0  0  0  0
   20.1415  -14.5909  -23.1992 C   0  0  0  0  0  0  0  0  0  0  0  0
   19.8858  -13.8064  -22.1425 N   0  0  0  0  0  0  0  0  0  0  0  0
   22.0666  -12.1771  -18.3532 C   0  0  0  0  0  0  0  0  0  0  0  0
   21.1969  -11.7658  -17.5276 O   0  0  0  0  0  0  0  0  0  0  0  0
   28.5325  -10.4949  -16.6776 C   0  0  0  0  0  0  0  0  0  0  0  0
   27.4402  -10.9040  -15.2776 S   0  0  0  0  0  0  0  0  0  0  0  0
   25.7340  -10.3108  -15.6443 C   0  0  0  0  0  0  0  0  0  0  0  0
   25.1504  -11.1889  -16.6912 C   0  0  0  0  0  0  0  0  0  0  0  0
   23.7386  -10.8693  -17.1091 C   0  0  2  0  0  0  0  0  0  0  0  0
   23.3910  -11.7370  -18.1764 N   0  0  0  0  0  0  0  0  0  0  0  0
   23.4275   -9.4822  -17.3453 C   0  0  0  0  0  0  0  0  0  0  0  0
   23.6009   -9.1241  -18.5895 O   0  0  0  0  0  0  0  0  0  0  0  0
   22.9777   -8.4447  -16.4999 N   0  0  0  0  0  0  0  0  0  0  0  0
   22.6147   -8.3591  -15.1342 C   0  0  0  0  0  0  0  0  0  0  0  0
   21.5516   -7.2959  -15.0706 C   0  0  0  0  0  0  0  0  0  0  0  0
   21.4495   -6.7256  -16.4679 C   0  0  0  0  0  0  0  0  0  0  0  0
   22.8054   -7.0762  -17.0288 C   0  0  1  0  0  0  0  0  0  0  0  0
   23.8089   -6.1557  -16.4715 C   0  0  0  0  0  0  0  0  0  0  0  0
   24.8421   -6.5018  -15.6183 O   0  0  0  0  0  0  0  0  0  0  0  0
   23.7650   -4.9138  -16.7737 O   0  0  0  0  0  0  0  0  0  0  0  0
  2  1  1  1
  2  9  1  0
  3  2  1  0
  4  3  1  0
  5  4  2  0
  6  5  1  0
  7  6  1  0
  7  8  2  0
  8  4  1  0
  9 10  2  0
 12 11  1  0
 13 12  1  0
 14 13  1  0
 15 14  1  6
 16  9  1  0
 16 15  1  0
 17 15  1  0
 18 17  2  0
 19 17  1  0
 19 23  1  0
 20 21  1  0
 20 19  1  0
 21 22  1  0
 23 22  1  0
 24 25  1  0
 23 24  1  1
 26 24  2  0
M  END
$$$$
