HMP.pdb
     RDKit          3D

 26 27  0  0  1  0  0  0  0  0999 V2000
   20.3092  -15.1941  -18.3009 N   0  0  0  0  0  0  0  0  0  0  0  0
   20.8246  -13.8862  -18.6747 C   0  0  1  0  0  0  0  0  0  0  0  0
   19.9218  -13.1491  -19.5989 C   0  0  0  0  0  0  0  0  0  0  0  0
   19.9152  -13.8613  -20.9129 C   0  0  0  0  0  0  0  0  0  0  0  0
   18.8467  -14.4423  -21.5619 C   0  0  0  0  0  0  0  0  0  0  0  0
   19.2936  -14.9764  -22.7277 N   0  0  0  0  0  0  0  0  0  0  0  0
   20.5995  -14.7164  -22.7667 C   0  0  0  0  0  0  0  0  0  0  0  0
   20.9932  -14.0423  -21.6767 N   0  0  0  0  0  0  0  0  0  0  0  0
   21.0404  -13.1243  -17.4415 C   0  0  0  0  0  0  0  0  0  0  0  0
   20.1222  -12.9745  -16.5804 O   0  0  0  0  0  0  0  0  0  0  0  0
   26.7984  -14.9547  -14.7305 C   0  0  0  0  0  0  0  0  0  0  0  0
   26.2251  -13.3327  -15.3313 S   0  0  0  0  0  0  0  0  0  0  0  0
   24.3954  -13.2243  -15.1363 C   0  0  0  0  0  0  0  0  0  0  0  0
   23.9536  -11.8902  -15.6187 C   0  0  0  0  0  0  0  0  0  0  0  0
   22.4990  -11.7722  -15.9931 C   0  0  2  0  0  0  0  0  0  0  0  0
   22.2877  -12.5322  -17.1725 N   0  0  0  0  0  0  0  0  0  0  0  0
   21.9428  -10.4436  -16.0346 C   0  0  0  0  0  0  0  0  0  0  0  0
   21.9049   -9.9426  -17.2404 O   0  0  0  0  0  0  0  0  0  0  0  0
   21.4378   -9.5857  -15.0335 N   0  0  0  0  0  0  0  0  0  0  0  0
   21.2293   -9.6976  -13.6377 C   0  0  0  0  0  0  0  0  0  0  0  0
   20.0266   -8.8418  -13.3447 C   0  0  0  0  0  0  0  0  0  0  0  0
   19.6719   -8.1624  -14.6489 C   0  0  0  0  0  0  0  0  0  0  0  0
   20.9905   -8.2209  -15.3796 C   0  0  1  0  0  0  0  0  0  0  0  0
   21.8946   -7.2028  -14.8221 C   0  0  0  0  0  0  0  0  0  0  0  0
   23.1116   -7.4464  -14.2099 O   0  0  0  0  0  0  0  0  0  0  0  0
   21.5714   -5.9671  -14.8854 O   0  0  0  0  0  0  0  0  0  0  0  0
  2  1  1  1
  2  9  1  0
  3  2  1  0
  4  3  1  0
  5  4  2  0
  6  5  1  0
  7  6  1  0
  7  8  2  0
  8  4  1  0
  9 10  2  0
 12 11  1  0
 13 12  1  0
 14 13  1  0
 15 14  1  6
 16  9  1  0
 16 15  1  0
 17 15  1  0
 18 17  2  0
 19 17  1  0
 19 23  1  0
 20 21  1  0
 20 19  1  0
 21 22  1  0
 23 22  1  0
 24 25  1  0
 23 24  1  1
 26 24  2  0
M  END
$$$$
