HMP.pdb
     RDKit          3D

 26 27  0  0  1  0  0  0  0  0999 V2000
   18.9733  -15.2207  -16.8266 N   0  0  0  0  0  0  0  0  0  0  0  0
   18.4363  -13.9082  -17.1509 C   0  0  1  0  0  0  0  0  0  0  0  0
   17.1927  -13.5883  -16.4003 C   0  0  0  0  0  0  0  0  0  0  0  0
   16.0972  -14.4650  -16.9153 C   0  0  0  0  0  0  0  0  0  0  0  0
   15.0857  -14.1382  -17.7930 C   0  0  0  0  0  0  0  0  0  0  0  0
   14.3140  -15.2389  -17.9851 N   0  0  0  0  0  0  0  0  0  0  0  0
   14.8585  -16.1967  -17.2362 C   0  0  0  0  0  0  0  0  0  0  0  0
   15.9385  -15.7463  -16.5817 N   0  0  0  0  0  0  0  0  0  0  0  0
   19.4810  -12.9191  -16.8715 C   0  0  0  0  0  0  0  0  0  0  0  0
   20.2127  -12.9948  -15.8391 O   0  0  0  0  0  0  0  0  0  0  0  0
   24.0574  -10.2268  -21.1035 C   0  0  0  0  0  0  0  0  0  0  0  0
   22.8060   -9.0177  -20.5623 S   0  0  0  0  0  0  0  0  0  0  0  0
   22.3082   -9.3933  -18.8277 C   0  0  0  0  0  0  0  0  0  0  0  0
   21.2611  -10.4468  -18.8611 C   0  0  0  0  0  0  0  0  0  0  0  0
   20.7556  -10.9177  -17.5222 C   0  0  2  0  0  0  0  0  0  0  0  0
   19.7071  -11.8456  -17.7520 N   0  0  0  0  0  0  0  0  0  0  0  0
   20.4470   -9.9014  -16.5483 C   0  0  0  0  0  0  0  0  0  0  0  0
   19.1780   -9.5936  -16.5151 O   0  0  0  0  0  0  0  0  0  0  0  0
   21.2437   -9.1793  -15.6333 N   0  0  0  0  0  0  0  0  0  0  0  0
   22.6329   -9.0906  -15.3754 C   0  0  0  0  0  0  0  0  0  0  0  0
   22.7477   -8.8243  -13.8988 C   0  0  0  0  0  0  0  0  0  0  0  0
   21.3314   -8.6522  -13.3959 C   0  0  0  0  0  0  0  0  0  0  0  0
   20.6144   -8.2594  -14.6637 C   0  0  1  0  0  0  0  0  0  0  0  0
   20.9253   -6.8557  -14.9767 C   0  0  0  0  0  0  0  0  0  0  0  0
   20.4612   -5.7489  -14.2876 O   0  0  0  0  0  0  0  0  0  0  0  0
   21.6897   -6.5823  -15.9648 O   0  0  0  0  0  0  0  0  0  0  0  0
  2  1  1  1
  2  9  1  0
  3  2  1  0
  4  3  1  0
  5  4  2  0
  6  5  1  0
  7  6  1  0
  7  8  2  0
  8  4  1  0
  9 10  2  0
 12 11  1  0
 13 12  1  0
 14 13  1  0
 15 14  1  6
 16  9  1  0
 16 15  1  0
 17 15  1  0
 18 17  2  0
 19 17  1  0
 19 23  1  0
 20 21  1  0
 20 19  1  0
 21 22  1  0
 23 22  1  0
 24 25  1  0
 23 24  1  6
 26 24  2  0
M  END
$$$$
