HMP.pdb
     RDKit          3D

 26 27  0  0  1  0  0  0  0  0999 V2000
   29.7500  -21.2304  -20.0810 N   0  0  0  0  0  0  0  0  0  0  0  0
   29.8269  -22.6779  -20.2039 C   0  0  1  0  0  0  0  0  0  0  0  0
   30.0007  -23.1325  -21.6094 C   0  0  0  0  0  0  0  0  0  0  0  0
   28.7481  -22.8169  -22.3612 C   0  0  0  0  0  0  0  0  0  0  0  0
   27.5635  -23.5218  -22.3775 C   0  0  0  0  0  0  0  0  0  0  0  0
   26.6927  -22.8758  -23.1951 N   0  0  0  0  0  0  0  0  0  0  0  0
   27.3494  -21.8109  -23.6526 C   0  0  0  0  0  0  0  0  0  0  0  0
   28.5948  -21.7591  -23.1585 N   0  0  0  0  0  0  0  0  0  0  0  0
   30.9397  -23.1366  -19.3679 C   0  0  0  0  0  0  0  0  0  0  0  0
   32.0246  -22.4861  -19.2854 O   0  0  0  0  0  0  0  0  0  0  0  0
   28.4218  -26.6147  -16.3588 C   0  0  0  0  0  0  0  0  0  0  0  0
   28.7274  -24.8529  -16.0075 S   0  0  0  0  0  0  0  0  0  0  0  0
   30.5214  -24.6037  -15.6653 C   0  0  0  0  0  0  0  0  0  0  0  0
   31.2972  -25.4615  -16.5980 C   0  0  0  0  0  0  0  0  0  0  0  0
   31.8977  -24.7643  -17.7911 C   0  0  2  0  0  0  0  0  0  0  0  0
   30.8348  -24.3243  -18.6216 N   0  0  0  0  0  0  0  0  0  0  0  0
   32.9496  -25.4584  -18.4898 C   0  0  0  0  0  0  0  0  0  0  0  0
   32.5661  -25.9426  -19.6407 O   0  0  0  0  0  0  0  0  0  0  0  0
   34.3013  -25.7158  -18.1731 N   0  0  0  0  0  0  0  0  0  0  0  0
   35.1279  -25.4612  -17.0523 C   0  0  0  0  0  0  0  0  0  0  0  0
   36.5085  -25.2547  -17.6144 C   0  0  0  0  0  0  0  0  0  0  0  0
   36.4002  -25.5348  -19.0969 C   0  0  0  0  0  0  0  0  0  0  0  0
   35.1729  -26.4110  -19.1422 C   0  0  1  0  0  0  0  0  0  0  0  0
   35.5275  -27.7597  -18.6731 C   0  0  0  0  0  0  0  0  0  0  0  0
   36.2530  -28.7008  -19.3825 O   0  0  0  0  0  0  0  0  0  0  0  0
   35.1553  -28.1434  -17.5113 O   0  0  0  0  0  0  0  0  0  0  0  0
  2  1  1  6
  2  9  1  0
  3  2  1  0
  4  3  1  0
  5  4  2  0
  6  5  1  0
  7  6  1  0
  7  8  2  0
  8  4  1  0
  9 10  2  0
 12 11  1  0
 13 12  1  0
 14 13  1  0
 15 14  1  1
 16  9  1  0
 16 15  1  0
 17 15  1  0
 18 17  2  0
 19 17  1  0
 19 23  1  0
 20 21  1  0
 20 19  1  0
 21 22  1  0
 23 22  1  0
 24 25  1  0
 23 24  1  1
 26 24  2  0
M  END
$$$$
