HMP.pdb
     RDKit          3D

 26 27  0  0  1  0  0  0  0  0999 V2000
   28.4085  -21.3183  -15.0802 N   0  0  0  0  0  0  0  0  0  0  0  0
   27.4113  -20.3931  -14.5646 C   0  0  1  0  0  0  0  0  0  0  0  0
   26.4057  -19.9954  -15.5858 C   0  0  0  0  0  0  0  0  0  0  0  0
   27.0752  -19.0993  -16.5770 C   0  0  0  0  0  0  0  0  0  0  0  0
   27.1117  -17.7213  -16.5915 C   0  0  0  0  0  0  0  0  0  0  0  0
   27.8309  -17.3240  -17.6727 N   0  0  0  0  0  0  0  0  0  0  0  0
   28.2116  -18.4444  -18.2846 C   0  0  0  0  0  0  0  0  0  0  0  0
   27.7633  -19.5286  -17.6356 N   0  0  0  0  0  0  0  0  0  0  0  0
   26.7618  -21.0334  -13.4174 C   0  0  0  0  0  0  0  0  0  0  0  0
   26.3281  -22.2232  -13.4746 O   0  0  0  0  0  0  0  0  0  0  0  0
   26.7732  -19.8962   -6.6080 C   0  0  0  0  0  0  0  0  0  0  0  0
   27.9803  -19.4491   -7.8979 S   0  0  0  0  0  0  0  0  0  0  0  0
   27.6676  -20.4675   -9.4021 C   0  0  0  0  0  0  0  0  0  0  0  0
   26.2801  -20.2035   -9.8633 C   0  0  0  0  0  0  0  0  0  0  0  0
   25.8620  -20.9016  -11.1313 C   0  0  2  0  0  0  0  0  0  0  0  0
   26.6011  -20.3399  -12.2042 N   0  0  0  0  0  0  0  0  0  0  0  0
   24.4465  -21.0114  -11.3780 C   0  0  0  0  0  0  0  0  0  0  0  0
   24.0040  -20.1188  -12.2228 O   0  0  0  0  0  0  0  0  0  0  0  0
   23.4544  -21.8874  -10.8863 N   0  0  0  0  0  0  0  0  0  0  0  0
   23.4398  -22.9547   -9.9563 C   0  0  0  0  0  0  0  0  0  0  0  0
   22.3818  -23.9022  -10.4539 C   0  0  0  0  0  0  0  0  0  0  0  0
   21.7400  -23.2217  -11.6427 C   0  0  0  0  0  0  0  0  0  0  0  0
   22.0604  -21.7745  -11.3621 C   0  0  1  0  0  0  0  0  0  0  0  0
   21.1695  -21.2821  -10.2996 C   0  0  0  0  0  0  0  0  0  0  0  0
   21.5497  -20.9505   -9.0110 O   0  0  0  0  0  0  0  0  0  0  0  0
   19.9227  -21.1293  -10.5400 O   0  0  0  0  0  0  0  0  0  0  0  0
  2  1  1  6
  2  9  1  0
  3  2  1  0
  4  3  1  0
  5  4  2  0
  6  5  1  0
  7  6  1  0
  7  8  2  0
  8  4  1  0
  9 10  2  0
 12 11  1  0
 13 12  1  0
 14 13  1  0
 15 14  1  1
 16  9  1  0
 16 15  1  0
 17 15  1  0
 18 17  2  0
 19 17  1  0
 19 23  1  0
 20 21  1  0
 20 19  1  0
 21 22  1  0
 23 22  1  0
 24 25  1  0
 23 24  1  1
 26 24  2  0
M  END
$$$$
