HMP.pdb
     RDKit          3D

 26 27  0  0  1  0  0  0  0  0999 V2000
   22.7058  -11.6327  -19.7146 N   0  0  0  0  0  0  0  0  0  0  0  0
   23.4298  -10.4818  -19.1976 C   0  0  1  0  0  0  0  0  0  0  0  0
   23.6318   -9.4175  -20.2168 C   0  0  0  0  0  0  0  0  0  0  0  0
   24.7604   -9.8296  -21.1057 C   0  0  0  0  0  0  0  0  0  0  0  0
   24.7010  -10.5471  -22.2813 C   0  0  0  0  0  0  0  0  0  0  0  0
   25.9644  -10.6939  -22.7570 N   0  0  0  0  0  0  0  0  0  0  0  0
   26.7543  -10.0757  -21.8803 C   0  0  0  0  0  0  0  0  0  0  0  0
   26.0429   -9.5467  -20.8745 N   0  0  0  0  0  0  0  0  0  0  0  0
   22.6814   -9.9654  -18.0483 C   0  0  0  0  0  0  0  0  0  0  0  0
   21.4141   -9.9370  -18.0354 O   0  0  0  0  0  0  0  0  0  0  0  0
   20.3155   -9.3439  -11.3873 C   0  0  0  0  0  0  0  0  0  0  0  0
   21.0638  -10.0564  -12.8883 S   0  0  0  0  0  0  0  0  0  0  0  0
   22.6354   -9.1695  -13.2636 C   0  0  0  0  0  0  0  0  0  0  0  0
   23.1566   -9.6735  -14.5605 C   0  0  0  0  0  0  0  0  0  0  0  0
   22.6389   -8.9804  -15.7941 C   0  0  2  0  0  0  0  0  0  0  0  0
   23.3546   -9.4829  -16.9113 N   0  0  0  0  0  0  0  0  0  0  0  0
   22.5481   -7.5432  -15.7439 C   0  0  0  0  0  0  0  0  0  0  0  0
   23.6188   -6.9472  -16.1965 O   0  0  0  0  0  0  0  0  0  0  0  0
   21.5364   -6.6628  -15.3025 N   0  0  0  0  0  0  0  0  0  0  0  0
   20.2447   -6.8279  -14.7470 C   0  0  0  0  0  0  0  0  0  0  0  0
   19.4505   -5.6430  -15.2265 C   0  0  0  0  0  0  0  0  0  0  0  0
   20.4271   -4.7631  -15.9749 C   0  0  0  0  0  0  0  0  0  0  0  0
   21.7393   -5.2013  -15.3732 C   0  0  1  0  0  0  0  0  0  0  0  0
   21.8730   -4.6130  -14.0312 C   0  0  0  0  0  0  0  0  0  0  0  0
   22.1576   -3.2879  -13.7510 O   0  0  0  0  0  0  0  0  0  0  0  0
   21.7206   -5.3519  -12.9986 O   0  0  0  0  0  0  0  0  0  0  0  0
  2  1  1  6
  2  9  1  0
  3  2  1  0
  4  3  1  0
  5  4  2  0
  6  5  1  0
  7  6  1  0
  7  8  2  0
  8  4  1  0
  9 10  2  0
 12 11  1  0
 13 12  1  0
 14 13  1  0
 15 14  1  1
 16  9  1  0
 16 15  1  0
 17 15  1  0
 18 17  2  0
 19 17  1  0
 19 23  1  0
 20 21  1  0
 20 19  1  0
 21 22  1  0
 23 22  1  0
 24 25  1  0
 23 24  1  1
 26 24  2  0
M  END
$$$$
