HMP.pdb
     RDKit          3D

 26 27  0  0  1  0  0  0  0  0999 V2000
   20.0036  -19.9372  -14.1661 N   0  0  0  0  0  0  0  0  0  0  0  0
   21.0204  -20.9592  -14.3602 C   0  0  1  0  0  0  0  0  0  0  0  0
   20.9921  -21.5546  -15.7230 C   0  0  0  0  0  0  0  0  0  0  0  0
   19.8130  -22.4690  -15.8092 C   0  0  0  0  0  0  0  0  0  0  0  0
   18.6588  -22.3042  -16.5448 C   0  0  0  0  0  0  0  0  0  0  0  0
   17.8560  -23.3776  -16.3270 N   0  0  0  0  0  0  0  0  0  0  0  0
   18.5224  -24.1608  -15.4800 C   0  0  0  0  0  0  0  0  0  0  0  0
   19.7087  -23.6268  -15.1558 N   0  0  0  0  0  0  0  0  0  0  0  0
   22.3237  -20.3471  -14.0876 C   0  0  0  0  0  0  0  0  0  0  0  0
   22.6343  -19.2066  -14.5458 O   0  0  0  0  0  0  0  0  0  0  0  0
   26.3793  -19.8315   -8.5678 C   0  0  0  0  0  0  0  0  0  0  0  0
   25.1858  -21.1078   -9.0850 S   0  0  0  0  0  0  0  0  0  0  0  0
   24.3036  -20.5369  -10.5994 C   0  0  0  0  0  0  0  0  0  0  0  0
   25.0976  -20.9509  -11.7851 C   0  0  0  0  0  0  0  0  0  0  0  0
   24.5823  -20.4820  -13.1210 C   0  0  2  0  0  0  0  0  0  0  0  0
   23.2786  -21.0132  -13.2981 N   0  0  0  0  0  0  0  0  0  0  0  0
   25.4549  -20.6583  -14.2540 C   0  0  0  0  0  0  0  0  0  0  0  0
   24.9941  -21.5150  -15.1258 O   0  0  0  0  0  0  0  0  0  0  0  0
   26.7008  -20.0913  -14.6000 N   0  0  0  0  0  0  0  0  0  0  0  0
   27.6708  -19.3224  -13.9128 C   0  0  0  0  0  0  0  0  0  0  0  0
   28.2881  -18.4334  -14.9583 C   0  0  0  0  0  0  0  0  0  0  0  0
   27.6778  -18.8557  -16.2764 C   0  0  0  0  0  0  0  0  0  0  0  0
   27.2451  -20.2663  -15.9621 C   0  0  1  0  0  0  0  0  0  0  0  0
   28.4274  -21.1423  -15.9586 C   0  0  0  0  0  0  0  0  0  0  0  0
   28.9225  -21.8323  -14.8660 O   0  0  0  0  0  0  0  0  0  0  0  0
   29.0903  -21.3142  -17.0386 O   0  0  0  0  0  0  0  0  0  0  0  0
  2  1  1  6
  2  9  1  0
  3  2  1  0
  4  3  1  0
  5  4  2  0
  6  5  1  0
  7  6  1  0
  7  8  2  0
  8  4  1  0
  9 10  2  0
 12 11  1  0
 13 12  1  0
 14 13  1  0
 15 14  1  1
 16  9  1  0
 16 15  1  0
 17 15  1  0
 18 17  2  0
 19 17  1  0
 19 23  1  0
 20 21  1  0
 20 19  1  0
 21 22  1  0
 23 22  1  0
 24 25  1  0
 23 24  1  1
 26 24  2  0
M  END
$$$$
