HMP.pdb
     RDKit          3D

 26 27  0  0  1  0  0  0  0  0999 V2000
   25.9353  -19.5622  -12.1814 N   0  0  0  0  0  0  0  0  0  0  0  0
   25.4982  -20.0036  -10.8661 C   0  0  1  0  0  0  0  0  0  0  0  0
   24.8919  -21.3617  -10.8814 C   0  0  0  0  0  0  0  0  0  0  0  0
   23.5371  -21.2618  -11.5047 C   0  0  0  0  0  0  0  0  0  0  0  0
   22.3416  -20.9408  -10.8980 C   0  0  0  0  0  0  0  0  0  0  0  0
   21.3635  -20.9674  -11.8396 N   0  0  0  0  0  0  0  0  0  0  0  0
   21.9688  -21.2974  -12.9796 C   0  0  0  0  0  0  0  0  0  0  0  0
   23.2843  -21.4794  -12.7958 N   0  0  0  0  0  0  0  0  0  0  0  0
   26.6608  -19.9636   -9.9747 C   0  0  0  0  0  0  0  0  0  0  0  0
   27.8192  -20.2890  -10.3738 O   0  0  0  0  0  0  0  0  0  0  0  0
   28.6247  -18.2573   -2.7467 C   0  0  0  0  0  0  0  0  0  0  0  0
   27.5080  -17.8194   -4.1185 S   0  0  0  0  0  0  0  0  0  0  0  0
   28.3660  -18.1233   -5.7214 C   0  0  0  0  0  0  0  0  0  0  0  0
   27.3344  -18.3501   -6.7664 C   0  0  0  0  0  0  0  0  0  0  0  0
   27.6595  -19.3988   -7.7982 C   0  0  2  0  0  0  0  0  0  0  0  0
   26.5248  -19.5556   -8.6353 N   0  0  0  0  0  0  0  0  0  0  0  0
   28.2175  -20.6365   -7.3155 C   0  0  0  0  0  0  0  0  0  0  0  0
   27.3796  -21.6362   -7.3838 O   0  0  0  0  0  0  0  0  0  0  0  0
   29.4820  -20.9742   -6.7860 N   0  0  0  0  0  0  0  0  0  0  0  0
   30.6803  -20.2625   -6.5371 C   0  0  0  0  0  0  0  0  0  0  0  0
   31.7862  -21.2649   -6.7295 C   0  0  0  0  0  0  0  0  0  0  0  0
   31.1054  -22.5927   -6.9775 C   0  0  0  0  0  0  0  0  0  0  0  0
   29.7577  -22.3560   -6.3421 C   0  0  1  0  0  0  0  0  0  0  0  0
   29.8959  -22.4318   -4.8792 C   0  0  0  0  0  0  0  0  0  0  0  0
   30.1499  -23.5782   -4.1467 O   0  0  0  0  0  0  0  0  0  0  0  0
   29.7800  -21.3693   -4.1771 O   0  0  0  0  0  0  0  0  0  0  0  0
  2  1  1  6
  2  9  1  0
  3  2  1  0
  4  3  1  0
  5  4  2  0
  6  5  1  0
  7  6  1  0
  7  8  2  0
  8  4  1  0
  9 10  2  0
 12 11  1  0
 13 12  1  0
 14 13  1  0
 15 14  1  1
 16  9  1  0
 16 15  1  0
 17 15  1  0
 18 17  2  0
 19 17  1  0
 19 23  1  0
 20 21  1  0
 20 19  1  0
 21 22  1  0
 23 22  1  0
 24 25  1  0
 23 24  1  1
 26 24  2  0
M  END
$$$$
