HMP.pdb
     RDKit          3D

 26 27  0  0  1  0  0  0  0  0999 V2000
   27.0338  -21.8073  -14.3553 N   0  0  0  0  0  0  0  0  0  0  0  0
   26.6767  -20.6546  -13.5432 C   0  0  1  0  0  0  0  0  0  0  0  0
   25.8085  -19.6844  -14.2624 C   0  0  0  0  0  0  0  0  0  0  0  0
   26.6160  -19.0502  -15.3485 C   0  0  0  0  0  0  0  0  0  0  0  0
   27.3634  -17.8933  -15.2900 C   0  0  0  0  0  0  0  0  0  0  0  0
   27.9318  -17.6895  -16.5062 N   0  0  0  0  0  0  0  0  0  0  0  0
   27.5286  -18.7053  -17.2680 C   0  0  0  0  0  0  0  0  0  0  0  0
   26.7316  -19.5387  -16.5840 N   0  0  0  0  0  0  0  0  0  0  0  0
   26.0117  -21.1507  -12.3351 C   0  0  0  0  0  0  0  0  0  0  0  0
   25.4048  -22.2636  -12.3167 O   0  0  0  0  0  0  0  0  0  0  0  0
   26.6237  -18.5468   -6.4729 C   0  0  0  0  0  0  0  0  0  0  0  0
   27.5472  -20.1113   -6.6143 S   0  0  0  0  0  0  0  0  0  0  0  0
   26.9820  -21.0171   -8.1169 C   0  0  0  0  0  0  0  0  0  0  0  0
   25.9397  -20.1992   -8.7893 C   0  0  0  0  0  0  0  0  0  0  0  0
   25.2978  -20.8171  -10.0043 C   0  0  2  0  0  0  0  0  0  0  0  0
   26.0296  -20.3996  -11.1459 N   0  0  0  0  0  0  0  0  0  0  0  0
   23.8693  -20.6752  -10.1295 C   0  0  0  0  0  0  0  0  0  0  0  0
   23.5201  -19.7729  -11.0070 O   0  0  0  0  0  0  0  0  0  0  0  0
   22.7843  -21.3152   -9.4918 N   0  0  0  0  0  0  0  0  0  0  0  0
   22.6568  -22.2161   -8.4071 C   0  0  0  0  0  0  0  0  0  0  0  0
   21.4590  -23.0664   -8.7344 C   0  0  0  0  0  0  0  0  0  0  0  0
   20.8733  -22.4889  -10.0039 C   0  0  0  0  0  0  0  0  0  0  0  0
   21.4025  -21.0769   -9.9566 C   0  0  1  0  0  0  0  0  0  0  0  0
   20.6300  -20.3067   -8.9692 C   0  0  0  0  0  0  0  0  0  0  0  0
   19.3413  -19.8316   -9.1392 O   0  0  0  0  0  0  0  0  0  0  0  0
   21.1527  -20.0265   -7.8363 O   0  0  0  0  0  0  0  0  0  0  0  0
  2  1  1  6
  2  9  1  0
  3  2  1  0
  4  3  1  0
  5  4  2  0
  6  5  1  0
  7  6  1  0
  7  8  2  0
  8  4  1  0
  9 10  2  0
 12 11  1  0
 13 12  1  0
 14 13  1  0
 15 14  1  1
 16  9  1  0
 16 15  1  0
 17 15  1  0
 18 17  2  0
 19 17  1  0
 19 23  1  0
 20 21  1  0
 20 19  1  0
 21 22  1  0
 23 22  1  0
 24 25  1  0
 23 24  1  1
 26 24  2  0
M  END
$$$$
