AEQ.pdb
     RDKit          3D

 24 23  0  0  1  0  0  0  0  0999 V2000
    6.8135  -13.2831   19.3174 C   0  0  0  0  0  0  0  0  0  0  0  0
    8.2714  -13.2805   19.6659 C   0  0  2  0  0  0  0  0  0  0  0  0
    9.0960  -13.3828   18.4823 N   0  0  0  0  0  0  0  0  0  0  0  0
    8.5503  -14.4242   20.5950 C   0  0  0  0  0  0  0  0  0  0  0  0
    7.9616  -14.4952   21.7029 O   0  0  0  0  0  0  0  0  0  0  0  0
    9.4737  -15.4403   20.2497 N   0  0  0  0  0  0  0  0  0  0  0  0
    9.7516  -16.5353   21.1719 C   0  0  1  0  0  0  0  0  0  0  0  0
   10.7067  -17.4866   20.4861 C   0  0  0  0  0  0  0  0  0  0  0  0
   10.9049  -18.7489   21.2861 C   0  0  0  0  0  0  0  0  0  0  0  0
   11.8171  -19.6656   20.5672 C   0  0  0  0  0  0  0  0  0  0  0  0
   13.0507  -19.5694   20.7346 O   0  0  0  0  0  0  0  0  0  0  0  0
   10.4525  -15.9914   22.3801 C   0  0  0  0  0  0  0  0  0  0  0  0
   10.9479  -14.8356   22.3876 O   0  0  0  0  0  0  0  0  0  0  0  0
   11.3147  -20.6186   19.7195 O   0  0  0  0  0  0  0  0  0  0  0  0
    6.0835  -14.4671   24.4354 N   0  0  0  0  0  0  0  0  0  0  0  0
    7.1195  -13.8388   25.1588 C   0  0  0  0  0  0  0  0  0  0  0  0
    6.9025  -12.6991   25.6952 O   0  0  0  0  0  0  0  0  0  0  0  0
    8.4643  -14.4179   25.3508 C   0  0  0  0  0  0  0  0  0  0  0  0
    8.7034  -15.7320   24.6974 C   0  0  0  0  0  0  0  0  0  0  0  0
   10.0625  -16.3361   24.8674 C   0  0  2  0  0  0  0  0  0  0  0  0
   10.5886  -16.7534   23.5669 N   0  0  0  0  0  0  0  0  0  0  0  0
   10.2973  -17.2917   25.9240 C   0  0  0  0  0  0  0  0  0  0  0  0
   11.4999  -17.3310   26.6743 O   0  0  0  0  0  0  0  0  0  0  0  0
    9.4813  -18.1770   26.2899 O   0  0  0  0  0  0  0  0  0  0  0  0
  2  1  1  6
  2  3  1  0
  4  5  2  0
  4  2  1  0
  6  4  1  0
  7  6  1  0
  7  8  1  6
  9  8  1  0
  9 10  1  0
 10 11  2  0
 10 14  1  0
 12  7  1  0
 12 21  1  0
 13 12  2  0
 16 17  2  0
 16 15  1  0
 18 16  1  0
 20 19  1  6
 19 18  1  0
 20 21  1  0
 20 22  1  0
 22 23  1  0
 24 22  2  0
M  END
$$$$
