AEQ.pdb
     RDKit          3D

 24 23  0  0  1  0  0  0  0  0999 V2000
    7.4379  -12.5497   19.5303 C   0  0  0  0  0  0  0  0  0  0  0  0
    8.2361  -13.3127   18.5166 C   0  0  2  0  0  0  0  0  0  0  0  0
    7.3777  -13.9649   17.5528 N   0  0  0  0  0  0  0  0  0  0  0  0
    9.0833  -14.3251   19.2280 C   0  0  0  0  0  0  0  0  0  0  0  0
    8.6470  -15.4870   19.4243 O   0  0  0  0  0  0  0  0  0  0  0  0
   10.3811  -13.9993   19.6907 N   0  0  0  0  0  0  0  0  0  0  0  0
   11.2340  -15.0201   20.2885 C   0  0  1  0  0  0  0  0  0  0  0  0
   12.6582  -14.5126   20.2518 C   0  0  0  0  0  0  0  0  0  0  0  0
   13.6304  -15.5458   20.7618 C   0  0  0  0  0  0  0  0  0  0  0  0
   15.0148  -15.0352   20.6531 C   0  0  0  0  0  0  0  0  0  0  0  0
   15.3706  -14.0575   21.3437 O   0  0  0  0  0  0  0  0  0  0  0  0
   10.8568  -15.1905   21.7291 C   0  0  0  0  0  0  0  0  0  0  0  0
   10.5337  -14.2079   22.4444 O   0  0  0  0  0  0  0  0  0  0  0  0
   15.9072  -15.6295   19.7990 O   0  0  0  0  0  0  0  0  0  0  0  0
    5.8887  -18.0000   24.7402 N   0  0  0  0  0  0  0  0  0  0  0  0
    7.1733  -18.5678   24.8768 C   0  0  0  0  0  0  0  0  0  0  0  0
    7.2897  -19.8395   24.9330 O   0  0  0  0  0  0  0  0  0  0  0  0
    8.4215  -17.7826   24.9551 C   0  0  0  0  0  0  0  0  0  0  0  0
    9.1147  -17.5369   23.6628 C   0  0  0  0  0  0  0  0  0  0  0  0
   10.3580  -16.7043   23.7083 C   0  0  2  0  0  0  0  0  0  0  0  0
   10.8469  -16.4642   22.3497 N   0  0  0  0  0  0  0  0  0  0  0  0
   11.4013  -17.0214   24.6547 C   0  0  0  0  0  0  0  0  0  0  0  0
   11.4326  -16.4969   25.9717 O   0  0  0  0  0  0  0  0  0  0  0  0
   12.3779  -17.7806   24.4237 O   0  0  0  0  0  0  0  0  0  0  0  0
  2  1  1  1
  2  3  1  0
  4  5  2  0
  4  2  1  0
  6  4  1  0
  7  6  1  0
  7  8  1  1
  9  8  1  0
  9 10  1  0
 10 11  2  0
 10 14  1  0
 12  7  1  0
 12 21  1  0
 13 12  2  0
 16 17  2  0
 16 15  1  0
 18 16  1  0
 20 19  1  6
 19 18  1  0
 20 21  1  0
 20 22  1  0
 22 23  1  0
 24 22  2  0
M  END
$$$$
