AEQ.pdb
     RDKit          3D

 24 23  0  0  1  0  0  0  0  0999 V2000
   17.7967  -13.9677   17.3608 C   0  0  0  0  0  0  0  0  0  0  0  0
   16.5442  -14.5636   16.7922 C   0  0  2  0  0  0  0  0  0  0  0  0
   16.4259  -14.2896   15.3772 N   0  0  0  0  0  0  0  0  0  0  0  0
   15.3635  -14.0073   17.5306 C   0  0  0  0  0  0  0  0  0  0  0  0
   15.2698  -12.7702   17.7302 O   0  0  0  0  0  0  0  0  0  0  0  0
   14.3371  -14.8535   18.0152 N   0  0  0  0  0  0  0  0  0  0  0  0
   13.1393  -14.2914   18.6284 C   0  0  1  0  0  0  0  0  0  0  0  0
   11.9617  -14.6358   17.7440 C   0  0  0  0  0  0  0  0  0  0  0  0
   12.2308  -15.8642   16.9125 C   0  0  0  0  0  0  0  0  0  0  0  0
   11.0355  -16.2031   16.1090 C   0  0  0  0  0  0  0  0  0  0  0  0
    9.9440  -16.4101   16.6791 O   0  0  0  0  0  0  0  0  0  0  0  0
   12.9118  -14.9529   19.9540 C   0  0  0  0  0  0  0  0  0  0  0  0
   12.3302  -16.0644   20.0424 O   0  0  0  0  0  0  0  0  0  0  0  0
   11.1208  -16.2906   14.7436 O   0  0  0  0  0  0  0  0  0  0  0  0
   12.2468  -16.4990   25.2205 N   0  0  0  0  0  0  0  0  0  0  0  0
   11.3380  -16.3424   24.1523 C   0  0  0  0  0  0  0  0  0  0  0  0
   10.0938  -16.2009   24.4085 O   0  0  0  0  0  0  0  0  0  0  0  0
   11.7293  -16.3235   22.7285 C   0  0  0  0  0  0  0  0  0  0  0  0
   13.1890  -16.4034   22.4564 C   0  0  0  0  0  0  0  0  0  0  0  0
   13.9178  -15.1074   22.2824 C   0  0  2  0  0  0  0  0  0  0  0  0
   13.3408  -14.3573   21.1658 N   0  0  0  0  0  0  0  0  0  0  0  0
   15.3611  -15.0844   22.3149 C   0  0  0  0  0  0  0  0  0  0  0  0
   16.1099  -15.3506   23.4892 O   0  0  0  0  0  0  0  0  0  0  0  0
   16.1006  -14.8314   21.3286 O   0  0  0  0  0  0  0  0  0  0  0  0
  2  1  1  1
  2  3  1  0
  4  5  2  0
  4  2  1  0
  6  4  1  0
  7  6  1  0
  7  8  1  6
  9  8  1  0
  9 10  1  0
 10 11  2  0
 10 14  1  0
 12  7  1  0
 12 21  1  0
 13 12  2  0
 16 17  2  0
 16 15  1  0
 18 16  1  0
 20 19  1  6
 19 18  1  0
 20 21  1  0
 20 22  1  0
 22 23  1  0
 24 22  2  0
M  END
$$$$
