AEQ.pdb
     RDKit          3D

 24 23  0  0  1  0  0  0  0  0999 V2000
    6.8856  -13.4733   19.1507 C   0  0  0  0  0  0  0  0  0  0  0  0
    8.2516  -13.4490   19.7674 C   0  0  2  0  0  0  0  0  0  0  0  0
    9.2792  -13.6989   18.7811 N   0  0  0  0  0  0  0  0  0  0  0  0
    8.3117  -14.4803   20.8544 C   0  0  0  0  0  0  0  0  0  0  0  0
    7.4405  -14.4942   21.7599 O   0  0  0  0  0  0  0  0  0  0  0  0
    9.3404  -15.4525   20.8861 N   0  0  0  0  0  0  0  0  0  0  0  0
    9.3561  -16.4832   21.9176 C   0  0  1  0  0  0  0  0  0  0  0  0
   10.4712  -17.4505   21.5881 C   0  0  0  0  0  0  0  0  0  0  0  0
   10.0552  -18.4394   20.5289 C   0  0  0  0  0  0  0  0  0  0  0  0
   11.2026  -19.2970   20.1588 C   0  0  0  0  0  0  0  0  0  0  0  0
   11.1057  -20.5380   20.2574 O   0  0  0  0  0  0  0  0  0  0  0  0
    9.6870  -15.8512   23.2358 C   0  0  0  0  0  0  0  0  0  0  0  0
   10.6496  -15.0512   23.3577 O   0  0  0  0  0  0  0  0  0  0  0  0
   12.3697  -18.7362   19.7087 O   0  0  0  0  0  0  0  0  0  0  0  0
    5.6838  -12.3464   25.6463 N   0  0  0  0  0  0  0  0  0  0  0  0
    6.6816  -12.3538   26.6441 C   0  0  0  0  0  0  0  0  0  0  0  0
    6.6492  -11.4671   27.5642 O   0  0  0  0  0  0  0  0  0  0  0  0
    7.7816  -13.3369   26.7078 C   0  0  0  0  0  0  0  0  0  0  0  0
    7.8400  -14.3172   25.5912 C   0  0  0  0  0  0  0  0  0  0  0  0
    8.9695  -15.2995   25.6103 C   0  0  2  0  0  0  0  0  0  0  0  0
    8.9318  -16.1258   24.4027 N   0  0  0  0  0  0  0  0  0  0  0  0
    9.2561  -16.0422   26.8148 C   0  0  0  0  0  0  0  0  0  0  0  0
    9.7439  -15.4326   27.9984 O   0  0  0  0  0  0  0  0  0  0  0  0
    9.1092  -17.2849   26.9478 O   0  0  0  0  0  0  0  0  0  0  0  0
  2  1  1  6
  2  3  1  0
  4  5  2  0
  4  2  1  0
  6  4  1  0
  7  6  1  0
  7  8  1  6
  9  8  1  0
  9 10  1  0
 10 11  2  0
 10 14  1  0
 12  7  1  0
 12 21  1  0
 13 12  2  0
 16 17  2  0
 16 15  1  0
 18 16  1  0
 20 19  1  1
 19 18  1  0
 20 21  1  0
 20 22  1  0
 22 23  1  0
 24 22  2  0
M  END
$$$$
