AEQ.pdb
     RDKit          3D

 24 23  0  0  1  0  0  0  0  0999 V2000
    7.6974  -12.1618   20.5574 C   0  0  0  0  0  0  0  0  0  0  0  0
    7.8866  -13.4822   19.8735 C   0  0  2  0  0  0  0  0  0  0  0  0
    6.7500  -13.8127   19.0428 N   0  0  0  0  0  0  0  0  0  0  0  0
    8.0966  -14.5418   20.9137 C   0  0  0  0  0  0  0  0  0  0  0  0
    7.1111  -15.0489   21.5058 O   0  0  0  0  0  0  0  0  0  0  0  0
    9.3964  -14.9914   21.2498 N   0  0  0  0  0  0  0  0  0  0  0  0
    9.5827  -16.0697   22.2137 C   0  0  1  0  0  0  0  0  0  0  0  0
   10.8315  -16.8284   21.8235 C   0  0  0  0  0  0  0  0  0  0  0  0
   11.0806  -17.9991   22.7402 C   0  0  0  0  0  0  0  0  0  0  0  0
   12.3039  -18.7183   22.3213 C   0  0  0  0  0  0  0  0  0  0  0  0
   13.3067  -18.7206   23.0655 O   0  0  0  0  0  0  0  0  0  0  0  0
    9.8240  -15.4778   23.5694 C   0  0  0  0  0  0  0  0  0  0  0  0
   10.2643  -14.3078   23.7067 O   0  0  0  0  0  0  0  0  0  0  0  0
   12.3413  -19.3812   21.1220 O   0  0  0  0  0  0  0  0  0  0  0  0
    7.1778  -11.9654   26.5230 N   0  0  0  0  0  0  0  0  0  0  0  0
    6.5859  -13.2465   26.5289 C   0  0  0  0  0  0  0  0  0  0  0  0
    5.3215  -13.3479   26.6862 O   0  0  0  0  0  0  0  0  0  0  0  0
    7.3369  -14.5062   26.3568 C   0  0  0  0  0  0  0  0  0  0  0  0
    8.7990  -14.3629   26.1272 C   0  0  0  0  0  0  0  0  0  0  0  0
    9.6070  -15.6228   26.0972 C   0  0  2  0  0  0  0  0  0  0  0  0
    9.5677  -16.2081   24.7562 N   0  0  0  0  0  0  0  0  0  0  0  0
    9.4685  -16.5911   27.1591 C   0  0  0  0  0  0  0  0  0  0  0  0
    9.7932  -16.3057   28.5096 O   0  0  0  0  0  0  0  0  0  0  0  0
    9.0541  -17.7700   27.0104 O   0  0  0  0  0  0  0  0  0  0  0  0
  2  1  1  1
  2  3  1  0
  4  5  2  0
  4  2  1  0
  6  4  1  0
  7  6  1  0
  7  8  1  6
  9  8  1  0
  9 10  1  0
 10 11  2  0
 10 14  1  0
 12  7  1  0
 12 21  1  0
 13 12  2  0
 16 17  2  0
 16 15  1  0
 18 16  1  0
 20 19  1  6
 19 18  1  0
 20 21  1  0
 20 22  1  0
 22 23  1  0
 24 22  2  0
M  END
$$$$
