AEQ.pdb
     RDKit          3D

 24 23  0  0  1  0  0  0  0  0999 V2000
    7.8825  -12.2637   19.6224 C   0  0  0  0  0  0  0  0  0  0  0  0
    8.2344  -13.2386   18.5396 C   0  0  2  0  0  0  0  0  0  0  0  0
    7.0724  -13.9780   18.0987 N   0  0  0  0  0  0  0  0  0  0  0  0
    9.2842  -14.1776   19.0544 C   0  0  0  0  0  0  0  0  0  0  0  0
    8.9601  -15.3151   19.4788 O   0  0  0  0  0  0  0  0  0  0  0  0
   10.6510  -13.8088   19.0743 N   0  0  0  0  0  0  0  0  0  0  0  0
   11.6814  -14.7947   19.3792 C   0  0  1  0  0  0  0  0  0  0  0  0
   12.9613  -14.3489   18.7079 C   0  0  0  0  0  0  0  0  0  0  0  0
   14.0515  -15.3807   18.8478 C   0  0  0  0  0  0  0  0  0  0  0  0
   15.2605  -14.9417   18.1164 C   0  0  0  0  0  0  0  0  0  0  0  0
   16.3218  -14.7356   18.7412 O   0  0  0  0  0  0  0  0  0  0  0  0
   11.9303  -14.8012   20.8573 C   0  0  0  0  0  0  0  0  0  0  0  0
   11.9030  -13.7408   21.5329 O   0  0  0  0  0  0  0  0  0  0  0  0
   15.2208  -14.7606   16.7582 O   0  0  0  0  0  0  0  0  0  0  0  0
    9.7788  -15.5035   25.9711 N   0  0  0  0  0  0  0  0  0  0  0  0
    8.9641  -15.5253   24.8191 C   0  0  0  0  0  0  0  0  0  0  0  0
    8.0303  -14.6606   24.6998 O   0  0  0  0  0  0  0  0  0  0  0  0
    9.1189  -16.4922   23.7138 C   0  0  0  0  0  0  0  0  0  0  0  0
   10.0240  -16.0753   22.6101 C   0  0  0  0  0  0  0  0  0  0  0  0
   11.4701  -16.4377   22.7461 C   0  0  2  0  0  0  0  0  0  0  0  0
   12.2072  -16.0001   21.5597 N   0  0  0  0  0  0  0  0  0  0  0  0
   11.8409  -17.7541   23.2089 C   0  0  0  0  0  0  0  0  0  0  0  0
   12.1473  -18.8226   22.3285 O   0  0  0  0  0  0  0  0  0  0  0  0
   11.9318  -18.0946   24.4169 O   0  0  0  0  0  0  0  0  0  0  0  0
  2  1  1  1
  2  3  1  0
  4  5  2  0
  4  2  1  0
  6  4  1  0
  7  6  1  0
  7  8  1  6
  9  8  1  0
  9 10  1  0
 10 11  2  0
 10 14  1  0
 12  7  1  0
 12 21  1  0
 13 12  2  0
 16 17  2  0
 16 15  1  0
 18 16  1  0
 20 19  1  6
 19 18  1  0
 20 21  1  0
 20 22  1  0
 22 23  1  0
 24 22  2  0
M  END
$$$$
