AEQ.pdb
     RDKit          3D

 24 23  0  0  1  0  0  0  0  0999 V2000
    8.2118  -12.1508   19.9624 C   0  0  0  0  0  0  0  0  0  0  0  0
    8.0594  -13.5082   19.3451 C   0  0  2  0  0  0  0  0  0  0  0  0
    6.8230  -13.6133   18.6026 N   0  0  0  0  0  0  0  0  0  0  0  0
    8.1045  -14.5425   20.4301 C   0  0  0  0  0  0  0  0  0  0  0  0
    7.0735  -14.7979   21.1016 O   0  0  0  0  0  0  0  0  0  0  0  0
    9.2969  -15.2484   20.7205 N   0  0  0  0  0  0  0  0  0  0  0  0
    9.3327  -16.2351   21.7937 C   0  0  1  0  0  0  0  0  0  0  0  0
   10.4641  -17.1954   21.5017 C   0  0  0  0  0  0  0  0  0  0  0  0
   10.5237  -18.3098   22.5153 C   0  0  0  0  0  0  0  0  0  0  0  0
   11.6290  -19.2362   22.1844 C   0  0  0  0  0  0  0  0  0  0  0  0
   12.8057  -18.9186   22.4557 O   0  0  0  0  0  0  0  0  0  0  0  0
    9.6547  -15.5434   23.0838 C   0  0  0  0  0  0  0  0  0  0  0  0
   10.0167  -14.3393   23.1112 O   0  0  0  0  0  0  0  0  0  0  0  0
   11.3673  -20.4396   21.5824 O   0  0  0  0  0  0  0  0  0  0  0  0
    6.1252  -12.4835   25.1253 N   0  0  0  0  0  0  0  0  0  0  0  0
    6.8036  -12.6630   26.3496 C   0  0  0  0  0  0  0  0  0  0  0  0
    6.5245  -11.8976   27.3346 O   0  0  0  0  0  0  0  0  0  0  0  0
    7.8311  -13.6975   26.5828 C   0  0  0  0  0  0  0  0  0  0  0  0
    8.2018  -14.5208   25.4013 C   0  0  0  0  0  0  0  0  0  0  0  0
    9.2802  -15.5404   25.5972 C   0  0  2  0  0  0  0  0  0  0  0  0
    9.5662  -16.2132   24.3292 N   0  0  0  0  0  0  0  0  0  0  0  0
    9.2282  -16.4330   26.7308 C   0  0  0  0  0  0  0  0  0  0  0  0
    9.8577  -16.1448   27.9682 O   0  0  0  0  0  0  0  0  0  0  0  0
    8.6329  -17.5416   26.7489 O   0  0  0  0  0  0  0  0  0  0  0  0
  2  1  1  1
  2  3  1  0
  4  5  2  0
  4  2  1  0
  6  4  1  0
  7  6  1  0
  7  8  1  6
  9  8  1  0
  9 10  1  0
 10 11  2  0
 10 14  1  0
 12  7  1  0
 12 21  1  0
 13 12  2  0
 16 17  2  0
 16 15  1  0
 18 16  1  0
 20 19  1  6
 19 18  1  0
 20 21  1  0
 20 22  1  0
 22 23  1  0
 24 22  2  0
M  END
$$$$
