AEQ.pdb
     RDKit          3D

 24 23  0  0  1  0  0  0  0  0999 V2000
    9.5471  -16.5221   19.5339 C   0  0  0  0  0  0  0  0  0  0  0  0
   10.2824  -17.3403   18.5156 C   0  0  2  0  0  0  0  0  0  0  0  0
    9.5867  -18.5756   18.2305 N   0  0  0  0  0  0  0  0  0  0  0  0
   11.6625  -17.6266   19.0279 C   0  0  0  0  0  0  0  0  0  0  0  0
   11.8290  -18.4366   19.9741 O   0  0  0  0  0  0  0  0  0  0  0  0
   12.7986  -16.9978   18.4637 N   0  0  0  0  0  0  0  0  0  0  0  0
   14.1343  -17.2795   18.9768 C   0  0  1  0  0  0  0  0  0  0  0  0
   15.1323  -16.8791   17.9132 C   0  0  0  0  0  0  0  0  0  0  0  0
   16.5435  -17.2237   18.3166 C   0  0  0  0  0  0  0  0  0  0  0  0
   17.4849  -16.8406   17.2413 C   0  0  0  0  0  0  0  0  0  0  0  0
   17.7508  -17.6540   16.3318 O   0  0  0  0  0  0  0  0  0  0  0  0
   14.3892  -16.4180   20.1765 C   0  0  0  0  0  0  0  0  0  0  0  0
   13.9166  -15.2559   20.2634 O   0  0  0  0  0  0  0  0  0  0  0  0
   18.0657  -15.5989   17.2389 O   0  0  0  0  0  0  0  0  0  0  0  0
   10.9965  -17.2190   24.1388 N   0  0  0  0  0  0  0  0  0  0  0  0
   11.8995  -16.4354   24.8885 C   0  0  0  0  0  0  0  0  0  0  0  0
   11.5945  -16.1073   26.0857 O   0  0  0  0  0  0  0  0  0  0  0  0
   13.2029  -15.9615   24.3816 C   0  0  0  0  0  0  0  0  0  0  0  0
   13.5504  -16.3787   22.9973 C   0  0  0  0  0  0  0  0  0  0  0  0
   15.0045  -16.4042   22.6421 C   0  0  2  0  0  0  0  0  0  0  0  0
   15.1730  -16.8728   21.2657 N   0  0  0  0  0  0  0  0  0  0  0  0
   15.9610  -16.9627   23.5682 C   0  0  0  0  0  0  0  0  0  0  0  0
   16.6421  -18.1834   23.3302 O   0  0  0  0  0  0  0  0  0  0  0  0
   16.2908  -16.4422   24.6655 O   0  0  0  0  0  0  0  0  0  0  0  0
  2  1  1  1
  2  3  1  0
  4  5  2  0
  4  2  1  0
  6  4  1  0
  7  6  1  0
  7  8  1  6
  9  8  1  0
  9 10  1  0
 10 11  2  0
 10 14  1  0
 12  7  1  0
 12 21  1  0
 13 12  2  0
 16 17  2  0
 16 15  1  0
 18 16  1  0
 20 19  1  1
 19 18  1  0
 20 21  1  0
 20 22  1  0
 22 23  1  0
 24 22  2  0
M  END
$$$$
