AEQ.pdb
     RDKit          3D

 24 23  0  0  1  0  0  0  0  0999 V2000
    7.3644  -15.4611   21.2199 C   0  0  0  0  0  0  0  0  0  0  0  0
    8.0798  -16.4982   20.4077 C   0  0  2  0  0  0  0  0  0  0  0  0
    7.1596  -17.4813   19.8805 N   0  0  0  0  0  0  0  0  0  0  0  0
    9.1128  -17.1616   21.2690 C   0  0  0  0  0  0  0  0  0  0  0  0
    8.7746  -18.0550   22.0853 O   0  0  0  0  0  0  0  0  0  0  0  0
   10.4792  -16.8008   21.1839 N   0  0  0  0  0  0  0  0  0  0  0  0
   11.4684  -17.4302   22.0511 C   0  0  1  0  0  0  0  0  0  0  0  0
   12.8398  -17.0201   21.5624 C   0  0  0  0  0  0  0  0  0  0  0  0
   13.0543  -15.5333   21.6899 C   0  0  0  0  0  0  0  0  0  0  0  0
   14.4177  -15.1781   21.2380 C   0  0  0  0  0  0  0  0  0  0  0  0
   14.6952  -15.2111   20.0210 O   0  0  0  0  0  0  0  0  0  0  0  0
   11.3107  -16.8949   23.4422 C   0  0  0  0  0  0  0  0  0  0  0  0
   10.7822  -15.7746   23.6592 O   0  0  0  0  0  0  0  0  0  0  0  0
   15.3760  -14.8136   22.1479 O   0  0  0  0  0  0  0  0  0  0  0  0
    6.6816  -19.9685   26.6269 N   0  0  0  0  0  0  0  0  0  0  0  0
    7.2872  -18.7202   26.3691 C   0  0  0  0  0  0  0  0  0  0  0  0
    6.5939  -17.7903   25.8321 O   0  0  0  0  0  0  0  0  0  0  0  0
    8.6934  -18.4008   26.6874 C   0  0  0  0  0  0  0  0  0  0  0  0
    9.5743  -18.1220   25.5224 C   0  0  0  0  0  0  0  0  0  0  0  0
   10.9882  -17.7307   25.8202 C   0  0  2  0  0  0  0  0  0  0  0  0
   11.7491  -17.6254   24.5743 N   0  0  0  0  0  0  0  0  0  0  0  0
   11.7063  -18.3871   26.8870 C   0  0  0  0  0  0  0  0  0  0  0  0
   11.4542  -18.1295   28.2584 O   0  0  0  0  0  0  0  0  0  0  0  0
   12.6158  -19.2417   26.7248 O   0  0  0  0  0  0  0  0  0  0  0  0
  2  1  1  1
  2  3  1  0
  4  5  2  0
  4  2  1  0
  6  4  1  0
  7  6  1  0
  7  8  1  6
  9  8  1  0
  9 10  1  0
 10 11  2  0
 10 14  1  0
 12  7  1  0
 12 21  1  0
 13 12  2  0
 16 17  2  0
 16 15  1  0
 18 16  1  0
 20 19  1  6
 19 18  1  0
 20 21  1  0
 20 22  1  0
 22 23  1  0
 24 22  2  0
M  END
$$$$
