AEQ.pdb
     RDKit          3D

 24 23  0  0  1  0  0  0  0  0999 V2000
    6.9032  -13.3123   19.1550 C   0  0  0  0  0  0  0  0  0  0  0  0
    8.2591  -13.1911   19.7825 C   0  0  2  0  0  0  0  0  0  0  0  0
    9.3097  -13.3726   18.8054 N   0  0  0  0  0  0  0  0  0  0  0  0
    8.3818  -14.2118   20.8742 C   0  0  0  0  0  0  0  0  0  0  0  0
    7.5532  -14.2281   21.8189 O   0  0  0  0  0  0  0  0  0  0  0  0
    9.4228  -15.1712   20.8668 N   0  0  0  0  0  0  0  0  0  0  0  0
    9.4725  -16.2205   21.8784 C   0  0  1  0  0  0  0  0  0  0  0  0
   10.5858  -17.1728   21.5029 C   0  0  0  0  0  0  0  0  0  0  0  0
   10.7273  -18.2875   22.5080 C   0  0  0  0  0  0  0  0  0  0  0  0
   11.7662  -19.2420   22.0622 C   0  0  0  0  0  0  0  0  0  0  0  0
   11.5662  -19.9482   21.0520 O   0  0  0  0  0  0  0  0  0  0  0  0
    9.8323  -15.6101   23.1992 C   0  0  0  0  0  0  0  0  0  0  0  0
   10.5187  -14.5589   23.2721 O   0  0  0  0  0  0  0  0  0  0  0  0
   12.9454  -19.3544   22.7522 O   0  0  0  0  0  0  0  0  0  0  0  0
    5.8001  -12.6486   25.3502 N   0  0  0  0  0  0  0  0  0  0  0  0
    6.6847  -12.6163   26.4493 C   0  0  0  0  0  0  0  0  0  0  0  0
    6.5255  -11.7246   27.3511 O   0  0  0  0  0  0  0  0  0  0  0  0
    7.8020  -13.5626   26.6409 C   0  0  0  0  0  0  0  0  0  0  0  0
    8.0895  -14.4663   25.4956 C   0  0  0  0  0  0  0  0  0  0  0  0
    9.2245  -15.4285   25.6599 C   0  0  2  0  0  0  0  0  0  0  0  0
    9.4164  -16.1886   24.4239 N   0  0  0  0  0  0  0  0  0  0  0  0
    9.3196  -16.2303   26.8569 C   0  0  0  0  0  0  0  0  0  0  0  0
    9.5802  -15.6774   28.1363 O   0  0  0  0  0  0  0  0  0  0  0  0
    9.1854  -17.4808   26.8996 O   0  0  0  0  0  0  0  0  0  0  0  0
  2  1  1  6
  2  3  1  0
  4  5  2  0
  4  2  1  0
  6  4  1  0
  7  6  1  0
  7  8  1  6
  9  8  1  0
  9 10  1  0
 10 11  2  0
 10 14  1  0
 12  7  1  0
 12 21  1  0
 13 12  2  0
 16 17  2  0
 16 15  1  0
 18 16  1  0
 20 19  1  6
 19 18  1  0
 20 21  1  0
 20 22  1  0
 22 23  1  0
 24 22  2  0
M  END
$$$$
