AEQ.pdb
     RDKit          3D

 24 23  0  0  1  0  0  0  0  0999 V2000
    7.0905  -13.2943   19.2982 C   0  0  0  0  0  0  0  0  0  0  0  0
    8.3576  -13.2161   20.0953 C   0  0  2  0  0  0  0  0  0  0  0  0
    9.5210  -13.2178   19.2364 N   0  0  0  0  0  0  0  0  0  0  0  0
    8.4079  -14.3780   21.0420 C   0  0  0  0  0  0  0  0  0  0  0  0
    7.4529  -14.5914   21.8304 O   0  0  0  0  0  0  0  0  0  0  0  0
    9.5207  -15.2528   21.0699 N   0  0  0  0  0  0  0  0  0  0  0  0
    9.5480  -16.3902   21.9822 C   0  0  1  0  0  0  0  0  0  0  0  0
   10.5423  -17.3934   21.4413 C   0  0  0  0  0  0  0  0  0  0  0  0
   10.1096  -17.9405   20.1048 C   0  0  0  0  0  0  0  0  0  0  0  0
   11.1309  -18.8775   19.5870 C   0  0  0  0  0  0  0  0  0  0  0  0
   11.2251  -20.0229   20.0753 O   0  0  0  0  0  0  0  0  0  0  0  0
   10.0538  -15.9344   23.3175 C   0  0  0  0  0  0  0  0  0  0  0  0
   10.4556  -14.7569   23.5009 O   0  0  0  0  0  0  0  0  0  0  0  0
   11.9727  -18.4946   18.5752 O   0  0  0  0  0  0  0  0  0  0  0  0
   10.0060  -13.1121   28.1671 N   0  0  0  0  0  0  0  0  0  0  0  0
    8.8420  -13.4831   27.4607 C   0  0  0  0  0  0  0  0  0  0  0  0
    8.0940  -12.5705   26.9693 O   0  0  0  0  0  0  0  0  0  0  0  0
    8.4188  -14.8801   27.2378 C   0  0  0  0  0  0  0  0  0  0  0  0
    8.7347  -15.4473   25.9000 C   0  0  0  0  0  0  0  0  0  0  0  0
    9.9081  -16.3731   25.8163 C   0  0  2  0  0  0  0  0  0  0  0  0
   10.1022  -16.8078   24.4322 N   0  0  0  0  0  0  0  0  0  0  0  0
   10.0583  -17.4327   26.7855 C   0  0  0  0  0  0  0  0  0  0  0  0
   10.8068  -17.2836   27.9805 O   0  0  0  0  0  0  0  0  0  0  0  0
    9.5545  -18.5812   26.6821 O   0  0  0  0  0  0  0  0  0  0  0  0
  2  1  1  6
  2  3  1  0
  4  5  2  0
  4  2  1  0
  6  4  1  0
  7  6  1  0
  7  8  1  6
  9  8  1  0
  9 10  1  0
 10 11  2  0
 10 14  1  0
 12  7  1  0
 12 21  1  0
 13 12  2  0
 16 17  2  0
 16 15  1  0
 18 16  1  0
 20 19  1  6
 19 18  1  0
 20 21  1  0
 20 22  1  0
 22 23  1  0
 24 22  2  0
M  END
$$$$
