AEQ.pdb
     RDKit          3D

 24 23  0  0  1  0  0  0  0  0999 V2000
    5.4605  -21.6066   20.5286 C   0  0  0  0  0  0  0  0  0  0  0  0
    5.9380  -20.5880   21.5193 C   0  0  2  0  0  0  0  0  0  0  0  0
    5.8728  -19.2508   20.9727 N   0  0  0  0  0  0  0  0  0  0  0  0
    7.3454  -20.9199   21.9166 C   0  0  0  0  0  0  0  0  0  0  0  0
    7.6055  -22.0260   22.4532 O   0  0  0  0  0  0  0  0  0  0  0  0
    8.4034  -20.0047   21.6988 N   0  0  0  0  0  0  0  0  0  0  0  0
    9.7648  -20.3335   22.1054 C   0  0  1  0  0  0  0  0  0  0  0  0
   10.6683  -20.1215   20.9111 C   0  0  0  0  0  0  0  0  0  0  0  0
   10.4576  -18.7651   20.2878 C   0  0  0  0  0  0  0  0  0  0  0  0
   11.2812  -18.6365   19.0654 C   0  0  0  0  0  0  0  0  0  0  0  0
   12.3579  -18.0055   19.1074 O   0  0  0  0  0  0  0  0  0  0  0  0
   10.2015  -19.3757   23.1724 C   0  0  0  0  0  0  0  0  0  0  0  0
    9.7504  -18.2031   23.2275 O   0  0  0  0  0  0  0  0  0  0  0  0
   10.8683  -19.2061   17.8889 O   0  0  0  0  0  0  0  0  0  0  0  0
    7.0094  -20.2617   27.1556 N   0  0  0  0  0  0  0  0  0  0  0  0
    8.0207  -19.7202   27.9774 C   0  0  0  0  0  0  0  0  0  0  0  0
    7.7857  -19.5459   29.2217 O   0  0  0  0  0  0  0  0  0  0  0  0
    9.3628  -19.3372   27.4951 C   0  0  0  0  0  0  0  0  0  0  0  0
    9.6285  -19.5856   26.0532 C   0  0  0  0  0  0  0  0  0  0  0  0
   11.0299  -19.3658   25.5747 C   0  0  2  0  0  0  0  0  0  0  0  0
   11.1409  -19.7470   24.1659 N   0  0  0  0  0  0  0  0  0  0  0  0
   12.1427  -19.8012   26.3849 C   0  0  0  0  0  0  0  0  0  0  0  0
   12.5558  -21.1554   26.4631 O   0  0  0  0  0  0  0  0  0  0  0  0
   12.8552  -19.0467   27.0967 O   0  0  0  0  0  0  0  0  0  0  0  0
  2  1  1  6
  2  3  1  0
  4  5  2  0
  4  2  1  0
  6  4  1  0
  7  6  1  0
  7  8  1  6
  9  8  1  0
  9 10  1  0
 10 11  2  0
 10 14  1  0
 12  7  1  0
 12 21  1  0
 13 12  2  0
 16 17  2  0
 16 15  1  0
 18 16  1  0
 20 19  1  1
 19 18  1  0
 20 21  1  0
 20 22  1  0
 22 23  1  0
 24 22  2  0
M  END
$$$$
