AEQ.pdb
     RDKit          3D

 24 23  0  0  1  0  0  0  0  0999 V2000
    8.0677  -12.1205   19.8962 C   0  0  0  0  0  0  0  0  0  0  0  0
    8.3044  -13.4430   19.2314 C   0  0  2  0  0  0  0  0  0  0  0  0
    7.2845  -13.7273   18.2464 N   0  0  0  0  0  0  0  0  0  0  0  0
    8.3292  -14.5154   20.2793 C   0  0  0  0  0  0  0  0  0  0  0  0
    7.2547  -14.9395   20.7738 O   0  0  0  0  0  0  0  0  0  0  0  0
    9.5509  -15.0697   20.7317 N   0  0  0  0  0  0  0  0  0  0  0  0
    9.5573  -16.1767   21.6811 C   0  0  1  0  0  0  0  0  0  0  0  0
   10.6497  -17.1365   21.2652 C   0  0  0  0  0  0  0  0  0  0  0  0
   10.7582  -18.3016   22.2158 C   0  0  0  0  0  0  0  0  0  0  0  0
   11.8850  -19.1747   21.8194 C   0  0  0  0  0  0  0  0  0  0  0  0
   13.0290  -18.6906   21.6927 O   0  0  0  0  0  0  0  0  0  0  0  0
    9.9142  -15.6540   23.0397 C   0  0  0  0  0  0  0  0  0  0  0  0
   10.9471  -14.9614   23.2268 O   0  0  0  0  0  0  0  0  0  0  0  0
   11.6791  -20.5106   21.5911 O   0  0  0  0  0  0  0  0  0  0  0  0
    7.1205  -11.6753   26.1221 N   0  0  0  0  0  0  0  0  0  0  0  0
    6.4773  -12.9296   26.0558 C   0  0  0  0  0  0  0  0  0  0  0  0
    5.2026  -12.9811   26.1351 O   0  0  0  0  0  0  0  0  0  0  0  0
    7.1850  -14.2153   25.8916 C   0  0  0  0  0  0  0  0  0  0  0  0
    8.6625  -14.1281   25.7490 C   0  0  0  0  0  0  0  0  0  0  0  0
    9.3977  -15.4112   25.5159 C   0  0  2  0  0  0  0  0  0  0  0  0
    9.1058  -15.9160   24.1734 N   0  0  0  0  0  0  0  0  0  0  0  0
    9.3990  -16.4342   26.5348 C   0  0  0  0  0  0  0  0  0  0  0  0
    9.9050  -16.2196   27.8419 O   0  0  0  0  0  0  0  0  0  0  0  0
    8.9621  -17.6044   26.3821 O   0  0  0  0  0  0  0  0  0  0  0  0
  2  1  1  1
  2  3  1  0
  4  5  2  0
  4  2  1  0
  6  4  1  0
  7  6  1  0
  7  8  1  6
  9  8  1  0
  9 10  1  0
 10 11  2  0
 10 14  1  0
 12  7  1  0
 12 21  1  0
 13 12  2  0
 16 17  2  0
 16 15  1  0
 18 16  1  0
 20 19  1  1
 19 18  1  0
 20 21  1  0
 20 22  1  0
 22 23  1  0
 24 22  2  0
M  END
$$$$
