AEQ.pdb
     RDKit          3D

 24 23  0  0  1  0  0  0  0  0999 V2000
    8.0708  -12.2885   19.6901 C   0  0  0  0  0  0  0  0  0  0  0  0
    8.4431  -13.6235   19.1190 C   0  0  2  0  0  0  0  0  0  0  0  0
    7.5775  -13.9854   18.0185 N   0  0  0  0  0  0  0  0  0  0  0  0
    8.3636  -14.6549   20.2047 C   0  0  0  0  0  0  0  0  0  0  0  0
    7.2471  -15.0986   20.5730 O   0  0  0  0  0  0  0  0  0  0  0  0
    9.5320  -15.1482   20.8338 N   0  0  0  0  0  0  0  0  0  0  0  0
    9.4445  -16.1929   21.8475 C   0  0  1  0  0  0  0  0  0  0  0  0
   10.5235  -17.2119   21.5560 C   0  0  0  0  0  0  0  0  0  0  0  0
   10.5837  -17.5543   20.0891 C   0  0  0  0  0  0  0  0  0  0  0  0
   11.6571  -18.5428   19.8439 C   0  0  0  0  0  0  0  0  0  0  0  0
   12.7666  -18.4032   20.3995 O   0  0  0  0  0  0  0  0  0  0  0  0
    9.7424  -15.5977   23.1905 C   0  0  0  0  0  0  0  0  0  0  0  0
   10.8044  -14.9591   23.4053 O   0  0  0  0  0  0  0  0  0  0  0  0
   11.4393  -19.6094   19.0108 O   0  0  0  0  0  0  0  0  0  0  0  0
    7.0398  -11.2833   26.1985 N   0  0  0  0  0  0  0  0  0  0  0  0
    6.4854  -12.4897   26.6765 C   0  0  0  0  0  0  0  0  0  0  0  0
    5.3699  -12.4589   27.2999 O   0  0  0  0  0  0  0  0  0  0  0  0
    7.1109  -13.8156   26.4998 C   0  0  0  0  0  0  0  0  0  0  0  0
    8.3774  -13.8361   25.7208 C   0  0  0  0  0  0  0  0  0  0  0  0
    9.0794  -15.1530   25.6030 C   0  0  2  0  0  0  0  0  0  0  0  0
    8.8428  -15.7270   24.2775 N   0  0  0  0  0  0  0  0  0  0  0  0
    8.9906  -16.1135   26.6773 C   0  0  0  0  0  0  0  0  0  0  0  0
    9.5291  -15.8784   27.9678 O   0  0  0  0  0  0  0  0  0  0  0  0
    8.4390  -17.2414   26.5924 O   0  0  0  0  0  0  0  0  0  0  0  0
  2  1  1  1
  2  3  1  0
  4  5  2  0
  4  2  1  0
  6  4  1  0
  7  6  1  0
  7  8  1  6
  9  8  1  0
  9 10  1  0
 10 11  2  0
 10 14  1  0
 12  7  1  0
 12 21  1  0
 13 12  2  0
 16 17  2  0
 16 15  1  0
 18 16  1  0
 20 19  1  1
 19 18  1  0
 20 21  1  0
 20 22  1  0
 22 23  1  0
 24 22  2  0
M  END
$$$$
