AEQ.pdb
     RDKit          3D

 24 23  0  0  1  0  0  0  0  0999 V2000
    7.1628  -12.9773   18.9118 C   0  0  0  0  0  0  0  0  0  0  0  0
    8.4176  -13.0072   19.7312 C   0  0  2  0  0  0  0  0  0  0  0  0
    9.5889  -13.1529   18.8957 N   0  0  0  0  0  0  0  0  0  0  0  0
    8.3318  -14.1408   20.7092 C   0  0  0  0  0  0  0  0  0  0  0  0
    7.3522  -14.2264   21.4917 O   0  0  0  0  0  0  0  0  0  0  0  0
    9.3415  -15.1311   20.7736 N   0  0  0  0  0  0  0  0  0  0  0  0
    9.1978  -16.2813   21.6586 C   0  0  1  0  0  0  0  0  0  0  0  0
   10.2399  -17.3032   21.2620 C   0  0  0  0  0  0  0  0  0  0  0  0
   10.1476  -18.5485   22.1066 C   0  0  0  0  0  0  0  0  0  0  0  0
   11.1914  -19.5148   21.6991 C   0  0  0  0  0  0  0  0  0  0  0  0
   10.9720  -20.3026   20.7555 O   0  0  0  0  0  0  0  0  0  0  0  0
    9.4990  -15.8575   23.0644 C   0  0  0  0  0  0  0  0  0  0  0  0
   10.5156  -15.1704   23.3400 O   0  0  0  0  0  0  0  0  0  0  0  0
   12.3964  -19.5489   22.3518 O   0  0  0  0  0  0  0  0  0  0  0  0
    5.4511  -13.0940   26.4493 N   0  0  0  0  0  0  0  0  0  0  0  0
    6.7285  -12.5759   26.1475 C   0  0  0  0  0  0  0  0  0  0  0  0
    6.8934  -11.3090   26.1071 O   0  0  0  0  0  0  0  0  0  0  0  0
    7.9167  -13.4092   25.8749 C   0  0  0  0  0  0  0  0  0  0  0  0
    7.7044  -14.8798   25.9344 C   0  0  0  0  0  0  0  0  0  0  0  0
    8.8515  -15.7474   25.5192 C   0  0  2  0  0  0  0  0  0  0  0  0
    8.6537  -16.2111   24.1451 N   0  0  0  0  0  0  0  0  0  0  0  0
    9.3400  -16.7699   26.4138 C   0  0  0  0  0  0  0  0  0  0  0  0
    9.7826  -16.4932   27.7322 O   0  0  0  0  0  0  0  0  0  0  0  0
    9.4267  -17.9933   26.1319 O   0  0  0  0  0  0  0  0  0  0  0  0
  2  1  1  6
  2  3  1  0
  4  5  2  0
  4  2  1  0
  6  4  1  0
  7  6  1  0
  7  8  1  6
  9  8  1  0
  9 10  1  0
 10 11  2  0
 10 14  1  0
 12  7  1  0
 12 21  1  0
 13 12  2  0
 16 17  2  0
 16 15  1  0
 18 16  1  0
 20 19  1  1
 19 18  1  0
 20 21  1  0
 20 22  1  0
 22 23  1  0
 24 22  2  0
M  END
$$$$
