AEQ.pdb
     RDKit          3D

 24 23  0  0  1  0  0  0  0  0999 V2000
    6.8942  -18.4015   17.6572 C   0  0  0  0  0  0  0  0  0  0  0  0
    7.1213  -19.1480   18.9372 C   0  0  2  0  0  0  0  0  0  0  0  0
    6.9024  -20.5670   18.7652 N   0  0  0  0  0  0  0  0  0  0  0  0
    6.1996  -18.6027   19.9870 C   0  0  0  0  0  0  0  0  0  0  0  0
    6.2774  -17.3964   20.3301 O   0  0  0  0  0  0  0  0  0  0  0  0
    5.2303  -19.4253   20.6100 N   0  0  0  0  0  0  0  0  0  0  0  0
    4.3659  -18.8918   21.6563 C   0  0  1  0  0  0  0  0  0  0  0  0
    2.9859  -19.4789   21.4604 C   0  0  0  0  0  0  0  0  0  0  0  0
    2.3991  -19.0883   20.1278 C   0  0  0  0  0  0  0  0  0  0  0  0
    1.0764  -19.7272   19.9506 C   0  0  0  0  0  0  0  0  0  0  0  0
    0.4715  -19.6084   18.8646 O   0  0  0  0  0  0  0  0  0  0  0  0
    4.8659  -19.3595   22.9897 C   0  0  0  0  0  0  0  0  0  0  0  0
    4.4914  -20.4530   23.4852 O   0  0  0  0  0  0  0  0  0  0  0  0
    0.5128  -20.4479   20.9715 O   0  0  0  0  0  0  0  0  0  0  0  0
    9.3864  -22.3789   24.6720 N   0  0  0  0  0  0  0  0  0  0  0  0
    9.4451  -21.3768   23.6803 C   0  0  0  0  0  0  0  0  0  0  0  0
   10.4444  -21.3462   22.8838 O   0  0  0  0  0  0  0  0  0  0  0  0
    8.4101  -20.3413   23.4873 C   0  0  0  0  0  0  0  0  0  0  0  0
    7.2265  -20.4333   24.3826 C   0  0  0  0  0  0  0  0  0  0  0  0
    6.6098  -19.1431   24.8253 C   0  0  2  0  0  0  0  0  0  0  0  0
    5.7817  -18.5923   23.7515 N   0  0  0  0  0  0  0  0  0  0  0  0
    7.4166  -18.1558   25.5028 C   0  0  0  0  0  0  0  0  0  0  0  0
    7.9739  -18.3670   26.7894 O   0  0  0  0  0  0  0  0  0  0  0  0
    7.7095  -17.0230   25.0396 O   0  0  0  0  0  0  0  0  0  0  0  0
  2  1  1  6
  2  3  1  0
  4  5  2  0
  4  2  1  0
  6  4  1  0
  7  6  1  0
  7  8  1  6
  9  8  1  0
  9 10  1  0
 10 11  2  0
 10 14  1  0
 12  7  1  0
 12 21  1  0
 13 12  2  0
 16 17  2  0
 16 15  1  0
 18 16  1  0
 20 19  1  6
 19 18  1  0
 20 21  1  0
 20 22  1  0
 22 23  1  0
 24 22  2  0
M  END
$$$$
