AEQ.pdb
     RDKit          3D

 24 23  0  0  1  0  0  0  0  0999 V2000
    6.9046  -13.4420   18.8708 C   0  0  0  0  0  0  0  0  0  0  0  0
    8.1913  -13.3364   19.6325 C   0  0  2  0  0  0  0  0  0  0  0  0
    9.3341  -13.4209   18.7504 N   0  0  0  0  0  0  0  0  0  0  0  0
    8.2412  -14.4322   20.6551 C   0  0  0  0  0  0  0  0  0  0  0  0
    7.3125  -14.5566   21.4925 O   0  0  0  0  0  0  0  0  0  0  0  0
    9.3242  -15.3429   20.7010 N   0  0  0  0  0  0  0  0  0  0  0  0
    9.4077  -16.3442   21.7580 C   0  0  1  0  0  0  0  0  0  0  0  0
   10.6324  -17.1922   21.4962 C   0  0  0  0  0  0  0  0  0  0  0  0
   10.7532  -18.3175   22.4920 C   0  0  0  0  0  0  0  0  0  0  0  0
   11.9180  -19.1664   22.1574 C   0  0  0  0  0  0  0  0  0  0  0  0
   11.7781  -20.4043   22.0715 O   0  0  0  0  0  0  0  0  0  0  0  0
    9.6147  -15.6528   23.0716 C   0  0  0  0  0  0  0  0  0  0  0  0
   10.4323  -14.7051   23.1938 O   0  0  0  0  0  0  0  0  0  0  0  0
   13.1480  -18.6010   21.9416 O   0  0  0  0  0  0  0  0  0  0  0  0
    6.8702  -10.8408   26.2197 N   0  0  0  0  0  0  0  0  0  0  0  0
    6.5706  -12.2170   26.3074 C   0  0  0  0  0  0  0  0  0  0  0  0
    5.3527  -12.5961   26.2241 O   0  0  0  0  0  0  0  0  0  0  0  0
    7.5848  -13.2753   26.4864 C   0  0  0  0  0  0  0  0  0  0  0  0
    7.7423  -14.2208   25.3496 C   0  0  0  0  0  0  0  0  0  0  0  0
    8.8424  -15.2305   25.4555 C   0  0  2  0  0  0  0  0  0  0  0  0
    8.9000  -16.0347   24.2339 N   0  0  0  0  0  0  0  0  0  0  0  0
    8.9973  -16.0006   26.6670 C   0  0  0  0  0  0  0  0  0  0  0  0
    9.3882  -15.4240   27.9020 O   0  0  0  0  0  0  0  0  0  0  0  0
    8.8077  -17.2410   26.7621 O   0  0  0  0  0  0  0  0  0  0  0  0
  2  1  1  6
  2  3  1  0
  4  5  2  0
  4  2  1  0
  6  4  1  0
  7  6  1  0
  7  8  1  6
  9  8  1  0
  9 10  1  0
 10 11  2  0
 10 14  1  0
 12  7  1  0
 12 21  1  0
 13 12  2  0
 16 17  2  0
 16 15  1  0
 18 16  1  0
 20 19  1  1
 19 18  1  0
 20 21  1  0
 20 22  1  0
 22 23  1  0
 24 22  2  0
M  END
$$$$
