ATR.pdb
     RDKit          3D

 24 23  0  0  1  0  0  0  0  0999 V2000
    8.0783  -17.9893   16.8419 C   0  0  0  0  0  0  0  0  0  0  0  0
    8.2715  -16.5000   16.6367 C   0  0  2  0  0  0  0  0  0  0  0  0
    9.0876  -16.2709   15.4761 N   0  0  0  0  0  0  0  0  0  0  0  0
    8.9062  -15.8602   17.8105 C   0  0  0  0  0  0  0  0  0  0  0  0
   10.1688  -15.7012   17.8499 O   0  0  0  0  0  0  0  0  0  0  0  0
    7.3145  -12.8120   19.5931 C   0  0  0  0  0  0  0  0  0  0  0  0
    7.6566  -13.8783   20.6411 C   0  0  1  0  0  0  0  0  0  0  0  0
    6.4815  -14.5212   20.9445 O   0  0  0  0  0  0  0  0  0  0  0  0
    8.6965  -14.7743   20.0396 C   0  0  2  0  0  0  0  0  0  0  0  0
    8.0981  -15.4267   18.8890 N   0  0  0  0  0  0  0  0  0  0  0  0
    9.1181  -15.8340   20.9849 C   0  0  0  0  0  0  0  0  0  0  0  0
    8.6582  -17.0218   20.9089 O   0  0  0  0  0  0  0  0  0  0  0  0
   16.3733  -19.1440   25.2036 N   0  0  0  0  0  0  0  0  0  0  0  0
   15.3486  -19.9605   24.6673 C   0  0  0  0  0  0  0  0  0  0  0  0
   15.4729  -21.2634   24.5851 N   0  0  0  0  0  0  0  0  0  0  0  0
   14.1159  -19.4511   24.1785 N   0  0  0  0  0  0  0  0  0  0  0  0
   13.8430  -18.0346   24.0643 C   0  0  0  0  0  0  0  0  0  0  0  0
   12.3224  -17.9143   23.9353 C   0  0  0  0  0  0  0  0  0  0  0  0
   11.9360  -16.7322   23.1035 C   0  0  0  0  0  0  0  0  0  0  0  0
   10.4385  -16.6756   22.9758 C   0  0  2  0  0  0  0  0  0  0  0  0
   10.0505  -15.6225   22.0340 N   0  0  0  0  0  0  0  0  0  0  0  0
    9.8464  -16.2995   24.2631 C   0  0  0  0  0  0  0  0  0  0  0  0
    9.2122  -15.0847   24.4150 O   0  0  0  0  0  0  0  0  0  0  0  0
    9.8924  -17.0487   25.2558 O   0  0  0  0  0  0  0  0  0  0  0  0
  2  1  1  1
  2  3  1  0
  4  5  2  0
  4  2  1  0
  7  6  1  6
  7  8  1  0
  7  9  1  0
  9 10  1  6
 10  4  1  0
 11 21  1  0
 11  9  1  0
 12 11  2  0
 14 13  1  0
 15 14  2  0
 16 14  1  0
 17 16  1  0
 18 17  1  0
 19 18  1  0
 20 19  1  1
 20 21  1  0
 22 20  1  0
 23 22  1  0
 24 22  2  0
M  END
$$$$
