ATR.pdb
     RDKit          3D

 24 23  0  0  1  0  0  0  0  0999 V2000
   10.7036  -17.7011   16.9233 C   0  0  0  0  0  0  0  0  0  0  0  0
    9.8816  -16.4428   16.7270 C   0  0  2  0  0  0  0  0  0  0  0  0
   10.3924  -15.6977   15.6092 N   0  0  0  0  0  0  0  0  0  0  0  0
    9.8956  -15.5824   17.9310 C   0  0  0  0  0  0  0  0  0  0  0  0
   10.7805  -14.6764   18.0618 O   0  0  0  0  0  0  0  0  0  0  0  0
    7.1308  -13.5565   18.9883 C   0  0  0  0  0  0  0  0  0  0  0  0
    7.4419  -14.4184   20.2182 C   0  0  1  0  0  0  0  0  0  0  0  0
    6.5201  -15.4364   20.2270 O   0  0  0  0  0  0  0  0  0  0  0  0
    8.8586  -14.8886   20.0839 C   0  0  2  0  0  0  0  0  0  0  0  0
    8.9173  -15.7753   18.9359 N   0  0  0  0  0  0  0  0  0  0  0  0
    9.2921  -15.6635   21.2696 C   0  0  0  0  0  0  0  0  0  0  0  0
    9.5739  -16.9055   21.1923 O   0  0  0  0  0  0  0  0  0  0  0  0
    7.4772  -10.9500   27.6276 N   0  0  0  0  0  0  0  0  0  0  0  0
    6.6201  -11.9863   27.1853 C   0  0  0  0  0  0  0  0  0  0  0  0
    5.3274  -11.9567   27.4041 N   0  0  0  0  0  0  0  0  0  0  0  0
    7.0750  -13.1309   26.4777 N   0  0  0  0  0  0  0  0  0  0  0  0
    8.4622  -13.3297   26.1168 C   0  0  0  0  0  0  0  0  0  0  0  0
    8.5093  -14.6653   25.3704 C   0  0  0  0  0  0  0  0  0  0  0  0
    9.9042  -15.0092   24.9525 C   0  0  0  0  0  0  0  0  0  0  0  0
    9.8611  -15.8816   23.7280 C   0  0  2  0  0  0  0  0  0  0  0  0
    9.4281  -15.1015   22.5660 N   0  0  0  0  0  0  0  0  0  0  0  0
    8.8527  -16.9311   23.9041 C   0  0  0  0  0  0  0  0  0  0  0  0
    9.1291  -18.0488   24.6625 O   0  0  0  0  0  0  0  0  0  0  0  0
    7.7246  -16.8577   23.3836 O   0  0  0  0  0  0  0  0  0  0  0  0
  2  1  1  1
  2  3  1  0
  4  5  2  0
  4  2  1  0
  7  6  1  6
  7  8  1  0
  7  9  1  0
  9 10  1  6
 10  4  1  0
 11 21  1  0
 11  9  1  0
 12 11  2  0
 14 13  1  0
 15 14  2  0
 16 14  1  0
 17 16  1  0
 18 17  1  0
 19 18  1  0
 20 19  1  1
 20 21  1  0
 22 20  1  0
 23 22  1  0
 24 22  2  0
M  END
$$$$
