ATR.pdb
     RDKit          3D

 24 23  0  0  1  0  0  0  0  0999 V2000
    7.9859  -12.2576   19.8492 C   0  0  0  0  0  0  0  0  0  0  0  0
    8.2800  -13.2856   18.7749 C   0  0  2  0  0  0  0  0  0  0  0  0
    7.1627  -13.3831   17.8762 N   0  0  0  0  0  0  0  0  0  0  0  0
    8.5574  -14.6202   19.3511 C   0  0  0  0  0  0  0  0  0  0  0  0
    7.8354  -15.6193   19.0322 O   0  0  0  0  0  0  0  0  0  0  0  0
    9.3781  -16.9416   18.4706 C   0  0  0  0  0  0  0  0  0  0  0  0
   10.5699  -16.7980   19.4252 C   0  0  1  0  0  0  0  0  0  0  0  0
   11.5346  -16.0958   18.7453 O   0  0  0  0  0  0  0  0  0  0  0  0
   10.0718  -16.1023   20.6556 C   0  0  2  0  0  0  0  0  0  0  0  0
    9.6317  -14.7767   20.2596 N   0  0  0  0  0  0  0  0  0  0  0  0
   11.1462  -15.9343   21.6615 C   0  0  0  0  0  0  0  0  0  0  0  0
   11.9677  -14.9595   21.6085 O   0  0  0  0  0  0  0  0  0  0  0  0
   13.0273  -16.9902   29.5773 N   0  0  0  0  0  0  0  0  0  0  0  0
   11.6879  -16.5850   29.3632 C   0  0  0  0  0  0  0  0  0  0  0  0
   11.0771  -15.7554   30.1748 N   0  0  0  0  0  0  0  0  0  0  0  0
   10.8990  -17.0327   28.2700 N   0  0  0  0  0  0  0  0  0  0  0  0
   11.4302  -17.8554   27.2047 C   0  0  0  0  0  0  0  0  0  0  0  0
   11.6767  -16.9050   26.0303 C   0  0  0  0  0  0  0  0  0  0  0  0
   12.2640  -17.6254   24.8578 C   0  0  0  0  0  0  0  0  0  0  0  0
   12.4385  -16.6647   23.7138 C   0  0  2  0  0  0  0  0  0  0  0  0
   11.3489  -16.8255   22.7475 N   0  0  0  0  0  0  0  0  0  0  0  0
   13.6701  -16.9826   22.9849 C   0  0  0  0  0  0  0  0  0  0  0  0
   14.8530  -16.3461   23.2961 O   0  0  0  0  0  0  0  0  0  0  0  0
   13.6977  -17.8253   22.0695 O   0  0  0  0  0  0  0  0  0  0  0  0
  2  1  1  1
  2  3  1  0
  4  5  2  0
  4  2  1  0
  7  6  1  6
  7  8  1  0
  7  9  1  0
  9 10  1  6
 10  4  1  0
 11 21  1  0
 11  9  1  0
 12 11  2  0
 14 13  1  0
 15 14  2  0
 16 14  1  0
 17 16  1  0
 18 17  1  0
 19 18  1  0
 20 19  1  1
 20 21  1  0
 22 20  1  0
 23 22  1  0
 24 22  2  0
M  END
$$$$
