ATR.pdb
     RDKit          3D

 24 23  0  0  1  0  0  0  0  0999 V2000
    5.7717  -18.2967   18.5614 C   0  0  0  0  0  0  0  0  0  0  0  0
    6.3004  -17.1133   17.7755 C   0  0  2  0  0  0  0  0  0  0  0  0
    6.6357  -17.5268   16.4405 N   0  0  0  0  0  0  0  0  0  0  0  0
    7.4954  -16.5179   18.4138 C   0  0  0  0  0  0  0  0  0  0  0  0
    8.6610  -16.9112   18.0857 O   0  0  0  0  0  0  0  0  0  0  0  0
    7.6142  -12.8080   19.0152 C   0  0  0  0  0  0  0  0  0  0  0  0
    8.1079  -13.4563   20.3145 C   0  0  1  0  0  0  0  0  0  0  0  0
    7.0784  -13.3569   21.2181 O   0  0  0  0  0  0  0  0  0  0  0  0
    8.4904  -14.8682   19.9887 C   0  0  2  0  0  0  0  0  0  0  0  0
    7.3318  -15.5078   19.3921 N   0  0  0  0  0  0  0  0  0  0  0  0
    8.8455  -15.6333   21.2065 C   0  0  0  0  0  0  0  0  0  0  0  0
    7.9585  -16.2169   21.9139 O   0  0  0  0  0  0  0  0  0  0  0  0
   14.7850  -21.3509   24.6581 N   0  0  0  0  0  0  0  0  0  0  0  0
   13.4185  -21.4700   25.0081 C   0  0  0  0  0  0  0  0  0  0  0  0
   12.9350  -22.5619   25.5502 N   0  0  0  0  0  0  0  0  0  0  0  0
   12.4650  -20.4364   24.8068 N   0  0  0  0  0  0  0  0  0  0  0  0
   12.4315  -19.6225   23.6108 C   0  0  0  0  0  0  0  0  0  0  0  0
   11.1917  -18.7353   23.7476 C   0  0  0  0  0  0  0  0  0  0  0  0
   10.9534  -17.9336   22.5069 C   0  0  0  0  0  0  0  0  0  0  0  0
   10.5107  -16.5461   22.8825 C   0  0  2  0  0  0  0  0  0  0  0  0
   10.1757  -15.7791   21.6800 N   0  0  0  0  0  0  0  0  0  0  0  0
   11.6197  -15.8288   23.5189 C   0  0  0  0  0  0  0  0  0  0  0  0
   11.8929  -16.0069   24.8586 O   0  0  0  0  0  0  0  0  0  0  0  0
   12.3473  -15.0417   22.8865 O   0  0  0  0  0  0  0  0  0  0  0  0
  2  1  1  1
  2  3  1  0
  4  5  2  0
  4  2  1  0
  7  6  1  6
  7  8  1  0
  7  9  1  0
  9 10  1  1
 10  4  1  0
 11 21  1  0
 11  9  1  0
 12 11  2  0
 14 13  1  0
 15 14  2  0
 16 14  1  0
 17 16  1  0
 18 17  1  0
 19 18  1  0
 20 19  1  6
 20 21  1  0
 22 20  1  0
 23 22  1  0
 24 22  2  0
M  END
$$$$
