ATR.pdb
     RDKit          3D

 24 23  0  0  1  0  0  0  0  0999 V2000
    8.1091  -22.6678   19.4730 C   0  0  0  0  0  0  0  0  0  0  0  0
    8.8104  -21.4027   19.0198 C   0  0  2  0  0  0  0  0  0  0  0  0
    9.2471  -21.5499   17.6585 N   0  0  0  0  0  0  0  0  0  0  0  0
    9.9774  -21.0844   19.8723 C   0  0  0  0  0  0  0  0  0  0  0  0
   11.1586  -21.3038   19.4508 O   0  0  0  0  0  0  0  0  0  0  0  0
   11.3940  -18.2261   20.7690 C   0  0  0  0  0  0  0  0  0  0  0  0
   11.0157  -18.7671   22.1534 C   0  0  1  0  0  0  0  0  0  0  0  0
    9.8435  -18.1468   22.5101 O   0  0  0  0  0  0  0  0  0  0  0  0
   10.8972  -20.2561   22.0309 C   0  0  2  0  0  0  0  0  0  0  0  0
    9.7695  -20.5341   21.1599 N   0  0  0  0  0  0  0  0  0  0  0  0
   10.6184  -20.8919   23.3395 C   0  0  0  0  0  0  0  0  0  0  0  0
    9.4787  -20.7915   23.9042 O   0  0  0  0  0  0  0  0  0  0  0  0
   14.6110  -24.7478   21.9682 N   0  0  0  0  0  0  0  0  0  0  0  0
   13.8409  -25.9217   22.1501 C   0  0  0  0  0  0  0  0  0  0  0  0
   13.6052  -26.7550   21.1653 N   0  0  0  0  0  0  0  0  0  0  0  0
   13.2643  -26.2957   23.3933 N   0  0  0  0  0  0  0  0  0  0  0  0
   13.3485  -25.4681   24.5773 C   0  0  0  0  0  0  0  0  0  0  0  0
   12.2533  -24.4099   24.4224 C   0  0  0  0  0  0  0  0  0  0  0  0
   12.2637  -23.4412   25.5626 C   0  0  0  0  0  0  0  0  0  0  0  0
   11.2568  -22.3535   25.3071 C   0  0  2  0  0  0  0  0  0  0  0  0
   11.5760  -21.6512   24.0616 N   0  0  0  0  0  0  0  0  0  0  0  0
   11.3388  -21.3449   26.3678 C   0  0  0  0  0  0  0  0  0  0  0  0
   11.9958  -20.1521   26.1518 O   0  0  0  0  0  0  0  0  0  0  0  0
   10.8280  -21.5216   27.4889 O   0  0  0  0  0  0  0  0  0  0  0  0
  2  1  1  1
  2  3  1  0
  4  5  2  0
  4  2  1  0
  7  6  1  6
  7  8  1  0
  7  9  1  0
  9 10  1  6
 10  4  1  0
 11 21  1  0
 11  9  1  0
 12 11  2  0
 14 13  1  0
 15 14  2  0
 16 14  1  0
 17 16  1  0
 18 17  1  0
 19 18  1  0
 20 19  1  1
 20 21  1  0
 22 20  1  0
 23 22  1  0
 24 22  2  0
M  END
$$$$
