ATR.pdb
     RDKit          3D

 24 23  0  0  1  0  0  0  0  0999 V2000
    7.3356  -12.6207   20.1407 C   0  0  0  0  0  0  0  0  0  0  0  0
    8.0152  -13.2629   18.9478 C   0  0  2  0  0  0  0  0  0  0  0  0
    7.0282  -13.6618   17.9824 N   0  0  0  0  0  0  0  0  0  0  0  0
    8.8158  -14.4440   19.3400 C   0  0  0  0  0  0  0  0  0  0  0  0
    8.3886  -15.6183   19.0961 O   0  0  0  0  0  0  0  0  0  0  0  0
   13.2084  -16.2080   20.3163 C   0  0  0  0  0  0  0  0  0  0  0  0
   12.3093  -15.0311   19.9180 C   0  0  1  0  0  0  0  0  0  0  0  0
   12.4860  -14.8414   18.5694 O   0  0  0  0  0  0  0  0  0  0  0  0
   10.9060  -15.3963   20.2971 C   0  0  2  0  0  0  0  0  0  0  0  0
   10.0602  -14.2575   19.9888 N   0  0  0  0  0  0  0  0  0  0  0  0
   10.7839  -15.6635   21.7489 C   0  0  0  0  0  0  0  0  0  0  0  0
   11.1369  -14.8018   22.6212 O   0  0  0  0  0  0  0  0  0  0  0  0
    8.6852  -20.6594   28.0145 N   0  0  0  0  0  0  0  0  0  0  0  0
    7.4101  -20.1582   27.6577 C   0  0  0  0  0  0  0  0  0  0  0  0
    6.3028  -20.7014   28.1033 N   0  0  0  0  0  0  0  0  0  0  0  0
    7.2189  -19.0419   26.8002 N   0  0  0  0  0  0  0  0  0  0  0  0
    7.6049  -19.0493   25.4056 C   0  0  0  0  0  0  0  0  0  0  0  0
    9.0348  -18.5043   25.3682 C   0  0  0  0  0  0  0  0  0  0  0  0
    9.5756  -18.4834   23.9733 C   0  0  0  0  0  0  0  0  0  0  0  0
   10.2566  -17.1667   23.7181 C   0  0  2  0  0  0  0  0  0  0  0  0
   10.2741  -16.8762   22.2822 N   0  0  0  0  0  0  0  0  0  0  0  0
   11.6620  -17.2497   24.1270 C   0  0  0  0  0  0  0  0  0  0  0  0
   12.0535  -16.8290   25.3803 O   0  0  0  0  0  0  0  0  0  0  0  0
   12.5450  -17.6949   23.3714 O   0  0  0  0  0  0  0  0  0  0  0  0
  2  1  1  1
  2  3  1  0
  4  5  2  0
  4  2  1  0
  7  6  1  6
  7  8  1  0
  7  9  1  0
  9 10  1  1
 10  4  1  0
 11 21  1  0
 11  9  1  0
 12 11  2  0
 14 13  1  0
 15 14  2  0
 16 14  1  0
 17 16  1  0
 18 17  1  0
 19 18  1  0
 20 19  1  6
 20 21  1  0
 22 20  1  0
 23 22  1  0
 24 22  2  0
M  END
$$$$
