ATR.pdb
     RDKit          3D

 24 23  0  0  1  0  0  0  0  0999 V2000
    7.5092  -18.8668   17.3399 C   0  0  0  0  0  0  0  0  0  0  0  0
    7.8538  -17.5822   16.6130 C   0  0  2  0  0  0  0  0  0  0  0  0
    8.7614  -17.8622   15.5344 N   0  0  0  0  0  0  0  0  0  0  0  0
    8.4680  -16.5852   17.5178 C   0  0  0  0  0  0  0  0  0  0  0  0
    9.7313  -16.5517   17.6725 O   0  0  0  0  0  0  0  0  0  0  0  0
    7.7756  -12.8215   20.5972 C   0  0  0  0  0  0  0  0  0  0  0  0
    7.1898  -13.7241   19.5043 C   0  0  1  0  0  0  0  0  0  0  0  0
    6.9337  -12.9160   18.4238 O   0  0  0  0  0  0  0  0  0  0  0  0
    8.1975  -14.7986   19.2286 C   0  0  2  0  0  0  0  0  0  0  0  0
    7.6394  -15.6693   18.2098 N   0  0  0  0  0  0  0  0  0  0  0  0
    8.4572  -15.6257   20.4298 C   0  0  0  0  0  0  0  0  0  0  0  0
    7.6261  -16.5076   20.8290 O   0  0  0  0  0  0  0  0  0  0  0  0
   14.1964  -21.0958   24.4233 N   0  0  0  0  0  0  0  0  0  0  0  0
   12.9571  -21.3366   23.7826 C   0  0  0  0  0  0  0  0  0  0  0  0
   12.4110  -22.5286   23.7566 N   0  0  0  0  0  0  0  0  0  0  0  0
   12.2073  -20.3270   23.1221 N   0  0  0  0  0  0  0  0  0  0  0  0
   12.6839  -18.9691   22.9703 C   0  0  0  0  0  0  0  0  0  0  0  0
   11.4734  -18.0721   23.2412 C   0  0  0  0  0  0  0  0  0  0  0  0
   11.1214  -17.2516   22.0406 C   0  0  0  0  0  0  0  0  0  0  0  0
    9.9182  -16.4027   22.3474 C   0  0  2  0  0  0  0  0  0  0  0  0
    9.6290  -15.5097   21.2225 N   0  0  0  0  0  0  0  0  0  0  0  0
   10.2078  -15.5287   23.4883 C   0  0  0  0  0  0  0  0  0  0  0  0
   10.7158  -14.2624   23.2901 O   0  0  0  0  0  0  0  0  0  0  0  0
   10.0113  -15.8887   24.6633 O   0  0  0  0  0  0  0  0  0  0  0  0
  2  1  1  1
  2  3  1  0
  4  5  2  0
  4  2  1  0
  7  6  1  1
  7  8  1  0
  7  9  1  0
  9 10  1  6
 10  4  1  0
 11 21  1  0
 11  9  1  0
 12 11  2  0
 14 13  1  0
 15 14  2  0
 16 14  1  0
 17 16  1  0
 18 17  1  0
 19 18  1  0
 20 19  1  6
 20 21  1  0
 22 20  1  0
 23 22  1  0
 24 22  2  0
M  END
$$$$
