ATR.pdb
     RDKit          3D

 24 23  0  0  1  0  0  0  0  0999 V2000
    7.4988  -12.6633   19.1175 C   0  0  0  0  0  0  0  0  0  0  0  0
    8.7542  -13.0099   19.8929 C   0  0  2  0  0  0  0  0  0  0  0  0
    9.8731  -13.0931   18.9947 N   0  0  0  0  0  0  0  0  0  0  0  0
    8.6172  -14.2927   20.6179 C   0  0  0  0  0  0  0  0  0  0  0  0
    7.6784  -14.4552   21.4625 O   0  0  0  0  0  0  0  0  0  0  0  0
   11.1907  -17.4175   19.5770 C   0  0  0  0  0  0  0  0  0  0  0  0
    9.7473  -17.6829   20.0224 C   0  0  1  0  0  0  0  0  0  0  0  0
    9.7229  -18.9567   20.5351 O   0  0  0  0  0  0  0  0  0  0  0  0
    9.3888  -16.6239   21.0204 C   0  0  2  0  0  0  0  0  0  0  0  0
    9.5384  -15.3374   20.3646 N   0  0  0  0  0  0  0  0  0  0  0  0
   10.3024  -16.6399   22.1864 C   0  0  0  0  0  0  0  0  0  0  0  0
   11.2817  -15.8276   22.2819 O   0  0  0  0  0  0  0  0  0  0  0  0
   14.4633  -19.6712   28.4949 N   0  0  0  0  0  0  0  0  0  0  0  0
   13.2513  -20.0388   29.1275 C   0  0  0  0  0  0  0  0  0  0  0  0
   13.2331  -20.7451   30.2324 N   0  0  0  0  0  0  0  0  0  0  0  0
   11.9689  -19.6824   28.6313 N   0  0  0  0  0  0  0  0  0  0  0  0
   11.5865  -19.8604   27.2471 C   0  0  0  0  0  0  0  0  0  0  0  0
   11.5157  -18.4518   26.6519 C   0  0  0  0  0  0  0  0  0  0  0  0
   10.5254  -18.3803   25.5327 C   0  0  0  0  0  0  0  0  0  0  0  0
   11.0972  -17.5625   24.4073 C   0  0  2  0  0  0  0  0  0  0  0  0
   10.1685  -17.5418   23.2743 N   0  0  0  0  0  0  0  0  0  0  0  0
   12.3223  -18.1954   23.9093 C   0  0  0  0  0  0  0  0  0  0  0  0
   13.5600  -17.6984   24.2587 O   0  0  0  0  0  0  0  0  0  0  0  0
   12.2955  -19.1902   23.1620 O   0  0  0  0  0  0  0  0  0  0  0  0
  2  1  1  6
  2  3  1  0
  4  5  2  0
  4  2  1  0
  7  6  1  1
  7  8  1  0
  7  9  1  0
  9 10  1  6
 10  4  1  0
 11 21  1  0
 11  9  1  0
 12 11  2  0
 14 13  1  0
 15 14  2  0
 16 14  1  0
 17 16  1  0
 18 17  1  0
 19 18  1  0
 20 19  1  1
 20 21  1  0
 22 20  1  0
 23 22  1  0
 24 22  2  0
M  END
$$$$
