ATR.pdb
     RDKit          3D

 24 23  0  0  1  0  0  0  0  0999 V2000
    8.6714  -14.3659   16.9938 C   0  0  0  0  0  0  0  0  0  0  0  0
    9.2162  -15.6884   16.4919 C   0  0  2  0  0  0  0  0  0  0  0  0
    8.3702  -16.1978   15.4476 N   0  0  0  0  0  0  0  0  0  0  0  0
    9.3087  -16.6925   17.5749 C   0  0  0  0  0  0  0  0  0  0  0  0
    8.2836  -17.3679   17.9128 O   0  0  0  0  0  0  0  0  0  0  0  0
   11.5875  -19.4748   17.7222 C   0  0  0  0  0  0  0  0  0  0  0  0
   11.8611  -18.7133   19.0251 C   0  0  1  0  0  0  0  0  0  0  0  0
   13.0106  -17.9896   18.8224 O   0  0  0  0  0  0  0  0  0  0  0  0
   10.6568  -17.8666   19.3058 C   0  0  2  0  0  0  0  0  0  0  0  0
   10.5459  -16.8958   18.2321 N   0  0  0  0  0  0  0  0  0  0  0  0
   10.8003  -17.1154   20.5744 C   0  0  0  0  0  0  0  0  0  0  0  0
   11.4543  -16.0216   20.6354 O   0  0  0  0  0  0  0  0  0  0  0  0
    7.6896  -11.7581   23.3726 N   0  0  0  0  0  0  0  0  0  0  0  0
    7.3021  -12.2890   22.1187 C   0  0  0  0  0  0  0  0  0  0  0  0
    7.3303  -11.5688   21.0231 N   0  0  0  0  0  0  0  0  0  0  0  0
    6.8555  -13.6252   21.9378 N   0  0  0  0  0  0  0  0  0  0  0  0
    7.1437  -14.6830   22.8823 C   0  0  0  0  0  0  0  0  0  0  0  0
    8.5672  -15.1470   22.5638 C   0  0  0  0  0  0  0  0  0  0  0  0
    8.9935  -16.2621   23.4658 C   0  0  0  0  0  0  0  0  0  0  0  0
   10.3470  -16.7622   23.0412 C   0  0  2  0  0  0  0  0  0  0  0  0
   10.2338  -17.5400   21.8048 N   0  0  0  0  0  0  0  0  0  0  0  0
   10.8706  -17.6881   24.0501 C   0  0  0  0  0  0  0  0  0  0  0  0
   11.4207  -17.2111   25.2210 O   0  0  0  0  0  0  0  0  0  0  0  0
   10.8416  -18.9223   23.8930 O   0  0  0  0  0  0  0  0  0  0  0  0
  2  1  1  1
  2  3  1  0
  4  5  2  0
  4  2  1  0
  7  6  1  6
  7  8  1  0
  7  9  1  0
  9 10  1  6
 10  4  1  0
 11 21  1  0
 11  9  1  0
 12 11  2  0
 14 13  1  0
 15 14  2  0
 16 14  1  0
 17 16  1  0
 18 17  1  0
 19 18  1  0
 20 19  1  1
 20 21  1  0
 22 20  1  0
 23 22  1  0
 24 22  2  0
M  END
$$$$
