ATR.pdb
     RDKit          3D

 24 23  0  0  1  0  0  0  0  0999 V2000
    7.6903  -12.4306   20.0335 C   0  0  0  0  0  0  0  0  0  0  0  0
    8.5045  -13.2612   19.0615 C   0  0  2  0  0  0  0  0  0  0  0  0
    7.9758  -13.1125   17.7334 N   0  0  0  0  0  0  0  0  0  0  0  0
    8.5031  -14.6952   19.4269 C   0  0  0  0  0  0  0  0  0  0  0  0
    8.2019  -15.5778   18.5600 O   0  0  0  0  0  0  0  0  0  0  0  0
    9.7966  -16.8164   18.7851 C   0  0  0  0  0  0  0  0  0  0  0  0
   10.1868  -16.9768   20.2597 C   0  0  1  0  0  0  0  0  0  0  0  0
   11.3457  -16.2620   20.4387 O   0  0  0  0  0  0  0  0  0  0  0  0
    9.0366  -16.4767   21.0801 C   0  0  2  0  0  0  0  0  0  0  0  0
    8.8392  -15.0774   20.7479 N   0  0  0  0  0  0  0  0  0  0  0  0
    9.3252  -16.5551   22.5310 C   0  0  0  0  0  0  0  0  0  0  0  0
    9.7578  -15.5477   23.1837 O   0  0  0  0  0  0  0  0  0  0  0  0
    5.5631  -23.3480   25.6790 N   0  0  0  0  0  0  0  0  0  0  0  0
    5.1694  -22.3278   24.7798 C   0  0  0  0  0  0  0  0  0  0  0  0
    4.0845  -22.4286   24.0500 N   0  0  0  0  0  0  0  0  0  0  0  0
    5.9011  -21.1251   24.5904 N   0  0  0  0  0  0  0  0  0  0  0  0
    7.1785  -20.8764   25.2232 C   0  0  0  0  0  0  0  0  0  0  0  0
    7.5881  -19.4663   24.7906 C   0  0  0  0  0  0  0  0  0  0  0  0
    8.9495  -19.1119   25.3001 C   0  0  0  0  0  0  0  0  0  0  0  0
    9.3581  -17.7722   24.7519 C   0  0  2  0  0  0  0  0  0  0  0  0
    9.1485  -17.7334   23.3025 N   0  0  0  0  0  0  0  0  0  0  0  0
   10.7964  -17.5733   24.9540 C   0  0  0  0  0  0  0  0  0  0  0  0
   11.2935  -17.2694   26.2037 O   0  0  0  0  0  0  0  0  0  0  0  0
   11.6143  -17.6679   24.0207 O   0  0  0  0  0  0  0  0  0  0  0  0
  2  1  1  1
  2  3  1  0
  4  5  2  0
  4  2  1  0
  7  6  1  6
  7  8  1  0
  7  9  1  0
  9 10  1  6
 10  4  1  0
 11 21  1  0
 11  9  1  0
 12 11  2  0
 14 13  1  0
 15 14  2  0
 16 14  1  0
 17 16  1  0
 18 17  1  0
 19 18  1  0
 20 19  1  6
 20 21  1  0
 22 20  1  0
 23 22  1  0
 24 22  2  0
M  END
$$$$
