ATR.pdb
     RDKit          3D

 24 23  0  0  1  0  0  0  0  0999 V2000
    7.2262  -12.5394   18.2238 C   0  0  0  0  0  0  0  0  0  0  0  0
    8.4996  -13.1205   18.8055 C   0  0  2  0  0  0  0  0  0  0  0  0
    9.2485  -13.7818   17.7724 N   0  0  0  0  0  0  0  0  0  0  0  0
    8.2187  -14.0834   19.8935 C   0  0  0  0  0  0  0  0  0  0  0  0
    7.5402  -13.7238   20.9091 O   0  0  0  0  0  0  0  0  0  0  0  0
    6.9360  -17.5734   19.3110 C   0  0  0  0  0  0  0  0  0  0  0  0
    8.2007  -17.7014   20.1691 C   0  0  1  0  0  0  0  0  0  0  0  0
    9.2158  -18.0675   19.3195 O   0  0  0  0  0  0  0  0  0  0  0  0
    8.4205  -16.3774   20.8362 C   0  0  2  0  0  0  0  0  0  0  0  0
    8.7105  -15.4073   19.7959 N   0  0  0  0  0  0  0  0  0  0  0  0
    9.5848  -16.4129   21.7512 C   0  0  0  0  0  0  0  0  0  0  0  0
   10.7479  -16.0521   21.3704 O   0  0  0  0  0  0  0  0  0  0  0  0
   12.5020  -15.5188   29.6174 N   0  0  0  0  0  0  0  0  0  0  0  0
   11.1088  -15.7597   29.5455 C   0  0  0  0  0  0  0  0  0  0  0  0
   10.3026  -15.4635   30.5366 N   0  0  0  0  0  0  0  0  0  0  0  0
   10.4702  -16.3339   28.4140 N   0  0  0  0  0  0  0  0  0  0  0  0
   11.0395  -17.4347   27.6669 C   0  0  0  0  0  0  0  0  0  0  0  0
   11.4432  -16.8507   26.3107 C   0  0  0  0  0  0  0  0  0  0  0  0
   10.2581  -16.6832   25.4129 C   0  0  0  0  0  0  0  0  0  0  0  0
   10.6749  -16.9024   23.9845 C   0  0  2  0  0  0  0  0  0  0  0  0
    9.5071  -16.8426   23.1019 N   0  0  0  0  0  0  0  0  0  0  0  0
   11.2237  -18.2532   23.8314 C   0  0  0  0  0  0  0  0  0  0  0  0
   10.3889  -19.3285   23.6126 O   0  0  0  0  0  0  0  0  0  0  0  0
   12.4457  -18.4811   23.8930 O   0  0  0  0  0  0  0  0  0  0  0  0
  2  1  1  6
  2  3  1  0
  4  5  2  0
  4  2  1  0
  7  6  1  6
  7  8  1  0
  7  9  1  0
  9 10  1  6
 10  4  1  0
 11 21  1  0
 11  9  1  0
 12 11  2  0
 14 13  1  0
 15 14  2  0
 16 14  1  0
 17 16  1  0
 18 17  1  0
 19 18  1  0
 20 19  1  1
 20 21  1  0
 22 20  1  0
 23 22  1  0
 24 22  2  0
M  END
$$$$
