RRP.pdb
     RDKit          3D

 30 30  0  0  1  0  0  0  0  0999 V2000
    8.9318  -12.3734   18.8218 N   0  0  0  0  0  0  0  0  0  0  0  0
    8.9468  -13.5754   18.0828 C   0  0  0  0  0  0  0  0  0  0  0  0
    9.0411  -13.6248   16.8018 N   0  0  0  0  0  0  0  0  0  0  0  0
    8.8535  -14.7903   18.8009 N   0  0  0  0  0  0  0  0  0  0  0  0
    8.6966  -14.7010   20.2549 C   0  0  0  0  0  0  0  0  0  0  0  0
    7.2473  -14.5675   20.6170 C   0  0  0  0  0  0  0  0  0  0  0  0
    6.4886  -15.7969   20.3215 C   0  0  0  0  0  0  0  0  0  0  0  0
    6.7960  -17.0318   21.1061 C   0  0  2  0  0  0  0  0  0  0  0  0
    6.0299  -18.1895   20.7795 N   0  0  0  0  0  0  0  0  0  0  0  0
    6.6841  -16.6577   22.5442 C   0  0  0  0  0  0  0  0  0  0  0  0
    5.5410  -16.3427   22.9806 O   0  0  0  0  0  0  0  0  0  0  0  0
    9.0741  -14.5423   16.2882 N   0  0  0  0  0  0  0  0  0  0  0  0
   11.3603  -16.6087   28.5398 C   0  0  0  0  0  0  0  0  0  0  0  0
   10.8101  -17.7346   29.2310 N   0  0  0  0  0  0  0  0  0  0  0  0
   11.6112  -18.4727   29.8962 N   0  0  0  0  0  0  0  0  0  0  0  0
    9.4373  -17.9850   29.1562 C   0  0  0  0  0  0  0  0  0  0  0  0
    8.8391  -18.3797   27.8779 C   0  0  0  0  0  0  0  0  0  0  0  0
    8.2253  -17.2004   27.1923 C   0  0  0  0  0  0  0  0  0  0  0  0
    8.0463  -17.3849   25.7425 C   0  0  1  0  0  0  0  0  0  0  0  0
    7.5475  -16.3084   24.8925 N   0  0  0  0  0  0  0  0  0  0  0  0
    7.7474  -16.6226   23.4666 C   0  0  0  0  0  0  0  0  0  0  0  0
    8.0362  -14.9550   25.0996 O   0  0  0  0  0  0  0  0  0  0  0  0
    9.0579  -14.5634   24.3824 N   0  0  0  0  0  0  0  0  0  0  0  0
   11.3941  -19.3342   30.4108 C   0  0  0  0  0  0  0  0  0  0  0  0
    7.5122  -14.0097   26.0076 C   0  0  0  0  0  0  0  0  0  0  0  0
    6.4053  -13.9793   26.9129 C   0  0  0  0  0  0  0  0  0  0  0  0
    5.7222  -12.6654   26.5232 C   0  0  1  0  0  0  0  0  0  0  0  0
    6.9124  -11.7627   26.3262 C   0  0  0  0  0  0  0  0  0  0  0  0
    8.1054  -12.6546   26.1656 O   0  0  0  0  0  0  0  0  0  0  0  0
    8.9395  -12.7186   27.3862 O   0  0  0  0  0  0  0  0  0  0  0  0
  2  1  1  0
  3  2  2  0
  4  2  1  0
  5  4  1  0
  6  5  1  0
  7  6  1  0
  8  9  1  6
  8  7  1  0
 10 11  2  0
 10  8  1  0
 12 13  1  0
 13 15  1  0
 13 14  2  0
 15 16  1  0
 17 16  1  0
 17 18  1  0
 19 18  1  6
 19 21  1  0
 19 20  1  0
 20 10  1  0
 21 23  1  0
 22 21  2  0
 23 27  1  0
 24 23  1  0
 25 24  1  0
 25 26  1  0
 26 27  1  0
 27 28  1  1
 28 30  2  0
 28 29  1  0
M  END
$$$$
