RRP.pdb
     RDKit          3D

 30 30  0  0  1  0  0  0  0  0999 V2000
    8.5494  -12.1197   18.2137 N   0  0  0  0  0  0  0  0  0  0  0  0
    8.7344  -13.3626   17.5718 C   0  0  0  0  0  0  0  0  0  0  0  0
    9.1218  -13.4857   16.3523 N   0  0  0  0  0  0  0  0  0  0  0  0
    8.4779  -14.5345   18.3209 N   0  0  0  0  0  0  0  0  0  0  0  0
    8.6603  -14.4574   19.7726 C   0  0  0  0  0  0  0  0  0  0  0  0
    7.3348  -14.5290   20.4705 C   0  0  0  0  0  0  0  0  0  0  0  0
    6.5900  -15.7517   20.1173 C   0  0  0  0  0  0  0  0  0  0  0  0
    6.8361  -16.9930   20.9133 C   0  0  2  0  0  0  0  0  0  0  0  0
    6.1225  -18.1560   20.4986 N   0  0  0  0  0  0  0  0  0  0  0  0
    6.5777  -16.6399   22.3378 C   0  0  0  0  0  0  0  0  0  0  0  0
    5.4169  -16.2446   22.6423 O   0  0  0  0  0  0  0  0  0  0  0  0
    9.3049  -14.4301   15.9265 N   0  0  0  0  0  0  0  0  0  0  0  0
    9.4764  -21.1684   27.3959 C   0  0  0  0  0  0  0  0  0  0  0  0
    9.6441  -19.7943   27.7591 N   0  0  0  0  0  0  0  0  0  0  0  0
   10.7917  -19.2671   27.5748 N   0  0  0  0  0  0  0  0  0  0  0  0
    8.5645  -19.0869   28.2947 C   0  0  0  0  0  0  0  0  0  0  0  0
    7.2673  -19.1150   27.6134 C   0  0  0  0  0  0  0  0  0  0  0  0
    6.9643  -17.7880   26.9933 C   0  0  0  0  0  0  0  0  0  0  0  0
    7.1807  -17.7510   25.5374 C   0  0  1  0  0  0  0  0  0  0  0  0
    7.1521  -16.4955   24.7936 N   0  0  0  0  0  0  0  0  0  0  0  0
    7.5196  -16.7068   23.3822 C   0  0  0  0  0  0  0  0  0  0  0  0
    7.9372  -15.3689   25.2708 O   0  0  0  0  0  0  0  0  0  0  0  0
    9.1517  -15.2355   24.8030 N   0  0  0  0  0  0  0  0  0  0  0  0
   11.1116  -18.3359   27.8661 C   0  0  0  0  0  0  0  0  0  0  0  0
    7.5153  -14.3928   26.1991 C   0  0  0  0  0  0  0  0  0  0  0  0
    6.2933  -14.1086   26.8860 C   0  0  0  0  0  0  0  0  0  0  0  0
    6.1033  -12.6207   26.5775 C   0  0  1  0  0  0  0  0  0  0  0  0
    7.5113  -12.1066   26.7316 C   0  0  0  0  0  0  0  0  0  0  0  0
    8.4142  -13.2999   26.6581 O   0  0  0  0  0  0  0  0  0  0  0  0
    8.9153  -13.7198   27.9855 O   0  0  0  0  0  0  0  0  0  0  0  0
  2  1  1  0
  3  2  2  0
  4  2  1  0
  5  4  1  0
  6  5  1  0
  7  6  1  0
  8  9  1  6
  8  7  1  0
 10 11  2  0
 10  8  1  0
 12 13  1  0
 13 15  1  0
 13 14  2  0
 15 16  1  0
 17 16  1  0
 17 18  1  0
 19 18  1  6
 19 21  1  0
 19 20  1  0
 20 10  1  0
 21 23  1  0
 22 21  2  0
 23 27  1  0
 24 23  1  0
 25 24  1  0
 25 26  1  0
 26 27  1  0
 27 28  1  1
 28 30  2  0
 28 29  1  0
M  END
$$$$
