RRP.pdb
     RDKit          3D

 30 30  0  0  1  0  0  0  0  0999 V2000
   12.6920  -22.1555   21.6561 N   0  0  0  0  0  0  0  0  0  0  0  0
   13.6705  -22.6393   22.5502 C   0  0  0  0  0  0  0  0  0  0  0  0
   14.1336  -23.8381   22.5216 N   0  0  0  0  0  0  0  0  0  0  0  0
   14.1651  -21.7470   23.5299 N   0  0  0  0  0  0  0  0  0  0  0  0
   13.6571  -20.3730   23.5049 C   0  0  0  0  0  0  0  0  0  0  0  0
   12.2761  -20.3156   24.0870 C   0  0  0  0  0  0  0  0  0  0  0  0
   11.7948  -18.9293   24.2316 C   0  0  0  0  0  0  0  0  0  0  0  0
   11.9152  -18.0058   23.0622 C   0  0  2  0  0  0  0  0  0  0  0  0
   13.2417  -17.6514   22.6767 N   0  0  0  0  0  0  0  0  0  0  0  0
   11.0723  -16.8170   23.3738 C   0  0  0  0  0  0  0  0  0  0  0  0
   11.6314  -15.8334   23.9362 O   0  0  0  0  0  0  0  0  0  0  0  0
   14.8403  -24.1712   23.2260 N   0  0  0  0  0  0  0  0  0  0  0  0
    7.5842  -11.8761   18.6471 C   0  0  0  0  0  0  0  0  0  0  0  0
    7.8019  -13.2877   18.7370 N   0  0  0  0  0  0  0  0  0  0  0  0
    8.1502  -13.9039   17.6749 N   0  0  0  0  0  0  0  0  0  0  0  0
    7.6288  -13.9344   19.9637 C   0  0  0  0  0  0  0  0  0  0  0  0
    7.0870  -13.1932   21.1059 C   0  0  0  0  0  0  0  0  0  0  0  0
    7.0583  -14.0516   22.3306 C   0  0  0  0  0  0  0  0  0  0  0  0
    7.9853  -15.1942   22.2751 C   0  0  1  0  0  0  0  0  0  0  0  0
    8.9515  -15.4449   23.3399 N   0  0  0  0  0  0  0  0  0  0  0  0
    9.6976  -16.6922   23.0962 C   0  0  0  0  0  0  0  0  0  0  0  0
    8.4937  -15.4888   24.7190 O   0  0  0  0  0  0  0  0  0  0  0  0
    8.7392  -16.5757   25.4045 N   0  0  0  0  0  0  0  0  0  0  0  0
    8.4059  -14.8933   17.5754 C   0  0  0  0  0  0  0  0  0  0  0  0
    7.8030  -14.4637   25.4007 C   0  0  0  0  0  0  0  0  0  0  0  0
    7.2391  -13.2022   25.0312 C   0  0  0  0  0  0  0  0  0  0  0  0
    7.8532  -12.2696   26.0791 C   0  0  1  0  0  0  0  0  0  0  0  0
    7.7505  -13.1156   27.3217 C   0  0  0  0  0  0  0  0  0  0  0  0
    7.5413  -14.5267   26.8638 O   0  0  0  0  0  0  0  0  0  0  0  0
    6.1367  -14.9707   27.0042 O   0  0  0  0  0  0  0  0  0  0  0  0
  2  1  1  0
  3  2  2  0
  4  2  1  0
  5  4  1  0
  6  5  1  0
  7  6  1  0
  8  9  1  1
  8  7  1  0
 10 11  2  0
 10  8  1  0
 12 13  1  0
 13 15  1  0
 13 14  2  0
 15 16  1  0
 17 16  1  0
 17 18  1  0
 19 18  1  6
 19 21  1  0
 19 20  1  0
 20 10  1  0
 21 23  1  0
 22 21  2  0
 23 27  1  0
 24 23  1  0
 25 24  1  0
 25 26  1  0
 26 27  1  0
 27 28  1  1
 28 30  2  0
 28 29  1  0
M  END
$$$$
