RRP.pdb
     RDKit          3D

 30 30  0  0  1  0  0  0  0  0999 V2000
   10.1637  -12.0199   19.2460 N   0  0  0  0  0  0  0  0  0  0  0  0
    9.0188  -12.8126   19.0183 C   0  0  0  0  0  0  0  0  0  0  0  0
    8.6436  -13.2071   17.8538 N   0  0  0  0  0  0  0  0  0  0  0  0
    8.2466  -13.1909   20.1412 N   0  0  0  0  0  0  0  0  0  0  0  0
    7.1465  -14.1315   19.9140 C   0  0  0  0  0  0  0  0  0  0  0  0
    7.6436  -15.3556   19.2043 C   0  0  0  0  0  0  0  0  0  0  0  0
    8.2530  -16.3241   20.1344 C   0  0  0  0  0  0  0  0  0  0  0  0
    7.3869  -17.3905   20.7239 C   0  0  2  0  0  0  0  0  0  0  0  0
    6.2518  -17.7754   19.9511 N   0  0  0  0  0  0  0  0  0  0  0  0
    7.0186  -16.9279   22.0918 C   0  0  0  0  0  0  0  0  0  0  0  0
    5.8907  -16.3782   22.2405 O   0  0  0  0  0  0  0  0  0  0  0  0
    7.8083  -13.8343   17.7287 N   0  0  0  0  0  0  0  0  0  0  0  0
    9.2220  -20.8225   29.4782 C   0  0  0  0  0  0  0  0  0  0  0  0
    8.7958  -19.6526   28.7726 N   0  0  0  0  0  0  0  0  0  0  0  0
    9.1027  -18.5164   29.2664 N   0  0  0  0  0  0  0  0  0  0  0  0
    8.0696  -19.7901   27.5866 C   0  0  0  0  0  0  0  0  0  0  0  0
    6.7277  -19.2099   27.4846 C   0  0  0  0  0  0  0  0  0  0  0  0
    6.7763  -17.8746   26.8123 C   0  0  0  0  0  0  0  0  0  0  0  0
    7.1912  -17.9366   25.4009 C   0  0  1  0  0  0  0  0  0  0  0  0
    7.3249  -16.7295   24.5915 N   0  0  0  0  0  0  0  0  0  0  0  0
    7.8224  -17.0486   23.2415 C   0  0  0  0  0  0  0  0  0  0  0  0
    8.1301  -15.6260   25.0888 O   0  0  0  0  0  0  0  0  0  0  0  0
    9.3475  -15.5071   24.6248 N   0  0  0  0  0  0  0  0  0  0  0  0
    8.9006  -17.5864   28.8810 C   0  0  0  0  0  0  0  0  0  0  0  0
    7.7250  -14.6582   26.0332 C   0  0  0  0  0  0  0  0  0  0  0  0
    6.4972  -14.3382   26.6935 C   0  0  0  0  0  0  0  0  0  0  0  0
    6.3830  -12.8351   26.4238 C   0  0  1  0  0  0  0  0  0  0  0  0
    7.8074  -12.3901   26.6326 C   0  0  0  0  0  0  0  0  0  0  0  0
    8.6579  -13.6207   26.5494 O   0  0  0  0  0  0  0  0  0  0  0  0
    9.1005  -14.1002   27.8774 O   0  0  0  0  0  0  0  0  0  0  0  0
  2  1  1  0
  3  2  2  0
  4  2  1  0
  5  4  1  0
  6  5  1  0
  7  6  1  0
  8  9  1  6
  8  7  1  0
 10 11  2  0
 10  8  1  0
 12 13  1  0
 13 15  1  0
 13 14  2  0
 15 16  1  0
 17 16  1  0
 17 18  1  0
 19 18  1  6
 19 21  1  0
 19 20  1  0
 20 10  1  0
 21 23  1  0
 22 21  2  0
 23 27  1  0
 24 23  1  0
 25 24  1  0
 25 26  1  0
 26 27  1  0
 27 28  1  1
 28 30  2  0
 28 29  1  0
M  END
$$$$
