RRP.pdb
     RDKit          3D

 30 30  0  0  1  0  0  0  0  0999 V2000
   13.5620  -14.5974   17.5953 N   0  0  0  0  0  0  0  0  0  0  0  0
   14.2308  -14.0485   18.7099 C   0  0  0  0  0  0  0  0  0  0  0  0
   15.3781  -13.4728   18.6420 N   0  0  0  0  0  0  0  0  0  0  0  0
   13.5945  -14.1403   19.9697 N   0  0  0  0  0  0  0  0  0  0  0  0
   12.3403  -14.8948   20.0355 C   0  0  0  0  0  0  0  0  0  0  0  0
   11.2580  -14.1760   19.2864 C   0  0  0  0  0  0  0  0  0  0  0  0
   10.1354  -13.7982   20.1648 C   0  0  0  0  0  0  0  0  0  0  0  0
    8.7881  -14.3876   19.8955 C   0  0  2  0  0  0  0  0  0  0  0  0
    7.9982  -13.7233   18.9113 N   0  0  0  0  0  0  0  0  0  0  0  0
    8.0986  -14.4857   21.2129 C   0  0  0  0  0  0  0  0  0  0  0  0
    7.5741  -13.4351   21.6795 O   0  0  0  0  0  0  0  0  0  0  0  0
   15.8568  -13.0982   19.5005 N   0  0  0  0  0  0  0  0  0  0  0  0
    8.6245  -21.6362   25.2211 C   0  0  0  0  0  0  0  0  0  0  0  0
    7.3961  -20.9073   25.3108 N   0  0  0  0  0  0  0  0  0  0  0  0
    6.3513  -21.5461   25.6704 N   0  0  0  0  0  0  0  0  0  0  0  0
    7.3809  -19.5435   25.0067 C   0  0  0  0  0  0  0  0  0  0  0  0
    6.2015  -18.7384   25.3362 C   0  0  0  0  0  0  0  0  0  0  0  0
    6.4604  -17.2876   25.0800 C   0  0  0  0  0  0  0  0  0  0  0  0
    7.0207  -17.0122   23.7465 C   0  0  1  0  0  0  0  0  0  0  0  0
    7.3541  -15.6554   23.3246 N   0  0  0  0  0  0  0  0  0  0  0  0
    7.9799  -15.6536   21.9904 C   0  0  0  0  0  0  0  0  0  0  0  0
    8.1865  -14.8287   24.1831 O   0  0  0  0  0  0  0  0  0  0  0  0
    9.4577  -14.7368   23.8879 N   0  0  0  0  0  0  0  0  0  0  0  0
    5.4000  -21.1800   25.7935 C   0  0  0  0  0  0  0  0  0  0  0  0
    7.7553  -14.1062   25.3165 C   0  0  0  0  0  0  0  0  0  0  0  0
    6.4943  -13.8718   25.9497 C   0  0  0  0  0  0  0  0  0  0  0  0
    6.4892  -12.3455   26.0743 C   0  0  1  0  0  0  0  0  0  0  0  0
    7.9125  -12.0801   26.4915 C   0  0  0  0  0  0  0  0  0  0  0  0
    8.6963  -13.3103   26.1498 O   0  0  0  0  0  0  0  0  0  0  0  0
    8.9929  -14.1462   27.3343 O   0  0  0  0  0  0  0  0  0  0  0  0
  2  1  1  0
  3  2  2  0
  4  2  1  0
  5  4  1  0
  6  5  1  0
  7  6  1  0
  8  9  1  6
  8  7  1  0
 10 11  2  0
 10  8  1  0
 12 13  1  0
 13 15  1  0
 13 14  2  0
 15 16  1  0
 17 16  1  0
 17 18  1  0
 19 18  1  6
 19 21  1  0
 19 20  1  0
 20 10  1  0
 21 23  1  0
 22 21  2  0
 23 27  1  0
 24 23  1  0
 25 24  1  0
 25 26  1  0
 26 27  1  0
 27 28  1  1
 28 30  2  0
 28 29  1  0
M  END
$$$$
