RRP.pdb
     RDKit          3D

 30 30  0  0  1  0  0  0  0  0999 V2000
    8.2405  -11.9174   19.5958 N   0  0  0  0  0  0  0  0  0  0  0  0
    9.3886  -12.4430   18.9662 C   0  0  0  0  0  0  0  0  0  0  0  0
   10.5891  -12.0894   19.2600 N   0  0  0  0  0  0  0  0  0  0  0  0
    9.1985  -13.4146   17.9561 N   0  0  0  0  0  0  0  0  0  0  0  0
    8.1496  -14.4141   18.1743 C   0  0  0  0  0  0  0  0  0  0  0  0
    7.6136  -14.3129   19.5713 C   0  0  0  0  0  0  0  0  0  0  0  0
    6.5853  -15.3340   19.8437 C   0  0  0  0  0  0  0  0  0  0  0  0
    7.0071  -16.6218   20.4752 C   0  0  2  0  0  0  0  0  0  0  0  0
    6.4448  -17.8078   19.9175 N   0  0  0  0  0  0  0  0  0  0  0  0
    6.7313  -16.4878   21.9335 C   0  0  0  0  0  0  0  0  0  0  0  0
    5.5594  -16.1681   22.2813 O   0  0  0  0  0  0  0  0  0  0  0  0
   11.4166  -12.4545   18.7228 N   0  0  0  0  0  0  0  0  0  0  0  0
    8.2164  -21.9696   28.9995 C   0  0  0  0  0  0  0  0  0  0  0  0
    7.2983  -21.1682   28.2491 N   0  0  0  0  0  0  0  0  0  0  0  0
    6.1251  -21.6323   28.0562 N   0  0  0  0  0  0  0  0  0  0  0  0
    7.7093  -19.9253   27.7602 C   0  0  0  0  0  0  0  0  0  0  0  0
    6.7338  -19.0358   27.1239 C   0  0  0  0  0  0  0  0  0  0  0  0
    7.4023  -17.8076   26.5930 C   0  0  0  0  0  0  0  0  0  0  0  0
    7.4795  -17.7633   25.1233 C   0  0  1  0  0  0  0  0  0  0  0  0
    7.3256  -16.5116   24.3887 N   0  0  0  0  0  0  0  0  0  0  0  0
    7.6679  -16.6860   22.9660 C   0  0  0  0  0  0  0  0  0  0  0  0
    8.0285  -15.3257   24.8503 O   0  0  0  0  0  0  0  0  0  0  0  0
    9.1918  -15.0632   24.3124 N   0  0  0  0  0  0  0  0  0  0  0  0
    5.3403  -21.1804   27.5722 C   0  0  0  0  0  0  0  0  0  0  0  0
    7.5759  -14.4182   25.8322 C   0  0  0  0  0  0  0  0  0  0  0  0
    6.3424  -14.2054   26.5242 C   0  0  0  0  0  0  0  0  0  0  0  0
    6.1185  -12.7065   26.3048 C   0  0  1  0  0  0  0  0  0  0  0  0
    7.5124  -12.1694   26.5023 C   0  0  0  0  0  0  0  0  0  0  0  0
    8.4445  -13.3341   26.3647 O   0  0  0  0  0  0  0  0  0  0  0  0
    8.9459  -13.8219   27.6686 O   0  0  0  0  0  0  0  0  0  0  0  0
  2  1  1  0
  3  2  2  0
  4  2  1  0
  5  4  1  0
  6  5  1  0
  7  6  1  0
  8  9  1  6
  8  7  1  0
 10 11  2  0
 10  8  1  0
 12 13  1  0
 13 15  1  0
 13 14  2  0
 15 16  1  0
 17 16  1  0
 17 18  1  0
 19 18  1  6
 19 21  1  0
 19 20  1  0
 20 10  1  0
 21 23  1  0
 22 21  2  0
 23 27  1  0
 24 23  1  0
 25 24  1  0
 25 26  1  0
 26 27  1  0
 27 28  1  1
 28 30  2  0
 28 29  1  0
M  END
$$$$
