RRP.pdb
     RDKit          3D

 30 30  0  0  1  0  0  0  0  0999 V2000
    8.7149  -13.3504   17.8470 N   0  0  0  0  0  0  0  0  0  0  0  0
    8.6207  -12.6958   19.0934 C   0  0  0  0  0  0  0  0  0  0  0  0
    8.8803  -11.4488   19.2665 N   0  0  0  0  0  0  0  0  0  0  0  0
    8.2157  -13.4630   20.2105 N   0  0  0  0  0  0  0  0  0  0  0  0
    8.1568  -14.9171   20.0411 C   0  0  0  0  0  0  0  0  0  0  0  0
    6.8091  -15.3295   19.5283 C   0  0  0  0  0  0  0  0  0  0  0  0
    5.9551  -15.8778   20.5981 C   0  0  0  0  0  0  0  0  0  0  0  0
    6.3721  -17.1499   21.2635 C   0  0  2  0  0  0  0  0  0  0  0  0
    5.5692  -18.2954   20.9862 N   0  0  0  0  0  0  0  0  0  0  0  0
    6.4643  -16.8541   22.7211 C   0  0  0  0  0  0  0  0  0  0  0  0
    5.4843  -16.2693   23.2634 O   0  0  0  0  0  0  0  0  0  0  0  0
    8.8998  -11.0195   20.2267 N   0  0  0  0  0  0  0  0  0  0  0  0
   10.7218  -16.3182   30.1389 C   0  0  0  0  0  0  0  0  0  0  0  0
   10.1040  -17.5708   29.8264 N   0  0  0  0  0  0  0  0  0  0  0  0
    9.2252  -18.0181   30.6367 N   0  0  0  0  0  0  0  0  0  0  0  0
   10.4769  -18.2517   28.6645 C   0  0  0  0  0  0  0  0  0  0  0  0
    9.4455  -18.7318   27.7406 C   0  0  0  0  0  0  0  0  0  0  0  0
    8.6881  -17.5859   27.1486 C   0  0  0  0  0  0  0  0  0  0  0  0
    8.1891  -17.8453   25.7878 C   0  0  1  0  0  0  0  0  0  0  0  0
    7.6026  -16.7842   24.9753 N   0  0  0  0  0  0  0  0  0  0  0  0
    7.5551  -17.1696   23.5537 C   0  0  0  0  0  0  0  0  0  0  0  0
    8.1726  -15.4481   25.0322 O   0  0  0  0  0  0  0  0  0  0  0  0
    9.1026  -15.1486   24.1621 N   0  0  0  0  0  0  0  0  0  0  0  0
    8.5949  -18.8177   30.5044 C   0  0  0  0  0  0  0  0  0  0  0  0
    7.8186  -14.4293   25.9428 C   0  0  0  0  0  0  0  0  0  0  0  0
    6.8623  -14.3009   26.9986 C   0  0  0  0  0  0  0  0  0  0  0  0
    6.1658  -12.9884   26.6280 C   0  0  1  0  0  0  0  0  0  0  0  0
    7.3379  -12.1456   26.1964 C   0  0  0  0  0  0  0  0  0  0  0  0
    8.4672  -13.0905   25.9201 O   0  0  0  0  0  0  0  0  0  0  0  0
    9.4736  -13.1108   27.0047 O   0  0  0  0  0  0  0  0  0  0  0  0
  2  1  1  0
  3  2  2  0
  4  2  1  0
  5  4  1  0
  6  5  1  0
  7  6  1  0
  8  9  1  1
  8  7  1  0
 10 11  2  0
 10  8  1  0
 12 13  1  0
 13 15  1  0
 13 14  2  0
 15 16  1  0
 17 16  1  0
 17 18  1  0
 19 18  1  1
 19 21  1  0
 19 20  1  0
 20 10  1  0
 21 23  1  0
 22 21  2  0
 23 27  1  0
 24 23  1  0
 25 24  1  0
 25 26  1  0
 26 27  1  0
 27 28  1  1
 28 30  2  0
 28 29  1  0
M  END
$$$$
