RRP.pdb
     RDKit          3D

 30 30  0  0  1  0  0  0  0  0999 V2000
   10.8322  -16.6953   17.0305 N   0  0  0  0  0  0  0  0  0  0  0  0
    9.7719  -16.9895   16.1472 C   0  0  0  0  0  0  0  0  0  0  0  0
    9.8985  -17.0315   14.8687 N   0  0  0  0  0  0  0  0  0  0  0  0
    8.5011  -17.2529   16.7094 N   0  0  0  0  0  0  0  0  0  0  0  0
    7.7191  -16.1031   17.1709 C   0  0  0  0  0  0  0  0  0  0  0  0
    8.3471  -15.5001   18.3921 C   0  0  0  0  0  0  0  0  0  0  0  0
    8.3358  -14.0262   18.3485 C   0  0  0  0  0  0  0  0  0  0  0  0
    7.5192  -13.2879   19.3599 C   0  0  2  0  0  0  0  0  0  0  0  0
    7.9367  -11.9559   19.6519 N   0  0  0  0  0  0  0  0  0  0  0  0
    7.4679  -14.1512   20.5735 C   0  0  0  0  0  0  0  0  0  0  0  0
    6.5423  -15.0084   20.6441 O   0  0  0  0  0  0  0  0  0  0  0  0
    9.0907  -17.2852   14.2445 N   0  0  0  0  0  0  0  0  0  0  0  0
    8.2026  -21.7120   23.7692 C   0  0  0  0  0  0  0  0  0  0  0  0
    9.1522  -20.8671   24.4270 N   0  0  0  0  0  0  0  0  0  0  0  0
   10.2360  -21.4003   24.8394 N   0  0  0  0  0  0  0  0  0  0  0  0
    8.8666  -19.5094   24.5937 C   0  0  0  0  0  0  0  0  0  0  0  0
    8.8697  -18.6179   23.4305 C   0  0  0  0  0  0  0  0  0  0  0  0
    8.6749  -17.1957   23.8511 C   0  0  0  0  0  0  0  0  0  0  0  0
    8.6698  -16.2416   22.7297 C   0  0  1  0  0  0  0  0  0  0  0  0
    8.1680  -14.8803   22.8887 N   0  0  0  0  0  0  0  0  0  0  0  0
    8.3651  -14.0952   21.6572 C   0  0  0  0  0  0  0  0  0  0  0  0
    8.6557  -14.0674   23.9908 O   0  0  0  0  0  0  0  0  0  0  0  0
    9.8837  -13.6222   23.9181 N   0  0  0  0  0  0  0  0  0  0  0  0
   10.9172  -21.0117   25.5022 C   0  0  0  0  0  0  0  0  0  0  0  0
    7.9282  -13.7058   25.1451 C   0  0  0  0  0  0  0  0  0  0  0  0
    6.5926  -13.9204   25.6100 C   0  0  0  0  0  0  0  0  0  0  0  0
    6.1571  -12.4968   25.9692 C   0  0  1  0  0  0  0  0  0  0  0  0
    7.4023  -11.9672   26.6320 C   0  0  0  0  0  0  0  0  0  0  0  0
    8.5238  -12.8730   26.2244 O   0  0  0  0  0  0  0  0  0  0  0  0
    8.9133  -13.8174   27.2949 O   0  0  0  0  0  0  0  0  0  0  0  0
  2  1  1  0
  3  2  2  0
  4  2  1  0
  5  4  1  0
  6  5  1  0
  7  6  1  0
  8  9  1  1
  8  7  1  0
 10 11  2  0
 10  8  1  0
 12 13  1  0
 13 15  1  0
 13 14  2  0
 15 16  1  0
 17 16  1  0
 17 18  1  0
 19 18  1  6
 19 21  1  0
 19 20  1  0
 20 10  1  0
 21 23  1  0
 22 21  2  0
 23 27  1  0
 24 23  1  0
 25 24  1  0
 25 26  1  0
 26 27  1  0
 27 28  1  1
 28 30  2  0
 28 29  1  0
M  END
$$$$
