RRP.pdb
     RDKit          3D

 30 30  0  0  1  0  0  0  0  0999 V2000
    5.3251  -24.3729   21.3331 N   0  0  0  0  0  0  0  0  0  0  0  0
    5.7870  -24.7399   20.0513 C   0  0  0  0  0  0  0  0  0  0  0  0
    5.9682  -25.9569   19.6791 N   0  0  0  0  0  0  0  0  0  0  0  0
    6.0625  -23.7032   19.1296 N   0  0  0  0  0  0  0  0  0  0  0  0
    6.7639  -22.5214   19.6375 C   0  0  0  0  0  0  0  0  0  0  0  0
    8.0753  -22.9149   20.2496 C   0  0  0  0  0  0  0  0  0  0  0  0
    8.8120  -21.7499   20.7735 C   0  0  0  0  0  0  0  0  0  0  0  0
    9.1700  -20.6475   19.8293 C   0  0  2  0  0  0  0  0  0  0  0  0
   10.3958  -20.8045   19.1175 N   0  0  0  0  0  0  0  0  0  0  0  0
    9.1229  -19.3837   20.6175 C   0  0  0  0  0  0  0  0  0  0  0  0
   10.1508  -19.0685   21.2813 O   0  0  0  0  0  0  0  0  0  0  0  0
    6.3263  -26.1900   18.7178 N   0  0  0  0  0  0  0  0  0  0  0  0
    7.9229  -11.5832   19.7603 C   0  0  0  0  0  0  0  0  0  0  0  0
    7.9221  -12.8835   19.1625 N   0  0  0  0  0  0  0  0  0  0  0  0
    8.3936  -12.9946   17.9817 N   0  0  0  0  0  0  0  0  0  0  0  0
    7.4138  -13.9704   19.8788 C   0  0  0  0  0  0  0  0  0  0  0  0
    7.1590  -13.8386   21.3160 C   0  0  0  0  0  0  0  0  0  0  0  0
    6.7157  -15.1431   21.8984 C   0  0  0  0  0  0  0  0  0  0  0  0
    7.0814  -16.3118   21.0809 C   0  0  1  0  0  0  0  0  0  0  0  0
    8.0187  -17.3195   21.5669 N   0  0  0  0  0  0  0  0  0  0  0  0
    8.0262  -18.5037   20.6898 C   0  0  0  0  0  0  0  0  0  0  0  0
    7.8956  -17.8050   22.9316 O   0  0  0  0  0  0  0  0  0  0  0  0
    7.4594  -19.0265   23.1030 N   0  0  0  0  0  0  0  0  0  0  0  0
    8.4932  -13.8487   17.4206 C   0  0  0  0  0  0  0  0  0  0  0  0
    8.2035  -17.0821   24.1042 C   0  0  0  0  0  0  0  0  0  0  0  0
    8.5462  -15.7248   24.3975 C   0  0  0  0  0  0  0  0  0  0  0  0
    9.8166  -15.8998   25.2346 C   0  0  1  0  0  0  0  0  0  0  0  0
    9.4382  -17.0733   26.1007 C   0  0  0  0  0  0  0  0  0  0  0  0
    8.2679  -17.7348   25.4395 O   0  0  0  0  0  0  0  0  0  0  0  0
    6.9836  -17.4216   26.1045 O   0  0  0  0  0  0  0  0  0  0  0  0
  2  1  1  0
  3  2  2  0
  4  2  1  0
  5  4  1  0
  6  5  1  0
  7  6  1  0
  8  9  1  1
  8  7  1  0
 10 11  2  0
 10  8  1  0
 12 13  1  0
 13 15  1  0
 13 14  2  0
 15 16  1  0
 17 16  1  0
 17 18  1  0
 19 18  1  6
 19 21  1  0
 19 20  1  0
 20 10  1  0
 21 23  1  0
 22 21  2  0
 23 27  1  0
 24 23  1  0
 25 24  1  0
 25 26  1  0
 26 27  1  0
 27 28  1  1
 28 30  2  0
 28 29  1  0
M  END
$$$$
