RRP.pdb
     RDKit          3D

 30 30  0  0  1  0  0  0  0  0999 V2000
    9.6990  -24.1321   27.4574 N   0  0  0  0  0  0  0  0  0  0  0  0
    9.3617  -24.7475   26.2333 C   0  0  0  0  0  0  0  0  0  0  0  0
    8.6001  -25.7788   26.1385 N   0  0  0  0  0  0  0  0  0  0  0  0
    9.8954  -24.1905   25.0478 N   0  0  0  0  0  0  0  0  0  0  0  0
    9.1571  -23.0840   24.4338 C   0  0  0  0  0  0  0  0  0  0  0  0
    9.5204  -21.7852   25.0899 C   0  0  0  0  0  0  0  0  0  0  0  0
   10.4876  -21.0130   24.2883 C   0  0  0  0  0  0  0  0  0  0  0  0
   10.1260  -20.6557   22.8824 C   0  0  2  0  0  0  0  0  0  0  0  0
   11.0853  -20.9936   21.8827 N   0  0  0  0  0  0  0  0  0  0  0  0
    9.7915  -19.2036   22.8879 C   0  0  0  0  0  0  0  0  0  0  0  0
   10.5091  -18.4396   23.5934 O   0  0  0  0  0  0  0  0  0  0  0  0
    8.3043  -26.1595   25.2035 N   0  0  0  0  0  0  0  0  0  0  0  0
    7.1048  -12.0572   19.2043 C   0  0  0  0  0  0  0  0  0  0  0  0
    8.3701  -12.7173   19.0968 N   0  0  0  0  0  0  0  0  0  0  0  0
    9.3927  -12.0015   18.8307 N   0  0  0  0  0  0  0  0  0  0  0  0
    8.4433  -14.1003   19.2832 C   0  0  0  0  0  0  0  0  0  0  0  0
    7.2262  -14.8582   19.5867 C   0  0  0  0  0  0  0  0  0  0  0  0
    7.2216  -15.3059   21.0139 C   0  0  0  0  0  0  0  0  0  0  0  0
    7.5717  -16.7251   21.1908 C   0  0  2  0  0  0  0  0  0  0  0  0
    8.4121  -17.1712   22.2975 N   0  0  0  0  0  0  0  0  0  0  0  0
    8.7380  -18.6029   22.1724 C   0  0  0  0  0  0  0  0  0  0  0  0
    7.9611  -16.9581   23.6630 O   0  0  0  0  0  0  0  0  0  0  0  0
    7.6618  -18.0148   24.3740 N   0  0  0  0  0  0  0  0  0  0  0  0
   10.3688  -12.3064   18.7390 C   0  0  0  0  0  0  0  0  0  0  0  0
    7.8124  -15.7105   24.3064 C   0  0  0  0  0  0  0  0  0  0  0  0
    7.9744  -14.3437   23.9172 C   0  0  0  0  0  0  0  0  0  0  0  0
    8.8818  -13.8103   25.0295 C   0  0  1  0  0  0  0  0  0  0  0  0
    8.2764  -14.4674   26.2428 C   0  0  0  0  0  0  0  0  0  0  0  0
    7.4371  -15.6029   25.7419 O   0  0  0  0  0  0  0  0  0  0  0  0
    5.9899  -15.2947   25.7591 O   0  0  0  0  0  0  0  0  0  0  0  0
  2  1  1  0
  3  2  2  0
  4  2  1  0
  5  4  1  0
  6  5  1  0
  7  6  1  0
  8  9  1  6
  8  7  1  0
 10 11  2  0
 10  8  1  0
 12 13  1  0
 13 15  1  0
 13 14  2  0
 15 16  1  0
 17 16  1  0
 17 18  1  0
 19 18  1  6
 19 21  1  0
 19 20  1  0
 20 10  1  0
 21 23  1  0
 22 21  2  0
 23 27  1  0
 24 23  1  0
 25 24  1  0
 25 26  1  0
 26 27  1  0
 27 28  1  1
 28 30  2  0
 28 29  1  0
M  END
$$$$
