RRP.pdb
     RDKit          3D

 30 30  0  0  1  0  0  0  0  0999 V2000
   15.0964  -18.0504   21.8069 N   0  0  0  0  0  0  0  0  0  0  0  0
   14.9670  -18.9050   20.6916 C   0  0  0  0  0  0  0  0  0  0  0  0
   15.9517  -19.5349   20.1568 N   0  0  0  0  0  0  0  0  0  0  0  0
   13.6765  -19.0731   20.1378 N   0  0  0  0  0  0  0  0  0  0  0  0
   12.5598  -18.4204   20.8259 C   0  0  0  0  0  0  0  0  0  0  0  0
   12.2218  -17.1210   20.1576 C   0  0  0  0  0  0  0  0  0  0  0  0
   11.1695  -16.3846   20.8820 C   0  0  0  0  0  0  0  0  0  0  0  0
    9.7449  -16.5949   20.4804 C   0  0  2  0  0  0  0  0  0  0  0  0
    9.3668  -16.0679   19.2103 N   0  0  0  0  0  0  0  0  0  0  0  0
    8.9089  -16.0629   21.5934 C   0  0  0  0  0  0  0  0  0  0  0  0
    8.6214  -14.8327   21.5739 O   0  0  0  0  0  0  0  0  0  0  0  0
   15.8220  -20.1323   19.3007 N   0  0  0  0  0  0  0  0  0  0  0  0
    8.4448  -19.2311   28.8179 C   0  0  0  0  0  0  0  0  0  0  0  0
    7.3945  -19.9097   28.1218 N   0  0  0  0  0  0  0  0  0  0  0  0
    7.3715  -21.1846   28.1782 N   0  0  0  0  0  0  0  0  0  0  0  0
    6.4448  -19.1673   27.4149 C   0  0  0  0  0  0  0  0  0  0  0  0
    6.6116  -18.9577   25.9741 C   0  0  0  0  0  0  0  0  0  0  0  0
    6.4256  -17.5158   25.6223 C   0  0  0  0  0  0  0  0  0  0  0  0
    6.5664  -17.2339   24.1840 C   0  0  1  0  0  0  0  0  0  0  0  0
    7.5120  -16.2375   23.6910 N   0  0  0  0  0  0  0  0  0  0  0  0
    8.4083  -16.8147   22.6735 C   0  0  0  0  0  0  0  0  0  0  0  0
    8.3525  -15.5250   24.6394 O   0  0  0  0  0  0  0  0  0  0  0  0
    9.6301  -15.8066   24.6473 N   0  0  0  0  0  0  0  0  0  0  0  0
    6.6984  -21.8229   27.7381 C   0  0  0  0  0  0  0  0  0  0  0  0
    7.9230  -14.5480   25.5633 C   0  0  0  0  0  0  0  0  0  0  0  0
    6.6575  -14.0041   25.9484 C   0  0  0  0  0  0  0  0  0  0  0  0
    6.9169  -12.4998   25.8270 C   0  0  1  0  0  0  0  0  0  0  0  0
    8.3014  -12.3923   26.4118 C   0  0  0  0  0  0  0  0  0  0  0  0
    8.8825  -13.7731   26.3952 O   0  0  0  0  0  0  0  0  0  0  0  0
    8.8705  -14.4142   27.7287 O   0  0  0  0  0  0  0  0  0  0  0  0
  2  1  1  0
  3  2  2  0
  4  2  1  0
  5  4  1  0
  6  5  1  0
  7  6  1  0
  8  9  1  6
  8  7  1  0
 10 11  2  0
 10  8  1  0
 12 13  1  0
 13 15  1  0
 13 14  2  0
 15 16  1  0
 17 16  1  0
 17 18  1  0
 19 18  1  6
 19 21  1  0
 19 20  1  0
 20 10  1  0
 21 23  1  0
 22 21  2  0
 23 27  1  0
 24 23  1  0
 25 24  1  0
 25 26  1  0
 26 27  1  0
 27 28  1  1
 28 30  2  0
 28 29  1  0
M  END
$$$$
