DEF.pdb
     RDKit          3D

 29 29  0  0  1  0  0  0  0  0999 V2000
    9.5956  -12.9663   19.8452 N   0  0  0  0  0  0  0  0  0  0  0  0
    8.2075  -13.2472   20.1590 C   0  0  1  0  0  0  0  0  0  0  0  0
    7.4552  -13.3389   18.8616 C   0  0  0  0  0  0  0  0  0  0  0  0
    8.2105  -14.2950   17.9821 C   0  0  0  0  0  0  0  0  0  0  0  0
    9.2568  -14.8886   18.3933 O   0  0  0  0  0  0  0  0  0  0  0  0
    8.0738  -14.4509   20.9980 C   0  0  0  0  0  0  0  0  0  0  0  0
    6.9180  -14.7895   21.3948 O   0  0  0  0  0  0  0  0  0  0  0  0
    7.8109  -14.5798   16.6850 O   0  0  0  0  0  0  0  0  0  0  0  0
    9.1511  -15.2674   21.3992 N   0  0  0  0  0  0  0  0  0  0  0  0
    9.0368  -16.4090   22.2913 C   0  0  1  0  0  0  0  0  0  0  0  0
    9.8410  -17.5787   21.8354 C   0  0  0  0  0  0  0  0  0  0  0  0
   10.5578  -17.4334   20.5473 C   0  0  0  0  0  0  0  0  0  0  0  0
   11.4887  -18.5453   20.2907 C   0  0  0  0  0  0  0  0  0  0  0  0
   11.1416  -19.7209   20.1497 O   0  0  0  0  0  0  0  0  0  0  0  0
    9.4096  -16.0363   23.6851 C   0  0  0  0  0  0  0  0  0  0  0  0
   10.4668  -15.3931   23.8637 O   0  0  0  0  0  0  0  0  0  0  0  0
   12.8688  -18.2710   20.1966 O   0  0  0  0  0  0  0  0  0  0  0  0
    8.6302  -16.3722   24.8147 N   0  0  0  0  0  0  0  0  0  0  0  0
    9.0418  -16.0872   26.1643 C   0  0  1  0  0  0  0  0  0  0  0  0
    7.9328  -15.5167   27.0130 C   0  0  0  0  0  0  0  0  0  0  0  0
    7.6055  -14.1200   26.6387 C   0  0  0  0  0  0  0  0  0  0  0  0
    8.4208  -13.0430   26.9111 C   0  0  0  0  0  0  0  0  0  0  0  0
    8.0992  -11.7520   26.5558 C   0  0  0  0  0  0  0  0  0  0  0  0
    6.9137  -11.5005   25.8972 C   0  0  0  0  0  0  0  0  0  0  0  0
    6.0868  -12.5677   25.6171 C   0  0  0  0  0  0  0  0  0  0  0  0
    6.4208  -13.8529   25.9781 C   0  0  0  0  0  0  0  0  0  0  0  0
    9.5720  -17.3169   26.8399 C   0  0  0  0  0  0  0  0  0  0  0  0
    9.4287  -18.4543   26.3343 O   0  0  0  0  0  0  0  0  0  0  0  0
   10.2430  -17.2507   28.0510 O   0  0  0  0  0  0  0  0  0  0  0  0
  2  3  1  0
  2  1  1  6
  3  4  1  0
  4  5  2  0
  4  8  1  0
  6  2  1  0
  7  6  2  0
  9  6  1  0
 10  9  1  0
 10 11  1  6
 12 11  1  0
 13 12  1  0
 13 14  2  0
 15 18  1  0
 15 10  1  0
 16 15  2  0
 17 13  1  0
 19 18  1  0
 19 20  1  1
 21 26  2  0
 21 20  1  0
 22 21  1  0
 23 24  1  0
 23 22  2  0
 24 25  2  0
 25 26  1  0
 27 19  1  0
 28 27  2  0
 29 27  1  0
M  END
$$$$
