DEF.pdb
     RDKit          3D

 29 29  0  0  1  0  0  0  0  0999 V2000
    8.7792  -16.5559   17.9808 N   0  0  0  0  0  0  0  0  0  0  0  0
    9.0009  -15.4928   18.9425 C   0  0  1  0  0  0  0  0  0  0  0  0
    7.9083  -14.4775   18.7611 C   0  0  0  0  0  0  0  0  0  0  0  0
    8.1041  -13.8583   17.4059 C   0  0  0  0  0  0  0  0  0  0  0  0
    9.0213  -14.2571   16.6211 O   0  0  0  0  0  0  0  0  0  0  0  0
    9.0908  -16.0149   20.3172 C   0  0  0  0  0  0  0  0  0  0  0  0
    8.0247  -16.3775   20.9002 O   0  0  0  0  0  0  0  0  0  0  0  0
    7.3018  -12.8270   16.9412 O   0  0  0  0  0  0  0  0  0  0  0  0
   10.2917  -16.1437   21.0448 N   0  0  0  0  0  0  0  0  0  0  0  0
   10.4476  -16.9400   22.2506 C   0  0  1  0  0  0  0  0  0  0  0  0
   11.8400  -17.4401   22.4343 C   0  0  0  0  0  0  0  0  0  0  0  0
   12.1665  -18.7458   21.8155 C   0  0  0  0  0  0  0  0  0  0  0  0
   13.4930  -18.7513   21.1758 C   0  0  0  0  0  0  0  0  0  0  0  0
   13.6983  -19.0980   20.0096 O   0  0  0  0  0  0  0  0  0  0  0  0
   10.0083  -16.1780   23.4535 C   0  0  0  0  0  0  0  0  0  0  0  0
   10.3516  -14.9799   23.5538 O   0  0  0  0  0  0  0  0  0  0  0  0
   14.6132  -18.3380   21.9261 O   0  0  0  0  0  0  0  0  0  0  0  0
    9.2243  -16.7395   24.4861 N   0  0  0  0  0  0  0  0  0  0  0  0
    8.7638  -15.9830   25.6208 C   0  0  1  0  0  0  0  0  0  0  0  0
    7.3429  -15.4988   25.4719 C   0  0  0  0  0  0  0  0  0  0  0  0
    7.2382  -14.0260   25.6066 C   0  0  0  0  0  0  0  0  0  0  0  0
    7.7235  -13.1352   24.6740 C   0  0  0  0  0  0  0  0  0  0  0  0
    7.6172  -11.7697   24.8171 C   0  0  0  0  0  0  0  0  0  0  0  0
    7.0019  -11.2463   25.9351 C   0  0  0  0  0  0  0  0  0  0  0  0
    6.5108  -12.1247   26.8778 C   0  0  0  0  0  0  0  0  0  0  0  0
    6.6239  -13.4872   26.7218 C   0  0  0  0  0  0  0  0  0  0  0  0
    8.8615  -16.7870   26.8834 C   0  0  0  0  0  0  0  0  0  0  0  0
    8.9476  -18.0367   26.8581 O   0  0  0  0  0  0  0  0  0  0  0  0
    8.8610  -16.1851   28.1321 O   0  0  0  0  0  0  0  0  0  0  0  0
  2  3  1  0
  2  1  1  6
  3  4  1  0
  4  5  2  0
  4  8  1  0
  6  2  1  0
  7  6  2  0
  9  6  1  0
 10  9  1  0
 10 11  1  1
 12 11  1  0
 13 12  1  0
 13 14  2  0
 15 18  1  0
 15 10  1  0
 16 15  2  0
 17 13  1  0
 19 18  1  0
 19 20  1  6
 21 26  2  0
 21 20  1  0
 22 21  1  0
 23 24  1  0
 23 22  2  0
 24 25  2  0
 25 26  1  0
 27 19  1  0
 28 27  2  0
 29 27  1  0
M  END
$$$$
