DEF.pdb
     RDKit          3D

 29 29  0  0  1  0  0  0  0  0999 V2000
    9.6703  -15.5384   19.5497 N   0  0  0  0  0  0  0  0  0  0  0  0
    8.3364  -15.2913   20.0631 C   0  0  1  0  0  0  0  0  0  0  0  0
    7.3545  -15.8411   19.0675 C   0  0  0  0  0  0  0  0  0  0  0  0
    7.8111  -15.3946   17.7072 C   0  0  0  0  0  0  0  0  0  0  0  0
    8.0303  -14.1689   17.4508 O   0  0  0  0  0  0  0  0  0  0  0  0
    8.1656  -15.8439   21.4182 C   0  0  0  0  0  0  0  0  0  0  0  0
    7.0217  -15.7776   21.9615 O   0  0  0  0  0  0  0  0  0  0  0  0
    8.0166  -16.2875   16.6661 O   0  0  0  0  0  0  0  0  0  0  0  0
    9.1943  -16.4504   22.1680 N   0  0  0  0  0  0  0  0  0  0  0  0
    9.0080  -17.0995   23.4549 C   0  0  1  0  0  0  0  0  0  0  0  0
    9.5705  -18.4797   23.4904 C   0  0  0  0  0  0  0  0  0  0  0  0
   11.0111  -18.6207   23.1753 C   0  0  0  0  0  0  0  0  0  0  0  0
   11.4834  -20.0098   23.3024 C   0  0  0  0  0  0  0  0  0  0  0  0
   10.9742  -20.9707   22.7195 O   0  0  0  0  0  0  0  0  0  0  0  0
    9.5849  -16.2771   24.5556 C   0  0  0  0  0  0  0  0  0  0  0  0
   10.6948  -15.7325   24.3690 O   0  0  0  0  0  0  0  0  0  0  0  0
   12.5863  -20.2809   24.1384 O   0  0  0  0  0  0  0  0  0  0  0  0
    8.9425  -16.0811   25.7986 N   0  0  0  0  0  0  0  0  0  0  0  0
    9.4803  -15.2398   26.8353 C   0  0  1  0  0  0  0  0  0  0  0  0
    8.4227  -14.4458   27.5611 C   0  0  0  0  0  0  0  0  0  0  0  0
    7.7688  -13.4499   26.6786 C   0  0  0  0  0  0  0  0  0  0  0  0
    6.4029  -13.3179   26.5530 C   0  0  0  0  0  0  0  0  0  0  0  0
    5.8137  -12.3867   25.7272 C   0  0  0  0  0  0  0  0  0  0  0  0
    6.6049  -11.5370   24.9826 C   0  0  0  0  0  0  0  0  0  0  0  0
    7.9738  -11.6564   25.0972 C   0  0  0  0  0  0  0  0  0  0  0  0
    8.5491  -12.5917   25.9265 C   0  0  0  0  0  0  0  0  0  0  0  0
   10.2450  -16.0449   27.8438 C   0  0  0  0  0  0  0  0  0  0  0  0
   10.2645  -17.2970   27.8025 O   0  0  0  0  0  0  0  0  0  0  0  0
   10.9630  -15.4414   28.8644 O   0  0  0  0  0  0  0  0  0  0  0  0
  2  3  1  0
  2  1  1  6
  3  4  1  0
  4  5  2  0
  4  8  1  0
  6  2  1  0
  7  6  2  0
  9  6  1  0
 10  9  1  0
 10 11  1  6
 12 11  1  0
 13 12  1  0
 13 14  2  0
 15 18  1  0
 15 10  1  0
 16 15  2  0
 17 13  1  0
 19 18  1  0
 19 20  1  1
 21 26  2  0
 21 20  1  0
 22 21  1  0
 23 24  1  0
 23 22  2  0
 24 25  2  0
 25 26  1  0
 27 19  1  0
 28 27  2  0
 29 27  1  0
M  END
$$$$
