DEF.pdb
     RDKit          3D

 29 29  0  0  1  0  0  0  0  0999 V2000
    6.9291  -16.5611   18.8588 N   0  0  0  0  0  0  0  0  0  0  0  0
    7.8542  -15.7601   19.6378 C   0  0  1  0  0  0  0  0  0  0  0  0
    7.8238  -14.3622   19.0875 C   0  0  0  0  0  0  0  0  0  0  0  0
    8.4813  -14.4071   17.7370 C   0  0  0  0  0  0  0  0  0  0  0  0
    8.9647  -15.4864   17.2705 O   0  0  0  0  0  0  0  0  0  0  0  0
    7.5505  -15.8276   21.0779 C   0  0  0  0  0  0  0  0  0  0  0  0
    6.6320  -15.0858   21.5405 O   0  0  0  0  0  0  0  0  0  0  0  0
    8.5957  -13.2832   16.9326 O   0  0  0  0  0  0  0  0  0  0  0  0
    8.2148  -16.6680   21.9948 N   0  0  0  0  0  0  0  0  0  0  0  0
    7.8396  -16.8318   23.3893 C   0  0  1  0  0  0  0  0  0  0  0  0
    7.4079  -18.2224   23.7098 C   0  0  0  0  0  0  0  0  0  0  0  0
    6.2314  -18.7413   22.9743 C   0  0  0  0  0  0  0  0  0  0  0  0
    5.9169  -20.1366   23.3250 C   0  0  0  0  0  0  0  0  0  0  0  0
    5.6705  -21.0198   22.4994 O   0  0  0  0  0  0  0  0  0  0  0  0
    8.9482  -16.4129   24.2927 C   0  0  0  0  0  0  0  0  0  0  0  0
   10.1039  -16.8173   24.0392 O   0  0  0  0  0  0  0  0  0  0  0  0
    5.8903  -20.5082   24.6851 O   0  0  0  0  0  0  0  0  0  0  0  0
    8.7607  -15.5827   25.4204 N   0  0  0  0  0  0  0  0  0  0  0  0
    9.8351  -15.1951   26.2963 C   0  0  1  0  0  0  0  0  0  0  0  0
    9.8461  -13.7178   26.6014 C   0  0  0  0  0  0  0  0  0  0  0  0
    8.4824  -13.1868   26.8388 C   0  0  0  0  0  0  0  0  0  0  0  0
    8.0192  -12.7905   28.0746 C   0  0  0  0  0  0  0  0  0  0  0  0
    6.7482  -12.3000   28.2755 C   0  0  0  0  0  0  0  0  0  0  0  0
    5.8818  -12.1911   27.2078 C   0  0  0  0  0  0  0  0  0  0  0  0
    6.3304  -12.5836   25.9644 C   0  0  0  0  0  0  0  0  0  0  0  0
    7.6033  -13.0720   25.7781 C   0  0  0  0  0  0  0  0  0  0  0  0
    9.7751  -15.9472   27.5927 C   0  0  0  0  0  0  0  0  0  0  0  0
    8.8034  -16.6857   27.8761 O   0  0  0  0  0  0  0  0  0  0  0  0
   10.7894  -15.8594   28.5334 O   0  0  0  0  0  0  0  0  0  0  0  0
  2  3  1  0
  2  1  1  6
  3  4  1  0
  4  5  2  0
  4  8  1  0
  6  2  1  0
  7  6  2  0
  9  6  1  0
 10  9  1  0
 10 11  1  6
 12 11  1  0
 13 12  1  0
 13 14  2  0
 15 18  1  0
 15 10  1  0
 16 15  2  0
 17 13  1  0
 19 18  1  0
 19 20  1  1
 21 26  2  0
 21 20  1  0
 22 21  1  0
 23 24  1  0
 23 22  2  0
 24 25  2  0
 25 26  1  0
 27 19  1  0
 28 27  2  0
 29 27  1  0
M  END
$$$$
