DEF.pdb
     RDKit          3D

 29 29  0  0  1  0  0  0  0  0999 V2000
    7.5683  -16.5394   17.9852 N   0  0  0  0  0  0  0  0  0  0  0  0
    8.4916  -15.7408   18.7686 C   0  0  1  0  0  0  0  0  0  0  0  0
    8.0028  -14.3202   18.7426 C   0  0  0  0  0  0  0  0  0  0  0  0
    8.0988  -13.8483   17.3190 C   0  0  0  0  0  0  0  0  0  0  0  0
    8.5800  -14.5902   16.4057 O   0  0  0  0  0  0  0  0  0  0  0  0
    8.6528  -16.2780   20.1310 C   0  0  0  0  0  0  0  0  0  0  0  0
    7.6193  -16.6559   20.7612 O   0  0  0  0  0  0  0  0  0  0  0  0
    7.6712  -12.5886   16.9271 O   0  0  0  0  0  0  0  0  0  0  0  0
    9.8890  -16.4057   20.7971 N   0  0  0  0  0  0  0  0  0  0  0  0
   10.0895  -17.1376   22.0367 C   0  0  1  0  0  0  0  0  0  0  0  0
   11.4565  -17.7226   22.1453 C   0  0  0  0  0  0  0  0  0  0  0  0
   11.8261  -18.7445   21.1386 C   0  0  0  0  0  0  0  0  0  0  0  0
   13.2766  -18.7911   20.8878 C   0  0  0  0  0  0  0  0  0  0  0  0
   14.1062  -18.1047   21.4902 O   0  0  0  0  0  0  0  0  0  0  0  0
    9.7999  -16.2760   23.2176 C   0  0  0  0  0  0  0  0  0  0  0  0
   10.3475  -15.1537   23.2805 O   0  0  0  0  0  0  0  0  0  0  0  0
   13.7698  -19.6693   19.9007 O   0  0  0  0  0  0  0  0  0  0  0  0
    8.9389  -16.6619   24.2692 N   0  0  0  0  0  0  0  0  0  0  0  0
    8.7638  -15.8813   25.4658 C   0  0  1  0  0  0  0  0  0  0  0  0
    7.3360  -15.4466   25.6850 C   0  0  0  0  0  0  0  0  0  0  0  0
    7.2305  -13.9929   25.9564 C   0  0  0  0  0  0  0  0  0  0  0  0
    8.1432  -13.0622   25.5096 C   0  0  0  0  0  0  0  0  0  0  0  0
    8.0285  -11.7154   25.7726 C   0  0  0  0  0  0  0  0  0  0  0  0
    6.9614  -11.2530   26.5141 C   0  0  0  0  0  0  0  0  0  0  0  0
    6.0391  -12.1719   26.9685 C   0  0  0  0  0  0  0  0  0  0  0  0
    6.1662  -13.5152   26.6982 C   0  0  0  0  0  0  0  0  0  0  0  0
    9.2210  -16.6378   26.6776 C   0  0  0  0  0  0  0  0  0  0  0  0
    9.2287  -16.1100   27.8139 O   0  0  0  0  0  0  0  0  0  0  0  0
    9.6545  -17.9519   26.5954 O   0  0  0  0  0  0  0  0  0  0  0  0
  2  3  1  0
  2  1  1  6
  3  4  1  0
  4  5  2  0
  4  8  1  0
  6  2  1  0
  7  6  2  0
  9  6  1  0
 10  9  1  0
 10 11  1  1
 12 11  1  0
 13 12  1  0
 13 14  2  0
 15 18  1  0
 15 10  1  0
 16 15  2  0
 17 13  1  0
 19 18  1  0
 19 20  1  1
 21 26  2  0
 21 20  1  0
 22 21  1  0
 23 24  1  0
 23 22  2  0
 24 25  2  0
 25 26  1  0
 27 19  1  0
 28 27  2  0
 29 27  1  0
M  END
$$$$
