DEF.pdb
     RDKit          3D

 29 29  0  0  1  0  0  0  0  0999 V2000
    8.5577  -16.2797   19.4441 N   0  0  0  0  0  0  0  0  0  0  0  0
    8.5361  -15.3712   20.5747 C   0  0  1  0  0  0  0  0  0  0  0  0
    7.1600  -14.7729   20.6539 C   0  0  0  0  0  0  0  0  0  0  0  0
    6.8484  -14.2058   19.2977 C   0  0  0  0  0  0  0  0  0  0  0  0
    5.7648  -13.5797   19.0739 O   0  0  0  0  0  0  0  0  0  0  0  0
    8.9537  -16.0422   21.8180 C   0  0  0  0  0  0  0  0  0  0  0  0
    8.0722  -16.6237   22.5201 O   0  0  0  0  0  0  0  0  0  0  0  0
    7.7183  -14.3331   18.2251 O   0  0  0  0  0  0  0  0  0  0  0  0
   10.2805  -16.0873   22.2934 N   0  0  0  0  0  0  0  0  0  0  0  0
   10.7321  -16.8997   23.4107 C   0  0  1  0  0  0  0  0  0  0  0  0
   12.1688  -17.2823   23.3007 C   0  0  0  0  0  0  0  0  0  0  0  0
   12.5567  -18.0821   22.1157 C   0  0  0  0  0  0  0  0  0  0  0  0
   14.0168  -18.1555   21.9376 C   0  0  0  0  0  0  0  0  0  0  0  0
   14.5875  -18.0592   20.8479 O   0  0  0  0  0  0  0  0  0  0  0  0
   10.4776  -16.2115   24.7077 C   0  0  0  0  0  0  0  0  0  0  0  0
   11.0219  -15.1037   24.9074 O   0  0  0  0  0  0  0  0  0  0  0  0
   14.8330  -18.3478   23.0714 O   0  0  0  0  0  0  0  0  0  0  0  0
    9.6534  -16.7462   25.7231 N   0  0  0  0  0  0  0  0  0  0  0  0
    9.5080  -16.1351   27.0181 C   0  0  1  0  0  0  0  0  0  0  0  0
    8.0866  -15.7357   27.3277 C   0  0  0  0  0  0  0  0  0  0  0  0
    7.6849  -14.5016   26.6109 C   0  0  0  0  0  0  0  0  0  0  0  0
    6.8813  -14.4931   25.4916 C   0  0  0  0  0  0  0  0  0  0  0  0
    6.5193  -13.3360   24.8388 C   0  0  0  0  0  0  0  0  0  0  0  0
    6.9685  -12.1189   25.3072 C   0  0  0  0  0  0  0  0  0  0  0  0
    7.7736  -12.1104   26.4266 C   0  0  0  0  0  0  0  0  0  0  0  0
    8.1276  -13.2746   27.0690 C   0  0  0  0  0  0  0  0  0  0  0  0
    9.9919  -17.0482   28.1053 C   0  0  0  0  0  0  0  0  0  0  0  0
   10.2852  -18.2440   27.8729 O   0  0  0  0  0  0  0  0  0  0  0  0
   10.1364  -16.6114   29.4129 O   0  0  0  0  0  0  0  0  0  0  0  0
  2  3  1  0
  2  1  1  6
  3  4  1  0
  4  5  2  0
  4  8  1  0
  6  2  1  0
  7  6  2  0
  9  6  1  0
 10  9  1  0
 10 11  1  6
 12 11  1  0
 13 12  1  0
 13 14  2  0
 15 18  1  0
 15 10  1  0
 16 15  2  0
 17 13  1  0
 19 18  1  0
 19 20  1  1
 21 26  2  0
 21 20  1  0
 22 21  1  0
 23 24  1  0
 23 22  2  0
 24 25  2  0
 25 26  1  0
 27 19  1  0
 28 27  2  0
 29 27  1  0
M  END
$$$$
