DEF.pdb
     RDKit          3D

 29 29  0  0  1  0  0  0  0  0999 V2000
    9.7458  -14.3960   19.2588 N   0  0  0  0  0  0  0  0  0  0  0  0
    8.4755  -14.1166   19.9009 C   0  0  1  0  0  0  0  0  0  0  0  0
    7.3994  -14.2446   18.8601 C   0  0  0  0  0  0  0  0  0  0  0  0
    7.9912  -13.7859   17.5572 C   0  0  0  0  0  0  0  0  0  0  0  0
    9.1765  -14.0990   17.2207 O   0  0  0  0  0  0  0  0  0  0  0  0
    8.2590  -14.9809   21.0742 C   0  0  0  0  0  0  0  0  0  0  0  0
    7.1556  -14.8992   21.6936 O   0  0  0  0  0  0  0  0  0  0  0  0
    7.2829  -13.0026   16.6583 O   0  0  0  0  0  0  0  0  0  0  0  0
    9.2011  -15.9067   21.5679 N   0  0  0  0  0  0  0  0  0  0  0  0
    8.9600  -16.8266   22.6669 C   0  0  1  0  0  0  0  0  0  0  0  0
    9.6128  -18.1513   22.4627 C   0  0  0  0  0  0  0  0  0  0  0  0
   10.6499  -18.2277   21.4077 C   0  0  0  0  0  0  0  0  0  0  0  0
   11.2376  -19.5730   21.2903 C   0  0  0  0  0  0  0  0  0  0  0  0
   12.0972  -19.8835   20.4614 O   0  0  0  0  0  0  0  0  0  0  0  0
    9.3898  -16.2323   23.9641 C   0  0  0  0  0  0  0  0  0  0  0  0
   10.4841  -15.6290   24.0056 O   0  0  0  0  0  0  0  0  0  0  0  0
   10.8045  -20.5853   22.1713 O   0  0  0  0  0  0  0  0  0  0  0  0
    8.6246  -16.3154   25.1489 N   0  0  0  0  0  0  0  0  0  0  0  0
    9.0744  -15.7903   26.4114 C   0  0  1  0  0  0  0  0  0  0  0  0
    7.9611  -15.1875   27.2318 C   0  0  0  0  0  0  0  0  0  0  0  0
    7.5630  -13.8488   26.7343 C   0  0  0  0  0  0  0  0  0  0  0  0
    8.4440  -12.8038   26.5589 C   0  0  0  0  0  0  0  0  0  0  0  0
    8.0550  -11.5666   26.0961 C   0  0  0  0  0  0  0  0  0  0  0  0
    6.7300  -11.3388   25.7875 C   0  0  0  0  0  0  0  0  0  0  0  0
    5.8359  -12.3746   25.9576 C   0  0  0  0  0  0  0  0  0  0  0  0
    6.2386  -13.6061   26.4211 C   0  0  0  0  0  0  0  0  0  0  0  0
    9.7468  -16.8515   27.2308 C   0  0  0  0  0  0  0  0  0  0  0  0
   10.2871  -16.5855   28.3295 O   0  0  0  0  0  0  0  0  0  0  0  0
    9.8007  -18.1713   26.8105 O   0  0  0  0  0  0  0  0  0  0  0  0
  2  3  1  0
  2  1  1  6
  3  4  1  0
  4  5  2  0
  4  8  1  0
  6  2  1  0
  7  6  2  0
  9  6  1  0
 10  9  1  0
 10 11  1  6
 12 11  1  0
 13 12  1  0
 13 14  2  0
 15 18  1  0
 15 10  1  0
 16 15  2  0
 17 13  1  0
 19 18  1  0
 19 20  1  1
 21 26  2  0
 21 20  1  0
 22 21  1  0
 23 24  1  0
 23 22  2  0
 24 25  2  0
 25 26  1  0
 27 19  1  0
 28 27  2  0
 29 27  1  0
M  END
$$$$
