DEF.pdb
     RDKit          3D

 29 29  0  0  1  0  0  0  0  0999 V2000
    9.6216  -19.4630   17.9342 N   0  0  0  0  0  0  0  0  0  0  0  0
   10.3929  -18.8404   18.9932 C   0  0  1  0  0  0  0  0  0  0  0  0
   10.8325  -17.4892   18.5045 C   0  0  0  0  0  0  0  0  0  0  0  0
   11.7947  -17.7222   17.3740 C   0  0  0  0  0  0  0  0  0  0  0  0
   12.4781  -18.7912   17.2949 O   0  0  0  0  0  0  0  0  0  0  0  0
    9.6361  -18.7869   20.2562 C   0  0  0  0  0  0  0  0  0  0  0  0
    8.4803  -18.2652   20.2501 O   0  0  0  0  0  0  0  0  0  0  0  0
   11.9880  -16.7919   16.3638 O   0  0  0  0  0  0  0  0  0  0  0  0
   10.1076  -19.2798   21.4903 N   0  0  0  0  0  0  0  0  0  0  0  0
    9.3717  -19.2173   22.7420 C   0  0  1  0  0  0  0  0  0  0  0  0
    9.8371  -20.2277   23.7346 C   0  0  0  0  0  0  0  0  0  0  0  0
    9.1456  -20.2429   25.0445 C   0  0  0  0  0  0  0  0  0  0  0  0
    9.7617  -21.1819   25.9972 C   0  0  0  0  0  0  0  0  0  0  0  0
   10.9777  -21.3609   26.1052 O   0  0  0  0  0  0  0  0  0  0  0  0
    9.4328  -17.8489   23.3289 C   0  0  0  0  0  0  0  0  0  0  0  0
   10.5244  -17.2401   23.2999 O   0  0  0  0  0  0  0  0  0  0  0  0
    8.9270  -21.9341   26.8494 O   0  0  0  0  0  0  0  0  0  0  0  0
    8.3210  -17.2045   23.9162 N   0  0  0  0  0  0  0  0  0  0  0  0
    8.4025  -15.9063   24.5326 C   0  0  1  0  0  0  0  0  0  0  0  0
    7.0519  -15.3275   24.8738 C   0  0  0  0  0  0  0  0  0  0  0  0
    7.1603  -13.9836   25.4906 C   0  0  0  0  0  0  0  0  0  0  0  0
    6.7660  -12.8202   24.8662 C   0  0  0  0  0  0  0  0  0  0  0  0
    6.8751  -11.5805   25.4554 C   0  0  0  0  0  0  0  0  0  0  0  0
    7.3993  -11.4726   26.7267 C   0  0  0  0  0  0  0  0  0  0  0  0
    7.7985  -12.6277   27.3652 C   0  0  0  0  0  0  0  0  0  0  0  0
    7.6836  -13.8603   26.7642 C   0  0  0  0  0  0  0  0  0  0  0  0
    9.2292  -15.9517   25.7834 C   0  0  0  0  0  0  0  0  0  0  0  0
   10.1475  -15.1250   25.9910 O   0  0  0  0  0  0  0  0  0  0  0  0
    9.0150  -16.9080   26.7638 O   0  0  0  0  0  0  0  0  0  0  0  0
  2  3  1  0
  2  1  1  6
  3  4  1  0
  4  5  2  0
  4  8  1  0
  6  2  1  0
  7  6  2  0
  9  6  1  0
 10  9  1  0
 10 11  1  1
 12 11  1  0
 13 12  1  0
 13 14  2  0
 15 18  1  0
 15 10  1  0
 16 15  2  0
 17 13  1  0
 19 18  1  0
 19 20  1  1
 21 26  2  0
 21 20  1  0
 22 21  1  0
 23 24  1  0
 23 22  2  0
 24 25  2  0
 25 26  1  0
 27 19  1  0
 28 27  2  0
 29 27  1  0
M  END
$$$$
