DEF.pdb
     RDKit          3D

 29 29  0  0  1  0  0  0  0  0999 V2000
    8.6511  -18.2330   19.7902 N   0  0  0  0  0  0  0  0  0  0  0  0
    8.7526  -16.9590   20.4761 C   0  0  1  0  0  0  0  0  0  0  0  0
    7.3653  -16.3958   20.6019 C   0  0  0  0  0  0  0  0  0  0  0  0
    6.8453  -16.1925   19.2067 C   0  0  0  0  0  0  0  0  0  0  0  0
    7.6154  -15.8476   18.2559 O   0  0  0  0  0  0  0  0  0  0  0  0
    9.4481  -17.0924   21.7681 C   0  0  0  0  0  0  0  0  0  0  0  0
    8.9565  -17.8644   22.6458 O   0  0  0  0  0  0  0  0  0  0  0  0
    5.5083  -16.3687   18.8828 O   0  0  0  0  0  0  0  0  0  0  0  0
   10.6378  -16.4157   22.1074 N   0  0  0  0  0  0  0  0  0  0  0  0
   11.3839  -16.6199   23.3377 C   0  0  1  0  0  0  0  0  0  0  0  0
   12.7919  -16.1385   23.2439 C   0  0  0  0  0  0  0  0  0  0  0  0
   13.6576  -16.3765   24.4221 C   0  0  0  0  0  0  0  0  0  0  0  0
   15.0474  -15.9440   24.1979 C   0  0  0  0  0  0  0  0  0  0  0  0
   15.3730  -14.7985   23.8751 O   0  0  0  0  0  0  0  0  0  0  0  0
   10.6938  -15.9791   24.4926 C   0  0  0  0  0  0  0  0  0  0  0  0
    9.9996  -14.9616   24.2777 O   0  0  0  0  0  0  0  0  0  0  0  0
   16.0875  -16.8830   24.3569 O   0  0  0  0  0  0  0  0  0  0  0  0
   10.7835  -16.4619   25.8174 N   0  0  0  0  0  0  0  0  0  0  0  0
    9.8549  -16.0897   26.8523 C   0  0  1  0  0  0  0  0  0  0  0  0
    8.4190  -16.0982   26.3899 C   0  0  0  0  0  0  0  0  0  0  0  0
    7.8686  -14.7284   26.2531 C   0  0  0  0  0  0  0  0  0  0  0  0
    8.3800  -13.6286   26.9073 C   0  0  0  0  0  0  0  0  0  0  0  0
    7.8544  -12.3635   26.7679 C   0  0  0  0  0  0  0  0  0  0  0  0
    6.7677  -12.1629   25.9424 C   0  0  0  0  0  0  0  0  0  0  0  0
    6.2443  -13.2534   25.2805 C   0  0  0  0  0  0  0  0  0  0  0  0
    6.7797  -14.5123   25.4292 C   0  0  0  0  0  0  0  0  0  0  0  0
    9.9763  -16.9968   28.0407 C   0  0  0  0  0  0  0  0  0  0  0  0
    9.4965  -16.6832   29.1548 O   0  0  0  0  0  0  0  0  0  0  0  0
   10.6231  -18.2202   27.9602 O   0  0  0  0  0  0  0  0  0  0  0  0
  2  3  1  0
  2  1  1  1
  3  4  1  0
  4  5  2  0
  4  8  1  0
  6  2  1  0
  7  6  2  0
  9  6  1  0
 10  9  1  0
 10 11  1  6
 12 11  1  0
 13 12  1  0
 13 14  2  0
 15 18  1  0
 15 10  1  0
 16 15  2  0
 17 13  1  0
 19 18  1  0
 19 20  1  6
 21 26  2  0
 21 20  1  0
 22 21  1  0
 23 24  1  0
 23 22  2  0
 24 25  2  0
 25 26  1  0
 27 19  1  0
 28 27  2  0
 29 27  1  0
M  END
$$$$
