DEF.pdb
     RDKit          3D

 29 29  0  0  1  0  0  0  0  0999 V2000
    8.6239  -16.8763   18.4489 N   0  0  0  0  0  0  0  0  0  0  0  0
    7.8958  -17.6061   19.4694 C   0  0  1  0  0  0  0  0  0  0  0  0
    7.4701  -18.9193   18.8761 C   0  0  0  0  0  0  0  0  0  0  0  0
    7.0250  -18.6417   17.4678 C   0  0  0  0  0  0  0  0  0  0  0  0
    5.7968  -18.4854   17.1794 O   0  0  0  0  0  0  0  0  0  0  0  0
    8.6892  -17.7520   20.7022 C   0  0  0  0  0  0  0  0  0  0  0  0
    8.1399  -18.2715   21.7202 O   0  0  0  0  0  0  0  0  0  0  0  0
    7.9221  -18.5418   16.4149 O   0  0  0  0  0  0  0  0  0  0  0  0
   10.0344  -17.3513   20.8374 N   0  0  0  0  0  0  0  0  0  0  0  0
   10.8174  -17.4786   22.0551 C   0  0  1  0  0  0  0  0  0  0  0  0
   12.2823  -17.5649   21.7912 C   0  0  0  0  0  0  0  0  0  0  0  0
   12.7601  -18.7680   21.0712 C   0  0  0  0  0  0  0  0  0  0  0  0
   14.2216  -18.9303   21.1510 C   0  0  0  0  0  0  0  0  0  0  0  0
   15.0265  -18.3143   20.4474 O   0  0  0  0  0  0  0  0  0  0  0  0
   10.5261  -16.3603   22.9960 C   0  0  0  0  0  0  0  0  0  0  0  0
   10.7625  -15.1919   22.6188 O   0  0  0  0  0  0  0  0  0  0  0  0
   14.7562  -19.8428   22.0840 O   0  0  0  0  0  0  0  0  0  0  0  0
    9.9967  -16.5523   24.2918 N   0  0  0  0  0  0  0  0  0  0  0  0
    9.4498  -15.4809   25.0822 C   0  0  1  0  0  0  0  0  0  0  0  0
    8.2833  -14.7919   24.4186 C   0  0  0  0  0  0  0  0  0  0  0  0
    7.7401  -13.6901   25.2488 C   0  0  0  0  0  0  0  0  0  0  0  0
    8.4422  -12.5450   25.5565 C   0  0  0  0  0  0  0  0  0  0  0  0
    7.9206  -11.5323   26.3300 C   0  0  0  0  0  0  0  0  0  0  0  0
    6.6404  -11.6460   26.8308 C   0  0  0  0  0  0  0  0  0  0  0  0
    5.9246  -12.7859   26.5317 C   0  0  0  0  0  0  0  0  0  0  0  0
    6.4585  -13.7903   25.7573 C   0  0  0  0  0  0  0  0  0  0  0  0
    9.0075  -15.9724   26.4286 C   0  0  0  0  0  0  0  0  0  0  0  0
    8.2580  -16.9693   26.5472 O   0  0  0  0  0  0  0  0  0  0  0  0
    9.4071  -15.3473   27.5995 O   0  0  0  0  0  0  0  0  0  0  0  0
  2  3  1  0
  2  1  1  6
  3  4  1  0
  4  5  2  0
  4  8  1  0
  6  2  1  0
  7  6  2  0
  9  6  1  0
 10  9  1  0
 10 11  1  6
 12 11  1  0
 13 12  1  0
 13 14  2  0
 15 18  1  0
 15 10  1  0
 16 15  2  0
 17 13  1  0
 19 18  1  0
 19 20  1  6
 21 26  2  0
 21 20  1  0
 22 21  1  0
 23 24  1  0
 23 22  2  0
 24 25  2  0
 25 26  1  0
 27 19  1  0
 28 27  2  0
 29 27  1  0
M  END
$$$$
