DEF.pdb
     RDKit          3D

 29 29  0  0  1  0  0  0  0  0999 V2000
    4.0383  -17.6092   20.1742 N   0  0  0  0  0  0  0  0  0  0  0  0
    4.0056  -18.0700   21.5493 C   0  0  1  0  0  0  0  0  0  0  0  0
    3.2897  -19.3908   21.5717 C   0  0  0  0  0  0  0  0  0  0  0  0
    1.9993  -19.2042   20.8244 C   0  0  0  0  0  0  0  0  0  0  0  0
    1.9358  -19.3538   19.5636 O   0  0  0  0  0  0  0  0  0  0  0  0
    5.3565  -18.1279   22.1343 C   0  0  0  0  0  0  0  0  0  0  0  0
    5.5027  -18.6657   23.2733 O   0  0  0  0  0  0  0  0  0  0  0  0
    0.8174  -18.8615   21.4639 O   0  0  0  0  0  0  0  0  0  0  0  0
    6.5172  -17.6224   21.5133 N   0  0  0  0  0  0  0  0  0  0  0  0
    7.8541  -17.6877   22.0796 C   0  0  1  0  0  0  0  0  0  0  0  0
    8.9203  -17.4301   21.0699 C   0  0  0  0  0  0  0  0  0  0  0  0
    9.2338  -18.5355   20.1348 C   0  0  0  0  0  0  0  0  0  0  0  0
   10.2140  -18.1448   19.1074 C   0  0  0  0  0  0  0  0  0  0  0  0
   11.3123  -18.6863   18.9564 O   0  0  0  0  0  0  0  0  0  0  0  0
    7.9927  -16.7497   23.2293 C   0  0  0  0  0  0  0  0  0  0  0  0
    7.9374  -15.5215   23.0018 O   0  0  0  0  0  0  0  0  0  0  0  0
    9.8971  -17.0871   18.2302 O   0  0  0  0  0  0  0  0  0  0  0  0
    8.1832  -17.1768   24.5625 N   0  0  0  0  0  0  0  0  0  0  0  0
    8.3033  -16.2638   25.6689 C   0  0  1  0  0  0  0  0  0  0  0  0
    6.9703  -15.7885   26.1911 C   0  0  0  0  0  0  0  0  0  0  0  0
    6.8940  -14.3096   26.2627 C   0  0  0  0  0  0  0  0  0  0  0  0
    5.7915  -13.6207   26.7196 C   0  0  0  0  0  0  0  0  0  0  0  0
    5.7392  -12.2459   26.7781 C   0  0  0  0  0  0  0  0  0  0  0  0
    6.8263  -11.5033   26.3666 C   0  0  0  0  0  0  0  0  0  0  0  0
    7.9375  -12.1779   25.9067 C   0  0  0  0  0  0  0  0  0  0  0  0
    7.9760  -13.5524   25.8537 C   0  0  0  0  0  0  0  0  0  0  0  0
    9.0635  -16.8846   26.8032 C   0  0  0  0  0  0  0  0  0  0  0  0
    9.2641  -18.1201   26.8576 O   0  0  0  0  0  0  0  0  0  0  0  0
    9.5773  -16.1212   27.8399 O   0  0  0  0  0  0  0  0  0  0  0  0
  2  3  1  0
  2  1  1  6
  3  4  1  0
  4  5  2  0
  4  8  1  0
  6  2  1  0
  7  6  2  0
  9  6  1  0
 10  9  1  0
 10 11  1  6
 12 11  1  0
 13 12  1  0
 13 14  2  0
 15 18  1  0
 15 10  1  0
 16 15  2  0
 17 13  1  0
 19 18  1  0
 19 20  1  1
 21 26  2  0
 21 20  1  0
 22 21  1  0
 23 24  1  0
 23 22  2  0
 24 25  2  0
 25 26  1  0
 27 19  1  0
 28 27  2  0
 29 27  1  0
M  END
$$$$
