LIW.pdb
     RDKit          3D

 31 32  0  0  1  0  0  0  0  0999 V2000
   11.1468  -21.0514   17.0356 C   0  0  0  0  0  0  0  0  0  0  0  0
   10.0698  -20.5849   17.9838 C   0  0  1  0  0  0  0  0  0  0  0  0
    9.9188  -21.6933   19.0290 C   0  0  0  0  0  0  0  0  0  0  0  0
   10.4951  -19.3766   18.7672 C   0  0  0  0  0  0  0  0  0  0  0  0
    9.5372  -18.8583   19.7530 C   0  0  2  0  0  0  0  0  0  0  0  0
    8.2149  -18.8379   19.1522 N   0  0  0  0  0  0  0  0  0  0  0  0
    9.8727  -17.5010   20.3045 C   0  0  0  0  0  0  0  0  0  0  0  0
   10.9966  -17.0263   20.0874 O   0  0  0  0  0  0  0  0  0  0  0  0
    6.3275  -13.4133   19.7312 C   0  0  0  0  0  0  0  0  0  0  0  0
    7.5426  -14.2523   19.9380 C   0  0  0  0  0  0  0  0  0  0  0  0
    7.9826  -14.5282   21.3025 C   0  0  2  0  0  0  0  0  0  0  0  0
    8.1636  -13.1800   22.0452 C   0  0  0  0  0  0  0  0  0  0  0  0
    9.0953  -15.4448   21.5909 C   0  0  2  0  0  0  0  0  0  0  0  0
    8.9264  -16.7754   21.0549 N   0  0  0  0  0  0  0  0  0  0  0  0
    9.5768  -15.4620   22.9786 C   0  0  0  0  0  0  0  0  0  0  0  0
   10.3091  -14.5122   23.3585 O   0  0  0  0  0  0  0  0  0  0  0  0
    9.2885  -16.4621   23.9181 N   0  0  0  0  0  0  0  0  0  0  0  0
    9.9510  -16.4142   25.2319 C   0  0  1  0  0  0  0  0  0  0  0  0
    8.9815  -16.2645   26.3415 C   0  0  0  0  0  0  0  0  0  0  0  0
    7.8701  -15.3353   26.1314 C   0  0  0  0  0  0  0  0  0  0  0  0
    6.5948  -15.6836   25.7687 C   0  0  0  0  0  0  0  0  0  0  0  0
    5.8422  -14.6016   25.7461 N   0  0  0  0  0  0  0  0  0  0  0  0
    6.5846  -13.5248   26.0850 C   0  0  0  0  0  0  0  0  0  0  0  0
    6.2970  -12.1825   26.2031 C   0  0  0  0  0  0  0  0  0  0  0  0
    7.2655  -11.2692   26.5575 C   0  0  0  0  0  0  0  0  0  0  0  0
    8.5470  -11.7325   26.7965 C   0  0  0  0  0  0  0  0  0  0  0  0
    8.8499  -13.0589   26.6841 C   0  0  0  0  0  0  0  0  0  0  0  0
    7.8659  -13.9547   26.3328 C   0  0  0  0  0  0  0  0  0  0  0  0
   10.7773  -17.6806   25.3110 C   0  0  0  0  0  0  0  0  0  0  0  0
   11.6364  -17.9303   26.3729 O   0  0  0  0  0  0  0  0  0  0  0  0
   10.7108  -18.5395   24.4097 O   0  0  0  0  0  0  0  0  0  0  0  0
  2  1  1  6
  3  2  1  0
  4  5  1  0
  4  2  1  0
  5  7  1  0
  5  6  1  6
  7  8  2  0
  9 10  1  0
 10 11  1  0
 11 13  1  0
 11 12  1  6
 13 15  1  0
 13 14  1  1
 14  7  1  0
 15 17  1  0
 16 15  2  0
 17 18  1  0
 18 19  1  1
 19 20  1  0
 20 21  2  0
 22 21  1  0
 23 22  1  0
 24 23  2  0
 25 24  1  0
 26 27  1  0
 26 25  2  0
 27 28  2  0
 28 23  1  0
 28 20  1  0
 29 30  1  0
 29 18  1  0
 31 29  2  0
M  END
$$$$
