LIW.pdb
     RDKit          3D

 31 32  0  0  1  0  0  0  0  0999 V2000
    8.8431  -12.2042   19.7990 C   0  0  0  0  0  0  0  0  0  0  0  0
    7.8888  -13.3646   19.6591 C   0  0  1  0  0  0  0  0  0  0  0  0
    6.7168  -12.8483   18.8204 C   0  0  0  0  0  0  0  0  0  0  0  0
    8.4773  -14.4816   18.8463 C   0  0  0  0  0  0  0  0  0  0  0  0
    9.5159  -15.2933   19.4944 C   0  0  2  0  0  0  0  0  0  0  0  0
    9.9190  -16.3496   18.5825 N   0  0  0  0  0  0  0  0  0  0  0  0
    9.1206  -15.8812   20.8200 C   0  0  0  0  0  0  0  0  0  0  0  0
    8.5478  -15.1601   21.6492 O   0  0  0  0  0  0  0  0  0  0  0  0
    8.0353  -21.4445   20.8176 C   0  0  0  0  0  0  0  0  0  0  0  0
    8.0470  -19.9654   21.0059 C   0  0  0  0  0  0  0  0  0  0  0  0
    8.8293  -19.4026   22.1026 C   0  0  2  0  0  0  0  0  0  0  0  0
    8.4088  -20.1031   23.4196 C   0  0  0  0  0  0  0  0  0  0  0  0
    8.9671  -17.9517   22.2954 C   0  0  2  0  0  0  0  0  0  0  0  0
    9.3928  -17.2310   21.1182 N   0  0  0  0  0  0  0  0  0  0  0  0
    9.6910  -17.5245   23.5001 C   0  0  0  0  0  0  0  0  0  0  0  0
   10.9370  -17.6960   23.5289 O   0  0  0  0  0  0  0  0  0  0  0  0
    9.0997  -16.9425   24.6304 N   0  0  0  0  0  0  0  0  0  0  0  0
    9.9645  -16.5076   25.7396 C   0  0  1  0  0  0  0  0  0  0  0  0
    9.6291  -15.1433   26.2079 C   0  0  0  0  0  0  0  0  0  0  0  0
    8.2507  -14.6927   26.0081 C   0  0  0  0  0  0  0  0  0  0  0  0
    7.1575  -15.5065   25.8599 C   0  0  0  0  0  0  0  0  0  0  0  0
    6.0732  -14.7614   25.7779 N   0  0  0  0  0  0  0  0  0  0  0  0
    6.4113  -13.4562   25.8656 C   0  0  0  0  0  0  0  0  0  0  0  0
    5.6796  -12.2894   25.8270 C   0  0  0  0  0  0  0  0  0  0  0  0
    6.2873  -11.0571   25.9251 C   0  0  0  0  0  0  0  0  0  0  0  0
    7.6629  -11.0142   26.0662 C   0  0  0  0  0  0  0  0  0  0  0  0
    8.4038  -12.1601   26.1062 C   0  0  0  0  0  0  0  0  0  0  0  0
    7.7757  -13.3809   26.0106 C   0  0  0  0  0  0  0  0  0  0  0  0
    9.8150  -17.5722   26.8060 C   0  0  0  0  0  0  0  0  0  0  0  0
   10.7094  -17.6824   27.8623 O   0  0  0  0  0  0  0  0  0  0  0  0
    8.8761  -18.3912   26.7585 O   0  0  0  0  0  0  0  0  0  0  0  0
  2  1  1  6
  3  2  1  0
  4  5  1  0
  4  2  1  0
  5  7  1  0
  5  6  1  6
  7  8  2  0
  9 10  1  0
 10 11  1  0
 11 13  1  0
 11 12  1  1
 13 15  1  0
 13 14  1  6
 14  7  1  0
 15 17  1  0
 16 15  2  0
 17 18  1  0
 18 19  1  1
 19 20  1  0
 20 21  2  0
 22 21  1  0
 23 22  1  0
 24 23  2  0
 25 24  1  0
 26 27  1  0
 26 25  2  0
 27 28  2  0
 28 23  1  0
 28 20  1  0
 29 30  1  0
 29 18  1  0
 31 29  2  0
M  END
$$$$
