LIW.pdb
     RDKit          3D

 31 32  0  0  1  0  0  0  0  0999 V2000
    7.3753  -12.0487   19.8880 C   0  0  0  0  0  0  0  0  0  0  0  0
    7.7933  -13.4420   19.4874 C   0  0  1  0  0  0  0  0  0  0  0  0
    9.0892  -13.2804   18.6885 C   0  0  0  0  0  0  0  0  0  0  0  0
    8.1782  -14.2768   20.6747 C   0  0  0  0  0  0  0  0  0  0  0  0
    8.5628  -15.6688   20.4061 C   0  0  2  0  0  0  0  0  0  0  0  0
    7.4711  -16.3283   19.7112 N   0  0  0  0  0  0  0  0  0  0  0  0
    8.9515  -16.4612   21.6226 C   0  0  0  0  0  0  0  0  0  0  0  0
    8.0654  -17.0275   22.2782 O   0  0  0  0  0  0  0  0  0  0  0  0
   13.7361  -18.6558   20.9822 C   0  0  0  0  0  0  0  0  0  0  0  0
   12.4017  -18.7606   21.6392 C   0  0  0  0  0  0  0  0  0  0  0  0
   12.1403  -17.9597   22.8317 C   0  0  2  0  0  0  0  0  0  0  0  0
   12.6627  -18.7322   24.0696 C   0  0  0  0  0  0  0  0  0  0  0  0
   10.8220  -17.3654   23.0961 C   0  0  2  0  0  0  0  0  0  0  0  0
   10.3012  -16.5630   22.0138 N   0  0  0  0  0  0  0  0  0  0  0  0
   10.6565  -16.7119   24.4013 C   0  0  0  0  0  0  0  0  0  0  0  0
   11.1314  -15.5558   24.5443 O   0  0  0  0  0  0  0  0  0  0  0  0
   10.0123  -17.2798   25.5096 N   0  0  0  0  0  0  0  0  0  0  0  0
   10.1079  -16.5997   26.8118 C   0  0  1  0  0  0  0  0  0  0  0  0
    8.7770  -16.3567   27.4144 C   0  0  0  0  0  0  0  0  0  0  0  0
    7.7858  -15.6732   26.5818 C   0  0  0  0  0  0  0  0  0  0  0  0
    6.7942  -16.2823   25.8572 C   0  0  0  0  0  0  0  0  0  0  0  0
    6.0436  -15.3580   25.2916 N   0  0  0  0  0  0  0  0  0  0  0  0
    6.5095  -14.1324   25.6177 C   0  0  0  0  0  0  0  0  0  0  0  0
    6.1081  -12.8553   25.2918 C   0  0  0  0  0  0  0  0  0  0  0  0
    6.7850  -11.7493   25.7568 C   0  0  0  0  0  0  0  0  0  0  0  0
    7.8877  -11.9490   26.5680 C   0  0  0  0  0  0  0  0  0  0  0  0
    8.2997  -13.2072   26.9009 C   0  0  0  0  0  0  0  0  0  0  0  0
    7.6063  -14.2981   26.4286 C   0  0  0  0  0  0  0  0  0  0  0  0
   11.0090  -17.4754   27.6567 C   0  0  0  0  0  0  0  0  0  0  0  0
   11.4711  -17.0673   28.9008 O   0  0  0  0  0  0  0  0  0  0  0  0
   11.3683  -18.5974   27.2486 O   0  0  0  0  0  0  0  0  0  0  0  0
  2  1  1  1
  3  2  1  0
  4  5  1  0
  4  2  1  0
  5  7  1  0
  5  6  1  1
  7  8  2  0
  9 10  1  0
 10 11  1  0
 11 13  1  0
 11 12  1  1
 13 15  1  0
 13 14  1  6
 14  7  1  0
 15 17  1  0
 16 15  2  0
 17 18  1  0
 18 19  1  1
 19 20  1  0
 20 21  2  0
 22 21  1  0
 23 22  1  0
 24 23  2  0
 25 24  1  0
 26 27  1  0
 26 25  2  0
 27 28  2  0
 28 23  1  0
 28 20  1  0
 29 30  1  0
 29 18  1  0
 31 29  2  0
M  END
$$$$
