LIW.pdb
     RDKit          3D

 31 32  0  0  1  0  0  0  0  0999 V2000
    9.1443  -20.4598   16.1507 C   0  0  0  0  0  0  0  0  0  0  0  0
    9.1851  -20.3195   17.6525 C   0  0  1  0  0  0  0  0  0  0  0  0
   10.3776  -21.1566   18.1222 C   0  0  0  0  0  0  0  0  0  0  0  0
    9.5119  -18.9169   18.0775 C   0  0  0  0  0  0  0  0  0  0  0  0
    9.6196  -18.6732   19.5221 C   0  0  2  0  0  0  0  0  0  0  0  0
    8.3818  -19.0885   20.1586 N   0  0  0  0  0  0  0  0  0  0  0  0
    9.9412  -17.2544   19.8996 C   0  0  0  0  0  0  0  0  0  0  0  0
   10.9482  -16.7184   19.4155 O   0  0  0  0  0  0  0  0  0  0  0  0
    7.5970  -11.8300   20.3623 C   0  0  0  0  0  0  0  0  0  0  0  0
    8.5569  -12.7772   20.9984 C   0  0  0  0  0  0  0  0  0  0  0  0
    8.3527  -14.2117   20.8184 C   0  0  2  0  0  0  0  0  0  0  0  0
    6.9265  -14.5725   21.3060 C   0  0  0  0  0  0  0  0  0  0  0  0
    9.3364  -15.2015   21.2806 C   0  0  2  0  0  0  0  0  0  0  0  0
    9.1124  -16.5406   20.7876 N   0  0  0  0  0  0  0  0  0  0  0  0
    9.6478  -15.1832   22.7161 C   0  0  0  0  0  0  0  0  0  0  0  0
   10.0038  -14.0898   23.2265 O   0  0  0  0  0  0  0  0  0  0  0  0
    9.5853  -16.2955   23.5674 N   0  0  0  0  0  0  0  0  0  0  0  0
    9.9783  -16.1338   24.9770 C   0  0  1  0  0  0  0  0  0  0  0  0
    8.8640  -16.4325   25.9056 C   0  0  0  0  0  0  0  0  0  0  0  0
    7.7045  -15.5401   25.8605 C   0  0  0  0  0  0  0  0  0  0  0  0
    6.4296  -15.9032   25.5108 C   0  0  0  0  0  0  0  0  0  0  0  0
    5.6305  -14.8649   25.6556 N   0  0  0  0  0  0  0  0  0  0  0  0
    6.3407  -13.8030   26.0953 C   0  0  0  0  0  0  0  0  0  0  0  0
    6.0011  -12.5012   26.3927 C   0  0  0  0  0  0  0  0  0  0  0  0
    6.9448  -11.5922   26.8179 C   0  0  0  0  0  0  0  0  0  0  0  0
    8.2552  -12.0180   26.9430 C   0  0  0  0  0  0  0  0  0  0  0  0
    8.6097  -13.3039   26.6526 C   0  0  0  0  0  0  0  0  0  0  0  0
    7.6499  -14.1968   26.2333 C   0  0  0  0  0  0  0  0  0  0  0  0
   11.1839  -17.0308   25.1628 C   0  0  0  0  0  0  0  0  0  0  0  0
   11.9019  -17.0571   26.3510 O   0  0  0  0  0  0  0  0  0  0  0  0
   11.5711  -17.7737   24.2394 O   0  0  0  0  0  0  0  0  0  0  0  0
  2  1  1  6
  3  2  1  0
  4  5  1  0
  4  2  1  0
  5  7  1  0
  5  6  1  1
  7  8  2  0
  9 10  1  0
 10 11  1  0
 11 13  1  0
 11 12  1  1
 13 15  1  0
 13 14  1  1
 14  7  1  0
 15 17  1  0
 16 15  2  0
 17 18  1  0
 18 19  1  1
 19 20  1  0
 20 21  2  0
 22 21  1  0
 23 22  1  0
 24 23  2  0
 25 24  1  0
 26 27  1  0
 26 25  2  0
 27 28  2  0
 28 23  1  0
 28 20  1  0
 29 30  1  0
 29 18  1  0
 31 29  2  0
M  END
$$$$
