LIW.pdb
     RDKit          3D

 31 32  0  0  1  0  0  0  0  0999 V2000
    6.9559  -18.2274   18.1353 C   0  0  0  0  0  0  0  0  0  0  0  0
    7.4411  -16.8215   18.3897 C   0  0  1  0  0  0  0  0  0  0  0  0
    6.2116  -15.9197   18.2537 C   0  0  0  0  0  0  0  0  0  0  0  0
    7.8983  -16.6325   19.8075 C   0  0  0  0  0  0  0  0  0  0  0  0
    8.1567  -15.2524   20.2392 C   0  0  2  0  0  0  0  0  0  0  0  0
    9.1582  -14.6696   19.3634 N   0  0  0  0  0  0  0  0  0  0  0  0
    8.5822  -15.1101   21.6737 C   0  0  0  0  0  0  0  0  0  0  0  0
    9.7813  -15.2375   21.9592 O   0  0  0  0  0  0  0  0  0  0  0  0
    5.7113  -11.7766   25.2653 C   0  0  0  0  0  0  0  0  0  0  0  0
    6.7931  -12.5333   24.5723 C   0  0  0  0  0  0  0  0  0  0  0  0
    6.9539  -13.9550   24.8633 C   0  0  2  0  0  0  0  0  0  0  0  0
    7.1624  -14.1262   26.3895 C   0  0  0  0  0  0  0  0  0  0  0  0
    7.8826  -14.8044   24.1036 C   0  0  2  0  0  0  0  0  0  0  0  0
    7.6363  -14.8339   22.6807 N   0  0  0  0  0  0  0  0  0  0  0  0
    8.1306  -16.1444   24.6522 C   0  0  0  0  0  0  0  0  0  0  0  0
    7.4114  -17.0907   24.2397 O   0  0  0  0  0  0  0  0  0  0  0  0
    9.1072  -16.4540   25.6093 N   0  0  0  0  0  0  0  0  0  0  0  0
    9.4195  -17.8684   25.8730 C   0  0  1  0  0  0  0  0  0  0  0  0
   10.6831  -18.0302   26.6283 C   0  0  0  0  0  0  0  0  0  0  0  0
   10.7099  -17.5114   27.9969 C   0  0  0  0  0  0  0  0  0  0  0  0
   10.8712  -18.2616   29.1329 C   0  0  0  0  0  0  0  0  0  0  0  0
   10.9222  -17.4581   30.1766 N   0  0  0  0  0  0  0  0  0  0  0  0
   10.7961  -16.1760   29.7694 C   0  0  0  0  0  0  0  0  0  0  0  0
   10.7731  -14.9730   30.4406 C   0  0  0  0  0  0  0  0  0  0  0  0
   10.6120  -13.7801   29.7708 C   0  0  0  0  0  0  0  0  0  0  0  0
   10.4737  -13.8147   28.3947 C   0  0  0  0  0  0  0  0  0  0  0  0
   10.4941  -14.9974   27.7133 C   0  0  0  0  0  0  0  0  0  0  0  0
   10.6602  -16.1773   28.4020 C   0  0  0  0  0  0  0  0  0  0  0  0
    8.2056  -18.4203   26.5904 C   0  0  0  0  0  0  0  0  0  0  0  0
    8.0497  -19.7793   26.8284 O   0  0  0  0  0  0  0  0  0  0  0  0
    7.3006  -17.6589   26.9852 O   0  0  0  0  0  0  0  0  0  0  0  0
  2  1  1  1
  3  2  1  0
  4  5  1  0
  4  2  1  0
  5  7  1  0
  5  6  1  6
  7  8  2  0
  9 10  1  0
 10 11  1  0
 11 13  1  0
 11 12  1  1
 13 15  1  0
 13 14  1  6
 14  7  1  0
 15 17  1  0
 16 15  2  0
 17 18  1  0
 18 19  1  1
 19 20  1  0
 20 21  2  0
 22 21  1  0
 23 22  1  0
 24 23  2  0
 25 24  1  0
 26 27  1  0
 26 25  2  0
 27 28  2  0
 28 23  1  0
 28 20  1  0
 29 30  1  0
 29 18  1  0
 31 29  2  0
M  END
$$$$
