LIW.pdb
     RDKit          3D

 31 32  0  0  1  0  0  0  0  0999 V2000
   14.0265  -17.2097   16.1516 C   0  0  0  0  0  0  0  0  0  0  0  0
   12.9822  -17.8645   17.0219 C   0  0  1  0  0  0  0  0  0  0  0  0
   13.7227  -18.9192   17.8483 C   0  0  0  0  0  0  0  0  0  0  0  0
   12.4177  -16.9119   18.0361 C   0  0  0  0  0  0  0  0  0  0  0  0
   11.6394  -17.5013   19.1337 C   0  0  2  0  0  0  0  0  0  0  0  0
   10.4654  -18.1504   18.5768 N   0  0  0  0  0  0  0  0  0  0  0  0
   11.2308  -16.5324   20.2076 C   0  0  0  0  0  0  0  0  0  0  0  0
   12.1027  -15.8471   20.7607 O   0  0  0  0  0  0  0  0  0  0  0  0
    6.9219  -13.2613   19.5437 C   0  0  0  0  0  0  0  0  0  0  0  0
    8.1985  -13.8766   20.0072 C   0  0  0  0  0  0  0  0  0  0  0  0
    8.1750  -14.7453   21.1804 C   0  0  2  0  0  0  0  0  0  0  0  0
    7.5783  -13.9518   22.3705 C   0  0  0  0  0  0  0  0  0  0  0  0
    9.3521  -15.5206   21.5982 C   0  0  2  0  0  0  0  0  0  0  0  0
    9.8787  -16.4006   20.5810 N   0  0  0  0  0  0  0  0  0  0  0  0
    9.2626  -16.1777   22.9090 C   0  0  0  0  0  0  0  0  0  0  0  0
    8.8020  -17.3477   22.9497 O   0  0  0  0  0  0  0  0  0  0  0  0
    9.6465  -15.5992   24.1271 N   0  0  0  0  0  0  0  0  0  0  0  0
    9.6195  -16.4255   25.3452 C   0  0  1  0  0  0  0  0  0  0  0  0
    9.1144  -15.6756   26.5181 C   0  0  0  0  0  0  0  0  0  0  0  0
    7.8696  -14.9258   26.3412 C   0  0  0  0  0  0  0  0  0  0  0  0
    6.6534  -15.4634   26.0076 C   0  0  0  0  0  0  0  0  0  0  0  0
    5.7446  -14.5086   26.0102 N   0  0  0  0  0  0  0  0  0  0  0  0
    6.3228  -13.3321   26.3376 C   0  0  0  0  0  0  0  0  0  0  0  0
    5.8375  -12.0496   26.4712 C   0  0  0  0  0  0  0  0  0  0  0  0
    6.6643  -11.0004   26.8075 C   0  0  0  0  0  0  0  0  0  0  0  0
    8.0070  -11.2637   27.0122 C   0  0  0  0  0  0  0  0  0  0  0  0
    8.5052  -12.5282   26.8841 C   0  0  0  0  0  0  0  0  0  0  0  0
    7.6605  -13.5625   26.5513 C   0  0  0  0  0  0  0  0  0  0  0  0
    8.7833  -17.6368   24.9898 C   0  0  0  0  0  0  0  0  0  0  0  0
    8.0572  -17.7053   23.8084 O   0  0  0  0  0  0  0  0  0  0  0  0
    8.7202  -18.6136   25.7621 O   0  0  0  0  0  0  0  0  0  0  0  0
  2  1  1  6
  3  2  1  0
  4  5  1  0
  4  2  1  0
  5  7  1  0
  5  6  1  6
  7  8  2  0
  9 10  1  0
 10 11  1  0
 11 13  1  0
 11 12  1  1
 13 15  1  0
 13 14  1  6
 14  7  1  0
 15 17  1  0
 16 15  2  0
 17 18  1  0
 18 19  1  1
 19 20  1  0
 20 21  2  0
 22 21  1  0
 23 22  1  0
 24 23  2  0
 25 24  1  0
 26 27  1  0
 26 25  2  0
 27 28  2  0
 28 23  1  0
 28 20  1  0
 29 30  1  0
 29 18  1  0
 31 29  2  0
M  END
$$$$
