LIW.pdb
     RDKit          3D

 31 32  0  0  1  0  0  0  0  0999 V2000
    6.5696  -20.9319   27.0465 C   0  0  0  0  0  0  0  0  0  0  0  0
    5.9218  -20.5410   25.7410 C   0  0  1  0  0  0  0  0  0  0  0  0
    4.5855  -19.8921   26.1109 C   0  0  0  0  0  0  0  0  0  0  0  0
    6.6884  -19.4604   25.0344 C   0  0  0  0  0  0  0  0  0  0  0  0
    6.1336  -18.9824   23.7610 C   0  0  2  0  0  0  0  0  0  0  0  0
    5.6143  -20.1201   23.0222 N   0  0  0  0  0  0  0  0  0  0  0  0
    7.0967  -18.2092   22.9046 C   0  0  0  0  0  0  0  0  0  0  0  0
    7.9729  -18.8250   22.2811 O   0  0  0  0  0  0  0  0  0  0  0  0
    5.9861  -13.6050   19.9702 C   0  0  0  0  0  0  0  0  0  0  0  0
    6.5889  -14.8486   20.5299 C   0  0  0  0  0  0  0  0  0  0  0  0
    7.5521  -14.7335   21.6210 C   0  0  2  0  0  0  0  0  0  0  0  0
    8.7261  -13.8375   21.1510 C   0  0  0  0  0  0  0  0  0  0  0  0
    8.0441  -15.9105   22.3518 C   0  0  2  0  0  0  0  0  0  0  0  0
    7.0069  -16.8065   22.8075 N   0  0  0  0  0  0  0  0  0  0  0  0
    9.0516  -15.6536   23.3896 C   0  0  0  0  0  0  0  0  0  0  0  0
    8.7221  -14.9256   24.3613 O   0  0  0  0  0  0  0  0  0  0  0  0
   10.3616  -16.1534   23.3807 N   0  0  0  0  0  0  0  0  0  0  0  0
   11.2636  -15.8006   24.4894 C   0  0  1  0  0  0  0  0  0  0  0  0
   11.0218  -16.6302   25.6922 C   0  0  0  0  0  0  0  0  0  0  0  0
    9.8350  -16.3146   26.4889 C   0  0  0  0  0  0  0  0  0  0  0  0
    8.8614  -17.2056   26.8600 C   0  0  0  0  0  0  0  0  0  0  0  0
    7.9876  -16.5923   27.6332 N   0  0  0  0  0  0  0  0  0  0  0  0
    8.3496  -15.3002   27.7918 C   0  0  0  0  0  0  0  0  0  0  0  0
    7.7923  -14.2439   28.4787 C   0  0  0  0  0  0  0  0  0  0  0  0
    8.3690  -12.9930   28.4632 C   0  0  0  0  0  0  0  0  0  0  0  0
    9.5333  -12.8172   27.7368 C   0  0  0  0  0  0  0  0  0  0  0  0
   10.0994  -13.8524   27.0503 C   0  0  0  0  0  0  0  0  0  0  0  0
    9.5086  -15.0950   27.0828 C   0  0  0  0  0  0  0  0  0  0  0  0
   12.6629  -15.9358   23.9268 C   0  0  0  0  0  0  0  0  0  0  0  0
   12.8944  -16.4194   22.6460 O   0  0  0  0  0  0  0  0  0  0  0  0
   13.6557  -15.6179   24.6106 O   0  0  0  0  0  0  0  0  0  0  0  0
  2  1  1  1
  3  2  1  0
  4  5  1  0
  4  2  1  0
  5  7  1  0
  5  6  1  6
  7  8  2  0
  9 10  1  0
 10 11  1  0
 11 13  1  0
 11 12  1  6
 13 15  1  0
 13 14  1  1
 14  7  1  0
 15 17  1  0
 16 15  2  0
 17 18  1  0
 18 19  1  1
 19 20  1  0
 20 21  2  0
 22 21  1  0
 23 22  1  0
 24 23  2  0
 25 24  1  0
 26 27  1  0
 26 25  2  0
 27 28  2  0
 28 23  1  0
 28 20  1  0
 29 30  1  0
 29 18  1  0
 31 29  2  0
M  END
$$$$
