LIW.pdb
     RDKit          3D

 31 32  0  0  1  0  0  0  0  0999 V2000
   15.4982  -14.7290   16.8311 C   0  0  0  0  0  0  0  0  0  0  0  0
   14.5400  -15.7404   17.4104 C   0  0  1  0  0  0  0  0  0  0  0  0
   15.4089  -16.8276   18.0482 C   0  0  0  0  0  0  0  0  0  0  0  0
   13.7429  -15.1719   18.5489 C   0  0  0  0  0  0  0  0  0  0  0  0
   12.7651  -16.0670   19.1818 C   0  0  2  0  0  0  0  0  0  0  0  0
   11.8816  -16.5927   18.1558 N   0  0  0  0  0  0  0  0  0  0  0  0
   11.9581  -15.4402   20.2840 C   0  0  0  0  0  0  0  0  0  0  0  0
   12.5416  -14.7733   21.1502 O   0  0  0  0  0  0  0  0  0  0  0  0
    6.9027  -13.3967   19.1125 C   0  0  0  0  0  0  0  0  0  0  0  0
    8.2442  -13.6462   19.7135 C   0  0  0  0  0  0  0  0  0  0  0  0
    8.3610  -14.6244   20.7910 C   0  0  2  0  0  0  0  0  0  0  0  0
    7.3987  -14.2159   21.9352 C   0  0  0  0  0  0  0  0  0  0  0  0
    9.6658  -15.0453   21.3217 C   0  0  2  0  0  0  0  0  0  0  0  0
   10.5595  -15.6039   20.3340 N   0  0  0  0  0  0  0  0  0  0  0  0
    9.6365  -15.8400   22.5568 C   0  0  0  0  0  0  0  0  0  0  0  0
    9.9853  -17.0468   22.4877 O   0  0  0  0  0  0  0  0  0  0  0  0
    9.2426  -15.3596   23.8137 N   0  0  0  0  0  0  0  0  0  0  0  0
    9.4978  -16.1893   25.0028 C   0  0  1  0  0  0  0  0  0  0  0  0
    9.1420  -15.4902   26.2589 C   0  0  0  0  0  0  0  0  0  0  0  0
    7.8864  -14.7377   26.2674 C   0  0  0  0  0  0  0  0  0  0  0  0
    6.6428  -15.2552   26.0120 C   0  0  0  0  0  0  0  0  0  0  0  0
    5.7393  -14.3106   26.1823 N   0  0  0  0  0  0  0  0  0  0  0  0
    6.3478  -13.1605   26.5467 C   0  0  0  0  0  0  0  0  0  0  0  0
    5.8789  -11.8968   26.8321 C   0  0  0  0  0  0  0  0  0  0  0  0
    6.7357  -10.8725   27.1704 C   0  0  0  0  0  0  0  0  0  0  0  0
    8.0918  -11.1417   27.2197 C   0  0  0  0  0  0  0  0  0  0  0  0
    8.5740  -12.3878   26.9399 C   0  0  0  0  0  0  0  0  0  0  0  0
    7.6999  -13.3977   26.6081 C   0  0  0  0  0  0  0  0  0  0  0  0
    8.7188  -17.4676   24.7747 C   0  0  0  0  0  0  0  0  0  0  0  0
    7.7410  -17.5650   23.7937 O   0  0  0  0  0  0  0  0  0  0  0  0
    8.9343  -18.4761   25.4753 O   0  0  0  0  0  0  0  0  0  0  0  0
  2  1  1  1
  3  2  1  0
  4  5  1  0
  4  2  1  0
  5  7  1  0
  5  6  1  6
  7  8  2  0
  9 10  1  0
 10 11  1  0
 11 13  1  0
 11 12  1  1
 13 15  1  0
 13 14  1  6
 14  7  1  0
 15 17  1  0
 16 15  2  0
 17 18  1  0
 18 19  1  1
 19 20  1  0
 20 21  2  0
 22 21  1  0
 23 22  1  0
 24 23  2  0
 25 24  1  0
 26 27  1  0
 26 25  2  0
 27 28  2  0
 28 23  1  0
 28 20  1  0
 29 30  1  0
 29 18  1  0
 31 29  2  0
M  END
$$$$
