LIW.pdb
     RDKit          3D

 31 32  0  0  1  0  0  0  0  0999 V2000
    6.9758  -12.1242   20.0314 C   0  0  0  0  0  0  0  0  0  0  0  0
    7.5571  -13.4685   19.6685 C   0  0  1  0  0  0  0  0  0  0  0  0
    8.9030  -13.1793   18.9990 C   0  0  0  0  0  0  0  0  0  0  0  0
    7.9018  -14.2787   20.8848 C   0  0  0  0  0  0  0  0  0  0  0  0
    8.4533  -15.6198   20.6499 C   0  0  2  0  0  0  0  0  0  0  0  0
    7.5075  -16.3796   19.8513 N   0  0  0  0  0  0  0  0  0  0  0  0
    8.8050  -16.3836   21.8957 C   0  0  0  0  0  0  0  0  0  0  0  0
    7.8986  -16.9302   22.5403 O   0  0  0  0  0  0  0  0  0  0  0  0
   13.2738  -19.5912   21.7398 C   0  0  0  0  0  0  0  0  0  0  0  0
   11.9622  -18.9409   22.0222 C   0  0  0  0  0  0  0  0  0  0  0  0
   11.8629  -18.0190   23.1501 C   0  0  2  0  0  0  0  0  0  0  0  0
   12.3857  -18.7355   24.4211 C   0  0  0  0  0  0  0  0  0  0  0  0
   10.6318  -17.2676   23.4347 C   0  0  2  0  0  0  0  0  0  0  0  0
   10.1430  -16.4812   22.3261 N   0  0  0  0  0  0  0  0  0  0  0  0
   10.6072  -16.5203   24.6992 C   0  0  0  0  0  0  0  0  0  0  0  0
   11.3186  -15.4862   24.7848 O   0  0  0  0  0  0  0  0  0  0  0  0
    9.8538  -16.8730   25.8278 N   0  0  0  0  0  0  0  0  0  0  0  0
   10.1332  -16.1995   27.1068 C   0  0  1  0  0  0  0  0  0  0  0  0
    8.9362  -15.5203   27.6538 C   0  0  0  0  0  0  0  0  0  0  0  0
    7.9671  -15.0016   26.6871 C   0  0  0  0  0  0  0  0  0  0  0  0
    7.1086  -15.7579   25.9319 C   0  0  0  0  0  0  0  0  0  0  0  0
    6.3305  -14.9569   25.2315 N   0  0  0  0  0  0  0  0  0  0  0  0
    6.6471  -13.6703   25.4963 C   0  0  0  0  0  0  0  0  0  0  0  0
    6.1597  -12.4669   25.0355 C   0  0  0  0  0  0  0  0  0  0  0  0
    6.6837  -11.2678   25.4660 C   0  0  0  0  0  0  0  0  0  0  0  0
    7.7201  -11.2967   26.3820 C   0  0  0  0  0  0  0  0  0  0  0  0
    8.2155  -12.4799   26.8493 C   0  0  0  0  0  0  0  0  0  0  0  0
    7.6744  -13.6662   26.4089 C   0  0  0  0  0  0  0  0  0  0  0  0
   10.6911  -17.2761   28.0137 C   0  0  0  0  0  0  0  0  0  0  0  0
   10.7112  -18.6128   27.6384 O   0  0  0  0  0  0  0  0  0  0  0  0
   11.1468  -16.9864   29.1375 O   0  0  0  0  0  0  0  0  0  0  0  0
  2  1  1  1
  3  2  1  0
  4  5  1  0
  4  2  1  0
  5  7  1  0
  5  6  1  1
  7  8  2  0
  9 10  1  0
 10 11  1  0
 11 13  1  0
 11 12  1  1
 13 15  1  0
 13 14  1  6
 14  7  1  0
 15 17  1  0
 16 15  2  0
 17 18  1  0
 18 19  1  1
 19 20  1  0
 20 21  2  0
 22 21  1  0
 23 22  1  0
 24 23  2  0
 25 24  1  0
 26 27  1  0
 26 25  2  0
 27 28  2  0
 28 23  1  0
 28 20  1  0
 29 30  1  0
 29 18  1  0
 31 29  2  0
M  END
$$$$
