LIW.pdb
     RDKit          3D

 31 32  0  0  1  0  0  0  0  0999 V2000
    6.5580  -21.5597   23.5126 C   0  0  0  0  0  0  0  0  0  0  0  0
    5.3678  -20.6572   23.7264 C   0  0  1  0  0  0  0  0  0  0  0  0
    5.0194  -20.7637   25.2133 C   0  0  0  0  0  0  0  0  0  0  0  0
    5.7142  -19.2111   23.5180 C   0  0  0  0  0  0  0  0  0  0  0  0
    5.6811  -18.7172   22.1349 C   0  0  2  0  0  0  0  0  0  0  0  0
    5.6589  -19.8560   21.2335 N   0  0  0  0  0  0  0  0  0  0  0  0
    6.8085  -17.7931   21.7686 C   0  0  0  0  0  0  0  0  0  0  0  0
    7.8744  -18.2783   21.3637 O   0  0  0  0  0  0  0  0  0  0  0  0
    6.1011  -12.9238   19.2632 C   0  0  0  0  0  0  0  0  0  0  0  0
    6.6444  -14.2005   19.8091 C   0  0  0  0  0  0  0  0  0  0  0  0
    7.3370  -14.1774   21.0942 C   0  0  2  0  0  0  0  0  0  0  0  0
    8.5405  -13.2065   20.9892 C   0  0  0  0  0  0  0  0  0  0  0  0
    7.7130  -15.4123   21.7976 C   0  0  2  0  0  0  0  0  0  0  0  0
    6.6591  -16.3966   21.8801 N   0  0  0  0  0  0  0  0  0  0  0  0
    8.4139  -15.2407   23.0772 C   0  0  0  0  0  0  0  0  0  0  0  0
    7.9530  -14.4000   23.8918 O   0  0  0  0  0  0  0  0  0  0  0  0
    9.5666  -15.9393   23.4633 N   0  0  0  0  0  0  0  0  0  0  0  0
   10.2889  -15.5051   24.6705 C   0  0  1  0  0  0  0  0  0  0  0  0
    9.5658  -15.8612   25.9128 C   0  0  0  0  0  0  0  0  0  0  0  0
    8.2668  -15.2227   26.1313 C   0  0  0  0  0  0  0  0  0  0  0  0
    7.0489  -15.8500   26.0783 C   0  0  0  0  0  0  0  0  0  0  0  0
    6.1053  -14.9878   26.4005 N   0  0  0  0  0  0  0  0  0  0  0  0
    6.6609  -13.7858   26.6692 C   0  0  0  0  0  0  0  0  0  0  0  0
    6.1349  -12.5665   27.0365 C   0  0  0  0  0  0  0  0  0  0  0  0
    6.9413  -11.4680   27.2381 C   0  0  0  0  0  0  0  0  0  0  0  0
    8.3058  -11.6159   27.0638 C   0  0  0  0  0  0  0  0  0  0  0  0
    8.8443  -12.8164   26.7000 C   0  0  0  0  0  0  0  0  0  0  0  0
    8.0206  -13.9021   26.5077 C   0  0  0  0  0  0  0  0  0  0  0  0
   11.6627  -16.1328   24.5634 C   0  0  0  0  0  0  0  0  0  0  0  0
   12.6819  -15.8224   25.4539 O   0  0  0  0  0  0  0  0  0  0  0  0
   11.9185  -16.9503   23.6575 O   0  0  0  0  0  0  0  0  0  0  0  0
  2  1  1  1
  3  2  1  0
  4  5  1  0
  4  2  1  0
  5  7  1  0
  5  6  1  6
  7  8  2  0
  9 10  1  0
 10 11  1  0
 11 13  1  0
 11 12  1  6
 13 15  1  0
 13 14  1  1
 14  7  1  0
 15 17  1  0
 16 15  2  0
 17 18  1  0
 18 19  1  1
 19 20  1  0
 20 21  2  0
 22 21  1  0
 23 22  1  0
 24 23  2  0
 25 24  1  0
 26 27  1  0
 26 25  2  0
 27 28  2  0
 28 23  1  0
 28 20  1  0
 29 30  1  0
 29 18  1  0
 31 29  2  0
M  END
$$$$
