LIW.pdb
     RDKit          3D

 31 32  0  0  1  0  0  0  0  0999 V2000
    6.8308  -11.9946   28.1884 C   0  0  0  0  0  0  0  0  0  0  0  0
    6.0522  -12.9120   27.2780 C   0  0  1  0  0  0  0  0  0  0  0  0
    5.2118  -12.0011   26.3794 C   0  0  0  0  0  0  0  0  0  0  0  0
    6.9483  -13.6593   26.3329 C   0  0  0  0  0  0  0  0  0  0  0  0
    6.3004  -14.6184   25.4283 C   0  0  2  0  0  0  0  0  0  0  0  0
    5.5888  -15.6029   26.2245 N   0  0  0  0  0  0  0  0  0  0  0  0
    7.2304  -15.3072   24.4693 C   0  0  0  0  0  0  0  0  0  0  0  0
    7.5571  -16.4821   24.6897 O   0  0  0  0  0  0  0  0  0  0  0  0
    7.4805  -12.9625   19.4237 C   0  0  0  0  0  0  0  0  0  0  0  0
    7.4298  -14.0372   20.4560 C   0  0  0  0  0  0  0  0  0  0  0  0
    8.6755  -14.4684   21.0837 C   0  0  2  0  0  0  0  0  0  0  0  0
    9.5057  -15.2596   20.0412 C   0  0  0  0  0  0  0  0  0  0  0  0
    8.6964  -15.1354   22.3936 C   0  0  2  0  0  0  0  0  0  0  0  0
    7.7233  -14.6323   23.3350 N   0  0  0  0  0  0  0  0  0  0  0  0
   10.0191  -15.3176   23.0062 C   0  0  0  0  0  0  0  0  0  0  0  0
   10.4814  -14.3742   23.6984 O   0  0  0  0  0  0  0  0  0  0  0  0
   10.8154  -16.4642   22.8755 N   0  0  0  0  0  0  0  0  0  0  0  0
   11.5842  -16.9313   24.0409 C   0  0  1  0  0  0  0  0  0  0  0  0
   10.7794  -17.8009   24.9293 C   0  0  0  0  0  0  0  0  0  0  0  0
   10.6294  -17.3716   26.3207 C   0  0  0  0  0  0  0  0  0  0  0  0
   10.8968  -18.1367   27.4264 C   0  0  0  0  0  0  0  0  0  0  0  0
   10.7236  -17.4051   28.5091 N   0  0  0  0  0  0  0  0  0  0  0  0
   10.3412  -16.1576   28.1580 C   0  0  0  0  0  0  0  0  0  0  0  0
   10.0265  -15.0300   28.8844 C   0  0  0  0  0  0  0  0  0  0  0  0
    9.6416  -13.8612   28.2652 C   0  0  0  0  0  0  0  0  0  0  0  0
    9.5781  -13.8419   26.8833 C   0  0  0  0  0  0  0  0  0  0  0  0
    9.8863  -14.9498   26.1476 C   0  0  0  0  0  0  0  0  0  0  0  0
   10.2725  -16.1059   26.7866 C   0  0  0  0  0  0  0  0  0  0  0  0
   12.8086  -17.6126   23.4668 C   0  0  0  0  0  0  0  0  0  0  0  0
   14.0403  -17.5670   24.1061 O   0  0  0  0  0  0  0  0  0  0  0  0
   12.7421  -18.2349   22.3885 O   0  0  0  0  0  0  0  0  0  0  0  0
  2  1  1  1
  3  2  1  0
  4  5  1  0
  4  2  1  0
  5  7  1  0
  5  6  1  1
  7  8  2  0
  9 10  1  0
 10 11  1  0
 11 13  1  0
 11 12  1  6
 13 15  1  0
 13 14  1  1
 14  7  1  0
 15 17  1  0
 16 15  2  0
 17 18  1  0
 18 19  1  6
 19 20  1  0
 20 21  2  0
 22 21  1  0
 23 22  1  0
 24 23  2  0
 25 24  1  0
 26 27  1  0
 26 25  2  0
 27 28  2  0
 28 23  1  0
 28 20  1  0
 29 30  1  0
 29 18  1  0
 31 29  2  0
M  END
$$$$
