AYI.pdb
     RDKit          3D

 26 26  0  0  1  0  0  0  0  0999 V2000
    7.2433  -15.1169   19.8733 C   0  0  0  0  0  0  0  0  0  0  0  0
    6.9986  -16.5833   20.1840 C   0  0  2  0  0  0  0  0  0  0  0  0
    5.8605  -17.0817   19.4620 N   0  0  0  0  0  0  0  0  0  0  0  0
    6.8459  -16.7538   21.6742 C   0  0  0  0  0  0  0  0  0  0  0  0
    5.8034  -16.2712   22.1850 O   0  0  0  0  0  0  0  0  0  0  0  0
    8.3488  -19.5588   29.9814 O   0  0  0  0  0  0  0  0  0  0  0  0
    8.3144  -19.3874   28.5902 C   0  0  0  0  0  0  0  0  0  0  0  0
    9.4750  -19.3070   27.8506 C   0  0  0  0  0  0  0  0  0  0  0  0
    9.3882  -19.1366   26.4689 C   0  0  0  0  0  0  0  0  0  0  0  0
    8.1784  -19.0459   25.8246 C   0  0  0  0  0  0  0  0  0  0  0  0
    8.1167  -18.8670   24.3832 C   0  0  0  0  0  0  0  0  0  0  0  0
    7.7274  -17.5229   23.8786 C   0  0  2  0  0  0  0  0  0  0  0  0
    7.8214  -17.4193   22.4442 N   0  0  0  0  0  0  0  0  0  0  0  0
    8.3492  -16.3712   24.5260 C   0  0  0  0  0  0  0  0  0  0  0  0
    9.5107  -15.9901   24.1628 O   0  0  0  0  0  0  0  0  0  0  0  0
    7.0107  -19.1254   26.5546 C   0  0  0  0  0  0  0  0  0  0  0  0
    7.1054  -19.2958   27.9348 C   0  0  0  0  0  0  0  0  0  0  0  0
    5.4217  -12.1062   26.3350 C   0  0  0  0  0  0  0  0  0  0  0  0
    6.5035  -12.9533   25.7319 C   0  0  0  0  0  0  0  0  0  0  0  0
    7.4643  -13.4805   26.7832 C   0  0  2  0  0  0  0  0  0  0  0  0
    8.2540  -12.2930   27.2958 C   0  0  0  0  0  0  0  0  0  0  0  0
    8.4449  -14.4430   26.1434 C   0  0  2  0  0  0  0  0  0  0  0  0
    7.7743  -15.5860   25.5685 N   0  0  0  0  0  0  0  0  0  0  0  0
    9.4943  -14.7827   27.1161 C   0  0  0  0  0  0  0  0  0  0  0  0
    9.5597  -16.0018   27.7710 O   0  0  0  0  0  0  0  0  0  0  0  0
   10.3851  -13.9408   27.3820 O   0  0  0  0  0  0  0  0  0  0  0  0
  2  3  1  0
  2  1  1  1
  4  2  1  0
  5  4  2  0
  7  6  1  0
  7  8  2  0
  9  8  1  0
 10  9  2  0
 11 10  1  0
 12 11  1  1
 12 13  1  0
 13  4  1  0
 14 23  1  0
 14 12  1  0
 15 14  2  0
 16 17  2  0
 16 10  1  0
 17  7  1  0
 18 19  1  0
 19 20  1  0
 20 22  1  0
 20 21  1  6
 22 23  1  1
 24 25  1  0
 24 22  1  0
 26 24  2  0
M  END
$$$$
