AYI.pdb
     RDKit          3D

 26 26  0  0  1  0  0  0  0  0999 V2000
   11.5389  -18.8444   20.7832 C   0  0  0  0  0  0  0  0  0  0  0  0
   11.0728  -17.4572   20.3766 C   0  0  2  0  0  0  0  0  0  0  0  0
   12.0619  -16.7948   19.5718 N   0  0  0  0  0  0  0  0  0  0  0  0
   10.7267  -16.6697   21.6148 C   0  0  0  0  0  0  0  0  0  0  0  0
   11.6664  -16.0227   22.1429 O   0  0  0  0  0  0  0  0  0  0  0  0
    5.7993  -11.8374   27.1768 O   0  0  0  0  0  0  0  0  0  0  0  0
    6.2634  -12.6970   26.1710 C   0  0  0  0  0  0  0  0  0  0  0  0
    7.0085  -12.2228   25.1125 C   0  0  0  0  0  0  0  0  0  0  0  0
    7.4474  -13.1182   24.1371 C   0  0  0  0  0  0  0  0  0  0  0  0
    7.1573  -14.4593   24.2014 C   0  0  0  0  0  0  0  0  0  0  0  0
    7.6263  -15.3704   23.1703 C   0  0  0  0  0  0  0  0  0  0  0  0
    9.0430  -15.8177   23.2479 C   0  0  2  0  0  0  0  0  0  0  0  0
    9.4198  -16.6635   22.1436 N   0  0  0  0  0  0  0  0  0  0  0  0
    9.4840  -16.3900   24.5168 C   0  0  0  0  0  0  0  0  0  0  0  0
    9.6662  -17.6483   24.6158 O   0  0  0  0  0  0  0  0  0  0  0  0
    6.4127  -14.9449   25.2562 C   0  0  0  0  0  0  0  0  0  0  0  0
    5.9777  -14.0442   26.2270 C   0  0  0  0  0  0  0  0  0  0  0  0
   10.1241  -13.0912   29.0005 C   0  0  0  0  0  0  0  0  0  0  0  0
   10.4450  -14.0015   27.8515 C   0  0  0  0  0  0  0  0  0  0  0  0
   10.0463  -15.4387   28.1373 C   0  0  2  0  0  0  0  0  0  0  0  0
   10.9699  -15.9457   29.2265 C   0  0  0  0  0  0  0  0  0  0  0  0
   10.2792  -16.2890   26.9043 C   0  0  2  0  0  0  0  0  0  0  0  0
    9.7481  -15.6637   25.7155 N   0  0  0  0  0  0  0  0  0  0  0  0
    9.7740  -17.6480   27.1511 C   0  0  0  0  0  0  0  0  0  0  0  0
   10.5725  -18.6874   27.5999 O   0  0  0  0  0  0  0  0  0  0  0  0
    8.5620  -17.9015   26.9510 O   0  0  0  0  0  0  0  0  0  0  0  0
  2  3  1  0
  2  1  1  1
  4  2  1  0
  5  4  2  0
  7  6  1  0
  7  8  2  0
  9  8  1  0
 10  9  2  0
 11 10  1  0
 12 11  1  1
 12 13  1  0
 13  4  1  0
 14 23  1  0
 14 12  1  0
 15 14  2  0
 16 17  2  0
 16 10  1  0
 17  7  1  0
 18 19  1  0
 19 20  1  0
 20 22  1  0
 20 21  1  1
 22 23  1  6
 24 25  1  0
 24 22  1  0
 26 24  2  0
M  END
$$$$
