AYI.pdb
     RDKit          3D

 26 26  0  0  1  0  0  0  0  0999 V2000
    8.1763  -12.8441   19.2917 C   0  0  0  0  0  0  0  0  0  0  0  0
    8.2856  -14.3421   19.0661 C   0  0  2  0  0  0  0  0  0  0  0  0
    7.4958  -14.7540   17.9386 N   0  0  0  0  0  0  0  0  0  0  0  0
    7.8909  -15.0621   20.3306 C   0  0  0  0  0  0  0  0  0  0  0  0
    6.6571  -15.1750   20.5439 O   0  0  0  0  0  0  0  0  0  0  0  0
    8.0100  -20.0751   27.6037 O   0  0  0  0  0  0  0  0  0  0  0  0
    8.2847  -19.4361   26.3863 C   0  0  0  0  0  0  0  0  0  0  0  0
    9.4770  -18.7761   26.1781 C   0  0  0  0  0  0  0  0  0  0  0  0
    9.7032  -18.1561   24.9492 C   0  0  0  0  0  0  0  0  0  0  0  0
    8.7708  -18.1841   23.9409 C   0  0  0  0  0  0  0  0  0  0  0  0
    9.0319  -17.5282   22.6701 C   0  0  0  0  0  0  0  0  0  0  0  0
    8.5015  -16.1499   22.4920 C   0  0  2  0  0  0  0  0  0  0  0  0
    8.8573  -15.5779   21.2180 N   0  0  0  0  0  0  0  0  0  0  0  0
    8.7505  -15.2035   23.5758 C   0  0  0  0  0  0  0  0  0  0  0  0
    9.7778  -14.4490   23.5353 O   0  0  0  0  0  0  0  0  0  0  0  0
    7.5744  -18.8418   24.1381 C   0  0  0  0  0  0  0  0  0  0  0  0
    7.3556  -19.4591   25.3685 C   0  0  0  0  0  0  0  0  0  0  0  0
    6.6894  -10.5926   26.5293 C   0  0  0  0  0  0  0  0  0  0  0  0
    7.5708  -11.7997   26.6621 C   0  0  0  0  0  0  0  0  0  0  0  0
    7.1618  -12.9091   25.7092 C   0  0  2  0  0  0  0  0  0  0  0  0
    5.8700  -13.4958   26.2418 C   0  0  0  0  0  0  0  0  0  0  0  0
    8.2062  -14.0075   25.7243 C   0  0  2  0  0  0  0  0  0  0  0  0
    7.9329  -15.0187   24.7297 N   0  0  0  0  0  0  0  0  0  0  0  0
    8.3432  -14.5263   27.0935 C   0  0  0  0  0  0  0  0  0  0  0  0
    8.0021  -15.8194   27.4556 O   0  0  0  0  0  0  0  0  0  0  0  0
    8.7887  -13.7773   27.9955 O   0  0  0  0  0  0  0  0  0  0  0  0
  2  3  1  0
  2  1  1  1
  4  2  1  0
  5  4  2  0
  7  6  1  0
  7  8  2  0
  9  8  1  0
 10  9  2  0
 11 10  1  0
 12 11  1  1
 12 13  1  0
 13  4  1  0
 14 23  1  0
 14 12  1  0
 15 14  2  0
 16 17  2  0
 16 10  1  0
 17  7  1  0
 18 19  1  0
 19 20  1  0
 20 22  1  0
 20 21  1  1
 22 23  1  6
 24 25  1  0
 24 22  1  0
 26 24  2  0
M  END
$$$$
