AYI.pdb
     RDKit          3D

 26 26  0  0  1  0  0  0  0  0999 V2000
    8.2680  -12.8277   19.6215 C   0  0  0  0  0  0  0  0  0  0  0  0
    8.1308  -14.3250   19.4067 C   0  0  2  0  0  0  0  0  0  0  0  0
    7.1959  -14.6126   18.3541 N   0  0  0  0  0  0  0  0  0  0  0  0
    7.7398  -14.9771   20.7087 C   0  0  0  0  0  0  0  0  0  0  0  0
    6.5179  -14.9426   21.0026 O   0  0  0  0  0  0  0  0  0  0  0  0
    7.7001  -20.2273   27.8061 O   0  0  0  0  0  0  0  0  0  0  0  0
    7.9917  -19.5724   26.6011 C   0  0  0  0  0  0  0  0  0  0  0  0
    9.2839  -19.2231   26.2715 C   0  0  0  0  0  0  0  0  0  0  0  0
    9.5227  -18.5730   25.0606 C   0  0  0  0  0  0  0  0  0  0  0  0
    8.5061  -18.2705   24.1877 C   0  0  0  0  0  0  0  0  0  0  0  0
    8.7830  -17.5911   22.9327 C   0  0  0  0  0  0  0  0  0  0  0  0
    8.3453  -16.1744   22.8128 C   0  0  2  0  0  0  0  0  0  0  0  0
    8.6965  -15.5900   21.5432 N   0  0  0  0  0  0  0  0  0  0  0  0
    8.6977  -15.2812   23.9129 C   0  0  0  0  0  0  0  0  0  0  0  0
    9.8509  -14.7376   23.9439 O   0  0  0  0  0  0  0  0  0  0  0  0
    7.2093  -18.6156   24.5071 C   0  0  0  0  0  0  0  0  0  0  0  0
    6.9784  -19.2651   25.7187 C   0  0  0  0  0  0  0  0  0  0  0  0
    5.4938  -11.5155   25.9462 C   0  0  0  0  0  0  0  0  0  0  0  0
    6.6566  -12.3541   25.5028 C   0  0  0  0  0  0  0  0  0  0  0  0
    7.1986  -13.2148   26.6304 C   0  0  2  0  0  0  0  0  0  0  0  0
    7.8093  -12.2746   27.6500 C   0  0  0  0  0  0  0  0  0  0  0  0
    8.3063  -14.1067   26.1061 C   0  0  2  0  0  0  0  0  0  0  0  0
    7.8550  -14.9305   25.0088 N   0  0  0  0  0  0  0  0  0  0  0  0
    8.8936  -14.8580   27.2257 C   0  0  0  0  0  0  0  0  0  0  0  0
    8.7324  -16.2237   27.3940 O   0  0  0  0  0  0  0  0  0  0  0  0
    9.5783  -14.2517   28.0840 O   0  0  0  0  0  0  0  0  0  0  0  0
  2  3  1  0
  2  1  1  1
  4  2  1  0
  5  4  2  0
  7  6  1  0
  7  8  2  0
  9  8  1  0
 10  9  2  0
 11 10  1  0
 12 11  1  1
 12 13  1  0
 13  4  1  0
 14 23  1  0
 14 12  1  0
 15 14  2  0
 16 17  2  0
 16 10  1  0
 17  7  1  0
 18 19  1  0
 19 20  1  0
 20 22  1  0
 20 21  1  1
 22 23  1  6
 24 25  1  0
 24 22  1  0
 26 24  2  0
M  END
$$$$
