AYI.pdb
     RDKit          3D

 26 26  0  0  1  0  0  0  0  0999 V2000
    6.7149  -19.5930   25.1009 C   0  0  0  0  0  0  0  0  0  0  0  0
    6.5242  -19.2262   23.6394 C   0  0  2  0  0  0  0  0  0  0  0  0
    6.8048  -20.3465   22.7845 N   0  0  0  0  0  0  0  0  0  0  0  0
    7.3852  -18.0322   23.3134 C   0  0  0  0  0  0  0  0  0  0  0  0
    8.5786  -18.2760   23.0021 O   0  0  0  0  0  0  0  0  0  0  0  0
    8.4012  -13.1650   17.0592 O   0  0  0  0  0  0  0  0  0  0  0  0
    8.0378  -13.4804   18.3761 C   0  0  0  0  0  0  0  0  0  0  0  0
    8.4743  -12.7202   19.4400 C   0  0  0  0  0  0  0  0  0  0  0  0
    8.0849  -13.0747   20.7318 C   0  0  0  0  0  0  0  0  0  0  0  0
    7.2791  -14.1606   20.9734 C   0  0  0  0  0  0  0  0  0  0  0  0
    6.8895  -14.5085   22.3300 C   0  0  0  0  0  0  0  0  0  0  0  0
    7.6738  -15.5716   23.0138 C   0  0  2  0  0  0  0  0  0  0  0  0
    6.8728  -16.7196   23.3563 N   0  0  0  0  0  0  0  0  0  0  0  0
    8.4996  -15.1564   24.1442 C   0  0  0  0  0  0  0  0  0  0  0  0
    9.5636  -14.4839   23.9391 O   0  0  0  0  0  0  0  0  0  0  0  0
    6.8363  -14.9283   19.9163 C   0  0  0  0  0  0  0  0  0  0  0  0
    7.2294  -14.5678   18.6285 C   0  0  0  0  0  0  0  0  0  0  0  0
    6.6316  -12.0037   27.1658 C   0  0  0  0  0  0  0  0  0  0  0  0
    7.7291  -12.7864   26.5065 C   0  0  0  0  0  0  0  0  0  0  0  0
    8.2721  -13.8771   27.4130 C   0  0  2  0  0  0  0  0  0  0  0  0
    9.2525  -13.2167   28.3612 C   0  0  0  0  0  0  0  0  0  0  0  0
    9.0410  -14.8910   26.5895 C   0  0  2  0  0  0  0  0  0  0  0  0
    8.2358  -15.4310   25.5186 N   0  0  0  0  0  0  0  0  0  0  0  0
    9.6166  -15.9056   27.4852 C   0  0  0  0  0  0  0  0  0  0  0  0
   10.7471  -15.6876   28.2557 O   0  0  0  0  0  0  0  0  0  0  0  0
    9.0731  -17.0327   27.5709 O   0  0  0  0  0  0  0  0  0  0  0  0
  2  3  1  0
  2  1  1  1
  4  2  1  0
  5  4  2  0
  7  6  1  0
  7  8  2  0
  9  8  1  0
 10  9  2  0
 11 10  1  0
 12 11  1  1
 12 13  1  0
 13  4  1  0
 14 23  1  0
 14 12  1  0
 15 14  2  0
 16 17  2  0
 16 10  1  0
 17  7  1  0
 18 19  1  0
 19 20  1  0
 20 22  1  0
 20 21  1  1
 22 23  1  6
 24 25  1  0
 24 22  1  0
 26 24  2  0
M  END
$$$$
