AYI.pdb
     RDKit          3D

 26 26  0  0  1  0  0  0  0  0999 V2000
   11.8845  -18.7733   20.9056 C   0  0  0  0  0  0  0  0  0  0  0  0
   11.3291  -17.4491   20.4107 C   0  0  2  0  0  0  0  0  0  0  0  0
   12.2837  -16.7654   19.5826 N   0  0  0  0  0  0  0  0  0  0  0  0
   10.9049  -16.6180   21.5950 C   0  0  0  0  0  0  0  0  0  0  0  0
   11.7911  -15.8886   22.1081 O   0  0  0  0  0  0  0  0  0  0  0  0
    5.5327  -12.2179   27.1487 O   0  0  0  0  0  0  0  0  0  0  0  0
    6.0847  -13.0003   26.1246 C   0  0  0  0  0  0  0  0  0  0  0  0
    6.9405  -12.4560   25.1909 C   0  0  0  0  0  0  0  0  0  0  0  0
    7.4639  -13.2762   24.1913 C   0  0  0  0  0  0  0  0  0  0  0  0
    7.1498  -14.6110   24.1108 C   0  0  0  0  0  0  0  0  0  0  0  0
    7.7086  -15.4428   23.0576 C   0  0  0  0  0  0  0  0  0  0  0  0
    9.1448  -15.8134   23.1706 C   0  0  2  0  0  0  0  0  0  0  0  0
    9.5863  -16.6610   22.0920 N   0  0  0  0  0  0  0  0  0  0  0  0
    9.5906  -16.3354   24.4594 C   0  0  0  0  0  0  0  0  0  0  0  0
    9.7184  -17.5934   24.6242 O   0  0  0  0  0  0  0  0  0  0  0  0
    6.2947  -15.1663   25.0399 C   0  0  0  0  0  0  0  0  0  0  0  0
    5.7758  -14.3406   26.0358 C   0  0  0  0  0  0  0  0  0  0  0  0
   10.8365  -12.8048   28.6457 C   0  0  0  0  0  0  0  0  0  0  0  0
   10.9406  -13.8676   27.5915 C   0  0  0  0  0  0  0  0  0  0  0  0
   10.2358  -15.1478   28.0044 C   0  0  2  0  0  0  0  0  0  0  0  0
   11.0137  -15.7247   29.1700 C   0  0  0  0  0  0  0  0  0  0  0  0
   10.2940  -16.1523   26.8707 C   0  0  2  0  0  0  0  0  0  0  0  0
    9.9162  -15.5577   25.6097 N   0  0  0  0  0  0  0  0  0  0  0  0
    9.5114  -17.3422   27.2377 C   0  0  0  0  0  0  0  0  0  0  0  0
   10.0858  -18.5368   27.6406 O   0  0  0  0  0  0  0  0  0  0  0  0
    8.2589  -17.2958   27.1902 O   0  0  0  0  0  0  0  0  0  0  0  0
  2  3  1  0
  2  1  1  1
  4  2  1  0
  5  4  2  0
  7  6  1  0
  7  8  2  0
  9  8  1  0
 10  9  2  0
 11 10  1  0
 12 11  1  1
 12 13  1  0
 13  4  1  0
 14 23  1  0
 14 12  1  0
 15 14  2  0
 16 17  2  0
 16 10  1  0
 17  7  1  0
 18 19  1  0
 19 20  1  0
 20 22  1  0
 20 21  1  1
 22 23  1  6
 24 25  1  0
 24 22  1  0
 26 24  2  0
M  END
$$$$
