AYI.pdb
     RDKit          3D

 26 26  0  0  1  0  0  0  0  0999 V2000
    7.4710  -14.5938   19.4011 C   0  0  0  0  0  0  0  0  0  0  0  0
    7.1786  -16.0566   19.6866 C   0  0  2  0  0  0  0  0  0  0  0  0
    6.0378  -16.5109   18.9402 N   0  0  0  0  0  0  0  0  0  0  0  0
    6.9977  -16.2435   21.1717 C   0  0  0  0  0  0  0  0  0  0  0  0
    5.8830  -15.9033   21.6431 O   0  0  0  0  0  0  0  0  0  0  0  0
    7.9284  -19.7642   29.2405 O   0  0  0  0  0  0  0  0  0  0  0  0
    8.0103  -19.4305   27.8812 C   0  0  0  0  0  0  0  0  0  0  0  0
    9.2179  -19.1224   27.2920 C   0  0  0  0  0  0  0  0  0  0  0  0
    9.2473  -18.7972   25.9358 C   0  0  0  0  0  0  0  0  0  0  0  0
    8.1064  -18.7746   25.1711 C   0  0  0  0  0  0  0  0  0  0  0  0
    8.1654  -18.4308   23.7599 C   0  0  0  0  0  0  0  0  0  0  0  0
    7.8416  -17.0280   23.3853 C   0  0  2  0  0  0  0  0  0  0  0  0
    8.0255  -16.7719   21.9791 N   0  0  0  0  0  0  0  0  0  0  0  0
    8.4515  -15.9739   24.1911 C   0  0  0  0  0  0  0  0  0  0  0  0
    9.6495  -15.6070   23.9536 O   0  0  0  0  0  0  0  0  0  0  0  0
    6.8926  -19.0815   25.7503 C   0  0  0  0  0  0  0  0  0  0  0  0
    6.8711  -19.4056   27.1058 C   0  0  0  0  0  0  0  0  0  0  0  0
    5.8460  -11.5685   25.9886 C   0  0  0  0  0  0  0  0  0  0  0  0
    6.8920  -12.5228   25.4917 C   0  0  0  0  0  0  0  0  0  0  0  0
    7.5801  -13.2544   26.6307 C   0  0  2  0  0  0  0  0  0  0  0  0
    8.4153  -12.2309   27.3733 C   0  0  0  0  0  0  0  0  0  0  0  0
    8.5244  -14.2996   26.0710 C   0  0  2  0  0  0  0  0  0  0  0  0
    7.8263  -15.2740   25.2650 N   0  0  0  0  0  0  0  0  0  0  0  0
    9.3141  -14.8764   27.1695 C   0  0  0  0  0  0  0  0  0  0  0  0
   10.5971  -14.4597   27.4854 O   0  0  0  0  0  0  0  0  0  0  0  0
    8.8211  -15.7937   27.8684 O   0  0  0  0  0  0  0  0  0  0  0  0
  2  3  1  0
  2  1  1  1
  4  2  1  0
  5  4  2  0
  7  6  1  0
  7  8  2  0
  9  8  1  0
 10  9  2  0
 11 10  1  0
 12 11  1  1
 12 13  1  0
 13  4  1  0
 14 23  1  0
 14 12  1  0
 15 14  2  0
 16 17  2  0
 16 10  1  0
 17  7  1  0
 18 19  1  0
 19 20  1  0
 20 22  1  0
 20 21  1  6
 22 23  1  1
 24 25  1  0
 24 22  1  0
 26 24  2  0
M  END
$$$$
