AYI.pdb
     RDKit          3D

 26 26  0  0  1  0  0  0  0  0999 V2000
    9.6271  -19.7165   22.2799 C   0  0  0  0  0  0  0  0  0  0  0  0
    9.4045  -18.7686   21.1142 C   0  0  2  0  0  0  0  0  0  0  0  0
   10.2354  -19.1205   19.9959 N   0  0  0  0  0  0  0  0  0  0  0  0
    9.6420  -17.3532   21.5761 C   0  0  0  0  0  0  0  0  0  0  0  0
   10.8302  -16.9453   21.5292 O   0  0  0  0  0  0  0  0  0  0  0  0
    7.2691  -13.3584   16.4226 O   0  0  0  0  0  0  0  0  0  0  0  0
    7.3877  -13.5640   17.8045 C   0  0  0  0  0  0  0  0  0  0  0  0
    8.0283  -12.6481   18.6114 C   0  0  0  0  0  0  0  0  0  0  0  0
    8.1200  -12.8980   19.9807 C   0  0  0  0  0  0  0  0  0  0  0  0
    7.5904  -14.0317   20.5475 C   0  0  0  0  0  0  0  0  0  0  0  0
    7.7015  -14.2679   21.9776 C   0  0  0  0  0  0  0  0  0  0  0  0
    8.7902  -15.1714   22.4373 C   0  0  2  0  0  0  0  0  0  0  0  0
    8.5853  -16.5392   22.0324 N   0  0  0  0  0  0  0  0  0  0  0  0
    9.1569  -15.0952   23.8487 C   0  0  0  0  0  0  0  0  0  0  0  0
   10.3845  -15.0009   24.1808 O   0  0  0  0  0  0  0  0  0  0  0  0
    6.9471  -14.9549   19.7495 C   0  0  0  0  0  0  0  0  0  0  0  0
    6.8593  -14.6983   18.3823 C   0  0  0  0  0  0  0  0  0  0  0  0
    6.1671  -11.8455   26.5514 C   0  0  0  0  0  0  0  0  0  0  0  0
    7.3073  -12.6718   26.0331 C   0  0  0  0  0  0  0  0  0  0  0  0
    7.6229  -13.8417   26.9484 C   0  0  2  0  0  0  0  0  0  0  0  0
    8.2547  -13.2662   28.1998 C   0  0  0  0  0  0  0  0  0  0  0  0
    8.6470  -14.7447   26.2900 C   0  0  2  0  0  0  0  0  0  0  0  0
    8.2516  -15.1138   24.9506 N   0  0  0  0  0  0  0  0  0  0  0  0
    8.9264  -15.8855   27.1750 C   0  0  0  0  0  0  0  0  0  0  0  0
    8.5795  -17.1910   26.8670 O   0  0  0  0  0  0  0  0  0  0  0  0
    9.5067  -15.6898   28.2695 O   0  0  0  0  0  0  0  0  0  0  0  0
  2  3  1  0
  2  1  1  1
  4  2  1  0
  5  4  2  0
  7  6  1  0
  7  8  2  0
  9  8  1  0
 10  9  2  0
 11 10  1  0
 12 11  1  1
 12 13  1  0
 13  4  1  0
 14 23  1  0
 14 12  1  0
 15 14  2  0
 16 17  2  0
 16 10  1  0
 17  7  1  0
 18 19  1  0
 19 20  1  0
 20 22  1  0
 20 21  1  1
 22 23  1  6
 24 25  1  0
 24 22  1  0
 26 24  2  0
M  END
$$$$
