AYI.pdb
     RDKit          3D

 26 26  0  0  1  0  0  0  0  0999 V2000
    4.7485  -19.6522   22.3275 C   0  0  0  0  0  0  0  0  0  0  0  0
    5.3447  -18.6892   21.3155 C   0  0  2  0  0  0  0  0  0  0  0  0
    5.7348  -19.3766   20.1154 N   0  0  0  0  0  0  0  0  0  0  0  0
    6.4983  -17.9559   21.9516 C   0  0  0  0  0  0  0  0  0  0  0  0
    7.6099  -18.5429   21.9297 O   0  0  0  0  0  0  0  0  0  0  0  0
    8.6082  -12.5765   17.9550 O   0  0  0  0  0  0  0  0  0  0  0  0
    8.3274  -13.0696   19.2371 C   0  0  0  0  0  0  0  0  0  0  0  0
    9.3383  -13.3735   20.1237 C   0  0  0  0  0  0  0  0  0  0  0  0
    9.0076  -13.8611   21.3881 C   0  0  0  0  0  0  0  0  0  0  0  0
    7.7026  -14.0476   21.7742 C   0  0  0  0  0  0  0  0  0  0  0  0
    7.3860  -14.5587   23.0978 C   0  0  0  0  0  0  0  0  0  0  0  0
    7.3839  -16.0355   23.2765 C   0  0  2  0  0  0  0  0  0  0  0  0
    6.3317  -16.6833   22.5347 N   0  0  0  0  0  0  0  0  0  0  0  0
    7.4365  -16.5327   24.6484 C   0  0  0  0  0  0  0  0  0  0  0  0
    6.3739  -16.5640   25.3528 O   0  0  0  0  0  0  0  0  0  0  0  0
    6.6829  -13.7466   20.8952 C   0  0  0  0  0  0  0  0  0  0  0  0
    7.0212  -13.2597   19.6337 C   0  0  0  0  0  0  0  0  0  0  0  0
    6.3980  -20.6723   25.8152 C   0  0  0  0  0  0  0  0  0  0  0  0
    6.7868  -19.2318   25.9749 C   0  0  0  0  0  0  0  0  0  0  0  0
    8.1786  -19.0813   26.5635 C   0  0  2  0  0  0  0  0  0  0  0  0
    8.1176  -19.6077   27.9832 C   0  0  0  0  0  0  0  0  0  0  0  0
    8.5485  -17.6130   26.6331 C   0  0  2  0  0  0  0  0  0  0  0  0
    8.5995  -17.0118   25.3207 N   0  0  0  0  0  0  0  0  0  0  0  0
    9.7837  -17.4618   27.4169 C   0  0  0  0  0  0  0  0  0  0  0  0
   10.9562  -16.9380   26.8968 O   0  0  0  0  0  0  0  0  0  0  0  0
    9.7994  -17.8192   28.6190 O   0  0  0  0  0  0  0  0  0  0  0  0
  2  3  1  0
  2  1  1  1
  4  2  1  0
  5  4  2  0
  7  6  1  0
  7  8  2  0
  9  8  1  0
 10  9  2  0
 11 10  1  0
 12 11  1  1
 12 13  1  0
 13  4  1  0
 14 23  1  0
 14 12  1  0
 15 14  2  0
 16 17  2  0
 16 10  1  0
 17  7  1  0
 18 19  1  0
 19 20  1  0
 20 22  1  0
 20 21  1  1
 22 23  1  6
 24 25  1  0
 24 22  1  0
 26 24  2  0
M  END
$$$$
