AYI.pdb
     RDKit          3D

 26 26  0  0  1  0  0  0  0  0999 V2000
    8.4547  -12.8876   19.5772 C   0  0  0  0  0  0  0  0  0  0  0  0
    7.9895  -14.3267   19.4383 C   0  0  2  0  0  0  0  0  0  0  0  0
    6.8923  -14.4286   18.5161 N   0  0  0  0  0  0  0  0  0  0  0  0
    7.6386  -14.8662   20.8017 C   0  0  0  0  0  0  0  0  0  0  0  0
    6.4966  -14.5732   21.2383 O   0  0  0  0  0  0  0  0  0  0  0  0
    7.6019  -20.3937   27.7335 O   0  0  0  0  0  0  0  0  0  0  0  0
    7.8118  -19.7269   26.5182 C   0  0  0  0  0  0  0  0  0  0  0  0
    6.7669  -19.4582   25.6600 C   0  0  0  0  0  0  0  0  0  0  0  0
    7.0270  -18.7918   24.4625 C   0  0  0  0  0  0  0  0  0  0  0  0
    8.2955  -18.3964   24.1140 C   0  0  0  0  0  0  0  0  0  0  0  0
    8.5387  -17.7045   22.8589 C   0  0  0  0  0  0  0  0  0  0  0  0
    8.1892  -16.2598   22.7973 C   0  0  2  0  0  0  0  0  0  0  0  0
    8.5452  -15.6553   21.5385 N   0  0  0  0  0  0  0  0  0  0  0  0
    8.6249  -15.4289   23.9162 C   0  0  0  0  0  0  0  0  0  0  0  0
    9.8249  -14.9992   23.9575 O   0  0  0  0  0  0  0  0  0  0  0  0
    9.3486  -18.6597   24.9652 C   0  0  0  0  0  0  0  0  0  0  0  0
    9.0809  -19.3258   26.1600 C   0  0  0  0  0  0  0  0  0  0  0  0
    5.7272  -11.4732   26.0166 C   0  0  0  0  0  0  0  0  0  0  0  0
    6.8398  -12.3721   25.5630 C   0  0  0  0  0  0  0  0  0  0  0  0
    7.3205  -13.2865   26.6760 C   0  0  2  0  0  0  0  0  0  0  0  0
    8.0186  -12.4111   27.6972 C   0  0  0  0  0  0  0  0  0  0  0  0
    8.3442  -14.2621   26.1304 C   0  0  2  0  0  0  0  0  0  0  0  0
    7.8189  -15.0231   25.0207 N   0  0  0  0  0  0  0  0  0  0  0  0
    8.8672  -15.0822   27.2335 C   0  0  0  0  0  0  0  0  0  0  0  0
    8.5565  -16.4221   27.3999 O   0  0  0  0  0  0  0  0  0  0  0  0
    9.6347  -14.5627   28.0785 O   0  0  0  0  0  0  0  0  0  0  0  0
  2  3  1  0
  2  1  1  1
  4  2  1  0
  5  4  2  0
  7  6  1  0
  7  8  2  0
  9  8  1  0
 10  9  2  0
 11 10  1  0
 12 11  1  1
 12 13  1  0
 13  4  1  0
 14 23  1  0
 14 12  1  0
 15 14  2  0
 16 17  2  0
 16 10  1  0
 17  7  1  0
 18 19  1  0
 19 20  1  0
 20 22  1  0
 20 21  1  1
 22 23  1  6
 24 25  1  0
 24 22  1  0
 26 24  2  0
M  END
$$$$
