AYI.pdb
     RDKit          3D

 26 26  0  0  1  0  0  0  0  0999 V2000
    8.0366  -13.1916   19.3029 C   0  0  0  0  0  0  0  0  0  0  0  0
    7.9603  -14.7083   19.3284 C   0  0  2  0  0  0  0  0  0  0  0  0
    7.0458  -15.1966   18.3334 N   0  0  0  0  0  0  0  0  0  0  0  0
    7.5851  -15.1608   20.7168 C   0  0  0  0  0  0  0  0  0  0  0  0
    6.3850  -14.9916   21.0512 O   0  0  0  0  0  0  0  0  0  0  0  0
    7.9902  -19.5092   28.4475 O   0  0  0  0  0  0  0  0  0  0  0  0
    8.1411  -19.0345   27.1369 C   0  0  0  0  0  0  0  0  0  0  0  0
    9.3841  -18.7273   26.6262 C   0  0  0  0  0  0  0  0  0  0  0  0
    9.4821  -18.2586   25.3160 C   0  0  0  0  0  0  0  0  0  0  0  0
    8.3743  -18.0940   24.5206 C   0  0  0  0  0  0  0  0  0  0  0  0
    8.5049  -17.6024   23.1588 C   0  0  0  0  0  0  0  0  0  0  0  0
    8.1911  -16.1683   22.9180 C   0  0  2  0  0  0  0  0  0  0  0  0
    8.5324  -15.7412   21.5847 N   0  0  0  0  0  0  0  0  0  0  0  0
    8.6743  -15.2130   23.9110 C   0  0  0  0  0  0  0  0  0  0  0  0
    9.8761  -14.7906   23.8522 O   0  0  0  0  0  0  0  0  0  0  0  0
    7.1255  -18.3985   25.0212 C   0  0  0  0  0  0  0  0  0  0  0  0
    7.0355  -18.8664   26.3311 C   0  0  0  0  0  0  0  0  0  0  0  0
    5.3429  -11.7890   26.9796 C   0  0  0  0  0  0  0  0  0  0  0  0
    6.2401  -12.9596   26.7031 C   0  0  0  0  0  0  0  0  0  0  0  0
    7.5762  -12.5269   26.1252 C   0  0  2  0  0  0  0  0  0  0  0  0
    7.2978  -11.9484   24.7526 C   0  0  0  0  0  0  0  0  0  0  0  0
    8.4701  -13.7371   25.9414 C   0  0  2  0  0  0  0  0  0  0  0  0
    7.9153  -14.6721   24.9905 N   0  0  0  0  0  0  0  0  0  0  0  0
    8.7728  -14.3196   27.2575 C   0  0  0  0  0  0  0  0  0  0  0  0
    9.5592  -13.6878   28.2072 O   0  0  0  0  0  0  0  0  0  0  0  0
    8.3063  -15.4449   27.5562 O   0  0  0  0  0  0  0  0  0  0  0  0
  2  3  1  0
  2  1  1  1
  4  2  1  0
  5  4  2  0
  7  6  1  0
  7  8  2  0
  9  8  1  0
 10  9  2  0
 11 10  1  0
 12 11  1  1
 12 13  1  0
 13  4  1  0
 14 23  1  0
 14 12  1  0
 15 14  2  0
 16 17  2  0
 16 10  1  0
 17  7  1  0
 18 19  1  0
 19 20  1  0
 20 22  1  0
 20 21  1  6
 22 23  1  6
 24 25  1  0
 24 22  1  0
 26 24  2  0
M  END
$$$$
