FRV.pdb
     RDKit          3D

 30 30  0  0  1  0  0  0  0  0999 V2000
   26.6063  -18.4236   -8.1309 N   0  0  0  0  0  0  0  0  0  0  0  0
   27.0392  -19.7061   -8.5980 C   0  0  1  0  0  0  0  0  0  0  0  0
   26.9343  -20.7694   -7.5240 C   0  0  0  0  0  0  0  0  0  0  0  0
   27.8647  -20.4151   -6.4278 C   0  0  0  0  0  0  0  0  0  0  0  0
   27.4548  -19.6979   -5.3231 C   0  0  0  0  0  0  0  0  0  0  0  0
   28.3073  -19.3602   -4.2940 C   0  0  0  0  0  0  0  0  0  0  0  0
   29.6252  -19.7614   -4.3819 C   0  0  0  0  0  0  0  0  0  0  0  0
   30.0363  -20.4765   -5.4821 C   0  0  0  0  0  0  0  0  0  0  0  0
   29.1770  -20.8131   -6.5125 C   0  0  0  0  0  0  0  0  0  0  0  0
   26.2881  -20.0810   -9.8071 C   0  0  0  0  0  0  0  0  0  0  0  0
   25.0706  -19.7990   -9.9295 O   0  0  0  0  0  0  0  0  0  0  0  0
   30.5548  -23.1367  -15.0019 N   0  0  0  0  0  0  0  0  0  0  0  0
   29.3580  -23.6260  -15.5663 C   0  0  0  0  0  0  0  0  0  0  0  0
   29.1674  -24.8796  -15.8946 N   0  0  0  0  0  0  0  0  0  0  0  0
   28.2454  -22.7601  -15.8207 N   0  0  0  0  0  0  0  0  0  0  0  0
   28.2259  -21.3640  -15.5395 C   0  0  0  0  0  0  0  0  0  0  0  0
   27.1675  -20.9459  -14.5651 C   0  0  0  0  0  0  0  0  0  0  0  0
   27.5775  -21.1218  -13.1414 C   0  0  0  0  0  0  0  0  0  0  0  0
   26.4715  -20.6416  -12.2118 C   0  0  2  0  0  0  0  0  0  0  0  0
   26.9387  -20.7711  -10.8560 N   0  0  0  0  0  0  0  0  0  0  0  0
   25.2095  -21.3550  -12.4232 C   0  0  0  0  0  0  0  0  0  0  0  0
   25.0867  -22.5588  -12.0649 O   0  0  0  0  0  0  0  0  0  0  0  0
   28.2933  -25.2227  -16.3051 C   0  0  0  0  0  0  0  0  0  0  0  0
   21.5723  -20.0061  -11.6394 C   0  0  2  0  0  0  0  0  0  0  0  0
   21.6046  -20.6095  -13.0224 C   0  0  0  0  0  0  0  0  0  0  0  0
   21.5429  -19.4794  -14.0259 C   0  0  2  0  0  0  0  0  0  0  0  0
   22.8337  -21.4633  -13.2506 N   0  0  0  0  0  0  0  0  0  0  0  0
   24.0573  -20.7639  -13.0314 C   0  0  0  0  0  0  0  0  0  0  0  0
   22.7723  -22.1582  -14.5576 O   0  0  0  0  0  0  0  0  0  0  0  0
   23.5598  -21.9324  -15.5043 O   0  0  0  0  0  0  0  0  0  0  0  0
  2  1  1  1
  2 10  1  0
  3  2  1  0
  4  3  1  0
  4  9  2  0
  5  4  1  0
  6  5  2  0
  6  7  1  0
  7  8  2  0
  8  9  1  0
 10 11  2  0
 13 12  1  0
 13 15  1  0
 14 13  2  0
 15 16  1  0
 16 17  1  0
 17 18  1  0
 19 18  1  6
 19 21  1  0
 20 19  1  0
 20 10  1  0
 21 22  2  0
 24 23  1  1
 24 26  1  0
 25 24  1  0
 26 28  1  0
 27 21  1  0
 26 27  1  6
 28 29  2  0
 28 30  1  0
M  END
$$$$
