FRV.pdb
     RDKit          3D

 30 30  0  0  1  0  0  0  0  0999 V2000
   24.1725  -13.3882  -18.1296 N   0  0  0  0  0  0  0  0  0  0  0  0
   24.0312  -12.9075  -16.7882 C   0  0  1  0  0  0  0  0  0  0  0  0
   25.3661  -12.7867  -16.0821 C   0  0  0  0  0  0  0  0  0  0  0  0
   25.9587  -14.1395  -15.9753 C   0  0  0  0  0  0  0  0  0  0  0  0
   25.5996  -15.0189  -14.9752 C   0  0  0  0  0  0  0  0  0  0  0  0
   26.1408  -16.2814  -14.8615 C   0  0  0  0  0  0  0  0  0  0  0  0
   27.0813  -16.6731  -15.7929 C   0  0  0  0  0  0  0  0  0  0  0  0
   27.4411  -15.7983  -16.7910 C   0  0  0  0  0  0  0  0  0  0  0  0
   26.8950  -14.5321  -16.9010 C   0  0  0  0  0  0  0  0  0  0  0  0
   23.2993  -11.6304  -16.7858 C   0  0  0  0  0  0  0  0  0  0  0  0
   23.4336  -10.8026  -17.7203 O   0  0  0  0  0  0  0  0  0  0  0  0
   15.3116  -11.3753  -16.6941 N   0  0  0  0  0  0  0  0  0  0  0  0
   16.0416  -12.5023  -17.1267 C   0  0  0  0  0  0  0  0  0  0  0  0
   15.5809  -13.3851  -17.9778 N   0  0  0  0  0  0  0  0  0  0  0  0
   17.3687  -12.7580  -16.6518 N   0  0  0  0  0  0  0  0  0  0  0  0
   18.0793  -11.9196  -15.7458 C   0  0  0  0  0  0  0  0  0  0  0  0
   19.4280  -11.4871  -16.2343 C   0  0  0  0  0  0  0  0  0  0  0  0
   20.1710  -10.6530  -15.2453 C   0  0  0  0  0  0  0  0  0  0  0  0
   21.5088  -10.2152  -15.8255 C   0  0  2  0  0  0  0  0  0  0  0  0
   22.4264  -11.3196  -15.7175 N   0  0  0  0  0  0  0  0  0  0  0  0
   22.0327   -9.0074  -15.1827 C   0  0  0  0  0  0  0  0  0  0  0  0
   22.5660   -9.0698  -14.0407 O   0  0  0  0  0  0  0  0  0  0  0  0
   16.1109  -14.2141  -18.2643 C   0  0  0  0  0  0  0  0  0  0  0  0
   24.3938   -6.2708  -16.6468 C   0  0  2  0  0  0  0  0  0  0  0  0
   23.2053   -5.5889  -16.0141 C   0  0  0  0  0  0  0  0  0  0  0  0
   22.3336   -5.0457  -17.1246 C   0  0  2  0  0  0  0  0  0  0  0  0
   22.4158   -6.5195  -15.1184 N   0  0  0  0  0  0  0  0  0  0  0  0
   21.9824   -7.7075  -15.7782 C   0  0  0  0  0  0  0  0  0  0  0  0
   21.3278   -5.7986  -14.4173 O   0  0  0  0  0  0  0  0  0  0  0  0
   20.1103   -6.0211  -14.6058 O   0  0  0  0  0  0  0  0  0  0  0  0
  2  1  1  6
  2 10  1  0
  3  2  1  0
  4  3  1  0
  4  9  2  0
  5  4  1  0
  6  5  2  0
  6  7  1  0
  7  8  2  0
  8  9  1  0
 10 11  2  0
 13 12  1  0
 13 15  1  0
 14 13  2  0
 15 16  1  0
 16 17  1  0
 17 18  1  0
 19 18  1  1
 19 21  1  0
 20 19  1  0
 20 10  1  0
 21 22  2  0
 24 23  1  1
 24 26  1  0
 25 24  1  0
 26 28  1  0
 27 21  1  0
 26 27  1  1
 28 29  2  0
 28 30  1  0
M  END
$$$$
