FRV.pdb
     RDKit          3D

 30 30  0  0  1  0  0  0  0  0999 V2000
   20.1868  -17.8265  -16.2422 N   0  0  0  0  0  0  0  0  0  0  0  0
   19.5712  -16.8301  -17.0659 C   0  0  1  0  0  0  0  0  0  0  0  0
   18.3042  -17.3371  -17.7237 C   0  0  0  0  0  0  0  0  0  0  0  0
   18.6764  -18.3850  -18.7016 C   0  0  0  0  0  0  0  0  0  0  0  0
   18.5681  -19.7290  -18.4109 C   0  0  0  0  0  0  0  0  0  0  0  0
   18.9096  -20.7169  -19.3093 C   0  0  0  0  0  0  0  0  0  0  0  0
   19.3790  -20.3350  -20.5500 C   0  0  0  0  0  0  0  0  0  0  0  0
   19.4880  -18.9958  -20.8423 C   0  0  0  0  0  0  0  0  0  0  0  0
   19.1439  -18.0078  -19.9373 C   0  0  0  0  0  0  0  0  0  0  0  0
   19.3231  -15.6106  -16.2798 C   0  0  0  0  0  0  0  0  0  0  0  0
   18.8867  -15.6728  -15.1040 O   0  0  0  0  0  0  0  0  0  0  0  0
   23.2545   -7.6266  -15.9357 N   0  0  0  0  0  0  0  0  0  0  0  0
   22.1382   -7.6186  -15.0732 C   0  0  0  0  0  0  0  0  0  0  0  0
   21.8018   -6.5955  -14.3276 N   0  0  0  0  0  0  0  0  0  0  0  0
   21.2779   -8.7582  -14.9569 N   0  0  0  0  0  0  0  0  0  0  0  0
   21.4483   -9.9770  -15.6740 C   0  0  0  0  0  0  0  0  0  0  0  0
   20.3473  -10.9722  -15.4692 C   0  0  0  0  0  0  0  0  0  0  0  0
   20.5583  -12.2442  -16.2197 C   0  0  0  0  0  0  0  0  0  0  0  0
   19.3358  -13.1420  -16.0884 C   0  0  2  0  0  0  0  0  0  0  0  0
   19.5772  -14.3409  -16.8483 N   0  0  0  0  0  0  0  0  0  0  0  0
   18.0998  -12.4739  -16.5037 C   0  0  0  0  0  0  0  0  0  0  0  0
   17.9544  -12.0784  -17.6932 O   0  0  0  0  0  0  0  0  0  0  0  0
   20.9740   -6.5930  -13.7233 C   0  0  0  0  0  0  0  0  0  0  0  0
   14.4846  -13.5591  -16.4558 C   0  0  2  0  0  0  0  0  0  0  0  0
   14.5442  -12.2335  -15.7367 C   0  0  0  0  0  0  0  0  0  0  0  0
   14.3712  -12.4971  -14.2573 C   0  0  2  0  0  0  0  0  0  0  0  0
   15.8364  -11.4910  -16.0021 N   0  0  0  0  0  0  0  0  0  0  0  0
   16.9991  -12.2257  -15.6241 C   0  0  0  0  0  0  0  0  0  0  0  0
   15.7938  -10.1187  -15.4454 O   0  0  0  0  0  0  0  0  0  0  0  0
   16.5633   -9.7066  -14.5481 O   0  0  0  0  0  0  0  0  0  0  0  0
  2  1  1  1
  2 10  1  0
  3  2  1  0
  4  3  1  0
  4  9  2  0
  5  4  1  0
  6  5  2  0
  6  7  1  0
  7  8  2  0
  8  9  1  0
 10 11  2  0
 13 12  1  0
 13 15  1  0
 14 13  2  0
 15 16  1  0
 16 17  1  0
 17 18  1  0
 19 18  1  6
 19 21  1  0
 20 19  1  0
 20 10  1  0
 21 22  2  0
 24 23  1  6
 24 26  1  0
 25 24  1  0
 26 28  1  0
 27 21  1  0
 26 27  1  6
 28 29  2  0
 28 30  1  0
M  END
$$$$
