FRV.pdb
     RDKit          3D

 30 30  0  0  1  0  0  0  0  0999 V2000
   28.9219  -21.2023   -8.9295 N   0  0  0  0  0  0  0  0  0  0  0  0
   27.5401  -20.8274   -8.9492 C   0  0  1  0  0  0  0  0  0  0  0  0
   27.3018  -19.4922   -8.2743 C   0  0  0  0  0  0  0  0  0  0  0  0
   27.6989  -19.6132   -6.8529 C   0  0  0  0  0  0  0  0  0  0  0  0
   26.9073  -20.2561   -5.9241 C   0  0  0  0  0  0  0  0  0  0  0  0
   27.2619  -20.3781   -4.5977 C   0  0  0  0  0  0  0  0  0  0  0  0
   28.4622  -19.8304   -4.1915 C   0  0  0  0  0  0  0  0  0  0  0  0
   29.2532  -19.1890   -5.1155 C   0  0  0  0  0  0  0  0  0  0  0  0
   28.8930  -19.0691   -6.4457 C   0  0  0  0  0  0  0  0  0  0  0  0
   27.0369  -20.8330  -10.3324 C   0  0  0  0  0  0  0  0  0  0  0  0
   27.7709  -20.4921  -11.2925 O   0  0  0  0  0  0  0  0  0  0  0  0
   22.8373  -25.9584  -14.8462 N   0  0  0  0  0  0  0  0  0  0  0  0
   23.4180  -25.1569  -15.8515 C   0  0  0  0  0  0  0  0  0  0  0  0
   23.0027  -25.1329  -17.0936 N   0  0  0  0  0  0  0  0  0  0  0  0
   24.5263  -24.2943  -15.5694 N   0  0  0  0  0  0  0  0  0  0  0  0
   25.0507  -24.0500  -14.2679 C   0  0  0  0  0  0  0  0  0  0  0  0
   24.2222  -23.1217  -13.4334 C   0  0  0  0  0  0  0  0  0  0  0  0
   24.7953  -22.8817  -12.0770 C   0  0  0  0  0  0  0  0  0  0  0  0
   25.2639  -21.4387  -11.9513 C   0  0  2  0  0  0  0  0  0  0  0  0
   25.7049  -21.2276  -10.5969 N   0  0  0  0  0  0  0  0  0  0  0  0
   24.2320  -20.4757  -12.3440 C   0  0  0  0  0  0  0  0  0  0  0  0
   23.3155  -20.1550  -11.5379 O   0  0  0  0  0  0  0  0  0  0  0  0
   23.4910  -24.6221  -17.8359 C   0  0  0  0  0  0  0  0  0  0  0  0
   23.4111  -19.3936  -16.5603 C   0  0  2  0  0  0  0  0  0  0  0  0
   23.3196  -18.4063  -15.4224 C   0  0  0  0  0  0  0  0  0  0  0  0
   22.2114  -17.4277  -15.7420 C   0  0  1  0  0  0  0  0  0  0  0  0
   23.0712  -19.0824  -14.0909 N   0  0  0  0  0  0  0  0  0  0  0  0
   24.1837  -19.8453  -13.6274 C   0  0  0  0  0  0  0  0  0  0  0  0
   21.7957  -19.8360  -14.0986 O   0  0  0  0  0  0  0  0  0  0  0  0
   21.6902  -21.0230  -14.4824 O   0  0  0  0  0  0  0  0  0  0  0  0
  2  1  1  6
  2 10  1  0
  3  2  1  0
  4  3  1  0
  4  9  2  0
  5  4  1  0
  6  5  2  0
  6  7  1  0
  7  8  2  0
  8  9  1  0
 10 11  2  0
 13 12  1  0
 13 15  1  0
 14 13  2  0
 15 16  1  0
 16 17  1  0
 17 18  1  0
 19 18  1  1
 19 21  1  0
 20 19  1  0
 20 10  1  0
 21 22  2  0
 24 23  1  6
 24 26  1  0
 25 24  1  0
 26 28  1  0
 27 21  1  0
 26 27  1  6
 28 29  2  0
 28 30  1  0
M  END
$$$$
