FRV.pdb
     RDKit          3D

 30 30  0  0  1  0  0  0  0  0999 V2000
   24.5726  -16.5264  -18.2933 N   0  0  0  0  0  0  0  0  0  0  0  0
   24.2087  -16.6283  -16.9122 C   0  0  1  0  0  0  0  0  0  0  0  0
   23.3530  -15.4627  -16.4604 C   0  0  0  0  0  0  0  0  0  0  0  0
   24.1652  -14.2279  -16.5518 C   0  0  0  0  0  0  0  0  0  0  0  0
   23.9070  -13.2499  -17.4896 C   0  0  0  0  0  0  0  0  0  0  0  0
   24.6526  -12.0948  -17.5881 C   0  0  0  0  0  0  0  0  0  0  0  0
   25.6999  -11.9185  -16.7063 C   0  0  0  0  0  0  0  0  0  0  0  0
   25.9593  -12.8920  -15.7705 C   0  0  0  0  0  0  0  0  0  0  0  0
   25.2082  -14.0497  -15.6754 C   0  0  0  0  0  0  0  0  0  0  0  0
   23.5446  -17.9177  -16.6606 C   0  0  0  0  0  0  0  0  0  0  0  0
   22.7780  -18.4310  -17.5124 O   0  0  0  0  0  0  0  0  0  0  0  0
   23.0838  -25.1577  -14.5923 N   0  0  0  0  0  0  0  0  0  0  0  0
   24.4844  -24.9894  -14.5864 C   0  0  0  0  0  0  0  0  0  0  0  0
   25.3147  -25.7761  -15.2249 N   0  0  0  0  0  0  0  0  0  0  0  0
   25.1034  -23.9180  -13.8644 N   0  0  0  0  0  0  0  0  0  0  0  0
   24.3958  -22.8910  -13.1764 C   0  0  0  0  0  0  0  0  0  0  0  0
   23.5279  -22.0443  -14.0563 C   0  0  0  0  0  0  0  0  0  0  0  0
   24.1252  -20.7121  -14.3635 C   0  0  0  0  0  0  0  0  0  0  0  0
   23.1645  -19.8864  -15.2079 C   0  0  2  0  0  0  0  0  0  0  0  0
   23.7667  -18.5996  -15.4418 N   0  0  0  0  0  0  0  0  0  0  0  0
   21.8394  -19.7640  -14.5951 C   0  0  0  0  0  0  0  0  0  0  0  0
   21.7036  -19.2121  -13.4684 O   0  0  0  0  0  0  0  0  0  0  0  0
   26.3325  -25.6620  -15.1876 C   0  0  0  0  0  0  0  0  0  0  0  0
   18.2001  -21.6630  -16.2459 C   0  0  2  0  0  0  0  0  0  0  0  0
   18.2061  -20.3209  -15.5555 C   0  0  0  0  0  0  0  0  0  0  0  0
   16.8796  -20.1544  -14.8479 C   0  0  1  0  0  0  0  0  0  0  0  0
   19.3558  -20.1788  -14.5811 N   0  0  0  0  0  0  0  0  0  0  0  0
   20.6371  -20.2439  -15.2043 C   0  0  0  0  0  0  0  0  0  0  0  0
   19.2061  -21.1024  -13.4324 O   0  0  0  0  0  0  0  0  0  0  0  0
   19.7476  -22.2294  -13.3695 O   0  0  0  0  0  0  0  0  0  0  0  0
  2  1  1  6
  2 10  1  0
  3  2  1  0
  4  3  1  0
  4  9  2  0
  5  4  1  0
  6  5  2  0
  6  7  1  0
  7  8  2  0
  8  9  1  0
 10 11  2  0
 13 12  1  0
 13 15  1  0
 14 13  2  0
 15 16  1  0
 16 17  1  0
 17 18  1  0
 19 18  1  1
 19 21  1  0
 20 19  1  0
 20 10  1  0
 21 22  2  0
 24 23  1  6
 24 26  1  0
 25 24  1  0
 26 28  1  0
 27 21  1  0
 26 27  1  6
 28 29  2  0
 28 30  1  0
M  END
$$$$
