FRV.pdb
     RDKit          3D

 30 30  0  0  1  0  0  0  0  0999 V2000
   20.8963  -24.0611  -16.4702 N   0  0  0  0  0  0  0  0  0  0  0  0
   20.1649  -23.1153  -15.6823 C   0  0  1  0  0  0  0  0  0  0  0  0
   19.2803  -22.2272  -16.5332 C   0  0  0  0  0  0  0  0  0  0  0  0
   20.1506  -21.3870  -17.3872 C   0  0  0  0  0  0  0  0  0  0  0  0
   20.5001  -21.7611  -18.6680 C   0  0  0  0  0  0  0  0  0  0  0  0
   21.3085  -20.9910  -19.4762 C   0  0  0  0  0  0  0  0  0  0  0  0
   21.7834  -19.7962  -18.9734 C   0  0  0  0  0  0  0  0  0  0  0  0
   21.4364  -19.4210  -17.6969 C   0  0  0  0  0  0  0  0  0  0  0  0
   20.6247  -20.1974  -16.8894 C   0  0  0  0  0  0  0  0  0  0  0  0
   19.3913  -23.8162  -14.6446 C   0  0  0  0  0  0  0  0  0  0  0  0
   18.8070  -24.9001  -14.8903 O   0  0  0  0  0  0  0  0  0  0  0  0
   18.1997  -26.7633   -8.2521 N   0  0  0  0  0  0  0  0  0  0  0  0
   17.6198  -25.8035   -7.3961 C   0  0  0  0  0  0  0  0  0  0  0  0
   16.7174  -26.0871   -6.4901 N   0  0  0  0  0  0  0  0  0  0  0  0
   17.9928  -24.4221   -7.4641 N   0  0  0  0  0  0  0  0  0  0  0  0
   18.7489  -23.8392   -8.5211 C   0  0  0  0  0  0  0  0  0  0  0  0
   18.2532  -24.1783   -9.8937 C   0  0  0  0  0  0  0  0  0  0  0  0
   18.9616  -23.4329  -10.9747 C   0  0  0  0  0  0  0  0  0  0  0  0
   18.4893  -23.9113  -12.3406 C   0  0  2  0  0  0  0  0  0  0  0  0
   19.2977  -23.2687  -13.3441 N   0  0  0  0  0  0  0  0  0  0  0  0
   17.0603  -23.6720  -12.5575 C   0  0  0  0  0  0  0  0  0  0  0  0
   16.5921  -22.5012  -12.5059 O   0  0  0  0  0  0  0  0  0  0  0  0
   16.2798  -25.3759   -5.8959 C   0  0  0  0  0  0  0  0  0  0  0  0
   14.7947  -25.5332  -15.3171 C   0  0  2  0  0  0  0  0  0  0  0  0
   14.0821  -25.4667  -13.9883 C   0  0  0  0  0  0  0  0  0  0  0  0
   14.0767  -26.8568  -13.3919 C   0  0  2  0  0  0  0  0  0  0  0  0
   14.7236  -24.4776  -13.0387 N   0  0  0  0  0  0  0  0  0  0  0  0
   16.1160  -24.7104  -12.8348 C   0  0  0  0  0  0  0  0  0  0  0  0
   13.9505  -24.3592  -11.7804 O   0  0  0  0  0  0  0  0  0  0  0  0
   14.3675  -24.7513  -10.6670 O   0  0  0  0  0  0  0  0  0  0  0  0
  2  1  1  6
  2 10  1  0
  3  2  1  0
  4  3  1  0
  4  9  2  0
  5  4  1  0
  6  5  2  0
  6  7  1  0
  7  8  2  0
  8  9  1  0
 10 11  2  0
 13 12  1  0
 13 15  1  0
 14 13  2  0
 15 16  1  0
 16 17  1  0
 17 18  1  0
 19 18  1  1
 19 21  1  0
 20 19  1  0
 20 10  1  0
 21 22  2  0
 24 23  1  6
 24 26  1  0
 25 24  1  0
 26 28  1  0
 27 21  1  0
 26 27  1  1
 28 29  2  0
 28 30  1  0
M  END
$$$$
