FRV.pdb
     RDKit          3D

 30 30  0  0  1  0  0  0  0  0999 V2000
   24.5969  -19.3746  -17.7510 N   0  0  0  0  0  0  0  0  0  0  0  0
   23.6369  -18.8383  -16.8339 C   0  0  1  0  0  0  0  0  0  0  0  0
   22.5293  -18.0861  -17.5428 C   0  0  0  0  0  0  0  0  0  0  0  0
   23.1267  -16.9172  -18.2279 C   0  0  0  0  0  0  0  0  0  0  0  0
   23.2700  -16.8669  -19.5988 C   0  0  0  0  0  0  0  0  0  0  0  0
   23.8234  -15.7869  -20.2524 C   0  0  0  0  0  0  0  0  0  0  0  0
   24.2493  -14.7150  -19.4939 C   0  0  0  0  0  0  0  0  0  0  0  0
   24.1075  -14.7627  -18.1270 C   0  0  0  0  0  0  0  0  0  0  0  0
   23.5515  -15.8489  -17.4755 C   0  0  0  0  0  0  0  0  0  0  0  0
   23.1028  -19.9115  -15.9798 C   0  0  0  0  0  0  0  0  0  0  0  0
   22.8170  -21.0384  -16.4543 O   0  0  0  0  0  0  0  0  0  0  0  0
   27.0142  -20.6804   -8.7022 N   0  0  0  0  0  0  0  0  0  0  0  0
   27.4888  -21.0819   -9.9686 C   0  0  0  0  0  0  0  0  0  0  0  0
   28.7251  -21.4478  -10.2000 N   0  0  0  0  0  0  0  0  0  0  0  0
   26.6255  -21.1178  -11.1112 N   0  0  0  0  0  0  0  0  0  0  0  0
   25.2330  -20.8196  -11.0827 C   0  0  0  0  0  0  0  0  0  0  0  0
   24.5423  -20.9733  -12.4033 C   0  0  0  0  0  0  0  0  0  0  0  0
   23.1129  -20.5467  -12.3715 C   0  0  0  0  0  0  0  0  0  0  0  0
   22.4721  -20.7509  -13.7373 C   0  0  2  0  0  0  0  0  0  0  0  0
   22.9039  -19.6810  -14.5988 N   0  0  0  0  0  0  0  0  0  0  0  0
   21.0113  -20.8368  -13.6664 C   0  0  0  0  0  0  0  0  0  0  0  0
   20.3274  -19.8358  -13.3159 O   0  0  0  0  0  0  0  0  0  0  0  0
   29.0711  -21.6872  -11.1345 C   0  0  0  0  0  0  0  0  0  0  0  0
   18.5742  -22.0746  -16.3962 C   0  0  2  0  0  0  0  0  0  0  0  0
   18.2207  -22.7719  -15.1052 C   0  0  0  0  0  0  0  0  0  0  0  0
   18.6668  -24.2130  -15.2161 C   0  0  2  0  0  0  0  0  0  0  0  0
   18.8494  -22.1067  -13.8995 N   0  0  0  0  0  0  0  0  0  0  0  0
   20.2711  -22.0209  -13.9777 C   0  0  0  0  0  0  0  0  0  0  0  0
   18.3589  -22.7057  -12.6363 O   0  0  0  0  0  0  0  0  0  0  0  0
   17.1671  -22.6522  -12.2567 O   0  0  0  0  0  0  0  0  0  0  0  0
  2  1  1  6
  2 10  1  0
  3  2  1  0
  4  3  1  0
  4  9  2  0
  5  4  1  0
  6  5  2  0
  6  7  1  0
  7  8  2  0
  8  9  1  0
 10 11  2  0
 13 12  1  0
 13 15  1  0
 14 13  2  0
 15 16  1  0
 16 17  1  0
 17 18  1  0
 19 18  1  1
 19 21  1  0
 20 19  1  0
 20 10  1  0
 21 22  2  0
 24 23  1  6
 24 26  1  0
 25 24  1  0
 26 28  1  0
 27 21  1  0
 26 27  1  1
 28 29  2  0
 28 30  1  0
M  END
$$$$
