FRV.pdb
     RDKit          3D

 30 30  0  0  1  0  0  0  0  0999 V2000
   24.1163  -15.9285  -18.2720 N   0  0  0  0  0  0  0  0  0  0  0  0
   24.3336  -15.8927  -16.8571 C   0  0  1  0  0  0  0  0  0  0  0  0
   23.2973  -15.0501  -16.1422 C   0  0  0  0  0  0  0  0  0  0  0  0
   23.6722  -13.6257  -16.2941 C   0  0  0  0  0  0  0  0  0  0  0  0
   24.7582  -13.0811  -15.6409 C   0  0  0  0  0  0  0  0  0  0  0  0
   25.1212  -11.7578  -15.7715 C   0  0  0  0  0  0  0  0  0  0  0  0
   24.3594  -10.9515  -16.5931 C   0  0  0  0  0  0  0  0  0  0  0  0
   23.2762  -11.4920  -17.2454 C   0  0  0  0  0  0  0  0  0  0  0  0
   22.9158  -12.8208  -17.1112 C   0  0  0  0  0  0  0  0  0  0  0  0
   24.3823  -17.2625  -16.3206 C   0  0  0  0  0  0  0  0  0  0  0  0
   23.6022  -18.1528  -16.7398 O   0  0  0  0  0  0  0  0  0  0  0  0
   24.7335  -23.2073  -13.6142 N   0  0  0  0  0  0  0  0  0  0  0  0
   25.8185  -23.3381  -12.7222 C   0  0  0  0  0  0  0  0  0  0  0  0
   25.8014  -24.1090  -11.6633 N   0  0  0  0  0  0  0  0  0  0  0  0
   27.0407  -22.6187  -12.9246 N   0  0  0  0  0  0  0  0  0  0  0  0
   27.1420  -21.3707  -13.6035 C   0  0  0  0  0  0  0  0  0  0  0  0
   26.3965  -20.2492  -12.9471 C   0  0  0  0  0  0  0  0  0  0  0  0
   26.4589  -18.9727  -13.7169 C   0  0  0  0  0  0  0  0  0  0  0  0
   25.3069  -18.8997  -14.7096 C   0  0  2  0  0  0  0  0  0  0  0  0
   25.3201  -17.5935  -15.3153 N   0  0  0  0  0  0  0  0  0  0  0  0
   24.0125  -19.2005  -14.0926 C   0  0  0  0  0  0  0  0  0  0  0  0
   23.6195  -18.5551  -13.0819 O   0  0  0  0  0  0  0  0  0  0  0  0
   26.6080  -24.2214  -11.0413 C   0  0  0  0  0  0  0  0  0  0  0  0
   20.5170  -19.1778  -15.4295 C   0  0  2  0  0  0  0  0  0  0  0  0
   20.6960  -20.5312  -14.7860 C   0  0  0  0  0  0  0  0  0  0  0  0
   20.7794  -21.5642  -15.8878 C   0  0  2  0  0  0  0  0  0  0  0  0
   21.9221  -20.5911  -13.9002 N   0  0  0  0  0  0  0  0  0  0  0  0
   23.1234  -20.2144  -14.5705 C   0  0  0  0  0  0  0  0  0  0  0  0
   22.0166  -21.8920  -13.1976 O   0  0  0  0  0  0  0  0  0  0  0  0
   22.9066  -22.7429  -13.4237 O   0  0  0  0  0  0  0  0  0  0  0  0
  2  1  1  6
  2 10  1  0
  3  2  1  0
  4  3  1  0
  4  9  2  0
  5  4  1  0
  6  5  2  0
  6  7  1  0
  7  8  2  0
  8  9  1  0
 10 11  2  0
 13 12  1  0
 13 15  1  0
 14 13  2  0
 15 16  1  0
 16 17  1  0
 17 18  1  0
 19 18  1  1
 19 21  1  0
 20 19  1  0
 20 10  1  0
 21 22  2  0
 24 23  1  1
 24 26  1  0
 25 24  1  0
 26 28  1  0
 27 21  1  0
 26 27  1  1
 28 29  2  0
 28 30  1  0
M  END
$$$$
