FRV.pdb
     RDKit          3D

 30 30  0  0  1  0  0  0  0  0999 V2000
   28.2126  -20.5888   -9.4912 N   0  0  0  0  0  0  0  0  0  0  0  0
   26.8283  -20.6260   -9.1272 C   0  0  1  0  0  0  0  0  0  0  0  0
   26.5028  -19.6430   -8.0214 C   0  0  0  0  0  0  0  0  0  0  0  0
   27.3890  -19.9295   -6.8702 C   0  0  0  0  0  0  0  0  0  0  0  0
   27.3910  -19.1454   -5.7353 C   0  0  0  0  0  0  0  0  0  0  0  0
   28.2088  -19.3981   -4.6550 C   0  0  0  0  0  0  0  0  0  0  0  0
   29.0583  -20.4842   -4.7211 C   0  0  0  0  0  0  0  0  0  0  0  0
   29.0582  -21.2674   -5.8513 C   0  0  0  0  0  0  0  0  0  0  0  0
   28.2355  -21.0098   -6.9332 C   0  0  0  0  0  0  0  0  0  0  0  0
   25.9893  -20.4020  -10.3158 C   0  0  0  0  0  0  0  0  0  0  0  0
   25.9126  -19.2698  -10.8532 O   0  0  0  0  0  0  0  0  0  0  0  0
   25.3601  -26.0852  -14.7046 N   0  0  0  0  0  0  0  0  0  0  0  0
   24.8059  -25.0460  -15.4812 C   0  0  0  0  0  0  0  0  0  0  0  0
   23.7502  -25.1903  -16.2430 N   0  0  0  0  0  0  0  0  0  0  0  0
   25.3766  -23.7320  -15.4840 N   0  0  0  0  0  0  0  0  0  0  0  0
   26.4308  -23.3059  -14.6262 C   0  0  0  0  0  0  0  0  0  0  0  0
   26.0561  -22.1948  -13.6937 C   0  0  0  0  0  0  0  0  0  0  0  0
   24.7432  -22.4118  -13.0192 C   0  0  0  0  0  0  0  0  0  0  0  0
   24.4535  -21.2723  -12.0520 C   0  0  2  0  0  0  0  0  0  0  0  0
   25.2523  -21.4735  -10.8711 N   0  0  0  0  0  0  0  0  0  0  0  0
   23.0287  -21.1544  -11.7319 C   0  0  0  0  0  0  0  0  0  0  0  0
   22.5548  -21.7142  -10.7050 O   0  0  0  0  0  0  0  0  0  0  0  0
   23.3176  -24.4125  -16.7511 C   0  0  0  0  0  0  0  0  0  0  0  0
   20.8836  -17.7448  -12.2738 C   0  0  2  0  0  0  0  0  0  0  0  0
   20.1220  -18.9687  -12.7208 C   0  0  0  0  0  0  0  0  0  0  0  0
   20.1023  -18.9792  -14.2333 C   0  0  2  0  0  0  0  0  0  0  0  0
   20.7224  -20.2500  -12.1829 N   0  0  0  0  0  0  0  0  0  0  0  0
   22.0951  -20.4212  -12.5304 C   0  0  0  0  0  0  0  0  0  0  0  0
   19.8760  -21.4210  -12.5105 O   0  0  0  0  0  0  0  0  0  0  0  0
   20.1792  -22.2819  -13.3674 O   0  0  0  0  0  0  0  0  0  0  0  0
  2  1  1  6
  2 10  1  0
  3  2  1  0
  4  3  1  0
  4  9  2  0
  5  4  1  0
  6  5  2  0
  6  7  1  0
  7  8  2  0
  8  9  1  0
 10 11  2  0
 13 12  1  0
 13 15  1  0
 14 13  2  0
 15 16  1  0
 16 17  1  0
 17 18  1  0
 19 18  1  6
 19 21  1  0
 20 19  1  0
 20 10  1  0
 21 22  2  0
 24 23  1  1
 24 26  1  0
 25 24  1  0
 26 28  1  0
 27 21  1  0
 26 27  1  1
 28 29  2  0
 28 30  1  0
M  END
$$$$
