FRV.pdb
     RDKit          3D

 30 30  0  0  1  0  0  0  0  0999 V2000
   26.7111  -16.0015  -19.3702 N   0  0  0  0  0  0  0  0  0  0  0  0
   26.5725  -16.2878  -17.9741 C   0  0  1  0  0  0  0  0  0  0  0  0
   25.9344  -15.1409  -17.2174 C   0  0  0  0  0  0  0  0  0  0  0  0
   26.8328  -13.9674  -17.3093 C   0  0  0  0  0  0  0  0  0  0  0  0
   28.1577  -14.0286  -16.9306 C   0  0  0  0  0  0  0  0  0  0  0  0
   29.0075  -12.9464  -17.0100 C   0  0  0  0  0  0  0  0  0  0  0  0
   28.5017  -11.7551  -17.4902 C   0  0  0  0  0  0  0  0  0  0  0  0
   27.1813  -11.6914  -17.8684 C   0  0  0  0  0  0  0  0  0  0  0  0
   26.3322  -12.7804  -17.7869 C   0  0  0  0  0  0  0  0  0  0  0  0
   25.8244  -17.5419  -17.7894 C   0  0  0  0  0  0  0  0  0  0  0  0
   24.8860  -17.8586  -18.5613 O   0  0  0  0  0  0  0  0  0  0  0  0
   25.0763  -25.5476  -15.5951 N   0  0  0  0  0  0  0  0  0  0  0  0
   26.0959  -25.2800  -16.5326 C   0  0  0  0  0  0  0  0  0  0  0  0
   26.3779  -26.0625  -17.5445 N   0  0  0  0  0  0  0  0  0  0  0  0
   26.9073  -24.1034  -16.4357 N   0  0  0  0  0  0  0  0  0  0  0  0
   26.7574  -23.0969  -15.4391 C   0  0  0  0  0  0  0  0  0  0  0  0
   25.8071  -21.9993  -15.8090 C   0  0  0  0  0  0  0  0  0  0  0  0
   26.4904  -20.7079  -16.1109 C   0  0  0  0  0  0  0  0  0  0  0  0
   25.4764  -19.6718  -16.5757 C   0  0  2  0  0  0  0  0  0  0  0  0
   26.1596  -18.4134  -16.7275 N   0  0  0  0  0  0  0  0  0  0  0  0
   24.3289  -19.5624  -15.6714 C   0  0  0  0  0  0  0  0  0  0  0  0
   24.4809  -19.1393  -14.4923 O   0  0  0  0  0  0  0  0  0  0  0  0
   27.1009  -25.8419  -18.2365 C   0  0  0  0  0  0  0  0  0  0  0  0
   20.2468  -19.4673  -17.0062 C   0  0  2  0  0  0  0  0  0  0  0  0
   20.7385  -19.0155  -15.6526 C   0  0  0  0  0  0  0  0  0  0  0  0
   19.5703  -19.0614  -14.6929 C   0  0  1  0  0  0  0  0  0  0  0  0
   21.8851  -19.8625  -15.1434 N   0  0  0  0  0  0  0  0  0  0  0  0
   22.9924  -19.9147  -16.0411 C   0  0  0  0  0  0  0  0  0  0  0  0
   21.4153  -21.1963  -14.7013 O   0  0  0  0  0  0  0  0  0  0  0  0
   21.6564  -22.2592  -15.3172 O   0  0  0  0  0  0  0  0  0  0  0  0
  2  1  1  6
  2 10  1  0
  3  2  1  0
  4  3  1  0
  4  9  2  0
  5  4  1  0
  6  5  2  0
  6  7  1  0
  7  8  2  0
  8  9  1  0
 10 11  2  0
 13 12  1  0
 13 15  1  0
 14 13  2  0
 15 16  1  0
 16 17  1  0
 17 18  1  0
 19 18  1  1
 19 21  1  0
 20 19  1  0
 20 10  1  0
 21 22  2  0
 24 23  1  6
 24 26  1  0
 25 24  1  0
 26 28  1  0
 27 21  1  0
 26 27  1  6
 28 29  2  0
 28 30  1  0
M  END
$$$$
