FRV.pdb
     RDKit          3D

 30 30  0  0  1  0  0  0  0  0999 V2000
   25.9085  -20.8531  -17.8089 N   0  0  0  0  0  0  0  0  0  0  0  0
   26.2687  -19.8432  -16.8599 C   0  0  1  0  0  0  0  0  0  0  0  0
   25.1878  -18.7928  -16.7070 C   0  0  0  0  0  0  0  0  0  0  0  0
   25.1426  -17.9891  -17.9499 C   0  0  0  0  0  0  0  0  0  0  0  0
   26.1644  -17.1336  -18.3057 C   0  0  0  0  0  0  0  0  0  0  0  0
   26.1385  -16.3789  -19.4588 C   0  0  0  0  0  0  0  0  0  0  0  0
   25.0391  -16.4910  -20.2861 C   0  0  0  0  0  0  0  0  0  0  0  0
   24.0192  -17.3432  -19.9336 C   0  0  0  0  0  0  0  0  0  0  0  0
   24.0497  -18.0987  -18.7752 C   0  0  0  0  0  0  0  0  0  0  0  0
   26.6078  -20.4639  -15.5689 C   0  0  0  0  0  0  0  0  0  0  0  0
   25.8828  -21.3580  -15.0673 O   0  0  0  0  0  0  0  0  0  0  0  0
   33.0387  -24.1758  -13.4777 N   0  0  0  0  0  0  0  0  0  0  0  0
   32.7929  -23.2320  -12.4584 C   0  0  0  0  0  0  0  0  0  0  0  0
   33.6879  -22.8651  -11.5751 N   0  0  0  0  0  0  0  0  0  0  0  0
   31.5161  -22.5968  -12.3228 N   0  0  0  0  0  0  0  0  0  0  0  0
   30.5385  -22.5167  -13.3556 C   0  0  0  0  0  0  0  0  0  0  0  0
   30.4082  -21.1599  -13.9775 C   0  0  0  0  0  0  0  0  0  0  0  0
   29.4970  -20.2523  -13.2213 C   0  0  0  0  0  0  0  0  0  0  0  0
   28.0452  -20.5662  -13.5554 C   0  0  2  0  0  0  0  0  0  0  0  0
   27.7683  -20.0541  -14.8724 N   0  0  0  0  0  0  0  0  0  0  0  0
   27.1112  -20.0371  -12.5583 C   0  0  0  0  0  0  0  0  0  0  0  0
   27.0407  -18.7958  -12.3422 O   0  0  0  0  0  0  0  0  0  0  0  0
   33.5093  -22.1500  -10.8630 C   0  0  0  0  0  0  0  0  0  0  0  0
   23.5075  -20.1307  -12.4243 C   0  0  2  0  0  0  0  0  0  0  0  0
   23.9078  -20.5846  -11.0417 C   0  0  0  0  0  0  0  0  0  0  0  0
   23.5660  -22.0527  -10.9156 C   0  0  2  0  0  0  0  0  0  0  0  0
   25.3764  -20.3493  -10.7600 N   0  0  0  0  0  0  0  0  0  0  0  0
   26.2364  -20.8575  -11.7782 C   0  0  0  0  0  0  0  0  0  0  0  0
   25.7421  -20.7962   -9.3957 O   0  0  0  0  0  0  0  0  0  0  0  0
   25.2604  -20.3057   -8.3494 O   0  0  0  0  0  0  0  0  0  0  0  0
  2  1  1  6
  2 10  1  0
  3  2  1  0
  4  3  1  0
  4  9  2  0
  5  4  1  0
  6  5  2  0
  6  7  1  0
  7  8  2  0
  8  9  1  0
 10 11  2  0
 13 12  1  0
 13 15  1  0
 14 13  2  0
 15 16  1  0
 16 17  1  0
 17 18  1  0
 19 18  1  1
 19 21  1  0
 20 19  1  0
 20 10  1  0
 21 22  2  0
 24 23  1  1
 24 26  1  0
 25 24  1  0
 26 28  1  0
 27 21  1  0
 26 27  1  1
 28 29  2  0
 28 30  1  0
M  END
$$$$
