FRV.pdb
     RDKit          3D

 30 30  0  0  1  0  0  0  0  0999 V2000
  397.2287  -30.8057 -320.6138 N   0  0  0  0  0  0  0  0  0  0  0  0
  396.5627  -32.0587 -320.4221 C   0  0  1  0  0  0  0  0  0  0  0  0
  397.2904  -32.9458 -319.4328 C   0  0  0  0  0  0  0  0  0  0  0  0
  398.4406  -33.5686 -320.1268 C   0  0  0  0  0  0  0  0  0  0  0  0
  399.7378  -33.4014 -319.6883 C   0  0  0  0  0  0  0  0  0  0  0  0
  400.8195  -33.9742 -320.3219 C   0  0  0  0  0  0  0  0  0  0  0  0
  400.5846  -34.7462 -321.4420 C   0  0  0  0  0  0  0  0  0  0  0  0
  399.2925  -34.9144 -321.8811 C   0  0  0  0  0  0  0  0  0  0  0  0
  398.2100  -34.3374 -321.2418 C   0  0  0  0  0  0  0  0  0  0  0  0
  395.1657  -31.8294 -320.0190 C   0  0  0  0  0  0  0  0  0  0  0  0
  394.5751  -32.6202 -319.2429 O   0  0  0  0  0  0  0  0  0  0  0  0
  393.3472  -26.8891 -315.1045 N   0  0  0  0  0  0  0  0  0  0  0  0
  393.8602  -27.7227 -316.1204 C   0  0  0  0  0  0  0  0  0  0  0  0
  394.8819  -27.4049 -316.8760 N   0  0  0  0  0  0  0  0  0  0  0  0
  393.2826  -29.0044 -316.3955 N   0  0  0  0  0  0  0  0  0  0  0  0
  394.0046  -30.1280 -316.8903 C   0  0  0  0  0  0  0  0  0  0  0  0
  393.1555  -31.1519 -317.5797 C   0  0  0  0  0  0  0  0  0  0  0  0
  392.6700  -30.7072 -318.9185 C   0  0  0  0  0  0  0  0  0  0  0  0
  393.7284  -29.8560 -319.6062 C   0  0  2  0  0  0  0  0  0  0  0  0
  394.4664  -30.7018 -320.5080 N   0  0  0  0  0  0  0  0  0  0  0  0
  394.6098  -29.1759 -318.6538 C   0  0  0  0  0  0  0  0  0  0  0  0
  395.8544  -29.1262 -318.8560 O   0  0  0  0  0  0  0  0  0  0  0  0
  395.2484  -26.4505 -316.9469 C   0  0  0  0  0  0  0  0  0  0  0  0
  391.4245  -27.3267 -315.5093 C   0  0  2  0  0  0  0  0  0  0  0  0
  391.8868  -27.7615 -316.8786 C   0  0  0  0  0  0  0  0  0  0  0  0
  392.4458  -26.5487 -317.5890 C   0  0  2  0  0  0  0  0  0  0  0  0
  392.9174  -28.8685 -316.8147 N   0  0  0  0  0  0  0  0  0  0  0  0
  394.1448  -28.5370 -317.4610 C   0  0  0  0  0  0  0  0  0  0  0  0
  392.3459  -30.1631 -317.2532 O   0  0  0  0  0  0  0  0  0  0  0  0
  393.0361  -31.1622 -317.5573 O   0  0  0  0  0  0  0  0  0  0  0  0
  2  1  1  1
  2 10  1  0
  3  2  1  0
  4  3  1  0
  4  9  2  0
  5  4  1  0
  6  5  2  0
  6  7  1  0
  7  8  2  0
  8  9  1  0
 10 11  2  0
 13 12  1  0
 13 15  1  0
 14 13  2  0
 15 16  1  0
 16 17  1  0
 17 18  1  0
 19 18  1  1
 19 21  1  0
 20 19  1  0
 20 10  1  0
 21 22  2  0
 24 23  1  6
 24 26  1  0
 25 24  1  0
 26 28  1  0
 27 21  1  0
 26 27  1  6
 28 29  2  0
 28 30  1  0
M  END
$$$$
