FRV.pdb
     RDKit          3D

 30 30  0  0  1  0  0  0  0  0999 V2000
   27.1781  -22.0406  -13.5167 N   0  0  0  0  0  0  0  0  0  0  0  0
   26.5012  -21.4390  -12.4075 C   0  0  1  0  0  0  0  0  0  0  0  0
   27.1310  -20.1224  -12.0011 C   0  0  0  0  0  0  0  0  0  0  0  0
   28.4891  -20.3990  -11.4799 C   0  0  0  0  0  0  0  0  0  0  0  0
   29.6262  -20.0395  -12.1730 C   0  0  0  0  0  0  0  0  0  0  0  0
   30.8974  -20.2890  -11.7022 C   0  0  0  0  0  0  0  0  0  0  0  0
   31.0276  -20.9260  -10.4845 C   0  0  0  0  0  0  0  0  0  0  0  0
   29.8956  -21.2854   -9.7916 C   0  0  0  0  0  0  0  0  0  0  0  0
   28.6218  -21.0329  -10.2682 C   0  0  0  0  0  0  0  0  0  0  0  0
   25.0703  -21.2830  -12.7158 C   0  0  0  0  0  0  0  0  0  0  0  0
   24.6604  -21.2543  -13.9023 O   0  0  0  0  0  0  0  0  0  0  0  0
   18.4528  -24.1769   -7.7507 N   0  0  0  0  0  0  0  0  0  0  0  0
   17.9300  -23.7180   -8.9780 C   0  0  0  0  0  0  0  0  0  0  0  0
   16.8901  -24.2503   -9.5707 N   0  0  0  0  0  0  0  0  0  0  0  0
   18.5174  -22.6103   -9.6709 N   0  0  0  0  0  0  0  0  0  0  0  0
   19.8604  -22.1683   -9.4984 C   0  0  0  0  0  0  0  0  0  0  0  0
   20.6728  -22.1580  -10.7571 C   0  0  0  0  0  0  0  0  0  0  0  0
   22.0562  -21.6356  -10.5590 C   0  0  0  0  0  0  0  0  0  0  0  0
   22.7350  -21.4192  -11.9045 C   0  0  2  0  0  0  0  0  0  0  0  0
   24.1314  -21.1626  -11.6652 N   0  0  0  0  0  0  0  0  0  0  0  0
   22.1104  -20.3473  -12.6839 C   0  0  0  0  0  0  0  0  0  0  0  0
   22.1207  -19.1585  -12.2607 O   0  0  0  0  0  0  0  0  0  0  0  0
   16.5236  -23.9118  -10.4658 C   0  0  0  0  0  0  0  0  0  0  0  0
   22.9651  -18.9128  -15.8688 C   0  0  2  0  0  0  0  0  0  0  0  0
   21.5000  -19.2431  -16.0185 C   0  0  0  0  0  0  0  0  0  0  0  0
   21.3831  -20.4411  -16.9345 C   0  0  2  0  0  0  0  0  0  0  0  0
   20.8318  -19.5173  -14.6881 N   0  0  0  0  0  0  0  0  0  0  0  0
   21.4621  -20.5568  -13.9420 C   0  0  0  0  0  0  0  0  0  0  0  0
   19.3704  -19.7021  -14.8468 O   0  0  0  0  0  0  0  0  0  0  0  0
   18.7696  -20.7670  -14.5782 O   0  0  0  0  0  0  0  0  0  0  0  0
  2  1  1  6
  2 10  1  0
  3  2  1  0
  4  3  1  0
  4  9  2  0
  5  4  1  0
  6  5  2  0
  6  7  1  0
  7  8  2  0
  8  9  1  0
 10 11  2  0
 13 12  1  0
 13 15  1  0
 14 13  2  0
 15 16  1  0
 16 17  1  0
 17 18  1  0
 19 18  1  1
 19 21  1  0
 20 19  1  0
 20 10  1  0
 21 22  2  0
 24 23  1  6
 24 26  1  0
 25 24  1  0
 26 28  1  0
 27 21  1  0
 26 27  1  1
 28 29  2  0
 28 30  1  0
M  END
$$$$
