FRV.pdb
     RDKit          3D

 30 30  0  0  1  0  0  0  0  0999 V2000
   18.8661  -19.6160  -13.9657 N   0  0  0  0  0  0  0  0  0  0  0  0
   19.5980  -19.0411  -15.0539 C   0  0  1  0  0  0  0  0  0  0  0  0
   18.9301  -17.7934  -15.5943 C   0  0  0  0  0  0  0  0  0  0  0  0
   17.7993  -18.2083  -16.4556 C   0  0  0  0  0  0  0  0  0  0  0  0
   17.9944  -18.7492  -17.7094 C   0  0  0  0  0  0  0  0  0  0  0  0
   16.9535  -19.1409  -18.5236 C   0  0  0  0  0  0  0  0  0  0  0  0
   15.6647  -18.9811  -18.0554 C   0  0  0  0  0  0  0  0  0  0  0  0
   15.4675  -18.4421  -16.8058 C   0  0  0  0  0  0  0  0  0  0  0  0
   16.5155  -18.0504  -15.9923 C   0  0  0  0  0  0  0  0  0  0  0  0
   20.9866  -18.7779  -14.6429 C   0  0  0  0  0  0  0  0  0  0  0  0
   21.2496  -18.2895  -13.5163 O   0  0  0  0  0  0  0  0  0  0  0  0
   25.0793  -25.0265  -13.5110 N   0  0  0  0  0  0  0  0  0  0  0  0
   25.0543  -24.2252  -14.6717 C   0  0  0  0  0  0  0  0  0  0  0  0
   25.3572  -24.6664  -15.8673 N   0  0  0  0  0  0  0  0  0  0  0  0
   24.6841  -22.8425  -14.6151 N   0  0  0  0  0  0  0  0  0  0  0  0
   24.5019  -22.1024  -13.4119 C   0  0  0  0  0  0  0  0  0  0  0  0
   23.8929  -20.7476  -13.6074 C   0  0  0  0  0  0  0  0  0  0  0  0
   24.0981  -20.2042  -14.9816 C   0  0  0  0  0  0  0  0  0  0  0  0
   23.4152  -18.8506  -15.1199 C   0  0  2  0  0  0  0  0  0  0  0  0
   22.0517  -19.0763  -15.5240 N   0  0  0  0  0  0  0  0  0  0  0  0
   24.1168  -17.9584  -16.0463 C   0  0  0  0  0  0  0  0  0  0  0  0
   24.0118  -18.1195  -17.2936 O   0  0  0  0  0  0  0  0  0  0  0  0
   25.2333  -24.1069  -16.7170 C   0  0  0  0  0  0  0  0  0  0  0  0
   27.3338  -15.1236  -14.9223 C   0  0  2  0  0  0  0  0  0  0  0  0
   26.1957  -14.7673  -15.8473 C   0  0  0  0  0  0  0  0  0  0  0  0
   26.7166  -13.7820  -16.8699 C   0  0  1  0  0  0  0  0  0  0  0  0
   25.6027  -15.9831  -16.5269 N   0  0  0  0  0  0  0  0  0  0  0  0
   24.9475  -16.8725  -15.6247 C   0  0  0  0  0  0  0  0  0  0  0  0
   26.5954  -16.6494  -17.4020 O   0  0  0  0  0  0  0  0  0  0  0  0
   27.2626  -17.6523  -17.0610 O   0  0  0  0  0  0  0  0  0  0  0  0
  2  1  1  1
  2 10  1  0
  3  2  1  0
  4  3  1  0
  4  9  2  0
  5  4  1  0
  6  5  2  0
  6  7  1  0
  7  8  2  0
  8  9  1  0
 10 11  2  0
 13 12  1  0
 13 15  1  0
 14 13  2  0
 15 16  1  0
 16 17  1  0
 17 18  1  0
 19 18  1  6
 19 21  1  0
 20 19  1  0
 20 10  1  0
 21 22  2  0
 24 23  1  1
 24 26  1  0
 25 24  1  0
 26 28  1  0
 27 21  1  0
 26 27  1  1
 28 29  2  0
 28 30  1  0
M  END
$$$$
