FRV.pdb
     RDKit          3D

 30 30  0  0  1  0  0  0  0  0999 V2000
   34.5502  -36.4126   -7.5533 N   0  0  0  0  0  0  0  0  0  0  0  0
   33.3047  -36.9589   -7.1056 C   0  0  1  0  0  0  0  0  0  0  0  0
   33.4906  -38.2598   -6.3517 C   0  0  0  0  0  0  0  0  0  0  0  0
   34.3915  -38.0064   -5.2042 C   0  0  0  0  0  0  0  0  0  0  0  0
   35.7566  -38.1828   -5.2926 C   0  0  0  0  0  0  0  0  0  0  0  0
   36.6093  -37.9512   -4.2347 C   0  0  0  0  0  0  0  0  0  0  0  0
   36.0642  -37.5248   -3.0402 C   0  0  0  0  0  0  0  0  0  0  0  0
   34.7036  -37.3481   -2.9495 C   0  0  0  0  0  0  0  0  0  0  0  0
   33.8518  -37.5819   -4.0141 C   0  0  0  0  0  0  0  0  0  0  0  0
   32.5798  -35.9638   -6.2988 C   0  0  0  0  0  0  0  0  0  0  0  0
   33.1895  -35.0443   -5.6993 O   0  0  0  0  0  0  0  0  0  0  0  0
   25.1558  -32.0897   -8.0575 N   0  0  0  0  0  0  0  0  0  0  0  0
   25.2707  -33.2951   -7.3337 C   0  0  0  0  0  0  0  0  0  0  0  0
   24.3226  -34.1964   -7.2655 N   0  0  0  0  0  0  0  0  0  0  0  0
   26.4639  -33.6193   -6.6102 N   0  0  0  0  0  0  0  0  0  0  0  0
   27.5714  -32.7398   -6.4408 C   0  0  0  0  0  0  0  0  0  0  0  0
   28.7022  -33.3181   -5.6461 C   0  0  0  0  0  0  0  0  0  0  0  0
   29.3130  -34.5209   -6.2833 C   0  0  0  0  0  0  0  0  0  0  0  0
   30.4510  -35.0519   -5.4227 C   0  0  2  0  0  0  0  0  0  0  0  0
   31.1716  -36.0344   -6.1899 N   0  0  0  0  0  0  0  0  0  0  0  0
   29.9839  -35.5949   -4.1446 C   0  0  0  0  0  0  0  0  0  0  0  0
   29.1697  -36.5586   -4.1177 O   0  0  0  0  0  0  0  0  0  0  0  0
   24.4071  -35.0552   -6.7127 C   0  0  0  0  0  0  0  0  0  0  0  0
   30.3249  -35.9511    0.8177 C   0  0  2  0  0  0  0  0  0  0  0  0
   30.8263  -35.3285   -0.4624 C   0  0  0  0  0  0  0  0  0  0  0  0
   32.2013  -35.8909   -0.7473 C   0  0  1  0  0  0  0  0  0  0  0  0
   29.8930  -35.5760   -1.6283 N   0  0  0  0  0  0  0  0  0  0  0  0
   30.3994  -35.0926   -2.8710 C   0  0  0  0  0  0  0  0  0  0  0  0
   28.5185  -35.1128   -1.3262 O   0  0  0  0  0  0  0  0  0  0  0  0
   27.7538  -35.6826   -0.5152 O   0  0  0  0  0  0  0  0  0  0  0  0
  2  1  1  1
  2 10  1  0
  3  2  1  0
  4  3  1  0
  4  9  2  0
  5  4  1  0
  6  5  2  0
  6  7  1  0
  7  8  2  0
  8  9  1  0
 10 11  2  0
 13 12  1  0
 13 15  1  0
 14 13  2  0
 15 16  1  0
 16 17  1  0
 17 18  1  0
 19 18  1  6
 19 21  1  0
 20 19  1  0
 20 10  1  0
 21 22  2  0
 24 23  1  1
 24 26  1  0
 25 24  1  0
 26 28  1  0
 27 21  1  0
 26 27  1  1
 28 29  2  0
 28 30  1  0
M  END
$$$$
