DYV.pdb
     RDKit          3D

 28 28  0  0  1  0  0  0  0  0999 V2000
   16.1764  -13.4783  -17.8860 N   0  0  0  0  0  0  0  0  0  0  0  0
   16.3238  -12.6883  -16.6821 C   0  0  1  0  0  0  0  0  0  0  0  0
   16.7492  -13.5610  -15.5468 C   0  0  0  0  0  0  0  0  0  0  0  0
   15.6340  -14.4552  -15.0897 C   0  0  0  0  0  0  0  0  0  0  0  0
   14.4645  -14.1832  -15.3977 O   0  0  0  0  0  0  0  0  0  0  0  0
   17.2835  -11.6015  -16.8901 C   0  0  0  0  0  0  0  0  0  0  0  0
   18.2773  -11.7899  -17.6702 O   0  0  0  0  0  0  0  0  0  0  0  0
   15.8867  -15.5766  -14.3313 O   0  0  0  0  0  0  0  0  0  0  0  0
   15.6954   -8.4340  -22.2796 O   0  0  0  0  0  0  0  0  0  0  0  0
   16.0816   -8.3428  -20.9514 C   0  0  0  0  0  0  0  0  0  0  0  0
   15.2060   -8.6527  -19.9301 C   0  0  0  0  0  0  0  0  0  0  0  0
   15.5882   -8.5622  -18.6290 C   0  0  0  0  0  0  0  0  0  0  0  0
   16.8846   -8.1494  -18.3463 C   0  0  0  0  0  0  0  0  0  0  0  0
   17.2868   -8.0349  -16.9402 C   0  0  0  0  0  0  0  0  0  0  0  0
   18.0412   -9.2670  -16.5231 C   0  0  2  0  0  0  0  0  0  0  0  0
   17.1219  -10.3601  -16.2436 N   0  0  0  0  0  0  0  0  0  0  0  0
   18.9168   -9.0867  -15.3638 C   0  0  0  0  0  0  0  0  0  0  0  0
   18.4769   -8.9539  -14.2125 O   0  0  0  0  0  0  0  0  0  0  0  0
   17.7780   -7.8341  -19.3476 C   0  0  0  0  0  0  0  0  0  0  0  0
   17.3714   -7.9326  -20.6500 C   0  0  0  0  0  0  0  0  0  0  0  0
   22.1881  -11.1454  -14.6773 C   0  0  0  0  0  0  0  0  0  0  0  0
   22.4860   -9.6639  -14.5851 C   0  0  1  0  0  0  0  0  0  0  0  0
   23.2310   -9.1612  -15.7765 C   0  0  0  0  0  0  0  0  0  0  0  0
   21.1810   -8.9270  -14.3817 C   0  0  2  0  0  0  0  0  0  0  0  0
   20.3345   -9.0586  -15.5342 N   0  0  0  0  0  0  0  0  0  0  0  0
   21.4867   -7.4731  -14.1830 C   0  0  0  0  0  0  0  0  0  0  0  0
   21.3021   -6.6129  -15.0782 O   0  0  0  0  0  0  0  0  0  0  0  0
   21.9926   -7.0568  -12.9666 O   0  0  0  0  0  0  0  0  0  0  0  0
  2  1  1  6
  2  3  1  0
  3  4  1  0
  4  5  2  0
  6  7  2  0
  6  2  1  0
  8  4  1  0
  9 10  1  0
 10 11  2  0
 10 20  1  0
 11 12  1  0
 12 13  2  0
 13 14  1  0
 15 14  1  1
 15 17  1  0
 15 16  1  0
 16  6  1  0
 17 18  2  0
 19 13  1  0
 20 19  2  0
 22 21  1  6
 23 22  1  0
 24 22  1  0
 24 25  1  6
 25 17  1  0
 26 28  1  0
 26 24  1  0
 27 26  2  0
M  END
$$$$
