DYV.pdb
     RDKit          3D

 28 28  0  0  1  0  0  0  0  0999 V2000
   18.7372   -4.4133  -17.3477 N   0  0  0  0  0  0  0  0  0  0  0  0
   18.7858   -5.8599  -17.3690 C   0  0  1  0  0  0  0  0  0  0  0  0
   17.7190   -6.3941  -18.2679 C   0  0  0  0  0  0  0  0  0  0  0  0
   16.3485   -6.1268  -17.7180 C   0  0  0  0  0  0  0  0  0  0  0  0
   15.4162   -5.8693  -18.4933 O   0  0  0  0  0  0  0  0  0  0  0  0
   20.1068   -6.3274  -17.7951 C   0  0  0  0  0  0  0  0  0  0  0  0
   20.7299   -5.6853  -18.7068 O   0  0  0  0  0  0  0  0  0  0  0  0
   16.1064   -6.1622  -16.3628 O   0  0  0  0  0  0  0  0  0  0  0  0
   20.7941   -9.0079  -11.6066 O   0  0  0  0  0  0  0  0  0  0  0  0
   21.3460   -8.7127  -12.8434 C   0  0  0  0  0  0  0  0  0  0  0  0
   21.9693   -9.6863  -13.5981 C   0  0  0  0  0  0  0  0  0  0  0  0
   22.5091   -9.3932  -14.8104 C   0  0  0  0  0  0  0  0  0  0  0  0
   22.4205   -8.0873  -15.2771 C   0  0  0  0  0  0  0  0  0  0  0  0
   23.0214   -7.7714  -16.5775 C   0  0  0  0  0  0  0  0  0  0  0  0
   21.9962   -7.9314  -17.6659 C   0  0  2  0  0  0  0  0  0  0  0  0
   20.6925   -7.4692  -17.2133 N   0  0  0  0  0  0  0  0  0  0  0  0
   21.8546   -9.2951  -18.1792 C   0  0  0  0  0  0  0  0  0  0  0  0
   21.0815  -10.1200  -17.6707 O   0  0  0  0  0  0  0  0  0  0  0  0
   21.8037   -7.0970  -14.5430 C   0  0  0  0  0  0  0  0  0  0  0  0
   21.2673   -7.4150  -13.3254 C   0  0  0  0  0  0  0  0  0  0  0  0
   21.9805  -12.4806  -21.7411 C   0  0  0  0  0  0  0  0  0  0  0  0
   22.0167  -11.0509  -21.2445 C   0  0  1  0  0  0  0  0  0  0  0  0
   20.7056  -10.3590  -21.4158 C   0  0  0  0  0  0  0  0  0  0  0  0
   22.4676  -11.0590  -19.8008 C   0  0  2  0  0  0  0  0  0  0  0  0
   22.6224   -9.7197  -19.3061 N   0  0  0  0  0  0  0  0  0  0  0  0
   23.7969  -11.7474  -19.7260 C   0  0  0  0  0  0  0  0  0  0  0  0
   23.9103  -12.9875  -19.5693 O   0  0  0  0  0  0  0  0  0  0  0  0
   24.9481  -10.9910  -19.8333 O   0  0  0  0  0  0  0  0  0  0  0  0
  2  1  1  6
  2  3  1  0
  3  4  1  0
  4  5  2  0
  6  7  2  0
  6  2  1  0
  8  4  1  0
  9 10  1  0
 10 11  2  0
 10 20  1  0
 11 12  1  0
 12 13  2  0
 13 14  1  0
 15 14  1  1
 15 17  1  0
 15 16  1  0
 16  6  1  0
 17 18  2  0
 19 13  1  0
 20 19  2  0
 22 21  1  1
 23 22  1  0
 24 22  1  0
 24 25  1  6
 25 17  1  0
 26 28  1  0
 26 24  1  0
 27 26  2  0
M  END
$$$$
