DYV.pdb
     RDKit          3D

 28 28  0  0  1  0  0  0  0  0999 V2000
   28.4349  -22.8946  -16.8549 N   0  0  0  0  0  0  0  0  0  0  0  0
   27.2744  -22.0676  -17.1097 C   0  0  1  0  0  0  0  0  0  0  0  0
   26.5781  -22.5312  -18.3474 C   0  0  0  0  0  0  0  0  0  0  0  0
   27.4556  -22.3980  -19.5575 C   0  0  0  0  0  0  0  0  0  0  0  0
   27.7296  -23.4027  -20.2299 O   0  0  0  0  0  0  0  0  0  0  0  0
   26.3634  -22.0862  -15.9630 C   0  0  0  0  0  0  0  0  0  0  0  0
   25.4605  -22.9876  -15.9001 O   0  0  0  0  0  0  0  0  0  0  0  0
   27.9644  -21.1756  -19.9362 O   0  0  0  0  0  0  0  0  0  0  0  0
   23.0418  -21.0665   -8.0534 O   0  0  0  0  0  0  0  0  0  0  0  0
   23.8118  -20.8997   -9.1940 C   0  0  0  0  0  0  0  0  0  0  0  0
   25.0102  -21.5669   -9.3507 C   0  0  0  0  0  0  0  0  0  0  0  0
   25.7624  -21.4009  -10.4704 C   0  0  0  0  0  0  0  0  0  0  0  0
   25.2984  -20.5417  -11.4591 C   0  0  0  0  0  0  0  0  0  0  0  0
   26.1227  -20.3510  -12.6574 C   0  0  0  0  0  0  0  0  0  0  0  0
   25.5830  -21.1849  -13.7864 C   0  0  2  0  0  0  0  0  0  0  0  0
   26.4730  -21.1274  -14.9364 N   0  0  0  0  0  0  0  0  0  0  0  0
   24.2330  -20.8249  -14.2236 C   0  0  0  0  0  0  0  0  0  0  0  0
   23.9979  -19.8001  -14.8803 O   0  0  0  0  0  0  0  0  0  0  0  0
   24.1055  -19.8638  -11.3269 C   0  0  0  0  0  0  0  0  0  0  0  0
   23.3649  -20.0463  -10.1913 C   0  0  0  0  0  0  0  0  0  0  0  0
   22.0914  -21.8188  -16.6636 C   0  0  0  0  0  0  0  0  0  0  0  0
   21.2940  -22.1414  -15.4177 C   0  0  1  0  0  0  0  0  0  0  0  0
   21.3462  -23.5922  -15.0723 C   0  0  0  0  0  0  0  0  0  0  0  0
   21.8016  -21.2726  -14.2886 C   0  0  2  0  0  0  0  0  0  0  0  0
   23.1259  -21.6658  -13.8965 N   0  0  0  0  0  0  0  0  0  0  0  0
   20.8888  -21.4472  -13.1126 C   0  0  0  0  0  0  0  0  0  0  0  0
   21.2057  -22.1215  -12.1025 O   0  0  0  0  0  0  0  0  0  0  0  0
   19.6463  -20.8434  -13.1356 O   0  0  0  0  0  0  0  0  0  0  0  0
  2  1  1  1
  2  3  1  0
  3  4  1  0
  4  5  2  0
  6  7  2  0
  6  2  1  0
  8  4  1  0
  9 10  1  0
 10 11  2  0
 10 20  1  0
 11 12  1  0
 12 13  2  0
 13 14  1  0
 15 14  1  1
 15 17  1  0
 15 16  1  0
 16  6  1  0
 17 18  2  0
 19 13  1  0
 20 19  2  0
 22 21  1  6
 23 22  1  0
 24 22  1  0
 24 25  1  1
 25 17  1  0
 26 28  1  0
 26 24  1  0
 27 26  2  0
M  END
$$$$
