DYV.pdb
     RDKit          3D

 28 28  0  0  1  0  0  0  0  0999 V2000
   15.1556  -10.5298  -15.9008 N   0  0  0  0  0  0  0  0  0  0  0  0
   16.5748  -10.3620  -15.6703 C   0  0  1  0  0  0  0  0  0  0  0  0
   17.3062  -10.3489  -16.9728 C   0  0  0  0  0  0  0  0  0  0  0  0
   17.2585  -11.6890  -17.6464 C   0  0  0  0  0  0  0  0  0  0  0  0
   16.7691  -12.6586  -17.0489 O   0  0  0  0  0  0  0  0  0  0  0  0
   16.8352   -9.1340  -14.9156 C   0  0  0  0  0  0  0  0  0  0  0  0
   16.2032   -8.0678  -15.2246 O   0  0  0  0  0  0  0  0  0  0  0  0
   17.7503  -11.8624  -18.9210 O   0  0  0  0  0  0  0  0  0  0  0  0
   18.3864   -3.1611   -9.0298 O   0  0  0  0  0  0  0  0  0  0  0  0
   18.1590   -4.3474   -9.7099 C   0  0  0  0  0  0  0  0  0  0  0  0
   17.1322   -4.4600  -10.6258 C   0  0  0  0  0  0  0  0  0  0  0  0
   16.9123   -5.6247  -11.2908 C   0  0  0  0  0  0  0  0  0  0  0  0
   17.7462   -6.7050  -11.0288 C   0  0  0  0  0  0  0  0  0  0  0  0
   17.4933   -7.9658  -11.7349 C   0  0  0  0  0  0  0  0  0  0  0  0
   18.0305   -7.8824  -13.1369 C   0  0  2  0  0  0  0  0  0  0  0  0
   17.7684   -9.1179  -13.8600 N   0  0  0  0  0  0  0  0  0  0  0  0
   19.4606   -7.5832  -13.2287 C   0  0  0  0  0  0  0  0  0  0  0  0
   20.3324   -8.3841  -12.8610 O   0  0  0  0  0  0  0  0  0  0  0  0
   18.7781   -6.6185  -10.1191 C   0  0  0  0  0  0  0  0  0  0  0  0
   18.9808   -5.4362   -9.4615 C   0  0  0  0  0  0  0  0  0  0  0  0
   21.6317   -7.4386  -15.8430 C   0  0  0  0  0  0  0  0  0  0  0  0
   21.7627   -6.0375  -15.2847 C   0  0  1  0  0  0  0  0  0  0  0  0
   21.0156   -5.0327  -16.0964 C   0  0  0  0  0  0  0  0  0  0  0  0
   21.3045   -6.0539  -13.8434 C   0  0  2  0  0  0  0  0  0  0  0  0
   19.8980   -6.3306  -13.7572 N   0  0  0  0  0  0  0  0  0  0  0  0
   21.5571   -4.6995  -13.2531 C   0  0  0  0  0  0  0  0  0  0  0  0
   20.6327   -3.8947  -12.9824 O   0  0  0  0  0  0  0  0  0  0  0  0
   22.8588   -4.3157  -12.9940 O   0  0  0  0  0  0  0  0  0  0  0  0
  2  1  1  6
  2  3  1  0
  3  4  1  0
  4  5  2  0
  6  7  2  0
  6  2  1  0
  8  4  1  0
  9 10  1  0
 10 11  2  0
 10 20  1  0
 11 12  1  0
 12 13  2  0
 13 14  1  0
 15 14  1  1
 15 17  1  0
 15 16  1  0
 16  6  1  0
 17 18  2  0
 19 13  1  0
 20 19  2  0
 22 21  1  6
 23 22  1  0
 24 22  1  0
 24 25  1  6
 25 17  1  0
 26 28  1  0
 26 24  1  0
 27 26  2  0
M  END
$$$$
