DYV.pdb
     RDKit          3D

 28 28  0  0  1  0  0  0  0  0999 V2000
   26.5576  -23.1019  -17.6337 N   0  0  0  0  0  0  0  0  0  0  0  0
   26.9088  -21.9016  -16.9047 C   0  0  1  0  0  0  0  0  0  0  0  0
   26.4937  -20.6934  -17.6791 C   0  0  0  0  0  0  0  0  0  0  0  0
   27.5516  -20.2744  -18.6575 C   0  0  0  0  0  0  0  0  0  0  0  0
   27.4612  -20.6209  -19.8443 O   0  0  0  0  0  0  0  0  0  0  0  0
   26.2930  -21.9040  -15.5758 C   0  0  0  0  0  0  0  0  0  0  0  0
   25.2309  -22.5871  -15.3833 O   0  0  0  0  0  0  0  0  0  0  0  0
   28.6253  -19.5091  -18.2600 O   0  0  0  0  0  0  0  0  0  0  0  0
   24.5118  -20.5443   -7.2287 O   0  0  0  0  0  0  0  0  0  0  0  0
   25.1599  -20.5347   -8.4541 C   0  0  0  0  0  0  0  0  0  0  0  0
   25.4957  -19.3483   -9.0751 C   0  0  0  0  0  0  0  0  0  0  0  0
   26.1311  -19.3429  -10.2765 C   0  0  0  0  0  0  0  0  0  0  0  0
   26.4373  -20.5616  -10.8699 C   0  0  0  0  0  0  0  0  0  0  0  0
   27.1061  -20.5507  -12.1754 C   0  0  0  0  0  0  0  0  0  0  0  0
   26.1906  -21.1218  -13.2228 C   0  0  2  0  0  0  0  0  0  0  0  0
   26.8568  -21.1664  -14.5159 N   0  0  0  0  0  0  0  0  0  0  0  0
   24.9190  -20.4130  -13.3780 C   0  0  0  0  0  0  0  0  0  0  0  0
   24.8423  -19.2916  -13.9008 O   0  0  0  0  0  0  0  0  0  0  0  0
   26.1127  -21.7597  -10.2706 C   0  0  0  0  0  0  0  0  0  0  0  0
   25.4734  -21.7411   -9.0614 C   0  0  0  0  0  0  0  0  0  0  0  0
   22.4812  -20.2953  -15.4783 C   0  0  0  0  0  0  0  0  0  0  0  0
   21.6968  -20.7027  -14.2492 C   0  0  1  0  0  0  0  0  0  0  0  0
   21.3864  -22.1622  -14.2339 C   0  0  0  0  0  0  0  0  0  0  0  0
   22.4751  -20.2771  -13.0242 C   0  0  2  0  0  0  0  0  0  0  0  0
   23.7054  -21.0104  -12.9199 N   0  0  0  0  0  0  0  0  0  0  0  0
   21.6445  -20.5722  -11.8119 C   0  0  0  0  0  0  0  0  0  0  0  0
   20.6087  -19.9236  -11.5254 O   0  0  0  0  0  0  0  0  0  0  0  0
   22.0297  -21.5990  -10.9716 O   0  0  0  0  0  0  0  0  0  0  0  0
  2  1  1  6
  2  3  1  0
  3  4  1  0
  4  5  2  0
  6  7  2  0
  6  2  1  0
  8  4  1  0
  9 10  1  0
 10 11  2  0
 10 20  1  0
 11 12  1  0
 12 13  2  0
 13 14  1  0
 15 14  1  1
 15 17  1  0
 15 16  1  0
 16  6  1  0
 17 18  2  0
 19 13  1  0
 20 19  2  0
 22 21  1  6
 23 22  1  0
 24 22  1  0
 24 25  1  1
 25 17  1  0
 26 28  1  0
 26 24  1  0
 27 26  2  0
M  END
$$$$
