DYV.pdb
     RDKit          3D

 28 28  0  0  1  0  0  0  0  0999 V2000
   24.7817  -18.7578  -18.9017 N   0  0  0  0  0  0  0  0  0  0  0  0
   25.4024  -19.6753  -17.9698 C   0  0  1  0  0  0  0  0  0  0  0  0
   26.8260  -19.2855  -17.7402 C   0  0  0  0  0  0  0  0  0  0  0  0
   27.7626  -20.0833  -18.5995 C   0  0  0  0  0  0  0  0  0  0  0  0
   27.5905  -21.3046  -18.7241 O   0  0  0  0  0  0  0  0  0  0  0  0
   24.6625  -19.7095  -16.7062 C   0  0  0  0  0  0  0  0  0  0  0  0
   24.4409  -18.6155  -16.0852 O   0  0  0  0  0  0  0  0  0  0  0  0
   28.8140  -19.4816  -19.2546 O   0  0  0  0  0  0  0  0  0  0  0  0
   18.3552  -18.0291  -16.8491 O   0  0  0  0  0  0  0  0  0  0  0  0
   19.3010  -18.9273  -16.3798 C   0  0  0  0  0  0  0  0  0  0  0  0
   19.5346  -19.0770  -15.0274 C   0  0  0  0  0  0  0  0  0  0  0  0
   20.4627  -19.9587  -14.5710 C   0  0  0  0  0  0  0  0  0  0  0  0
   21.1751  -20.7100  -15.4977 C   0  0  0  0  0  0  0  0  0  0  0  0
   22.1892  -21.6466  -15.0013 C   0  0  0  0  0  0  0  0  0  0  0  0
   23.5163  -20.9488  -14.8871 C   0  0  2  0  0  0  0  0  0  0  0  0
   24.1961  -20.9278  -16.1737 N   0  0  0  0  0  0  0  0  0  0  0  0
   24.4243  -21.5177  -13.8896 C   0  0  0  0  0  0  0  0  0  0  0  0
   24.7868  -22.7028  -13.9196 O   0  0  0  0  0  0  0  0  0  0  0  0
   20.9610  -20.5793  -16.8531 C   0  0  0  0  0  0  0  0  0  0  0  0
   20.0218  -19.6857  -17.2897 C   0  0  0  0  0  0  0  0  0  0  0  0
   27.1365  -19.2337  -11.7949 C   0  0  0  0  0  0  0  0  0  0  0  0
   27.1938  -20.7376  -11.9593 C   0  0  1  0  0  0  0  0  0  0  0  0
   28.1261  -21.3781  -10.9859 C   0  0  0  0  0  0  0  0  0  0  0  0
   25.7886  -21.2840  -11.8400 C   0  0  2  0  0  0  0  0  0  0  0  0
   24.9278  -20.7018  -12.8311 N   0  0  0  0  0  0  0  0  0  0  0  0
   25.2577  -20.9278  -10.4843 C   0  0  0  0  0  0  0  0  0  0  0  0
   24.4029  -20.0261  -10.3063 O   0  0  0  0  0  0  0  0  0  0  0  0
   25.7247  -21.6167   -9.3815 O   0  0  0  0  0  0  0  0  0  0  0  0
  2  1  1  6
  2  3  1  0
  3  4  1  0
  4  5  2  0
  6  7  2  0
  6  2  1  0
  8  4  1  0
  9 10  1  0
 10 11  2  0
 10 20  1  0
 11 12  1  0
 12 13  2  0
 13 14  1  0
 15 14  1  6
 15 17  1  0
 15 16  1  0
 16  6  1  0
 17 18  2  0
 19 13  1  0
 20 19  2  0
 22 21  1  1
 23 22  1  0
 24 22  1  0
 24 25  1  6
 25 17  1  0
 26 28  1  0
 26 24  1  0
 27 26  2  0
M  END
$$$$
