DYV.pdb
     RDKit          3D

 28 28  0  0  1  0  0  0  0  0999 V2000
   16.1296  -24.6169   -3.7470 N   0  0  0  0  0  0  0  0  0  0  0  0
   15.0095  -24.6367   -2.8303 C   0  0  1  0  0  0  0  0  0  0  0  0
   14.5773  -26.0449   -2.5816 C   0  0  0  0  0  0  0  0  0  0  0  0
   14.0132  -26.6764   -3.8206 C   0  0  0  0  0  0  0  0  0  0  0  0
   14.4540  -27.7685   -4.2074 O   0  0  0  0  0  0  0  0  0  0  0  0
   15.3572  -23.9701   -1.5733 C   0  0  0  0  0  0  0  0  0  0  0  0
   16.4280  -24.3087   -0.9648 O   0  0  0  0  0  0  0  0  0  0  0  0
   13.0111  -26.0627   -4.5388 O   0  0  0  0  0  0  0  0  0  0  0  0
   15.7203  -18.0882    4.7859 O   0  0  0  0  0  0  0  0  0  0  0  0
   15.4575  -18.7601    3.6022 C   0  0  0  0  0  0  0  0  0  0  0  0
   16.4783  -19.3002    2.8458 C   0  0  0  0  0  0  0  0  0  0  0  0
   16.2168  -19.9583    1.6858 C   0  0  0  0  0  0  0  0  0  0  0  0
   14.8947  -20.0770    1.2747 C   0  0  0  0  0  0  0  0  0  0  0  0
   14.6187  -20.7716    0.0124 C   0  0  0  0  0  0  0  0  0  0  0  0
   14.9491  -22.2321    0.1506 C   0  0  2  0  0  0  0  0  0  0  0  0
   14.5287  -22.9663   -1.0336 N   0  0  0  0  0  0  0  0  0  0  0  0
   14.3745  -22.8817    1.3300 C   0  0  0  0  0  0  0  0  0  0  0  0
   13.2363  -23.3728    1.3304 O   0  0  0  0  0  0  0  0  0  0  0  0
   13.8576  -19.5466    2.0116 C   0  0  0  0  0  0  0  0  0  0  0  0
   14.1443  -18.8884    3.1760 C   0  0  0  0  0  0  0  0  0  0  0  0
   15.1477  -25.8815    3.1136 C   0  0  0  0  0  0  0  0  0  0  0  0
   15.3367  -24.7835    4.1386 C   0  0  1  0  0  0  0  0  0  0  0  0
   16.7757  -24.4520    4.3541 C   0  0  0  0  0  0  0  0  0  0  0  0
   14.5382  -23.5771    3.6977 C   0  0  2  0  0  0  0  0  0  0  0  0
   15.1294  -22.9682    2.5393 N   0  0  0  0  0  0  0  0  0  0  0  0
   14.5430  -22.5755    4.8128 C   0  0  0  0  0  0  0  0  0  0  0  0
   15.3271  -21.5958    4.8409 O   0  0  0  0  0  0  0  0  0  0  0  0
   13.6499  -22.7318    5.8553 O   0  0  0  0  0  0  0  0  0  0  0  0
  2  1  1  6
  2  3  1  0
  3  4  1  0
  4  5  2  0
  6  7  2  0
  6  2  1  0
  8  4  1  0
  9 10  1  0
 10 11  2  0
 10 20  1  0
 11 12  1  0
 12 13  2  0
 13 14  1  0
 15 14  1  6
 15 17  1  0
 15 16  1  0
 16  6  1  0
 17 18  2  0
 19 13  1  0
 20 19  2  0
 22 21  1  6
 23 22  1  0
 24 22  1  0
 24 25  1  6
 25 17  1  0
 26 28  1  0
 26 24  1  0
 27 26  2  0
M  END
$$$$
