DYV.pdb
     RDKit          3D

 28 28  0  0  1  0  0  0  0  0999 V2000
   16.0021  -13.4489  -17.3061 N   0  0  0  0  0  0  0  0  0  0  0  0
   16.6906  -12.9073  -16.1537 C   0  0  1  0  0  0  0  0  0  0  0  0
   17.4176  -13.9961  -15.4343 C   0  0  0  0  0  0  0  0  0  0  0  0
   16.4723  -14.8935  -14.6906 C   0  0  0  0  0  0  0  0  0  0  0  0
   16.8043  -16.0613  -14.4403 O   0  0  0  0  0  0  0  0  0  0  0  0
   17.6136  -11.8431  -16.5549 C   0  0  0  0  0  0  0  0  0  0  0  0
   18.7531  -12.1574  -17.0390 O   0  0  0  0  0  0  0  0  0  0  0  0
   15.2378  -14.4422  -14.2796 O   0  0  0  0  0  0  0  0  0  0  0  0
   16.8553  -10.3765  -22.8192 O   0  0  0  0  0  0  0  0  0  0  0  0
   17.0299   -9.8793  -21.5370 C   0  0  0  0  0  0  0  0  0  0  0  0
   18.2445   -9.3647  -21.1298 C   0  0  0  0  0  0  0  0  0  0  0  0
   18.4120   -8.8781  -19.8720 C   0  0  0  0  0  0  0  0  0  0  0  0
   17.3305   -8.9092  -18.9999 C   0  0  0  0  0  0  0  0  0  0  0  0
   17.5212   -8.4004  -17.6373 C   0  0  0  0  0  0  0  0  0  0  0  0
   18.2000   -9.4434  -16.7932 C   0  0  2  0  0  0  0  0  0  0  0  0
   17.2590  -10.4867  -16.4136 N   0  0  0  0  0  0  0  0  0  0  0  0
   18.8401   -8.9297  -15.5809 C   0  0  0  0  0  0  0  0  0  0  0  0
   18.1937   -8.6051  -14.5742 O   0  0  0  0  0  0  0  0  0  0  0  0
   16.1076   -9.4178  -19.3818 C   0  0  0  0  0  0  0  0  0  0  0  0
   15.9621   -9.9022  -20.6528 C   0  0  0  0  0  0  0  0  0  0  0  0
   21.3498  -10.5978  -13.4952 C   0  0  0  0  0  0  0  0  0  0  0  0
   21.9780   -9.2756  -13.8815 C   0  0  1  0  0  0  0  0  0  0  0  0
   23.0224   -9.4319  -14.9358 C   0  0  0  0  0  0  0  0  0  0  0  0
   20.8768   -8.3322  -14.3116 C   0  0  2  0  0  0  0  0  0  0  0  0
   20.2600   -8.7863  -15.5263 N   0  0  0  0  0  0  0  0  0  0  0  0
   21.4825   -6.9846  -14.5638 C   0  0  0  0  0  0  0  0  0  0  0  0
   21.6073   -6.5021  -15.7157 O   0  0  0  0  0  0  0  0  0  0  0  0
   21.9232   -6.2381  -13.4880 O   0  0  0  0  0  0  0  0  0  0  0  0
  2  1  1  6
  2  3  1  0
  3  4  1  0
  4  5  2  0
  6  7  2  0
  6  2  1  0
  8  4  1  0
  9 10  1  0
 10 11  2  0
 10 20  1  0
 11 12  1  0
 12 13  2  0
 13 14  1  0
 15 14  1  1
 15 17  1  0
 15 16  1  0
 16  6  1  0
 17 18  2  0
 19 13  1  0
 20 19  2  0
 22 21  1  6
 23 22  1  0
 24 22  1  0
 24 25  1  6
 25 17  1  0
 26 28  1  0
 26 24  1  0
 27 26  2  0
M  END
$$$$
