DYV.pdb
     RDKit          3D

 28 28  0  0  1  0  0  0  0  0999 V2000
   28.8524  -23.5085  -17.4144 N   0  0  0  0  0  0  0  0  0  0  0  0
   28.2843  -22.1897  -17.2314 C   0  0  1  0  0  0  0  0  0  0  0  0
   27.6629  -21.7195  -18.5060 C   0  0  0  0  0  0  0  0  0  0  0  0
   28.6959  -21.4745  -19.5665 C   0  0  0  0  0  0  0  0  0  0  0  0
   29.7926  -20.9884  -19.2537 O   0  0  0  0  0  0  0  0  0  0  0  0
   27.3017  -22.1953  -16.1453 C   0  0  0  0  0  0  0  0  0  0  0  0
   26.4762  -23.1662  -16.0579 O   0  0  0  0  0  0  0  0  0  0  0  0
   28.4474  -21.7807  -20.8860 O   0  0  0  0  0  0  0  0  0  0  0  0
   23.2135  -20.7291   -8.6687 O   0  0  0  0  0  0  0  0  0  0  0  0
   24.1015  -20.6453   -9.7298 C   0  0  0  0  0  0  0  0  0  0  0  0
   25.3016  -21.3275   -9.7124 C   0  0  0  0  0  0  0  0  0  0  0  0
   26.1697  -21.2430  -10.7546 C   0  0  0  0  0  0  0  0  0  0  0  0
   25.8231  -20.4521  -11.8434 C   0  0  0  0  0  0  0  0  0  0  0  0
   26.7716  -20.3487  -12.9576 C   0  0  0  0  0  0  0  0  0  0  0  0
   26.2974  -21.1886  -14.1113 C   0  0  2  0  0  0  0  0  0  0  0  0
   27.2590  -21.1485  -15.2030 N   0  0  0  0  0  0  0  0  0  0  0  0
   24.9809  -20.8219  -14.6362 C   0  0  0  0  0  0  0  0  0  0  0  0
   24.7997  -19.8103  -15.3295 O   0  0  0  0  0  0  0  0  0  0  0  0
   24.6313  -19.7609  -11.8851 C   0  0  0  0  0  0  0  0  0  0  0  0
   23.7728  -19.8608  -10.8249 C   0  0  0  0  0  0  0  0  0  0  0  0
   20.5704  -21.8125  -16.1430 C   0  0  0  0  0  0  0  0  0  0  0  0
   22.0031  -22.1953  -15.8383 C   0  0  1  0  0  0  0  0  0  0  0  0
   22.8498  -22.2419  -17.0663 C   0  0  0  0  0  0  0  0  0  0  0  0
   22.5475  -21.2265  -14.8124 C   0  0  2  0  0  0  0  0  0  0  0  0
   23.8446  -21.6404  -14.3561 N   0  0  0  0  0  0  0  0  0  0  0  0
   21.6160  -21.2105  -13.6383 C   0  0  0  0  0  0  0  0  0  0  0  0
   20.6905  -20.3712  -13.5183 O   0  0  0  0  0  0  0  0  0  0  0  0
   21.7778  -22.1561  -12.6440 O   0  0  0  0  0  0  0  0  0  0  0  0
  2  1  1  6
  2  3  1  0
  3  4  1  0
  4  5  2  0
  6  7  2  0
  6  2  1  0
  8  4  1  0
  9 10  1  0
 10 11  2  0
 10 20  1  0
 11 12  1  0
 12 13  2  0
 13 14  1  0
 15 14  1  1
 15 17  1  0
 15 16  1  0
 16  6  1  0
 17 18  2  0
 19 13  1  0
 20 19  2  0
 22 21  1  6
 23 22  1  0
 24 22  1  0
 24 25  1  1
 25 17  1  0
 26 28  1  0
 26 24  1  0
 27 26  2  0
M  END
$$$$
