DYV.pdb
     RDKit          3D

 28 28  0  0  1  0  0  0  0  0999 V2000
   28.9158  -22.7876  -18.2847 N   0  0  0  0  0  0  0  0  0  0  0  0
   28.3905  -21.5153  -17.8366 C   0  0  1  0  0  0  0  0  0  0  0  0
   27.5932  -20.8786  -18.9278 C   0  0  0  0  0  0  0  0  0  0  0  0
   28.4717  -20.3993  -20.0460 C   0  0  0  0  0  0  0  0  0  0  0  0
   29.5271  -19.8038  -19.7846 O   0  0  0  0  0  0  0  0  0  0  0  0
   27.5771  -21.6867  -16.6307 C   0  0  0  0  0  0  0  0  0  0  0  0
   26.8197  -22.7105  -16.5313 O   0  0  0  0  0  0  0  0  0  0  0  0
   28.1259  -20.6093  -21.3624 O   0  0  0  0  0  0  0  0  0  0  0  0
   23.9932  -20.7939   -8.8004 O   0  0  0  0  0  0  0  0  0  0  0  0
   24.8131  -20.6353   -9.9068 C   0  0  0  0  0  0  0  0  0  0  0  0
   25.9062  -21.4539  -10.1091 C   0  0  0  0  0  0  0  0  0  0  0  0
   26.7078  -21.2954  -11.1951 C   0  0  0  0  0  0  0  0  0  0  0  0
   26.4031  -20.2876  -12.1022 C   0  0  0  0  0  0  0  0  0  0  0  0
   27.2820  -20.1080  -13.2629 C   0  0  0  0  0  0  0  0  0  0  0  0
   26.7467  -20.8851  -14.4337 C   0  0  2  0  0  0  0  0  0  0  0  0
   27.6221  -20.7409  -15.5873 N   0  0  0  0  0  0  0  0  0  0  0  0
   25.3846  -20.5286  -14.8350 C   0  0  0  0  0  0  0  0  0  0  0  0
   25.1268  -19.4931  -15.4659 O   0  0  0  0  0  0  0  0  0  0  0  0
   25.3178  -19.4570  -11.9231 C   0  0  0  0  0  0  0  0  0  0  0  0
   24.5249  -19.6350  -10.8228 C   0  0  0  0  0  0  0  0  0  0  0  0
   20.9270  -21.5940  -16.1117 C   0  0  0  0  0  0  0  0  0  0  0  0
   22.3712  -21.9751  -15.8652 C   0  0  1  0  0  0  0  0  0  0  0  0
   23.1662  -22.0267  -17.1270 C   0  0  0  0  0  0  0  0  0  0  0  0
   22.9574  -21.0019  -14.8668 C   0  0  2  0  0  0  0  0  0  0  0  0
   24.2921  -21.3858  -14.5016 N   0  0  0  0  0  0  0  0  0  0  0  0
   22.1055  -21.0212  -13.6337 C   0  0  0  0  0  0  0  0  0  0  0  0
   22.1257  -21.9684  -12.8104 O   0  0  0  0  0  0  0  0  0  0  0  0
   21.2614  -19.9554  -13.3879 O   0  0  0  0  0  0  0  0  0  0  0  0
  2  1  1  6
  2  3  1  0
  3  4  1  0
  4  5  2  0
  6  7  2  0
  6  2  1  0
  8  4  1  0
  9 10  1  0
 10 11  2  0
 10 20  1  0
 11 12  1  0
 12 13  2  0
 13 14  1  0
 15 14  1  1
 15 17  1  0
 15 16  1  0
 16  6  1  0
 17 18  2  0
 19 13  1  0
 20 19  2  0
 22 21  1  6
 23 22  1  0
 24 22  1  0
 24 25  1  1
 25 17  1  0
 26 28  1  0
 26 24  1  0
 27 26  2  0
M  END
$$$$
