DYV.pdb
     RDKit          3D

 28 28  0  0  1  0  0  0  0  0999 V2000
   14.3004   -9.2519  -14.8578 N   0  0  0  0  0  0  0  0  0  0  0  0
   15.3291   -9.4927  -13.8682 C   0  0  1  0  0  0  0  0  0  0  0  0
   16.3024  -10.5046  -14.3785 C   0  0  0  0  0  0  0  0  0  0  0  0
   15.7591  -11.8990  -14.2662 C   0  0  0  0  0  0  0  0  0  0  0  0
   14.5329  -12.0789  -14.2372 O   0  0  0  0  0  0  0  0  0  0  0  0
   16.0122   -8.2455  -13.5173 C   0  0  0  0  0  0  0  0  0  0  0  0
   16.2591   -7.3917  -14.4348 O   0  0  0  0  0  0  0  0  0  0  0  0
   16.6007  -12.9867  -14.1941 O   0  0  0  0  0  0  0  0  0  0  0  0
   18.3418   -1.0475   -9.5014 O   0  0  0  0  0  0  0  0  0  0  0  0
   17.8618   -2.3192   -9.7738 C   0  0  0  0  0  0  0  0  0  0  0  0
   17.2793   -2.6174  -10.9893 C   0  0  0  0  0  0  0  0  0  0  0  0
   16.8099   -3.8653  -11.2529 C   0  0  0  0  0  0  0  0  0  0  0  0
   16.9289   -4.8396  -10.2692 C   0  0  0  0  0  0  0  0  0  0  0  0
   16.4037   -6.1800  -10.5511 C   0  0  0  0  0  0  0  0  0  0  0  0
   16.9821   -6.6942  -11.8404 C   0  0  2  0  0  0  0  0  0  0  0  0
   16.3958   -7.9802  -12.1877 N   0  0  0  0  0  0  0  0  0  0  0  0
   18.4398   -6.8295  -11.8476 C   0  0  0  0  0  0  0  0  0  0  0  0
   19.0415   -7.5823  -11.0679 O   0  0  0  0  0  0  0  0  0  0  0  0
   17.5062   -4.5674   -9.0475 C   0  0  0  0  0  0  0  0  0  0  0  0
   17.9718   -3.3043   -8.8043 C   0  0  0  0  0  0  0  0  0  0  0  0
   22.6546   -6.8532  -14.0295 C   0  0  0  0  0  0  0  0  0  0  0  0
   21.1423   -6.9198  -14.0051 C   0  0  1  0  0  0  0  0  0  0  0  0
   20.6361   -8.3212  -14.0858 C   0  0  0  0  0  0  0  0  0  0  0  0
   20.6541   -6.2128  -12.7604 C   0  0  2  0  0  0  0  0  0  0  0  0
   19.2243   -6.0794  -12.7758 N   0  0  0  0  0  0  0  0  0  0  0  0
   21.2568   -4.8408  -12.7305 C   0  0  0  0  0  0  0  0  0  0  0  0
   20.6268   -3.8155  -13.0873 O   0  0  0  0  0  0  0  0  0  0  0  0
   22.5589   -4.6923  -12.2931 O   0  0  0  0  0  0  0  0  0  0  0  0
  2  1  1  6
  2  3  1  0
  3  4  1  0
  4  5  2  0
  6  7  2  0
  6  2  1  0
  8  4  1  0
  9 10  1  0
 10 11  2  0
 10 20  1  0
 11 12  1  0
 12 13  2  0
 13 14  1  0
 15 14  1  1
 15 17  1  0
 15 16  1  0
 16  6  1  0
 17 18  2  0
 19 13  1  0
 20 19  2  0
 22 21  1  1
 23 22  1  0
 24 22  1  0
 24 25  1  6
 25 17  1  0
 26 28  1  0
 26 24  1  0
 27 26  2  0
M  END
$$$$
