LQG.pdb
     RDKit          3D

 22 21  0  0  1  0  0  0  0  0999 V2000
   12.6153   -5.9993   -8.6509 C   0  0  0  0  0  0  0  0  0  0  0  0
   13.9085   -5.3195   -8.2702 C   0  0  2  0  0  0  0  0  0  0  0  0
   13.6918   -3.8463   -8.2535 C   0  0  0  0  0  0  0  0  0  0  0  0
   14.9960   -5.7675   -9.1923 C   0  0  0  0  0  0  0  0  0  0  0  0
   15.2625   -7.2315   -9.2039 C   0  0  2  0  0  0  0  0  0  0  0  0
   15.8248   -7.7651   -8.0034 N   0  0  0  0  0  0  0  0  0  0  0  0
   16.2208   -7.4970  -10.3257 C   0  0  0  0  0  0  0  0  0  0  0  0
   17.4455   -7.1451  -10.2218 O   0  0  0  0  0  0  0  0  0  0  0  0
   16.2175  -12.1875  -14.2368 N   0  0  0  0  0  0  0  0  0  0  0  0
   16.6963  -12.1472  -12.8963 C   0  0  0  0  0  0  0  0  0  0  0  0
   16.8670  -13.2228  -12.2705 O   0  0  0  0  0  0  0  0  0  0  0  0
   16.9906  -10.8478  -12.2451 C   0  0  0  0  0  0  0  0  0  0  0  0
   16.6760   -9.7488  -13.1928 C   0  0  0  0  0  0  0  0  0  0  0  0
   16.8168   -8.3706  -12.6075 C   0  0  2  0  0  0  0  0  0  0  0  0
   15.8662   -8.1306  -11.5383 N   0  0  0  0  0  0  0  0  0  0  0  0
   16.7564   -7.3036  -13.6211 C   0  0  0  0  0  0  0  0  0  0  0  0
   15.6705   -6.8554  -14.0291 O   0  0  0  0  0  0  0  0  0  0  0  0
   17.9608   -6.7825  -14.1368 N   0  0  0  0  0  0  0  0  0  0  0  0
   17.9536   -5.7798  -15.1809 C   0  0  0  0  0  0  0  0  0  0  0  0
   17.8381   -4.4106  -14.6304 C   0  0  0  0  0  0  0  0  0  0  0  0
   17.5967   -4.2622  -13.4106 O   0  0  0  0  0  0  0  0  0  0  0  0
   17.9871   -3.2839  -15.4151 O   0  0  0  0  0  0  0  0  0  0  0  0
  2  1  1  6
  2  3  1  0
  4  2  1  0
  5  4  1  0
  5  7  1  0
  5  6  1  1
  7  8  2  0
  9 10  1  0
 10 11  2  0
 12 10  1  0
 12 13  1  0
 14 13  1  6
 15  7  1  0
 15 14  1  0
 16 14  1  0
 16 17  2  0
 18 16  1  0
 19 18  1  0
 19 20  1  0
 20 22  1  0
 21 20  2  0
M  END
$$$$
