LQG.pdb
     RDKit          3D

 22 21  0  0  1  0  0  0  0  0999 V2000
   26.8369  -20.9101   -6.6094 C   0  0  0  0  0  0  0  0  0  0  0  0
   27.7756  -20.1872   -7.5452 C   0  0  2  0  0  0  0  0  0  0  0  0
   28.4100  -19.0564   -6.8130 C   0  0  0  0  0  0  0  0  0  0  0  0
   27.0335  -19.7792   -8.7767 C   0  0  0  0  0  0  0  0  0  0  0  0
   26.4087  -20.8900   -9.5449 C   0  0  2  0  0  0  0  0  0  0  0  0
   27.3188  -21.7602  -10.2206 N   0  0  0  0  0  0  0  0  0  0  0  0
   25.5108  -20.2669  -10.5711 C   0  0  0  0  0  0  0  0  0  0  0  0
   24.9096  -19.1677  -10.3167 O   0  0  0  0  0  0  0  0  0  0  0  0
   26.7021  -18.5688  -16.0665 N   0  0  0  0  0  0  0  0  0  0  0  0
   27.1907  -19.7830  -15.5055 C   0  0  0  0  0  0  0  0  0  0  0  0
   28.2079  -20.3263  -16.0035 O   0  0  0  0  0  0  0  0  0  0  0  0
   26.5053  -20.4004  -14.3443 C   0  0  0  0  0  0  0  0  0  0  0  0
   25.3701  -19.5350  -13.9355 C   0  0  0  0  0  0  0  0  0  0  0  0
   24.4945  -20.1301  -12.8675 C   0  0  2  0  0  0  0  0  0  0  0  0
   25.2649  -20.8184  -11.8490 N   0  0  0  0  0  0  0  0  0  0  0  0
   23.4333  -20.9974  -13.4072 C   0  0  0  0  0  0  0  0  0  0  0  0
   23.6995  -22.0546  -14.0054 O   0  0  0  0  0  0  0  0  0  0  0  0
   22.0867  -20.6147  -13.2384 N   0  0  0  0  0  0  0  0  0  0  0  0
   21.4776  -19.6270  -14.1038 C   0  0  0  0  0  0  0  0  0  0  0  0
   20.9973  -20.2240  -15.3703 C   0  0  0  0  0  0  0  0  0  0  0  0
   19.8323  -19.9769  -15.7577 O   0  0  0  0  0  0  0  0  0  0  0  0
   21.7893  -21.0479  -16.1457 O   0  0  0  0  0  0  0  0  0  0  0  0
  2  1  1  1
  2  3  1  0
  4  2  1  0
  5  4  1  0
  5  7  1  0
  5  6  1  6
  7  8  2  0
  9 10  1  0
 10 11  2  0
 12 10  1  0
 12 13  1  0
 14 13  1  6
 15  7  1  0
 15 14  1  0
 16 14  1  0
 16 17  2  0
 18 16  1  0
 19 18  1  0
 19 20  1  0
 20 22  1  0
 21 20  2  0
M  END
$$$$
