LQG.pdb
     RDKit          3D

 22 21  0  0  1  0  0  0  0  0999 V2000
   27.2883  -19.1197   -5.2435 C   0  0  0  0  0  0  0  0  0  0  0  0
   28.0449  -19.9893   -6.2186 C   0  0  2  0  0  0  0  0  0  0  0  0
   29.5015  -19.7115   -6.0821 C   0  0  0  0  0  0  0  0  0  0  0  0
   27.5078  -19.7749   -7.5967 C   0  0  0  0  0  0  0  0  0  0  0  0
   26.0561  -20.0538   -7.7683 C   0  0  2  0  0  0  0  0  0  0  0  0
   25.6395  -21.3791   -7.4335 N   0  0  0  0  0  0  0  0  0  0  0  0
   25.7274  -19.8122   -9.2108 C   0  0  0  0  0  0  0  0  0  0  0  0
   25.9868  -18.6817   -9.7486 O   0  0  0  0  0  0  0  0  0  0  0  0
   26.5700  -22.8288  -14.3853 N   0  0  0  0  0  0  0  0  0  0  0  0
   27.4031  -21.8604  -13.7562 C   0  0  0  0  0  0  0  0  0  0  0  0
   28.5950  -21.7355  -14.1323 O   0  0  0  0  0  0  0  0  0  0  0  0
   26.8688  -21.0073  -12.6671 C   0  0  0  0  0  0  0  0  0  0  0  0
   25.4530  -21.3758  -12.4134 C   0  0  0  0  0  0  0  0  0  0  0  0
   24.7500  -20.4821  -11.4291 C   0  0  2  0  0  0  0  0  0  0  0  0
   25.1297  -20.7716  -10.0592 N   0  0  0  0  0  0  0  0  0  0  0  0
   23.2855  -20.4883  -11.5868 C   0  0  0  0  0  0  0  0  0  0  0  0
   22.5566  -21.1872  -10.8610 O   0  0  0  0  0  0  0  0  0  0  0  0
   22.7027  -19.6811  -12.5852 N   0  0  0  0  0  0  0  0  0  0  0  0
   21.2649  -19.5950  -12.7303 C   0  0  0  0  0  0  0  0  0  0  0  0
   20.7270  -20.6966  -13.5599 C   0  0  0  0  0  0  0  0  0  0  0  0
   21.5143  -21.5576  -14.0152 O   0  0  0  0  0  0  0  0  0  0  0  0
   19.3823  -20.8120  -13.8528 O   0  0  0  0  0  0  0  0  0  0  0  0
  2  1  1  1
  2  3  1  0
  4  2  1  0
  5  4  1  0
  5  7  1  0
  5  6  1  6
  7  8  2  0
  9 10  1  0
 10 11  2  0
 12 10  1  0
 12 13  1  0
 14 13  1  6
 15  7  1  0
 15 14  1  0
 16 14  1  0
 16 17  2  0
 18 16  1  0
 19 18  1  0
 19 20  1  0
 20 22  1  0
 21 20  2  0
M  END
$$$$
