LQG.pdb
     RDKit          3D

 22 21  0  0  1  0  0  0  0  0999 V2000
   14.5474   -5.5122   -7.1972 C   0  0  0  0  0  0  0  0  0  0  0  0
   14.5238   -5.9262   -8.6489 C   0  0  2  0  0  0  0  0  0  0  0  0
   13.1976   -6.5293   -8.9566 C   0  0  0  0  0  0  0  0  0  0  0  0
   15.6845   -6.8252   -8.9286 C   0  0  0  0  0  0  0  0  0  0  0  0
   15.5276   -7.7264  -10.1024 C   0  0  2  0  0  0  0  0  0  0  0  0
   15.1010   -9.0574   -9.8046 N   0  0  0  0  0  0  0  0  0  0  0  0
   16.8624   -7.8054  -10.7801 C   0  0  0  0  0  0  0  0  0  0  0  0
   17.4991   -8.9133  -10.8188 O   0  0  0  0  0  0  0  0  0  0  0  0
   19.7412  -10.1207  -12.8752 N   0  0  0  0  0  0  0  0  0  0  0  0
   20.2378   -9.3026  -13.9296 C   0  0  0  0  0  0  0  0  0  0  0  0
   21.2825   -9.6464  -14.5364 O   0  0  0  0  0  0  0  0  0  0  0  0
   19.5285   -8.0564  -14.3080 C   0  0  0  0  0  0  0  0  0  0  0  0
   18.3816   -7.8532  -13.3871 C   0  0  0  0  0  0  0  0  0  0  0  0
   18.6430   -6.8631  -12.2856 C   0  0  2  0  0  0  0  0  0  0  0  0
   17.5003   -6.7099  -11.4051 N   0  0  0  0  0  0  0  0  0  0  0  0
   19.1101   -5.5572  -12.7815 C   0  0  0  0  0  0  0  0  0  0  0  0
   18.3332   -4.7527  -13.3252 O   0  0  0  0  0  0  0  0  0  0  0  0
   20.4705   -5.2172  -12.6334 N   0  0  0  0  0  0  0  0  0  0  0  0
   20.9597   -3.9110  -13.0207 C   0  0  0  0  0  0  0  0  0  0  0  0
   21.0181   -3.7575  -14.4918 C   0  0  0  0  0  0  0  0  0  0  0  0
   20.6654   -4.7139  -15.2192 O   0  0  0  0  0  0  0  0  0  0  0  0
   21.4490   -2.5930  -15.0965 O   0  0  0  0  0  0  0  0  0  0  0  0
  2  1  1  1
  2  3  1  0
  4  2  1  0
  5  4  1  0
  5  7  1  0
  5  6  1  1
  7  8  2  0
  9 10  1  0
 10 11  2  0
 12 10  1  0
 12 13  1  0
 14 13  1  6
 15  7  1  0
 15 14  1  0
 16 14  1  0
 16 17  2  0
 18 16  1  0
 19 18  1  0
 19 20  1  0
 20 22  1  0
 21 20  2  0
M  END
$$$$
