LQG.pdb
     RDKit          3D

 22 21  0  0  1  0  0  0  0  0999 V2000
   26.0557  -15.7530  -14.5192 C   0  0  0  0  0  0  0  0  0  0  0  0
   25.9735  -15.4326  -15.9923 C   0  0  2  0  0  0  0  0  0  0  0  0
   27.3522  -15.3867  -16.5532 C   0  0  0  0  0  0  0  0  0  0  0  0
   25.1926  -14.1729  -16.1845 C   0  0  0  0  0  0  0  0  0  0  0  0
   23.8069  -14.1899  -15.6422 C   0  0  2  0  0  0  0  0  0  0  0  0
   22.9692  -15.2423  -16.1248 N   0  0  0  0  0  0  0  0  0  0  0  0
   23.1723  -12.8828  -16.0109 C   0  0  0  0  0  0  0  0  0  0  0  0
   23.8519  -11.9873  -16.6198 O   0  0  0  0  0  0  0  0  0  0  0  0
   18.2503  -14.5663  -17.0901 N   0  0  0  0  0  0  0  0  0  0  0  0
   18.2394  -13.1464  -17.1974 C   0  0  0  0  0  0  0  0  0  0  0  0
   17.1668  -12.5221  -17.0036 O   0  0  0  0  0  0  0  0  0  0  0  0
   19.4826  -12.4115  -17.5347 C   0  0  0  0  0  0  0  0  0  0  0  0
   19.7719  -11.4296  -16.4591 C   0  0  0  0  0  0  0  0  0  0  0  0
   21.2326  -11.2864  -16.1314 C   0  0  2  0  0  0  0  0  0  0  0  0
   21.8289  -12.5460  -15.7284 N   0  0  0  0  0  0  0  0  0  0  0  0
   21.5015  -10.2305  -15.1403 C   0  0  0  0  0  0  0  0  0  0  0  0
   21.6032  -10.4878  -13.9279 O   0  0  0  0  0  0  0  0  0  0  0  0
   21.6460   -8.8994  -15.5826 N   0  0  0  0  0  0  0  0  0  0  0  0
   22.0372   -7.8476  -14.6682 C   0  0  0  0  0  0  0  0  0  0  0  0
   22.1737   -6.5428  -15.3537 C   0  0  0  0  0  0  0  0  0  0  0  0
   22.5222   -5.5391  -14.6908 O   0  0  0  0  0  0  0  0  0  0  0  0
   21.9301   -6.3890  -16.7044 O   0  0  0  0  0  0  0  0  0  0  0  0
  2  1  1  1
  2  3  1  0
  4  2  1  0
  5  4  1  0
  5  7  1  0
  5  6  1  6
  7  8  2  0
  9 10  1  0
 10 11  2  0
 12 10  1  0
 12 13  1  0
 14 13  1  1
 15  7  1  0
 15 14  1  0
 16 14  1  0
 16 17  2  0
 18 16  1  0
 19 18  1  0
 19 20  1  0
 20 22  1  0
 21 20  2  0
M  END
$$$$
