LQG.pdb
     RDKit          3D

 22 21  0  0  1  0  0  0  0  0999 V2000
   26.7489  -11.4099  -15.3491 C   0  0  0  0  0  0  0  0  0  0  0  0
   26.6616  -10.7010  -16.6792 C   0  0  2  0  0  0  0  0  0  0  0  0
   27.8414   -9.8043  -16.8257 C   0  0  0  0  0  0  0  0  0  0  0  0
   25.3449  -10.0017  -16.7847 C   0  0  0  0  0  0  0  0  0  0  0  0
   24.1456  -10.8681  -16.6249 C   0  0  2  0  0  0  0  0  0  0  0  0
   24.0402  -11.9514  -17.5510 N   0  0  0  0  0  0  0  0  0  0  0  0
   22.9416   -9.9913  -16.7943 C   0  0  0  0  0  0  0  0  0  0  0  0
   22.5518   -9.6535  -17.9641 O   0  0  0  0  0  0  0  0  0  0  0  0
   17.5764  -10.9625  -14.8309 N   0  0  0  0  0  0  0  0  0  0  0  0
   17.3240   -9.6535  -15.3315 C   0  0  0  0  0  0  0  0  0  0  0  0
   16.1402   -9.2406  -15.4076 O   0  0  0  0  0  0  0  0  0  0  0  0
   18.4481   -8.7858  -15.7591 C   0  0  0  0  0  0  0  0  0  0  0  0
   19.7222   -9.5324  -15.6047 C   0  0  0  0  0  0  0  0  0  0  0  0
   20.9518   -8.7258  -15.9200 C   0  0  2  0  0  0  0  0  0  0  0  0
   22.1709   -9.4869  -15.7223 N   0  0  0  0  0  0  0  0  0  0  0  0
   21.0029   -7.4438  -15.1966 C   0  0  0  0  0  0  0  0  0  0  0  0
   20.0340   -6.6643  -15.1861 O   0  0  0  0  0  0  0  0  0  0  0  0
   22.1802   -7.0982  -14.5018 N   0  0  0  0  0  0  0  0  0  0  0  0
   22.2616   -5.8732  -13.7347 C   0  0  0  0  0  0  0  0  0  0  0  0
   22.3733   -4.6823  -14.6066 C   0  0  0  0  0  0  0  0  0  0  0  0
   22.3079   -4.8277  -15.8488 O   0  0  0  0  0  0  0  0  0  0  0  0
   22.5480   -3.4095  -14.0999 O   0  0  0  0  0  0  0  0  0  0  0  0
  2  1  1  1
  2  3  1  0
  4  2  1  0
  5  4  1  0
  5  7  1  0
  5  6  1  6
  7  8  2  0
  9 10  1  0
 10 11  2  0
 12 10  1  0
 12 13  1  0
 14 13  1  1
 15  7  1  0
 15 14  1  0
 16 14  1  0
 16 17  2  0
 18 16  1  0
 19 18  1  0
 19 20  1  0
 20 22  1  0
 21 20  2  0
M  END
$$$$
