LQG.pdb
     RDKit          3D

 22 21  0  0  1  0  0  0  0  0999 V2000
   27.4614  -17.4556  -15.4212 C   0  0  0  0  0  0  0  0  0  0  0  0
   26.5477  -18.6393  -15.6298 C   0  0  2  0  0  0  0  0  0  0  0  0
   26.5321  -18.9867  -17.0777 C   0  0  0  0  0  0  0  0  0  0  0  0
   25.2004  -18.3342  -15.0593 C   0  0  0  0  0  0  0  0  0  0  0  0
   24.0422  -18.8083  -15.8645 C   0  0  2  0  0  0  0  0  0  0  0  0
   23.6830  -17.9816  -16.9734 N   0  0  0  0  0  0  0  0  0  0  0  0
   22.8643  -18.8863  -14.9405 C   0  0  0  0  0  0  0  0  0  0  0  0
   22.2645  -17.8191  -14.5720 O   0  0  0  0  0  0  0  0  0  0  0  0
   17.8684  -21.8814  -15.3971 N   0  0  0  0  0  0  0  0  0  0  0  0
   17.6335  -21.2912  -14.1226 C   0  0  0  0  0  0  0  0  0  0  0  0
   16.4881  -21.3630  -13.6122 O   0  0  0  0  0  0  0  0  0  0  0  0
   18.7307  -20.5985  -13.4046 C   0  0  0  0  0  0  0  0  0  0  0  0
   19.9683  -20.6748  -14.2215 C   0  0  0  0  0  0  0  0  0  0  0  0
   21.1939  -20.1364  -13.5362 C   0  0  2  0  0  0  0  0  0  0  0  0
   22.3416  -20.0930  -14.4223 N   0  0  0  0  0  0  0  0  0  0  0  0
   21.5150  -20.8454  -12.2857 C   0  0  0  0  0  0  0  0  0  0  0  0
   22.2210  -21.8691  -12.2819 O   0  0  0  0  0  0  0  0  0  0  0  0
   21.0073  -20.3471  -11.0683 N   0  0  0  0  0  0  0  0  0  0  0  0
   21.2991  -21.0058   -9.8126 C   0  0  0  0  0  0  0  0  0  0  0  0
   20.3628  -22.1201   -9.5434 C   0  0  0  0  0  0  0  0  0  0  0  0
   19.5083  -22.4211  -10.4080 O   0  0  0  0  0  0  0  0  0  0  0  0
   20.3956  -22.8450   -8.3683 O   0  0  0  0  0  0  0  0  0  0  0  0
  2  1  1  6
  2  3  1  0
  4  2  1  0
  5  4  1  0
  5  7  1  0
  5  6  1  6
  7  8  2  0
  9 10  1  0
 10 11  2  0
 12 10  1  0
 12 13  1  0
 14 13  1  6
 15  7  1  0
 15 14  1  0
 16 14  1  0
 16 17  2  0
 18 16  1  0
 19 18  1  0
 19 20  1  0
 20 22  1  0
 21 20  2  0
M  END
$$$$
