LQG.pdb
     RDKit          3D

 22 21  0  0  1  0  0  0  0  0999 V2000
   26.3816  -16.8247  -14.3803 C   0  0  0  0  0  0  0  0  0  0  0  0
   26.2889  -17.0560  -15.8693 C   0  0  2  0  0  0  0  0  0  0  0  0
   27.4666  -16.4273  -16.5290 C   0  0  0  0  0  0  0  0  0  0  0  0
   24.9706  -16.5597  -16.3686 C   0  0  0  0  0  0  0  0  0  0  0  0
   23.7734  -17.2098  -15.7697 C   0  0  2  0  0  0  0  0  0  0  0  0
   23.6443  -18.6112  -16.0179 N   0  0  0  0  0  0  0  0  0  0  0  0
   22.5677  -16.5229  -16.3369 C   0  0  0  0  0  0  0  0  0  0  0  0
   22.1781  -16.7856  -17.5259 O   0  0  0  0  0  0  0  0  0  0  0  0
   20.4476  -18.3854  -14.2437 N   0  0  0  0  0  0  0  0  0  0  0  0
   19.3753  -17.4545  -14.3509 C   0  0  0  0  0  0  0  0  0  0  0  0
   18.6881  -17.1867  -13.3342 O   0  0  0  0  0  0  0  0  0  0  0  0
   19.0727  -16.8074  -15.6504 C   0  0  0  0  0  0  0  0  0  0  0  0
   19.3544  -15.3534  -15.5448 C   0  0  0  0  0  0  0  0  0  0  0  0
   20.6316  -14.9226  -16.2119 C   0  0  2  0  0  0  0  0  0  0  0  0
   21.7950  -15.5696  -15.6355 N   0  0  0  0  0  0  0  0  0  0  0  0
   20.8003  -13.4598  -16.2468 C   0  0  0  0  0  0  0  0  0  0  0  0
   21.2320  -12.8317  -15.2642 O   0  0  0  0  0  0  0  0  0  0  0  0
   20.4627  -12.7613  -17.4243 N   0  0  0  0  0  0  0  0  0  0  0  0
   20.5563  -11.3181  -17.4886 C   0  0  0  0  0  0  0  0  0  0  0  0
   19.2992  -10.6639  -17.0612 C   0  0  0  0  0  0  0  0  0  0  0  0
   19.2367   -9.4132  -17.0476 O   0  0  0  0  0  0  0  0  0  0  0  0
   18.1861  -11.3841  -16.6745 O   0  0  0  0  0  0  0  0  0  0  0  0
  2  1  1  1
  2  3  1  0
  4  2  1  0
  5  4  1  0
  5  7  1  0
  5  6  1  6
  7  8  2  0
  9 10  1  0
 10 11  2  0
 12 10  1  0
 12 13  1  0
 14 13  1  1
 15  7  1  0
 15 14  1  0
 16 14  1  0
 16 17  2  0
 18 16  1  0
 19 18  1  0
 19 20  1  0
 20 22  1  0
 21 20  2  0
M  END
$$$$
