LQG.pdb
     RDKit          3D

 22 21  0  0  1  0  0  0  0  0999 V2000
   22.1079  -13.4305  -20.0596 C   0  0  0  0  0  0  0  0  0  0  0  0
   20.7112  -13.4911  -19.4896 C   0  0  2  0  0  0  0  0  0  0  0  0
   19.7718  -13.9237  -20.5610 C   0  0  0  0  0  0  0  0  0  0  0  0
   20.3689  -12.1745  -18.8707 C   0  0  0  0  0  0  0  0  0  0  0  0
   21.3272  -11.6812  -17.8447 C   0  0  2  0  0  0  0  0  0  0  0  0
   21.5226  -12.5411  -16.7201 N   0  0  0  0  0  0  0  0  0  0  0  0
   20.8012  -10.3701  -17.3432 C   0  0  0  0  0  0  0  0  0  0  0  0
   20.5212   -9.4327  -18.1662 O   0  0  0  0  0  0  0  0  0  0  0  0
   16.6720   -9.3213  -13.0880 N   0  0  0  0  0  0  0  0  0  0  0  0
   16.4862   -9.5732  -14.4772 C   0  0  0  0  0  0  0  0  0  0  0  0
   15.3642   -9.9601  -14.8885 O   0  0  0  0  0  0  0  0  0  0  0  0
   17.6067   -9.3807  -15.4294 C   0  0  0  0  0  0  0  0  0  0  0  0
   18.8193   -8.9746  -14.6748 C   0  0  0  0  0  0  0  0  0  0  0  0
   20.0469   -8.8031  -15.5264 C   0  0  2  0  0  0  0  0  0  0  0  0
   20.5808  -10.0738  -15.9789 N   0  0  0  0  0  0  0  0  0  0  0  0
   21.0900   -7.9892  -14.8791 C   0  0  0  0  0  0  0  0  0  0  0  0
   21.9494   -8.5016  -14.1406 O   0  0  0  0  0  0  0  0  0  0  0  0
   21.1093   -6.5976  -15.1058 N   0  0  0  0  0  0  0  0  0  0  0  0
   22.0909   -5.7502  -14.4623 C   0  0  0  0  0  0  0  0  0  0  0  0
   21.6007   -5.2211  -13.1697 C   0  0  0  0  0  0  0  0  0  0  0  0
   20.4602   -5.5491  -12.7697 O   0  0  0  0  0  0  0  0  0  0  0  0
   22.3572   -4.3746  -12.3834 O   0  0  0  0  0  0  0  0  0  0  0  0
  2  1  1  6
  2  3  1  0
  4  2  1  0
  5  4  1  0
  5  7  1  0
  5  6  1  1
  7  8  2  0
  9 10  1  0
 10 11  2  0
 12 10  1  0
 12 13  1  0
 14 13  1  1
 15  7  1  0
 15 14  1  0
 16 14  1  0
 16 17  2  0
 18 16  1  0
 19 18  1  0
 19 20  1  0
 20 22  1  0
 21 20  2  0
M  END
$$$$
