LQG.pdb
     RDKit          3D

 22 21  0  0  1  0  0  0  0  0999 V2000
   28.6474  -17.1348  -16.3441 C   0  0  0  0  0  0  0  0  0  0  0  0
   27.8744  -18.1086  -17.2006 C   0  0  2  0  0  0  0  0  0  0  0  0
   27.2495  -17.3663  -18.3301 C   0  0  0  0  0  0  0  0  0  0  0  0
   26.9017  -18.8575  -16.3481 C   0  0  0  0  0  0  0  0  0  0  0  0
   27.4987  -19.8651  -15.4300 C   0  0  2  0  0  0  0  0  0  0  0  0
   28.1323  -20.9778  -16.0645 N   0  0  0  0  0  0  0  0  0  0  0  0
   26.3898  -20.3892  -14.5682 C   0  0  0  0  0  0  0  0  0  0  0  0
   25.7146  -21.4095  -14.9393 O   0  0  0  0  0  0  0  0  0  0  0  0
   26.3049  -20.6998   -8.6908 N   0  0  0  0  0  0  0  0  0  0  0  0
   24.9459  -21.0824   -8.8766 C   0  0  0  0  0  0  0  0  0  0  0  0
   24.3678  -21.7543   -7.9866 O   0  0  0  0  0  0  0  0  0  0  0  0
   24.2199  -20.6914  -10.1092 C   0  0  0  0  0  0  0  0  0  0  0  0
   25.1658  -20.0202  -11.0363 C   0  0  0  0  0  0  0  0  0  0  0  0
   24.9874  -20.3994  -12.4806 C   0  0  2  0  0  0  0  0  0  0  0  0
   26.0146  -19.8242  -13.3282 N   0  0  0  0  0  0  0  0  0  0  0  0
   23.6416  -20.0945  -12.9959 C   0  0  0  0  0  0  0  0  0  0  0  0
   23.3104  -18.9359  -13.3032 O   0  0  0  0  0  0  0  0  0  0  0  0
   22.7121  -21.1447  -13.1420 N   0  0  0  0  0  0  0  0  0  0  0  0
   21.3407  -20.8798  -13.5224 C   0  0  0  0  0  0  0  0  0  0  0  0
   21.1677  -20.8707  -14.9925 C   0  0  0  0  0  0  0  0  0  0  0  0
   22.0286  -20.3045  -15.7042 O   0  0  0  0  0  0  0  0  0  0  0  0
   20.0870  -21.4661  -15.6128 O   0  0  0  0  0  0  0  0  0  0  0  0
  2  1  1  1
  2  3  1  0
  4  2  1  0
  5  4  1  0
  5  7  1  0
  5  6  1  6
  7  8  2  0
  9 10  1  0
 10 11  2  0
 12 10  1  0
 12 13  1  0
 14 13  1  1
 15  7  1  0
 15 14  1  0
 16 14  1  0
 16 17  2  0
 18 16  1  0
 19 18  1  0
 19 20  1  0
 20 22  1  0
 21 20  2  0
M  END
$$$$
