LQG.pdb
     RDKit          3D

 22 21  0  0  1  0  0  0  0  0999 V2000
   26.7513  -18.5854   -6.4575 C   0  0  0  0  0  0  0  0  0  0  0  0
   27.1873  -20.0138   -6.6794 C   0  0  2  0  0  0  0  0  0  0  0  0
   28.4503  -20.2544   -5.9281 C   0  0  0  0  0  0  0  0  0  0  0  0
   27.2878  -20.2808   -8.1465 C   0  0  0  0  0  0  0  0  0  0  0  0
   26.0626  -19.9823   -8.9367 C   0  0  2  0  0  0  0  0  0  0  0  0
   24.9032  -20.7406   -8.5859 N   0  0  0  0  0  0  0  0  0  0  0  0
   26.3850  -20.2617  -10.3738 C   0  0  0  0  0  0  0  0  0  0  0  0
   27.5279  -19.9428  -10.8499 O   0  0  0  0  0  0  0  0  0  0  0  0
   25.1326  -24.6736  -14.0530 N   0  0  0  0  0  0  0  0  0  0  0  0
   25.3442  -23.7170  -15.0864 C   0  0  0  0  0  0  0  0  0  0  0  0
   25.6195  -24.1134  -16.2461 O   0  0  0  0  0  0  0  0  0  0  0  0
   25.2405  -22.2663  -14.7964 C   0  0  0  0  0  0  0  0  0  0  0  0
   24.9618  -22.0802  -13.3499 C   0  0  0  0  0  0  0  0  0  0  0  0
   25.7712  -20.9914  -12.7009 C   0  0  2  0  0  0  0  0  0  0  0  0
   25.4919  -20.8737  -11.2823 N   0  0  0  0  0  0  0  0  0  0  0  0
   25.6374  -19.6903  -13.3782 C   0  0  0  0  0  0  0  0  0  0  0  0
   24.6059  -19.0042  -13.2699 O   0  0  0  0  0  0  0  0  0  0  0  0
   26.7069  -19.2172  -14.1659 N   0  0  0  0  0  0  0  0  0  0  0  0
   26.6319  -17.9347  -14.8333 C   0  0  0  0  0  0  0  0  0  0  0  0
   26.2935  -18.0777  -16.2671 C   0  0  0  0  0  0  0  0  0  0  0  0
   25.1064  -18.3074  -16.5935 O   0  0  0  0  0  0  0  0  0  0  0  0
   27.2421  -17.9670  -17.2647 O   0  0  0  0  0  0  0  0  0  0  0  0
  2  1  1  6
  2  3  1  0
  4  2  1  0
  5  4  1  0
  5  7  1  0
  5  6  1  1
  7  8  2  0
  9 10  1  0
 10 11  2  0
 12 10  1  0
 12 13  1  0
 14 13  1  6
 15  7  1  0
 15 14  1  0
 16 14  1  0
 16 17  2  0
 18 16  1  0
 19 18  1  0
 19 20  1  0
 20 22  1  0
 21 20  2  0
M  END
$$$$
