LQG.pdb
     RDKit          3D

 22 21  0  0  1  0  0  0  0  0999 V2000
   27.4008  -18.3490   -6.5075 C   0  0  0  0  0  0  0  0  0  0  0  0
   27.6492  -19.8356   -6.4195 C   0  0  2  0  0  0  0  0  0  0  0  0
   29.0363  -20.0642   -5.9285 C   0  0  0  0  0  0  0  0  0  0  0  0
   27.3563  -20.4679   -7.7417 C   0  0  0  0  0  0  0  0  0  0  0  0
   25.9736  -20.2682   -8.2543 C   0  0  2  0  0  0  0  0  0  0  0  0
   24.9316  -20.8211   -7.4477 N   0  0  0  0  0  0  0  0  0  0  0  0
   25.9069  -20.9110   -9.6069 C   0  0  0  0  0  0  0  0  0  0  0  0
   26.0706  -22.1732   -9.7276 O   0  0  0  0  0  0  0  0  0  0  0  0
   21.5526  -20.0285  -13.5708 N   0  0  0  0  0  0  0  0  0  0  0  0
   21.6108  -20.9616  -12.4967 C   0  0  0  0  0  0  0  0  0  0  0  0
   20.5482  -21.4803  -12.0730 O   0  0  0  0  0  0  0  0  0  0  0  0
   22.9135  -21.3176  -11.8840 C   0  0  0  0  0  0  0  0  0  0  0  0
   23.9926  -20.5575  -12.5641 C   0  0  0  0  0  0  0  0  0  0  0  0
   25.3763  -20.8706  -12.0650 C   0  0  2  0  0  0  0  0  0  0  0  0
   25.6680  -20.2064  -10.8087 N   0  0  0  0  0  0  0  0  0  0  0  0
   26.4252  -20.6021  -13.0636 C   0  0  0  0  0  0  0  0  0  0  0  0
   26.6230  -21.3706  -14.0211 O   0  0  0  0  0  0  0  0  0  0  0  0
   27.2199  -19.4456  -12.9252 N   0  0  0  0  0  0  0  0  0  0  0  0
   28.3033  -19.1702  -13.8451 C   0  0  0  0  0  0  0  0  0  0  0  0
   27.8219  -18.5254  -15.0875 C   0  0  0  0  0  0  0  0  0  0  0  0
   26.5944  -18.3255  -15.2347 O   0  0  0  0  0  0  0  0  0  0  0  0
   28.6795  -18.1336  -16.0965 O   0  0  0  0  0  0  0  0  0  0  0  0
  2  1  1  6
  2  3  1  0
  4  2  1  0
  5  4  1  0
  5  7  1  0
  5  6  1  1
  7  8  2  0
  9 10  1  0
 10 11  2  0
 12 10  1  0
 12 13  1  0
 14 13  1  6
 15  7  1  0
 15 14  1  0
 16 14  1  0
 16 17  2  0
 18 16  1  0
 19 18  1  0
 19 20  1  0
 20 22  1  0
 21 20  2  0
M  END
$$$$
