LQG.pdb
     RDKit          3D

 22 21  0  0  1  0  0  0  0  0999 V2000
   16.5178  -12.6445  -15.9647 C   0  0  0  0  0  0  0  0  0  0  0  0
   17.8518  -13.2264  -15.5632 C   0  0  2  0  0  0  0  0  0  0  0  0
   17.7304  -13.8154  -14.2009 C   0  0  0  0  0  0  0  0  0  0  0  0
   18.9089  -12.1768  -15.6840 C   0  0  0  0  0  0  0  0  0  0  0  0
   19.1146  -11.6302  -17.0527 C   0  0  2  0  0  0  0  0  0  0  0  0
   19.7632  -12.5077  -17.9756 N   0  0  0  0  0  0  0  0  0  0  0  0
   19.9544  -10.3963  -16.9139 C   0  0  0  0  0  0  0  0  0  0  0  0
   21.2298  -10.4842  -16.9060 O   0  0  0  0  0  0  0  0  0  0  0  0
   17.8673   -5.6959  -20.5355 N   0  0  0  0  0  0  0  0  0  0  0  0
   17.9850   -6.1678  -19.1971 C   0  0  0  0  0  0  0  0  0  0  0  0
   17.1868   -5.7472  -18.3232 O   0  0  0  0  0  0  0  0  0  0  0  0
   19.0398   -7.1464  -18.8383 C   0  0  0  0  0  0  0  0  0  0  0  0
   19.6318   -6.7633  -17.5316 C   0  0  0  0  0  0  0  0  0  0  0  0
   20.2645   -7.9039  -16.7830 C   0  0  2  0  0  0  0  0  0  0  0  0
   19.4295   -9.0902  -16.7859 N   0  0  0  0  0  0  0  0  0  0  0  0
   20.6688   -7.5426  -15.4135 C   0  0  0  0  0  0  0  0  0  0  0  0
   19.9127   -7.7247  -14.4432 O   0  0  0  0  0  0  0  0  0  0  0  0
   21.9437   -6.9776  -15.2044 N   0  0  0  0  0  0  0  0  0  0  0  0
   22.4587   -6.7722  -13.8672 C   0  0  0  0  0  0  0  0  0  0  0  0
   22.2629   -5.3786  -13.4083 C   0  0  0  0  0  0  0  0  0  0  0  0
   21.5706   -4.5996  -14.1026 O   0  0  0  0  0  0  0  0  0  0  0  0
   22.8177   -4.9018  -12.2370 O   0  0  0  0  0  0  0  0  0  0  0  0
  2  1  1  1
  2  3  1  0
  4  2  1  0
  5  4  1  0
  5  7  1  0
  5  6  1  6
  7  8  2  0
  9 10  1  0
 10 11  2  0
 12 10  1  0
 12 13  1  0
 14 13  1  1
 15  7  1  0
 15 14  1  0
 16 14  1  0
 16 17  2  0
 18 16  1  0
 19 18  1  0
 19 20  1  0
 20 22  1  0
 21 20  2  0
M  END
$$$$
