ETD.pdb
     RDKit          3D

 25 24  0  0  1  0  0  0  0  0999 V2000
   17.6960  -14.1638  -15.6375 N   0  0  0  0  0  0  0  0  0  0  0  0
   18.2976  -13.2184  -16.5330 C   0  0  1  0  0  0  0  0  0  0  0  0
   17.2615  -12.3527  -17.1577 C   0  0  0  0  0  0  0  0  0  0  0  0
   16.5008  -11.4644  -16.2386 C   0  0  0  0  0  0  0  0  0  0  0  0
   15.5595  -10.5353  -16.8884 C   0  0  0  0  0  0  0  0  0  0  0  0
   14.9090   -9.7348  -16.1775 O   0  0  0  0  0  0  0  0  0  0  0  0
   19.3512  -12.4488  -15.8256 C   0  0  0  0  0  0  0  0  0  0  0  0
   19.3343  -12.3047  -14.5682 O   0  0  0  0  0  0  0  0  0  0  0  0
   15.3570  -10.5035  -18.2570 O   0  0  0  0  0  0  0  0  0  0  0  0
   23.8687  -10.7213  -15.5120 C   0  0  0  0  0  0  0  0  0  0  0  0
   22.8538  -11.5280  -16.2793 C   0  0  1  0  0  0  0  0  0  0  0  0
   23.0416  -12.8927  -16.1733 O   0  0  0  0  0  0  0  0  0  0  0  0
   21.4724  -11.0830  -15.8667 C   0  0  2  0  0  0  0  0  0  0  0  0
   20.4274  -11.8373  -16.5181 N   0  0  0  0  0  0  0  0  0  0  0  0
   21.2776   -9.6288  -15.9603 C   0  0  0  0  0  0  0  0  0  0  0  0
   20.8766   -9.1149  -17.0170 O   0  0  0  0  0  0  0  0  0  0  0  0
   21.5488   -8.8185  -14.8425 N   0  0  0  0  0  0  0  0  0  0  0  0
   21.4446   -7.3677  -14.8698 C   0  0  1  0  0  0  0  0  0  0  0  0
   21.7344   -6.7460  -13.5438 C   0  0  0  0  0  0  0  0  0  0  0  0
   21.6990   -5.2822  -13.5357 C   0  0  0  0  0  0  0  0  0  0  0  0
   20.5663   -4.7386  -13.7307 O   0  0  0  0  0  0  0  0  0  0  0  0
   22.2800   -6.8075  -15.9403 C   0  0  0  0  0  0  0  0  0  0  0  0
   23.5757   -7.1652  -16.1962 O   0  0  0  0  0  0  0  0  0  0  0  0
   22.7637   -4.4415  -13.3393 O   0  0  0  0  0  0  0  0  0  0  0  0
   21.7771   -5.9154  -16.7033 O   0  0  0  0  0  0  0  0  0  0  0  0
  2  7  1  0
  2  1  1  1
  3  2  1  0
  4  5  1  0
  4  3  1  0
  5  9  1  0
  6  5  2  0
  7  8  2  0
 11 10  1  1
 12 11  1  0
 13 11  1  0
 14  7  1  0
 13 14  1  6
 15 13  1  0
 15 17  1  0
 16 15  2  0
 18 17  1  0
 18 19  1  1
 20 19  1  0
 20 21  2  0
 22 23  1  0
 22 18  1  0
 24 20  1  0
 25 22  2  0
M  END
$$$$
