ETD.pdb
     RDKit          3D

 25 24  0  0  1  0  0  0  0  0999 V2000
   12.6817  -10.1283   -9.5975 N   0  0  0  0  0  0  0  0  0  0  0  0
   14.0942  -10.2692   -9.8043 C   0  0  1  0  0  0  0  0  0  0  0  0
   14.3814  -11.4109  -10.7138 C   0  0  0  0  0  0  0  0  0  0  0  0
   13.9759  -12.7582  -10.2313 C   0  0  0  0  0  0  0  0  0  0  0  0
   14.1952  -13.8646  -11.1796 C   0  0  0  0  0  0  0  0  0  0  0  0
   14.8538  -13.6479  -12.2229 O   0  0  0  0  0  0  0  0  0  0  0  0
   14.6679   -8.9859  -10.2805 C   0  0  0  0  0  0  0  0  0  0  0  0
   14.0121   -8.2056  -11.0311 O   0  0  0  0  0  0  0  0  0  0  0  0
   13.7052  -15.1422  -10.9724 O   0  0  0  0  0  0  0  0  0  0  0  0
   15.2372   -5.8968   -8.9909 C   0  0  0  0  0  0  0  0  0  0  0  0
   16.6463   -6.2686   -9.3726 C   0  0  1  0  0  0  0  0  0  0  0  0
   17.4437   -6.5872   -8.2901 O   0  0  0  0  0  0  0  0  0  0  0  0
   16.5921   -7.3592  -10.4139 C   0  0  2  0  0  0  0  0  0  0  0  0
   15.9749   -8.5683   -9.9213 N   0  0  0  0  0  0  0  0  0  0  0  0
   17.8843   -7.5989  -11.0728 C   0  0  0  0  0  0  0  0  0  0  0  0
   18.6150   -8.5322  -10.7034 O   0  0  0  0  0  0  0  0  0  0  0  0
   18.2912   -6.7624  -12.1285 N   0  0  0  0  0  0  0  0  0  0  0  0
   19.5445   -6.9411  -12.8450 C   0  0  1  0  0  0  0  0  0  0  0  0
   19.5575   -8.1787  -13.6798 C   0  0  0  0  0  0  0  0  0  0  0  0
   20.7772   -8.3707  -14.4668 C   0  0  0  0  0  0  0  0  0  0  0  0
   21.8536   -7.9102  -13.9710 O   0  0  0  0  0  0  0  0  0  0  0  0
   19.8715   -5.7408  -13.6262 C   0  0  0  0  0  0  0  0  0  0  0  0
   19.0276   -4.6842  -13.8357 O   0  0  0  0  0  0  0  0  0  0  0  0
   20.8736   -8.9963  -15.6827 O   0  0  0  0  0  0  0  0  0  0  0  0
   21.0284   -5.6565  -14.1601 O   0  0  0  0  0  0  0  0  0  0  0  0
  2  7  1  0
  2  1  1  6
  3  2  1  0
  4  5  1  0
  4  3  1  0
  5  9  1  0
  6  5  2  0
  7  8  2  0
 11 10  1  1
 12 11  1  0
 13 11  1  0
 14  7  1  0
 13 14  1  1
 15 13  1  0
 15 17  1  0
 16 15  2  0
 18 17  1  0
 18 19  1  6
 20 19  1  0
 20 21  2  0
 22 23  1  0
 22 18  1  0
 24 20  1  0
 25 22  2  0
M  END
$$$$
