ETD.pdb
     RDKit          3D

 25 24  0  0  1  0  0  0  0  0999 V2000
   12.1186   -9.7848  -12.8653 N   0  0  0  0  0  0  0  0  0  0  0  0
   12.9973  -10.0046  -11.7529 C   0  0  1  0  0  0  0  0  0  0  0  0
   13.6182  -11.3542  -11.8317 C   0  0  0  0  0  0  0  0  0  0  0  0
   12.6928  -12.5143  -11.7293 C   0  0  0  0  0  0  0  0  0  0  0  0
   12.1228  -12.7554  -10.3920 C   0  0  0  0  0  0  0  0  0  0  0  0
   12.8865  -13.0965   -9.4594 O   0  0  0  0  0  0  0  0  0  0  0  0
   13.9941   -8.9082  -11.6693 C   0  0  0  0  0  0  0  0  0  0  0  0
   14.1986   -8.1238  -12.6414 O   0  0  0  0  0  0  0  0  0  0  0  0
   10.7738  -12.6225  -10.1134 O   0  0  0  0  0  0  0  0  0  0  0  0
   16.5836   -5.8551   -8.8264 C   0  0  0  0  0  0  0  0  0  0  0  0
   15.6605   -7.0432   -8.9036 C   0  0  1  0  0  0  0  0  0  0  0  0
   14.4004   -6.7950   -8.3938 O   0  0  0  0  0  0  0  0  0  0  0  0
   15.6391   -7.5457  -10.3261 C   0  0  2  0  0  0  0  0  0  0  0  0
   14.7664   -8.6829  -10.5012 N   0  0  0  0  0  0  0  0  0  0  0  0
   16.9809   -7.7569  -10.8885 C   0  0  0  0  0  0  0  0  0  0  0  0
   17.6282   -8.7776  -10.6045 O   0  0  0  0  0  0  0  0  0  0  0  0
   17.5308   -6.7932  -11.7537 N   0  0  0  0  0  0  0  0  0  0  0  0
   18.7686   -7.0009  -12.4892 C   0  0  1  0  0  0  0  0  0  0  0  0
   18.7754   -8.2846  -13.2514 C   0  0  0  0  0  0  0  0  0  0  0  0
   19.9547   -8.4865  -14.0954 C   0  0  0  0  0  0  0  0  0  0  0  0
   21.0799   -8.1913  -13.5822 O   0  0  0  0  0  0  0  0  0  0  0  0
   19.0634   -5.8447  -13.3461 C   0  0  0  0  0  0  0  0  0  0  0  0
   20.2947   -5.5386  -13.8584 O   0  0  0  0  0  0  0  0  0  0  0  0
   19.9661   -8.9613  -15.3813 O   0  0  0  0  0  0  0  0  0  0  0  0
   18.1103   -5.0505  -13.6486 O   0  0  0  0  0  0  0  0  0  0  0  0
  2  7  1  0
  2  1  1  6
  3  2  1  0
  4  5  1  0
  4  3  1  0
  5  9  1  0
  6  5  2  0
  7  8  2  0
 11 10  1  6
 12 11  1  0
 13 11  1  0
 14  7  1  0
 13 14  1  1
 15 13  1  0
 15 17  1  0
 16 15  2  0
 18 17  1  0
 18 19  1  6
 20 19  1  0
 20 21  2  0
 22 23  1  0
 22 18  1  0
 24 20  1  0
 25 22  2  0
M  END
$$$$
