ETD.pdb
     RDKit          3D

 25 24  0  0  1  0  0  0  0  0999 V2000
   19.7848  -13.2082  -16.4628 N   0  0  0  0  0  0  0  0  0  0  0  0
   19.0837  -12.0089  -16.1054 C   0  0  1  0  0  0  0  0  0  0  0  0
   17.8044  -12.3323  -15.4183 C   0  0  0  0  0  0  0  0  0  0  0  0
   16.8024  -13.0935  -16.2115 C   0  0  0  0  0  0  0  0  0  0  0  0
   15.5760  -13.4732  -15.4882 C   0  0  0  0  0  0  0  0  0  0  0  0
   15.3063  -14.6883  -15.3473 O   0  0  0  0  0  0  0  0  0  0  0  0
   19.9670  -11.1235  -15.3063 C   0  0  0  0  0  0  0  0  0  0  0  0
   20.6173  -11.5600  -14.3120 O   0  0  0  0  0  0  0  0  0  0  0  0
   14.7000  -12.5453  -14.9524 O   0  0  0  0  0  0  0  0  0  0  0  0
   23.0033   -9.5606  -16.0664 C   0  0  0  0  0  0  0  0  0  0  0  0
   22.1634   -8.3720  -15.6777 C   0  0  1  0  0  0  0  0  0  0  0  0
   21.7985   -7.5815  -16.7507 O   0  0  0  0  0  0  0  0  0  0  0  0
   20.9863   -8.8573  -14.8681 C   0  0  2  0  0  0  0  0  0  0  0  0
   20.1281   -9.7482  -15.6133 N   0  0  0  0  0  0  0  0  0  0  0  0
   20.2514   -7.7720  -14.2022 C   0  0  0  0  0  0  0  0  0  0  0  0
   19.2035   -7.3263  -14.6969 O   0  0  0  0  0  0  0  0  0  0  0  0
   20.7427   -7.2383  -12.9966 N   0  0  0  0  0  0  0  0  0  0  0  0
   20.1291   -6.1050  -12.3218 C   0  0  1  0  0  0  0  0  0  0  0  0
   19.7027   -6.4284  -10.9281 C   0  0  0  0  0  0  0  0  0  0  0  0
   19.1058   -5.3086  -10.1976 C   0  0  0  0  0  0  0  0  0  0  0  0
   18.5616   -4.3973  -10.8974 O   0  0  0  0  0  0  0  0  0  0  0  0
   21.0098   -4.9305  -12.3747 C   0  0  0  0  0  0  0  0  0  0  0  0
   20.5876   -3.6291  -12.3594 O   0  0  0  0  0  0  0  0  0  0  0  0
   19.0756   -5.1456   -8.8369 O   0  0  0  0  0  0  0  0  0  0  0  0
   22.2715   -5.1162  -12.4404 O   0  0  0  0  0  0  0  0  0  0  0  0
  2  7  1  0
  2  1  1  1
  3  2  1  0
  4  5  1  0
  4  3  1  0
  5  9  1  0
  6  5  2  0
  7  8  2  0
 11 10  1  6
 12 11  1  0
 13 11  1  0
 14  7  1  0
 13 14  1  6
 15 13  1  0
 15 17  1  0
 16 15  2  0
 18 17  1  0
 18 19  1  1
 20 19  1  0
 20 21  2  0
 22 23  1  0
 22 18  1  0
 24 20  1  0
 25 22  2  0
M  END
$$$$
