ETD.pdb
     RDKit          3D

 25 24  0  0  1  0  0  0  0  0999 V2000
   17.2843  -13.4296  -17.2221 N   0  0  0  0  0  0  0  0  0  0  0  0
   17.1645  -12.0714  -16.7765 C   0  0  1  0  0  0  0  0  0  0  0  0
   16.7213  -12.0206  -15.3572 C   0  0  0  0  0  0  0  0  0  0  0  0
   15.4037  -12.6407  -15.0538 C   0  0  0  0  0  0  0  0  0  0  0  0
   15.4583  -13.9406  -14.3619 C   0  0  0  0  0  0  0  0  0  0  0  0
   16.4824  -14.2348  -13.7031 O   0  0  0  0  0  0  0  0  0  0  0  0
   18.4359  -11.3444  -17.0166 C   0  0  0  0  0  0  0  0  0  0  0  0
   19.4164  -11.8985  -17.5941 O   0  0  0  0  0  0  0  0  0  0  0  0
   14.4250  -14.8602  -14.4045 O   0  0  0  0  0  0  0  0  0  0  0  0
   21.2006   -8.3025  -18.7489 C   0  0  0  0  0  0  0  0  0  0  0  0
   20.0285   -9.2050  -18.4640 C   0  0  1  0  0  0  0  0  0  0  0  0
   20.1714  -10.4750  -18.9893 O   0  0  0  0  0  0  0  0  0  0  0  0
   19.7668   -9.2011  -16.9780 C   0  0  2  0  0  0  0  0  0  0  0  0
   18.6181   -9.9968  -16.6135 N   0  0  0  0  0  0  0  0  0  0  0  0
   19.7414   -7.8515  -16.3955 C   0  0  0  0  0  0  0  0  0  0  0  0
   18.7468   -7.1227  -16.5404 O   0  0  0  0  0  0  0  0  0  0  0  0
   20.8540   -7.3873  -15.6699 N   0  0  0  0  0  0  0  0  0  0  0  0
   20.8910   -6.0865  -15.0197 C   0  0  1  0  0  0  0  0  0  0  0  0
   22.0254   -5.9573  -14.0578 C   0  0  0  0  0  0  0  0  0  0  0  0
   22.0523   -4.6973  -13.3123 C   0  0  0  0  0  0  0  0  0  0  0  0
   21.1261   -3.8644  -13.5675 O   0  0  0  0  0  0  0  0  0  0  0  0
   20.8825   -5.0076  -16.0166 C   0  0  0  0  0  0  0  0  0  0  0  0
   19.9432   -4.0157  -16.0945 O   0  0  0  0  0  0  0  0  0  0  0  0
   22.9751   -4.3273  -12.3686 O   0  0  0  0  0  0  0  0  0  0  0  0
   21.8155   -4.9742  -16.8878 O   0  0  0  0  0  0  0  0  0  0  0  0
  2  7  1  0
  2  1  1  1
  3  2  1  0
  4  5  1  0
  4  3  1  0
  5  9  1  0
  6  5  2  0
  7  8  2  0
 11 10  1  1
 12 11  1  0
 13 11  1  0
 14  7  1  0
 13 14  1  6
 15 13  1  0
 15 17  1  0
 16 15  2  0
 18 17  1  0
 18 19  1  6
 20 19  1  0
 20 21  2  0
 22 23  1  0
 22 18  1  0
 24 20  1  0
 25 22  2  0
M  END
$$$$
