ETD.pdb
     RDKit          3D

 25 24  0  0  1  0  0  0  0  0999 V2000
   17.5261  -16.0537  -18.0183 N   0  0  0  0  0  0  0  0  0  0  0  0
   16.7142  -14.9878  -17.5059 C   0  0  1  0  0  0  0  0  0  0  0  0
   16.2681  -15.2866  -16.1185 C   0  0  0  0  0  0  0  0  0  0  0  0
   17.0070  -16.3619  -15.4040 C   0  0  0  0  0  0  0  0  0  0  0  0
   16.5521  -16.6397  -14.0302 C   0  0  0  0  0  0  0  0  0  0  0  0
   17.3168  -16.3777  -13.0732 O   0  0  0  0  0  0  0  0  0  0  0  0
   17.4390  -13.6977  -17.6202 C   0  0  0  0  0  0  0  0  0  0  0  0
   18.6742  -13.6542  -17.8935 O   0  0  0  0  0  0  0  0  0  0  0  0
   15.3110  -17.1804  -13.7429 O   0  0  0  0  0  0  0  0  0  0  0  0
   16.0667  -11.0156  -19.8121 C   0  0  0  0  0  0  0  0  0  0  0  0
   16.4656  -10.2899  -18.5536 C   0  0  1  0  0  0  0  0  0  0  0  0
   15.3896   -9.8243  -17.8224 O   0  0  0  0  0  0  0  0  0  0  0  0
   17.3879  -11.1787  -17.7561 C   0  0  2  0  0  0  0  0  0  0  0  0
   16.7889  -12.4516  -17.4299 N   0  0  0  0  0  0  0  0  0  0  0  0
   17.9810  -10.5055  -16.5915 C   0  0  0  0  0  0  0  0  0  0  0  0
   17.6574  -10.8388  -15.4402 O   0  0  0  0  0  0  0  0  0  0  0  0
   18.9212   -9.4773  -16.7882 N   0  0  0  0  0  0  0  0  0  0  0  0
   19.5492   -8.7556  -15.6923 C   0  0  1  0  0  0  0  0  0  0  0  0
   20.8787   -8.1883  -16.0653 C   0  0  0  0  0  0  0  0  0  0  0  0
   21.4931   -7.3468  -15.0364 C   0  0  0  0  0  0  0  0  0  0  0  0
   22.2258   -7.9364  -14.1809 O   0  0  0  0  0  0  0  0  0  0  0  0
   18.6403   -7.7340  -15.1554 C   0  0  0  0  0  0  0  0  0  0  0  0
   18.5621   -7.3630  -13.8406 O   0  0  0  0  0  0  0  0  0  0  0  0
   21.3569   -5.9892  -14.9044 O   0  0  0  0  0  0  0  0  0  0  0  0
   17.8531   -7.1330  -15.9615 O   0  0  0  0  0  0  0  0  0  0  0  0
  2  7  1  0
  2  1  1  1
  3  2  1  0
  4  5  1  0
  4  3  1  0
  5  9  1  0
  6  5  2  0
  7  8  2  0
 11 10  1  6
 12 11  1  0
 13 11  1  0
 14  7  1  0
 13 14  1  1
 15 13  1  0
 15 17  1  0
 16 15  2  0
 18 17  1  0
 18 19  1  6
 20 19  1  0
 20 21  2  0
 22 23  1  0
 22 18  1  0
 24 20  1  0
 25 22  2  0
M  END
$$$$
