ETD.pdb
     RDKit          3D

 25 24  0  0  1  0  0  0  0  0999 V2000
   13.0923   -9.3014   -9.7876 N   0  0  0  0  0  0  0  0  0  0  0  0
   14.5033   -9.5212   -9.9234 C   0  0  1  0  0  0  0  0  0  0  0  0
   14.7720  -10.6688  -10.8312 C   0  0  0  0  0  0  0  0  0  0  0  0
   14.2723  -11.9964  -10.3835 C   0  0  0  0  0  0  0  0  0  0  0  0
   14.6930  -13.1436  -11.2071 C   0  0  0  0  0  0  0  0  0  0  0  0
   14.3366  -14.2961  -10.8694 O   0  0  0  0  0  0  0  0  0  0  0  0
   15.1730   -8.2684  -10.3535 C   0  0  0  0  0  0  0  0  0  0  0  0
   14.6033   -7.4455  -11.1282 O   0  0  0  0  0  0  0  0  0  0  0  0
   15.4691  -13.0092  -12.3450 O   0  0  0  0  0  0  0  0  0  0  0  0
   15.8726   -5.2040   -8.9560 C   0  0  0  0  0  0  0  0  0  0  0  0
   17.2639   -5.6956   -9.2596 C   0  0  1  0  0  0  0  0  0  0  0  0
   17.9516   -6.1262   -8.1412 O   0  0  0  0  0  0  0  0  0  0  0  0
   17.1802   -6.7395  -10.3458 C   0  0  2  0  0  0  0  0  0  0  0  0
   16.4806   -7.9292   -9.9211 N   0  0  0  0  0  0  0  0  0  0  0  0
   18.4765   -7.0274  -10.9768 C   0  0  0  0  0  0  0  0  0  0  0  0
   19.1427   -8.0136  -10.6233 O   0  0  0  0  0  0  0  0  0  0  0  0
   18.9609   -6.1768  -11.9875 N   0  0  0  0  0  0  0  0  0  0  0  0
   20.2405   -6.3789  -12.6493 C   0  0  1  0  0  0  0  0  0  0  0  0
   20.1282   -7.2334  -13.8682 C   0  0  0  0  0  0  0  0  0  0  0  0
   21.3651   -7.3580  -14.6419 C   0  0  0  0  0  0  0  0  0  0  0  0
   22.4262   -7.6001  -13.9846 O   0  0  0  0  0  0  0  0  0  0  0  0
   20.8880   -5.0909  -12.9317 C   0  0  0  0  0  0  0  0  0  0  0  0
   22.2223   -4.9188  -13.1812 O   0  0  0  0  0  0  0  0  0  0  0  0
   21.4924   -7.2398  -16.0016 O   0  0  0  0  0  0  0  0  0  0  0  0
   20.1674   -4.0368  -12.9506 O   0  0  0  0  0  0  0  0  0  0  0  0
  2  7  1  0
  2  1  1  6
  3  2  1  0
  4  5  1  0
  4  3  1  0
  5  9  1  0
  6  5  2  0
  7  8  2  0
 11 10  1  1
 12 11  1  0
 13 11  1  0
 14  7  1  0
 13 14  1  1
 15 13  1  0
 15 17  1  0
 16 15  2  0
 18 17  1  0
 18 19  1  6
 20 19  1  0
 20 21  2  0
 22 23  1  0
 22 18  1  0
 24 20  1  0
 25 22  2  0
M  END
$$$$
