ETD.pdb
     RDKit          3D

 25 24  0  0  1  0  0  0  0  0999 V2000
   20.8807  -12.6595  -18.1030 N   0  0  0  0  0  0  0  0  0  0  0  0
   21.1548  -11.2758  -18.3637 C   0  0  1  0  0  0  0  0  0  0  0  0
   20.4729  -10.8300  -19.6085 C   0  0  0  0  0  0  0  0  0  0  0  0
   20.8447  -11.5459  -20.8583 C   0  0  0  0  0  0  0  0  0  0  0  0
   20.1822  -11.0678  -22.0847 C   0  0  0  0  0  0  0  0  0  0  0  0
   19.2428  -11.7407  -22.5686 O   0  0  0  0  0  0  0  0  0  0  0  0
   20.7994  -10.4560  -17.1787 C   0  0  0  0  0  0  0  0  0  0  0  0
   19.8469  -10.7803  -16.4108 O   0  0  0  0  0  0  0  0  0  0  0  0
   20.5499   -9.9022  -22.7337 O   0  0  0  0  0  0  0  0  0  0  0  0
   23.2143   -9.5292  -14.6012 C   0  0  0  0  0  0  0  0  0  0  0  0
   21.7621   -9.1809  -14.4034 C   0  0  1  0  0  0  0  0  0  0  0  0
   21.5218   -8.4572  -13.2512 O   0  0  0  0  0  0  0  0  0  0  0  0
   21.2551   -8.5003  -15.6510 C   0  0  2  0  0  0  0  0  0  0  0  0
   21.5052   -9.2715  -16.8460 N   0  0  0  0  0  0  0  0  0  0  0  0
   21.6892   -7.1005  -15.7670 C   0  0  0  0  0  0  0  0  0  0  0  0
   22.7686   -6.8200  -16.3127 O   0  0  0  0  0  0  0  0  0  0  0  0
   20.8726   -6.0755  -15.2548 N   0  0  0  0  0  0  0  0  0  0  0  0
   21.2048   -4.6639  -15.3695 C   0  0  1  0  0  0  0  0  0  0  0  0
   20.0092   -3.8129  -15.6436 C   0  0  0  0  0  0  0  0  0  0  0  0
   20.2997   -2.3868  -15.8050 C   0  0  0  0  0  0  0  0  0  0  0  0
   21.2973   -2.0877  -16.5343 O   0  0  0  0  0  0  0  0  0  0  0  0
   21.9517   -4.2088  -14.1893 C   0  0  0  0  0  0  0  0  0  0  0  0
   22.7285   -3.0837  -14.1352 O   0  0  0  0  0  0  0  0  0  0  0  0
   19.6044   -1.3446  -15.2491 O   0  0  0  0  0  0  0  0  0  0  0  0
   21.8845   -4.9030  -13.1196 O   0  0  0  0  0  0  0  0  0  0  0  0
  2  7  1  0
  2  1  1  1
  3  2  1  0
  4  5  1  0
  4  3  1  0
  5  9  1  0
  6  5  2  0
  7  8  2  0
 11 10  1  6
 12 11  1  0
 13 11  1  0
 14  7  1  0
 13 14  1  6
 15 13  1  0
 15 17  1  0
 16 15  2  0
 18 17  1  0
 18 19  1  1
 20 19  1  0
 20 21  2  0
 22 23  1  0
 22 18  1  0
 24 20  1  0
 25 22  2  0
M  END
$$$$
