ETD.pdb
     RDKit          3D

 25 24  0  0  1  0  0  0  0  0999 V2000
   27.4497  -22.5231  -17.0709 N   0  0  0  0  0  0  0  0  0  0  0  0
   27.2833  -21.1656  -16.6383 C   0  0  1  0  0  0  0  0  0  0  0  0
   28.2914  -20.2810  -17.2822 C   0  0  0  0  0  0  0  0  0  0  0  0
   29.3175  -20.9522  -18.1243 C   0  0  0  0  0  0  0  0  0  0  0  0
   30.2299  -20.0519  -18.8513 C   0  0  0  0  0  0  0  0  0  0  0  0
   31.1453  -20.5486  -19.5474 O   0  0  0  0  0  0  0  0  0  0  0  0
   25.8858  -20.7253  -16.8744 C   0  0  0  0  0  0  0  0  0  0  0  0
   25.5789  -19.9985  -17.8642 O   0  0  0  0  0  0  0  0  0  0  0  0
   30.1243  -18.6729  -18.8022 O   0  0  0  0  0  0  0  0  0  0  0  0
   21.4618  -21.1350  -17.6455 C   0  0  0  0  0  0  0  0  0  0  0  0
   22.9654  -21.2202  -17.6085 C   0  0  1  0  0  0  0  0  0  0  0  0
   23.5800  -20.5569  -18.6532 O   0  0  0  0  0  0  0  0  0  0  0  0
   23.4411  -20.7639  -16.2512 C   0  0  2  0  0  0  0  0  0  0  0  0
   24.8256  -21.0940  -16.0073 N   0  0  0  0  0  0  0  0  0  0  0  0
   22.5497  -21.1713  -15.1554 C   0  0  0  0  0  0  0  0  0  0  0  0
   22.4832  -22.3615  -14.8084 O   0  0  0  0  0  0  0  0  0  0  0  0
   21.7689  -20.2024  -14.4988 N   0  0  0  0  0  0  0  0  0  0  0  0
   20.9371  -20.5028  -13.3438 C   0  0  1  0  0  0  0  0  0  0  0  0
   21.1193  -19.5212  -12.2338 C   0  0  0  0  0  0  0  0  0  0  0  0
   20.3089  -19.7887  -11.0440 C   0  0  0  0  0  0  0  0  0  0  0  0
   19.6405  -20.8703  -11.0412 O   0  0  0  0  0  0  0  0  0  0  0  0
   19.5289  -20.6385  -13.7395 C   0  0  0  0  0  0  0  0  0  0  0  0
   18.6224  -21.4752  -13.1476 O   0  0  0  0  0  0  0  0  0  0  0  0
   20.1994  -18.9903   -9.9351 O   0  0  0  0  0  0  0  0  0  0  0  0
   19.0965  -19.9294  -14.7095 O   0  0  0  0  0  0  0  0  0  0  0  0
  2  7  1  0
  2  1  1  6
  3  2  1  0
  4  5  1  0
  4  3  1  0
  5  9  1  0
  6  5  2  0
  7  8  2  0
 11 10  1  1
 12 11  1  0
 13 11  1  0
 14  7  1  0
 13 14  1  1
 15 13  1  0
 15 17  1  0
 16 15  2  0
 18 17  1  0
 18 19  1  1
 20 19  1  0
 20 21  2  0
 22 23  1  0
 22 18  1  0
 24 20  1  0
 25 22  2  0
M  END
$$$$
