ETD.pdb
     RDKit          3D

 25 24  0  0  1  0  0  0  0  0999 V2000
   24.8594  -20.6270  -15.6388 N   0  0  0  0  0  0  0  0  0  0  0  0
   24.6916  -19.3145  -15.0849 C   0  0  1  0  0  0  0  0  0  0  0  0
   25.5664  -18.3335  -15.7818 C   0  0  0  0  0  0  0  0  0  0  0  0
   26.3932  -18.8628  -16.8993 C   0  0  0  0  0  0  0  0  0  0  0  0
   27.1347  -17.8522  -17.6742 C   0  0  0  0  0  0  0  0  0  0  0  0
   27.8346  -18.2246  -18.6441 O   0  0  0  0  0  0  0  0  0  0  0  0
   23.2571  -18.9343  -15.1060 C   0  0  0  0  0  0  0  0  0  0  0  0
   22.8587  -17.8857  -15.6922 O   0  0  0  0  0  0  0  0  0  0  0  0
   27.0956  -16.5004  -17.3804 O   0  0  0  0  0  0  0  0  0  0  0  0
   21.2338  -18.1504  -16.6500 C   0  0  0  0  0  0  0  0  0  0  0  0
   20.4664  -19.3263  -16.1042 C   0  0  1  0  0  0  0  0  0  0  0  0
   20.6061  -20.4738  -16.8611 O   0  0  0  0  0  0  0  0  0  0  0  0
   20.8440  -19.5184  -14.6560 C   0  0  2  0  0  0  0  0  0  0  0  0
   22.2619  -19.7224  -14.4734 N   0  0  0  0  0  0  0  0  0  0  0  0
   20.0234  -20.5270  -13.9700 C   0  0  0  0  0  0  0  0  0  0  0  0
   20.5283  -21.5955  -13.5894 O   0  0  0  0  0  0  0  0  0  0  0  0
   18.6574  -20.2750  -13.7454 N   0  0  0  0  0  0  0  0  0  0  0  0
   17.7938  -21.1830  -13.0066 C   0  0  1  0  0  0  0  0  0  0  0  0
   16.4834  -20.5646  -12.6473 C   0  0  0  0  0  0  0  0  0  0  0  0
   15.5522  -21.4633  -11.9624 C   0  0  0  0  0  0  0  0  0  0  0  0
   16.0665  -22.4118  -11.2898 O   0  0  0  0  0  0  0  0  0  0  0  0
   17.6297  -22.4493  -13.7329 C   0  0  0  0  0  0  0  0  0  0  0  0
   17.9012  -22.6356  -15.0610 O   0  0  0  0  0  0  0  0  0  0  0  0
   14.1838  -21.3838  -11.9744 O   0  0  0  0  0  0  0  0  0  0  0  0
   17.2014  -23.4684  -13.0937 O   0  0  0  0  0  0  0  0  0  0  0  0
  2  7  1  0
  2  1  1  6
  3  2  1  0
  4  5  1  0
  4  3  1  0
  5  9  1  0
  6  5  2  0
  7  8  2  0
 11 10  1  6
 12 11  1  0
 13 11  1  0
 14  7  1  0
 13 14  1  6
 15 13  1  0
 15 17  1  0
 16 15  2  0
 18 17  1  0
 18 19  1  6
 20 19  1  0
 20 21  2  0
 22 23  1  0
 22 18  1  0
 24 20  1  0
 25 22  2  0
M  END
$$$$
