ETD.pdb
     RDKit          3D

 25 24  0  0  1  0  0  0  0  0999 V2000
   15.9750  -20.9804    2.1466 N   0  0  0  0  0  0  0  0  0  0  0  0
   15.5221  -20.3254    3.3398 C   0  0  1  0  0  0  0  0  0  0  0  0
   14.7802  -21.2752    4.2120 C   0  0  0  0  0  0  0  0  0  0  0  0
   13.4983  -21.8035    3.6732 C   0  0  0  0  0  0  0  0  0  0  0  0
   12.7691  -22.7265    4.5608 C   0  0  0  0  0  0  0  0  0  0  0  0
   11.8265  -23.4037    4.0896 O   0  0  0  0  0  0  0  0  0  0  0  0
   16.6655  -19.6746    4.0267 C   0  0  0  0  0  0  0  0  0  0  0  0
   17.8632  -19.9712    3.7445 O   0  0  0  0  0  0  0  0  0  0  0  0
   13.0770  -22.8831    5.9009 O   0  0  0  0  0  0  0  0  0  0  0  0
   16.0653  -16.3210    6.6651 C   0  0  0  0  0  0  0  0  0  0  0  0
   17.2963  -16.5114    5.8178 C   0  0  1  0  0  0  0  0  0  0  0  0
   18.3915  -15.8014    6.2711 O   0  0  0  0  0  0  0  0  0  0  0  0
   17.5614  -17.9902    5.6779 C   0  0  2  0  0  0  0  0  0  0  0  0
   16.4771  -18.6908    5.0309 N   0  0  0  0  0  0  0  0  0  0  0  0
   17.9909  -18.6252    6.9323 C   0  0  0  0  0  0  0  0  0  0  0  0
   17.2342  -19.4043    7.5340 O   0  0  0  0  0  0  0  0  0  0  0  0
   19.2688  -18.3452    7.4504 N   0  0  0  0  0  0  0  0  0  0  0  0
   19.7257  -18.8326    8.7426 C   0  0  1  0  0  0  0  0  0  0  0  0
   20.0711  -20.2848    8.7194 C   0  0  0  0  0  0  0  0  0  0  0  0
   20.0858  -20.9294   10.0340 C   0  0  0  0  0  0  0  0  0  0  0  0
   19.4548  -20.3375   10.9657 O   0  0  0  0  0  0  0  0  0  0  0  0
   20.8308  -18.0070    9.2475 C   0  0  0  0  0  0  0  0  0  0  0  0
   21.3434  -18.0679   10.5148 O   0  0  0  0  0  0  0  0  0  0  0  0
   20.7109  -22.1051   10.3593 O   0  0  0  0  0  0  0  0  0  0  0  0
   21.3695  -17.1596    8.4585 O   0  0  0  0  0  0  0  0  0  0  0  0
  2  7  1  0
  2  1  1  6
  3  2  1  0
  4  5  1  0
  4  3  1  0
  5  9  1  0
  6  5  2  0
  7  8  2  0
 11 10  1  1
 12 11  1  0
 13 11  1  0
 14  7  1  0
 13 14  1  1
 15 13  1  0
 15 17  1  0
 16 15  2  0
 18 17  1  0
 18 19  1  6
 20 19  1  0
 20 21  2  0
 22 23  1  0
 22 18  1  0
 24 20  1  0
 25 22  2  0
M  END
$$$$
