ETD.pdb
     RDKit          3D

 25 24  0  0  1  0  0  0  0  0999 V2000
   23.5226   -5.4866  -18.4577 N   0  0  0  0  0  0  0  0  0  0  0  0
   24.0336   -6.0432  -17.2383 C   0  0  1  0  0  0  0  0  0  0  0  0
   23.2210   -5.5964  -16.0750 C   0  0  0  0  0  0  0  0  0  0  0  0
   23.2315   -4.1380  -15.7828 C   0  0  0  0  0  0  0  0  0  0  0  0
   22.4447   -3.7201  -14.6089 C   0  0  0  0  0  0  0  0  0  0  0  0
   21.6997   -2.7175  -14.7035 O   0  0  0  0  0  0  0  0  0  0  0  0
   24.1243   -7.5201  -17.3534 C   0  0  0  0  0  0  0  0  0  0  0  0
   23.5032   -8.1532  -18.2564 O   0  0  0  0  0  0  0  0  0  0  0  0
   22.4889   -4.3866  -13.3969 O   0  0  0  0  0  0  0  0  0  0  0  0
   26.1108  -11.8010  -15.8523 C   0  0  0  0  0  0  0  0  0  0  0  0
   26.1452  -10.2982  -15.7535 C   0  0  1  0  0  0  0  0  0  0  0  0
   27.3408   -9.7464  -16.1722 O   0  0  0  0  0  0  0  0  0  0  0  0
   24.9454   -9.7396  -16.4782 C   0  0  2  0  0  0  0  0  0  0  0  0
   24.9080   -8.2961  -16.4616 N   0  0  0  0  0  0  0  0  0  0  0  0
   23.6764  -10.3539  -16.0614 C   0  0  0  0  0  0  0  0  0  0  0  0
   23.0179   -9.8659  -15.1288 O   0  0  0  0  0  0  0  0  0  0  0  0
   23.2093  -11.5023  -16.7268 N   0  0  0  0  0  0  0  0  0  0  0  0
   21.9044  -12.0922  -16.4711 C   0  0  1  0  0  0  0  0  0  0  0  0
   20.7805  -11.1706  -16.8119 C   0  0  0  0  0  0  0  0  0  0  0  0
   19.4456  -11.7198  -16.5664 C   0  0  0  0  0  0  0  0  0  0  0  0
   19.3582  -12.9848  -16.4731 O   0  0  0  0  0  0  0  0  0  0  0  0
   21.7811  -13.3915  -17.1453 C   0  0  0  0  0  0  0  0  0  0  0  0
   21.2546  -14.5227  -16.5836 O   0  0  0  0  0  0  0  0  0  0  0  0
   18.2830  -11.0070  -16.4273 O   0  0  0  0  0  0  0  0  0  0  0  0
   22.1915  -13.4953  -18.3501 O   0  0  0  0  0  0  0  0  0  0  0  0
  2  7  1  0
  2  1  1  6
  3  2  1  0
  4  5  1  0
  4  3  1  0
  5  9  1  0
  6  5  2  0
  7  8  2  0
 11 10  1  6
 12 11  1  0
 13 11  1  0
 14  7  1  0
 13 14  1  1
 15 13  1  0
 15 17  1  0
 16 15  2  0
 18 17  1  0
 18 19  1  6
 20 19  1  0
 20 21  2  0
 22 23  1  0
 22 18  1  0
 24 20  1  0
 25 22  2  0
M  END
$$$$
