ETD.pdb
     RDKit          3D

 25 24  0  0  1  0  0  0  0  0999 V2000
   17.1582  -13.2242  -15.6166 N   0  0  0  0  0  0  0  0  0  0  0  0
   17.4821  -11.9664  -16.2256 C   0  0  1  0  0  0  0  0  0  0  0  0
   16.2712  -11.1098  -16.3396 C   0  0  0  0  0  0  0  0  0  0  0  0
   15.1316  -11.6758  -17.1100 C   0  0  0  0  0  0  0  0  0  0  0  0
   13.9640  -10.7893  -17.2597 C   0  0  0  0  0  0  0  0  0  0  0  0
   12.9364  -11.0195  -16.5812 O   0  0  0  0  0  0  0  0  0  0  0  0
   18.5901  -11.3140  -15.4842 C   0  0  0  0  0  0  0  0  0  0  0  0
   18.7633  -11.5095  -14.2457 O   0  0  0  0  0  0  0  0  0  0  0  0
   13.9468   -9.7058  -18.1204 O   0  0  0  0  0  0  0  0  0  0  0  0
   22.0254  -11.7622  -15.3383 C   0  0  0  0  0  0  0  0  0  0  0  0
   21.9439  -10.3332  -15.8083 C   0  0  1  0  0  0  0  0  0  0  0  0
   22.2456  -10.1764  -17.1476 O   0  0  0  0  0  0  0  0  0  0  0  0
   20.5916   -9.7786  -15.4335 C   0  0  2  0  0  0  0  0  0  0  0  0
   19.5086  -10.4412  -16.1215 N   0  0  0  0  0  0  0  0  0  0  0  0
   20.5195   -8.3128  -15.5218 C   0  0  0  0  0  0  0  0  0  0  0  0
   19.8702   -7.7688  -16.4295 O   0  0  0  0  0  0  0  0  0  0  0  0
   21.1922   -7.5259  -14.5690 N   0  0  0  0  0  0  0  0  0  0  0  0
   21.2954   -6.0780  -14.6655 C   0  0  1  0  0  0  0  0  0  0  0  0
   21.5745   -5.4330  -13.3484 C   0  0  0  0  0  0  0  0  0  0  0  0
   21.6783   -3.9731  -13.3941 C   0  0  0  0  0  0  0  0  0  0  0  0
   22.8506   -3.4835  -13.3448 O   0  0  0  0  0  0  0  0  0  0  0  0
   22.2755   -5.6948  -15.6904 C   0  0  0  0  0  0  0  0  0  0  0  0
   22.1347   -4.6494  -16.5620 O   0  0  0  0  0  0  0  0  0  0  0  0
   20.6391   -3.0838  -13.4846 O   0  0  0  0  0  0  0  0  0  0  0  0
   23.3498   -6.3773  -15.7930 O   0  0  0  0  0  0  0  0  0  0  0  0
  2  7  1  0
  2  1  1  1
  3  2  1  0
  4  5  1  0
  4  3  1  0
  5  9  1  0
  6  5  2  0
  7  8  2  0
 11 10  1  6
 12 11  1  0
 13 11  1  0
 14  7  1  0
 13 14  1  6
 15 13  1  0
 15 17  1  0
 16 15  2  0
 18 17  1  0
 18 19  1  1
 20 19  1  0
 20 21  2  0
 22 23  1  0
 22 18  1  0
 24 20  1  0
 25 22  2  0
M  END
$$$$
