ETD.pdb
     RDKit          3D

 25 24  0  0  1  0  0  0  0  0999 V2000
   17.1101  -10.4967  -14.5439 N   0  0  0  0  0  0  0  0  0  0  0  0
   18.3243  -10.0667  -15.1751 C   0  0  1  0  0  0  0  0  0  0  0  0
   18.1999  -10.1345  -16.6561 C   0  0  0  0  0  0  0  0  0  0  0  0
   17.9691  -11.4835  -17.2387 C   0  0  0  0  0  0  0  0  0  0  0  0
   17.8888  -11.5346  -18.7092 C   0  0  0  0  0  0  0  0  0  0  0  0
   18.9273  -11.7797  -19.3654 O   0  0  0  0  0  0  0  0  0  0  0  0
   18.7023   -8.7185  -14.6829 C   0  0  0  0  0  0  0  0  0  0  0  0
   17.8277   -7.8560  -14.3776 O   0  0  0  0  0  0  0  0  0  0  0  0
   16.7124  -11.3232  -19.4068 O   0  0  0  0  0  0  0  0  0  0  0  0
   22.1505   -5.5460  -13.1215 C   0  0  0  0  0  0  0  0  0  0  0  0
   21.7991   -6.9746  -13.4456 C   0  0  1  0  0  0  0  0  0  0  0  0
   21.8460   -7.8150  -12.3499 O   0  0  0  0  0  0  0  0  0  0  0  0
   20.4676   -6.9947  -14.1551 C   0  0  2  0  0  0  0  0  0  0  0  0
   20.0570   -8.3275  -14.5296 N   0  0  0  0  0  0  0  0  0  0  0  0
   20.3850   -6.0331  -15.2641 C   0  0  0  0  0  0  0  0  0  0  0  0
   20.5760   -6.4040  -16.4335 O   0  0  0  0  0  0  0  0  0  0  0  0
   20.0872   -4.6848  -14.9934 N   0  0  0  0  0  0  0  0  0  0  0  0
   19.8442   -3.7007  -16.0368 C   0  0  1  0  0  0  0  0  0  0  0  0
   18.7146   -4.0827  -16.9349 C   0  0  0  0  0  0  0  0  0  0  0  0
   18.3937   -3.0936  -17.9658 C   0  0  0  0  0  0  0  0  0  0  0  0
   19.3680   -2.4288  -18.4405 O   0  0  0  0  0  0  0  0  0  0  0  0
   19.6647   -2.3630  -15.4568 C   0  0  0  0  0  0  0  0  0  0  0  0
   20.2775   -1.2235  -15.9022 O   0  0  0  0  0  0  0  0  0  0  0  0
   17.1497   -2.8138  -18.4689 O   0  0  0  0  0  0  0  0  0  0  0  0
   18.8798   -2.2311  -14.4583 O   0  0  0  0  0  0  0  0  0  0  0  0
  2  7  1  0
  2  1  1  1
  3  2  1  0
  4  5  1  0
  4  3  1  0
  5  9  1  0
  6  5  2  0
  7  8  2  0
 11 10  1  1
 12 11  1  0
 13 11  1  0
 14  7  1  0
 13 14  1  6
 15 13  1  0
 15 17  1  0
 16 15  2  0
 18 17  1  0
 18 19  1  1
 20 19  1  0
 20 21  2  0
 22 23  1  0
 22 18  1  0
 24 20  1  0
 25 22  2  0
M  END
$$$$
