ETD.pdb
     RDKit          3D

 25 24  0  0  1  0  0  0  0  0999 V2000
   19.1146  -13.6639  -16.0407 N   0  0  0  0  0  0  0  0  0  0  0  0
   19.0614  -12.3487  -16.6111 C   0  0  1  0  0  0  0  0  0  0  0  0
   17.6529  -11.8866  -16.7371 C   0  0  0  0  0  0  0  0  0  0  0  0
   16.6024  -12.8392  -16.2882 C   0  0  0  0  0  0  0  0  0  0  0  0
   15.5605  -12.2699  -15.4152 C   0  0  0  0  0  0  0  0  0  0  0  0
   15.4144  -12.7358  -14.2616 O   0  0  0  0  0  0  0  0  0  0  0  0
   19.9117  -11.4200  -15.8254 C   0  0  0  0  0  0  0  0  0  0  0  0
   19.9066  -11.4280  -14.5597 O   0  0  0  0  0  0  0  0  0  0  0  0
   14.7286  -11.2371  -15.8106 O   0  0  0  0  0  0  0  0  0  0  0  0
   23.9252   -8.8261  -15.2578 C   0  0  0  0  0  0  0  0  0  0  0  0
   23.0967   -9.7741  -16.0850 C   0  0  1  0  0  0  0  0  0  0  0  0
   23.5164  -11.0879  -16.0017 O   0  0  0  0  0  0  0  0  0  0  0  0
   21.6442   -9.5886  -15.7211 C   0  0  2  0  0  0  0  0  0  0  0  0
   20.7705  -10.4789  -16.4487 N   0  0  0  0  0  0  0  0  0  0  0  0
   21.2072   -8.1857  -15.7690 C   0  0  0  0  0  0  0  0  0  0  0  0
   20.4426   -7.7956  -16.6659 O   0  0  0  0  0  0  0  0  0  0  0  0
   21.6612   -7.2832  -14.7896 N   0  0  0  0  0  0  0  0  0  0  0  0
   21.2752   -5.8809  -14.7626 C   0  0  1  0  0  0  0  0  0  0  0  0
   19.7969   -5.6936  -14.6715 C   0  0  0  0  0  0  0  0  0  0  0  0
   19.3614   -4.2968  -14.6158 C   0  0  0  0  0  0  0  0  0  0  0  0
   20.1876   -3.4253  -15.0335 O   0  0  0  0  0  0  0  0  0  0  0  0
   21.9922   -5.1657  -13.6985 C   0  0  0  0  0  0  0  0  0  0  0  0
   22.1999   -3.8137  -13.6608 O   0  0  0  0  0  0  0  0  0  0  0  0
   18.1538   -3.8364  -14.1589 O   0  0  0  0  0  0  0  0  0  0  0  0
   22.4670   -5.8394  -12.7231 O   0  0  0  0  0  0  0  0  0  0  0  0
  2  7  1  0
  2  1  1  1
  3  2  1  0
  4  5  1  0
  4  3  1  0
  5  9  1  0
  6  5  2  0
  7  8  2  0
 11 10  1  1
 12 11  1  0
 13 11  1  0
 14  7  1  0
 13 14  1  6
 15 13  1  0
 15 17  1  0
 16 15  2  0
 18 17  1  0
 18 19  1  1
 20 19  1  0
 20 21  2  0
 22 23  1  0
 22 18  1  0
 24 20  1  0
 25 22  2  0
M  END
$$$$
