PWY.pdb
     RDKit          3D

 34 37  0  0  1  0  0  0  0  0999 V2000
    8.0983  -15.3438   18.8188 N   0  0  0  0  0  0  0  0  0  0  0  0
    7.8445  -14.9080   17.4426 C   0  0  0  0  0  0  0  0  0  0  0  0
    7.8413  -13.4063   17.4581 C   0  0  0  0  0  0  0  0  0  0  0  0
    8.1668  -13.0558   18.9041 C   0  0  0  0  0  0  0  0  0  0  0  0
    8.9825  -14.2984   19.2904 C   0  0  1  0  0  0  0  0  0  0  0  0
    9.2252  -14.3541   20.7329 C   0  0  0  0  0  0  0  0  0  0  0  0
    9.9880  -13.5263   21.3387 O   0  0  0  0  0  0  0  0  0  0  0  0
    8.5861  -15.3686   21.4814 N   0  0  0  0  0  0  0  0  0  0  0  0
    8.6838  -15.4681   22.9511 C   0  0  1  0  0  0  0  0  0  0  0  0
    7.4052  -15.9816   23.4851 C   0  0  0  0  0  0  0  0  0  0  0  0
    6.8521  -15.3611   24.6871 C   0  0  0  0  0  0  0  0  0  0  0  0
    6.1111  -15.9489   25.7081 C   0  0  0  0  0  0  0  0  0  0  0  0
    5.7824  -15.0419   26.6340 N   0  0  0  0  0  0  0  0  0  0  0  0
    6.2884  -13.8442   26.2599 C   0  0  0  0  0  0  0  0  0  0  0  0
    6.2470  -12.5959   26.8646 C   0  0  0  0  0  0  0  0  0  0  0  0
    6.8672  -11.5151   26.2777 C   0  0  0  0  0  0  0  0  0  0  0  0
    7.5276  -11.6955   25.0818 C   0  0  0  0  0  0  0  0  0  0  0  0
    7.5636  -12.9546   24.4806 C   0  0  0  0  0  0  0  0  0  0  0  0
    6.9466  -14.0159   25.0713 C   0  0  0  0  0  0  0  0  0  0  0  0
    9.9249  -16.1061   23.2828 C   0  0  0  0  0  0  0  0  0  0  0  0
   10.4185  -16.9596   22.4685 O   0  0  0  0  0  0  0  0  0  0  0  0
    9.3113  -15.5818   30.4246 O   0  0  0  0  0  0  0  0  0  0  0  0
   10.0937  -15.5699   29.2981 C   0  0  0  0  0  0  0  0  0  0  0  0
   10.9122  -16.6497   29.0151 C   0  0  0  0  0  0  0  0  0  0  0  0
   11.7169  -16.6860   27.8961 C   0  0  0  0  0  0  0  0  0  0  0  0
   11.6768  -15.5813   27.0473 C   0  0  0  0  0  0  0  0  0  0  0  0
   12.5291  -15.5950   25.8571 C   0  0  0  0  0  0  0  0  0  0  0  0
   11.9053  -16.4935   24.7819 C   0  0  2  0  0  0  0  0  0  0  0  0
   10.6311  -15.8212   24.4759 N   0  0  0  0  0  0  0  0  0  0  0  0
   11.6543  -17.8375   25.2724 C   0  0  0  0  0  0  0  0  0  0  0  0
   12.6836  -18.7513   25.4450 O   0  0  0  0  0  0  0  0  0  0  0  0
   10.8690  -14.5010   27.3147 C   0  0  0  0  0  0  0  0  0  0  0  0
   10.0694  -14.4760   28.4358 C   0  0  0  0  0  0  0  0  0  0  0  0
   10.4989  -18.2398   25.5634 O   0  0  0  0  0  0  0  0  0  0  0  0
  1  2  1  0
  3  2  1  0
  4  5  1  0
  4  3  1  0
  5  1  1  0
  5  6  1  1
  6  7  2  0
  8  6  1  0
  8  9  1  0
  9 20  1  0
  9 10  1  6
 11 10  1  0
 11 12  2  0
 13 12  1  0
 14 13  1  0
 15 14  2  0
 16 15  1  0
 17 16  2  0
 17 18  1  0
 18 19  2  0
 19 14  1  0
 19 11  1  0
 20 21  2  0
 22 23  1  0
 23 33  2  0
 23 24  1  0
 24 25  2  0
 25 26  1  0
 26 27  1  0
 28 27  1  1
 28 30  1  0
 29 28  1  0
 29 20  1  0
 30 31  1  0
 32 26  2  0
 33 32  1  0
 34 30  2  0
M  END
$$$$
