PWY.pdb
     RDKit          3D

 34 37  0  0  1  0  0  0  0  0999 V2000
    8.9773  -18.1436   19.5050 N   0  0  0  0  0  0  0  0  0  0  0  0
    8.7294  -18.7989   18.2177 C   0  0  0  0  0  0  0  0  0  0  0  0
    8.2274  -17.7373   17.2816 C   0  0  0  0  0  0  0  0  0  0  0  0
    8.2754  -16.4635   18.1152 C   0  0  0  0  0  0  0  0  0  0  0  0
    9.4147  -16.8310   19.0773 C   0  0  1  0  0  0  0  0  0  0  0  0
    9.5199  -15.8704   20.1767 C   0  0  0  0  0  0  0  0  0  0  0  0
   10.1092  -14.7424   20.0559 O   0  0  0  0  0  0  0  0  0  0  0  0
    8.9436  -16.2107   21.4216 N   0  0  0  0  0  0  0  0  0  0  0  0
    8.7109  -15.2268   22.4974 C   0  0  1  0  0  0  0  0  0  0  0  0
    7.3053  -15.3239   22.9430 C   0  0  0  0  0  0  0  0  0  0  0  0
    6.9541  -14.8008   24.2616 C   0  0  0  0  0  0  0  0  0  0  0  0
    6.5623  -15.4999   25.3995 C   0  0  0  0  0  0  0  0  0  0  0  0
    6.3210  -14.6581   26.4100 N   0  0  0  0  0  0  0  0  0  0  0  0
    6.5427  -13.3951   25.9783 C   0  0  0  0  0  0  0  0  0  0  0  0
    6.4532  -12.1705   26.6247 C   0  0  0  0  0  0  0  0  0  0  0  0
    6.7537  -11.0045   25.9557 C   0  0  0  0  0  0  0  0  0  0  0  0
    7.1434  -11.0762   24.6359 C   0  0  0  0  0  0  0  0  0  0  0  0
    7.2301  -12.3124   23.9938 C   0  0  0  0  0  0  0  0  0  0  0  0
    6.9305  -13.4586   24.6665 C   0  0  0  0  0  0  0  0  0  0  0  0
    9.7865  -15.3215   23.4415 C   0  0  0  0  0  0  0  0  0  0  0  0
    9.8532  -14.4673   24.3909 O   0  0  0  0  0  0  0  0  0  0  0  0
   10.7157  -14.4888   30.3603 O   0  0  0  0  0  0  0  0  0  0  0  0
   10.6539  -15.1571   29.1641 C   0  0  0  0  0  0  0  0  0  0  0  0
   11.1417  -16.4490   29.0695 C   0  0  0  0  0  0  0  0  0  0  0  0
   11.1027  -17.1628   27.8906 C   0  0  0  0  0  0  0  0  0  0  0  0
   10.5467  -16.5287   26.7808 C   0  0  0  0  0  0  0  0  0  0  0  0
   10.5021  -17.2652   25.5165 C   0  0  0  0  0  0  0  0  0  0  0  0
   11.5609  -16.7111   24.5551 C   0  0  2  0  0  0  0  0  0  0  0  0
   10.7756  -16.3313   23.3684 N   0  0  0  0  0  0  0  0  0  0  0  0
   12.5509  -17.7122   24.1980 C   0  0  0  0  0  0  0  0  0  0  0  0
   13.7583  -17.8126   24.8736 O   0  0  0  0  0  0  0  0  0  0  0  0
   10.0580  -15.2457   26.8588 C   0  0  0  0  0  0  0  0  0  0  0  0
   10.1024  -14.5425   28.0421 C   0  0  0  0  0  0  0  0  0  0  0  0
   12.3664  -18.5339   23.2639 O   0  0  0  0  0  0  0  0  0  0  0  0
  1  2  1  0
  3  2  1  0
  4  5  1  0
  4  3  1  0
  5  1  1  0
  5  6  1  1
  6  7  2  0
  8  6  1  0
  8  9  1  0
  9 20  1  0
  9 10  1  1
 11 10  1  0
 11 12  2  0
 13 12  1  0
 14 13  1  0
 15 14  2  0
 16 15  1  0
 17 16  2  0
 17 18  1  0
 18 19  2  0
 19 14  1  0
 19 11  1  0
 20 21  2  0
 22 23  1  0
 23 33  2  0
 23 24  1  0
 24 25  2  0
 25 26  1  0
 26 27  1  0
 28 27  1  1
 28 30  1  0
 29 28  1  0
 29 20  1  0
 30 31  1  0
 32 26  2  0
 33 32  1  0
 34 30  2  0
M  END
$$$$
