PWY.pdb
     RDKit          3D

 34 37  0  0  1  0  0  0  0  0999 V2000
    7.4418  -15.2486   19.2670 N   0  0  0  0  0  0  0  0  0  0  0  0
    6.9268  -14.8135   17.9657 C   0  0  0  0  0  0  0  0  0  0  0  0
    6.9493  -13.3120   17.9718 C   0  0  0  0  0  0  0  0  0  0  0  0
    7.5602  -12.9618   19.3222 C   0  0  0  0  0  0  0  0  0  0  0  0
    8.4176  -14.2159   19.5473 C   0  0  1  0  0  0  0  0  0  0  0  0
    8.9406  -14.2706   20.9134 C   0  0  0  0  0  0  0  0  0  0  0  0
    9.8098  -13.4439   21.3552 O   0  0  0  0  0  0  0  0  0  0  0  0
    8.4602  -15.2829   21.7750 N   0  0  0  0  0  0  0  0  0  0  0  0
    8.9998  -15.5102   23.1302 C   0  0  1  0  0  0  0  0  0  0  0  0
    7.9522  -16.1303   23.9679 C   0  0  0  0  0  0  0  0  0  0  0  0
    7.1259  -15.2640   24.8060 C   0  0  0  0  0  0  0  0  0  0  0  0
    6.0763  -15.6134   25.6505 C   0  0  0  0  0  0  0  0  0  0  0  0
    5.5669  -14.5283   26.2430 N   0  0  0  0  0  0  0  0  0  0  0  0
    6.2538  -13.4439   25.8154 C   0  0  0  0  0  0  0  0  0  0  0  0
    6.1388  -12.0969   26.1284 C   0  0  0  0  0  0  0  0  0  0  0  0
    6.9867  -11.1730   25.5585 C   0  0  0  0  0  0  0  0  0  0  0  0
    7.9488  -11.6096   24.6739 C   0  0  0  0  0  0  0  0  0  0  0  0
    8.0567  -12.9664   24.3646 C   0  0  0  0  0  0  0  0  0  0  0  0
    7.2122  -13.8705   24.9352 C   0  0  0  0  0  0  0  0  0  0  0  0
   10.2944  -16.1158   23.0092 C   0  0  0  0  0  0  0  0  0  0  0  0
   10.4243  -17.1570   22.2781 O   0  0  0  0  0  0  0  0  0  0  0  0
   11.1918  -16.6044   31.2766 O   0  0  0  0  0  0  0  0  0  0  0  0
   11.0288  -16.3666   29.9356 C   0  0  0  0  0  0  0  0  0  0  0  0
   10.7446  -15.0868   29.4914 C   0  0  0  0  0  0  0  0  0  0  0  0
   10.5719  -14.7963   28.1547 C   0  0  0  0  0  0  0  0  0  0  0  0
   10.6955  -15.8519   27.2530 C   0  0  0  0  0  0  0  0  0  0  0  0
   10.5084  -15.5678   25.8292 C   0  0  0  0  0  0  0  0  0  0  0  0
   11.7601  -15.9853   25.0473 C   0  0  2  0  0  0  0  0  0  0  0  0
   11.4391  -15.5999   23.6626 N   0  0  0  0  0  0  0  0  0  0  0  0
   11.9990  -17.4160   25.1237 C   0  0  0  0  0  0  0  0  0  0  0  0
   11.0602  -18.3338   24.6755 O   0  0  0  0  0  0  0  0  0  0  0  0
   10.9775  -17.1287   27.6787 C   0  0  0  0  0  0  0  0  0  0  0  0
   11.1479  -17.4069   29.0167 C   0  0  0  0  0  0  0  0  0  0  0  0
   13.0616  -17.8938   25.5973 O   0  0  0  0  0  0  0  0  0  0  0  0
  1  2  1  0
  3  2  1  0
  4  5  1  0
  4  3  1  0
  5  1  1  0
  5  6  1  1
  6  7  2  0
  8  6  1  0
  8  9  1  0
  9 20  1  0
  9 10  1  1
 11 10  1  0
 11 12  2  0
 13 12  1  0
 14 13  1  0
 15 14  2  0
 16 15  1  0
 17 16  2  0
 17 18  1  0
 18 19  2  0
 19 14  1  0
 19 11  1  0
 20 21  2  0
 22 23  1  0
 23 33  2  0
 23 24  1  0
 24 25  2  0
 25 26  1  0
 26 27  1  0
 28 27  1  1
 28 30  1  0
 29 28  1  0
 29 20  1  0
 30 31  1  0
 32 26  2  0
 33 32  1  0
 34 30  2  0
M  END
$$$$
