PWY.pdb
     RDKit          3D

 34 37  0  0  1  0  0  0  0  0999 V2000
    9.2721  -17.5650   19.1264 N   0  0  0  0  0  0  0  0  0  0  0  0
    9.2225  -17.8354   17.6868 C   0  0  0  0  0  0  0  0  0  0  0  0
    9.1736  -16.5019   16.9978 C   0  0  0  0  0  0  0  0  0  0  0  0
    9.2605  -15.4979   18.1397 C   0  0  0  0  0  0  0  0  0  0  0  0
   10.0418  -16.3388   19.1599 C   0  0  1  0  0  0  0  0  0  0  0  0
   10.0592  -15.7035   20.4786 C   0  0  0  0  0  0  0  0  0  0  0  0
   10.8022  -14.7002   20.7534 O   0  0  0  0  0  0  0  0  0  0  0  0
    9.2166  -16.2264   21.4857 N   0  0  0  0  0  0  0  0  0  0  0  0
    8.9477  -15.5239   22.7560 C   0  0  1  0  0  0  0  0  0  0  0  0
    7.4914  -15.3121   22.8903 C   0  0  0  0  0  0  0  0  0  0  0  0
    6.9709  -14.8383   24.1710 C   0  0  0  0  0  0  0  0  0  0  0  0
    6.5204  -15.5832   25.2569 C   0  0  0  0  0  0  0  0  0  0  0  0
    6.1159  -14.7783   26.2452 N   0  0  0  0  0  0  0  0  0  0  0  0
    6.2842  -13.4954   25.8496 C   0  0  0  0  0  0  0  0  0  0  0  0
    6.0382  -12.2916   26.4944 C   0  0  0  0  0  0  0  0  0  0  0  0
    6.3159  -11.0957   25.8698 C   0  0  0  0  0  0  0  0  0  0  0  0
    6.8407  -11.1166   24.5959 C   0  0  0  0  0  0  0  0  0  0  0  0
    7.0844  -12.3322   23.9549 C   0  0  0  0  0  0  0  0  0  0  0  0
    6.8058  -13.5084   24.5834 C   0  0  0  0  0  0  0  0  0  0  0  0
    9.6934  -16.1672   23.7988 C   0  0  0  0  0  0  0  0  0  0  0  0
   10.0853  -17.3721   23.6259 O   0  0  0  0  0  0  0  0  0  0  0  0
   12.6749  -17.6496   31.8853 O   0  0  0  0  0  0  0  0  0  0  0  0
   12.1745  -17.0602   30.7523 C   0  0  0  0  0  0  0  0  0  0  0  0
   13.0401  -16.5627   29.7935 C   0  0  0  0  0  0  0  0  0  0  0  0
   12.5872  -15.9617   28.6382 C   0  0  0  0  0  0  0  0  0  0  0  0
   11.2069  -15.8713   28.4669 C   0  0  0  0  0  0  0  0  0  0  0  0
   10.7037  -15.2298   27.2511 C   0  0  0  0  0  0  0  0  0  0  0  0
   10.7319  -16.2284   26.0873 C   0  0  2  0  0  0  0  0  0  0  0  0
   10.0205  -15.5161   25.0122 N   0  0  0  0  0  0  0  0  0  0  0  0
   10.0384  -17.4630   26.4108 C   0  0  0  0  0  0  0  0  0  0  0  0
    8.6536  -17.5434   26.3948 O   0  0  0  0  0  0  0  0  0  0  0  0
   10.3342  -16.3606   29.4103 C   0  0  0  0  0  0  0  0  0  0  0  0
   10.7984  -16.9590   30.5606 C   0  0  0  0  0  0  0  0  0  0  0  0
   10.6531  -18.5156   26.7205 O   0  0  0  0  0  0  0  0  0  0  0  0
  1  2  1  0
  3  2  1  0
  4  5  1  0
  4  3  1  0
  5  1  1  0
  5  6  1  1
  6  7  2  0
  8  6  1  0
  8  9  1  0
  9 20  1  0
  9 10  1  1
 11 10  1  0
 11 12  2  0
 13 12  1  0
 14 13  1  0
 15 14  2  0
 16 15  1  0
 17 16  2  0
 17 18  1  0
 18 19  2  0
 19 14  1  0
 19 11  1  0
 20 21  2  0
 22 23  1  0
 23 33  2  0
 23 24  1  0
 24 25  2  0
 25 26  1  0
 26 27  1  0
 28 27  1  1
 28 30  1  0
 29 28  1  0
 29 20  1  0
 30 31  1  0
 32 26  2  0
 33 32  1  0
 34 30  2  0
M  END
$$$$
