PWY.pdb
     RDKit          3D

 34 37  0  0  1  0  0  0  0  0999 V2000
    8.1124  -18.4195   19.4382 N   0  0  0  0  0  0  0  0  0  0  0  0
    7.7246  -19.1264   18.2143 C   0  0  0  0  0  0  0  0  0  0  0  0
    7.7863  -18.1239   17.0979 C   0  0  0  0  0  0  0  0  0  0  0  0
    8.2862  -16.8544   17.7748 C   0  0  0  0  0  0  0  0  0  0  0  0
    9.0870  -17.4782   18.9272 C   0  0  1  0  0  0  0  0  0  0  0  0
    9.4873  -16.4701   19.9103 C   0  0  0  0  0  0  0  0  0  0  0  0
   10.3957  -15.6009   19.6794 O   0  0  0  0  0  0  0  0  0  0  0  0
    8.8379  -16.4633   21.1657 N   0  0  0  0  0  0  0  0  0  0  0  0
    9.0704  -15.4230   22.1871 C   0  0  1  0  0  0  0  0  0  0  0  0
    7.7954  -14.7310   22.4686 C   0  0  0  0  0  0  0  0  0  0  0  0
    7.3372  -14.6496   23.8539 C   0  0  0  0  0  0  0  0  0  0  0  0
    6.9964  -15.6841   24.7204 C   0  0  0  0  0  0  0  0  0  0  0  0
    6.6183  -15.1989   25.9078 N   0  0  0  0  0  0  0  0  0  0  0  0
    6.6964  -13.8489   25.8641 C   0  0  0  0  0  0  0  0  0  0  0  0
    6.4339  -12.8785   26.8205 C   0  0  0  0  0  0  0  0  0  0  0  0
    6.6103  -11.5441   26.5278 C   0  0  0  0  0  0  0  0  0  0  0  0
    7.0508  -11.1913   25.2706 C   0  0  0  0  0  0  0  0  0  0  0  0
    7.3118  -12.1743   24.3148 C   0  0  0  0  0  0  0  0  0  0  0  0
    7.1338  -13.4908   24.6167 C   0  0  0  0  0  0  0  0  0  0  0  0
    9.8437  -15.9946   23.2513 C   0  0  0  0  0  0  0  0  0  0  0  0
    9.4712  -17.1083   23.7575 O   0  0  0  0  0  0  0  0  0  0  0  0
   11.2342  -15.9333   31.4110 O   0  0  0  0  0  0  0  0  0  0  0  0
   10.9653  -15.8628   30.0679 C   0  0  0  0  0  0  0  0  0  0  0  0
   11.0366  -14.6454   29.4130 C   0  0  0  0  0  0  0  0  0  0  0  0
   10.7757  -14.5220   28.0647 C   0  0  0  0  0  0  0  0  0  0  0  0
   10.4326  -15.6830   27.3741 C   0  0  0  0  0  0  0  0  0  0  0  0
   10.1436  -15.5741   25.9432 C   0  0  0  0  0  0  0  0  0  0  0  0
   11.4526  -15.6120   25.1446 C   0  0  2  0  0  0  0  0  0  0  0  0
   11.0114  -15.3766   23.7593 N   0  0  0  0  0  0  0  0  0  0  0  0
   12.1154  -16.9006   25.2444 C   0  0  0  0  0  0  0  0  0  0  0  0
   11.5272  -18.0591   24.7583 O   0  0  0  0  0  0  0  0  0  0  0  0
   10.3574  -16.8997   28.0106 C   0  0  0  0  0  0  0  0  0  0  0  0
   10.6203  -17.0107   29.3579 C   0  0  0  0  0  0  0  0  0  0  0  0
   13.2488  -17.0321   25.7734 O   0  0  0  0  0  0  0  0  0  0  0  0
  1  2  1  0
  3  2  1  0
  4  5  1  0
  4  3  1  0
  5  1  1  0
  5  6  1  1
  6  7  2  0
  8  6  1  0
  8  9  1  0
  9 20  1  0
  9 10  1  1
 11 10  1  0
 11 12  2  0
 13 12  1  0
 14 13  1  0
 15 14  2  0
 16 15  1  0
 17 16  2  0
 17 18  1  0
 18 19  2  0
 19 14  1  0
 19 11  1  0
 20 21  2  0
 22 23  1  0
 23 33  2  0
 23 24  1  0
 24 25  2  0
 25 26  1  0
 26 27  1  0
 28 27  1  1
 28 30  1  0
 29 28  1  0
 29 20  1  0
 30 31  1  0
 32 26  2  0
 33 32  1  0
 34 30  2  0
M  END
$$$$
