PWY.pdb
     RDKit          3D

 34 37  0  0  1  0  0  0  0  0999 V2000
    7.8348  -15.4563   19.2836 N   0  0  0  0  0  0  0  0  0  0  0  0
    7.4340  -15.0811   17.9247 C   0  0  0  0  0  0  0  0  0  0  0  0
    7.4951  -13.5822   17.8541 C   0  0  0  0  0  0  0  0  0  0  0  0
    8.0082  -13.1729   19.2284 C   0  0  0  0  0  0  0  0  0  0  0  0
    8.8124  -14.4315   19.5858 C   0  0  1  0  0  0  0  0  0  0  0  0
    9.2261  -14.4237   20.9899 C   0  0  0  0  0  0  0  0  0  0  0  0
   10.0653  -13.5813   21.4593 O   0  0  0  0  0  0  0  0  0  0  0  0
    8.6704  -15.3911   21.8577 N   0  0  0  0  0  0  0  0  0  0  0  0
    8.8881  -15.3832   23.3179 C   0  0  1  0  0  0  0  0  0  0  0  0
    7.6981  -15.9508   23.9853 C   0  0  0  0  0  0  0  0  0  0  0  0
    6.8673  -15.0667   24.8000 C   0  0  0  0  0  0  0  0  0  0  0  0
    5.6928  -15.3629   25.4853 C   0  0  0  0  0  0  0  0  0  0  0  0
    5.2268  -14.2778   26.1127 N   0  0  0  0  0  0  0  0  0  0  0  0
    6.0663  -13.2459   25.8656 C   0  0  0  0  0  0  0  0  0  0  0  0
    6.0503  -11.9232   26.2847 C   0  0  0  0  0  0  0  0  0  0  0  0
    7.0501  -11.0570   25.9006 C   0  0  0  0  0  0  0  0  0  0  0  0
    8.0639  -11.5269   25.0942 C   0  0  0  0  0  0  0  0  0  0  0  0
    8.0716  -12.8588   24.6771 C   0  0  0  0  0  0  0  0  0  0  0  0
    7.0771  -13.7057   25.0641 C   0  0  0  0  0  0  0  0  0  0  0  0
   10.1968  -15.9053   23.5860 C   0  0  0  0  0  0  0  0  0  0  0  0
   10.6378  -16.8674   22.8683 O   0  0  0  0  0  0  0  0  0  0  0  0
    9.7923  -16.6476   30.6610 O   0  0  0  0  0  0  0  0  0  0  0  0
   10.5182  -16.2886   29.5540 C   0  0  0  0  0  0  0  0  0  0  0  0
   11.5589  -17.0919   29.1210 C   0  0  0  0  0  0  0  0  0  0  0  0
   12.3180  -16.7750   28.0145 C   0  0  0  0  0  0  0  0  0  0  0  0
   11.9961  -15.6002   27.3372 C   0  0  0  0  0  0  0  0  0  0  0  0
   12.7942  -15.2400   26.1640 C   0  0  0  0  0  0  0  0  0  0  0  0
   12.3092  -16.0316   24.9430 C   0  0  2  0  0  0  0  0  0  0  0  0
   11.0254  -15.3903   24.6115 N   0  0  0  0  0  0  0  0  0  0  0  0
   12.1000  -17.4356   25.2509 C   0  0  0  0  0  0  0  0  0  0  0  0
   13.1459  -18.3467   25.2312 O   0  0  0  0  0  0  0  0  0  0  0  0
   10.9652  -14.7916   27.7549 C   0  0  0  0  0  0  0  0  0  0  0  0
   10.2138  -15.1185   28.8618 C   0  0  0  0  0  0  0  0  0  0  0  0
   10.9678  -17.8950   25.5487 O   0  0  0  0  0  0  0  0  0  0  0  0
  1  2  1  0
  3  2  1  0
  4  5  1  0
  4  3  1  0
  5  1  1  0
  5  6  1  1
  6  7  2  0
  8  6  1  0
  8  9  1  0
  9 20  1  0
  9 10  1  1
 11 10  1  0
 11 12  2  0
 13 12  1  0
 14 13  1  0
 15 14  2  0
 16 15  1  0
 17 16  2  0
 17 18  1  0
 18 19  2  0
 19 14  1  0
 19 11  1  0
 20 21  2  0
 22 23  1  0
 23 33  2  0
 23 24  1  0
 24 25  2  0
 25 26  1  0
 26 27  1  0
 28 27  1  1
 28 30  1  0
 29 28  1  0
 29 20  1  0
 30 31  1  0
 32 26  2  0
 33 32  1  0
 34 30  2  0
M  END
$$$$
