PWY.pdb
     RDKit          3D

 34 37  0  0  1  0  0  0  0  0999 V2000
    8.0212  -17.5894   18.9697 N   0  0  0  0  0  0  0  0  0  0  0  0
    7.8046  -17.6481   17.5213 C   0  0  0  0  0  0  0  0  0  0  0  0
    8.1408  -16.2889   16.9783 C   0  0  0  0  0  0  0  0  0  0  0  0
    8.6080  -15.5124   18.2024 C   0  0  0  0  0  0  0  0  0  0  0  0
    9.1405  -16.6743   19.0537 C   0  0  1  0  0  0  0  0  0  0  0  0
    9.4354  -16.2463   20.4221 C   0  0  0  0  0  0  0  0  0  0  0  0
   10.5751  -15.7853   20.7725 O   0  0  0  0  0  0  0  0  0  0  0  0
    8.4123  -16.3498   21.3919 N   0  0  0  0  0  0  0  0  0  0  0  0
    8.5458  -15.8197   22.7633 C   0  0  1  0  0  0  0  0  0  0  0  0
    7.3334  -15.0450   23.1003 C   0  0  0  0  0  0  0  0  0  0  0  0
    7.0872  -14.7095   24.5012 C   0  0  0  0  0  0  0  0  0  0  0  0
    6.5863  -15.5204   25.5155 C   0  0  0  0  0  0  0  0  0  0  0  0
    6.5022  -14.8406   26.6639 N   0  0  0  0  0  0  0  0  0  0  0  0
    6.9385  -13.5782   26.4481 C   0  0  0  0  0  0  0  0  0  0  0  0
    7.0685  -12.4893   27.2982 C   0  0  0  0  0  0  0  0  0  0  0  0
    7.5640  -11.2927   26.8292 C   0  0  0  0  0  0  0  0  0  0  0  0
    7.9270  -11.1968   25.5033 C   0  0  0  0  0  0  0  0  0  0  0  0
    7.7923  -12.2973   24.6554 C   0  0  0  0  0  0  0  0  0  0  0  0
    7.3012  -13.4755   25.1315 C   0  0  0  0  0  0  0  0  0  0  0  0
    8.9997  -16.8780   23.6184 C   0  0  0  0  0  0  0  0  0  0  0  0
    8.8256  -18.0897   23.2486 O   0  0  0  0  0  0  0  0  0  0  0  0
   13.0590  -19.8219   20.1138 O   0  0  0  0  0  0  0  0  0  0  0  0
   12.7670  -19.1892   21.2953 C   0  0  0  0  0  0  0  0  0  0  0  0
   13.5316  -18.1118   21.7082 C   0  0  0  0  0  0  0  0  0  0  0  0
   13.2789  -17.4425   22.8869 C   0  0  0  0  0  0  0  0  0  0  0  0
   12.2108  -17.8954   23.6595 C   0  0  0  0  0  0  0  0  0  0  0  0
   11.9292  -17.2045   24.9190 C   0  0  0  0  0  0  0  0  0  0  0  0
   10.5530  -17.6280   25.4472 C   0  0  2  0  0  0  0  0  0  0  0  0
    9.6421  -16.6332   24.8557 N   0  0  0  0  0  0  0  0  0  0  0  0
   10.4828  -17.5680   26.8968 C   0  0  0  0  0  0  0  0  0  0  0  0
    9.6306  -16.6871   27.5465 O   0  0  0  0  0  0  0  0  0  0  0  0
   11.4421  -18.9644   23.2629 C   0  0  0  0  0  0  0  0  0  0  0  0
   11.7041  -19.6252   22.0832 C   0  0  0  0  0  0  0  0  0  0  0  0
   11.1866  -18.3058   27.6330 O   0  0  0  0  0  0  0  0  0  0  0  0
  1  2  1  0
  3  2  1  0
  4  5  1  0
  4  3  1  0
  5  1  1  0
  5  6  1  1
  6  7  2  0
  8  6  1  0
  8  9  1  0
  9 20  1  0
  9 10  1  1
 11 10  1  0
 11 12  2  0
 13 12  1  0
 14 13  1  0
 15 14  2  0
 16 15  1  0
 17 16  2  0
 17 18  1  0
 18 19  2  0
 19 14  1  0
 19 11  1  0
 20 21  2  0
 22 23  1  0
 23 33  2  0
 23 24  1  0
 24 25  2  0
 25 26  1  0
 26 27  1  0
 28 27  1  1
 28 30  1  0
 29 28  1  0
 29 20  1  0
 30 31  1  0
 32 26  2  0
 33 32  1  0
 34 30  2  0
M  END
$$$$
