PWY.pdb
     RDKit          3D

 34 37  0  0  1  0  0  0  0  0999 V2000
    8.0295  -15.6028   18.8218 N   0  0  0  0  0  0  0  0  0  0  0  0
    7.7451  -15.3086   17.4145 C   0  0  0  0  0  0  0  0  0  0  0  0
    7.7010  -13.8131   17.2857 C   0  0  0  0  0  0  0  0  0  0  0  0
    8.0366  -13.3163   18.6857 C   0  0  0  0  0  0  0  0  0  0  0  0
    8.8912  -14.4942   19.1764 C   0  0  1  0  0  0  0  0  0  0  0  0
    9.1551  -14.4042   20.6134 C   0  0  0  0  0  0  0  0  0  0  0  0
    9.9004  -13.5002   21.1247 O   0  0  0  0  0  0  0  0  0  0  0  0
    8.5577  -15.3604   21.4658 N   0  0  0  0  0  0  0  0  0  0  0  0
    8.6660  -15.3072   22.9371 C   0  0  1  0  0  0  0  0  0  0  0  0
    7.4608  -15.9220   23.5313 C   0  0  0  0  0  0  0  0  0  0  0  0
    6.7637  -15.2029   24.5955 C   0  0  0  0  0  0  0  0  0  0  0  0
    5.7647  -15.6637   25.4480 C   0  0  0  0  0  0  0  0  0  0  0  0
    5.3774  -14.6965   26.2863 N   0  0  0  0  0  0  0  0  0  0  0  0
    6.0976  -13.5829   26.0184 C   0  0  0  0  0  0  0  0  0  0  0  0
    6.0974  -12.3226   26.5988 C   0  0  0  0  0  0  0  0  0  0  0  0
    6.9558  -11.3452   26.1458 C   0  0  0  0  0  0  0  0  0  0  0  0
    7.8126  -11.6412   25.1079 C   0  0  0  0  0  0  0  0  0  0  0  0
    7.8055  -12.9115   24.5299 C   0  0  0  0  0  0  0  0  0  0  0  0
    6.9518  -13.8698   24.9872 C   0  0  0  0  0  0  0  0  0  0  0  0
    9.9765  -15.7524   23.3136 C   0  0  0  0  0  0  0  0  0  0  0  0
   10.5489  -16.6544   22.6108 O   0  0  0  0  0  0  0  0  0  0  0  0
    9.7344  -17.0985   30.5991 O   0  0  0  0  0  0  0  0  0  0  0  0
   10.3564  -16.5608   29.5012 C   0  0  0  0  0  0  0  0  0  0  0  0
   11.0879  -17.3758   28.6546 C   0  0  0  0  0  0  0  0  0  0  0  0
   11.7313  -16.8839   27.5387 C   0  0  0  0  0  0  0  0  0  0  0  0
   11.6177  -15.5174   27.2892 C   0  0  0  0  0  0  0  0  0  0  0  0
   12.2993  -14.9721   26.1140 C   0  0  0  0  0  0  0  0  0  0  0  0
   11.9456  -15.8049   24.8755 C   0  0  2  0  0  0  0  0  0  0  0  0
   10.6667  -15.2249   24.4311 N   0  0  0  0  0  0  0  0  0  0  0  0
   11.7707  -17.2109   25.1952 C   0  0  0  0  0  0  0  0  0  0  0  0
   12.8397  -18.0951   25.1896 O   0  0  0  0  0  0  0  0  0  0  0  0
   10.8947  -14.6948   28.1209 C   0  0  0  0  0  0  0  0  0  0  0  0
   10.2562  -15.1975   29.2328 C   0  0  0  0  0  0  0  0  0  0  0  0
   10.6490  -17.6965   25.4910 O   0  0  0  0  0  0  0  0  0  0  0  0
  1  2  1  0
  3  2  1  0
  4  5  1  0
  4  3  1  0
  5  1  1  0
  5  6  1  1
  6  7  2  0
  8  6  1  0
  8  9  1  0
  9 20  1  0
  9 10  1  1
 11 10  1  0
 11 12  2  0
 13 12  1  0
 14 13  1  0
 15 14  2  0
 16 15  1  0
 17 16  2  0
 17 18  1  0
 18 19  2  0
 19 14  1  0
 19 11  1  0
 20 21  2  0
 22 23  1  0
 23 33  2  0
 23 24  1  0
 24 25  2  0
 25 26  1  0
 26 27  1  0
 28 27  1  1
 28 30  1  0
 29 28  1  0
 29 20  1  0
 30 31  1  0
 32 26  2  0
 33 32  1  0
 34 30  2  0
M  END
$$$$
