IGD.pdb
     RDKit          3D

 21 20  0  0  1  0  0  0  0  0999 V2000
   11.3708   -8.9174   -7.0780 C   0  0  0  0  0  0  0  0  0  0  0  0
   12.5872   -9.2930   -7.9362 C   0  0  0  0  0  0  0  0  0  0  0  0
   13.1929   -8.0082   -8.3933 C   0  0  2  0  0  0  0  0  0  0  0  0
   12.1110   -7.2152   -9.1126 C   0  0  0  0  0  0  0  0  0  0  0  0
   14.4201   -8.1601   -9.2469 C   0  0  2  0  0  0  0  0  0  0  0  0
   15.4620   -8.6958   -8.3791 N   0  0  0  0  0  0  0  0  0  0  0  0
   14.8494   -6.9201   -9.9176 C   0  0  0  0  0  0  0  0  0  0  0  0
   14.0851   -6.3272  -10.7177 O   0  0  0  0  0  0  0  0  0  0  0  0
   16.1318   -6.3525   -9.6875 N   0  0  0  0  0  0  0  0  0  0  0  0
   16.5940   -5.1325  -10.3213 C   0  0  0  0  0  0  0  0  0  0  0  0
   16.8360   -5.4390  -11.7631 C   0  0  0  0  0  0  0  0  0  0  0  0
   17.0843   -6.6274  -12.1577 O   0  0  0  0  0  0  0  0  0  0  0  0
   16.8073   -4.4490  -12.7768 N   0  0  0  0  0  0  0  0  0  0  0  0
   16.9814   -4.8094  -14.1798 C   0  0  1  0  0  0  0  0  0  0  0  0
   15.8987   -4.1908  -15.0284 C   0  0  0  0  0  0  0  0  0  0  0  0
   14.5655   -4.6740  -14.6447 C   0  0  0  0  0  0  0  0  0  0  0  0
   13.7484   -3.8657  -14.1071 O   0  0  0  0  0  0  0  0  0  0  0  0
   18.3523   -4.3243  -14.5745 C   0  0  0  0  0  0  0  0  0  0  0  0
   18.8747   -4.6973  -15.8298 O   0  0  0  0  0  0  0  0  0  0  0  0
   14.1189   -5.9677  -14.8233 O   0  0  0  0  0  0  0  0  0  0  0  0
   19.0625   -3.6068  -13.8561 O   0  0  0  0  0  0  0  0  0  0  0  0
  1  2  1  0
  3  5  1  0
  3  2  1  0
  3  4  1  6
  5  6  1  1
  7  5  1  0
  7  8  2  0
  9  7  1  0
 10  9  1  0
 11 10  1  0
 12 11  2  0
 13 11  1  0
 14 13  1  0
 14 15  1  6
 15 16  1  0
 16 17  2  0
 18 14  1  0
 19 18  1  0
 20 16  1  0
 21 18  2  0
M  END
$$$$
