IGD.pdb
     RDKit          3D

 21 20  0  0  1  0  0  0  0  0999 V2000
   25.5056  -14.6153  -14.7706 C   0  0  0  0  0  0  0  0  0  0  0  0
   24.5516  -14.7605  -15.9647 C   0  0  0  0  0  0  0  0  0  0  0  0
   23.4451  -13.7849  -15.7406 C   0  0  2  0  0  0  0  0  0  0  0  0
   22.7204  -14.1902  -14.4650 C   0  0  0  0  0  0  0  0  0  0  0  0
   22.4900  -13.6420  -16.8917 C   0  0  2  0  0  0  0  0  0  0  0  0
   23.2868  -13.2236  -18.0388 N   0  0  0  0  0  0  0  0  0  0  0  0
   21.3684  -12.7204  -16.6381 C   0  0  0  0  0  0  0  0  0  0  0  0
   20.3967  -13.0748  -15.9266 O   0  0  0  0  0  0  0  0  0  0  0  0
   21.3426  -11.4081  -17.1830 N   0  0  0  0  0  0  0  0  0  0  0  0
   20.2295  -10.4931  -17.0178 C   0  0  0  0  0  0  0  0  0  0  0  0
   20.5760   -9.5605  -15.9036 C   0  0  0  0  0  0  0  0  0  0  0  0
   21.1705   -9.9730  -14.8518 O   0  0  0  0  0  0  0  0  0  0  0  0
   20.2745   -8.1761  -15.9352 N   0  0  0  0  0  0  0  0  0  0  0  0
   20.6861   -7.2956  -14.8472 C   0  0  1  0  0  0  0  0  0  0  0  0
   21.8089   -6.3904  -15.2885 C   0  0  0  0  0  0  0  0  0  0  0  0
   22.2235   -5.4768  -14.2153 C   0  0  0  0  0  0  0  0  0  0  0  0
   22.4209   -5.9427  -13.0516 O   0  0  0  0  0  0  0  0  0  0  0  0
   19.4600   -6.5172  -14.4456 C   0  0  0  0  0  0  0  0  0  0  0  0
   19.4374   -5.8765  -13.1899 O   0  0  0  0  0  0  0  0  0  0  0  0
   22.4185   -4.1195  -14.3725 O   0  0  0  0  0  0  0  0  0  0  0  0
   18.4533   -6.4013  -15.1587 O   0  0  0  0  0  0  0  0  0  0  0  0
  1  2  1  0
  3  5  1  0
  3  2  1  0
  3  4  1  1
  5  6  1  6
  7  5  1  0
  7  8  2  0
  9  7  1  0
 10  9  1  0
 11 10  1  0
 12 11  2  0
 13 11  1  0
 14 13  1  0
 14 15  1  6
 15 16  1  0
 16 17  2  0
 18 14  1  0
 19 18  1  0
 20 16  1  0
 21 18  2  0
M  END
$$$$
