IGD.pdb
     RDKit          3D

 21 20  0  0  1  0  0  0  0  0999 V2000
   41.8883  -10.8531   -8.4891 C   0  0  0  0  0  0  0  0  0  0  0  0
   40.7351   -9.8397   -8.4958 C   0  0  0  0  0  0  0  0  0  0  0  0
   39.6313  -10.4528   -7.7007 C   0  0  2  0  0  0  0  0  0  0  0  0
   39.1900  -11.7198   -8.4195 C   0  0  0  0  0  0  0  0  0  0  0  0
   38.4673   -9.5408   -7.4332 C   0  0  2  0  0  0  0  0  0  0  0  0
   37.7758   -9.3713   -8.7055 N   0  0  0  0  0  0  0  0  0  0  0  0
   38.8367   -8.2464   -6.8334 C   0  0  0  0  0  0  0  0  0  0  0  0
   39.2910   -8.1886   -5.6646 O   0  0  0  0  0  0  0  0  0  0  0  0
   38.6946   -7.0255   -7.5467 N   0  0  0  0  0  0  0  0  0  0  0  0
   39.1109   -5.7383   -7.0238 C   0  0  0  0  0  0  0  0  0  0  0  0
   38.7983   -4.7096   -8.0608 C   0  0  0  0  0  0  0  0  0  0  0  0
   38.2265   -5.0240   -9.1580 O   0  0  0  0  0  0  0  0  0  0  0  0
   39.1092   -3.3361   -7.9022 N   0  0  0  0  0  0  0  0  0  0  0  0
   38.7358   -2.3618   -8.9219 C   0  0  1  0  0  0  0  0  0  0  0  0
   39.0022   -0.9571   -8.4414 C   0  0  0  0  0  0  0  0  0  0  0  0
   38.2141   -0.6341   -7.2444 C   0  0  0  0  0  0  0  0  0  0  0  0
   36.9534   -0.7733   -7.2808 O   0  0  0  0  0  0  0  0  0  0  0  0
   39.5445   -2.7005  -10.1474 C   0  0  0  0  0  0  0  0  0  0  0  0
   38.9861   -2.4682  -11.4210 O   0  0  0  0  0  0  0  0  0  0  0  0
   38.7455   -0.1781   -6.0551 O   0  0  0  0  0  0  0  0  0  0  0  0
   40.6873   -3.1777  -10.1085 O   0  0  0  0  0  0  0  0  0  0  0  0
  1  2  1  0
  3  5  1  0
  3  2  1  0
  3  4  1  6
  5  6  1  6
  7  5  1  0
  7  8  2  0
  9  7  1  0
 10  9  1  0
 11 10  1  0
 12 11  2  0
 13 11  1  0
 14 13  1  0
 14 15  1  1
 15 16  1  0
 16 17  2  0
 18 14  1  0
 19 18  1  0
 20 16  1  0
 21 18  2  0
M  END
$$$$
