IGD.pdb
     RDKit          3D

 21 20  0  0  1  0  0  0  0  0999 V2000
   28.6958  -19.5189   -2.9648 C   0  0  0  0  0  0  0  0  0  0  0  0
   28.7920  -18.8043   -4.3203 C   0  0  0  0  0  0  0  0  0  0  0  0
   28.3221  -19.7814   -5.3455 C   0  0  2  0  0  0  0  0  0  0  0  0
   29.1673  -21.0399   -5.2089 C   0  0  0  0  0  0  0  0  0  0  0  0
   28.3316  -19.2654   -6.7568 C   0  0  2  0  0  0  0  0  0  0  0  0
   27.6241  -17.9908   -6.7343 N   0  0  0  0  0  0  0  0  0  0  0  0
   27.7564  -20.1942   -7.7457 C   0  0  0  0  0  0  0  0  0  0  0  0
   28.1731  -21.3752   -7.8332 O   0  0  0  0  0  0  0  0  0  0  0  0
   26.7183  -19.7941   -8.6300 N   0  0  0  0  0  0  0  0  0  0  0  0
   26.1813  -20.6461   -9.6737 C   0  0  0  0  0  0  0  0  0  0  0  0
   24.7814  -20.1997   -9.9423 C   0  0  0  0  0  0  0  0  0  0  0  0
   24.4083  -19.0021   -9.7052 O   0  0  0  0  0  0  0  0  0  0  0  0
   23.7861  -21.0594  -10.4702 N   0  0  0  0  0  0  0  0  0  0  0  0
   22.5974  -20.5178  -11.1199 C   0  0  1  0  0  0  0  0  0  0  0  0
   22.8185  -20.3757  -12.6051 C   0  0  0  0  0  0  0  0  0  0  0  0
   21.6137  -19.8871  -13.2891 C   0  0  0  0  0  0  0  0  0  0  0  0
   20.7528  -19.2309  -12.6271 O   0  0  0  0  0  0  0  0  0  0  0  0
   21.4726  -21.4704  -10.8067 C   0  0  0  0  0  0  0  0  0  0  0  0
   20.2659  -20.9572  -10.2890 O   0  0  0  0  0  0  0  0  0  0  0  0
   21.3336  -20.0905  -14.6252 O   0  0  0  0  0  0  0  0  0  0  0  0
   21.5400  -22.6958  -10.9773 O   0  0  0  0  0  0  0  0  0  0  0  0
  1  2  1  0
  3  5  1  0
  3  2  1  0
  3  4  1  6
  5  6  1  1
  7  5  1  0
  7  8  2  0
  9  7  1  0
 10  9  1  0
 11 10  1  0
 12 11  2  0
 13 11  1  0
 14 13  1  0
 14 15  1  6
 15 16  1  0
 16 17  2  0
 18 14  1  0
 19 18  1  0
 20 16  1  0
 21 18  2  0
M  END
$$$$
