IGD.pdb
     RDKit          3D

 21 20  0  0  1  0  0  0  0  0999 V2000
   17.6627  -14.4511  -20.1149 C   0  0  0  0  0  0  0  0  0  0  0  0
   17.3908  -13.5364  -18.9122 C   0  0  0  0  0  0  0  0  0  0  0  0
   18.7192  -13.0283  -18.4609 C   0  0  2  0  0  0  0  0  0  0  0  0
   19.5584  -14.2284  -18.0460 C   0  0  0  0  0  0  0  0  0  0  0  0
   18.6603  -11.9971  -17.3696 C   0  0  2  0  0  0  0  0  0  0  0  0
   18.0170  -10.8228  -17.9465 N   0  0  0  0  0  0  0  0  0  0  0  0
   19.9679  -11.6688  -16.7745 C   0  0  0  0  0  0  0  0  0  0  0  0
   20.6282  -12.5409  -16.1586 O   0  0  0  0  0  0  0  0  0  0  0  0
   20.5270  -10.3660  -16.8731 N   0  0  0  0  0  0  0  0  0  0  0  0
   21.7521   -9.9667  -16.2072 C   0  0  0  0  0  0  0  0  0  0  0  0
   21.4148   -8.8443  -15.2811 C   0  0  0  0  0  0  0  0  0  0  0  0
   20.5957   -9.0028  -14.3148 O   0  0  0  0  0  0  0  0  0  0  0  0
   21.9708   -7.5470  -15.4078 N   0  0  0  0  0  0  0  0  0  0  0  0
   21.6603   -6.5018  -14.4385 C   0  0  1  0  0  0  0  0  0  0  0  0
   22.7454   -5.4544  -14.4165 C   0  0  0  0  0  0  0  0  0  0  0  0
   22.4796   -4.4182  -13.4097 C   0  0  0  0  0  0  0  0  0  0  0  0
   21.9454   -3.3268  -13.7750 O   0  0  0  0  0  0  0  0  0  0  0  0
   20.3299   -5.9255  -14.8488 C   0  0  0  0  0  0  0  0  0  0  0  0
   19.4809   -5.3916  -13.8578 O   0  0  0  0  0  0  0  0  0  0  0  0
   22.7727   -4.5366  -12.0662 O   0  0  0  0  0  0  0  0  0  0  0  0
   19.9263   -5.8895  -16.0197 O   0  0  0  0  0  0  0  0  0  0  0  0
  1  2  1  0
  3  5  1  0
  3  2  1  0
  3  4  1  1
  5  6  1  6
  7  5  1  0
  7  8  2  0
  9  7  1  0
 10  9  1  0
 11 10  1  0
 12 11  2  0
 13 11  1  0
 14 13  1  0
 14 15  1  6
 15 16  1  0
 16 17  2  0
 18 14  1  0
 19 18  1  0
 20 16  1  0
 21 18  2  0
M  END
$$$$
