IGD.pdb
     RDKit          3D

 21 20  0  0  1  0  0  0  0  0999 V2000
   17.1601  -15.4306  -19.4927 C   0  0  0  0  0  0  0  0  0  0  0  0
   18.1124  -14.9696  -18.3802 C   0  0  0  0  0  0  0  0  0  0  0  0
   18.4191  -13.5356  -18.6559 C   0  0  2  0  0  0  0  0  0  0  0  0
   19.0630  -13.4553  -20.0327 C   0  0  0  0  0  0  0  0  0  0  0  0
   19.2672  -12.8624  -17.6141 C   0  0  2  0  0  0  0  0  0  0  0  0
   18.4675  -12.8209  -16.3957 N   0  0  0  0  0  0  0  0  0  0  0  0
   19.7509  -11.5244  -17.9981 C   0  0  0  0  0  0  0  0  0  0  0  0
   20.5870  -11.3872  -18.9243 O   0  0  0  0  0  0  0  0  0  0  0  0
   19.2948  -10.3491  -17.3421 N   0  0  0  0  0  0  0  0  0  0  0  0
   19.8127   -9.0232  -17.6206 C   0  0  0  0  0  0  0  0  0  0  0  0
   20.0515   -8.3495  -16.3090 C   0  0  0  0  0  0  0  0  0  0  0  0
   19.5471   -8.8023  -15.2272 O   0  0  0  0  0  0  0  0  0  0  0  0
   20.8412   -7.1803  -16.1756 N   0  0  0  0  0  0  0  0  0  0  0  0
   21.0028   -6.5303  -14.8795 C   0  0  1  0  0  0  0  0  0  0  0  0
   22.2559   -5.6913  -14.8554 C   0  0  0  0  0  0  0  0  0  0  0  0
   22.3767   -4.9316  -13.6038 C   0  0  0  0  0  0  0  0  0  0  0  0
   22.3090   -5.5507  -12.4983 O   0  0  0  0  0  0  0  0  0  0  0  0
   19.7644   -5.6989  -14.6655 C   0  0  0  0  0  0  0  0  0  0  0  0
   18.9437   -5.3969  -15.7714 O   0  0  0  0  0  0  0  0  0  0  0  0
   22.5599   -3.5656  -13.5302 O   0  0  0  0  0  0  0  0  0  0  0  0
   19.4141   -5.2559  -13.5626 O   0  0  0  0  0  0  0  0  0  0  0  0
  1  2  1  0
  3  5  1  0
  3  2  1  0
  3  4  1  6
  5  6  1  1
  7  5  1  0
  7  8  2  0
  9  7  1  0
 10  9  1  0
 11 10  1  0
 12 11  2  0
 13 11  1  0
 14 13  1  0
 14 15  1  6
 15 16  1  0
 16 17  2  0
 18 14  1  0
 19 18  1  0
 20 16  1  0
 21 18  2  0
M  END
$$$$
