IGD.pdb
     RDKit          3D

 21 20  0  0  1  0  0  0  0  0999 V2000
   17.4144  -15.2687  -16.8114 C   0  0  0  0  0  0  0  0  0  0  0  0
   17.8681  -13.9704  -17.4938 C   0  0  0  0  0  0  0  0  0  0  0  0
   18.3070  -13.0524  -16.4024 C   0  0  2  0  0  0  0  0  0  0  0  0
   17.1214  -12.8366  -15.4727 C   0  0  0  0  0  0  0  0  0  0  0  0
   18.8798  -11.7452  -16.8726 C   0  0  2  0  0  0  0  0  0  0  0  0
   20.0659  -12.0725  -17.6547 N   0  0  0  0  0  0  0  0  0  0  0  0
   19.1828  -10.7918  -15.7904 C   0  0  0  0  0  0  0  0  0  0  0  0
   18.2794  -10.3966  -15.0136 O   0  0  0  0  0  0  0  0  0  0  0  0
   20.4956  -10.2876  -15.5856 N   0  0  0  0  0  0  0  0  0  0  0  0
   20.8567   -9.4150  -14.4848 C   0  0  0  0  0  0  0  0  0  0  0  0
   20.7830   -8.0088  -14.9832 C   0  0  0  0  0  0  0  0  0  0  0  0
   20.4104   -7.7445  -16.1753 O   0  0  0  0  0  0  0  0  0  0  0  0
   21.1157   -6.8885  -14.1815 N   0  0  0  0  0  0  0  0  0  0  0  0
   21.0524   -5.5354  -14.7234 C   0  0  1  0  0  0  0  0  0  0  0  0
   19.7135   -4.9054  -14.4314 C   0  0  0  0  0  0  0  0  0  0  0  0
   19.6787   -3.4930  -14.8339 C   0  0  0  0  0  0  0  0  0  0  0  0
   19.4819   -3.2046  -16.0538 O   0  0  0  0  0  0  0  0  0  0  0  0
   22.1848   -4.7713  -14.0876 C   0  0  0  0  0  0  0  0  0  0  0  0
   22.9185   -5.3761  -13.0466 O   0  0  0  0  0  0  0  0  0  0  0  0
   19.8492   -2.4278  -13.9729 O   0  0  0  0  0  0  0  0  0  0  0  0
   22.5192   -3.6270  -14.4255 O   0  0  0  0  0  0  0  0  0  0  0  0
  1  2  1  0
  3  5  1  0
  3  2  1  0
  3  4  1  1
  5  6  1  1
  7  5  1  0
  7  8  2  0
  9  7  1  0
 10  9  1  0
 11 10  1  0
 12 11  2  0
 13 11  1  0
 14 13  1  0
 14 15  1  1
 15 16  1  0
 16 17  2  0
 18 14  1  0
 19 18  1  0
 20 16  1  0
 21 18  2  0
M  END
$$$$
