IGD.pdb
     RDKit          3D

 21 20  0  0  1  0  0  0  0  0999 V2000
   22.1146  -14.6655  -15.4007 C   0  0  0  0  0  0  0  0  0  0  0  0
   22.6713  -13.2450  -15.2295 C   0  0  0  0  0  0  0  0  0  0  0  0
   22.6187  -12.6070  -16.5774 C   0  0  2  0  0  0  0  0  0  0  0  0
   23.5023  -13.4217  -17.5112 C   0  0  0  0  0  0  0  0  0  0  0  0
   22.9930  -11.1519  -16.5994 C   0  0  2  0  0  0  0  0  0  0  0  0
   24.3210  -11.0590  -16.0047 N   0  0  0  0  0  0  0  0  0  0  0  0
   22.0271  -10.2671  -15.9243 C   0  0  0  0  0  0  0  0  0  0  0  0
   20.8811  -10.0858  -16.4037 O   0  0  0  0  0  0  0  0  0  0  0  0
   22.3512   -9.5912  -14.7169 N   0  0  0  0  0  0  0  0  0  0  0  0
   21.4338   -8.7098  -14.0203 C   0  0  0  0  0  0  0  0  0  0  0  0
   21.6014   -7.3414  -14.5953 C   0  0  0  0  0  0  0  0  0  0  0  0
   22.4331   -7.1130  -15.5366 O   0  0  0  0  0  0  0  0  0  0  0  0
   20.8617   -6.2199  -14.1443 N   0  0  0  0  0  0  0  0  0  0  0  0
   21.0793   -4.8983  -14.7226 C   0  0  1  0  0  0  0  0  0  0  0  0
   19.9359   -3.9737  -14.3869 C   0  0  0  0  0  0  0  0  0  0  0  0
   18.6718   -4.4381  -14.9739 C   0  0  0  0  0  0  0  0  0  0  0  0
   18.6994   -5.0768  -16.0700 O   0  0  0  0  0  0  0  0  0  0  0  0
   22.3876   -4.4018  -14.1637 C   0  0  0  0  0  0  0  0  0  0  0  0
   23.1332   -3.4599  -14.9017 O   0  0  0  0  0  0  0  0  0  0  0  0
   17.4258   -4.2292  -14.4184 O   0  0  0  0  0  0  0  0  0  0  0  0
   22.8590   -4.7732  -13.0796 O   0  0  0  0  0  0  0  0  0  0  0  0
  1  2  1  0
  3  5  1  0
  3  2  1  0
  3  4  1  6
  5  6  1  1
  7  5  1  0
  7  8  2  0
  9  7  1  0
 10  9  1  0
 11 10  1  0
 12 11  2  0
 13 11  1  0
 14 13  1  0
 14 15  1  1
 15 16  1  0
 16 17  2  0
 18 14  1  0
 19 18  1  0
 20 16  1  0
 21 18  2  0
M  END
$$$$
