IGD.pdb
     RDKit          3D

 21 20  0  0  1  0  0  0  0  0999 V2000
   19.7565  -14.1167  -20.0485 C   0  0  0  0  0  0  0  0  0  0  0  0
   20.8210  -13.0265  -19.8599 C   0  0  0  0  0  0  0  0  0  0  0  0
   20.4621  -12.2999  -18.6071 C   0  0  2  0  0  0  0  0  0  0  0  0
   19.0514  -11.7536  -18.7754 C   0  0  0  0  0  0  0  0  0  0  0  0
   21.4254  -11.2171  -18.2102 C   0  0  2  0  0  0  0  0  0  0  0  0
   22.7157  -11.8661  -18.0113 N   0  0  0  0  0  0  0  0  0  0  0  0
   21.0129  -10.4429  -17.0261 C   0  0  0  0  0  0  0  0  0  0  0  0
   19.8747   -9.9162  -16.9699 O   0  0  0  0  0  0  0  0  0  0  0  0
   21.8780  -10.2637  -15.9129 N   0  0  0  0  0  0  0  0  0  0  0  0
   21.4911   -9.5676  -14.7007 C   0  0  0  0  0  0  0  0  0  0  0  0
   21.5611   -8.1023  -14.9821 C   0  0  0  0  0  0  0  0  0  0  0  0
   22.2036   -7.6482  -15.9875 O   0  0  0  0  0  0  0  0  0  0  0  0
   20.9300   -7.1299  -14.1669 N   0  0  0  0  0  0  0  0  0  0  0  0
   20.9950   -5.7125  -14.5065 C   0  0  1  0  0  0  0  0  0  0  0  0
   19.6622   -5.0459  -14.2735 C   0  0  0  0  0  0  0  0  0  0  0  0
   19.7332   -3.5962  -14.4999 C   0  0  0  0  0  0  0  0  0  0  0  0
   19.2909   -3.1204  -15.5899 O   0  0  0  0  0  0  0  0  0  0  0  0
   22.0793   -5.1198  -13.6441 C   0  0  0  0  0  0  0  0  0  0  0  0
   22.5515   -5.8548  -12.5376 O   0  0  0  0  0  0  0  0  0  0  0  0
   20.2569   -2.6871  -13.6030 O   0  0  0  0  0  0  0  0  0  0  0  0
   22.5918   -4.0101  -13.8473 O   0  0  0  0  0  0  0  0  0  0  0  0
  1  2  1  0
  3  5  1  0
  3  2  1  0
  3  4  1  6
  5  6  1  1
  7  5  1  0
  7  8  2  0
  9  7  1  0
 10  9  1  0
 11 10  1  0
 12 11  2  0
 13 11  1  0
 14 13  1  0
 14 15  1  1
 15 16  1  0
 16 17  2  0
 18 14  1  0
 19 18  1  0
 20 16  1  0
 21 18  2  0
M  END
$$$$
