IGD.pdb
     RDKit          3D

 21 20  0  0  1  0  0  0  0  0999 V2000
   29.3567  -21.3681  -11.8792 C   0  0  0  0  0  0  0  0  0  0  0  0
   27.8255  -21.4804  -11.8779 C   0  0  0  0  0  0  0  0  0  0  0  0
   27.3270  -20.4277  -10.9453 C   0  0  2  0  0  0  0  0  0  0  0  0
   27.8879  -20.7292   -9.5628 C   0  0  0  0  0  0  0  0  0  0  0  0
   25.8325  -20.2761  -10.9093 C   0  0  2  0  0  0  0  0  0  0  0  0
   25.2994  -21.5545  -10.4542 N   0  0  0  0  0  0  0  0  0  0  0  0
   25.2345  -19.8574  -12.1894 C   0  0  0  0  0  0  0  0  0  0  0  0
   25.3539  -18.6757  -12.5959 O   0  0  0  0  0  0  0  0  0  0  0  0
   24.5069  -20.7651  -13.0057 N   0  0  0  0  0  0  0  0  0  0  0  0
   23.9215  -20.4030  -14.2824 C   0  0  0  0  0  0  0  0  0  0  0  0
   22.4369  -20.4276  -14.1191 C   0  0  0  0  0  0  0  0  0  0  0  0
   21.8894  -20.9530  -13.0925 O   0  0  0  0  0  0  0  0  0  0  0  0
   21.5471  -19.8787  -15.0759 N   0  0  0  0  0  0  0  0  0  0  0  0
   20.1027  -20.0017  -14.9115 C   0  0  1  0  0  0  0  0  0  0  0  0
   19.3852  -18.9025  -15.6543 C   0  0  0  0  0  0  0  0  0  0  0  0
   17.9298  -18.9843  -15.4722 C   0  0  0  0  0  0  0  0  0  0  0  0
   17.2000  -19.2802  -16.4672 O   0  0  0  0  0  0  0  0  0  0  0  0
   19.7322  -21.3669  -15.4306 C   0  0  0  0  0  0  0  0  0  0  0  0
   18.6673  -22.0636  -14.8236 O   0  0  0  0  0  0  0  0  0  0  0  0
   17.2749  -18.7578  -14.2786 O   0  0  0  0  0  0  0  0  0  0  0  0
   20.3118  -21.9267  -16.3718 O   0  0  0  0  0  0  0  0  0  0  0  0
  1  2  1  0
  3  5  1  0
  3  2  1  0
  3  4  1  1
  5  6  1  6
  7  5  1  0
  7  8  2  0
  9  7  1  0
 10  9  1  0
 11 10  1  0
 12 11  2  0
 13 11  1  0
 14 13  1  0
 14 15  1  6
 15 16  1  0
 16 17  2  0
 18 14  1  0
 19 18  1  0
 20 16  1  0
 21 18  2  0
M  END
$$$$
