IGD.pdb
     RDKit          3D

 21 20  0  0  1  0  0  0  0  0999 V2000
   15.9677  -14.5714  -16.1859 C   0  0  0  0  0  0  0  0  0  0  0  0
   16.9569  -13.5067  -16.6805 C   0  0  0  0  0  0  0  0  0  0  0  0
   16.6375  -12.2555  -15.9328 C   0  0  2  0  0  0  0  0  0  0  0  0
   15.1872  -11.8979  -16.2249 C   0  0  0  0  0  0  0  0  0  0  0  0
   17.5551  -11.1005  -16.2187 C   0  0  2  0  0  0  0  0  0  0  0  0
   18.8776  -11.4997  -15.7527 N   0  0  0  0  0  0  0  0  0  0  0  0
   17.1261   -9.8232  -15.6217 C   0  0  0  0  0  0  0  0  0  0  0  0
   16.0069   -9.3290  -15.9026 O   0  0  0  0  0  0  0  0  0  0  0  0
   17.9536   -9.1082  -14.7142 N   0  0  0  0  0  0  0  0  0  0  0  0
   17.5783   -7.8424  -14.1137 C   0  0  0  0  0  0  0  0  0  0  0  0
   18.7285   -7.3825  -13.2790 C   0  0  0  0  0  0  0  0  0  0  0  0
   19.1358   -8.0602  -12.2768 O   0  0  0  0  0  0  0  0  0  0  0  0
   19.4364   -6.1820  -13.5366 N   0  0  0  0  0  0  0  0  0  0  0  0
   20.8665   -6.2037  -13.8245 C   0  0  1  0  0  0  0  0  0  0  0  0
   21.1689   -7.1528  -14.9570 C   0  0  0  0  0  0  0  0  0  0  0  0
   22.5955   -7.1429  -15.3075 C   0  0  0  0  0  0  0  0  0  0  0  0
   23.3625   -8.0127  -14.7926 O   0  0  0  0  0  0  0  0  0  0  0  0
   21.2524   -4.7862  -14.1596 C   0  0  0  0  0  0  0  0  0  0  0  0
   22.5762   -4.3633  -13.9217 O   0  0  0  0  0  0  0  0  0  0  0  0
   23.1848   -6.2411  -16.1704 O   0  0  0  0  0  0  0  0  0  0  0  0
   20.4694   -3.9538  -14.6385 O   0  0  0  0  0  0  0  0  0  0  0  0
  1  2  1  0
  3  5  1  0
  3  2  1  0
  3  4  1  6
  5  6  1  1
  7  5  1  0
  7  8  2  0
  9  7  1  0
 10  9  1  0
 11 10  1  0
 12 11  2  0
 13 11  1  0
 14 13  1  0
 14 15  1  6
 15 16  1  0
 16 17  2  0
 18 14  1  0
 19 18  1  0
 20 16  1  0
 21 18  2  0
M  END
$$$$
