IGD.pdb
     RDKit          3D

 21 20  0  0  1  0  0  0  0  0999 V2000
   20.8652  -11.5449  -21.2783 C   0  0  0  0  0  0  0  0  0  0  0  0
   20.2757  -11.7976  -19.8834 C   0  0  0  0  0  0  0  0  0  0  0  0
   21.1218  -11.0300  -18.9235 C   0  0  2  0  0  0  0  0  0  0  0  0
   22.5211  -11.6279  -18.9575 C   0  0  0  0  0  0  0  0  0  0  0  0
   20.5853  -10.9701  -17.5211 C   0  0  2  0  0  0  0  0  0  0  0  0
   19.3106  -10.2665  -17.5973 N   0  0  0  0  0  0  0  0  0  0  0  0
   21.4992  -10.3449  -16.5487 C   0  0  0  0  0  0  0  0  0  0  0  0
   22.5275  -10.9487  -16.1563 O   0  0  0  0  0  0  0  0  0  0  0  0
   21.2552   -9.0476  -16.0222 N   0  0  0  0  0  0  0  0  0  0  0  0
   22.1385   -8.3847  -15.0819 C   0  0  0  0  0  0  0  0  0  0  0  0
   21.5054   -7.0835  -14.7114 C   0  0  0  0  0  0  0  0  0  0  0  0
   22.0040   -6.3357  -13.8049 O   0  0  0  0  0  0  0  0  0  0  0  0
   20.3270   -6.5960  -15.3297 N   0  0  0  0  0  0  0  0  0  0  0  0
   19.8762   -5.2267  -15.1060 C   0  0  1  0  0  0  0  0  0  0  0  0
   20.2255   -4.3505  -16.2829 C   0  0  0  0  0  0  0  0  0  0  0  0
   19.6679   -2.9991  -16.1382 C   0  0  0  0  0  0  0  0  0  0  0  0
   19.0617   -2.6942  -15.0659 O   0  0  0  0  0  0  0  0  0  0  0  0
   18.3879   -5.3021  -14.8824 C   0  0  0  0  0  0  0  0  0  0  0  0
   17.7234   -4.1921  -14.3220 O   0  0  0  0  0  0  0  0  0  0  0  0
   19.7492   -2.0103  -17.0976 O   0  0  0  0  0  0  0  0  0  0  0  0
   17.6983   -6.2924  -15.1635 O   0  0  0  0  0  0  0  0  0  0  0  0
  1  2  1  0
  3  5  1  0
  3  2  1  0
  3  4  1  1
  5  6  1  6
  7  5  1  0
  7  8  2  0
  9  7  1  0
 10  9  1  0
 11 10  1  0
 12 11  2  0
 13 11  1  0
 14 13  1  0
 14 15  1  6
 15 16  1  0
 16 17  2  0
 18 14  1  0
 19 18  1  0
 20 16  1  0
 21 18  2  0
M  END
$$$$
