FNY.pdb
     RDKit          3D

 32 33  0  0  1  0  0  0  0  0999 V2000
    6.2922  -18.1358   19.2387 N   0  0  0  0  0  0  0  0  0  0  0  0
    6.9324  -16.9400   19.7136 C   0  0  1  0  0  0  0  0  0  0  0  0
    6.0317  -16.1346   20.6456 C   0  0  0  0  0  0  0  0  0  0  0  0
    6.6730  -14.9172   21.1554 C   0  0  0  0  0  0  0  0  0  0  0  0
    6.8922  -14.7273   22.5055 C   0  0  0  0  0  0  0  0  0  0  0  0
    7.4986  -13.5631   22.9481 C   0  0  0  0  0  0  0  0  0  0  0  0
    7.8946  -12.5756   22.0701 C   0  0  0  0  0  0  0  0  0  0  0  0
    7.6811  -12.7497   20.7015 C   0  0  0  0  0  0  0  0  0  0  0  0
    7.0771  -13.9126   20.2733 C   0  0  0  0  0  0  0  0  0  0  0  0
    8.1501  -17.3111   20.4541 C   0  0  0  0  0  0  0  0  0  0  0  0
    8.0996  -18.2497   21.2753 O   0  0  0  0  0  0  0  0  0  0  0  0
   11.1080  -18.9755   18.7627 N   0  0  0  0  0  0  0  0  0  0  0  0
   11.9121  -17.8121   18.8557 C   0  0  0  0  0  0  0  0  0  0  0  0
   12.8351  -17.6866   17.9719 O   0  0  0  0  0  0  0  0  0  0  0  0
   11.7198  -16.7879   19.8993 C   0  0  0  0  0  0  0  0  0  0  0  0
   10.6165  -17.0193   20.8481 C   0  0  2  0  0  0  0  0  0  0  0  0
    9.3574  -16.6192   20.2423 N   0  0  0  0  0  0  0  0  0  0  0  0
   10.7275  -16.3940   22.1712 C   0  0  0  0  0  0  0  0  0  0  0  0
   10.2180  -15.2574   22.3360 O   0  0  0  0  0  0  0  0  0  0  0  0
    9.9317  -13.8849   30.1839 O   0  0  0  0  0  0  0  0  0  0  0  0
    9.9131  -14.4705   28.9191 C   0  0  0  0  0  0  0  0  0  0  0  0
    9.9947  -15.8306   28.7204 C   0  0  0  0  0  0  0  0  0  0  0  0
    9.9716  -16.3478   27.4424 C   0  0  0  0  0  0  0  0  0  0  0  0
    9.8663  -15.5055   26.3554 C   0  0  0  0  0  0  0  0  0  0  0  0
    9.8458  -16.1185   24.9882 C   0  0  0  0  0  0  0  0  0  0  0  0
   11.2842  -16.3262   24.5623 C   0  0  2  0  0  0  0  0  0  0  0  0
   11.3731  -16.9867   23.2819 N   0  0  0  0  0  0  0  0  0  0  0  0
   12.0440  -17.0855   25.5947 C   0  0  0  0  0  0  0  0  0  0  0  0
   11.8655  -18.3129   25.7779 O   0  0  0  0  0  0  0  0  0  0  0  0
    9.7828  -14.1403   26.5208 C   0  0  0  0  0  0  0  0  0  0  0  0
    9.8083  -13.6401   27.8237 C   0  0  0  0  0  0  0  0  0  0  0  0
   12.9676  -16.3952   26.3600 O   0  0  0  0  0  0  0  0  0  0  0  0
  2  1  1  1
  3  4  1  0
  3  2  1  0
  4  5  2  0
  5  6  1  0
  7  6  2  0
  8  7  1  0
  9  4  1  0
  9  8  2  0
 10  2  1  0
 10 17  1  0
 11 10  2  0
 12 13  1  0
 13 14  2  0
 15 13  1  0
 16 15  1  6
 16 17  1  0
 18 16  1  0
 18 27  1  0
 19 18  2  0
 20 21  1  0
 21 22  2  0
 21 31  1  0
 22 23  1  0
 23 24  2  0
 24 25  1  0
 26 25  1  1
 26 27  1  0
 26 28  1  0
 28 29  2  0
 28 32  1  0
 30 24  1  0
 31 30  2  0
M  END
$$$$
