FNY.pdb
     RDKit          3D

 32 33  0  0  1  0  0  0  0  0999 V2000
    5.1807  -20.0065   21.8789 N   0  0  0  0  0  0  0  0  0  0  0  0
    5.8193  -18.7215   21.8007 C   0  0  1  0  0  0  0  0  0  0  0  0
    5.8686  -18.0185   23.1543 C   0  0  0  0  0  0  0  0  0  0  0  0
    6.3850  -16.6475   23.0720 C   0  0  0  0  0  0  0  0  0  0  0  0
    5.9770  -15.7804   22.0778 C   0  0  0  0  0  0  0  0  0  0  0  0
    6.4894  -14.4941   22.0322 C   0  0  0  0  0  0  0  0  0  0  0  0
    7.4063  -14.0481   22.9612 C   0  0  0  0  0  0  0  0  0  0  0  0
    7.8309  -14.9106   23.9736 C   0  0  0  0  0  0  0  0  0  0  0  0
    7.3136  -16.1879   24.0086 C   0  0  0  0  0  0  0  0  0  0  0  0
    7.2006  -18.9020   21.3230 C   0  0  0  0  0  0  0  0  0  0  0  0
    7.9267  -19.7564   21.8716 O   0  0  0  0  0  0  0  0  0  0  0  0
   10.8840  -19.4983   17.3171 N   0  0  0  0  0  0  0  0  0  0  0  0
   10.2075  -18.2626   17.4724 C   0  0  0  0  0  0  0  0  0  0  0  0
   10.7586  -17.2399   16.9254 O   0  0  0  0  0  0  0  0  0  0  0  0
    8.9402  -18.1320   18.2153 C   0  0  0  0  0  0  0  0  0  0  0  0
    9.0118  -18.3363   19.6727 C   0  0  2  0  0  0  0  0  0  0  0  0
    7.7003  -18.1236   20.2622 N   0  0  0  0  0  0  0  0  0  0  0  0
   10.0002  -17.5436   20.4134 C   0  0  0  0  0  0  0  0  0  0  0  0
   11.2171  -17.7187   20.1542 O   0  0  0  0  0  0  0  0  0  0  0  0
    8.3132  -12.9491   16.8290 O   0  0  0  0  0  0  0  0  0  0  0  0
    8.7690  -13.2775   18.1047 C   0  0  0  0  0  0  0  0  0  0  0  0
    7.9335  -13.3977   19.1925 C   0  0  0  0  0  0  0  0  0  0  0  0
    8.4475  -13.7249   20.4295 C   0  0  0  0  0  0  0  0  0  0  0  0
    9.8019  -13.9339   20.5843 C   0  0  0  0  0  0  0  0  0  0  0  0
   10.3089  -14.2869   21.9494 C   0  0  0  0  0  0  0  0  0  0  0  0
   10.7270  -15.7421   21.9161 C   0  0  2  0  0  0  0  0  0  0  0  0
    9.6755  -16.5894   21.4061 N   0  0  0  0  0  0  0  0  0  0  0  0
   11.1624  -16.2050   23.2636 C   0  0  0  0  0  0  0  0  0  0  0  0
   12.0930  -15.6424   23.8875 O   0  0  0  0  0  0  0  0  0  0  0  0
   10.6641  -13.8211   19.5156 C   0  0  0  0  0  0  0  0  0  0  0  0
   10.1208  -13.4890   18.2735 C   0  0  0  0  0  0  0  0  0  0  0  0
   10.5057  -17.2877   23.8220 O   0  0  0  0  0  0  0  0  0  0  0  0
  2  1  1  1
  3  4  1  0
  3  2  1  0
  4  5  2  0
  5  6  1  0
  7  6  2  0
  8  7  1  0
  9  4  1  0
  9  8  2  0
 10  2  1  0
 10 17  1  0
 11 10  2  0
 12 13  1  0
 13 14  2  0
 15 13  1  0
 16 15  1  6
 16 17  1  0
 18 16  1  0
 18 27  1  0
 19 18  2  0
 20 21  1  0
 21 22  2  0
 21 31  1  0
 22 23  1  0
 23 24  2  0
 24 25  1  0
 26 25  1  1
 26 27  1  0
 26 28  1  0
 28 29  2  0
 28 32  1  0
 30 24  1  0
 31 30  2  0
M  END
$$$$
