FNY.pdb
     RDKit          3D

 32 33  0  0  1  0  0  0  0  0999 V2000
    6.3886  -17.7010   18.5157 N   0  0  0  0  0  0  0  0  0  0  0  0
    7.0923  -16.6645   19.2197 C   0  0  1  0  0  0  0  0  0  0  0  0
    6.1975  -15.9349   20.2175 C   0  0  0  0  0  0  0  0  0  0  0  0
    6.9094  -14.9049   20.9827 C   0  0  0  0  0  0  0  0  0  0  0  0
    7.5150  -13.8316   20.3597 C   0  0  0  0  0  0  0  0  0  0  0  0
    8.1799  -12.8808   21.1167 C   0  0  0  0  0  0  0  0  0  0  0  0
    8.2565  -12.9752   22.4907 C   0  0  0  0  0  0  0  0  0  0  0  0
    7.6505  -14.0535   23.1382 C   0  0  0  0  0  0  0  0  0  0  0  0
    6.9916  -14.9929   22.3741 C   0  0  0  0  0  0  0  0  0  0  0  0
    8.2150  -17.2656   19.9592 C   0  0  0  0  0  0  0  0  0  0  0  0
    7.9997  -18.2494   20.6966 O   0  0  0  0  0  0  0  0  0  0  0  0
   11.3482  -19.4997   18.7769 N   0  0  0  0  0  0  0  0  0  0  0  0
   11.9293  -18.2107   18.6793 C   0  0  0  0  0  0  0  0  0  0  0  0
   12.5315  -17.9403   17.5779 O   0  0  0  0  0  0  0  0  0  0  0  0
   11.8599  -17.2173   19.7671 C   0  0  0  0  0  0  0  0  0  0  0  0
   10.6462  -17.2445   20.6020 C   0  0  2  0  0  0  0  0  0  0  0  0
    9.5157  -16.7412   19.8395 N   0  0  0  0  0  0  0  0  0  0  0  0
   10.7017  -16.5422   21.8895 C   0  0  0  0  0  0  0  0  0  0  0  0
   11.1903  -15.3850   21.9145 O   0  0  0  0  0  0  0  0  0  0  0  0
   10.4103  -13.5849   29.9761 O   0  0  0  0  0  0  0  0  0  0  0  0
   10.0982  -14.1214   28.7280 C   0  0  0  0  0  0  0  0  0  0  0  0
    9.7824  -13.3455   27.6352 C   0  0  0  0  0  0  0  0  0  0  0  0
    9.4821  -13.9381   26.4269 C   0  0  0  0  0  0  0  0  0  0  0  0
    9.4967  -15.3119   26.3059 C   0  0  0  0  0  0  0  0  0  0  0  0
    9.1627  -15.9053   24.9711 C   0  0  0  0  0  0  0  0  0  0  0  0
   10.4646  -16.3304   24.3247 C   0  0  2  0  0  0  0  0  0  0  0  0
   10.2401  -17.0820   23.1130 N   0  0  0  0  0  0  0  0  0  0  0  0
   11.3041  -17.1122   25.2754 C   0  0  0  0  0  0  0  0  0  0  0  0
   11.1274  -18.3398   25.4586 O   0  0  0  0  0  0  0  0  0  0  0  0
    9.8086  -16.1158   27.3804 C   0  0  0  0  0  0  0  0  0  0  0  0
   10.1089  -15.4933   28.5931 C   0  0  0  0  0  0  0  0  0  0  0  0
   12.3010  -16.4428   25.9635 O   0  0  0  0  0  0  0  0  0  0  0  0
  2  1  1  1
  3  4  1  0
  3  2  1  0
  4  5  2  0
  5  6  1  0
  7  6  2  0
  8  7  1  0
  9  4  1  0
  9  8  2  0
 10  2  1  0
 10 17  1  0
 11 10  2  0
 12 13  1  0
 13 14  2  0
 15 13  1  0
 16 15  1  6
 16 17  1  0
 18 16  1  0
 18 27  1  0
 19 18  2  0
 20 21  1  0
 21 22  2  0
 21 31  1  0
 22 23  1  0
 23 24  2  0
 24 25  1  0
 26 25  1  1
 26 27  1  0
 26 28  1  0
 28 29  2  0
 28 32  1  0
 30 24  1  0
 31 30  2  0
M  END
$$$$
