FNY.pdb
     RDKit          3D

 32 33  0  0  1  0  0  0  0  0999 V2000
    6.3433  -17.1994   25.2444 N   0  0  0  0  0  0  0  0  0  0  0  0
    6.5391  -16.7914   23.8804 C   0  0  1  0  0  0  0  0  0  0  0  0
    6.1481  -15.3340   23.6525 C   0  0  0  0  0  0  0  0  0  0  0  0
    6.7651  -14.4153   24.6160 C   0  0  0  0  0  0  0  0  0  0  0  0
    7.8413  -13.6220   24.2706 C   0  0  0  0  0  0  0  0  0  0  0  0
    8.3979  -12.7688   25.2094 C   0  0  0  0  0  0  0  0  0  0  0  0
    7.9038  -12.6871   26.4946 C   0  0  0  0  0  0  0  0  0  0  0  0
    6.8163  -13.4817   26.8624 C   0  0  0  0  0  0  0  0  0  0  0  0
    6.2709  -14.3264   25.9193 C   0  0  0  0  0  0  0  0  0  0  0  0
    7.9618  -16.9479   23.5337 C   0  0  0  0  0  0  0  0  0  0  0  0
    8.6530  -17.7757   24.1622 O   0  0  0  0  0  0  0  0  0  0  0  0
   12.1878  -17.0655   20.3340 N   0  0  0  0  0  0  0  0  0  0  0  0
   11.0992  -16.3501   19.7756 C   0  0  0  0  0  0  0  0  0  0  0  0
   11.1964  -16.0466   18.5317 O   0  0  0  0  0  0  0  0  0  0  0  0
    9.9099  -15.9641   20.5576 C   0  0  0  0  0  0  0  0  0  0  0  0
    9.8480  -16.4614   21.9432 C   0  0  2  0  0  0  0  0  0  0  0  0
    8.5394  -16.1763   22.5079 N   0  0  0  0  0  0  0  0  0  0  0  0
   10.8804  -15.9878   22.8726 C   0  0  0  0  0  0  0  0  0  0  0  0
   11.1635  -14.7637   22.8727 O   0  0  0  0  0  0  0  0  0  0  0  0
   10.9569  -14.7335   31.1664 O   0  0  0  0  0  0  0  0  0  0  0  0
   10.7880  -15.0840   29.8279 C   0  0  0  0  0  0  0  0  0  0  0  0
   10.5078  -16.3682   29.4179 C   0  0  0  0  0  0  0  0  0  0  0  0
   10.3527  -16.6503   28.0771 C   0  0  0  0  0  0  0  0  0  0  0  0
   10.4771  -15.6474   27.1387 C   0  0  0  0  0  0  0  0  0  0  0  0
   10.2995  -16.0071   25.6950 C   0  0  0  0  0  0  0  0  0  0  0  0
   11.6534  -16.4272   25.1619 C   0  0  2  0  0  0  0  0  0  0  0  0
   11.5839  -16.8201   23.7747 N   0  0  0  0  0  0  0  0  0  0  0  0
   12.2366  -17.5230   25.9858 C   0  0  0  0  0  0  0  0  0  0  0  0
   13.0915  -17.2988   26.8750 O   0  0  0  0  0  0  0  0  0  0  0  0
   10.7571  -14.3524   27.5168 C   0  0  0  0  0  0  0  0  0  0  0  0
   10.9099  -14.0911   28.8794 C   0  0  0  0  0  0  0  0  0  0  0  0
   11.8065  -18.8161   25.7449 O   0  0  0  0  0  0  0  0  0  0  0  0
  2  1  1  1
  3  4  1  0
  3  2  1  0
  4  5  2  0
  5  6  1  0
  7  6  2  0
  8  7  1  0
  9  4  1  0
  9  8  2  0
 10  2  1  0
 10 17  1  0
 11 10  2  0
 12 13  1  0
 13 14  2  0
 15 13  1  0
 16 15  1  6
 16 17  1  0
 18 16  1  0
 18 27  1  0
 19 18  2  0
 20 21  1  0
 21 22  2  0
 21 31  1  0
 22 23  1  0
 23 24  2  0
 24 25  1  0
 26 25  1  1
 26 27  1  0
 26 28  1  0
 28 29  2  0
 28 32  1  0
 30 24  1  0
 31 30  2  0
M  END
$$$$
