FNY.pdb
     RDKit          3D

 32 33  0  0  1  0  0  0  0  0999 V2000
    9.3773  -16.5929   20.5481 N   0  0  0  0  0  0  0  0  0  0  0  0
    9.2834  -16.8141   19.1313 C   0  0  1  0  0  0  0  0  0  0  0  0
    8.2294  -15.9253   18.4773 C   0  0  0  0  0  0  0  0  0  0  0  0
    8.2327  -14.5524   18.9952 C   0  0  0  0  0  0  0  0  0  0  0  0
    7.4355  -14.1799   20.0595 C   0  0  0  0  0  0  0  0  0  0  0  0
    7.4649  -12.8731   20.5182 C   0  0  0  0  0  0  0  0  0  0  0  0
    8.2761  -11.9210   19.9366 C   0  0  0  0  0  0  0  0  0  0  0  0
    9.0888  -12.2789   18.8594 C   0  0  0  0  0  0  0  0  0  0  0  0
    9.0510  -13.5823   18.4122 C   0  0  0  0  0  0  0  0  0  0  0  0
   10.5867  -16.5170   18.5132 C   0  0  0  0  0  0  0  0  0  0  0  0
   10.7683  -16.8011   17.3115 O   0  0  0  0  0  0  0  0  0  0  0  0
   14.7361  -14.5252   15.8980 N   0  0  0  0  0  0  0  0  0  0  0  0
   13.6088  -15.2754   16.3164 C   0  0  0  0  0  0  0  0  0  0  0  0
   13.3695  -16.3546   15.6629 O   0  0  0  0  0  0  0  0  0  0  0  0
   12.7433  -14.8618   17.4366 C   0  0  0  0  0  0  0  0  0  0  0  0
   12.9180  -15.5935   18.7035 C   0  0  2  0  0  0  0  0  0  0  0  0
   11.6173  -15.9205   19.2637 N   0  0  0  0  0  0  0  0  0  0  0  0
   13.7352  -14.9532   19.7408 C   0  0  0  0  0  0  0  0  0  0  0  0
   13.5210  -13.7433   20.0034 O   0  0  0  0  0  0  0  0  0  0  0  0
   11.6814  -18.8293   24.7588 O   0  0  0  0  0  0  0  0  0  0  0  0
   12.3150  -17.7241   24.1929 C   0  0  0  0  0  0  0  0  0  0  0  0
   11.7299  -16.9369   23.2266 C   0  0  0  0  0  0  0  0  0  0  0  0
   12.4105  -15.8566   22.7059 C   0  0  0  0  0  0  0  0  0  0  0  0
   13.6815  -15.5581   23.1503 C   0  0  0  0  0  0  0  0  0  0  0  0
   14.3774  -14.3738   22.5518 C   0  0  0  0  0  0  0  0  0  0  0  0
   15.3898  -14.8981   21.5549 C   0  0  2  0  0  0  0  0  0  0  0  0
   14.7547  -15.6085   20.4707 N   0  0  0  0  0  0  0  0  0  0  0  0
   16.4013  -15.7635   22.2239 C   0  0  0  0  0  0  0  0  0  0  0  0
   16.5443  -16.9711   21.9187 O   0  0  0  0  0  0  0  0  0  0  0  0
   14.2943  -16.3263   24.1160 C   0  0  0  0  0  0  0  0  0  0  0  0
   13.5859  -17.4146   24.6280 C   0  0  0  0  0  0  0  0  0  0  0  0
   17.1939  -15.1960   23.2062 O   0  0  0  0  0  0  0  0  0  0  0  0
  2  1  1  1
  3  4  1  0
  3  2  1  0
  4  5  2  0
  5  6  1  0
  7  6  2  0
  8  7  1  0
  9  4  1  0
  9  8  2  0
 10  2  1  0
 10 17  1  0
 11 10  2  0
 12 13  1  0
 13 14  2  0
 15 13  1  0
 16 15  1  6
 16 17  1  0
 18 16  1  0
 18 27  1  0
 19 18  2  0
 20 21  1  0
 21 22  2  0
 21 31  1  0
 22 23  1  0
 23 24  2  0
 24 25  1  0
 26 25  1  1
 26 27  1  0
 26 28  1  0
 28 29  2  0
 28 32  1  0
 30 24  1  0
 31 30  2  0
M  END
$$$$
