FNY.pdb
     RDKit          3D

 32 33  0  0  1  0  0  0  0  0999 V2000
    5.9854  -17.5891   25.6059 N   0  0  0  0  0  0  0  0  0  0  0  0
    7.1439  -16.7603   25.4159 C   0  0  1  0  0  0  0  0  0  0  0  0
    7.4717  -15.9339   26.6562 C   0  0  0  0  0  0  0  0  0  0  0  0
    6.9072  -14.5802   26.6114 C   0  0  0  0  0  0  0  0  0  0  0  0
    6.0438  -14.1249   27.5882 C   0  0  0  0  0  0  0  0  0  0  0  0
    5.5297  -12.8409   27.5094 C   0  0  0  0  0  0  0  0  0  0  0  0
    5.8581  -11.9933   26.4719 C   0  0  0  0  0  0  0  0  0  0  0  0
    6.7293  -12.4361   25.4749 C   0  0  0  0  0  0  0  0  0  0  0  0
    7.2344  -13.7157   25.5644 C   0  0  0  0  0  0  0  0  0  0  0  0
    8.3017  -17.6184   25.1129 C   0  0  0  0  0  0  0  0  0  0  0  0
    9.3880  -17.3984   25.6871 O   0  0  0  0  0  0  0  0  0  0  0  0
    6.3942  -19.9587   20.8975 N   0  0  0  0  0  0  0  0  0  0  0  0
    5.9715  -18.7033   21.4014 C   0  0  0  0  0  0  0  0  0  0  0  0
    4.8907  -18.2241   20.9002 O   0  0  0  0  0  0  0  0  0  0  0  0
    6.7130  -17.9683   22.4430 C   0  0  0  0  0  0  0  0  0  0  0  0
    8.0652  -18.4627   22.7560 C   0  0  2  0  0  0  0  0  0  0  0  0
    8.1901  -18.6740   24.1886 N   0  0  0  0  0  0  0  0  0  0  0  0
    9.1990  -17.6534   22.2941 C   0  0  0  0  0  0  0  0  0  0  0  0
    9.5612  -17.7668   21.0963 O   0  0  0  0  0  0  0  0  0  0  0  0
    7.4343  -13.9885   17.6695 O   0  0  0  0  0  0  0  0  0  0  0  0
    8.1680  -14.1016   18.8493 C   0  0  0  0  0  0  0  0  0  0  0  0
    7.6507  -13.7927   20.0874 C   0  0  0  0  0  0  0  0  0  0  0  0
    8.4294  -13.9255   21.2176 C   0  0  0  0  0  0  0  0  0  0  0  0
    9.7313  -14.3689   21.1144 C   0  0  0  0  0  0  0  0  0  0  0  0
   10.5346  -14.4953   22.3729 C   0  0  0  0  0  0  0  0  0  0  0  0
   10.9517  -15.9455   22.5014 C   0  0  2  0  0  0  0  0  0  0  0  0
    9.9175  -16.7480   23.1098 N   0  0  0  0  0  0  0  0  0  0  0  0
   12.2255  -16.0707   23.2641 C   0  0  0  0  0  0  0  0  0  0  0  0
   13.2428  -15.4009   22.9671 O   0  0  0  0  0  0  0  0  0  0  0  0
   10.2781  -14.6859   19.8902 C   0  0  0  0  0  0  0  0  0  0  0  0
    9.4708  -14.5435   18.7604 C   0  0  0  0  0  0  0  0  0  0  0  0
   12.2621  -16.9570   24.3263 O   0  0  0  0  0  0  0  0  0  0  0  0
  2  1  1  1
  3  4  1  0
  3  2  1  0
  4  5  2  0
  5  6  1  0
  7  6  2  0
  8  7  1  0
  9  4  1  0
  9  8  2  0
 10  2  1  0
 10 17  1  0
 11 10  2  0
 12 13  1  0
 13 14  2  0
 15 13  1  0
 16 15  1  1
 16 17  1  0
 18 16  1  0
 18 27  1  0
 19 18  2  0
 20 21  1  0
 21 22  2  0
 21 31  1  0
 22 23  1  0
 23 24  2  0
 24 25  1  0
 26 25  1  1
 26 27  1  0
 26 28  1  0
 28 29  2  0
 28 32  1  0
 30 24  1  0
 31 30  2  0
M  END
$$$$
