FNY.pdb
     RDKit          3D

 32 33  0  0  1  0  0  0  0  0999 V2000
    6.8754  -16.9621   22.0686 N   0  0  0  0  0  0  0  0  0  0  0  0
    8.2367  -16.7363   21.6673 C   0  0  1  0  0  0  0  0  0  0  0  0
    8.7629  -15.3864   22.1463 C   0  0  0  0  0  0  0  0  0  0  0  0
    8.1183  -14.2486   21.4806 C   0  0  0  0  0  0  0  0  0  0  0  0
    8.0817  -14.1429   20.1043 C   0  0  0  0  0  0  0  0  0  0  0  0
    7.4657  -13.0520   19.5130 C   0  0  0  0  0  0  0  0  0  0  0  0
    6.8809  -12.0558   20.2669 C   0  0  0  0  0  0  0  0  0  0  0  0
    6.9081  -12.1453   21.6599 C   0  0  0  0  0  0  0  0  0  0  0  0
    7.5238  -13.2357   22.2365 C   0  0  0  0  0  0  0  0  0  0  0  0
    9.0863  -17.7936   22.2409 C   0  0  0  0  0  0  0  0  0  0  0  0
    8.5915  -18.9182   22.4611 O   0  0  0  0  0  0  0  0  0  0  0  0
   11.1170  -19.2995   19.5178 N   0  0  0  0  0  0  0  0  0  0  0  0
   11.9191  -19.3894   20.6829 C   0  0  0  0  0  0  0  0  0  0  0  0
   13.1781  -19.1943   20.5229 O   0  0  0  0  0  0  0  0  0  0  0  0
   11.3634  -19.6887   22.0158 C   0  0  0  0  0  0  0  0  0  0  0  0
   11.3559  -18.5797   22.9858 C   0  0  2  0  0  0  0  0  0  0  0  0
   10.4391  -17.5441   22.5389 N   0  0  0  0  0  0  0  0  0  0  0  0
   12.6478  -17.9634   23.3102 C   0  0  0  0  0  0  0  0  0  0  0  0
   13.6882  -18.6523   23.1639 O   0  0  0  0  0  0  0  0  0  0  0  0
   10.1202  -14.4708   30.6666 O   0  0  0  0  0  0  0  0  0  0  0  0
   10.3384  -14.8311   29.3379 C   0  0  0  0  0  0  0  0  0  0  0  0
   10.6512  -13.9194   28.3546 C   0  0  0  0  0  0  0  0  0  0  0  0
   10.8546  -14.3403   27.0573 C   0  0  0  0  0  0  0  0  0  0  0  0
   10.7462  -15.6774   26.7372 C   0  0  0  0  0  0  0  0  0  0  0  0
   10.9768  -16.0820   25.3130 C   0  0  0  0  0  0  0  0  0  0  0  0
   12.4587  -16.3487   25.1510 C   0  0  2  0  0  0  0  0  0  0  0  0
   12.8037  -16.6379   23.7796 N   0  0  0  0  0  0  0  0  0  0  0  0
   12.9046  -17.4539   26.0452 C   0  0  0  0  0  0  0  0  0  0  0  0
   12.5009  -18.6311   25.8936 O   0  0  0  0  0  0  0  0  0  0  0  0
   10.4346  -16.6143   27.6981 C   0  0  0  0  0  0  0  0  0  0  0  0
   10.2330  -16.1645   29.0041 C   0  0  0  0  0  0  0  0  0  0  0  0
   13.7900  -17.1481   27.0639 O   0  0  0  0  0  0  0  0  0  0  0  0
  2  1  1  1
  3  4  1  0
  3  2  1  0
  4  5  2  0
  5  6  1  0
  7  6  2  0
  8  7  1  0
  9  4  1  0
  9  8  2  0
 10  2  1  0
 10 17  1  0
 11 10  2  0
 12 13  1  0
 13 14  2  0
 15 13  1  0
 16 15  1  6
 16 17  1  0
 18 16  1  0
 18 27  1  0
 19 18  2  0
 20 21  1  0
 21 22  2  0
 21 31  1  0
 22 23  1  0
 23 24  2  0
 24 25  1  0
 26 25  1  6
 26 27  1  0
 26 28  1  0
 28 29  2  0
 28 32  1  0
 30 24  1  0
 31 30  2  0
M  END
$$$$
