FNY.pdb
     RDKit          3D

 32 33  0  0  1  0  0  0  0  0999 V2000
    8.1717  -17.2698   20.3030 N   0  0  0  0  0  0  0  0  0  0  0  0
    9.4167  -16.5788   20.4974 C   0  0  1  0  0  0  0  0  0  0  0  0
    9.2483  -15.3084   21.3258 C   0  0  0  0  0  0  0  0  0  0  0  0
    8.3619  -14.3237   20.6951 C   0  0  0  0  0  0  0  0  0  0  0  0
    7.0342  -14.2102   21.0577 C   0  0  0  0  0  0  0  0  0  0  0  0
    6.2285  -13.2695   20.4372 C   0  0  0  0  0  0  0  0  0  0  0  0
    6.7182  -12.4329   19.4560 C   0  0  0  0  0  0  0  0  0  0  0  0
    8.0579  -12.5330   19.0760 C   0  0  0  0  0  0  0  0  0  0  0  0
    8.8497  -13.4727   19.7009 C   0  0  0  0  0  0  0  0  0  0  0  0
   10.3534  -17.4698   21.2027 C   0  0  0  0  0  0  0  0  0  0  0  0
    9.9021  -18.4411   21.8439 O   0  0  0  0  0  0  0  0  0  0  0  0
   15.5518  -20.2479   20.9973 N   0  0  0  0  0  0  0  0  0  0  0  0
   14.9572  -19.1129   21.6030 C   0  0  0  0  0  0  0  0  0  0  0  0
   15.4472  -18.7489   22.7327 O   0  0  0  0  0  0  0  0  0  0  0  0
   13.8376  -18.3735   20.9907 C   0  0  0  0  0  0  0  0  0  0  0  0
   12.7063  -18.0473   21.8765 C   0  0  2  0  0  0  0  0  0  0  0  0
   11.7402  -17.2335   21.1577 N   0  0  0  0  0  0  0  0  0  0  0  0
   13.0205  -17.3957   23.1535 C   0  0  0  0  0  0  0  0  0  0  0  0
   13.4441  -16.2131   23.1288 O   0  0  0  0  0  0  0  0  0  0  0  0
    9.6646  -13.2784   29.5659 O   0  0  0  0  0  0  0  0  0  0  0  0
   10.0642  -14.0414   28.4699 C   0  0  0  0  0  0  0  0  0  0  0  0
   11.3491  -14.0290   27.9752 C   0  0  0  0  0  0  0  0  0  0  0  0
   11.6809  -14.8072   26.8863 C   0  0  0  0  0  0  0  0  0  0  0  0
   10.7275  -15.6029   26.2864 C   0  0  0  0  0  0  0  0  0  0  0  0
   11.1400  -16.4289   25.1062 C   0  0  0  0  0  0  0  0  0  0  0  0
   12.3632  -17.2235   25.5136 C   0  0  2  0  0  0  0  0  0  0  0  0
   12.8784  -18.0114   24.4193 N   0  0  0  0  0  0  0  0  0  0  0  0
   12.0709  -18.0914   26.6888 C   0  0  0  0  0  0  0  0  0  0  0  0
   12.6525  -17.9339   27.7883 O   0  0  0  0  0  0  0  0  0  0  0  0
    9.4333  -15.6374   26.7575 C   0  0  0  0  0  0  0  0  0  0  0  0
    9.1210  -14.8411   27.8606 C   0  0  0  0  0  0  0  0  0  0  0  0
   11.1267  -19.0919   26.5385 O   0  0  0  0  0  0  0  0  0  0  0  0
  2  1  1  1
  3  4  1  0
  3  2  1  0
  4  5  2  0
  5  6  1  0
  7  6  2  0
  8  7  1  0
  9  4  1  0
  9  8  2  0
 10  2  1  0
 10 17  1  0
 11 10  2  0
 12 13  1  0
 13 14  2  0
 15 13  1  0
 16 15  1  6
 16 17  1  0
 18 16  1  0
 18 27  1  0
 19 18  2  0
 20 21  1  0
 21 22  2  0
 21 31  1  0
 22 23  1  0
 23 24  2  0
 24 25  1  0
 26 25  1  6
 26 27  1  0
 26 28  1  0
 28 29  2  0
 28 32  1  0
 30 24  1  0
 31 30  2  0
M  END
$$$$
