FNY.pdb
     RDKit          3D

 32 33  0  0  1  0  0  0  0  0999 V2000
    6.1965  -17.9775   25.1312 N   0  0  0  0  0  0  0  0  0  0  0  0
    6.8903  -16.7574   24.8225 C   0  0  1  0  0  0  0  0  0  0  0  0
    7.2601  -15.9708   26.0768 C   0  0  0  0  0  0  0  0  0  0  0  0
    6.9903  -14.5336   25.9551 C   0  0  0  0  0  0  0  0  0  0  0  0
    6.0172  -13.9145   26.7144 C   0  0  0  0  0  0  0  0  0  0  0  0
    5.7904  -12.5556   26.5690 C   0  0  0  0  0  0  0  0  0  0  0  0
    6.5159  -11.7931   25.6774 C   0  0  0  0  0  0  0  0  0  0  0  0
    7.5038  -12.4016   24.9008 C   0  0  0  0  0  0  0  0  0  0  0  0
    7.7203  -13.7543   25.0548 C   0  0  0  0  0  0  0  0  0  0  0  0
    8.1306  -17.0823   24.0982 C   0  0  0  0  0  0  0  0  0  0  0  0
    8.7184  -18.1543   24.3499 O   0  0  0  0  0  0  0  0  0  0  0  0
   10.9757  -17.0308   19.2521 N   0  0  0  0  0  0  0  0  0  0  0  0
   10.8865  -15.9227   20.1312 C   0  0  0  0  0  0  0  0  0  0  0  0
   11.8483  -15.0738   20.0757 O   0  0  0  0  0  0  0  0  0  0  0  0
    9.7624  -15.7319   21.0666 C   0  0  0  0  0  0  0  0  0  0  0  0
    9.8101  -16.5126   22.3152 C   0  0  2  0  0  0  0  0  0  0  0  0
    8.6507  -16.1989   23.1337 N   0  0  0  0  0  0  0  0  0  0  0  0
   11.0197  -16.3901   23.1372 C   0  0  0  0  0  0  0  0  0  0  0  0
   12.1117  -16.7734   22.6483 O   0  0  0  0  0  0  0  0  0  0  0  0
    9.3144  -17.1250   30.3546 O   0  0  0  0  0  0  0  0  0  0  0  0
   10.0536  -16.5321   29.3323 C   0  0  0  0  0  0  0  0  0  0  0  0
   11.2417  -17.0501   28.8676 C   0  0  0  0  0  0  0  0  0  0  0  0
   11.9260  -16.4147   27.8530 C   0  0  0  0  0  0  0  0  0  0  0  0
   11.4240  -15.2565   27.2974 C   0  0  0  0  0  0  0  0  0  0  0  0
   12.2066  -14.6055   26.1979 C   0  0  0  0  0  0  0  0  0  0  0  0
   12.3206  -15.6070   25.0675 C   0  0  2  0  0  0  0  0  0  0  0  0
   11.0413  -15.8665   24.4513 N   0  0  0  0  0  0  0  0  0  0  0  0
   12.9401  -16.8775   25.5383 C   0  0  0  0  0  0  0  0  0  0  0  0
   12.3229  -17.9681   25.5006 O   0  0  0  0  0  0  0  0  0  0  0  0
   10.2379  -14.7131   27.7403 C   0  0  0  0  0  0  0  0  0  0  0  0
    9.5633  -15.3738   28.7682 C   0  0  0  0  0  0  0  0  0  0  0  0
   14.2343  -16.8274   26.0261 O   0  0  0  0  0  0  0  0  0  0  0  0
  2  1  1  1
  3  4  1  0
  3  2  1  0
  4  5  2  0
  5  6  1  0
  7  6  2  0
  8  7  1  0
  9  4  1  0
  9  8  2  0
 10  2  1  0
 10 17  1  0
 11 10  2  0
 12 13  1  0
 13 14  2  0
 15 13  1  0
 16 15  1  6
 16 17  1  0
 18 16  1  0
 18 27  1  0
 19 18  2  0
 20 21  1  0
 21 22  2  0
 21 31  1  0
 22 23  1  0
 23 24  2  0
 24 25  1  0
 26 25  1  1
 26 27  1  0
 26 28  1  0
 28 29  2  0
 28 32  1  0
 30 24  1  0
 31 30  2  0
M  END
$$$$
