FNY.pdb
     RDKit          3D

 32 33  0  0  1  0  0  0  0  0999 V2000
    6.5304  -16.8745   22.3204 N   0  0  0  0  0  0  0  0  0  0  0  0
    7.0112  -17.0700   20.9803 C   0  0  1  0  0  0  0  0  0  0  0  0
    6.6434  -15.9094   20.0603 C   0  0  0  0  0  0  0  0  0  0  0  0
    7.0023  -14.5993   20.6153 C   0  0  0  0  0  0  0  0  0  0  0  0
    6.8591  -14.3207   21.9603 C   0  0  0  0  0  0  0  0  0  0  0  0
    7.2067  -13.0707   22.4459 C   0  0  0  0  0  0  0  0  0  0  0  0
    7.6972  -12.0839   21.6164 C   0  0  0  0  0  0  0  0  0  0  0  0
    7.8486  -12.3469   20.2537 C   0  0  0  0  0  0  0  0  0  0  0  0
    7.4996  -13.5945   19.7824 C   0  0  0  0  0  0  0  0  0  0  0  0
    8.4788  -17.1883   21.0111 C   0  0  0  0  0  0  0  0  0  0  0  0
    8.9943  -18.3083   21.2058 O   0  0  0  0  0  0  0  0  0  0  0  0
   10.5193  -13.8919   18.0043 N   0  0  0  0  0  0  0  0  0  0  0  0
   10.9533  -15.0551   18.6880 C   0  0  0  0  0  0  0  0  0  0  0  0
   10.9926  -16.1381   17.9994 O   0  0  0  0  0  0  0  0  0  0  0  0
   11.3437  -15.0484   20.1102 C   0  0  0  0  0  0  0  0  0  0  0  0
   10.7407  -16.0905   20.9594 C   0  0  2  0  0  0  0  0  0  0  0  0
    9.2939  -16.0562   20.8241 N   0  0  0  0  0  0  0  0  0  0  0  0
   11.0853  -16.0758   22.3859 C   0  0  0  0  0  0  0  0  0  0  0  0
   12.2924  -15.9328   22.7042 O   0  0  0  0  0  0  0  0  0  0  0  0
   11.5229  -15.3126   30.9548 O   0  0  0  0  0  0  0  0  0  0  0  0
   11.0390  -15.3446   29.6479 C   0  0  0  0  0  0  0  0  0  0  0  0
   10.5202  -16.4802   29.0673 C   0  0  0  0  0  0  0  0  0  0  0  0
   10.0578  -16.4464   27.7687 C   0  0  0  0  0  0  0  0  0  0  0  0
   10.1121  -15.2744   27.0437 C   0  0  0  0  0  0  0  0  0  0  0  0
    9.5968  -15.2915   25.6368 C   0  0  0  0  0  0  0  0  0  0  0  0
   10.6033  -16.0467   24.7939 C   0  0  2  0  0  0  0  0  0  0  0  0
   10.1459  -16.2126   23.4349 N   0  0  0  0  0  0  0  0  0  0  0  0
   10.9252  -17.3687   25.4009 C   0  0  0  0  0  0  0  0  0  0  0  0
   10.2189  -18.3829   25.1904 O   0  0  0  0  0  0  0  0  0  0  0  0
   10.6254  -14.1213   27.5961 C   0  0  0  0  0  0  0  0  0  0  0  0
   11.0874  -14.1800   28.9120 C   0  0  0  0  0  0  0  0  0  0  0  0
   12.0405  -17.4549   26.2158 O   0  0  0  0  0  0  0  0  0  0  0  0
  2  1  1  1
  3  4  1  0
  3  2  1  0
  4  5  2  0
  5  6  1  0
  7  6  2  0
  8  7  1  0
  9  4  1  0
  9  8  2  0
 10  2  1  0
 10 17  1  0
 11 10  2  0
 12 13  1  0
 13 14  2  0
 15 13  1  0
 16 15  1  6
 16 17  1  0
 18 16  1  0
 18 27  1  0
 19 18  2  0
 20 21  1  0
 21 22  2  0
 21 31  1  0
 22 23  1  0
 23 24  2  0
 24 25  1  0
 26 25  1  1
 26 27  1  0
 26 28  1  0
 28 29  2  0
 28 32  1  0
 30 24  1  0
 31 30  2  0
M  END
$$$$
