FNY.pdb
     RDKit          3D

 32 33  0  0  1  0  0  0  0  0999 V2000
    6.2810  -18.3155   21.9068 N   0  0  0  0  0  0  0  0  0  0  0  0
    7.1853  -17.1985   21.9045 C   0  0  1  0  0  0  0  0  0  0  0  0
    6.6574  -16.0273   22.7280 C   0  0  0  0  0  0  0  0  0  0  0  0
    6.9829  -14.7208   22.1445 C   0  0  0  0  0  0  0  0  0  0  0  0
    6.8620  -13.5540   22.8731 C   0  0  0  0  0  0  0  0  0  0  0  0
    7.1767  -12.3393   22.2860 C   0  0  0  0  0  0  0  0  0  0  0  0
    7.6120  -12.2592   20.9796 C   0  0  0  0  0  0  0  0  0  0  0  0
    7.7402  -13.4282   20.2272 C   0  0  0  0  0  0  0  0  0  0  0  0
    7.4243  -14.6308   20.8225 C   0  0  0  0  0  0  0  0  0  0  0  0
    8.4729  -17.6241   22.4786 C   0  0  0  0  0  0  0  0  0  0  0  0
    8.5645  -18.7586   22.9911 O   0  0  0  0  0  0  0  0  0  0  0  0
   11.7061  -17.5113   20.3632 N   0  0  0  0  0  0  0  0  0  0  0  0
   12.3324  -16.5236   21.1637 C   0  0  0  0  0  0  0  0  0  0  0  0
   13.2947  -15.8736   20.6157 O   0  0  0  0  0  0  0  0  0  0  0  0
   11.9207  -16.2387   22.5509 C   0  0  0  0  0  0  0  0  0  0  0  0
   10.8487  -17.0857   23.1026 C   0  0  2  0  0  0  0  0  0  0  0  0
    9.5886  -16.7665   22.4524 N   0  0  0  0  0  0  0  0  0  0  0  0
   10.6537  -17.0585   24.5570 C   0  0  0  0  0  0  0  0  0  0  0  0
   10.3694  -18.1353   25.1386 O   0  0  0  0  0  0  0  0  0  0  0  0
    6.5463  -10.8517   25.5149 O   0  0  0  0  0  0  0  0  0  0  0  0
    7.0274  -12.1364   25.7625 C   0  0  0  0  0  0  0  0  0  0  0  0
    6.2620  -13.2691   25.5982 C   0  0  0  0  0  0  0  0  0  0  0  0
    6.7973  -14.5124   25.8609 C   0  0  0  0  0  0  0  0  0  0  0  0
    8.1029  -14.6286   26.2898 C   0  0  0  0  0  0  0  0  0  0  0  0
    8.6358  -16.0024   26.5616 C   0  0  0  0  0  0  0  0  0  0  0  0
   10.1433  -15.8937   26.6580 C   0  0  2  0  0  0  0  0  0  0  0  0
   10.7644  -15.8956   25.3549 N   0  0  0  0  0  0  0  0  0  0  0  0
   10.7055  -16.9826   27.5053 C   0  0  0  0  0  0  0  0  0  0  0  0
   11.2152  -18.0133   27.0057 O   0  0  0  0  0  0  0  0  0  0  0  0
    8.8945  -13.5145   26.4640 C   0  0  0  0  0  0  0  0  0  0  0  0
    8.3308  -12.2669   26.1919 C   0  0  0  0  0  0  0  0  0  0  0  0
   10.6527  -16.8290   28.8797 O   0  0  0  0  0  0  0  0  0  0  0  0
  2  1  1  1
  3  4  1  0
  3  2  1  0
  4  5  2  0
  5  6  1  0
  7  6  2  0
  8  7  1  0
  9  4  1  0
  9  8  2  0
 10  2  1  0
 10 17  1  0
 11 10  2  0
 12 13  1  0
 13 14  2  0
 15 13  1  0
 16 15  1  1
 16 17  1  0
 18 16  1  0
 18 27  1  0
 19 18  2  0
 20 21  1  0
 21 22  2  0
 21 31  1  0
 22 23  1  0
 23 24  2  0
 24 25  1  0
 26 25  1  6
 26 27  1  0
 26 28  1  0
 28 29  2  0
 28 32  1  0
 30 24  1  0
 31 30  2  0
M  END
$$$$
