FNY.pdb
     RDKit          3D

 32 33  0  0  1  0  0  0  0  0999 V2000
    7.3437  -16.8767   25.4441 N   0  0  0  0  0  0  0  0  0  0  0  0
    6.5692  -16.9439   24.2354 C   0  0  1  0  0  0  0  0  0  0  0  0
    5.5338  -15.8262   24.1508 C   0  0  0  0  0  0  0  0  0  0  0  0
    6.0575  -14.5233   24.5765 C   0  0  0  0  0  0  0  0  0  0  0  0
    5.9255  -14.0821   25.8784 C   0  0  0  0  0  0  0  0  0  0  0  0
    6.4314  -12.8445   26.2411 C   0  0  0  0  0  0  0  0  0  0  0  0
    7.0704  -12.0296   25.3300 C   0  0  0  0  0  0  0  0  0  0  0  0
    7.2131  -12.4586   24.0091 C   0  0  0  0  0  0  0  0  0  0  0  0
    6.7059  -13.6921   23.6604 C   0  0  0  0  0  0  0  0  0  0  0  0
    7.4743  -16.8241   23.0799 C   0  0  0  0  0  0  0  0  0  0  0  0
    7.0193  -16.9993   21.9309 O   0  0  0  0  0  0  0  0  0  0  0  0
    8.6380  -16.4824   19.4892 N   0  0  0  0  0  0  0  0  0  0  0  0
    8.7233  -15.2102   20.1080 C   0  0  0  0  0  0  0  0  0  0  0  0
    8.2796  -14.2158   19.4274 O   0  0  0  0  0  0  0  0  0  0  0  0
    9.2854  -15.0126   21.4570 C   0  0  0  0  0  0  0  0  0  0  0  0
    9.7375  -16.2250   22.1618 C   0  0  2  0  0  0  0  0  0  0  0  0
    8.8354  -16.5162   23.2636 N   0  0  0  0  0  0  0  0  0  0  0  0
   11.1173  -16.2353   22.6616 C   0  0  0  0  0  0  0  0  0  0  0  0
   11.9244  -15.3926   22.1955 O   0  0  0  0  0  0  0  0  0  0  0  0
   11.0436  -14.9056   30.9952 O   0  0  0  0  0  0  0  0  0  0  0  0
   10.8969  -15.1452   29.6299 C   0  0  0  0  0  0  0  0  0  0  0  0
   10.8999  -14.1417   28.6871 C   0  0  0  0  0  0  0  0  0  0  0  0
   10.7495  -14.4450   27.3504 C   0  0  0  0  0  0  0  0  0  0  0  0
   10.5953  -15.7557   26.9499 C   0  0  0  0  0  0  0  0  0  0  0  0
   10.4353  -16.0311   25.4858 C   0  0  0  0  0  0  0  0  0  0  0  0
   11.7183  -16.6743   25.0020 C   0  0  2  0  0  0  0  0  0  0  0  0
   11.6051  -17.1347   23.6386 N   0  0  0  0  0  0  0  0  0  0  0  0
   12.1276  -17.7922   25.8978 C   0  0  0  0  0  0  0  0  0  0  0  0
   12.9857  -17.6378   26.7986 O   0  0  0  0  0  0  0  0  0  0  0  0
   10.5879  -16.7824   27.8687 C   0  0  0  0  0  0  0  0  0  0  0  0
   10.7418  -16.4510   29.2159 C   0  0  0  0  0  0  0  0  0  0  0  0
   11.5292  -19.0261   25.7115 O   0  0  0  0  0  0  0  0  0  0  0  0
  2  1  1  1
  3  4  1  0
  3  2  1  0
  4  5  2  0
  5  6  1  0
  7  6  2  0
  8  7  1  0
  9  4  1  0
  9  8  2  0
 10  2  1  0
 10 17  1  0
 11 10  2  0
 12 13  1  0
 13 14  2  0
 15 13  1  0
 16 15  1  1
 16 17  1  0
 18 16  1  0
 18 27  1  0
 19 18  2  0
 20 21  1  0
 21 22  2  0
 21 31  1  0
 22 23  1  0
 23 24  2  0
 24 25  1  0
 26 25  1  1
 26 27  1  0
 26 28  1  0
 28 29  2  0
 28 32  1  0
 30 24  1  0
 31 30  2  0
M  END
$$$$
