FNY.pdb
     RDKit          3D

 32 33  0  0  1  0  0  0  0  0999 V2000
    5.8655  -17.9769   23.7573 N   0  0  0  0  0  0  0  0  0  0  0  0
    6.5898  -16.7361   23.7229 C   0  0  1  0  0  0  0  0  0  0  0  0
    6.7780  -16.1393   25.1147 C   0  0  0  0  0  0  0  0  0  0  0  0
    6.6796  -14.6753   25.1309 C   0  0  0  0  0  0  0  0  0  0  0  0
    7.3452  -13.8963   24.2052 C   0  0  0  0  0  0  0  0  0  0  0  0
    7.2293  -12.5167   24.2548 C   0  0  0  0  0  0  0  0  0  0  0  0
    6.4600  -11.8901   25.2131 C   0  0  0  0  0  0  0  0  0  0  0  0
    5.7799  -12.6611   26.1576 C   0  0  0  0  0  0  0  0  0  0  0  0
    5.9028  -14.0329   26.0977 C   0  0  0  0  0  0  0  0  0  0  0  0
    7.9203  -16.9748   23.1385 C   0  0  0  0  0  0  0  0  0  0  0  0
    8.5641  -17.9862   23.4859 O   0  0  0  0  0  0  0  0  0  0  0  0
    9.2788  -17.3907   18.6466 N   0  0  0  0  0  0  0  0  0  0  0  0
    9.0092  -16.1346   19.2451 C   0  0  0  0  0  0  0  0  0  0  0  0
    7.9816  -15.5034   18.8042 O   0  0  0  0  0  0  0  0  0  0  0  0
    9.8462  -15.5624   20.3162 C   0  0  0  0  0  0  0  0  0  0  0  0
    9.7879  -16.2384   21.6241 C   0  0  2  0  0  0  0  0  0  0  0  0
    8.4633  -16.0771   22.2003 N   0  0  0  0  0  0  0  0  0  0  0  0
   10.7914  -15.8533   22.6234 C   0  0  0  0  0  0  0  0  0  0  0  0
   11.0817  -14.6361   22.7355 O   0  0  0  0  0  0  0  0  0  0  0  0
   11.5651  -14.8130   30.9259 O   0  0  0  0  0  0  0  0  0  0  0  0
   11.2771  -15.0887   29.5901 C   0  0  0  0  0  0  0  0  0  0  0  0
   10.8829  -16.3318   29.1484 C   0  0  0  0  0  0  0  0  0  0  0  0
   10.6131  -16.5400   27.8123 C   0  0  0  0  0  0  0  0  0  0  0  0
   10.7363  -15.5039   26.9104 C   0  0  0  0  0  0  0  0  0  0  0  0
   10.4314  -15.7832   25.4702 C   0  0  0  0  0  0  0  0  0  0  0  0
   11.6750  -16.3873   24.8518 C   0  0  2  0  0  0  0  0  0  0  0  0
   11.4591  -16.7643   23.4753 N   0  0  0  0  0  0  0  0  0  0  0  0
   12.1534  -17.5552   25.6436 C   0  0  0  0  0  0  0  0  0  0  0  0
   13.0647  -17.4466   26.4977 O   0  0  0  0  0  0  0  0  0  0  0  0
   11.1287  -14.2486   27.3208 C   0  0  0  0  0  0  0  0  0  0  0  0
   11.3964  -14.0620   28.6780 C   0  0  0  0  0  0  0  0  0  0  0  0
   11.5595  -18.7836   25.4127 O   0  0  0  0  0  0  0  0  0  0  0  0
  2  1  1  1
  3  4  1  0
  3  2  1  0
  4  5  2  0
  5  6  1  0
  7  6  2  0
  8  7  1  0
  9  4  1  0
  9  8  2  0
 10  2  1  0
 10 17  1  0
 11 10  2  0
 12 13  1  0
 13 14  2  0
 15 13  1  0
 16 15  1  6
 16 17  1  0
 18 16  1  0
 18 27  1  0
 19 18  2  0
 20 21  1  0
 21 22  2  0
 21 31  1  0
 22 23  1  0
 23 24  2  0
 24 25  1  0
 26 25  1  1
 26 27  1  0
 26 28  1  0
 28 29  2  0
 28 32  1  0
 30 24  1  0
 31 30  2  0
M  END
$$$$
