FNY.pdb
     RDKit          3D

 32 33  0  0  1  0  0  0  0  0999 V2000
    7.0801  -16.9970   20.8546 N   0  0  0  0  0  0  0  0  0  0  0  0
    8.4708  -16.6917   21.0490 C   0  0  1  0  0  0  0  0  0  0  0  0
    8.6735  -15.3867   21.8137 C   0  0  0  0  0  0  0  0  0  0  0  0
    8.0220  -14.2380   21.1741 C   0  0  0  0  0  0  0  0  0  0  0  0
    7.6239  -14.2769   19.8524 C   0  0  0  0  0  0  0  0  0  0  0  0
    7.0140  -13.1708   19.2835 C   0  0  0  0  0  0  0  0  0  0  0  0
    6.7899  -12.0175   20.0063 C   0  0  0  0  0  0  0  0  0  0  0  0
    7.1856  -11.9594   21.3439 C   0  0  0  0  0  0  0  0  0  0  0  0
    7.7913  -13.0665   21.8987 C   0  0  0  0  0  0  0  0  0  0  0  0
    9.0967  -17.7803   21.8184 C   0  0  0  0  0  0  0  0  0  0  0  0
    8.5690  -18.1502   22.8874 O   0  0  0  0  0  0  0  0  0  0  0  0
   13.1905  -18.7502   19.3181 N   0  0  0  0  0  0  0  0  0  0  0  0
   12.7174  -17.4149   19.3610 C   0  0  0  0  0  0  0  0  0  0  0  0
   13.0319  -16.6679   18.3651 O   0  0  0  0  0  0  0  0  0  0  0  0
   11.9074  -16.8884   20.4753 C   0  0  0  0  0  0  0  0  0  0  0  0
   11.5979  -17.8330   21.5629 C   0  0  2  0  0  0  0  0  0  0  0  0
   10.2746  -18.3986   21.3587 N   0  0  0  0  0  0  0  0  0  0  0  0
   11.6920  -17.3274   22.9375 C   0  0  0  0  0  0  0  0  0  0  0  0
   12.8248  -17.2872   23.4795 O   0  0  0  0  0  0  0  0  0  0  0  0
   10.8518  -14.3136   30.9634 O   0  0  0  0  0  0  0  0  0  0  0  0
   10.5402  -14.6633   29.6505 C   0  0  0  0  0  0  0  0  0  0  0  0
   10.5770  -13.7669   28.6060 C   0  0  0  0  0  0  0  0  0  0  0  0
   10.2566  -14.1761   27.3288 C   0  0  0  0  0  0  0  0  0  0  0  0
    9.8975  -15.4860   27.0900 C   0  0  0  0  0  0  0  0  0  0  0  0
    9.5585  -15.8788   25.6843 C   0  0  0  0  0  0  0  0  0  0  0  0
   10.8267  -16.3983   25.0398 C   0  0  2  0  0  0  0  0  0  0  0  0
   10.5878  -16.8792   23.6999 N   0  0  0  0  0  0  0  0  0  0  0  0
   11.4528  -17.4634   25.8723 C   0  0  0  0  0  0  0  0  0  0  0  0
   12.4292  -17.2281   26.6228 O   0  0  0  0  0  0  0  0  0  0  0  0
    9.8511  -16.4071   28.1136 C   0  0  0  0  0  0  0  0  0  0  0  0
   10.1795  -15.9696   29.3978 C   0  0  0  0  0  0  0  0  0  0  0  0
   10.9240  -18.7402   25.7989 O   0  0  0  0  0  0  0  0  0  0  0  0
  2  1  1  1
  3  4  1  0
  3  2  1  0
  4  5  2  0
  5  6  1  0
  7  6  2  0
  8  7  1  0
  9  4  1  0
  9  8  2  0
 10  2  1  0
 10 17  1  0
 11 10  2  0
 12 13  1  0
 13 14  2  0
 15 13  1  0
 16 15  1  6
 16 17  1  0
 18 16  1  0
 18 27  1  0
 19 18  2  0
 20 21  1  0
 21 22  2  0
 21 31  1  0
 22 23  1  0
 23 24  2  0
 24 25  1  0
 26 25  1  1
 26 27  1  0
 26 28  1  0
 28 29  2  0
 28 32  1  0
 30 24  1  0
 31 30  2  0
M  END
$$$$
