TYT.pdb
     RDKit          3D

 27 27  0  0  1  0  0  0  0  0999 V2000
   18.6741    2.3197  -18.5970 C   0  0  0  0  0  0  0  0  0  0  0  0
   19.2121    0.9377  -18.3577 C   0  0  1  0  0  0  0  0  0  0  0  0
   19.0965    0.1542  -19.4949 O   0  0  0  0  0  0  0  0  0  0  0  0
   20.6237    0.9660  -17.8109 C   0  0  2  0  0  0  0  0  0  0  0  0
   21.2324   -0.3151  -18.0334 N   0  0  0  0  0  0  0  0  0  0  0  0
   20.6510    1.3635  -16.3777 C   0  0  0  0  0  0  0  0  0  0  0  0
   19.7135    2.0613  -15.9553 O   0  0  0  0  0  0  0  0  0  0  0  0
   23.2153    1.9206   -7.8481 O   0  0  0  0  0  0  0  0  0  0  0  0
   22.9963    1.5256   -9.1834 C   0  0  0  0  0  0  0  0  0  0  0  0
   21.7451    1.1417   -9.6111 C   0  0  0  0  0  0  0  0  0  0  0  0
   21.5609    0.7589  -10.9283 C   0  0  0  0  0  0  0  0  0  0  0  0
   22.5902    0.7456  -11.8418 C   0  0  0  0  0  0  0  0  0  0  0  0
   22.3341    0.3348  -13.2130 C   0  0  0  0  0  0  0  0  0  0  0  0
   21.7622    1.4064  -14.1032 C   0  0  2  0  0  0  0  0  0  0  0  0
   21.6789    0.9911  -15.4817 N   0  0  0  0  0  0  0  0  0  0  0  0
   22.3413    2.7413  -13.9189 C   0  0  0  0  0  0  0  0  0  0  0  0
   23.4773    2.9927  -14.4055 O   0  0  0  0  0  0  0  0  0  0  0  0
   23.8423    1.1252  -11.4316 C   0  0  0  0  0  0  0  0  0  0  0  0
   24.0265    1.5121  -10.0983 C   0  0  0  0  0  0  0  0  0  0  0  0
   21.4583    6.1016  -15.1206 C   0  0  0  0  0  0  0  0  0  0  0  0
   21.4872    6.1628  -13.6097 C   0  0  1  0  0  0  0  0  0  0  0  0
   20.1994    5.9625  -13.1582 O   0  0  0  0  0  0  0  0  0  0  0  0
   22.4034    5.0964  -13.0303 C   0  0  2  0  0  0  0  0  0  0  0  0
   21.7231    3.8169  -13.2226 N   0  0  0  0  0  0  0  0  0  0  0  0
   22.5815    5.3625  -11.5869 C   0  0  0  0  0  0  0  0  0  0  0  0
   21.9952    4.6667  -10.7219 O   0  0  0  0  0  0  0  0  0  0  0  0
   23.3933    6.3776  -11.1375 O   0  0  0  0  0  0  0  0  0  0  0  0
  2  1  1  6
  2  3  1  0
  4  2  1  0
  4  5  1  1
  6  7  2  0
  6  4  1  0
  8  9  1  0
  9 10  2  0
 10 11  1  0
 12 11  2  0
 12 13  1  0
 14 13  1  1
 14 15  1  0
 15  6  1  0
 16 14  1  0
 17 16  2  0
 18 12  1  0
 19  9  1  0
 19 18  2  0
 21 22  1  0
 21 20  1  6
 23 21  1  0
 23 24  1  1
 24 16  1  0
 25 23  1  0
 26 25  2  0
 27 25  1  0
M  END
$$$$
