TYT.pdb
     RDKit          3D

 27 27  0  0  1  0  0  0  0  0999 V2000
   20.9656   -8.4666  -19.4230 C   0  0  0  0  0  0  0  0  0  0  0  0
   19.8937   -9.5151  -19.3319 C   0  0  1  0  0  0  0  0  0  0  0  0
   19.9854  -10.4141  -20.3825 O   0  0  0  0  0  0  0  0  0  0  0  0
   19.8822  -10.1977  -17.9805 C   0  0  2  0  0  0  0  0  0  0  0  0
   18.8649  -11.2107  -17.9819 N   0  0  0  0  0  0  0  0  0  0  0  0
   19.7060   -9.2213  -16.8721 C   0  0  0  0  0  0  0  0  0  0  0  0
   18.5657   -8.7651  -16.6820 O   0  0  0  0  0  0  0  0  0  0  0  0
   19.5015   -5.4946   -9.0457 O   0  0  0  0  0  0  0  0  0  0  0  0
   19.8813   -6.2347  -10.1836 C   0  0  0  0  0  0  0  0  0  0  0  0
   19.0731   -7.2327  -10.6803 C   0  0  0  0  0  0  0  0  0  0  0  0
   19.4729   -7.9423  -11.7993 C   0  0  0  0  0  0  0  0  0  0  0  0
   20.6611   -7.6890  -12.4458 C   0  0  0  0  0  0  0  0  0  0  0  0
   21.0261   -8.4677  -13.6185 C   0  0  0  0  0  0  0  0  0  0  0  0
   20.6148   -7.8661  -14.9364 C   0  0  2  0  0  0  0  0  0  0  0  0
   20.7591   -8.7911  -16.0332 N   0  0  0  0  0  0  0  0  0  0  0  0
   21.1618   -6.5325  -15.2079 C   0  0  0  0  0  0  0  0  0  0  0  0
   22.3992   -6.4046  -15.4153 O   0  0  0  0  0  0  0  0  0  0  0  0
   21.4774   -6.6983  -11.9636 C   0  0  0  0  0  0  0  0  0  0  0  0
   21.0709   -5.9815  -10.8312 C   0  0  0  0  0  0  0  0  0  0  0  0
   20.4517   -4.0619  -17.9342 C   0  0  0  0  0  0  0  0  0  0  0  0
   20.2494   -3.3607  -16.6095 C   0  0  1  0  0  0  0  0  0  0  0  0
   18.9033   -3.4083  -16.3122 O   0  0  0  0  0  0  0  0  0  0  0  0
   21.0416   -4.0345  -15.5002 C   0  0  2  0  0  0  0  0  0  0  0  0
   20.4051   -5.3292  -15.2643 N   0  0  0  0  0  0  0  0  0  0  0  0
   20.9531   -3.1985  -14.2840 C   0  0  0  0  0  0  0  0  0  0  0  0
   20.2552   -3.5530  -13.3025 O   0  0  0  0  0  0  0  0  0  0  0  0
   21.6295   -2.0055  -14.1805 O   0  0  0  0  0  0  0  0  0  0  0  0
  2  1  1  1
  2  3  1  0
  4  2  1  0
  4  5  1  6
  6  7  2  0
  6  4  1  0
  8  9  1  0
  9 10  2  0
 10 11  1  0
 12 11  2  0
 12 13  1  0
 14 13  1  1
 14 15  1  0
 15  6  1  0
 16 14  1  0
 17 16  2  0
 18 12  1  0
 19  9  1  0
 19 18  2  0
 21 22  1  0
 21 20  1  6
 23 21  1  0
 23 24  1  1
 24 16  1  0
 25 23  1  0
 26 25  2  0
 27 25  1  0
M  END
$$$$
