TYT.pdb
     RDKit          3D

 27 27  0  0  1  0  0  0  0  0999 V2000
   22.7840   -7.4488  -21.8797 C   0  0  0  0  0  0  0  0  0  0  0  0
   22.1431   -8.7319  -22.3266 C   0  0  1  0  0  0  0  0  0  0  0  0
   22.5729   -9.0882  -23.5950 O   0  0  0  0  0  0  0  0  0  0  0  0
   22.3318   -9.8420  -21.3145 C   0  0  2  0  0  0  0  0  0  0  0  0
   21.7227  -11.0392  -21.8212 N   0  0  0  0  0  0  0  0  0  0  0  0
   21.8045   -9.4624  -19.9763 C   0  0  0  0  0  0  0  0  0  0  0  0
   20.5778   -9.2969  -19.8661 O   0  0  0  0  0  0  0  0  0  0  0  0
   20.5448   -8.7141  -11.2721 O   0  0  0  0  0  0  0  0  0  0  0  0
   21.0675   -8.9707  -12.5558 C   0  0  0  0  0  0  0  0  0  0  0  0
   22.1310   -9.8280  -12.7279 C   0  0  0  0  0  0  0  0  0  0  0  0
   22.6224  -10.0601  -14.0008 C   0  0  0  0  0  0  0  0  0  0  0  0
   22.0854   -9.4618  -15.1177 C   0  0  0  0  0  0  0  0  0  0  0  0
   22.6444   -9.7467  -16.4296 C   0  0  0  0  0  0  0  0  0  0  0  0
   22.1460   -8.8609  -17.5408 C   0  0  2  0  0  0  0  0  0  0  0  0
   22.6201   -9.2823  -18.8359 N   0  0  0  0  0  0  0  0  0  0  0  0
   22.2847   -7.4213  -17.2970 C   0  0  0  0  0  0  0  0  0  0  0  0
   23.3973   -6.8653  -17.5057 O   0  0  0  0  0  0  0  0  0  0  0  0
   21.0257   -8.6053  -14.9632 C   0  0  0  0  0  0  0  0  0  0  0  0
   20.5300   -8.3718  -13.6744 C   0  0  0  0  0  0  0  0  0  0  0  0
   20.1564   -2.9758  -16.8006 C   0  0  0  0  0  0  0  0  0  0  0  0
   20.1102   -4.4706  -17.0264 C   0  0  1  0  0  0  0  0  0  0  0  0
   19.7918   -4.6838  -18.3514 O   0  0  0  0  0  0  0  0  0  0  0  0
   21.4492   -5.1191  -16.7120 C   0  0  2  0  0  0  0  0  0  0  0  0
   21.2494   -6.5621  -16.8346 N   0  0  0  0  0  0  0  0  0  0  0  0
   21.8236   -4.7766  -15.3234 C   0  0  0  0  0  0  0  0  0  0  0  0
   22.3708   -3.6802  -15.0507 O   0  0  0  0  0  0  0  0  0  0  0  0
   21.5874   -5.6417  -14.2806 O   0  0  0  0  0  0  0  0  0  0  0  0
  2  1  1  1
  2  3  1  0
  4  2  1  0
  4  5  1  6
  6  7  2  0
  6  4  1  0
  8  9  1  0
  9 10  2  0
 10 11  1  0
 12 11  2  0
 12 13  1  0
 14 13  1  1
 14 15  1  0
 15  6  1  0
 16 14  1  0
 17 16  2  0
 18 12  1  0
 19  9  1  0
 19 18  2  0
 21 22  1  0
 21 20  1  6
 23 21  1  0
 23 24  1  1
 24 16  1  0
 25 23  1  0
 26 25  2  0
 27 25  1  0
M  END
$$$$
