TYT.pdb
     RDKit          3D

 27 27  0  0  1  0  0  0  0  0999 V2000
   28.6605  -20.2521  -19.1595 C   0  0  0  0  0  0  0  0  0  0  0  0
   27.7050  -20.4771  -18.0224 C   0  0  1  0  0  0  0  0  0  0  0  0
   26.4092  -20.6412  -18.4855 O   0  0  0  0  0  0  0  0  0  0  0  0
   28.1504  -21.6114  -17.1239 C   0  0  2  0  0  0  0  0  0  0  0  0
   28.1282  -22.8341  -17.8760 N   0  0  0  0  0  0  0  0  0  0  0  0
   27.3248  -21.6923  -15.8891 C   0  0  0  0  0  0  0  0  0  0  0  0
   26.3142  -22.4150  -15.9181 O   0  0  0  0  0  0  0  0  0  0  0  0
   24.4861  -20.5463   -7.5275 O   0  0  0  0  0  0  0  0  0  0  0  0
   25.2469  -20.5378   -8.7141 C   0  0  0  0  0  0  0  0  0  0  0  0
   25.6128  -21.7147   -9.3279 C   0  0  0  0  0  0  0  0  0  0  0  0
   26.3600  -21.6745  -10.4923 C   0  0  0  0  0  0  0  0  0  0  0  0
   26.7584  -20.4910  -11.0707 C   0  0  0  0  0  0  0  0  0  0  0  0
   27.5412  -20.5131  -12.2960 C   0  0  0  0  0  0  0  0  0  0  0  0
   26.7943  -20.9693  -13.5215 C   0  0  2  0  0  0  0  0  0  0  0  0
   27.6288  -20.9958  -14.6973 N   0  0  0  0  0  0  0  0  0  0  0  0
   25.4930  -20.3257  -13.7310 C   0  0  0  0  0  0  0  0  0  0  0  0
   25.4389  -19.2374  -14.3659 O   0  0  0  0  0  0  0  0  0  0  0  0
   26.4020  -19.3102  -10.4717 C   0  0  0  0  0  0  0  0  0  0  0  0
   25.6460  -19.3531   -9.2936 C   0  0  0  0  0  0  0  0  0  0  0  0
   22.6520  -21.5799  -15.5277 C   0  0  0  0  0  0  0  0  0  0  0  0
   22.7665  -20.1571  -15.0274 C   0  0  1  0  0  0  0  0  0  0  0  0
   21.5890  -19.5089  -15.3370 O   0  0  0  0  0  0  0  0  0  0  0  0
   22.9924  -20.1159  -13.5242 C   0  0  2  0  0  0  0  0  0  0  0  0
   24.2435  -20.8292  -13.2737 N   0  0  0  0  0  0  0  0  0  0  0  0
   21.8708  -20.8139  -12.8604 C   0  0  0  0  0  0  0  0  0  0  0  0
   22.0597  -21.8671  -12.2037 O   0  0  0  0  0  0  0  0  0  0  0  0
   20.5824  -20.3385  -12.9355 O   0  0  0  0  0  0  0  0  0  0  0  0
  2  1  1  6
  2  3  1  0
  4  2  1  0
  4  5  1  6
  6  7  2  0
  6  4  1  0
  8  9  1  0
  9 10  2  0
 10 11  1  0
 12 11  2  0
 12 13  1  0
 14 13  1  1
 14 15  1  0
 15  6  1  0
 16 14  1  0
 17 16  2  0
 18 12  1  0
 19  9  1  0
 19 18  2  0
 21 22  1  0
 21 20  1  1
 23 21  1  0
 23 24  1  6
 24 16  1  0
 25 23  1  0
 26 25  2  0
 27 25  1  0
M  END
$$$$
