TYT.pdb
     RDKit          3D

 27 27  0  0  1  0  0  0  0  0999 V2000
   27.1491   -4.3023  -22.7698 C   0  0  0  0  0  0  0  0  0  0  0  0
   26.1827   -4.6634  -21.6779 C   0  0  1  0  0  0  0  0  0  0  0  0
   25.2315   -3.6703  -21.5059 O   0  0  0  0  0  0  0  0  0  0  0  0
   25.5662   -6.0290  -21.8956 C   0  0  2  0  0  0  0  0  0  0  0  0
   24.8407   -6.0175  -23.1344 N   0  0  0  0  0  0  0  0  0  0  0  0
   24.7153   -6.4384  -20.7461 C   0  0  0  0  0  0  0  0  0  0  0  0
   23.4852   -6.3078  -20.8646 O   0  0  0  0  0  0  0  0  0  0  0  0
   21.8258  -10.7298  -13.5444 O   0  0  0  0  0  0  0  0  0  0  0  0
   22.5577  -10.2486  -14.6488 C   0  0  0  0  0  0  0  0  0  0  0  0
   23.8762   -9.8753  -14.5149 C   0  0  0  0  0  0  0  0  0  0  0  0
   24.5690   -9.4065  -15.6176 C   0  0  0  0  0  0  0  0  0  0  0  0
   23.9874   -9.2961  -16.8600 C   0  0  0  0  0  0  0  0  0  0  0  0
   24.7676   -8.7979  -17.9814 C   0  0  0  0  0  0  0  0  0  0  0  0
   24.4304   -7.3974  -18.4204 C   0  0  2  0  0  0  0  0  0  0  0  0
   25.2304   -6.9628  -19.5388 N   0  0  0  0  0  0  0  0  0  0  0  0
   24.3383   -6.4124  -17.3375 C   0  0  0  0  0  0  0  0  0  0  0  0
   25.3927   -6.0307  -16.7605 O   0  0  0  0  0  0  0  0  0  0  0  0
   22.6750   -9.6638  -17.0099 C   0  0  0  0  0  0  0  0  0  0  0  0
   21.9758  -10.1379  -15.8929 C   0  0  0  0  0  0  0  0  0  0  0  0
   23.3011   -2.9795  -17.4596 C   0  0  0  0  0  0  0  0  0  0  0  0
   22.4766   -3.5857  -16.3459 C   0  0  1  0  0  0  0  0  0  0  0  0
   21.2419   -3.9099  -16.8684 O   0  0  0  0  0  0  0  0  0  0  0  0
   23.1379   -4.8348  -15.7850 C   0  0  2  0  0  0  0  0  0  0  0  0
   23.1337   -5.8244  -16.8609 N   0  0  0  0  0  0  0  0  0  0  0  0
   22.3317   -5.3231  -14.6459 C   0  0  0  0  0  0  0  0  0  0  0  0
   22.2785   -4.6829  -13.5672 O   0  0  0  0  0  0  0  0  0  0  0  0
   21.6113   -6.4920  -14.7233 O   0  0  0  0  0  0  0  0  0  0  0  0
  2  1  1  6
  2  3  1  0
  4  2  1  0
  4  5  1  6
  6  7  2  0
  6  4  1  0
  8  9  1  0
  9 10  2  0
 10 11  1  0
 12 11  2  0
 12 13  1  0
 14 13  1  1
 14 15  1  0
 15  6  1  0
 16 14  1  0
 17 16  2  0
 18 12  1  0
 19  9  1  0
 19 18  2  0
 21 22  1  0
 21 20  1  6
 23 21  1  0
 23 24  1  6
 24 16  1  0
 25 23  1  0
 26 25  2  0
 27 25  1  0
M  END
$$$$
