TYT.pdb
     RDKit          3D

 27 27  0  0  1  0  0  0  0  0999 V2000
   28.2140  -19.1013  -19.6490 C   0  0  0  0  0  0  0  0  0  0  0  0
   27.4211  -19.5205  -18.4440 C   0  0  1  0  0  0  0  0  0  0  0  0
   26.0918  -19.7346  -18.7721 O   0  0  0  0  0  0  0  0  0  0  0  0
   28.0453  -20.7064  -17.7394 C   0  0  2  0  0  0  0  0  0  0  0  0
   28.0977  -21.8129  -18.6527 N   0  0  0  0  0  0  0  0  0  0  0  0
   27.3225  -21.0437  -16.4838 C   0  0  0  0  0  0  0  0  0  0  0  0
   26.4484  -21.9252  -16.5412 O   0  0  0  0  0  0  0  0  0  0  0  0
   24.6344  -20.8601   -7.9850 O   0  0  0  0  0  0  0  0  0  0  0  0
   25.3615  -20.7054   -9.1826 C   0  0  0  0  0  0  0  0  0  0  0  0
   25.8405  -21.8007   -9.8656 C   0  0  0  0  0  0  0  0  0  0  0  0
   26.5512  -21.6172  -11.0390 C   0  0  0  0  0  0  0  0  0  0  0  0
   26.8029  -20.3683  -11.5594 C   0  0  0  0  0  0  0  0  0  0  0  0
   27.5544  -20.2394  -12.7977 C   0  0  0  0  0  0  0  0  0  0  0  0
   26.7976  -20.6139  -14.0446 C   0  0  2  0  0  0  0  0  0  0  0  0
   27.5772  -20.4185  -15.2419 N   0  0  0  0  0  0  0  0  0  0  0  0
   25.4351  -20.0774  -14.1287 C   0  0  0  0  0  0  0  0  0  0  0  0
   25.2699  -18.8477  -14.3548 O   0  0  0  0  0  0  0  0  0  0  0  0
   26.3326  -19.2672  -10.8912 C   0  0  0  0  0  0  0  0  0  0  0  0
   25.6138  -19.4552   -9.7041 C   0  0  0  0  0  0  0  0  0  0  0  0
   22.7111  -19.9974  -16.3716 C   0  0  0  0  0  0  0  0  0  0  0  0
   22.1514  -20.6273  -15.1156 C   0  0  1  0  0  0  0  0  0  0  0  0
   22.2369  -21.9963  -15.2605 O   0  0  0  0  0  0  0  0  0  0  0  0
   22.9317  -20.1941  -13.8845 C   0  0  2  0  0  0  0  0  0  0  0  0
   24.2416  -20.8366  -13.9771 N   0  0  0  0  0  0  0  0  0  0  0  0
   22.2175  -20.6731  -12.6819 C   0  0  0  0  0  0  0  0  0  0  0  0
   22.6860  -21.5986  -11.9748 O   0  0  0  0  0  0  0  0  0  0  0  0
   21.0176  -20.1255  -12.2922 O   0  0  0  0  0  0  0  0  0  0  0  0
  2  1  1  6
  2  3  1  0
  4  2  1  0
  4  5  1  6
  6  7  2  0
  6  4  1  0
  8  9  1  0
  9 10  2  0
 10 11  1  0
 12 11  2  0
 12 13  1  0
 14 13  1  1
 14 15  1  0
 15  6  1  0
 16 14  1  0
 17 16  2  0
 18 12  1  0
 19  9  1  0
 19 18  2  0
 21 22  1  0
 21 20  1  6
 23 21  1  0
 23 24  1  6
 24 16  1  0
 25 23  1  0
 26 25  2  0
 27 25  1  0
M  END
$$$$
