TYT.pdb
     RDKit          3D

 27 27  0  0  1  0  0  0  0  0999 V2000
   20.9236   -8.7527  -19.2860 C   0  0  0  0  0  0  0  0  0  0  0  0
   20.3028  -10.0882  -18.9898 C   0  0  1  0  0  0  0  0  0  0  0  0
   20.5676  -10.9964  -20.0024 O   0  0  0  0  0  0  0  0  0  0  0  0
   20.6994  -10.6069  -17.6238 C   0  0  2  0  0  0  0  0  0  0  0  0
   20.1391  -11.9165  -17.4449 N   0  0  0  0  0  0  0  0  0  0  0  0
   20.2995   -9.6684  -16.5411 C   0  0  0  0  0  0  0  0  0  0  0  0
   19.0935   -9.6084  -16.2470 O   0  0  0  0  0  0  0  0  0  0  0  0
   19.6218   -5.0738   -9.1596 O   0  0  0  0  0  0  0  0  0  0  0  0
   20.1042   -5.8319  -10.2456 C   0  0  0  0  0  0  0  0  0  0  0  0
   19.6220   -7.0973  -10.4944 C   0  0  0  0  0  0  0  0  0  0  0  0
   20.1151   -7.8175  -11.5685 C   0  0  0  0  0  0  0  0  0  0  0  0
   21.0808   -7.3151  -12.4105 C   0  0  0  0  0  0  0  0  0  0  0  0
   21.5582   -8.1195  -13.5239 C   0  0  0  0  0  0  0  0  0  0  0  0
   20.8483   -7.8840  -14.8310 C   0  0  2  0  0  0  0  0  0  0  0  0
   21.2125   -8.8502  -15.8377 N   0  0  0  0  0  0  0  0  0  0  0  0
   20.8652   -6.4963  -15.3057 C   0  0  0  0  0  0  0  0  0  0  0  0
   21.9607   -5.9776  -15.6540 O   0  0  0  0  0  0  0  0  0  0  0  0
   21.5713   -6.0563  -12.1763 C   0  0  0  0  0  0  0  0  0  0  0  0
   21.0711   -5.3293  -11.0890 C   0  0  0  0  0  0  0  0  0  0  0  0
   19.0330   -4.7316  -18.1604 C   0  0  0  0  0  0  0  0  0  0  0  0
   18.7419   -4.0194  -16.8583 C   0  0  1  0  0  0  0  0  0  0  0  0
   17.5481   -4.5094  -16.3713 O   0  0  0  0  0  0  0  0  0  0  0  0
   19.8453   -4.2569  -15.8392 C   0  0  2  0  0  0  0  0  0  0  0  0
   19.7262   -5.6514  -15.4171 N   0  0  0  0  0  0  0  0  0  0  0  0
   19.6223   -3.3588  -14.6862 C   0  0  0  0  0  0  0  0  0  0  0  0
   19.1536   -3.7942  -13.6060 O   0  0  0  0  0  0  0  0  0  0  0  0
   19.9188   -2.0174  -14.7514 O   0  0  0  0  0  0  0  0  0  0  0  0
  2  1  1  6
  2  3  1  0
  4  2  1  0
  4  5  1  1
  6  7  2  0
  6  4  1  0
  8  9  1  0
  9 10  2  0
 10 11  1  0
 12 11  2  0
 12 13  1  0
 14 13  1  1
 14 15  1  0
 15  6  1  0
 16 14  1  0
 17 16  2  0
 18 12  1  0
 19  9  1  0
 19 18  2  0
 21 22  1  0
 21 20  1  6
 23 21  1  0
 23 24  1  1
 24 16  1  0
 25 23  1  0
 26 25  2  0
 27 25  1  0
M  END
$$$$
