TYT.pdb
     RDKit          3D

 27 27  0  0  1  0  0  0  0  0999 V2000
   18.4779  -10.5953  -16.3595 C   0  0  0  0  0  0  0  0  0  0  0  0
   19.0863  -11.9463  -16.6073 C   0  0  1  0  0  0  0  0  0  0  0  0
   18.1106  -12.8863  -16.8988 O   0  0  0  0  0  0  0  0  0  0  0  0
   20.1758  -11.8931  -17.6572 C   0  0  2  0  0  0  0  0  0  0  0  0
   20.7179  -13.2113  -17.8296 N   0  0  0  0  0  0  0  0  0  0  0  0
   21.2218  -10.8922  -17.3148 C   0  0  0  0  0  0  0  0  0  0  0  0
   22.2398  -11.2999  -16.7302 O   0  0  0  0  0  0  0  0  0  0  0  0
   26.4247   -3.7535  -17.8838 O   0  0  0  0  0  0  0  0  0  0  0  0
   25.5851   -4.8767  -18.0260 C   0  0  0  0  0  0  0  0  0  0  0  0
   24.4871   -4.8383  -18.8559 C   0  0  0  0  0  0  0  0  0  0  0  0
   23.6811   -5.9572  -18.9749 C   0  0  0  0  0  0  0  0  0  0  0  0
   23.9344   -7.1231  -18.2892 C   0  0  0  0  0  0  0  0  0  0  0  0
   23.0516   -8.2665  -18.4569 C   0  0  0  0  0  0  0  0  0  0  0  0
   22.1158   -8.5236  -17.3053 C   0  0  2  0  0  0  0  0  0  0  0  0
   21.1169   -9.5156  -17.6179 N   0  0  0  0  0  0  0  0  0  0  0  0
   21.5773   -7.3204  -16.6621 C   0  0  0  0  0  0  0  0  0  0  0  0
   20.8080   -6.5644  -17.3156 O   0  0  0  0  0  0  0  0  0  0  0  0
   25.0241   -7.1776  -17.4586 C   0  0  0  0  0  0  0  0  0  0  0  0
   25.8382   -6.0444  -17.3396 C   0  0  0  0  0  0  0  0  0  0  0  0
   19.2817   -7.0373  -14.0163 C   0  0  0  0  0  0  0  0  0  0  0  0
   20.4132   -6.1337  -13.5799 C   0  0  1  0  0  0  0  0  0  0  0  0
   21.1934   -6.8407  -12.6888 O   0  0  0  0  0  0  0  0  0  0  0  0
   21.2600   -5.6960  -14.7647 C   0  0  2  0  0  0  0  0  0  0  0  0
   21.8462   -6.9116  -15.3264 N   0  0  0  0  0  0  0  0  0  0  0  0
   22.3283   -4.7994  -14.2740 C   0  0  0  0  0  0  0  0  0  0  0  0
   23.5326   -5.1536  -14.2944 O   0  0  0  0  0  0  0  0  0  0  0  0
   22.0459   -3.5478  -13.7789 O   0  0  0  0  0  0  0  0  0  0  0  0
  2  1  1  6
  2  3  1  0
  4  2  1  0
  4  5  1  1
  6  7  2  0
  6  4  1  0
  8  9  1  0
  9 10  2  0
 10 11  1  0
 12 11  2  0
 12 13  1  0
 14 13  1  6
 14 15  1  0
 15  6  1  0
 16 14  1  0
 17 16  2  0
 18 12  1  0
 19  9  1  0
 19 18  2  0
 21 22  1  0
 21 20  1  6
 23 21  1  0
 23 24  1  1
 24 16  1  0
 25 23  1  0
 26 25  2  0
 27 25  1  0
M  END
$$$$
