TYT.pdb
     RDKit          3D

 27 27  0  0  1  0  0  0  0  0999 V2000
   23.2185  -13.2691  -15.5478 C   0  0  0  0  0  0  0  0  0  0  0  0
   23.9013  -13.4017  -16.8793 C   0  0  1  0  0  0  0  0  0  0  0  0
   24.6604  -14.5597  -16.9368 O   0  0  0  0  0  0  0  0  0  0  0  0
   22.9247  -13.2877  -18.0307 C   0  0  2  0  0  0  0  0  0  0  0  0
   23.6267  -13.5308  -19.2592 N   0  0  0  0  0  0  0  0  0  0  0  0
   22.2240  -11.9754  -18.0303 C   0  0  0  0  0  0  0  0  0  0  0  0
   22.8493  -10.9883  -18.4535 O   0  0  0  0  0  0  0  0  0  0  0  0
   19.5735  -11.1933  -24.0220 O   0  0  0  0  0  0  0  0  0  0  0  0
   19.4025  -11.0646  -22.6288 C   0  0  0  0  0  0  0  0  0  0  0  0
   19.3843  -12.1736  -21.8131 C   0  0  0  0  0  0  0  0  0  0  0  0
   19.2146  -12.0155  -20.4486 C   0  0  0  0  0  0  0  0  0  0  0  0
   19.0611  -10.7790  -19.8643 C   0  0  0  0  0  0  0  0  0  0  0  0
   18.8881  -10.6767  -18.4241 C   0  0  0  0  0  0  0  0  0  0  0  0
   20.1655  -10.5555  -17.6357 C   0  0  2  0  0  0  0  0  0  0  0  0
   20.8970  -11.7969  -17.5776 N   0  0  0  0  0  0  0  0  0  0  0  0
   20.0334   -9.8824  -16.3392 C   0  0  0  0  0  0  0  0  0  0  0  0
   19.5741  -10.5244  -15.3556 O   0  0  0  0  0  0  0  0  0  0  0  0
   19.0770   -9.6645  -20.6630 C   0  0  0  0  0  0  0  0  0  0  0  0
   19.2488   -9.8267  -22.0433 C   0  0  0  0  0  0  0  0  0  0  0  0
   22.2172   -9.3787  -13.9631 C   0  0  0  0  0  0  0  0  0  0  0  0
   21.7099   -7.9683  -14.1655 C   0  0  1  0  0  0  0  0  0  0  0  0
   22.5637   -7.3393  -15.0475 O   0  0  0  0  0  0  0  0  0  0  0  0
   20.2980   -7.9639  -14.7301 C   0  0  2  0  0  0  0  0  0  0  0  0
   20.3879   -8.5303  -16.0747 N   0  0  0  0  0  0  0  0  0  0  0  0
   19.8239   -6.5653  -14.8012 C   0  0  0  0  0  0  0  0  0  0  0  0
   19.6831   -5.9835  -15.9046 O   0  0  0  0  0  0  0  0  0  0  0  0
   19.5194   -5.8506  -13.6663 O   0  0  0  0  0  0  0  0  0  0  0  0
  2  1  1  1
  2  3  1  0
  4  2  1  0
  4  5  1  6
  6  7  2  0
  6  4  1  0
  8  9  1  0
  9 10  2  0
 10 11  1  0
 12 11  2  0
 12 13  1  0
 14 13  1  1
 14 15  1  0
 15  6  1  0
 16 14  1  0
 17 16  2  0
 18 12  1  0
 19  9  1  0
 19 18  2  0
 21 22  1  0
 21 20  1  6
 23 21  1  0
 23 24  1  6
 24 16  1  0
 25 23  1  0
 26 25  2  0
 27 25  1  0
M  END
$$$$
