TYT.pdb
     RDKit          3D

 27 27  0  0  1  0  0  0  0  0999 V2000
   23.2266   -7.4274  -18.8547 C   0  0  0  0  0  0  0  0  0  0  0  0
   22.4655   -8.6720  -19.2132 C   0  0  1  0  0  0  0  0  0  0  0  0
   23.1003   -9.3690  -20.2288 O   0  0  0  0  0  0  0  0  0  0  0  0
   22.1867   -9.5347  -18.0006 C   0  0  2  0  0  0  0  0  0  0  0  0
   21.4772  -10.7097  -18.4213 N   0  0  0  0  0  0  0  0  0  0  0  0
   21.4574   -8.7816  -16.9451 C   0  0  0  0  0  0  0  0  0  0  0  0
   20.2402   -8.5925  -17.1091 O   0  0  0  0  0  0  0  0  0  0  0  0
   18.6054   -5.7824   -9.2028 O   0  0  0  0  0  0  0  0  0  0  0  0
   19.3734   -6.3507  -10.2391 C   0  0  0  0  0  0  0  0  0  0  0  0
   20.5220   -5.7370  -10.6863 C   0  0  0  0  0  0  0  0  0  0  0  0
   21.2552   -6.3192  -11.7056 C   0  0  0  0  0  0  0  0  0  0  0  0
   20.8796   -7.5024  -12.2996 C   0  0  0  0  0  0  0  0  0  0  0  0
   21.6926   -8.0659  -13.3655 C   0  0  0  0  0  0  0  0  0  0  0  0
   21.3953   -7.5344  -14.7428 C   0  0  2  0  0  0  0  0  0  0  0  0
   22.0729   -8.2759  -15.7776 N   0  0  0  0  0  0  0  0  0  0  0  0
   21.5076   -6.0788  -14.8843 C   0  0  0  0  0  0  0  0  0  0  0  0
   22.6362   -5.5321  -14.7510 O   0  0  0  0  0  0  0  0  0  0  0  0
   19.7382   -8.1261  -11.8656 C   0  0  0  0  0  0  0  0  0  0  0  0
   18.9977   -7.5354  -10.8341 C   0  0  0  0  0  0  0  0  0  0  0  0
   21.2481   -3.8645  -17.6958 C   0  0  0  0  0  0  0  0  0  0  0  0
   20.2398   -3.3598  -16.6877 C   0  0  1  0  0  0  0  0  0  0  0  0
   19.0185   -3.9184  -17.0021 O   0  0  0  0  0  0  0  0  0  0  0  0
   20.6308   -3.7504  -15.2711 C   0  0  2  0  0  0  0  0  0  0  0  0
   20.4301   -5.1948  -15.1694 N   0  0  0  0  0  0  0  0  0  0  0  0
   19.7372   -3.0480  -14.3256 C   0  0  0  0  0  0  0  0  0  0  0  0
   18.8180   -3.6582  -13.7267 O   0  0  0  0  0  0  0  0  0  0  0  0
   19.8780   -1.7048  -14.0659 O   0  0  0  0  0  0  0  0  0  0  0  0
  2  1  1  1
  2  3  1  0
  4  2  1  0
  4  5  1  6
  6  7  2  0
  6  4  1  0
  8  9  1  0
  9 10  2  0
 10 11  1  0
 12 11  2  0
 12 13  1  0
 14 13  1  1
 14 15  1  0
 15  6  1  0
 16 14  1  0
 17 16  2  0
 18 12  1  0
 19  9  1  0
 19 18  2  0
 21 22  1  0
 21 20  1  6
 23 21  1  0
 23 24  1  6
 24 16  1  0
 25 23  1  0
 26 25  2  0
 27 25  1  0
M  END
$$$$
