TYT.pdb
     RDKit          3D

 27 27  0  0  1  0  0  0  0  0999 V2000
   17.0796  -11.6140  -18.5734 C   0  0  0  0  0  0  0  0  0  0  0  0
   16.8294  -12.7906  -17.6735 C   0  0  1  0  0  0  0  0  0  0  0  0
   16.4344  -13.9007  -18.4031 O   0  0  0  0  0  0  0  0  0  0  0  0
   18.0121  -13.0765  -16.7725 C   0  0  2  0  0  0  0  0  0  0  0  0
   17.7113  -14.2236  -15.9634 N   0  0  0  0  0  0  0  0  0  0  0  0
   18.3811  -11.8895  -15.9553 C   0  0  0  0  0  0  0  0  0  0  0  0
   17.6142  -11.5639  -15.0332 O   0  0  0  0  0  0  0  0  0  0  0  0
   22.6777   -4.4898  -13.4051 O   0  0  0  0  0  0  0  0  0  0  0  0
   22.3181   -5.7852  -13.8290 C   0  0  0  0  0  0  0  0  0  0  0  0
   21.6711   -6.6534  -12.9785 C   0  0  0  0  0  0  0  0  0  0  0  0
   21.3308   -7.9191  -13.4233 C   0  0  0  0  0  0  0  0  0  0  0  0
   21.6158   -8.3527  -14.6979 C   0  0  0  0  0  0  0  0  0  0  0  0
   21.2313   -9.6939  -15.1079 C   0  0  0  0  0  0  0  0  0  0  0  0
   19.8087   -9.8323  -15.5820 C   0  0  2  0  0  0  0  0  0  0  0  0
   19.5477  -11.1217  -16.1727 N   0  0  0  0  0  0  0  0  0  0  0  0
   19.3049   -8.7039  -16.3721 C   0  0  0  0  0  0  0  0  0  0  0  0
   19.7060   -8.5546  -17.5584 O   0  0  0  0  0  0  0  0  0  0  0  0
   22.2598   -7.4999  -15.5572 C   0  0  0  0  0  0  0  0  0  0  0  0
   22.6032   -6.2198  -15.1051 C   0  0  0  0  0  0  0  0  0  0  0  0
   16.0596   -7.7387  -17.7506 C   0  0  0  0  0  0  0  0  0  0  0  0
   16.5087   -6.5886  -16.8770 C   0  0  1  0  0  0  0  0  0  0  0  0
   15.9221   -6.7496  -15.6391 O   0  0  0  0  0  0  0  0  0  0  0  0
   18.0217   -6.5666  -16.7263 C   0  0  2  0  0  0  0  0  0  0  0  0
   18.3741   -7.7302  -15.9146 N   0  0  0  0  0  0  0  0  0  0  0  0
   18.4066   -5.3243  -16.0232 C   0  0  0  0  0  0  0  0  0  0  0  0
   18.8002   -5.3489  -14.8313 O   0  0  0  0  0  0  0  0  0  0  0  0
   18.3495   -4.0989  -16.6447 O   0  0  0  0  0  0  0  0  0  0  0  0
  2  1  1  6
  2  3  1  0
  4  2  1  0
  4  5  1  1
  6  7  2  0
  6  4  1  0
  8  9  1  0
  9 10  2  0
 10 11  1  0
 12 11  2  0
 12 13  1  0
 14 13  1  6
 14 15  1  0
 15  6  1  0
 16 14  1  0
 17 16  2  0
 18 12  1  0
 19  9  1  0
 19 18  2  0
 21 22  1  0
 21 20  1  6
 23 21  1  0
 23 24  1  1
 24 16  1  0
 25 23  1  0
 26 25  2  0
 27 25  1  0
M  END
$$$$
