TYT.pdb
     RDKit          3D

 27 27  0  0  1  0  0  0  0  0999 V2000
   25.2511  -13.8056  -19.4715 C   0  0  0  0  0  0  0  0  0  0  0  0
   23.9304  -14.4973  -19.6553 C   0  0  1  0  0  0  0  0  0  0  0  0
   24.1084  -15.8198  -20.0292 O   0  0  0  0  0  0  0  0  0  0  0  0
   23.0398  -14.3505  -18.4397 C   0  0  2  0  0  0  0  0  0  0  0  0
   21.8623  -15.1498  -18.6289 N   0  0  0  0  0  0  0  0  0  0  0  0
   22.7169  -12.9250  -18.1628 C   0  0  0  0  0  0  0  0  0  0  0  0
   23.6643  -12.1528  -17.9383 O   0  0  0  0  0  0  0  0  0  0  0  0
   18.4804   -5.1378  -18.5348 O   0  0  0  0  0  0  0  0  0  0  0  0
   18.8651   -6.4891  -18.6487 C   0  0  0  0  0  0  0  0  0  0  0  0
   19.9885   -6.8470  -19.3597 C   0  0  0  0  0  0  0  0  0  0  0  0
   20.3409   -8.1821  -19.4539 C   0  0  0  0  0  0  0  0  0  0  0  0
   19.6054   -9.1813  -18.8585 C   0  0  0  0  0  0  0  0  0  0  0  0
   20.0273  -10.5666  -18.9917 C   0  0  0  0  0  0  0  0  0  0  0  0
   21.0619  -11.0166  -17.9942 C   0  0  2  0  0  0  0  0  0  0  0  0
   21.4006  -12.4105  -18.1425 N   0  0  0  0  0  0  0  0  0  0  0  0
   20.8053  -10.6118  -16.6080 C   0  0  0  0  0  0  0  0  0  0  0  0
   19.9546  -11.2476  -15.9278 O   0  0  0  0  0  0  0  0  0  0  0  0
   18.4838   -8.8413  -18.1468 C   0  0  0  0  0  0  0  0  0  0  0  0
   18.1290   -7.4899  -18.0527 C   0  0  0  0  0  0  0  0  0  0  0  0
   22.5468  -11.1179  -13.7793 C   0  0  0  0  0  0  0  0  0  0  0  0
   22.3283   -9.6228  -13.7140 C   0  0  1  0  0  0  0  0  0  0  0  0
   23.4655   -9.0122  -14.2003 O   0  0  0  0  0  0  0  0  0  0  0  0
   21.1271   -9.2024  -14.5464 C   0  0  2  0  0  0  0  0  0  0  0  0
   21.4470   -9.5363  -15.9332 N   0  0  0  0  0  0  0  0  0  0  0  0
   20.9457   -7.7418  -14.4069 C   0  0  0  0  0  0  0  0  0  0  0  0
   21.2139   -6.9615  -15.3531 O   0  0  0  0  0  0  0  0  0  0  0  0
   20.4776   -7.1834  -13.2405 O   0  0  0  0  0  0  0  0  0  0  0  0
  2  1  1  1
  2  3  1  0
  4  2  1  0
  4  5  1  6
  6  7  2  0
  6  4  1  0
  8  9  1  0
  9 10  2  0
 10 11  1  0
 12 11  2  0
 12 13  1  0
 14 13  1  6
 14 15  1  0
 15  6  1  0
 16 14  1  0
 17 16  2  0
 18 12  1  0
 19  9  1  0
 19 18  2  0
 21 22  1  0
 21 20  1  6
 23 21  1  0
 23 24  1  6
 24 16  1  0
 25 23  1  0
 26 25  2  0
 27 25  1  0
M  END
$$$$
