IMQ.pdb
     RDKit          3D

 26 25  0  0  1  0  0  0  0  0999 V2000
   19.3160  -15.5044  -16.4965 C   0  0  0  0  0  0  0  0  0  0  0  0
   19.1659  -14.2144  -17.2703 C   0  0  0  0  0  0  0  0  0  0  0  0
   19.6708  -13.0877  -16.3940 C   0  0  2  0  0  0  0  0  0  0  0  0
   18.8661  -13.0077  -15.1015 C   0  0  0  0  0  0  0  0  0  0  0  0
   19.5017  -11.7587  -17.1077 C   0  0  2  0  0  0  0  0  0  0  0  0
   20.1768  -11.8467  -18.3810 N   0  0  0  0  0  0  0  0  0  0  0  0
   20.1354  -10.7196  -16.2318 C   0  0  0  0  0  0  0  0  0  0  0  0
   19.7435  -10.5555  -15.0517 O   0  0  0  0  0  0  0  0  0  0  0  0
   26.5214  -11.0782  -14.6885 C   0  0  0  0  0  0  0  0  0  0  0  0
   25.6517   -9.7833  -15.5868 S   0  0  0  0  0  0  0  0  0  0  0  0
   23.8558   -9.8941  -15.2180 C   0  0  0  0  0  0  0  0  0  0  0  0
   23.1948   -8.8301  -16.0270 C   0  0  0  0  0  0  0  0  0  0  0  0
   21.7111   -8.7619  -15.9276 C   0  0  2  0  0  0  0  0  0  0  0  0
   21.1874   -9.8931  -16.6956 N   0  0  0  0  0  0  0  0  0  0  0  0
   21.1085   -7.5347  -16.5120 C   0  0  0  0  0  0  0  0  0  0  0  0
   21.1930   -7.4200  -17.7644 O   0  0  0  0  0  0  0  0  0  0  0  0
   15.8574   -4.4186  -15.3777 N   0  0  0  0  0  0  0  0  0  0  0  0
   16.2370   -5.8115  -15.4947 C   0  0  0  0  0  0  0  0  0  0  0  0
   15.3081   -6.6123  -15.2697 O   0  0  0  0  0  0  0  0  0  0  0  0
   17.6247   -6.1220  -15.8518 C   0  0  0  0  0  0  0  0  0  0  0  0
   18.5854   -5.0143  -15.9777 C   0  0  0  0  0  0  0  0  0  0  0  0
   19.9858   -5.3296  -16.3782 C   0  0  2  0  0  0  0  0  0  0  0  0
   20.4764   -6.5393  -15.7668 N   0  0  0  0  0  0  0  0  0  0  0  0
   20.9471   -4.2311  -16.3518 C   0  0  0  0  0  0  0  0  0  0  0  0
   22.0559   -4.3781  -15.7230 O   0  0  0  0  0  0  0  0  0  0  0  0
   20.7395   -3.0182  -16.9708 O   0  0  0  0  0  0  0  0  0  0  0  0
  1  2  1  0
  3  4  1  1
  3  2  1  0
  5  3  1  0
  5  6  1  6
  7  5  1  0
  8  7  2  0
  9 10  1  0
 10 11  1  0
 11 12  1  0
 13 12  1  6
 13 14  1  0
 14  7  1  0
 15 13  1  0
 15 16  2  0
 17 18  1  0
 18 19  2  0
 18 20  1  0
 20 21  1  0
 22 21  1  1
 22 23  1  0
 23 15  1  0
 24 22  1  0
 24 26  1  0
 25 24  2  0
M  END
$$$$
