IMQ.pdb
     RDKit          3D

 26 25  0  0  1  0  0  0  0  0999 V2000
   27.3613  -19.1319  -18.4808 C   0  0  0  0  0  0  0  0  0  0  0  0
   28.1494  -19.8636  -17.4183 C   0  0  0  0  0  0  0  0  0  0  0  0
   27.1805  -20.2938  -16.3374 C   0  0  2  0  0  0  0  0  0  0  0  0
   26.4608  -19.0866  -15.7467 C   0  0  0  0  0  0  0  0  0  0  0  0
   27.9327  -20.9641  -15.2021 C   0  0  2  0  0  0  0  0  0  0  0  0
   28.5985  -22.1296  -15.7345 N   0  0  0  0  0  0  0  0  0  0  0  0
   26.9070  -21.3493  -14.1784 C   0  0  0  0  0  0  0  0  0  0  0  0
   26.0914  -22.2736  -14.4096 O   0  0  0  0  0  0  0  0  0  0  0  0
   27.5100  -20.8711   -7.3949 C   0  0  0  0  0  0  0  0  0  0  0  0
   26.2272  -19.7859   -8.0406 S   0  0  0  0  0  0  0  0  0  0  0  0
   25.3952  -20.6096   -9.4558 C   0  0  0  0  0  0  0  0  0  0  0  0
   26.2898  -20.4241  -10.6343 C   0  0  0  0  0  0  0  0  0  0  0  0
   25.8357  -21.0551  -11.9038 C   0  0  2  0  0  0  0  0  0  0  0  0
   26.8194  -20.6937  -12.9264 N   0  0  0  0  0  0  0  0  0  0  0  0
   24.5161  -20.5767  -12.3940 C   0  0  0  0  0  0  0  0  0  0  0  0
   24.4653  -19.3704  -12.7563 O   0  0  0  0  0  0  0  0  0  0  0  0
   20.6185  -23.1479  -16.3575 N   0  0  0  0  0  0  0  0  0  0  0  0
   19.7760  -22.1039  -15.8114 C   0  0  0  0  0  0  0  0  0  0  0  0
   18.6646  -22.0045  -16.3676 O   0  0  0  0  0  0  0  0  0  0  0  0
   20.3008  -21.3019  -14.7019 C   0  0  0  0  0  0  0  0  0  0  0  0
   21.6012  -21.6693  -14.1191 C   0  0  0  0  0  0  0  0  0  0  0  0
   22.1258  -20.8597  -12.9832 C   0  0  2  0  0  0  0  0  0  0  0  0
   23.3718  -21.3708  -12.4695 N   0  0  0  0  0  0  0  0  0  0  0  0
   21.1751  -20.4842  -11.9409 C   0  0  0  0  0  0  0  0  0  0  0  0
   21.2423  -21.0511  -10.7918 O   0  0  0  0  0  0  0  0  0  0  0  0
   20.1868  -19.5398  -12.1114 O   0  0  0  0  0  0  0  0  0  0  0  0
  1  2  1  0
  3  4  1  1
  3  2  1  0
  5  3  1  0
  5  6  1  6
  7  5  1  0
  8  7  2  0
  9 10  1  0
 10 11  1  0
 11 12  1  0
 13 12  1  1
 13 14  1  0
 14  7  1  0
 15 13  1  0
 15 16  2  0
 17 18  1  0
 18 19  2  0
 18 20  1  0
 20 21  1  0
 22 21  1  6
 22 23  1  0
 23 15  1  0
 24 22  1  0
 24 26  1  0
 25 24  2  0
M  END
$$$$
