IMQ.pdb
     RDKit          3D

 26 25  0  0  1  0  0  0  0  0999 V2000
   28.6387  -18.2464  -16.7976 C   0  0  0  0  0  0  0  0  0  0  0  0
   29.2496  -18.8729  -15.5648 C   0  0  0  0  0  0  0  0  0  0  0  0
   28.1422  -19.5689  -14.8022 C   0  0  2  0  0  0  0  0  0  0  0  0
   27.0509  -18.5783  -14.4121 C   0  0  0  0  0  0  0  0  0  0  0  0
   28.6892  -20.1595  -13.5153 C   0  0  2  0  0  0  0  0  0  0  0  0
   29.8375  -20.9691  -13.8484 N   0  0  0  0  0  0  0  0  0  0  0  0
   27.5916  -20.9956  -12.9283 C   0  0  0  0  0  0  0  0  0  0  0  0
   27.7740  -22.2143  -12.6946 O   0  0  0  0  0  0  0  0  0  0  0  0
   28.3214  -20.5999   -7.5636 C   0  0  0  0  0  0  0  0  0  0  0  0
   26.5975  -20.0914   -7.6620 S   0  0  0  0  0  0  0  0  0  0  0  0
   25.7512  -21.0745   -8.9623 C   0  0  0  0  0  0  0  0  0  0  0  0
   26.3597  -20.6651  -10.2607 C   0  0  0  0  0  0  0  0  0  0  0  0
   25.5238  -20.8884  -11.4720 C   0  0  2  0  0  0  0  0  0  0  0  0
   26.3222  -20.4501  -12.6185 N   0  0  0  0  0  0  0  0  0  0  0  0
   24.2624  -20.1020  -11.5058 C   0  0  0  0  0  0  0  0  0  0  0  0
   24.3822  -18.8578  -11.3433 O   0  0  0  0  0  0  0  0  0  0  0  0
   24.0087  -21.1801  -16.5704 N   0  0  0  0  0  0  0  0  0  0  0  0
   22.8277  -20.3423  -16.6085 C   0  0  0  0  0  0  0  0  0  0  0  0
   22.3690  -20.1620  -17.7537 O   0  0  0  0  0  0  0  0  0  0  0  0
   22.3150  -19.8126  -15.3411 C   0  0  0  0  0  0  0  0  0  0  0  0
   23.0026  -20.1805  -14.0931 C   0  0  0  0  0  0  0  0  0  0  0  0
   22.1926  -20.3233  -12.8503 C   0  0  2  0  0  0  0  0  0  0  0  0
   22.9972  -20.6558  -11.7015 N   0  0  0  0  0  0  0  0  0  0  0  0
   20.9618  -21.1026  -12.9459 C   0  0  0  0  0  0  0  0  0  0  0  0
   20.0076  -20.6855  -13.6956 O   0  0  0  0  0  0  0  0  0  0  0  0
   20.7500  -22.2838  -12.2696 O   0  0  0  0  0  0  0  0  0  0  0  0
  1  2  1  0
  3  4  1  1
  3  2  1  0
  5  3  1  0
  5  6  1  6
  7  5  1  0
  8  7  2  0
  9 10  1  0
 10 11  1  0
 11 12  1  0
 13 12  1  1
 13 14  1  0
 14  7  1  0
 15 13  1  0
 15 16  2  0
 17 18  1  0
 18 19  2  0
 18 20  1  0
 20 21  1  0
 22 21  1  6
 22 23  1  0
 23 15  1  0
 24 22  1  0
 24 26  1  0
 25 24  2  0
M  END
$$$$
