IMQ.pdb
     RDKit          3D

 26 25  0  0  1  0  0  0  0  0999 V2000
   27.1615  -21.5533  -14.1266 C   0  0  0  0  0  0  0  0  0  0  0  0
   25.8389  -21.6685  -14.8495 C   0  0  0  0  0  0  0  0  0  0  0  0
   24.7372  -21.4168  -13.8419 C   0  0  2  0  0  0  0  0  0  0  0  0
   24.7138  -22.5135  -12.7832 C   0  0  0  0  0  0  0  0  0  0  0  0
   23.3861  -21.4358  -14.5337 C   0  0  2  0  0  0  0  0  0  0  0  0
   23.4089  -20.4462  -15.5850 N   0  0  0  0  0  0  0  0  0  0  0  0
   22.3666  -21.0906  -13.4898 C   0  0  0  0  0  0  0  0  0  0  0  0
   22.2959  -19.9266  -13.0280 O   0  0  0  0  0  0  0  0  0  0  0  0
   17.6440  -20.4705  -15.3335 C   0  0  0  0  0  0  0  0  0  0  0  0
   16.9667  -19.9846  -13.7381 S   0  0  0  0  0  0  0  0  0  0  0  0
   18.0141  -20.6811  -12.3998 C   0  0  0  0  0  0  0  0  0  0  0  0
   19.3256  -21.0169  -13.0251 C   0  0  0  0  0  0  0  0  0  0  0  0
   20.3110  -21.7032  -12.1454 C   0  0  2  0  0  0  0  0  0  0  0  0
   21.4549  -22.0519  -12.9902 N   0  0  0  0  0  0  0  0  0  0  0  0
   19.8232  -22.9722  -11.5436 C   0  0  0  0  0  0  0  0  0  0  0  0
   19.9311  -24.0022  -12.2624 O   0  0  0  0  0  0  0  0  0  0  0  0
   17.1296  -24.7637   -5.8272 N   0  0  0  0  0  0  0  0  0  0  0  0
   18.5316  -24.4450   -6.0033 C   0  0  0  0  0  0  0  0  0  0  0  0
   19.2550  -24.7886   -5.0476 O   0  0  0  0  0  0  0  0  0  0  0  0
   18.9377  -23.7749   -7.2425 C   0  0  0  0  0  0  0  0  0  0  0  0
   19.4081  -24.5981   -8.3680 C   0  0  0  0  0  0  0  0  0  0  0  0
   18.8444  -24.3391   -9.7230 C   0  0  2  0  0  0  0  0  0  0  0  0
   19.2713  -23.0742  -10.2666 N   0  0  0  0  0  0  0  0  0  0  0  0
   17.4213  -24.6048   -9.9118 C   0  0  0  0  0  0  0  0  0  0  0  0
   16.6354  -23.6399  -10.2248 O   0  0  0  0  0  0  0  0  0  0  0  0
   16.8510  -25.8510   -9.7733 O   0  0  0  0  0  0  0  0  0  0  0  0
  1  2  1  0
  3  4  1  1
  3  2  1  0
  5  3  1  0
  5  6  1  6
  7  5  1  0
  8  7  2  0
  9 10  1  0
 10 11  1  0
 11 12  1  0
 13 12  1  6
 13 14  1  0
 14  7  1  0
 15 13  1  0
 15 16  2  0
 17 18  1  0
 18 19  2  0
 18 20  1  0
 20 21  1  0
 22 21  1  1
 22 23  1  0
 23 15  1  0
 24 22  1  0
 24 26  1  0
 25 24  2  0
M  END
$$$$
