IMQ.pdb
     RDKit          3D

 26 25  0  0  1  0  0  0  0  0999 V2000
   17.4119  -13.4330  -20.6981 C   0  0  0  0  0  0  0  0  0  0  0  0
   18.4357  -12.3610  -20.9945 C   0  0  0  0  0  0  0  0  0  0  0  0
   18.9628  -11.8461  -19.6718 C   0  0  2  0  0  0  0  0  0  0  0  0
   17.8293  -11.2825  -18.8223 C   0  0  0  0  0  0  0  0  0  0  0  0
   19.9469  -10.7151  -19.9096 C   0  0  2  0  0  0  0  0  0  0  0  0
   20.9570  -11.1877  -20.8268 N   0  0  0  0  0  0  0  0  0  0  0  0
   20.5439  -10.3805  -18.5753 C   0  0  0  0  0  0  0  0  0  0  0  0
   19.8165   -9.9882  -17.6319 O   0  0  0  0  0  0  0  0  0  0  0  0
   27.3724  -11.2167  -14.6672 C   0  0  0  0  0  0  0  0  0  0  0  0
   26.3169  -11.4272  -16.1100 S   0  0  0  0  0  0  0  0  0  0  0  0
   24.7383  -10.5281  -15.8398 C   0  0  0  0  0  0  0  0  0  0  0  0
   23.8773  -10.8277  -17.0199 C   0  0  0  0  0  0  0  0  0  0  0  0
   22.5462  -10.1618  -17.0422 C   0  0  2  0  0  0  0  0  0  0  0  0
   21.9340  -10.4925  -18.3304 N   0  0  0  0  0  0  0  0  0  0  0  0
   22.5964   -8.6779  -16.9628 C   0  0  0  0  0  0  0  0  0  0  0  0
   22.9079   -8.0777  -18.0266 O   0  0  0  0  0  0  0  0  0  0  0  0
   19.7884   -5.0239  -19.0932 N   0  0  0  0  0  0  0  0  0  0  0  0
   20.3473   -4.0571  -18.1707 C   0  0  0  0  0  0  0  0  0  0  0  0
   20.0171   -2.8784  -18.4076 O   0  0  0  0  0  0  0  0  0  0  0  0
   21.2125   -4.5491  -17.0941 C   0  0  0  0  0  0  0  0  0  0  0  0
   21.4561   -5.9967  -16.9908 C   0  0  0  0  0  0  0  0  0  0  0  0
   22.2351   -6.5055  -15.8266 C   0  0  2  0  0  0  0  0  0  0  0  0
   22.3250   -7.9440  -15.8080 N   0  0  0  0  0  0  0  0  0  0  0  0
   21.9359   -5.9227  -14.5219 C   0  0  0  0  0  0  0  0  0  0  0  0
   21.6028   -6.6906  -13.5494 O   0  0  0  0  0  0  0  0  0  0  0  0
   21.9880   -4.5718  -14.2576 O   0  0  0  0  0  0  0  0  0  0  0  0
  1  2  1  0
  3  4  1  1
  3  2  1  0
  5  3  1  0
  5  6  1  6
  7  5  1  0
  8  7  2  0
  9 10  1  0
 10 11  1  0
 11 12  1  0
 13 12  1  6
 13 14  1  0
 14  7  1  0
 15 13  1  0
 15 16  2  0
 17 18  1  0
 18 19  2  0
 18 20  1  0
 20 21  1  0
 22 21  1  6
 22 23  1  0
 23 15  1  0
 24 22  1  0
 24 26  1  0
 25 24  2  0
M  END
$$$$
