IMQ.pdb
     RDKit          3D

 26 25  0  0  1  0  0  0  0  0999 V2000
   24.4119  -13.5983  -16.9173 C   0  0  0  0  0  0  0  0  0  0  0  0
   23.4066  -12.9676  -15.9809 C   0  0  0  0  0  0  0  0  0  0  0  0
   22.8870  -11.7077  -16.6402 C   0  0  2  0  0  0  0  0  0  0  0  0
   24.0332  -10.7555  -16.9624 C   0  0  0  0  0  0  0  0  0  0  0  0
   21.9507  -10.9754  -15.6961 C   0  0  2  0  0  0  0  0  0  0  0  0
   21.0253  -11.9391  -15.1485 N   0  0  0  0  0  0  0  0  0  0  0  0
   21.2343   -9.9459  -16.5178 C   0  0  0  0  0  0  0  0  0  0  0  0
   21.8537   -8.9623  -16.9889 O   0  0  0  0  0  0  0  0  0  0  0  0
   14.2529   -8.9562  -20.1175 C   0  0  0  0  0  0  0  0  0  0  0  0
   15.4614   -9.9223  -19.1976 S   0  0  0  0  0  0  0  0  0  0  0  0
   16.8970   -8.8551  -18.7809 C   0  0  0  0  0  0  0  0  0  0  0  0
   17.8401   -9.7063  -18.0001 C   0  0  0  0  0  0  0  0  0  0  0  0
   19.1284   -9.0681  -17.6144 C   0  0  2  0  0  0  0  0  0  0  0  0
   19.8483  -10.0417  -16.7913 N   0  0  0  0  0  0  0  0  0  0  0  0
   18.9864   -7.8374  -16.7923 C   0  0  0  0  0  0  0  0  0  0  0  0
   18.9192   -8.0102  -15.5455 O   0  0  0  0  0  0  0  0  0  0  0  0
   22.5204   -5.8838  -13.7855 N   0  0  0  0  0  0  0  0  0  0  0  0
   21.8967   -4.5787  -13.8614 C   0  0  0  0  0  0  0  0  0  0  0  0
   22.4062   -3.7270  -13.1067 O   0  0  0  0  0  0  0  0  0  0  0  0
   20.7711   -4.4033  -14.7844 C   0  0  0  0  0  0  0  0  0  0  0  0
   20.3294   -5.5562  -15.5854 C   0  0  0  0  0  0  0  0  0  0  0  0
   19.1645   -5.3832  -16.4986 C   0  0  2  0  0  0  0  0  0  0  0  0
   18.9260   -6.5461  -17.3163 N   0  0  0  0  0  0  0  0  0  0  0  0
   19.0786   -4.1251  -17.2342 C   0  0  0  0  0  0  0  0  0  0  0  0
   19.2012   -3.0151  -16.6022 O   0  0  0  0  0  0  0  0  0  0  0  0
   18.8696   -4.0466  -18.5935 O   0  0  0  0  0  0  0  0  0  0  0  0
  1  2  1  0
  3  4  1  1
  3  2  1  0
  5  3  1  0
  5  6  1  6
  7  5  1  0
  8  7  2  0
  9 10  1  0
 10 11  1  0
 11 12  1  0
 13 12  1  1
 13 14  1  0
 14  7  1  0
 15 13  1  0
 15 16  2  0
 17 18  1  0
 18 19  2  0
 18 20  1  0
 20 21  1  0
 22 21  1  6
 22 23  1  0
 23 15  1  0
 24 22  1  0
 24 26  1  0
 25 24  2  0
M  END
$$$$
