IMQ.pdb
     RDKit          3D

 26 25  0  0  1  0  0  0  0  0999 V2000
   26.9788  -20.1154  -19.0033 C   0  0  0  0  0  0  0  0  0  0  0  0
   27.7117  -20.7886  -17.8654 C   0  0  0  0  0  0  0  0  0  0  0  0
   26.7371  -20.9491  -16.7179 C   0  0  2  0  0  0  0  0  0  0  0  0
   26.2292  -19.5906  -16.2477 C   0  0  0  0  0  0  0  0  0  0  0  0
   27.4303  -21.6000  -15.5346 C   0  0  2  0  0  0  0  0  0  0  0  0
   27.9340  -22.8836  -15.9631 N   0  0  0  0  0  0  0  0  0  0  0  0
   26.3916  -21.7579  -14.4647 C   0  0  0  0  0  0  0  0  0  0  0  0
   25.4159  -22.5280  -14.6321 O   0  0  0  0  0  0  0  0  0  0  0  0
   25.6554  -21.4375   -7.0426 C   0  0  0  0  0  0  0  0  0  0  0  0
   26.2262  -20.2934   -8.3095 S   0  0  0  0  0  0  0  0  0  0  0  0
   25.1433  -20.4378   -9.7860 C   0  0  0  0  0  0  0  0  0  0  0  0
   26.0516  -20.5504  -10.9632 C   0  0  0  0  0  0  0  0  0  0  0  0
   25.4707  -21.1871  -12.1769 C   0  0  2  0  0  0  0  0  0  0  0  0
   26.4697  -21.0534  -13.2389 N   0  0  0  0  0  0  0  0  0  0  0  0
   24.2277  -20.5430  -12.6776 C   0  0  0  0  0  0  0  0  0  0  0  0
   24.3600  -19.3849  -13.1576 O   0  0  0  0  0  0  0  0  0  0  0  0
   20.8899  -21.4652  -17.2454 N   0  0  0  0  0  0  0  0  0  0  0  0
   19.8987  -20.7123  -16.5047 C   0  0  0  0  0  0  0  0  0  0  0  0
   18.9484  -20.3015  -17.1996 O   0  0  0  0  0  0  0  0  0  0  0  0
   20.1102  -20.5188  -15.0668 C   0  0  0  0  0  0  0  0  0  0  0  0
   21.3396  -21.0501  -14.4569 C   0  0  0  0  0  0  0  0  0  0  0  0
   21.7985  -20.4718  -13.1623 C   0  0  2  0  0  0  0  0  0  0  0  0
   22.9665  -21.1379  -12.6427 N   0  0  0  0  0  0  0  0  0  0  0  0
   20.7772  -20.2120  -12.1520 C   0  0  0  0  0  0  0  0  0  0  0  0
   20.8446  -20.8096  -11.0185 O   0  0  0  0  0  0  0  0  0  0  0  0
   19.7203  -19.3482  -12.3374 O   0  0  0  0  0  0  0  0  0  0  0  0
  1  2  1  0
  3  4  1  1
  3  2  1  0
  5  3  1  0
  5  6  1  6
  7  5  1  0
  8  7  2  0
  9 10  1  0
 10 11  1  0
 11 12  1  0
 13 12  1  1
 13 14  1  0
 14  7  1  0
 15 13  1  0
 15 16  2  0
 17 18  1  0
 18 19  2  0
 18 20  1  0
 20 21  1  0
 22 21  1  6
 22 23  1  0
 23 15  1  0
 24 22  1  0
 24 26  1  0
 25 24  2  0
M  END
$$$$
