GAS.pdb
     RDKit          3D

 16 15  0  0  1  0  0  0  0  0999 V2000
   -6.3476  -26.2909   32.2511 N   0  0  0  0  0  0  0  0  0  0  0  0
   -7.2278  -27.0050   31.3717 C   0  0  0  0  0  0  0  0  0  0  0  0
   -8.1622  -26.1122   30.6418 C   0  0  0  0  0  0  0  0  0  0  0  0
   -8.8439  -26.6436   29.7205 O   0  0  0  0  0  0  0  0  0  0  0  0
  -10.0154  -22.9710   31.0174 C   0  0  0  0  0  0  0  0  0  0  0  0
   -9.2351  -23.9445   30.1583 C   0  0  2  0  0  0  0  0  0  0  0  0
   -8.3175  -24.7357   30.9242 N   0  0  0  0  0  0  0  0  0  0  0  0
   -8.5031  -23.1355   29.1511 C   0  0  0  0  0  0  0  0  0  0  0  0
   -9.1137  -22.4211   28.3291 O   0  0  0  0  0  0  0  0  0  0  0  0
   -5.6102  -20.9102   29.8117 O   0  0  0  0  0  0  0  0  0  0  0  0
   -5.1292  -21.6945   28.7599 C   0  0  0  0  0  0  0  0  0  0  0  0
   -6.2994  -22.4153   28.1553 C   0  0  2  0  0  0  0  0  0  0  0  0
   -7.0838  -23.1517   29.0944 N   0  0  0  0  0  0  0  0  0  0  0  0
   -5.8329  -23.2738   27.0256 C   0  0  0  0  0  0  0  0  0  0  0  0
   -5.9467  -24.6546   27.0634 O   0  0  0  0  0  0  0  0  0  0  0  0
   -5.3218  -22.7557   26.0060 O   0  0  0  0  0  0  0  0  0  0  0  0
  1  2  1  0
  2  3  1  0
  3  4  2  0
  6  5  1  1
  7  6  1  0
  7  3  1  0
  8  9  2  0
  8  6  1  0
 10 11  1  0
 12 11  1  1
 12 14  1  0
 12 13  1  0
 13  8  1  0
 14 15  1  0
 16 14  2  0
M  END
$$$$
