GAS.pdb
     RDKit          3D

 16 15  0  0  1  0  0  0  0  0999 V2000
   -4.2393  -21.2282   28.6977 N   0  0  0  0  0  0  0  0  0  0  0  0
   -4.4400  -22.1452   27.6129 C   0  0  0  0  0  0  0  0  0  0  0  0
   -5.7999  -22.7399   27.6051 C   0  0  0  0  0  0  0  0  0  0  0  0
   -6.5051  -22.5449   28.6351 O   0  0  0  0  0  0  0  0  0  0  0  0
   -8.1750  -24.4677   25.2532 C   0  0  0  0  0  0  0  0  0  0  0  0
   -7.6527  -24.0239   26.6041 C   0  0  2  0  0  0  0  0  0  0  0  0
   -6.3239  -23.4917   26.5287 N   0  0  0  0  0  0  0  0  0  0  0  0
   -7.6814  -25.2171   27.4874 C   0  0  0  0  0  0  0  0  0  0  0  0
   -6.7067  -25.9945   27.5546 O   0  0  0  0  0  0  0  0  0  0  0  0
   -9.7803  -25.3459   30.9691 O   0  0  0  0  0  0  0  0  0  0  0  0
  -10.0326  -26.4798   30.1923 C   0  0  0  0  0  0  0  0  0  0  0  0
   -8.9198  -26.6053   29.1922 C   0  0  2  0  0  0  0  0  0  0  0  0
   -8.8217  -25.5083   28.2830 N   0  0  0  0  0  0  0  0  0  0  0  0
   -9.0302  -27.9121   28.4774 C   0  0  0  0  0  0  0  0  0  0  0  0
   -8.5519  -29.0893   29.0313 O   0  0  0  0  0  0  0  0  0  0  0  0
   -9.5652  -27.9719   27.3464 O   0  0  0  0  0  0  0  0  0  0  0  0
  1  2  1  0
  2  3  1  0
  3  4  2  0
  6  5  1  6
  7  6  1  0
  7  3  1  0
  8  9  2  0
  8  6  1  0
 10 11  1  0
 12 11  1  6
 12 14  1  0
 12 13  1  0
 13  8  1  0
 14 15  1  0
 16 14  2  0
M  END
$$$$
