GAS.pdb
     RDKit          3D

 16 15  0  0  1  0  0  0  0  0999 V2000
    7.0081  -17.6694   16.6242 N   0  0  0  0  0  0  0  0  0  0  0  0
    6.4738  -17.0537   17.8047 C   0  0  0  0  0  0  0  0  0  0  0  0
    7.4762  -16.2359   18.5322 C   0  0  0  0  0  0  0  0  0  0  0  0
    8.6898  -16.5244   18.3320 O   0  0  0  0  0  0  0  0  0  0  0  0
    7.6657  -13.3028   20.8967 C   0  0  0  0  0  0  0  0  0  0  0  0
    8.1618  -14.5529   20.1998 C   0  0  2  0  0  0  0  0  0  0  0  0
    7.1423  -15.1809   19.4120 N   0  0  0  0  0  0  0  0  0  0  0  0
    8.6352  -15.4761   21.2621 C   0  0  0  0  0  0  0  0  0  0  0  0
    7.8304  -16.1519   21.9361 O   0  0  0  0  0  0  0  0  0  0  0  0
   12.7418  -15.7472   22.1222 O   0  0  0  0  0  0  0  0  0  0  0  0
   12.0037  -16.9330   22.1671 C   0  0  0  0  0  0  0  0  0  0  0  0
   10.5741  -16.5709   22.4490 C   0  0  2  0  0  0  0  0  0  0  0  0
   10.0208  -15.6166   21.5419 N   0  0  0  0  0  0  0  0  0  0  0  0
   10.4367  -16.1325   23.8702 C   0  0  0  0  0  0  0  0  0  0  0  0
   10.7315  -16.9797   24.9268 O   0  0  0  0  0  0  0  0  0  0  0  0
   10.0463  -14.9733   24.1401 O   0  0  0  0  0  0  0  0  0  0  0  0
  1  2  1  0
  2  3  1  0
  3  4  2  0
  6  5  1  1
  7  6  1  0
  7  3  1  0
  8  9  2  0
  8  6  1  0
 10 11  1  0
 12 11  1  6
 12 14  1  0
 12 13  1  0
 13  8  1  0
 14 15  1  0
 16 14  2  0
M  END
$$$$
