GAS.pdb
     RDKit          3D

 16 15  0  0  1  0  0  0  0  0999 V2000
    8.4841  -14.9426   14.1754 N   0  0  0  0  0  0  0  0  0  0  0  0
    7.7230  -14.8689   15.3891 C   0  0  0  0  0  0  0  0  0  0  0  0
    8.5421  -14.4660   16.5595 C   0  0  0  0  0  0  0  0  0  0  0  0
    9.7925  -14.6052   16.4457 O   0  0  0  0  0  0  0  0  0  0  0  0
    8.1180  -12.8332   19.9373 C   0  0  0  0  0  0  0  0  0  0  0  0
    8.8711  -13.5018   18.8057 C   0  0  2  0  0  0  0  0  0  0  0  0
    8.0004  -13.9492   17.7586 N   0  0  0  0  0  0  0  0  0  0  0  0
    9.6003  -14.6520   19.3973 C   0  0  0  0  0  0  0  0  0  0  0  0
    9.0324  -15.7473   19.5885 O   0  0  0  0  0  0  0  0  0  0  0  0
   13.6461  -14.2607   19.9214 O   0  0  0  0  0  0  0  0  0  0  0  0
   13.1961  -15.5807   19.8318 C   0  0  0  0  0  0  0  0  0  0  0  0
   11.7632  -15.6063   20.2793 C   0  0  2  0  0  0  0  0  0  0  0  0
   10.9682  -14.5381   19.7632 N   0  0  0  0  0  0  0  0  0  0  0  0
   11.7025  -15.6751   21.7701 C   0  0  0  0  0  0  0  0  0  0  0  0
   10.9977  -14.7430   22.5154 O   0  0  0  0  0  0  0  0  0  0  0  0
   12.2960  -16.5901   22.3863 O   0  0  0  0  0  0  0  0  0  0  0  0
  1  2  1  0
  2  3  1  0
  3  4  2  0
  6  5  1  1
  7  6  1  0
  7  3  1  0
  8  9  2  0
  8  6  1  0
 10 11  1  0
 12 11  1  1
 12 14  1  0
 12 13  1  0
 13  8  1  0
 14 15  1  0
 16 14  2  0
M  END
$$$$
