GAS.pdb
     RDKit          3D

 16 15  0  0  1  0  0  0  0  0999 V2000
    8.6276  -15.9545   15.2075 N   0  0  0  0  0  0  0  0  0  0  0  0
    7.7562  -15.3094   16.1470 C   0  0  0  0  0  0  0  0  0  0  0  0
    8.4670  -14.8348   17.3604 C   0  0  0  0  0  0  0  0  0  0  0  0
    9.6429  -15.2653   17.5281 O   0  0  0  0  0  0  0  0  0  0  0  0
    7.9354  -12.5434   20.3141 C   0  0  0  0  0  0  0  0  0  0  0  0
    8.6235  -13.6211   19.5019 C   0  0  2  0  0  0  0  0  0  0  0  0
    7.9028  -13.9495   18.3072 N   0  0  0  0  0  0  0  0  0  0  0  0
    8.7367  -14.8128   20.3804 C   0  0  0  0  0  0  0  0  0  0  0  0
    7.7261  -15.4610   20.7228 O   0  0  0  0  0  0  0  0  0  0  0  0
   11.7647  -17.3706   20.2372 O   0  0  0  0  0  0  0  0  0  0  0  0
   10.5860  -17.6390   20.9384 C   0  0  0  0  0  0  0  0  0  0  0  0
   10.2061  -16.3941   21.6869 C   0  0  2  0  0  0  0  0  0  0  0  0
   10.0015  -15.2500   20.8571 N   0  0  0  0  0  0  0  0  0  0  0  0
   11.2069  -16.1289   22.7634 C   0  0  0  0  0  0  0  0  0  0  0  0
   11.9299  -14.9473   22.8124 O   0  0  0  0  0  0  0  0  0  0  0  0
   11.4164  -16.9813   23.6570 O   0  0  0  0  0  0  0  0  0  0  0  0
  1  2  1  0
  2  3  1  0
  3  4  2  0
  6  5  1  1
  7  6  1  0
  7  3  1  0
  8  9  2  0
  8  6  1  0
 10 11  1  0
 12 11  1  6
 12 14  1  0
 12 13  1  0
 13  8  1  0
 14 15  1  0
 16 14  2  0
M  END
$$$$
