GAS.pdb
     RDKit          3D

 16 15  0  0  1  0  0  0  0  0999 V2000
    8.9814  -15.3697   14.7091 N   0  0  0  0  0  0  0  0  0  0  0  0
    8.0274  -15.1889   15.7652 C   0  0  0  0  0  0  0  0  0  0  0  0
    8.6304  -14.6166   16.9948 C   0  0  0  0  0  0  0  0  0  0  0  0
    9.8905  -14.6585   17.0754 O   0  0  0  0  0  0  0  0  0  0  0  0
    7.6144  -12.8323   20.1602 C   0  0  0  0  0  0  0  0  0  0  0  0
    8.5353  -13.6142   19.2463 C   0  0  2  0  0  0  0  0  0  0  0  0
    7.8792  -14.0446   18.0468 N   0  0  0  0  0  0  0  0  0  0  0  0
    9.0141  -14.7864   20.0218 C   0  0  0  0  0  0  0  0  0  0  0  0
    8.4601  -15.9003   19.9165 O   0  0  0  0  0  0  0  0  0  0  0  0
   12.6075  -16.7766   22.5280 O   0  0  0  0  0  0  0  0  0  0  0  0
   12.1673  -15.6085   21.8998 C   0  0  0  0  0  0  0  0  0  0  0  0
   10.6988  -15.7620   21.6271 C   0  0  2  0  0  0  0  0  0  0  0  0
   10.1187  -14.6731   20.9077 N   0  0  0  0  0  0  0  0  0  0  0  0
    9.9750  -16.0330   22.9051 C   0  0  0  0  0  0  0  0  0  0  0  0
   10.1111  -17.2361   23.5797 O   0  0  0  0  0  0  0  0  0  0  0  0
    9.2191  -15.1658   23.4007 O   0  0  0  0  0  0  0  0  0  0  0  0
  1  2  1  0
  2  3  1  0
  3  4  2  0
  6  5  1  1
  7  6  1  0
  7  3  1  0
  8  9  2  0
  8  6  1  0
 10 11  1  0
 12 11  1  1
 12 14  1  0
 12 13  1  0
 13  8  1  0
 14 15  1  0
 16 14  2  0
M  END
$$$$
