GAS.pdb
     RDKit          3D

 16 15  0  0  1  0  0  0  0  0999 V2000
    8.7008  -15.1046   14.3701 N   0  0  0  0  0  0  0  0  0  0  0  0
    7.9802  -15.3081   15.5938 C   0  0  0  0  0  0  0  0  0  0  0  0
    8.6482  -14.6891   16.7658 C   0  0  0  0  0  0  0  0  0  0  0  0
    9.9071  -14.7841   16.8108 O   0  0  0  0  0  0  0  0  0  0  0  0
    7.8249  -12.6392   19.8227 C   0  0  0  0  0  0  0  0  0  0  0  0
    8.6733  -13.5381   18.9470 C   0  0  2  0  0  0  0  0  0  0  0  0
    7.9581  -14.0188   17.8016 N   0  0  0  0  0  0  0  0  0  0  0  0
    9.1108  -14.6745   19.7967 C   0  0  0  0  0  0  0  0  0  0  0  0
    8.4561  -15.7367   19.8416 O   0  0  0  0  0  0  0  0  0  0  0  0
   12.9575  -15.3864   20.3741 O   0  0  0  0  0  0  0  0  0  0  0  0
   12.3164  -15.5347   21.6068 C   0  0  0  0  0  0  0  0  0  0  0  0
   10.8435  -15.6601   21.3436 C   0  0  2  0  0  0  0  0  0  0  0  0
   10.2896  -14.5849   20.5843 N   0  0  0  0  0  0  0  0  0  0  0  0
   10.1171  -15.8630   22.6328 C   0  0  0  0  0  0  0  0  0  0  0  0
   10.3128  -16.9935   23.4104 O   0  0  0  0  0  0  0  0  0  0  0  0
    9.3044  -15.0029   23.0435 O   0  0  0  0  0  0  0  0  0  0  0  0
  1  2  1  0
  2  3  1  0
  3  4  2  0
  6  5  1  1
  7  6  1  0
  7  3  1  0
  8  9  2  0
  8  6  1  0
 10 11  1  0
 12 11  1  1
 12 14  1  0
 12 13  1  0
 13  8  1  0
 14 15  1  0
 16 14  2  0
M  END
$$$$
