GAS.pdb
     RDKit          3D

 16 15  0  0  1  0  0  0  0  0999 V2000
    5.9960  -19.4980   23.6879 N   0  0  0  0  0  0  0  0  0  0  0  0
    5.8783  -18.1850   24.2540 C   0  0  0  0  0  0  0  0  0  0  0  0
    6.9255  -17.2521   23.7684 C   0  0  0  0  0  0  0  0  0  0  0  0
    8.1113  -17.6879   23.7690 O   0  0  0  0  0  0  0  0  0  0  0  0
    7.2489  -13.8921   22.1044 C   0  0  0  0  0  0  0  0  0  0  0  0
    7.7375  -15.1015   22.8745 C   0  0  2  0  0  0  0  0  0  0  0  0
    6.6618  -15.9379   23.3192 N   0  0  0  0  0  0  0  0  0  0  0  0
    8.5060  -14.5875   24.0364 C   0  0  0  0  0  0  0  0  0  0  0  0
    9.6975  -14.2341   23.9173 O   0  0  0  0  0  0  0  0  0  0  0  0
    7.0399  -12.2732   26.6341 O   0  0  0  0  0  0  0  0  0  0  0  0
    7.7251  -13.2071   27.4159 C   0  0  0  0  0  0  0  0  0  0  0  0
    8.5770  -14.0346   26.4973 C   0  0  2  0  0  0  0  0  0  0  0  0
    7.9054  -14.4832   25.3195 N   0  0  0  0  0  0  0  0  0  0  0  0
    9.1835  -15.1681   27.2579 C   0  0  0  0  0  0  0  0  0  0  0  0
    9.8776  -14.9647   28.4402 O   0  0  0  0  0  0  0  0  0  0  0  0
    9.0755  -16.3427   26.8365 O   0  0  0  0  0  0  0  0  0  0  0  0
  1  2  1  0
  2  3  1  0
  3  4  2  0
  6  5  1  1
  7  6  1  0
  7  3  1  0
  8  9  2  0
  8  6  1  0
 10 11  1  0
 12 11  1  1
 12 14  1  0
 12 13  1  0
 13  8  1  0
 14 15  1  0
 16 14  2  0
M  END
$$$$
