GAS.pdb
     RDKit          3D

 16 15  0  0  1  0  0  0  0  0999 V2000
   -3.9155  -26.1480   25.2722 N   0  0  0  0  0  0  0  0  0  0  0  0
   -3.0887  -25.2999   26.0816 C   0  0  0  0  0  0  0  0  0  0  0  0
   -3.8743  -24.3924   26.9547 C   0  0  0  0  0  0  0  0  0  0  0  0
   -3.8431  -24.6373   28.1937 O   0  0  0  0  0  0  0  0  0  0  0  0
   -5.8521  -21.1916   26.7452 C   0  0  0  0  0  0  0  0  0  0  0  0
   -5.3508  -22.4659   27.3929 C   0  0  2  0  0  0  0  0  0  0  0  0
   -4.6324  -23.2999   26.4748 N   0  0  0  0  0  0  0  0  0  0  0  0
   -6.5442  -23.1799   27.9134 C   0  0  0  0  0  0  0  0  0  0  0  0
   -7.1821  -23.9790   27.1969 O   0  0  0  0  0  0  0  0  0  0  0  0
   -7.1172  -23.6084   31.9716 O   0  0  0  0  0  0  0  0  0  0  0  0
   -7.7348  -24.4651   31.0564 C   0  0  0  0  0  0  0  0  0  0  0  0
   -8.0966  -23.6553   29.8449 C   0  0  2  0  0  0  0  0  0  0  0  0
   -6.9947  -22.9733   29.2446 N   0  0  0  0  0  0  0  0  0  0  0  0
   -9.2138  -22.7218   30.1786 C   0  0  0  0  0  0  0  0  0  0  0  0
  -10.4741  -23.1854   30.5219 O   0  0  0  0  0  0  0  0  0  0  0  0
   -9.0318  -21.4827   30.1547 O   0  0  0  0  0  0  0  0  0  0  0  0
  1  2  1  0
  2  3  1  0
  3  4  2  0
  6  5  1  6
  7  6  1  0
  7  3  1  0
  8  9  2  0
  8  6  1  0
 10 11  1  0
 12 11  1  1
 12 14  1  0
 12 13  1  0
 13  8  1  0
 14 15  1  0
 16 14  2  0
M  END
$$$$
