GAS.pdb
     RDKit          3D

 16 15  0  0  1  0  0  0  0  0999 V2000
   -2.9488  -26.3606   27.3218 N   0  0  0  0  0  0  0  0  0  0  0  0
   -4.2049  -25.6692   27.3686 C   0  0  0  0  0  0  0  0  0  0  0  0
   -4.1585  -24.4463   28.2085 C   0  0  0  0  0  0  0  0  0  0  0  0
   -3.8147  -24.6043   29.4138 O   0  0  0  0  0  0  0  0  0  0  0  0
   -4.0825  -20.7405   27.9203 C   0  0  0  0  0  0  0  0  0  0  0  0
   -4.4415  -22.0319   28.6259 C   0  0  2  0  0  0  0  0  0  0  0  0
   -4.4727  -23.1526   27.7328 N   0  0  0  0  0  0  0  0  0  0  0  0
   -5.7765  -21.8261   29.2427 C   0  0  0  0  0  0  0  0  0  0  0  0
   -5.9640  -20.9314   30.0930 O   0  0  0  0  0  0  0  0  0  0  0  0
  -10.5189  -22.6528   28.9974 O   0  0  0  0  0  0  0  0  0  0  0  0
   -9.2806  -22.8714   28.3878 C   0  0  0  0  0  0  0  0  0  0  0  0
   -8.2133  -22.4695   29.3643 C   0  0  2  0  0  0  0  0  0  0  0  0
   -6.8806  -22.6437   28.8814 N   0  0  0  0  0  0  0  0  0  0  0  0
   -8.4302  -23.1716   30.6646 C   0  0  0  0  0  0  0  0  0  0  0  0
   -9.2785  -22.6632   31.6357 O   0  0  0  0  0  0  0  0  0  0  0  0
   -7.8414  -24.2502   30.9075 O   0  0  0  0  0  0  0  0  0  0  0  0
  1  2  1  0
  2  3  1  0
  3  4  2  0
  6  5  1  6
  7  6  1  0
  7  3  1  0
  8  9  2  0
  8  6  1  0
 10 11  1  0
 12 11  1  6
 12 14  1  0
 12 13  1  0
 13  8  1  0
 14 15  1  0
 16 14  2  0
M  END
$$$$
