GAS.pdb
     RDKit          3D

 16 15  0  0  1  0  0  0  0  0999 V2000
    7.2007  -17.4791   17.9400 N   0  0  0  0  0  0  0  0  0  0  0  0
    6.5207  -16.9037   19.0646 C   0  0  0  0  0  0  0  0  0  0  0  0
    7.4503  -16.3128   20.0594 C   0  0  0  0  0  0  0  0  0  0  0  0
    8.6477  -16.7138   20.0181 O   0  0  0  0  0  0  0  0  0  0  0  0
    7.4611  -13.7190   22.8065 C   0  0  0  0  0  0  0  0  0  0  0  0
    8.0453  -14.7833   21.9006 C   0  0  2  0  0  0  0  0  0  0  0  0
    7.0659  -15.3507   21.0212 N   0  0  0  0  0  0  0  0  0  0  0  0
    8.6150  -15.8321   22.7840 C   0  0  0  0  0  0  0  0  0  0  0  0
    7.8870  -16.7008   23.3076 O   0  0  0  0  0  0  0  0  0  0  0  0
   12.6908  -16.5509   22.5815 O   0  0  0  0  0  0  0  0  0  0  0  0
   11.7859  -17.5696   22.8915 C   0  0  0  0  0  0  0  0  0  0  0  0
   10.6756  -16.9639   23.7005 C   0  0  2  0  0  0  0  0  0  0  0  0
   10.0080  -15.8765   23.0590 N   0  0  0  0  0  0  0  0  0  0  0  0
   11.1866  -16.5838   25.0516 C   0  0  0  0  0  0  0  0  0  0  0  0
   11.0881  -15.2869   25.5305 O   0  0  0  0  0  0  0  0  0  0  0  0
   11.7224  -17.4420   25.7901 O   0  0  0  0  0  0  0  0  0  0  0  0
  1  2  1  0
  2  3  1  0
  3  4  2  0
  6  5  1  1
  7  6  1  0
  7  3  1  0
  8  9  2  0
  8  6  1  0
 10 11  1  0
 12 11  1  6
 12 14  1  0
 12 13  1  0
 13  8  1  0
 14 15  1  0
 16 14  2  0
M  END
$$$$
