GAS.pdb
     RDKit          3D

 16 15  0  0  1  0  0  0  0  0999 V2000
    8.2964  -16.7620   16.0816 N   0  0  0  0  0  0  0  0  0  0  0  0
    7.4479  -16.3972   17.1794 C   0  0  0  0  0  0  0  0  0  0  0  0
    8.1831  -15.7170   18.2747 C   0  0  0  0  0  0  0  0  0  0  0  0
    9.4226  -15.9498   18.3496 O   0  0  0  0  0  0  0  0  0  0  0  0
    7.5801  -13.2165   21.0382 C   0  0  0  0  0  0  0  0  0  0  0  0
    8.3610  -14.2439   20.2450 C   0  0  2  0  0  0  0  0  0  0  0  0
    7.5755  -14.8471   19.2088 N   0  0  0  0  0  0  0  0  0  0  0  0
    8.8185  -15.2740   21.2117 C   0  0  0  0  0  0  0  0  0  0  0  0
    8.1372  -16.2955   21.4376 O   0  0  0  0  0  0  0  0  0  0  0  0
   12.7119  -15.7976   21.7798 O   0  0  0  0  0  0  0  0  0  0  0  0
   12.0860  -15.9390   23.0212 C   0  0  0  0  0  0  0  0  0  0  0  0
   10.6149  -16.1093   22.7744 C   0  0  2  0  0  0  0  0  0  0  0  0
   10.0475  -15.1255   21.9085 N   0  0  0  0  0  0  0  0  0  0  0  0
    9.8911  -16.1864   24.0787 C   0  0  0  0  0  0  0  0  0  0  0  0
   10.1656  -17.1776   25.0078 O   0  0  0  0  0  0  0  0  0  0  0  0
    9.0085  -15.3446   24.3635 O   0  0  0  0  0  0  0  0  0  0  0  0
  1  2  1  0
  2  3  1  0
  3  4  2  0
  6  5  1  1
  7  6  1  0
  7  3  1  0
  8  9  2  0
  8  6  1  0
 10 11  1  0
 12 11  1  1
 12 14  1  0
 12 13  1  0
 13  8  1  0
 14 15  1  0
 16 14  2  0
M  END
$$$$
