GAS.pdb
     RDKit          3D

 16 15  0  0  1  0  0  0  0  0999 V2000
    7.7289  -19.9353   19.1194 N   0  0  0  0  0  0  0  0  0  0  0  0
    7.5130  -20.9718   20.0874 C   0  0  0  0  0  0  0  0  0  0  0  0
    6.9433  -20.4625   21.3598 C   0  0  0  0  0  0  0  0  0  0  0  0
    6.9353  -19.2081   21.5104 O   0  0  0  0  0  0  0  0  0  0  0  0
    5.0316  -21.6725   24.3588 C   0  0  0  0  0  0  0  0  0  0  0  0
    5.9205  -20.7169   23.5897 C   0  0  2  0  0  0  0  0  0  0  0  0
    6.4253  -21.2942   22.3788 N   0  0  0  0  0  0  0  0  0  0  0  0
    7.0406  -20.3523   24.4937 C   0  0  0  0  0  0  0  0  0  0  0  0
    8.1331  -20.9546   24.4437 O   0  0  0  0  0  0  0  0  0  0  0  0
    8.7453  -17.3381   27.8881 O   0  0  0  0  0  0  0  0  0  0  0  0
    7.6892  -17.5737   27.0037 C   0  0  0  0  0  0  0  0  0  0  0  0
    7.8994  -18.9284   26.3915 C   0  0  2  0  0  0  0  0  0  0  0  0
    6.9001  -19.3052   25.4434 N   0  0  0  0  0  0  0  0  0  0  0  0
    8.0562  -19.9495   27.4702 C   0  0  0  0  0  0  0  0  0  0  0  0
    9.2965  -20.2623   28.0041 O   0  0  0  0  0  0  0  0  0  0  0  0
    7.0553  -20.5529   27.9210 O   0  0  0  0  0  0  0  0  0  0  0  0
  1  2  1  0
  2  3  1  0
  3  4  2  0
  6  5  1  1
  7  6  1  0
  7  3  1  0
  8  9  2  0
  8  6  1  0
 10 11  1  0
 12 11  1  1
 12 14  1  0
 12 13  1  0
 13  8  1  0
 14 15  1  0
 16 14  2  0
M  END
$$$$
