GAS.pdb
     RDKit          3D

 16 15  0  0  1  0  0  0  0  0999 V2000
    9.0274  -16.5083   19.6703 N   0  0  0  0  0  0  0  0  0  0  0  0
    9.3688  -16.9833   20.9802 C   0  0  0  0  0  0  0  0  0  0  0  0
    8.3795  -16.5862   22.0131 C   0  0  0  0  0  0  0  0  0  0  0  0
    7.5429  -15.7003   21.6796 O   0  0  0  0  0  0  0  0  0  0  0  0
    7.1693  -17.6100   25.4174 C   0  0  0  0  0  0  0  0  0  0  0  0
    7.3914  -16.6436   24.2722 C   0  0  2  0  0  0  0  0  0  0  0  0
    8.3343  -17.1393   23.3133 N   0  0  0  0  0  0  0  0  0  0  0  0
    7.8816  -15.3761   24.8705 C   0  0  0  0  0  0  0  0  0  0  0  0
    9.1006  -15.1084   24.9071 O   0  0  0  0  0  0  0  0  0  0  0  0
    5.2065  -12.6983   26.7907 O   0  0  0  0  0  0  0  0  0  0  0  0
    6.2510  -12.1600   26.0344 C   0  0  0  0  0  0  0  0  0  0  0  0
    7.3545  -13.1772   25.9902 C   0  0  2  0  0  0  0  0  0  0  0  0
    6.9751  -14.4300   25.4193 N   0  0  0  0  0  0  0  0  0  0  0  0
    7.9421  -13.3421   27.3535 C   0  0  0  0  0  0  0  0  0  0  0  0
    8.5723  -12.2954   28.0079 O   0  0  0  0  0  0  0  0  0  0  0  0
    7.8762  -14.4460   27.9418 O   0  0  0  0  0  0  0  0  0  0  0  0
  1  2  1  0
  2  3  1  0
  3  4  2  0
  6  5  1  1
  7  6  1  0
  7  3  1  0
  8  9  2  0
  8  6  1  0
 10 11  1  0
 12 11  1  1
 12 14  1  0
 12 13  1  0
 13  8  1  0
 14 15  1  0
 16 14  2  0
M  END
$$$$
