MLK.pdb
     RDKit          3D

 26 25  0  0  1  0  0  0  0  0999 V2000
   22.2352  -11.6072    5.8896 C   0  0  0  0  0  0  0  0  0  0  0  0
   20.8813  -11.3559    7.0694 S   0  0  0  0  0  0  0  0  0  0  0  0
   19.2665  -11.5081    6.2546 C   0  0  0  0  0  0  0  0  0  0  0  0
   18.7838  -12.9466    6.4486 C   0  0  0  0  0  0  0  0  0  0  0  0
   17.5040  -13.0614    5.6473 C   0  0  2  0  0  0  0  0  0  0  0  0
   16.4667  -12.2362    6.2373 N   0  0  0  0  0  0  0  0  0  0  0  0
   17.0428  -14.4806    5.5395 C   0  0  0  0  0  0  0  0  0  0  0  0
   16.0562  -14.9018    6.2058 O   0  0  0  0  0  0  0  0  0  0  0  0
   17.7117  -17.2878    0.7202 C   0  0  0  0  0  0  0  0  0  0  0  0
   17.0699  -16.7834    1.9958 C   0  0  1  0  0  0  0  0  0  0  0  0
   15.6259  -17.3406    1.9376 C   0  0  0  0  0  0  0  0  0  0  0  0
   17.6746  -17.3356    3.2215 C   0  0  0  0  0  0  0  0  0  0  0  0
   17.1603  -16.7966    4.5247 C   0  0  2  0  0  0  0  0  0  0  0  0
   17.6854  -15.4117    4.6914 N   0  0  0  0  0  0  0  0  0  0  0  0
   17.7387  -17.5804    5.6314 C   0  0  0  0  0  0  0  0  0  0  0  0
   18.9550  -17.3003    5.9392 O   0  0  0  0  0  0  0  0  0  0  0  0
   17.0945  -18.5844    6.3742 N   0  0  0  0  0  0  0  0  0  0  0  0
   17.8636  -19.2659    7.4785 C   0  0  1  0  0  0  0  0  0  0  0  0
   17.0736  -18.9123    8.6908 C   0  0  0  0  0  0  0  0  0  0  0  0
   17.3136  -19.4858   10.0002 C   0  0  0  0  0  0  0  0  0  0  0  0
   16.4846  -19.1625   11.1743 C   0  0  0  0  0  0  0  0  0  0  0  0
   17.0618  -19.9429   12.3917 C   0  0  0  0  0  0  0  0  0  0  0  0
   16.3192  -19.5885   13.5891 N   0  0  0  0  0  0  0  0  0  0  0  0
   17.8411  -20.6844    7.0849 C   0  0  0  0  0  0  0  0  0  0  0  0
   18.6092  -21.5992    7.8403 O   0  0  0  0  0  0  0  0  0  0  0  0
   17.1745  -21.1574    6.0995 O   0  0  0  0  0  0  0  0  0  0  0  0
  2  1  1  0
  3  2  1  0
  4  3  1  0
  4  5  1  0
  5  6  1  1
  7  5  1  0
  7  8  2  0
 10 11  1  6
 10  9  1  0
 12 10  1  0
 13 12  1  6
 13 14  1  0
 14  7  1  0
 15 13  1  0
 16 15  2  0
 17 15  1  0
 18 24  1  0
 18 17  1  0
 18 19  1  1
 20 19  1  0
 21 20  1  0
 22 21  1  0
 23 22  1  0
 24 25  1  0
 26 24  2  0
M  END
$$$$
