MLK.pdb
     RDKit          3D

 26 25  0  0  1  0  0  0  0  0999 V2000
   20.0710  -16.7489  -20.7357 C   0  0  0  0  0  0  0  0  0  0  0  0
   21.7527  -16.4744  -20.1158 S   0  0  0  0  0  0  0  0  0  0  0  0
   22.2450  -14.7377  -20.3056 C   0  0  0  0  0  0  0  0  0  0  0  0
   21.0609  -13.8710  -19.8736 C   0  0  0  0  0  0  0  0  0  0  0  0
   21.5251  -12.4374  -20.0248 C   0  0  2  0  0  0  0  0  0  0  0  0
   22.5712  -12.3516  -21.0265 N   0  0  0  0  0  0  0  0  0  0  0  0
   22.0000  -11.8685  -18.7251 C   0  0  0  0  0  0  0  0  0  0  0  0
   21.2438  -11.8210  -17.7148 O   0  0  0  0  0  0  0  0  0  0  0  0
   25.8243  -10.9216  -14.8496 C   0  0  0  0  0  0  0  0  0  0  0  0
   25.9099  -10.0988  -16.1182 C   0  0  1  0  0  0  0  0  0  0  0  0
   27.4248  -10.0543  -16.4376 C   0  0  0  0  0  0  0  0  0  0  0  0
   25.2630  -10.7338  -17.2806 C   0  0  0  0  0  0  0  0  0  0  0  0
   23.7626  -10.7779  -17.2720 C   0  0  2  0  0  0  0  0  0  0  0  0
   23.3099  -11.3603  -18.5672 N   0  0  0  0  0  0  0  0  0  0  0  0
   23.2408   -9.3992  -17.2485 C   0  0  0  0  0  0  0  0  0  0  0  0
   23.3831   -8.7287  -18.3360 O   0  0  0  0  0  0  0  0  0  0  0  0
   22.6070   -8.7607  -16.1689 N   0  0  0  0  0  0  0  0  0  0  0  0
   22.0749   -7.3640  -16.3726 C   0  0  1  0  0  0  0  0  0  0  0  0
   20.9536   -7.5797  -17.3291 C   0  0  0  0  0  0  0  0  0  0  0  0
   19.9609   -6.5710  -17.6421 C   0  0  0  0  0  0  0  0  0  0  0  0
   18.8460   -6.8142  -18.5737 C   0  0  0  0  0  0  0  0  0  0  0  0
   17.9174   -5.5649  -18.5385 C   0  0  0  0  0  0  0  0  0  0  0  0
   17.1448   -5.5716  -17.3081 N   0  0  0  0  0  0  0  0  0  0  0  0
   21.6925   -6.9431  -15.0146 C   0  0  0  0  0  0  0  0  0  0  0  0
   21.6582   -5.5594  -14.7292 O   0  0  0  0  0  0  0  0  0  0  0  0
   21.3881   -7.7423  -14.0619 O   0  0  0  0  0  0  0  0  0  0  0  0
  2  1  1  0
  3  2  1  0
  4  3  1  0
  4  5  1  0
  5  6  1  6
  7  5  1  0
  7  8  2  0
 10 11  1  6
 10  9  1  0
 12 10  1  0
 13 12  1  6
 13 14  1  0
 14  7  1  0
 15 13  1  0
 16 15  2  0
 17 15  1  0
 18 24  1  0
 18 17  1  0
 18 19  1  6
 20 19  1  0
 21 20  1  0
 22 21  1  0
 23 22  1  0
 24 25  1  0
 26 24  2  0
M  END
$$$$
