MLK.pdb
     RDKit          3D

 26 25  0  0  1  0  0  0  0  0999 V2000
   21.0061  -21.3699   -9.0375 C   0  0  0  0  0  0  0  0  0  0  0  0
   22.0133  -22.0146   -7.6745 S   0  0  0  0  0  0  0  0  0  0  0  0
   23.5805  -21.1098   -7.5338 C   0  0  0  0  0  0  0  0  0  0  0  0
   23.7806  -20.3260   -8.8320 C   0  0  0  0  0  0  0  0  0  0  0  0
   25.0866  -20.8242   -9.4147 C   0  0  2  0  0  0  0  0  0  0  0  0
   26.1759  -20.5778   -8.4885 N   0  0  0  0  0  0  0  0  0  0  0  0
   25.3777  -20.1956  -10.7408 C   0  0  0  0  0  0  0  0  0  0  0  0
   25.7710  -18.9986  -10.8269 O   0  0  0  0  0  0  0  0  0  0  0  0
   28.7492  -21.6858  -14.7391 C   0  0  0  0  0  0  0  0  0  0  0  0
   27.8508  -20.8734  -13.8299 C   0  0  1  0  0  0  0  0  0  0  0  0
   28.1198  -19.4062  -14.2467 C   0  0  0  0  0  0  0  0  0  0  0  0
   26.4130  -21.1078  -14.0547 C   0  0  0  0  0  0  0  0  0  0  0  0
   25.4629  -20.2504  -13.2701 C   0  0  2  0  0  0  0  0  0  0  0  0
   25.2274  -20.9075  -11.9532 N   0  0  0  0  0  0  0  0  0  0  0  0
   24.1548  -20.2352  -13.9500 C   0  0  0  0  0  0  0  0  0  0  0  0
   23.4274  -21.2824  -13.7868 O   0  0  0  0  0  0  0  0  0  0  0  0
   23.6334  -19.1981  -14.7420 N   0  0  0  0  0  0  0  0  0  0  0  0
   22.2464  -19.3585  -15.3129 C   0  0  1  0  0  0  0  0  0  0  0  0
   21.8394  -17.9504  -15.5786 C   0  0  0  0  0  0  0  0  0  0  0  0
   20.5553  -17.5786  -16.1386 C   0  0  0  0  0  0  0  0  0  0  0  0
   20.1937  -16.1830  -16.4417 C   0  0  0  0  0  0  0  0  0  0  0  0
   18.7998  -16.1943  -17.1354 C   0  0  0  0  0  0  0  0  0  0  0  0
   18.4263  -14.8362  -17.4917 N   0  0  0  0  0  0  0  0  0  0  0  0
   22.4615  -20.2028  -16.4998 C   0  0  0  0  0  0  0  0  0  0  0  0
   21.3918  -21.0109  -16.9471 O   0  0  0  0  0  0  0  0  0  0  0  0
   23.5548  -20.2636  -17.1631 O   0  0  0  0  0  0  0  0  0  0  0  0
  2  1  1  0
  3  2  1  0
  4  3  1  0
  4  5  1  0
  5  6  1  1
  7  5  1  0
  7  8  2  0
 10 11  1  6
 10  9  1  0
 12 10  1  0
 13 12  1  6
 13 14  1  0
 14  7  1  0
 15 13  1  0
 16 15  2  0
 17 15  1  0
 18 24  1  0
 18 17  1  0
 18 19  1  6
 20 19  1  0
 21 20  1  0
 22 21  1  0
 23 22  1  0
 24 25  1  0
 26 24  2  0
M  END
$$$$
