MLK.pdb
     RDKit          3D

 26 25  0  0  1  0  0  0  0  0999 V2000
   19.2248  -11.9100  -22.3498 C   0  0  0  0  0  0  0  0  0  0  0  0
   19.6753  -13.6452  -22.6219 S   0  0  0  0  0  0  0  0  0  0  0  0
   21.1781  -14.0831  -21.7029 C   0  0  0  0  0  0  0  0  0  0  0  0
   21.1394  -13.3356  -20.3689 C   0  0  0  0  0  0  0  0  0  0  0  0
   22.4269  -13.6974  -19.6585 C   0  0  2  0  0  0  0  0  0  0  0  0
   22.5062  -15.1330  -19.4635 N   0  0  0  0  0  0  0  0  0  0  0  0
   22.5565  -12.9855  -18.3490 C   0  0  0  0  0  0  0  0  0  0  0  0
   21.6943  -13.1275  -17.4373 O   0  0  0  0  0  0  0  0  0  0  0  0
   25.3473  -10.9851  -14.0446 C   0  0  0  0  0  0  0  0  0  0  0  0
   25.5315  -10.2687  -15.3662 C   0  0  1  0  0  0  0  0  0  0  0  0
   27.0528   -9.9863  -15.4334 C   0  0  0  0  0  0  0  0  0  0  0  0
   25.2156  -11.1019  -16.5405 C   0  0  0  0  0  0  0  0  0  0  0  0
   23.7679  -11.4349  -16.7566 C   0  0  2  0  0  0  0  0  0  0  0  0
   23.6440  -12.1255  -18.0717 N   0  0  0  0  0  0  0  0  0  0  0  0
   23.0005  -10.1829  -16.8875 C   0  0  0  0  0  0  0  0  0  0  0  0
   23.2777   -9.4617  -17.9149 O   0  0  0  0  0  0  0  0  0  0  0  0
   22.0058   -9.7136  -16.0127 N   0  0  0  0  0  0  0  0  0  0  0  0
   21.3275   -8.4048  -16.3326 C   0  0  1  0  0  0  0  0  0  0  0  0
   19.8835   -8.7479  -16.2067 C   0  0  0  0  0  0  0  0  0  0  0  0
   18.8160   -7.7718  -16.3000 C   0  0  0  0  0  0  0  0  0  0  0  0
   17.3935   -8.1344  -16.1762 C   0  0  0  0  0  0  0  0  0  0  0  0
   16.5590   -6.8245  -16.2851 C   0  0  0  0  0  0  0  0  0  0  0  0
   15.1473   -7.1376  -16.1437 N   0  0  0  0  0  0  0  0  0  0  0  0
   21.8632   -7.4852  -15.3152 C   0  0  0  0  0  0  0  0  0  0  0  0
   21.8004   -6.0967  -15.5709 O   0  0  0  0  0  0  0  0  0  0  0  0
   22.3892   -7.8505  -14.2066 O   0  0  0  0  0  0  0  0  0  0  0  0
  2  1  1  0
  3  2  1  0
  4  3  1  0
  4  5  1  0
  5  6  1  1
  7  5  1  0
  7  8  2  0
 10 11  1  6
 10  9  1  0
 12 10  1  0
 13 12  1  6
 13 14  1  0
 14  7  1  0
 15 13  1  0
 16 15  2  0
 17 15  1  0
 18 24  1  0
 18 17  1  0
 18 19  1  1
 20 19  1  0
 21 20  1  0
 22 21  1  0
 23 22  1  0
 24 25  1  0
 26 24  2  0
M  END
$$$$
