MLK.pdb
     RDKit          3D

 26 25  0  0  1  0  0  0  0  0999 V2000
   17.7752  -12.5011  -12.2273 C   0  0  0  0  0  0  0  0  0  0  0  0
   16.3373  -13.3895  -11.5707 S   0  0  0  0  0  0  0  0  0  0  0  0
   15.3348  -12.3152  -10.5051 C   0  0  0  0  0  0  0  0  0  0  0  0
   15.5466  -10.8735  -10.9707 C   0  0  0  0  0  0  0  0  0  0  0  0
   14.7976  -10.0080   -9.9791 C   0  0  2  0  0  0  0  0  0  0  0  0
   13.3803  -10.3165  -10.0139 N   0  0  0  0  0  0  0  0  0  0  0  0
   15.0205   -8.5510  -10.2358 C   0  0  0  0  0  0  0  0  0  0  0  0
   14.3644   -7.9333  -11.1205 O   0  0  0  0  0  0  0  0  0  0  0  0
   14.7073   -4.4105   -6.9359 C   0  0  0  0  0  0  0  0  0  0  0  0
   14.7749   -5.2230   -8.2122 C   0  0  1  0  0  0  0  0  0  0  0  0
   14.2036   -4.2737   -9.2945 C   0  0  0  0  0  0  0  0  0  0  0  0
   16.1491   -5.5486   -8.6348 C   0  0  0  0  0  0  0  0  0  0  0  0
   16.2892   -6.3916   -9.8689 C   0  0  2  0  0  0  0  0  0  0  0  0
   15.9701   -7.8012   -9.5043 N   0  0  0  0  0  0  0  0  0  0  0  0
   17.7021   -6.3968  -10.2902 C   0  0  0  0  0  0  0  0  0  0  0  0
   18.5258   -6.9578   -9.4784 O   0  0  0  0  0  0  0  0  0  0  0  0
   18.2245   -5.8604  -11.4794 N   0  0  0  0  0  0  0  0  0  0  0  0
   19.6884   -6.0675  -11.7782 C   0  0  1  0  0  0  0  0  0  0  0  0
   19.6750   -7.2788  -12.6450 C   0  0  0  0  0  0  0  0  0  0  0  0
   20.8653   -7.8506  -13.2429 C   0  0  0  0  0  0  0  0  0  0  0  0
   20.8111   -8.8960  -14.2794 C   0  0  0  0  0  0  0  0  0  0  0  0
   22.2682   -9.1662  -14.7570 C   0  0  0  0  0  0  0  0  0  0  0  0
   22.2572  -10.1924  -15.7854 N   0  0  0  0  0  0  0  0  0  0  0  0
   20.0842   -4.8097  -12.4333 C   0  0  0  0  0  0  0  0  0  0  0  0
   21.4553   -4.4673  -12.4483 O   0  0  0  0  0  0  0  0  0  0  0  0
   19.2734   -3.9928  -12.9940 O   0  0  0  0  0  0  0  0  0  0  0  0
  2  1  1  0
  3  2  1  0
  4  3  1  0
  4  5  1  0
  5  6  1  6
  7  5  1  0
  7  8  2  0
 10 11  1  6
 10  9  1  0
 12 10  1  0
 13 12  1  1
 13 14  1  0
 14  7  1  0
 15 13  1  0
 16 15  2  0
 17 15  1  0
 18 24  1  0
 18 17  1  0
 18 19  1  6
 20 19  1  0
 21 20  1  0
 22 21  1  0
 23 22  1  0
 24 25  1  0
 26 24  2  0
M  END
$$$$
