MLK.pdb
     RDKit          3D

 26 25  0  0  1  0  0  0  0  0999 V2000
   16.8642  -14.3901  -18.6907 C   0  0  0  0  0  0  0  0  0  0  0  0
   17.6826  -13.6316  -20.1200 S   0  0  0  0  0  0  0  0  0  0  0  0
   19.4153  -13.2381  -19.7493 C   0  0  0  0  0  0  0  0  0  0  0  0
   19.4261  -12.2501  -18.5816 C   0  0  0  0  0  0  0  0  0  0  0  0
   20.8857  -11.9491  -18.3125 C   0  0  2  0  0  0  0  0  0  0  0  0
   21.5813  -13.1569  -17.9094 N   0  0  0  0  0  0  0  0  0  0  0  0
   21.0499  -10.8824  -17.2763 C   0  0  0  0  0  0  0  0  0  0  0  0
   20.1240  -10.6120  -16.4613 O   0  0  0  0  0  0  0  0  0  0  0  0
   25.8824   -9.9382  -14.7512 C   0  0  0  0  0  0  0  0  0  0  0  0
   24.4096  -10.0970  -15.0664 C   0  0  1  0  0  0  0  0  0  0  0  0
   23.7291  -10.1444  -13.6759 C   0  0  0  0  0  0  0  0  0  0  0  0
   23.8266   -8.9404  -15.7703 C   0  0  0  0  0  0  0  0  0  0  0  0
   22.3777   -9.0461  -16.1484 C   0  0  2  0  0  0  0  0  0  0  0  0
   22.2423  -10.1315  -17.1609 N   0  0  0  0  0  0  0  0  0  0  0  0
   21.9673   -7.8063  -16.8327 C   0  0  0  0  0  0  0  0  0  0  0  0
   22.5104   -7.5937  -17.9782 O   0  0  0  0  0  0  0  0  0  0  0  0
   21.0486   -6.8531  -16.3615 N   0  0  0  0  0  0  0  0  0  0  0  0
   20.7607   -5.6473  -17.2208 C   0  0  1  0  0  0  0  0  0  0  0  0
   19.3438   -5.8667  -17.6246 C   0  0  0  0  0  0  0  0  0  0  0  0
   18.5454   -4.8769  -18.3201 C   0  0  0  0  0  0  0  0  0  0  0  0
   17.1593   -5.1316  -18.7493 C   0  0  0  0  0  0  0  0  0  0  0  0
   16.6564   -3.8661  -19.5042 C   0  0  0  0  0  0  0  0  0  0  0  0
   15.3657   -4.1456  -20.1097 N   0  0  0  0  0  0  0  0  0  0  0  0
   21.0045   -4.5147  -16.3122 C   0  0  0  0  0  0  0  0  0  0  0  0
   21.3467   -3.2659  -16.8786 O   0  0  0  0  0  0  0  0  0  0  0  0
   20.9322   -4.5753  -15.0354 O   0  0  0  0  0  0  0  0  0  0  0  0
  2  1  1  0
  3  2  1  0
  4  3  1  0
  4  5  1  0
  5  6  1  1
  7  5  1  0
  7  8  2  0
 10 11  1  1
 10  9  1  0
 12 10  1  0
 13 12  1  6
 13 14  1  0
 14  7  1  0
 15 13  1  0
 16 15  2  0
 17 15  1  0
 18 24  1  0
 18 17  1  0
 18 19  1  1
 20 19  1  0
 21 20  1  0
 22 21  1  0
 23 22  1  0
 24 25  1  0
 26 24  2  0
M  END
$$$$
