MLK.pdb
     RDKit          3D

 26 25  0  0  1  0  0  0  0  0999 V2000
   34.6103  -11.8421  -23.1561 C   0  0  0  0  0  0  0  0  0  0  0  0
   35.6360  -12.5798  -21.8555 S   0  0  0  0  0  0  0  0  0  0  0  0
   34.7971  -12.5189  -20.2470 C   0  0  0  0  0  0  0  0  0  0  0  0
   34.2933  -11.0892  -20.0415 C   0  0  0  0  0  0  0  0  0  0  0  0
   33.7520  -11.0443  -18.6279 C   0  0  2  0  0  0  0  0  0  0  0  0
   32.6794  -12.0087  -18.4703 N   0  0  0  0  0  0  0  0  0  0  0  0
   33.2791   -9.6738  -18.2585 C   0  0  0  0  0  0  0  0  0  0  0  0
   32.1233   -9.2725  -18.5713 O   0  0  0  0  0  0  0  0  0  0  0  0
   33.6917   -7.6285  -13.2224 C   0  0  0  0  0  0  0  0  0  0  0  0
   33.1511   -7.8102  -14.6254 C   0  0  1  0  0  0  0  0  0  0  0  0
   31.8467   -6.9751  -14.6382 C   0  0  0  0  0  0  0  0  0  0  0  0
   34.0164   -7.2372  -15.6722 C   0  0  0  0  0  0  0  0  0  0  0  0
   33.5792   -7.4470  -17.0928 C   0  0  2  0  0  0  0  0  0  0  0  0
   34.0987   -8.7685  -17.5458 N   0  0  0  0  0  0  0  0  0  0  0  0
   34.2345   -6.4433  -17.9512 C   0  0  0  0  0  0  0  0  0  0  0  0
   35.4842   -6.6357  -18.1829 O   0  0  0  0  0  0  0  0  0  0  0  0
   33.6304   -5.3172  -18.5359 N   0  0  0  0  0  0  0  0  0  0  0  0
   34.4994   -4.3562  -19.3086 C   0  0  1  0  0  0  0  0  0  0  0  0
   34.2517   -4.7581  -20.7214 C   0  0  0  0  0  0  0  0  0  0  0  0
   34.8091   -4.0607  -21.8632 C   0  0  0  0  0  0  0  0  0  0  0  0
   34.5280   -4.4590  -23.2534 C   0  0  0  0  0  0  0  0  0  0  0  0
   35.3182   -3.4991  -24.1907 C   0  0  0  0  0  0  0  0  0  0  0  0
   34.9199   -3.7325  -25.5683 N   0  0  0  0  0  0  0  0  0  0  0  0
   33.9824   -3.0355  -18.9135 C   0  0  0  0  0  0  0  0  0  0  0  0
   32.7338   -2.9772  -18.2539 O   0  0  0  0  0  0  0  0  0  0  0  0
   34.5817   -1.9243  -19.1258 O   0  0  0  0  0  0  0  0  0  0  0  0
  2  1  1  0
  3  2  1  0
  4  3  1  0
  4  5  1  0
  5  6  1  6
  7  5  1  0
  7  8  2  0
 10 11  1  1
 10  9  1  0
 12 10  1  0
 13 12  1  1
 13 14  1  0
 14  7  1  0
 15 13  1  0
 16 15  2  0
 17 15  1  0
 18 24  1  0
 18 17  1  0
 18 19  1  6
 20 19  1  0
 21 20  1  0
 22 21  1  0
 23 22  1  0
 24 25  1  0
 26 24  2  0
M  END
$$$$
