MLK.pdb
     RDKit          3D

 26 25  0  0  1  0  0  0  0  0999 V2000
   18.4965  -22.6943  -11.4744 C   0  0  0  0  0  0  0  0  0  0  0  0
   18.0782  -22.1764  -13.1610 S   0  0  0  0  0  0  0  0  0  0  0  0
   19.5655  -22.0452  -14.1932 C   0  0  0  0  0  0  0  0  0  0  0  0
   20.5580  -21.1396  -13.4620 C   0  0  0  0  0  0  0  0  0  0  0  0
   21.7290  -20.9673  -14.4068 C   0  0  2  0  0  0  0  0  0  0  0  0
   22.1756  -22.2592  -14.8933 N   0  0  0  0  0  0  0  0  0  0  0  0
   22.8610  -20.2345  -13.7589 C   0  0  0  0  0  0  0  0  0  0  0  0
   22.7204  -19.0531  -13.3354 O   0  0  0  0  0  0  0  0  0  0  0  0
   25.4385  -22.1002   -9.7181 C   0  0  0  0  0  0  0  0  0  0  0  0
   24.8517  -21.2114  -10.7948 C   0  0  1  0  0  0  0  0  0  0  0  0
   24.5007  -19.8990  -10.0509 C   0  0  0  0  0  0  0  0  0  0  0  0
   25.8148  -20.8422  -11.8479 C   0  0  0  0  0  0  0  0  0  0  0  0
   25.2723  -20.0600  -13.0086 C   0  0  2  0  0  0  0  0  0  0  0  0
   24.1340  -20.8263  -13.5907 N   0  0  0  0  0  0  0  0  0  0  0  0
   26.2963  -19.9973  -14.0674 C   0  0  0  0  0  0  0  0  0  0  0  0
   27.4855  -20.3361  -13.7161 O   0  0  0  0  0  0  0  0  0  0  0  0
   26.0974  -19.6143  -15.4048 N   0  0  0  0  0  0  0  0  0  0  0  0
   27.1139  -20.0437  -16.4334 C   0  0  1  0  0  0  0  0  0  0  0  0
   27.0628  -21.5295  -16.3402 C   0  0  0  0  0  0  0  0  0  0  0  0
   27.8978  -22.4119  -17.1308 C   0  0  0  0  0  0  0  0  0  0  0  0
   27.7684  -23.8788  -17.0885 C   0  0  0  0  0  0  0  0  0  0  0  0
   28.8814  -24.4794  -17.9967 C   0  0  0  0  0  0  0  0  0  0  0  0
   28.9454  -25.9169  -17.7961 N   0  0  0  0  0  0  0  0  0  0  0  0
   26.6026  -19.4577  -17.6835 C   0  0  0  0  0  0  0  0  0  0  0  0
   27.5353  -19.0959  -18.6817 O   0  0  0  0  0  0  0  0  0  0  0  0
   25.3657  -19.2462  -17.9375 O   0  0  0  0  0  0  0  0  0  0  0  0
  2  1  1  0
  3  2  1  0
  4  3  1  0
  4  5  1  0
  5  6  1  1
  7  5  1  0
  7  8  2  0
 10 11  1  1
 10  9  1  0
 12 10  1  0
 13 12  1  1
 13 14  1  0
 14  7  1  0
 15 13  1  0
 16 15  2  0
 17 15  1  0
 18 24  1  0
 18 17  1  0
 18 19  1  6
 20 19  1  0
 21 20  1  0
 22 21  1  0
 23 22  1  0
 24 25  1  0
 26 24  2  0
M  END
$$$$
