MLK.pdb
     RDKit          3D

 26 25  0  0  1  0  0  0  0  0999 V2000
   18.7666  -17.7765  -17.1178 C   0  0  0  0  0  0  0  0  0  0  0  0
   19.1045  -17.7241  -18.8985 S   0  0  0  0  0  0  0  0  0  0  0  0
   20.0708  -16.2518  -19.3382 C   0  0  0  0  0  0  0  0  0  0  0  0
   20.5888  -15.6330  -18.0388 C   0  0  0  0  0  0  0  0  0  0  0  0
   21.2662  -14.3399  -18.4418 C   0  0  2  0  0  0  0  0  0  0  0  0
   22.3370  -14.6066  -19.3839 N   0  0  0  0  0  0  0  0  0  0  0  0
   21.7899  -13.5948  -17.2547 C   0  0  0  0  0  0  0  0  0  0  0  0
   21.0756  -13.4090  -16.2300 O   0  0  0  0  0  0  0  0  0  0  0  0
   27.2343  -13.4228  -16.1391 C   0  0  0  0  0  0  0  0  0  0  0  0
   25.7294  -13.4929  -15.9837 C   0  0  1  0  0  0  0  0  0  0  0  0
   25.5223  -13.9485  -14.5180 C   0  0  0  0  0  0  0  0  0  0  0  0
   25.0599  -12.1854  -16.1065 C   0  0  0  0  0  0  0  0  0  0  0  0
   23.5588  -12.1977  -16.1031 C   0  0  2  0  0  0  0  0  0  0  0  0
   23.1012  -13.0671  -17.2240 N   0  0  0  0  0  0  0  0  0  0  0  0
   23.0658  -10.8445  -16.4185 C   0  0  0  0  0  0  0  0  0  0  0  0
   23.2964  -10.4296  -17.6131 O   0  0  0  0  0  0  0  0  0  0  0  0
   22.3731   -9.9814  -15.5525 N   0  0  0  0  0  0  0  0  0  0  0  0
   21.9896   -8.6128  -16.0580 C   0  0  1  0  0  0  0  0  0  0  0  0
   20.7002   -8.8740  -16.7566 C   0  0  0  0  0  0  0  0  0  0  0  0
   19.8893   -7.8344  -17.3587 C   0  0  0  0  0  0  0  0  0  0  0  0
   18.6382   -8.1203  -18.0822 C   0  0  0  0  0  0  0  0  0  0  0  0
   18.0719   -6.7668  -18.6033 C   0  0  0  0  0  0  0  0  0  0  0  0
   16.9744   -7.0231  -19.5203 N   0  0  0  0  0  0  0  0  0  0  0  0
   21.9059   -7.8063  -14.8291 C   0  0  0  0  0  0  0  0  0  0  0  0
   21.9898   -6.4004  -14.9462 O   0  0  0  0  0  0  0  0  0  0  0  0
   21.7639   -8.2855  -13.6505 O   0  0  0  0  0  0  0  0  0  0  0  0
  2  1  1  0
  3  2  1  0
  4  3  1  0
  4  5  1  0
  5  6  1  6
  7  5  1  0
  7  8  2  0
 10 11  1  1
 10  9  1  0
 12 10  1  0
 13 12  1  6
 13 14  1  0
 14  7  1  0
 15 13  1  0
 16 15  2  0
 17 15  1  0
 18 24  1  0
 18 17  1  0
 18 19  1  1
 20 19  1  0
 21 20  1  0
 22 21  1  0
 23 22  1  0
 24 25  1  0
 26 24  2  0
M  END
$$$$
