MLK.pdb
     RDKit          3D

 26 25  0  0  1  0  0  0  0  0999 V2000
   10.5786  -17.0423    7.9601 C   0  0  0  0  0  0  0  0  0  0  0  0
    9.5769  -16.0592    6.8121 S   0  0  0  0  0  0  0  0  0  0  0  0
   10.6113  -14.9146    5.8559 C   0  0  0  0  0  0  0  0  0  0  0  0
   11.7670  -15.7215    5.2615 C   0  0  0  0  0  0  0  0  0  0  0  0
   12.6045  -14.7272    4.4847 C   0  0  2  0  0  0  0  0  0  0  0  0
   11.8665  -14.2397    3.3345 N   0  0  0  0  0  0  0  0  0  0  0  0
   13.9097  -15.3185    4.0542 C   0  0  0  0  0  0  0  0  0  0  0  0
   13.9816  -16.0965    3.0621 O   0  0  0  0  0  0  0  0  0  0  0  0
   18.8457  -12.5933    4.7246 C   0  0  0  0  0  0  0  0  0  0  0  0
   17.8049  -13.4700    4.0600 C   0  0  1  0  0  0  0  0  0  0  0  0
   18.4710  -13.9055    2.7313 C   0  0  0  0  0  0  0  0  0  0  0  0
   17.5155  -14.7111    4.8010 C   0  0  0  0  0  0  0  0  0  0  0  0
   16.4197  -15.5789    4.2538 C   0  0  2  0  0  0  0  0  0  0  0  0
   15.1171  -15.0358    4.7334 N   0  0  0  0  0  0  0  0  0  0  0  0
   16.5333  -16.9259    4.8424 C   0  0  0  0  0  0  0  0  0  0  0  0
   16.1862  -17.0284    6.0758 O   0  0  0  0  0  0  0  0  0  0  0  0
   16.9723  -18.0912    4.1912 N   0  0  0  0  0  0  0  0  0  0  0  0
   17.0094  -19.3803    4.9737 C   0  0  1  0  0  0  0  0  0  0  0  0
   16.9919  -20.4128    3.9001 C   0  0  0  0  0  0  0  0  0  0  0  0
   15.8702  -20.6216    3.0063 C   0  0  0  0  0  0  0  0  0  0  0  0
   15.8621  -21.6700    1.9714 C   0  0  0  0  0  0  0  0  0  0  0  0
   14.4570  -21.6634    1.3005 C   0  0  0  0  0  0  0  0  0  0  0  0
   14.3655  -22.7668    0.3598 N   0  0  0  0  0  0  0  0  0  0  0  0
   18.2581  -19.2744    5.7466 C   0  0  0  0  0  0  0  0  0  0  0  0
   18.4855  -20.2118    6.7796 O   0  0  0  0  0  0  0  0  0  0  0  0
   19.1617  -18.3880    5.5547 O   0  0  0  0  0  0  0  0  0  0  0  0
  2  1  1  0
  3  2  1  0
  4  3  1  0
  4  5  1  0
  5  6  1  6
  7  5  1  0
  7  8  2  0
 10 11  1  6
 10  9  1  0
 12 10  1  0
 13 12  1  1
 13 14  1  0
 14  7  1  0
 15 13  1  0
 16 15  2  0
 17 15  1  0
 18 24  1  0
 18 17  1  0
 18 19  1  6
 20 19  1  0
 21 20  1  0
 22 21  1  0
 23 22  1  0
 24 25  1  0
 26 24  2  0
M  END
$$$$
