MLK.pdb
     RDKit          3D

 26 25  0  0  1  0  0  0  0  0999 V2000
   25.3999  -19.5765   -7.8223 C   0  0  0  0  0  0  0  0  0  0  0  0
   24.9385  -21.1743   -8.5447 S   0  0  0  0  0  0  0  0  0  0  0  0
   25.8953  -21.5130  -10.0495 C   0  0  0  0  0  0  0  0  0  0  0  0
   25.7258  -20.3150  -10.9854 C   0  0  0  0  0  0  0  0  0  0  0  0
   25.3772  -20.8980  -12.3389 C   0  0  2  0  0  0  0  0  0  0  0  0
   26.4406  -21.7719  -12.7979 N   0  0  0  0  0  0  0  0  0  0  0  0
   25.1080  -19.8289  -13.3504 C   0  0  0  0  0  0  0  0  0  0  0  0
   24.2303  -18.9432  -13.1504 O   0  0  0  0  0  0  0  0  0  0  0  0
   28.2933  -17.5877  -15.2252 C   0  0  0  0  0  0  0  0  0  0  0  0
   27.5812  -17.6670  -16.5595 C   0  0  1  0  0  0  0  0  0  0  0  0
   28.6998  -18.0443  -17.5623 C   0  0  0  0  0  0  0  0  0  0  0  0
   26.5810  -18.7473  -16.6336 C   0  0  0  0  0  0  0  0  0  0  0  0
   25.4956  -18.7286  -15.5968 C   0  0  2  0  0  0  0  0  0  0  0  0
   25.8192  -19.7598  -14.5704 N   0  0  0  0  0  0  0  0  0  0  0  0
   24.2305  -19.1632  -16.2166 C   0  0  0  0  0  0  0  0  0  0  0  0
   24.2529  -20.3165  -16.7839 O   0  0  0  0  0  0  0  0  0  0  0  0
   23.0198  -18.4501  -16.2402 N   0  0  0  0  0  0  0  0  0  0  0  0
   21.8001  -19.1251  -16.8166 C   0  0  1  0  0  0  0  0  0  0  0  0
   21.3011  -19.9308  -15.6674 C   0  0  0  0  0  0  0  0  0  0  0  0
   20.0653  -20.6877  -15.6950 C   0  0  0  0  0  0  0  0  0  0  0  0
   19.5516  -21.4151  -14.5214 C   0  0  0  0  0  0  0  0  0  0  0  0
   18.1989  -22.0719  -14.9252 C   0  0  0  0  0  0  0  0  0  0  0  0
   17.7432  -22.9389  -13.8521 N   0  0  0  0  0  0  0  0  0  0  0  0
   20.9497  -17.9969  -17.2310 C   0  0  0  0  0  0  0  0  0  0  0  0
   21.3042  -16.6991  -16.7979 O   0  0  0  0  0  0  0  0  0  0  0  0
   19.9017  -18.1023  -17.9588 O   0  0  0  0  0  0  0  0  0  0  0  0
  2  1  1  0
  3  2  1  0
  4  3  1  0
  4  5  1  0
  5  6  1  6
  7  5  1  0
  7  8  2  0
 10 11  1  6
 10  9  1  0
 12 10  1  0
 13 12  1  6
 13 14  1  0
 14  7  1  0
 15 13  1  0
 16 15  2  0
 17 15  1  0
 18 24  1  0
 18 17  1  0
 18 19  1  1
 20 19  1  0
 21 20  1  0
 22 21  1  0
 23 22  1  0
 24 25  1  0
 26 24  2  0
M  END
$$$$
