REV.pdb
     RDKit          3D

 28 27  0  0  1  0  0  0  0  0999 V2000
    9.5671  -14.2563   16.4651 N   0  0  0  0  0  0  0  0  0  0  0  0
    8.4498  -13.5092   16.0086 C   0  0  0  0  0  0  0  0  0  0  0  0
    8.3824  -13.2072   14.7630 N   0  0  0  0  0  0  0  0  0  0  0  0
    7.4298  -13.1046   16.9099 N   0  0  0  0  0  0  0  0  0  0  0  0
    7.4856  -13.3888   18.3169 C   0  0  0  0  0  0  0  0  0  0  0  0
    8.5344  -14.3820   18.6815 C   0  0  0  0  0  0  0  0  0  0  0  0
    8.5832  -14.8112   20.1007 C   0  0  0  0  0  0  0  0  0  0  0  0
    8.1086  -16.1894   20.3958 C   0  0  2  0  0  0  0  0  0  0  0  0
    6.9793  -16.5676   19.6098 N   0  0  0  0  0  0  0  0  0  0  0  0
    7.9148  -16.4368   21.8464 C   0  0  0  0  0  0  0  0  0  0  0  0
    6.7506  -16.3692   22.3104 O   0  0  0  0  0  0  0  0  0  0  0  0
    7.5127  -12.7792   14.3942 N   0  0  0  0  0  0  0  0  0  0  0  0
    8.9732  -16.7467   22.7444 C   0  0  1  0  0  0  0  0  0  0  0  0
    8.7662  -16.9395   24.1651 C   0  0  0  0  0  0  0  0  0  0  0  0
    9.7865  -17.8509   24.7849 C   0  0  0  0  0  0  0  0  0  0  0  0
    9.6368  -17.9898   26.2757 C   0  0  0  0  0  0  0  0  0  0  0  0
   10.6692  -18.9435   26.7523 O   0  0  0  0  0  0  0  0  0  0  0  0
   10.3556  -20.0319   27.3049 C   0  0  0  0  0  0  0  0  0  0  0  0
    8.9151  -15.5984   24.8354 O   0  0  0  0  0  0  0  0  0  0  0  0
    9.9006  -14.8582   24.5733 O   0  0  0  0  0  0  0  0  0  0  0  0
   12.0250  -18.6864   26.6142 C   0  0  0  0  0  0  0  0  0  0  0  0
    7.2587  -11.8342   27.4105 C   0  0  2  0  0  0  0  0  0  0  0  0
    6.9258  -13.0686   26.6082 C   0  0  0  0  0  0  0  0  0  0  0  0
    6.2880  -12.7109   25.3073 C   0  0  1  0  0  0  0  0  0  0  0  0
    8.1895  -13.8784   26.4439 N   0  0  0  0  0  0  0  0  0  0  0  0
    7.9699  -15.1235   25.7709 C   0  0  0  0  0  0  0  0  0  0  0  0
    8.7793  -14.0818   27.8043 O   0  0  0  0  0  0  0  0  0  0  0  0
    9.3144  -12.9684   28.4317 O   0  0  0  0  0  0  0  0  0  0  0  0
  2  1  1  0
  2  4  1  0
  3  2  2  0
  5  4  1  0
  6  5  1  0
  7  6  1  0
  8  7  1  0
  8  9  1  6
 10 11  2  0
 10  8  1  0
 12 10  1  0
 13 12  1  0
 14 15  1  0
 13 14  1  6
 15 16  1  0
 16 17  2  0
 16 20  1  0
 18 13  1  0
 18 19  2  0
 22 21  1  1
 23 22  1  0
 24 22  1  0
 24 25  1  1
 25 18  1  0
 26 24  1  0
 27 26  1  0
 28 26  2  0
M  END
$$$$
