REV.pdb
     RDKit          3D

 28 27  0  0  1  0  0  0  0  0999 V2000
    8.0788  -13.5063   15.4215 N   0  0  0  0  0  0  0  0  0  0  0  0
    8.6967  -14.6573   15.9766 C   0  0  0  0  0  0  0  0  0  0  0  0
    8.8086  -15.7057   15.2448 N   0  0  0  0  0  0  0  0  0  0  0  0
    9.1800  -14.6492   17.3118 N   0  0  0  0  0  0  0  0  0  0  0  0
    8.8902  -13.5841   18.2312 C   0  0  0  0  0  0  0  0  0  0  0  0
    7.4750  -13.5689   18.6962 C   0  0  0  0  0  0  0  0  0  0  0  0
    7.2125  -14.1048   20.0543 C   0  0  0  0  0  0  0  0  0  0  0  0
    7.5860  -15.5243   20.2932 C   0  0  2  0  0  0  0  0  0  0  0  0
    6.7544  -16.4435   19.5862 N   0  0  0  0  0  0  0  0  0  0  0  0
    7.7194  -15.8532   21.7344 C   0  0  0  0  0  0  0  0  0  0  0  0
    6.6974  -15.7761   22.4586 O   0  0  0  0  0  0  0  0  0  0  0  0
    9.2989  -16.5365   15.6254 N   0  0  0  0  0  0  0  0  0  0  0  0
    8.9404  -16.2517   22.3451 C   0  0  1  0  0  0  0  0  0  0  0  0
    9.0229  -16.6874   23.7242 C   0  0  0  0  0  0  0  0  0  0  0  0
   10.2485  -17.5092   24.0041 C   0  0  0  0  0  0  0  0  0  0  0  0
   10.3591  -17.9480   25.4392 C   0  0  0  0  0  0  0  0  0  0  0  0
   11.5819  -18.7786   25.5706 O   0  0  0  0  0  0  0  0  0  0  0  0
   12.3361  -19.0012   24.5858 C   0  0  0  0  0  0  0  0  0  0  0  0
    9.1165  -15.4566   24.5881 O   0  0  0  0  0  0  0  0  0  0  0  0
    9.9648  -14.5602   24.3345 O   0  0  0  0  0  0  0  0  0  0  0  0
   11.9547  -19.3493   26.7784 C   0  0  0  0  0  0  0  0  0  0  0  0
    7.1870  -12.1894   27.5486 C   0  0  2  0  0  0  0  0  0  0  0  0
    6.9913  -13.4194   26.6959 C   0  0  0  0  0  0  0  0  0  0  0  0
    6.2659  -13.0911   25.4337 C   0  0  1  0  0  0  0  0  0  0  0  0
    8.3441  -14.0450   26.4544 N   0  0  0  0  0  0  0  0  0  0  0  0
    8.2694  -15.2607   25.7008 C   0  0  0  0  0  0  0  0  0  0  0  0
    8.9903  -14.2595   27.7872 O   0  0  0  0  0  0  0  0  0  0  0  0
    9.3812  -13.1294   28.4868 O   0  0  0  0  0  0  0  0  0  0  0  0
  2  1  1  0
  2  4  1  0
  3  2  2  0
  5  4  1  0
  6  5  1  0
  7  6  1  0
  8  7  1  0
  8  9  1  1
 10 11  2  0
 10  8  1  0
 12 10  1  0
 13 12  1  0
 14 15  1  0
 13 14  1  6
 15 16  1  0
 16 17  2  0
 16 20  1  0
 18 13  1  0
 18 19  2  0
 22 21  1  1
 23 22  1  0
 24 22  1  0
 24 25  1  1
 25 18  1  0
 26 24  1  0
 27 26  1  0
 28 26  2  0
M  END
$$$$
