REV.pdb
     RDKit          3D

 28 27  0  0  1  0  0  0  0  0999 V2000
    9.2179  -13.6516   17.2660 N   0  0  0  0  0  0  0  0  0  0  0  0
    8.6655  -13.3393   18.5357 C   0  0  0  0  0  0  0  0  0  0  0  0
    9.0785  -12.2857   19.1412 N   0  0  0  0  0  0  0  0  0  0  0  0
    7.6782  -14.1740   19.1230 N   0  0  0  0  0  0  0  0  0  0  0  0
    7.4015  -15.4988   18.6415 C   0  0  0  0  0  0  0  0  0  0  0  0
    6.2995  -16.1803   19.3766 C   0  0  0  0  0  0  0  0  0  0  0  0
    6.4126  -16.2286   20.8549 C   0  0  0  0  0  0  0  0  0  0  0  0
    6.2611  -17.5645   21.4906 C   0  0  2  0  0  0  0  0  0  0  0  0
    5.2013  -18.3326   20.9221 N   0  0  0  0  0  0  0  0  0  0  0  0
    6.1984  -17.4969   22.9720 C   0  0  0  0  0  0  0  0  0  0  0  0
    5.1958  -16.9578   23.5004 O   0  0  0  0  0  0  0  0  0  0  0  0
    8.7137  -12.0726   20.0883 N   0  0  0  0  0  0  0  0  0  0  0  0
    7.2102  -18.0083   23.8307 C   0  0  2  0  0  0  0  0  0  0  0  0
    7.1968  -17.8088   25.2655 C   0  0  0  0  0  0  0  0  0  0  0  0
    8.0996  -18.7618   25.9954 C   0  0  0  0  0  0  0  0  0  0  0  0
    8.1476  -18.5213   27.4800 C   0  0  0  0  0  0  0  0  0  0  0  0
    9.0829  -19.5090   28.0734 O   0  0  0  0  0  0  0  0  0  0  0  0
    8.7739  -20.7260   28.1822 C   0  0  0  0  0  0  0  0  0  0  0  0
    7.7150  -16.4208   25.5393 O   0  0  0  0  0  0  0  0  0  0  0  0
    8.5666  -15.8937   24.7748 O   0  0  0  0  0  0  0  0  0  0  0  0
   10.3384  -19.1444   28.5361 C   0  0  0  0  0  0  0  0  0  0  0  0
    7.3722  -12.0887   27.7424 C   0  0  2  0  0  0  0  0  0  0  0  0
    6.7153  -13.4148   27.4457 C   0  0  0  0  0  0  0  0  0  0  0  0
    5.5158  -13.2400   26.5753 C   0  0  1  0  0  0  0  0  0  0  0  0
    7.7540  -14.3306   26.8437 N   0  0  0  0  0  0  0  0  0  0  0  0
    7.2736  -15.6656   26.6478 C   0  0  0  0  0  0  0  0  0  0  0  0
    8.9569  -14.3009   27.7336 O   0  0  0  0  0  0  0  0  0  0  0  0
    9.7141  -13.1406   27.7307 O   0  0  0  0  0  0  0  0  0  0  0  0
  2  1  1  0
  2  4  1  0
  3  2  2  0
  5  4  1  0
  6  5  1  0
  7  6  1  0
  8  7  1  0
  8  9  1  6
 10 11  2  0
 10  8  1  0
 12 10  1  0
 13 12  1  0
 14 15  1  0
 13 14  1  6
 15 16  1  0
 16 17  2  0
 16 20  1  0
 18 13  1  0
 18 19  2  0
 22 21  1  1
 23 22  1  0
 24 22  1  0
 24 25  1  1
 25 18  1  0
 26 24  1  0
 27 26  1  0
 28 26  2  0
M  END
$$$$
