REV.pdb
     RDKit          3D

 28 27  0  0  1  0  0  0  0  0999 V2000
    8.7022  -11.5488   19.1987 N   0  0  0  0  0  0  0  0  0  0  0  0
    9.3782  -12.7587   18.8920 C   0  0  0  0  0  0  0  0  0  0  0  0
   10.5579  -12.9380   19.3645 N   0  0  0  0  0  0  0  0  0  0  0  0
    8.7632  -13.7483   18.0803 N   0  0  0  0  0  0  0  0  0  0  0  0
    8.0017  -14.8346   18.6313 C   0  0  0  0  0  0  0  0  0  0  0  0
    6.8015  -14.3921   19.3949 C   0  0  0  0  0  0  0  0  0  0  0  0
    6.6746  -14.8895   20.7866 C   0  0  0  0  0  0  0  0  0  0  0  0
    6.9864  -16.3263   21.0107 C   0  0  2  0  0  0  0  0  0  0  0  0
    5.9363  -17.1947   20.5872 N   0  0  0  0  0  0  0  0  0  0  0  0
    7.4515  -16.6092   22.3916 C   0  0  0  0  0  0  0  0  0  0  0  0
    6.5885  -16.7580   23.2905 O   0  0  0  0  0  0  0  0  0  0  0  0
   11.1070  -13.7602   19.0515 N   0  0  0  0  0  0  0  0  0  0  0  0
    8.8212  -16.7220   22.7575 C   0  0  2  0  0  0  0  0  0  0  0  0
    9.2505  -17.0393   24.1041 C   0  0  0  0  0  0  0  0  0  0  0  0
   10.6583  -17.5597   24.1603 C   0  0  0  0  0  0  0  0  0  0  0  0
   11.0940  -17.9570   25.5446 C   0  0  0  0  0  0  0  0  0  0  0  0
   12.4784  -18.4843   25.4549 O   0  0  0  0  0  0  0  0  0  0  0  0
   13.3297  -18.2567   26.3558 C   0  0  0  0  0  0  0  0  0  0  0  0
    9.2249  -15.7635   24.9051 O   0  0  0  0  0  0  0  0  0  0  0  0
    9.2387  -14.6445   24.3263 O   0  0  0  0  0  0  0  0  0  0  0  0
   12.9032  -19.2506   24.3798 C   0  0  0  0  0  0  0  0  0  0  0  0
    6.6335  -14.6244   27.0125 C   0  0  2  0  0  0  0  0  0  0  0  0
    7.8292  -13.7612   26.6909 C   0  0  0  0  0  0  0  0  0  0  0  0
    7.7475  -12.4446   27.3887 C   0  0  1  0  0  0  0  0  0  0  0  0
    9.0771  -14.5373   27.0374 N   0  0  0  0  0  0  0  0  0  0  0  0
    9.1849  -15.7702   26.3167 C   0  0  0  0  0  0  0  0  0  0  0  0
    9.0777  -14.7601   28.5174 O   0  0  0  0  0  0  0  0  0  0  0  0
    9.3286  -13.6591   29.3200 O   0  0  0  0  0  0  0  0  0  0  0  0
  2  1  1  0
  2  4  1  0
  3  2  2  0
  5  4  1  0
  6  5  1  0
  7  6  1  0
  8  7  1  0
  8  9  1  1
 10 11  2  0
 10  8  1  0
 12 10  1  0
 13 12  1  0
 14 15  1  0
 13 14  1  6
 15 16  1  0
 16 17  2  0
 16 20  1  0
 18 13  1  0
 18 19  2  0
 22 21  1  6
 23 22  1  0
 24 22  1  0
 24 25  1  6
 25 18  1  0
 26 24  1  0
 27 26  1  0
 28 26  2  0
M  END
$$$$
