REV.pdb
     RDKit          3D

 28 27  0  0  1  0  0  0  0  0999 V2000
    8.3470  -13.8540   17.5305 N   0  0  0  0  0  0  0  0  0  0  0  0
    8.7220  -13.3304   18.7954 C   0  0  0  0  0  0  0  0  0  0  0  0
    9.0478  -12.0915   18.8735 N   0  0  0  0  0  0  0  0  0  0  0  0
    8.7368  -14.1589   19.9486 N   0  0  0  0  0  0  0  0  0  0  0  0
    7.9529  -15.3586   20.0474 C   0  0  0  0  0  0  0  0  0  0  0  0
    6.5316  -15.1111   20.4189 C   0  0  0  0  0  0  0  0  0  0  0  0
    5.6643  -16.3045   20.5740 C   0  0  0  0  0  0  0  0  0  0  0  0
    6.2537  -17.4667   21.2908 C   0  0  2  0  0  0  0  0  0  0  0  0
    5.7550  -18.7188   20.8222 N   0  0  0  0  0  0  0  0  0  0  0  0
    6.1857  -17.3313   22.7674 C   0  0  0  0  0  0  0  0  0  0  0  0
    5.0701  -17.0964   23.2918 O   0  0  0  0  0  0  0  0  0  0  0  0
    9.4222  -11.7238   19.7680 N   0  0  0  0  0  0  0  0  0  0  0  0
    7.3134  -17.4524   23.6256 C   0  0  2  0  0  0  0  0  0  0  0  0
    7.2250  -17.3031   25.0638 C   0  0  0  0  0  0  0  0  0  0  0  0
    7.9525  -18.3857   25.8084 C   0  0  0  0  0  0  0  0  0  0  0  0
    7.9293  -18.2033   27.3019 C   0  0  0  0  0  0  0  0  0  0  0  0
    8.7475  -19.2833   27.9074 O   0  0  0  0  0  0  0  0  0  0  0  0
    8.2200  -20.2165   28.5701 C   0  0  0  0  0  0  0  0  0  0  0  0
    7.8878  -16.0006   25.4302 O   0  0  0  0  0  0  0  0  0  0  0  0
    9.0418  -15.7280   25.0041 O   0  0  0  0  0  0  0  0  0  0  0  0
   10.1275  -19.3201   27.7752 C   0  0  0  0  0  0  0  0  0  0  0  0
    6.3337  -12.2977   25.7916 C   0  0  2  0  0  0  0  0  0  0  0  0
    7.0540  -12.7333   27.0445 C   0  0  0  0  0  0  0  0  0  0  0  0
    6.0893  -13.0685   28.1327 C   0  0  2  0  0  0  0  0  0  0  0  0
    7.9655  -13.8830   26.6880 N   0  0  0  0  0  0  0  0  0  0  0  0
    7.2516  -15.0464   26.2540 C   0  0  0  0  0  0  0  0  0  0  0  0
    8.8206  -14.1723   27.8817 O   0  0  0  0  0  0  0  0  0  0  0  0
    9.7287  -13.1958   28.2576 O   0  0  0  0  0  0  0  0  0  0  0  0
  2  1  1  0
  2  4  1  0
  3  2  2  0
  5  4  1  0
  6  5  1  0
  7  6  1  0
  8  7  1  0
  8  9  1  1
 10 11  2  0
 10  8  1  0
 12 10  1  0
 13 12  1  0
 14 15  1  0
 13 14  1  6
 15 16  1  0
 16 17  2  0
 16 20  1  0
 18 13  1  0
 18 19  2  0
 22 21  1  1
 23 22  1  0
 24 22  1  0
 24 25  1  1
 25 18  1  0
 26 24  1  0
 27 26  1  0
 28 26  2  0
M  END
$$$$
