REV.pdb
     RDKit          3D

 28 27  0  0  1  0  0  0  0  0999 V2000
    8.3854  -16.1609   16.4135 N   0  0  0  0  0  0  0  0  0  0  0  0
    8.5117  -14.8081   16.0023 C   0  0  0  0  0  0  0  0  0  0  0  0
    8.0789  -14.4781   14.8401 N   0  0  0  0  0  0  0  0  0  0  0  0
    9.1042  -13.8418   16.8576 N   0  0  0  0  0  0  0  0  0  0  0  0
    8.6020  -13.5654   18.1748 C   0  0  0  0  0  0  0  0  0  0  0  0
    7.1550  -13.8800   18.3374 C   0  0  0  0  0  0  0  0  0  0  0  0
    6.7451  -14.4919   19.6251 C   0  0  0  0  0  0  0  0  0  0  0  0
    7.8376  -14.9898   20.5028 C   0  0  2  0  0  0  0  0  0  0  0  0
    8.5544  -16.0831   19.9307 N   0  0  0  0  0  0  0  0  0  0  0  0
    7.3887  -15.2543   21.8926 C   0  0  0  0  0  0  0  0  0  0  0  0
    6.6879  -14.3855   22.4662 O   0  0  0  0  0  0  0  0  0  0  0  0
    8.2349  -13.5110   14.4996 N   0  0  0  0  0  0  0  0  0  0  0  0
    7.7066  -16.4375   22.6149 C   0  0  1  0  0  0  0  0  0  0  0  0
    7.2742  -16.6648   23.9787 C   0  0  0  0  0  0  0  0  0  0  0  0
    7.6569  -18.0229   24.4934 C   0  0  0  0  0  0  0  0  0  0  0  0
    7.3544  -18.2154   25.9547 C   0  0  0  0  0  0  0  0  0  0  0  0
    7.6967  -19.6145   26.3123 O   0  0  0  0  0  0  0  0  0  0  0  0
    7.1841  -20.5935   25.7064 C   0  0  0  0  0  0  0  0  0  0  0  0
    7.9702  -15.6548   24.8537 O   0  0  0  0  0  0  0  0  0  0  0  0
    9.2122  -15.4684   24.7520 O   0  0  0  0  0  0  0  0  0  0  0  0
    8.5937  -19.9140   27.3267 C   0  0  0  0  0  0  0  0  0  0  0  0
    7.8639  -11.6604   27.6134 C   0  0  2  0  0  0  0  0  0  0  0  0
    7.0429  -12.6920   26.8785 C   0  0  0  0  0  0  0  0  0  0  0  0
    6.3745  -12.0983   25.6836 C   0  0  1  0  0  0  0  0  0  0  0  0
    7.9441  -13.8538   26.5353 N   0  0  0  0  0  0  0  0  0  0  0  0
    7.2688  -14.8874   25.8093 C   0  0  0  0  0  0  0  0  0  0  0  0
    8.5299  -14.3677   27.8130 O   0  0  0  0  0  0  0  0  0  0  0  0
    9.4064  -13.5315   28.4853 O   0  0  0  0  0  0  0  0  0  0  0  0
  2  1  1  0
  2  4  1  0
  3  2  2  0
  5  4  1  0
  6  5  1  0
  7  6  1  0
  8  7  1  0
  8  9  1  6
 10 11  2  0
 10  8  1  0
 12 10  1  0
 13 12  1  0
 14 15  1  0
 13 14  1  6
 15 16  1  0
 16 17  2  0
 16 20  1  0
 18 13  1  0
 18 19  2  0
 22 21  1  1
 23 22  1  0
 24 22  1  0
 24 25  1  1
 25 18  1  0
 26 24  1  0
 27 26  1  0
 28 26  2  0
M  END
$$$$
