REV.pdb
     RDKit          3D

 28 27  0  0  1  0  0  0  0  0999 V2000
    9.2808  -13.4148   17.1422 N   0  0  0  0  0  0  0  0  0  0  0  0
    9.3028  -12.9006   18.4651 C   0  0  0  0  0  0  0  0  0  0  0  0
   10.4380  -12.6255   18.9967 N   0  0  0  0  0  0  0  0  0  0  0  0
    8.0957  -12.6955   19.1843 N   0  0  0  0  0  0  0  0  0  0  0  0
    7.5668  -13.6692   20.0985 C   0  0  0  0  0  0  0  0  0  0  0  0
    7.4533  -15.0343   19.5129 C   0  0  0  0  0  0  0  0  0  0  0  0
    8.6696  -15.8826   19.5558 C   0  0  0  0  0  0  0  0  0  0  0  0
    8.5429  -17.1928   20.2477 C   0  0  2  0  0  0  0  0  0  0  0  0
    7.7803  -18.1420   19.5036 N   0  0  0  0  0  0  0  0  0  0  0  0
    8.0921  -17.0627   21.6559 C   0  0  0  0  0  0  0  0  0  0  0  0
    6.8597  -17.0941   21.8907 O   0  0  0  0  0  0  0  0  0  0  0  0
   10.4625  -12.2049   19.9444 N   0  0  0  0  0  0  0  0  0  0  0  0
    8.9767  -16.9039   22.7582 C   0  0  2  0  0  0  0  0  0  0  0  0
    8.5452  -17.0287   24.1354 C   0  0  0  0  0  0  0  0  0  0  0  0
    9.3826  -17.9944   24.9240 C   0  0  0  0  0  0  0  0  0  0  0  0
   10.8548  -17.6869   24.8758 C   0  0  0  0  0  0  0  0  0  0  0  0
   11.5658  -18.7296   25.6567 O   0  0  0  0  0  0  0  0  0  0  0  0
   11.9286  -19.8150   25.1289 C   0  0  0  0  0  0  0  0  0  0  0  0
    8.7032  -15.6801   24.7885 O   0  0  0  0  0  0  0  0  0  0  0  0
    9.6537  -14.9196   24.4634 O   0  0  0  0  0  0  0  0  0  0  0  0
   11.8654  -18.5630   27.0005 C   0  0  0  0  0  0  0  0  0  0  0  0
    7.0223  -11.9326   27.3886 C   0  0  2  0  0  0  0  0  0  0  0  0
    6.6975  -13.2583   26.7441 C   0  0  0  0  0  0  0  0  0  0  0  0
    5.7824  -13.0818   25.5786 C   0  0  1  0  0  0  0  0  0  0  0  0
    7.9967  -13.9350   26.3783 N   0  0  0  0  0  0  0  0  0  0  0  0
    7.8054  -15.2207   25.7768 C   0  0  0  0  0  0  0  0  0  0  0  0
    8.8285  -14.0234   27.6193 O   0  0  0  0  0  0  0  0  0  0  0  0
    9.1326  -15.2924   28.0847 O   0  0  0  0  0  0  0  0  0  0  0  0
  2  1  1  0
  2  4  1  0
  3  2  2  0
  5  4  1  0
  6  5  1  0
  7  6  1  0
  8  7  1  0
  8  9  1  6
 10 11  2  0
 10  8  1  0
 12 10  1  0
 13 12  1  0
 14 15  1  0
 13 14  1  6
 15 16  1  0
 16 17  2  0
 16 20  1  0
 18 13  1  0
 18 19  2  0
 22 21  1  1
 23 22  1  0
 24 22  1  0
 24 25  1  1
 25 18  1  0
 26 24  1  0
 27 26  1  0
 28 26  2  0
M  END
$$$$
