REV.pdb
     RDKit          3D

 28 27  0  0  1  0  0  0  0  0999 V2000
    7.5249  -12.9571   16.2230 N   0  0  0  0  0  0  0  0  0  0  0  0
    8.4322  -13.2220   17.2820 C   0  0  0  0  0  0  0  0  0  0  0  0
    9.0033  -12.2297   17.8620 N   0  0  0  0  0  0  0  0  0  0  0  0
    8.7021  -14.5549   17.6904 N   0  0  0  0  0  0  0  0  0  0  0  0
    8.7755  -14.9389   19.0727 C   0  0  0  0  0  0  0  0  0  0  0  0
    7.4514  -14.9584   19.7553 C   0  0  0  0  0  0  0  0  0  0  0  0
    7.4443  -15.3422   21.1882 C   0  0  0  0  0  0  0  0  0  0  0  0
    8.0725  -16.6460   21.5309 C   0  0  2  0  0  0  0  0  0  0  0  0
    7.4434  -17.7519   20.8850 N   0  0  0  0  0  0  0  0  0  0  0  0
    8.2348  -16.8439   22.9930 C   0  0  0  0  0  0  0  0  0  0  0  0
    7.5058  -16.1776   23.7673 O   0  0  0  0  0  0  0  0  0  0  0  0
    9.6795  -12.4134   18.6266 N   0  0  0  0  0  0  0  0  0  0  0  0
    9.1702  -17.7464   23.5701 C   0  0  2  0  0  0  0  0  0  0  0  0
    9.2859  -17.9495   24.9997 C   0  0  0  0  0  0  0  0  0  0  0  0
   10.2535  -19.0411   25.3575 C   0  0  0  0  0  0  0  0  0  0  0  0
   10.4331  -19.2182   26.8409 C   0  0  0  0  0  0  0  0  0  0  0  0
   10.2095  -20.6499   27.1611 O   0  0  0  0  0  0  0  0  0  0  0  0
   10.8524  -21.5636   26.5779 C   0  0  0  0  0  0  0  0  0  0  0  0
    9.8230  -16.6765   25.6007 O   0  0  0  0  0  0  0  0  0  0  0  0
   10.7239  -16.0216   25.0118 O   0  0  0  0  0  0  0  0  0  0  0  0
    9.2859  -21.0529   28.1140 C   0  0  0  0  0  0  0  0  0  0  0  0
    9.5896  -12.7700   28.3696 C   0  0  2  0  0  0  0  0  0  0  0  0
    8.8916  -13.9197   27.6845 C   0  0  0  0  0  0  0  0  0  0  0  0
    8.1636  -13.4598   26.4657 C   0  0  1  0  0  0  0  0  0  0  0  0
    9.9186  -14.9871   27.3920 N   0  0  0  0  0  0  0  0  0  0  0  0
    9.3451  -16.1733   26.8305 C   0  0  0  0  0  0  0  0  0  0  0  0
   10.6498  -15.2758   28.6655 O   0  0  0  0  0  0  0  0  0  0  0  0
   10.5446  -16.5598   29.1751 O   0  0  0  0  0  0  0  0  0  0  0  0
  2  1  1  0
  2  4  1  0
  3  2  2  0
  5  4  1  0
  6  5  1  0
  7  6  1  0
  8  7  1  0
  8  9  1  1
 10 11  2  0
 10  8  1  0
 12 10  1  0
 13 12  1  0
 14 15  1  0
 13 14  1  6
 15 16  1  0
 16 17  2  0
 16 20  1  0
 18 13  1  0
 18 19  2  0
 22 21  1  1
 23 22  1  0
 24 22  1  0
 24 25  1  1
 25 18  1  0
 26 24  1  0
 27 26  1  0
 28 26  2  0
M  END
$$$$
