REV.pdb
     RDKit          3D

 28 27  0  0  1  0  0  0  0  0999 V2000
    9.9202  -15.1702   17.1153 N   0  0  0  0  0  0  0  0  0  0  0  0
    8.8802  -14.3172   16.6619 C   0  0  0  0  0  0  0  0  0  0  0  0
    8.1470  -14.7110   15.6850 N   0  0  0  0  0  0  0  0  0  0  0  0
    8.6563  -13.0563   17.2753 N   0  0  0  0  0  0  0  0  0  0  0  0
    8.4201  -12.9147   18.6852 C   0  0  0  0  0  0  0  0  0  0  0  0
    7.0520  -13.3305   19.1033 C   0  0  0  0  0  0  0  0  0  0  0  0
    6.9278  -13.9780   20.4322 C   0  0  0  0  0  0  0  0  0  0  0  0
    7.2475  -15.4290   20.4979 C   0  0  2  0  0  0  0  0  0  0  0  0
    6.3050  -16.2372   19.7946 N   0  0  0  0  0  0  0  0  0  0  0  0
    7.5007  -15.9039   21.8812 C   0  0  0  0  0  0  0  0  0  0  0  0
    6.5177  -16.0563   22.6465 O   0  0  0  0  0  0  0  0  0  0  0  0
    7.4288  -14.0681   15.3022 N   0  0  0  0  0  0  0  0  0  0  0  0
    8.7950  -16.1975   22.3923 C   0  0  1  0  0  0  0  0  0  0  0  0
    9.0214  -16.6254   23.7577 C   0  0  0  0  0  0  0  0  0  0  0  0
   10.3000  -17.3959   23.9231 C   0  0  0  0  0  0  0  0  0  0  0  0
   10.5306  -17.8764   25.3303 C   0  0  0  0  0  0  0  0  0  0  0  0
   11.8353  -18.5828   25.3645 O   0  0  0  0  0  0  0  0  0  0  0  0
   11.9116  -19.8132   25.6267 C   0  0  0  0  0  0  0  0  0  0  0  0
    9.1438  -15.3892   24.6102 O   0  0  0  0  0  0  0  0  0  0  0  0
    9.9524  -14.4746   24.2984 O   0  0  0  0  0  0  0  0  0  0  0  0
   13.0311  -17.9277   25.1107 C   0  0  0  0  0  0  0  0  0  0  0  0
    7.5862  -12.1596   27.8048 C   0  0  2  0  0  0  0  0  0  0  0  0
    7.2687  -13.3290   26.9048 C   0  0  0  0  0  0  0  0  0  0  0  0
    6.5362  -12.8859   25.6825 C   0  0  1  0  0  0  0  0  0  0  0  0
    8.5597  -14.0469   26.5925 N   0  0  0  0  0  0  0  0  0  0  0  0
    8.3683  -15.2082   25.7764 C   0  0  0  0  0  0  0  0  0  0  0  0
    9.2169  -14.3874   27.8933 O   0  0  0  0  0  0  0  0  0  0  0  0
    9.6808  -13.3309   28.6602 O   0  0  0  0  0  0  0  0  0  0  0  0
  2  1  1  0
  2  4  1  0
  3  2  2  0
  5  4  1  0
  6  5  1  0
  7  6  1  0
  8  7  1  0
  8  9  1  1
 10 11  2  0
 10  8  1  0
 12 10  1  0
 13 12  1  0
 14 15  1  0
 13 14  1  6
 15 16  1  0
 16 17  2  0
 16 20  1  0
 18 13  1  0
 18 19  2  0
 22 21  1  1
 23 22  1  0
 24 22  1  0
 24 25  1  1
 25 18  1  0
 26 24  1  0
 27 26  1  0
 28 26  2  0
M  END
$$$$
