REV.pdb
     RDKit          3D

 28 27  0  0  1  0  0  0  0  0999 V2000
    7.7228  -13.3787   15.8782 N   0  0  0  0  0  0  0  0  0  0  0  0
    8.7623  -14.1893   16.4048 C   0  0  0  0  0  0  0  0  0  0  0  0
    8.9717  -15.3387   15.8735 N   0  0  0  0  0  0  0  0  0  0  0  0
    9.5525  -13.7388   17.4952 N   0  0  0  0  0  0  0  0  0  0  0  0
    9.1810  -13.9668   18.8639 C   0  0  0  0  0  0  0  0  0  0  0  0
    7.8466  -13.4074   19.2188 C   0  0  0  0  0  0  0  0  0  0  0  0
    6.9124  -14.3111   19.9338 C   0  0  0  0  0  0  0  0  0  0  0  0
    7.4339  -15.6559   20.2960 C   0  0  2  0  0  0  0  0  0  0  0  0
    6.8018  -16.7100   19.5710 N   0  0  0  0  0  0  0  0  0  0  0  0
    7.4572  -15.8925   21.7612 C   0  0  0  0  0  0  0  0  0  0  0  0
    6.3805  -15.7873   22.3973 O   0  0  0  0  0  0  0  0  0  0  0  0
    9.8172  -15.8738   16.1462 N   0  0  0  0  0  0  0  0  0  0  0  0
    8.6308  -16.2323   22.4891 C   0  0  1  0  0  0  0  0  0  0  0  0
    8.6157  -16.5371   23.9052 C   0  0  0  0  0  0  0  0  0  0  0  0
    9.7412  -17.4412   24.3194 C   0  0  0  0  0  0  0  0  0  0  0  0
    9.7566  -17.7395   25.7942 C   0  0  0  0  0  0  0  0  0  0  0  0
   10.8999  -18.6459   26.0657 O   0  0  0  0  0  0  0  0  0  0  0  0
   11.9699  -18.2212   26.5783 C   0  0  0  0  0  0  0  0  0  0  0  0
    8.7980  -15.2424   24.6539 O   0  0  0  0  0  0  0  0  0  0  0  0
    8.9694  -14.1613   24.0299 O   0  0  0  0  0  0  0  0  0  0  0  0
   10.8487  -20.0000   25.7703 C   0  0  0  0  0  0  0  0  0  0  0  0
    7.7612  -12.8321   24.8477 C   0  0  2  0  0  0  0  0  0  0  0  0
    7.7493  -12.9842   26.3494 C   0  0  0  0  0  0  0  0  0  0  0  0
    6.4112  -13.4315   26.8358 C   0  0  2  0  0  0  0  0  0  0  0  0
    8.8639  -13.9264   26.7361 N   0  0  0  0  0  0  0  0  0  0  0  0
    8.7845  -15.1891   26.0649 C   0  0  0  0  0  0  0  0  0  0  0  0
    8.8274  -14.0876   28.2236 O   0  0  0  0  0  0  0  0  0  0  0  0
    9.1523  -12.9771   28.9857 O   0  0  0  0  0  0  0  0  0  0  0  0
  2  1  1  0
  2  4  1  0
  3  2  2  0
  5  4  1  0
  6  5  1  0
  7  6  1  0
  8  7  1  0
  8  9  1  6
 10 11  2  0
 10  8  1  0
 12 10  1  0
 13 12  1  0
 14 15  1  0
 13 14  1  6
 15 16  1  0
 16 17  2  0
 16 20  1  0
 18 13  1  0
 18 19  2  0
 22 21  1  1
 23 22  1  0
 24 22  1  0
 24 25  1  1
 25 18  1  0
 26 24  1  0
 27 26  1  0
 28 26  2  0
M  END
$$$$
