REV.pdb
     RDKit          3D

 28 27  0  0  1  0  0  0  0  0999 V2000
    7.9045  -12.5294   16.6177 N   0  0  0  0  0  0  0  0  0  0  0  0
    8.2788  -13.8331   16.1992 C   0  0  0  0  0  0  0  0  0  0  0  0
    8.1604  -14.1355   14.9576 N   0  0  0  0  0  0  0  0  0  0  0  0
    8.7729  -14.7815   17.1334 N   0  0  0  0  0  0  0  0  0  0  0  0
    7.9536  -15.3404   18.1726 C   0  0  0  0  0  0  0  0  0  0  0  0
    7.7069  -14.4031   19.3039 C   0  0  0  0  0  0  0  0  0  0  0  0
    6.8872  -14.9155   20.4292 C   0  0  0  0  0  0  0  0  0  0  0  0
    7.1992  -16.2883   20.9085 C   0  0  2  0  0  0  0  0  0  0  0  0
    6.3107  -17.2743   20.3847 N   0  0  0  0  0  0  0  0  0  0  0  0
    7.3481  -16.3666   22.3833 C   0  0  0  0  0  0  0  0  0  0  0  0
    6.3465  -16.1137   23.0959 O   0  0  0  0  0  0  0  0  0  0  0  0
    8.5345  -15.0425   14.6215 N   0  0  0  0  0  0  0  0  0  0  0  0
    8.5621  -16.7123   23.0385 C   0  0  2  0  0  0  0  0  0  0  0  0
    8.6643  -16.8584   24.4761 C   0  0  0  0  0  0  0  0  0  0  0  0
    9.8203  -17.7214   24.8941 C   0  0  0  0  0  0  0  0  0  0  0  0
    9.9221  -17.9036   26.3843 C   0  0  0  0  0  0  0  0  0  0  0  0
   11.0741  -18.7982   26.6581 O   0  0  0  0  0  0  0  0  0  0  0  0
   10.9359  -20.0492   26.7230 C   0  0  0  0  0  0  0  0  0  0  0  0
    8.9081  -15.4905   25.0589 O   0  0  0  0  0  0  0  0  0  0  0  0
    9.7896  -14.7348   24.5698 O   0  0  0  0  0  0  0  0  0  0  0  0
   12.3552  -18.3050   26.8555 C   0  0  0  0  0  0  0  0  0  0  0  0
    6.8591  -12.4888   25.3748 C   0  0  2  0  0  0  0  0  0  0  0  0
    7.2806  -12.8093   26.7883 C   0  0  0  0  0  0  0  0  0  0  0  0
    6.1467  -13.3796   27.5732 C   0  0  2  0  0  0  0  0  0  0  0  0
    8.4772  -13.7279   26.7261 N   0  0  0  0  0  0  0  0  0  0  0  0
    8.1690  -15.0072   26.1608 C   0  0  0  0  0  0  0  0  0  0  0  0
    9.0263  -13.8538   28.1126 O   0  0  0  0  0  0  0  0  0  0  0  0
    9.6052  -12.7231   28.6660 O   0  0  0  0  0  0  0  0  0  0  0  0
  2  1  1  0
  2  4  1  0
  3  2  2  0
  5  4  1  0
  6  5  1  0
  7  6  1  0
  8  7  1  0
  8  9  1  1
 10 11  2  0
 10  8  1  0
 12 10  1  0
 13 12  1  0
 14 15  1  0
 13 14  1  6
 15 16  1  0
 16 17  2  0
 16 20  1  0
 18 13  1  0
 18 19  2  0
 22 21  1  1
 23 22  1  0
 24 22  1  0
 24 25  1  1
 25 18  1  0
 26 24  1  0
 27 26  1  0
 28 26  2  0
M  END
$$$$
