REV.pdb
     RDKit          3D

 28 27  0  0  1  0  0  0  0  0999 V2000
    8.4419  -15.7600   16.8680 N   0  0  0  0  0  0  0  0  0  0  0  0
    8.2509  -14.5234   16.1978 C   0  0  0  0  0  0  0  0  0  0  0  0
    8.0668  -14.5369   14.9277 N   0  0  0  0  0  0  0  0  0  0  0  0
    8.2634  -13.2987   16.9164 N   0  0  0  0  0  0  0  0  0  0  0  0
    8.4170  -13.2426   18.3436 C   0  0  0  0  0  0  0  0  0  0  0  0
    7.1443  -12.9692   19.0680 C   0  0  0  0  0  0  0  0  0  0  0  0
    6.9648  -13.6398   20.3790 C   0  0  0  0  0  0  0  0  0  0  0  0
    7.4086  -15.0564   20.4681 C   0  0  2  0  0  0  0  0  0  0  0  0
    6.5902  -15.9433   19.7066 N   0  0  0  0  0  0  0  0  0  0  0  0
    7.6134  -15.5122   21.8657 C   0  0  0  0  0  0  0  0  0  0  0  0
    6.6187  -15.5506   22.6300 O   0  0  0  0  0  0  0  0  0  0  0  0
    8.1072  -13.6435   14.4026 N   0  0  0  0  0  0  0  0  0  0  0  0
    8.8737  -15.9091   22.3918 C   0  0  1  0  0  0  0  0  0  0  0  0
    9.0370  -16.4209   23.7371 C   0  0  0  0  0  0  0  0  0  0  0  0
   10.2444  -17.3021   23.8836 C   0  0  0  0  0  0  0  0  0  0  0  0
   10.4918  -17.7467   25.2996 C   0  0  0  0  0  0  0  0  0  0  0  0
   11.7370  -18.5540   25.3148 O   0  0  0  0  0  0  0  0  0  0  0  0
   12.8316  -18.0842   24.9032 C   0  0  0  0  0  0  0  0  0  0  0  0
    9.2433  -15.2426   24.6531 O   0  0  0  0  0  0  0  0  0  0  0  0
   10.1049  -14.3643   24.3813 O   0  0  0  0  0  0  0  0  0  0  0  0
   11.7588  -19.8601   25.7805 C   0  0  0  0  0  0  0  0  0  0  0  0
    7.4448  -12.2667   25.7141 C   0  0  2  0  0  0  0  0  0  0  0  0
    7.6490  -13.0738   26.9732 C   0  0  0  0  0  0  0  0  0  0  0  0
    6.3941  -13.7750   27.3741 C   0  0  2  0  0  0  0  0  0  0  0  0
    8.8060  -14.0169   26.7456 N   0  0  0  0  0  0  0  0  0  0  0  0
    8.4901  -15.0772   25.8361 C   0  0  0  0  0  0  0  0  0  0  0  0
    9.2337  -14.5421   28.0801 O   0  0  0  0  0  0  0  0  0  0  0  0
    9.7295  -13.6221   28.9897 O   0  0  0  0  0  0  0  0  0  0  0  0
  2  1  1  0
  2  4  1  0
  3  2  2  0
  5  4  1  0
  6  5  1  0
  7  6  1  0
  8  7  1  0
  8  9  1  1
 10 11  2  0
 10  8  1  0
 12 10  1  0
 13 12  1  0
 14 15  1  0
 13 14  1  6
 15 16  1  0
 16 17  2  0
 16 20  1  0
 18 13  1  0
 18 19  2  0
 22 21  1  1
 23 22  1  0
 24 22  1  0
 24 25  1  1
 25 18  1  0
 26 24  1  0
 27 26  1  0
 28 26  2  0
M  END
$$$$
