REV.pdb
     RDKit          3D

 28 27  0  0  1  0  0  0  0  0999 V2000
    7.8746  -12.6811   18.4566 N   0  0  0  0  0  0  0  0  0  0  0  0
    8.5217  -13.8420   17.9580 C   0  0  0  0  0  0  0  0  0  0  0  0
    8.7925  -13.9020   16.7049 N   0  0  0  0  0  0  0  0  0  0  0  0
    8.8617  -14.9130   18.8262 N   0  0  0  0  0  0  0  0  0  0  0  0
    8.0510  -15.2797   19.9539 C   0  0  0  0  0  0  0  0  0  0  0  0
    6.7028  -15.7888   19.5764 C   0  0  0  0  0  0  0  0  0  0  0  0
    5.7941  -16.1614   20.6882 C   0  0  0  0  0  0  0  0  0  0  0  0
    6.0722  -17.4534   21.3703 C   0  0  2  0  0  0  0  0  0  0  0  0
    5.2254  -18.5109   20.9224 N   0  0  0  0  0  0  0  0  0  0  0  0
    6.1137  -17.3302   22.8489 C   0  0  0  0  0  0  0  0  0  0  0  0
    5.0870  -16.9156   23.4397 O   0  0  0  0  0  0  0  0  0  0  0  0
    9.2637  -14.7466   16.3306 N   0  0  0  0  0  0  0  0  0  0  0  0
    7.2513  -17.6552   23.6381 C   0  0  2  0  0  0  0  0  0  0  0  0
    7.2944  -17.4565   25.0724 C   0  0  0  0  0  0  0  0  0  0  0  0
    8.2622  -18.3766   25.7600 C   0  0  0  0  0  0  0  0  0  0  0  0
    8.3648  -18.1370   27.2419 C   0  0  0  0  0  0  0  0  0  0  0  0
    9.3407  -19.1083   27.7959 O   0  0  0  0  0  0  0  0  0  0  0  0
   10.3840  -18.7270   28.3912 C   0  0  0  0  0  0  0  0  0  0  0  0
    7.7741  -16.0509   25.3255 O   0  0  0  0  0  0  0  0  0  0  0  0
    8.7630  -15.5894   24.6956 O   0  0  0  0  0  0  0  0  0  0  0  0
    9.1547  -20.4783   27.6868 C   0  0  0  0  0  0  0  0  0  0  0  0
    5.7315  -13.3330   27.9057 C   0  0  2  0  0  0  0  0  0  0  0  0
    6.5684  -12.8696   26.7382 C   0  0  0  0  0  0  0  0  0  0  0  0
    7.0980  -11.4932   26.9667 C   0  0  1  0  0  0  0  0  0  0  0  0
    7.6563  -13.8901   26.5041 N   0  0  0  0  0  0  0  0  0  0  0  0
    7.1439  -15.2060   26.2653 C   0  0  0  0  0  0  0  0  0  0  0  0
    8.5709  -13.8593   27.6883 O   0  0  0  0  0  0  0  0  0  0  0  0
    9.3811  -12.7443   27.8297 O   0  0  0  0  0  0  0  0  0  0  0  0
  2  1  1  0
  2  4  1  0
  3  2  2  0
  5  4  1  0
  6  5  1  0
  7  6  1  0
  8  7  1  0
  8  9  1  1
 10 11  2  0
 10  8  1  0
 12 10  1  0
 13 12  1  0
 14 15  1  0
 13 14  1  6
 15 16  1  0
 16 17  2  0
 16 20  1  0
 18 13  1  0
 18 19  2  0
 22 21  1  6
 23 22  1  0
 24 22  1  0
 24 25  1  6
 25 18  1  0
 26 24  1  0
 27 26  1  0
 28 26  2  0
M  END
$$$$
