SVW.pdb
     RDKit          3D

 28 29  0  0  1  0  0  0  0  0999 V2000
   27.5837  -17.6068  -16.6230 O   0  0  0  0  0  0  0  0  0  0  0  0
   26.8648  -18.2398  -15.5910 C   0  0  0  0  0  0  0  0  0  0  0  0
   27.7052  -19.3935  -15.0949 C   0  0  2  0  0  0  0  0  0  0  0  0
   28.3598  -19.9715  -16.2245 N   0  0  0  0  0  0  0  0  0  0  0  0
   26.7903  -20.3775  -14.4037 C   0  0  0  0  0  0  0  0  0  0  0  0
   26.3202  -21.2959  -15.1032 O   0  0  0  0  0  0  0  0  0  0  0  0
   25.4725  -20.5015   -9.7924 C   0  0  0  0  0  0  0  0  0  0  0  0
   26.1180  -21.3796  -10.8692 C   0  0  2  0  0  0  0  0  0  0  0  0
   27.5930  -21.2911  -10.6992 C   0  0  0  0  0  0  0  0  0  0  0  0
   25.5795  -21.0108  -12.2154 C   0  0  2  0  0  0  0  0  0  0  0  0
   26.4912  -20.2568  -13.0464 N   0  0  0  0  0  0  0  0  0  0  0  0
   24.2173  -20.4852  -12.2729 C   0  0  0  0  0  0  0  0  0  0  0  0
   23.9727  -19.2871  -11.8501 O   0  0  0  0  0  0  0  0  0  0  0  0
   23.1164  -21.1817  -12.7682 N   0  0  0  0  0  0  0  0  0  0  0  0
   21.8354  -20.5370  -13.0908 C   0  0  1  0  0  0  0  0  0  0  0  0
   22.1799  -19.6196  -14.2394 C   0  0  0  0  0  0  0  0  0  0  0  0
   21.0789  -18.8537  -14.8101 C   0  0  0  0  0  0  0  0  0  0  0  0
   20.0468  -18.2402  -14.0774 C   0  0  0  0  0  0  0  0  0  0  0  0
   19.1915  -17.6555  -14.9286 N   0  0  0  0  0  0  0  0  0  0  0  0
   19.5925  -17.8410  -16.2018 C   0  0  0  0  0  0  0  0  0  0  0  0
   19.0350  -17.4058  -17.3845 C   0  0  0  0  0  0  0  0  0  0  0  0
   19.6809  -17.7275  -18.5576 C   0  0  0  0  0  0  0  0  0  0  0  0
   20.8636  -18.4742  -18.5083 C   0  0  0  0  0  0  0  0  0  0  0  0
   21.3873  -18.8902  -17.3103 C   0  0  0  0  0  0  0  0  0  0  0  0
   20.7650  -18.5851  -16.1249 C   0  0  0  0  0  0  0  0  0  0  0  0
   20.8908  -21.5573  -13.5126 C   0  0  0  0  0  0  0  0  0  0  0  0
   19.5377  -21.4041  -13.2636 O   0  0  0  0  0  0  0  0  0  0  0  0
   21.2124  -22.6233  -14.1147 O   0  0  0  0  0  0  0  0  0  0  0  0
  2  1  1  0
  3  4  1  6
  3  2  1  0
  5  3  1  0
  6  5  2  0
  8  7  1  1
  8  9  1  0
 10  8  1  0
 10 11  1  1
 11  5  1  0
 12 10  1  0
 13 12  2  0
 14 12  1  0
 15 14  1  0
 15 16  1  6
 16 17  1  0
 17 25  1  0
 18 17  2  0
 18 19  1  0
 19 20  1  0
 20 21  1  0
 21 22  2  0
 23 22  1  0
 24 23  2  0
 25 20  2  0
 25 24  1  0
 26 15  1  0
 26 27  1  0
 28 26  2  0
M  END
$$$$
