SVW.pdb
     RDKit          3D

 28 29  0  0  1  0  0  0  0  0999 V2000
   29.8010  -18.8748  -15.3525 O   0  0  0  0  0  0  0  0  0  0  0  0
   28.9015  -18.8570  -14.2693 C   0  0  0  0  0  0  0  0  0  0  0  0
   27.5624  -19.3311  -14.7845 C   0  0  2  0  0  0  0  0  0  0  0  0
   27.2925  -18.6326  -16.0003 N   0  0  0  0  0  0  0  0  0  0  0  0
   26.5242  -19.0472  -13.7240 C   0  0  0  0  0  0  0  0  0  0  0  0
   25.8437  -18.0125  -13.8653 O   0  0  0  0  0  0  0  0  0  0  0  0
   22.7653  -20.4970  -11.5164 C   0  0  0  0  0  0  0  0  0  0  0  0
   23.9541  -20.5494  -12.4813 C   0  0  2  0  0  0  0  0  0  0  0  0
   23.9859  -21.9085  -13.0849 C   0  0  0  0  0  0  0  0  0  0  0  0
   25.1979  -20.1033  -11.7795 C   0  0  2  0  0  0  0  0  0  0  0  0
   26.3422  -19.9078  -12.6411 N   0  0  0  0  0  0  0  0  0  0  0  0
   25.5519  -20.7898  -10.5391 C   0  0  0  0  0  0  0  0  0  0  0  0
   26.2198  -21.8969  -10.5857 O   0  0  0  0  0  0  0  0  0  0  0  0
   25.2296  -20.3383   -9.2605 N   0  0  0  0  0  0  0  0  0  0  0  0
   25.4681  -21.1289   -8.0445 C   0  0  1  0  0  0  0  0  0  0  0  0
   25.5894  -20.0844   -6.9611 C   0  0  0  0  0  0  0  0  0  0  0  0
   26.9147  -19.5132   -6.7567 C   0  0  0  0  0  0  0  0  0  0  0  0
   27.6095  -18.7138   -7.6823 C   0  0  0  0  0  0  0  0  0  0  0  0
   28.8097  -18.3971   -7.1754 N   0  0  0  0  0  0  0  0  0  0  0  0
   28.9634  -18.9409   -5.9519 C   0  0  0  0  0  0  0  0  0  0  0  0
   30.0172  -18.8629   -5.0674 C   0  0  0  0  0  0  0  0  0  0  0  0
   29.8916  -19.5088   -3.8575 C   0  0  0  0  0  0  0  0  0  0  0  0
   28.7152  -20.2113   -3.5726 C   0  0  0  0  0  0  0  0  0  0  0  0
   27.6876  -20.2665   -4.4801 C   0  0  0  0  0  0  0  0  0  0  0  0
   27.7847  -19.6331   -5.6945 C   0  0  0  0  0  0  0  0  0  0  0  0
   24.3172  -21.9839   -7.8085 C   0  0  0  0  0  0  0  0  0  0  0  0
   24.4074  -23.0531   -6.9338 O   0  0  0  0  0  0  0  0  0  0  0  0
   23.1879  -21.8295   -8.3591 O   0  0  0  0  0  0  0  0  0  0  0  0
  2  1  1  0
  3  4  1  6
  3  2  1  0
  5  3  1  0
  6  5  2  0
  8  7  1  1
  8  9  1  0
 10  8  1  0
 10 11  1  6
 11  5  1  0
 12 10  1  0
 13 12  2  0
 14 12  1  0
 15 14  1  0
 15 16  1  1
 16 17  1  0
 17 25  1  0
 18 17  2  0
 18 19  1  0
 19 20  1  0
 20 21  1  0
 21 22  2  0
 23 22  1  0
 24 23  2  0
 25 20  2  0
 25 24  1  0
 26 15  1  0
 26 27  1  0
 28 26  2  0
M  END
$$$$
