SVW.pdb
     RDKit          3D

 28 29  0  0  1  0  0  0  0  0999 V2000
   30.4263  -23.5519  -18.8793 O   0  0  0  0  0  0  0  0  0  0  0  0
   29.5295  -24.5394  -19.3300 C   0  0  0  0  0  0  0  0  0  0  0  0
   30.0287  -25.8715  -18.8202 C   0  0  2  0  0  0  0  0  0  0  0  0
   31.2430  -26.1727  -19.5082 N   0  0  0  0  0  0  0  0  0  0  0  0
   28.9573  -26.9048  -19.0800 C   0  0  0  0  0  0  0  0  0  0  0  0
   29.0249  -27.5268  -20.1581 O   0  0  0  0  0  0  0  0  0  0  0  0
   26.6027  -28.4186  -15.7422 C   0  0  0  0  0  0  0  0  0  0  0  0
   26.8530  -29.1010  -17.0907 C   0  0  2  0  0  0  0  0  0  0  0  0
   28.0880  -29.9196  -16.9600 C   0  0  0  0  0  0  0  0  0  0  0  0
   26.8428  -28.0815  -18.1856 C   0  0  2  0  0  0  0  0  0  0  0  0
   27.9440  -27.1454  -18.1517 N   0  0  0  0  0  0  0  0  0  0  0  0
   25.5705  -27.4264  -18.4813 C   0  0  0  0  0  0  0  0  0  0  0  0
   25.1244  -26.5037  -17.6916 O   0  0  0  0  0  0  0  0  0  0  0  0
   24.7669  -27.7110  -19.5839 N   0  0  0  0  0  0  0  0  0  0  0  0
   23.4418  -27.1090  -19.7901 C   0  0  1  0  0  0  0  0  0  0  0  0
   23.5815  -26.3889  -21.1097 C   0  0  0  0  0  0  0  0  0  0  0  0
   22.3905  -25.7127  -21.6085 C   0  0  0  0  0  0  0  0  0  0  0  0
   21.8679  -24.5066  -21.1077 C   0  0  0  0  0  0  0  0  0  0  0  0
   20.7489  -24.2001  -21.7799 N   0  0  0  0  0  0  0  0  0  0  0  0
   20.4869  -25.1375  -22.7121 C   0  0  0  0  0  0  0  0  0  0  0  0
   19.4636  -25.2192  -23.6313 C   0  0  0  0  0  0  0  0  0  0  0  0
   19.4561  -26.2940  -24.4926 C   0  0  0  0  0  0  0  0  0  0  0  0
   20.4731  -27.2514  -24.4055 C   0  0  0  0  0  0  0  0  0  0  0  0
   21.4752  -27.1353  -23.4756 C   0  0  0  0  0  0  0  0  0  0  0  0
   21.5083  -26.0753  -22.6034 C   0  0  0  0  0  0  0  0  0  0  0  0
   22.4547  -28.1710  -19.8853 C   0  0  0  0  0  0  0  0  0  0  0  0
   21.1561  -27.9600  -19.4549 O   0  0  0  0  0  0  0  0  0  0  0  0
   22.6901  -29.3256  -20.3480 O   0  0  0  0  0  0  0  0  0  0  0  0
  2  1  1  0
  3  4  1  6
  3  2  1  0
  5  3  1  0
  6  5  2  0
  8  7  1  1
  8  9  1  0
 10  8  1  0
 10 11  1  1
 11  5  1  0
 12 10  1  0
 13 12  2  0
 14 12  1  0
 15 14  1  0
 15 16  1  6
 16 17  1  0
 17 25  1  0
 18 17  2  0
 18 19  1  0
 19 20  1  0
 20 21  1  0
 21 22  2  0
 23 22  1  0
 24 23  2  0
 25 20  2  0
 25 24  1  0
 26 15  1  0
 26 27  1  0
 28 26  2  0
M  END
$$$$
