SVW.pdb
     RDKit          3D

 28 29  0  0  1  0  0  0  0  0999 V2000
   25.2679  -23.4043  -16.5820 O   0  0  0  0  0  0  0  0  0  0  0  0
   26.4065  -24.0440  -17.1080 C   0  0  0  0  0  0  0  0  0  0  0  0
   27.4158  -22.9703  -17.4422 C   0  0  2  0  0  0  0  0  0  0  0  0
   28.5141  -23.5974  -18.1049 N   0  0  0  0  0  0  0  0  0  0  0  0
   27.8360  -22.3034  -16.1531 C   0  0  0  0  0  0  0  0  0  0  0  0
   28.9016  -22.6949  -15.6383 O   0  0  0  0  0  0  0  0  0  0  0  0
   28.6341  -18.7109  -15.7948 C   0  0  0  0  0  0  0  0  0  0  0  0
   27.4285  -18.9472  -14.8795 C   0  0  2  0  0  0  0  0  0  0  0  0
   27.5067  -17.9631  -13.7670 C   0  0  0  0  0  0  0  0  0  0  0  0
   27.3624  -20.3899  -14.4888 C   0  0  2  0  0  0  0  0  0  0  0  0
   27.0622  -21.2978  -15.5732 N   0  0  0  0  0  0  0  0  0  0  0  0
   26.6269  -20.7228  -13.2708 C   0  0  0  0  0  0  0  0  0  0  0  0
   25.3392  -20.8414  -13.3102 O   0  0  0  0  0  0  0  0  0  0  0  0
   27.2104  -20.9401  -12.0239 N   0  0  0  0  0  0  0  0  0  0  0  0
   26.4364  -21.2852  -10.8229 C   0  0  1  0  0  0  0  0  0  0  0  0
   27.4757  -21.3153   -9.7282 C   0  0  0  0  0  0  0  0  0  0  0  0
   27.0628  -20.8025   -8.4278 C   0  0  0  0  0  0  0  0  0  0  0  0
   25.7525  -20.8353   -7.9173 C   0  0  0  0  0  0  0  0  0  0  0  0
   25.7352  -20.2451   -6.7135 N   0  0  0  0  0  0  0  0  0  0  0  0
   26.9684  -19.8145   -6.3816 C   0  0  0  0  0  0  0  0  0  0  0  0
   27.4141  -19.1769   -5.2442 C   0  0  0  0  0  0  0  0  0  0  0  0
   28.7539  -18.8689   -5.1617 C   0  0  0  0  0  0  0  0  0  0  0  0
   29.6036  -19.2094   -6.2203 C   0  0  0  0  0  0  0  0  0  0  0  0
   29.1217  -19.8436   -7.3374 C   0  0  0  0  0  0  0  0  0  0  0  0
   27.7906  -20.1624   -7.4481 C   0  0  0  0  0  0  0  0  0  0  0  0
   25.4606  -20.2370  -10.5773 C   0  0  0  0  0  0  0  0  0  0  0  0
   24.1966  -20.5532  -10.1097 O   0  0  0  0  0  0  0  0  0  0  0  0
   25.6754  -19.0034  -10.7633 O   0  0  0  0  0  0  0  0  0  0  0  0
  2  1  1  0
  3  4  1  1
  3  2  1  0
  5  3  1  0
  6  5  2  0
  8  7  1  6
  8  9  1  0
 10  8  1  0
 10 11  1  6
 11  5  1  0
 12 10  1  0
 13 12  2  0
 14 12  1  0
 15 14  1  0
 15 16  1  1
 16 17  1  0
 17 25  1  0
 18 17  2  0
 18 19  1  0
 19 20  1  0
 20 21  1  0
 21 22  2  0
 23 22  1  0
 24 23  2  0
 25 20  2  0
 25 24  1  0
 26 15  1  0
 26 27  1  0
 28 26  2  0
M  END
$$$$
