SVW.pdb
     RDKit          3D

 28 29  0  0  1  0  0  0  0  0999 V2000
   27.6485  -19.8612  -16.9903 O   0  0  0  0  0  0  0  0  0  0  0  0
   27.1166  -19.2313  -15.8489 C   0  0  0  0  0  0  0  0  0  0  0  0
   25.6119  -19.3440  -15.9288 C   0  0  2  0  0  0  0  0  0  0  0  0
   25.1494  -18.3483  -16.8417 N   0  0  0  0  0  0  0  0  0  0  0  0
   25.0518  -19.1449  -14.5397 C   0  0  0  0  0  0  0  0  0  0  0  0
   24.8955  -17.9683  -14.1592 O   0  0  0  0  0  0  0  0  0  0  0  0
   22.7524  -22.3067  -12.5881 C   0  0  0  0  0  0  0  0  0  0  0  0
   22.7578  -20.7960  -12.3338 C   0  0  2  0  0  0  0  0  0  0  0  0
   21.7774  -20.1779  -13.2661 C   0  0  0  0  0  0  0  0  0  0  0  0
   24.1587  -20.2749  -12.3993 C   0  0  2  0  0  0  0  0  0  0  0  0
   24.7274  -20.2321  -13.7278 N   0  0  0  0  0  0  0  0  0  0  0  0
   25.1085  -20.7760  -11.4083 C   0  0  0  0  0  0  0  0  0  0  0  0
   25.7901  -21.8474  -11.6562 O   0  0  0  0  0  0  0  0  0  0  0  0
   25.3623  -20.1766  -10.1759 N   0  0  0  0  0  0  0  0  0  0  0  0
   26.2069  -20.7909   -9.1415 C   0  0  1  0  0  0  0  0  0  0  0  0
   27.2181  -19.7153   -8.8252 C   0  0  0  0  0  0  0  0  0  0  0  0
   28.2266  -20.0471   -7.8265 C   0  0  0  0  0  0  0  0  0  0  0  0
   29.1882  -21.0666   -7.9465 C   0  0  0  0  0  0  0  0  0  0  0  0
   29.9247  -21.1098   -6.8269 N   0  0  0  0  0  0  0  0  0  0  0  0
   29.5113  -20.1699   -5.9539 C   0  0  0  0  0  0  0  0  0  0  0  0
   29.9856  -19.8463   -4.7013 C   0  0  0  0  0  0  0  0  0  0  0  0
   29.3778  -18.8079   -4.0310 C   0  0  0  0  0  0  0  0  0  0  0  0
   28.3154  -18.1275   -4.6368 C   0  0  0  0  0  0  0  0  0  0  0  0
   27.8710  -18.4800   -5.8861 C   0  0  0  0  0  0  0  0  0  0  0  0
   28.4569  -19.5114   -6.5778 C   0  0  0  0  0  0  0  0  0  0  0  0
   25.3856  -21.0830   -7.9790 C   0  0  0  0  0  0  0  0  0  0  0  0
   24.0801  -20.6274   -7.9121 O   0  0  0  0  0  0  0  0  0  0  0  0
   25.7785  -21.7475   -6.9757 O   0  0  0  0  0  0  0  0  0  0  0  0
  2  1  1  0
  3  4  1  6
  3  2  1  0
  5  3  1  0
  6  5  2  0
  8  7  1  6
  8  9  1  0
 10  8  1  0
 10 11  1  6
 11  5  1  0
 12 10  1  0
 13 12  2  0
 14 12  1  0
 15 14  1  0
 15 16  1  1
 16 17  1  0
 17 25  1  0
 18 17  2  0
 18 19  1  0
 19 20  1  0
 20 21  1  0
 21 22  2  0
 23 22  1  0
 24 23  2  0
 25 20  2  0
 25 24  1  0
 26 15  1  0
 26 27  1  0
 28 26  2  0
M  END
$$$$
