SVW.pdb
     RDKit          3D

 28 29  0  0  1  0  0  0  0  0999 V2000
   20.9779   -5.4952  -12.8862 O   0  0  0  0  0  0  0  0  0  0  0  0
   21.0562   -6.0521  -14.1771 C   0  0  0  0  0  0  0  0  0  0  0  0
   22.5178   -6.1157  -14.5553 C   0  0  2  0  0  0  0  0  0  0  0  0
   22.9536   -4.7843  -14.8311 N   0  0  0  0  0  0  0  0  0  0  0  0
   22.6522   -7.0182  -15.7596 C   0  0  0  0  0  0  0  0  0  0  0  0
   22.6904   -6.4651  -16.8760 O   0  0  0  0  0  0  0  0  0  0  0  0
   23.5176  -11.3126  -15.0968 C   0  0  0  0  0  0  0  0  0  0  0  0
   23.9950  -10.4364  -16.2593 C   0  0  2  0  0  0  0  0  0  0  0  0
   25.3286   -9.8886  -15.8935 C   0  0  0  0  0  0  0  0  0  0  0  0
   22.9380   -9.4372  -16.6097 C   0  0  2  0  0  0  0  0  0  0  0  0
   22.7294   -8.4042  -15.6199 N   0  0  0  0  0  0  0  0  0  0  0  0
   21.6791   -9.9511  -17.1448 C   0  0  0  0  0  0  0  0  0  0  0  0
   20.7318  -10.2997  -16.3354 O   0  0  0  0  0  0  0  0  0  0  0  0
   21.3924  -10.0980  -18.5008 N   0  0  0  0  0  0  0  0  0  0  0  0
   20.1219  -10.6433  -18.9998 C   0  0  1  0  0  0  0  0  0  0  0  0
   19.9978  -10.0453  -20.3805 C   0  0  0  0  0  0  0  0  0  0  0  0
   18.8108  -10.4135  -21.1422 C   0  0  0  0  0  0  0  0  0  0  0  0
   17.5030   -9.9669  -20.8800 C   0  0  0  0  0  0  0  0  0  0  0  0
   16.6611  -10.5345  -21.7557 N   0  0  0  0  0  0  0  0  0  0  0  0
   17.3327  -11.3430  -22.5993 C   0  0  0  0  0  0  0  0  0  0  0  0
   16.8796  -12.1037  -23.6552 C   0  0  0  0  0  0  0  0  0  0  0  0
   17.8066  -12.8275  -24.3719 C   0  0  0  0  0  0  0  0  0  0  0  0
   19.1567  -12.7660  -24.0081 C   0  0  0  0  0  0  0  0  0  0  0  0
   19.5689  -11.9971  -22.9492 C   0  0  0  0  0  0  0  0  0  0  0  0
   18.6674  -11.2655  -22.2159 C   0  0  0  0  0  0  0  0  0  0  0  0
   20.2301  -12.0904  -19.0735 C   0  0  0  0  0  0  0  0  0  0  0  0
   19.0922  -12.8786  -19.0644 O   0  0  0  0  0  0  0  0  0  0  0  0
   21.3247  -12.7219  -19.1477 O   0  0  0  0  0  0  0  0  0  0  0  0
  2  1  1  0
  3  4  1  6
  3  2  1  0
  5  3  1  0
  6  5  2  0
  8  7  1  1
  8  9  1  0
 10  8  1  0
 10 11  1  1
 11  5  1  0
 12 10  1  0
 13 12  2  0
 14 12  1  0
 15 14  1  0
 15 16  1  6
 16 17  1  0
 17 25  1  0
 18 17  2  0
 18 19  1  0
 19 20  1  0
 20 21  1  0
 21 22  2  0
 23 22  1  0
 24 23  2  0
 25 20  2  0
 25 24  1  0
 26 15  1  0
 26 27  1  0
 28 26  2  0
M  END
$$$$
