SVW.pdb
     RDKit          3D

 28 29  0  0  1  0  0  0  0  0999 V2000
   21.0830  -14.3723  -21.6644 O   0  0  0  0  0  0  0  0  0  0  0  0
   21.6189  -13.3321  -20.8813 C   0  0  0  0  0  0  0  0  0  0  0  0
   23.0327  -13.0895  -21.3563 C   0  0  2  0  0  0  0  0  0  0  0  0
   23.7929  -14.2653  -21.0767 N   0  0  0  0  0  0  0  0  0  0  0  0
   23.5709  -11.8791  -20.6295 C   0  0  0  0  0  0  0  0  0  0  0  0
   24.1829  -12.0884  -19.5640 O   0  0  0  0  0  0  0  0  0  0  0  0
   26.0111   -9.4293  -21.9515 C   0  0  0  0  0  0  0  0  0  0  0  0
   24.7627   -8.5951  -21.6472 C   0  0  2  0  0  0  0  0  0  0  0  0
   25.2147   -7.2347  -21.2504 C   0  0  0  0  0  0  0  0  0  0  0  0
   23.8936   -9.3198  -20.6686 C   0  0  2  0  0  0  0  0  0  0  0  0
   23.3873  -10.5914  -21.1341 N   0  0  0  0  0  0  0  0  0  0  0  0
   22.8722   -8.5407  -19.9722 C   0  0  0  0  0  0  0  0  0  0  0  0
   21.8906   -8.0260  -20.6398 O   0  0  0  0  0  0  0  0  0  0  0  0
   22.8546   -8.2990  -18.5997 N   0  0  0  0  0  0  0  0  0  0  0  0
   21.8064   -7.5116  -17.9350 C   0  0  1  0  0  0  0  0  0  0  0  0
   21.9264   -7.9146  -16.4850 C   0  0  0  0  0  0  0  0  0  0  0  0
   23.2740   -7.9469  -15.9305 C   0  0  0  0  0  0  0  0  0  0  0  0
   23.9815   -6.8334  -15.4425 C   0  0  0  0  0  0  0  0  0  0  0  0
   25.2000   -7.2271  -15.0448 N   0  0  0  0  0  0  0  0  0  0  0  0
   25.3539   -8.5520  -15.2378 C   0  0  0  0  0  0  0  0  0  0  0  0
   26.4238   -9.3750  -14.9604 C   0  0  0  0  0  0  0  0  0  0  0  0
   26.2948  -10.7164  -15.2446 C   0  0  0  0  0  0  0  0  0  0  0  0
   25.0993  -11.1900  -15.7969 C   0  0  0  0  0  0  0  0  0  0  0  0
   24.0561  -10.3384  -16.0596 C   0  0  0  0  0  0  0  0  0  0  0  0
   24.1561   -8.9961  -15.7876 C   0  0  0  0  0  0  0  0  0  0  0  0
   22.1040   -6.0993  -18.1029 C   0  0  0  0  0  0  0  0  0  0  0  0
   23.3478   -5.6955  -18.5571 O   0  0  0  0  0  0  0  0  0  0  0  0
   21.2878   -5.1633  -17.8579 O   0  0  0  0  0  0  0  0  0  0  0  0
  2  1  1  0
  3  4  1  1
  3  2  1  0
  5  3  1  0
  6  5  2  0
  8  7  1  1
  8  9  1  0
 10  8  1  0
 10 11  1  6
 11  5  1  0
 12 10  1  0
 13 12  2  0
 14 12  1  0
 15 14  1  0
 15 16  1  1
 16 17  1  0
 17 25  1  0
 18 17  2  0
 18 19  1  0
 19 20  1  0
 20 21  1  0
 21 22  2  0
 23 22  1  0
 24 23  2  0
 25 20  2  0
 25 24  1  0
 26 15  1  0
 26 27  1  0
 28 26  2  0
M  END
$$$$
