SVW.pdb
     RDKit          3D

 28 29  0  0  1  0  0  0  0  0999 V2000
   23.7416  -16.3607  -17.7146 O   0  0  0  0  0  0  0  0  0  0  0  0
   24.0777  -17.5746  -17.0854 C   0  0  0  0  0  0  0  0  0  0  0  0
   25.5720  -17.7552  -17.2181 C   0  0  2  0  0  0  0  0  0  0  0  0
   25.8603  -17.9934  -18.5961 N   0  0  0  0  0  0  0  0  0  0  0  0
   25.9841  -18.9159  -16.3429 C   0  0  0  0  0  0  0  0  0  0  0  0
   25.4603  -20.0200  -16.5888 O   0  0  0  0  0  0  0  0  0  0  0  0
   29.3005  -20.5147  -15.6640 C   0  0  0  0  0  0  0  0  0  0  0  0
   28.8683  -19.9046  -14.3269 C   0  0  2  0  0  0  0  0  0  0  0  0
   29.4172  -20.7610  -13.2417 C   0  0  0  0  0  0  0  0  0  0  0  0
   27.3876  -19.6902  -14.3214 C   0  0  2  0  0  0  0  0  0  0  0  0
   26.9081  -18.7512  -15.3106 N   0  0  0  0  0  0  0  0  0  0  0  0
   26.7409  -19.5038  -13.0244 C   0  0  0  0  0  0  0  0  0  0  0  0
   26.7079  -18.3276  -12.4863 O   0  0  0  0  0  0  0  0  0  0  0  0
   26.1258  -20.5159  -12.2897 N   0  0  0  0  0  0  0  0  0  0  0  0
   25.5781  -20.3116  -10.9410 C   0  0  1  0  0  0  0  0  0  0  0  0
   24.2793  -19.5843  -11.1927 C   0  0  0  0  0  0  0  0  0  0  0  0
   23.2485  -20.3265  -11.9075 C   0  0  0  0  0  0  0  0  0  0  0  0
   22.4645  -21.3608  -11.3652 C   0  0  0  0  0  0  0  0  0  0  0  0
   21.6478  -21.8375  -12.3158 N   0  0  0  0  0  0  0  0  0  0  0  0
   21.8380  -21.1777  -13.4755 C   0  0  0  0  0  0  0  0  0  0  0  0
   21.2131  -21.3203  -14.6953 C   0  0  0  0  0  0  0  0  0  0  0  0
   21.5978  -20.4816  -15.7178 C   0  0  0  0  0  0  0  0  0  0  0  0
   22.5952  -19.5277  -15.4856 C   0  0  0  0  0  0  0  0  0  0  0  0
   23.1947  -19.4169  -14.2565 C   0  0  0  0  0  0  0  0  0  0  0  0
   22.8324  -20.2398  -13.2186 C   0  0  0  0  0  0  0  0  0  0  0  0
   25.3324  -21.6087  -10.3340 C   0  0  0  0  0  0  0  0  0  0  0  0
   25.4921  -22.7685  -11.0726 O   0  0  0  0  0  0  0  0  0  0  0  0
   24.9673  -21.7779   -9.1338 O   0  0  0  0  0  0  0  0  0  0  0  0
  2  1  1  0
  3  4  1  6
  3  2  1  0
  5  3  1  0
  6  5  2  0
  8  7  1  6
  8  9  1  0
 10  8  1  0
 10 11  1  6
 11  5  1  0
 12 10  1  0
 13 12  2  0
 14 12  1  0
 15 14  1  0
 15 16  1  6
 16 17  1  0
 17 25  1  0
 18 17  2  0
 18 19  1  0
 19 20  1  0
 20 21  1  0
 21 22  2  0
 23 22  1  0
 24 23  2  0
 25 20  2  0
 25 24  1  0
 26 15  1  0
 26 27  1  0
 28 26  2  0
M  END
$$$$
