SVW.pdb
     RDKit          3D

 28 29  0  0  1  0  0  0  0  0999 V2000
   28.3872  -23.9793  -17.5697 O   0  0  0  0  0  0  0  0  0  0  0  0
   28.8169  -23.2234  -16.4623 C   0  0  0  0  0  0  0  0  0  0  0  0
   28.2685  -21.8252  -16.6278 C   0  0  2  0  0  0  0  0  0  0  0  0
   29.0135  -21.1861  -17.6647 N   0  0  0  0  0  0  0  0  0  0  0  0
   28.4056  -21.1076  -15.3051 C   0  0  0  0  0  0  0  0  0  0  0  0
   29.5631  -20.9323  -14.8772 O   0  0  0  0  0  0  0  0  0  0  0  0
   25.2591  -18.4846  -13.9609 C   0  0  0  0  0  0  0  0  0  0  0  0
   26.7241  -18.5109  -13.5138 C   0  0  2  0  0  0  0  0  0  0  0  0
   27.4989  -17.6596  -14.4559 C   0  0  0  0  0  0  0  0  0  0  0  0
   27.1841  -19.9267  -13.3637 C   0  0  2  0  0  0  0  0  0  0  0  0
   27.2844  -20.6653  -14.6025 N   0  0  0  0  0  0  0  0  0  0  0  0
   26.5790  -20.7196  -12.2958 C   0  0  0  0  0  0  0  0  0  0  0  0
   25.6732  -21.5980  -12.5823 O   0  0  0  0  0  0  0  0  0  0  0  0
   26.9076  -20.6170  -10.9453 N   0  0  0  0  0  0  0  0  0  0  0  0
   26.3036  -21.4607   -9.9041 C   0  0  1  0  0  0  0  0  0  0  0  0
   27.3974  -21.5860   -8.8711 C   0  0  0  0  0  0  0  0  0  0  0  0
   27.4491  -20.5451   -7.8521 C   0  0  0  0  0  0  0  0  0  0  0  0
   26.7776  -19.3107   -7.9129 C   0  0  0  0  0  0  0  0  0  0  0  0
   27.0819  -18.5908   -6.8234 N   0  0  0  0  0  0  0  0  0  0  0  0
   27.9256  -19.2756   -6.0262 C   0  0  0  0  0  0  0  0  0  0  0  0
   28.4789  -18.9342   -4.8112 C   0  0  0  0  0  0  0  0  0  0  0  0
   29.3027  -19.8521   -4.1982 C   0  0  0  0  0  0  0  0  0  0  0  0
   29.5454  -21.0815   -4.8214 C   0  0  0  0  0  0  0  0  0  0  0  0
   28.9762  -21.3844   -6.0324 C   0  0  0  0  0  0  0  0  0  0  0  0
   28.1515  -20.4889   -6.6676 C   0  0  0  0  0  0  0  0  0  0  0  0
   25.1509  -20.7697   -9.3519 C   0  0  0  0  0  0  0  0  0  0  0  0
   24.2997  -21.4195   -8.4745 O   0  0  0  0  0  0  0  0  0  0  0  0
   24.8426  -19.5708   -9.6161 O   0  0  0  0  0  0  0  0  0  0  0  0
  2  1  1  0
  3  4  1  6
  3  2  1  0
  5  3  1  0
  6  5  2  0
  8  7  1  6
  8  9  1  0
 10  8  1  0
 10 11  1  6
 11  5  1  0
 12 10  1  0
 13 12  2  0
 14 12  1  0
 15 14  1  0
 15 16  1  1
 16 17  1  0
 17 25  1  0
 18 17  2  0
 18 19  1  0
 19 20  1  0
 20 21  1  0
 21 22  2  0
 23 22  1  0
 24 23  2  0
 25 20  2  0
 25 24  1  0
 26 15  1  0
 26 27  1  0
 28 26  2  0
M  END
$$$$
