SVW.pdb
     RDKit          3D

 28 29  0  0  1  0  0  0  0  0999 V2000
   29.7839  -24.3119  -16.6527 O   0  0  0  0  0  0  0  0  0  0  0  0
   29.4351  -23.1710  -15.9049 C   0  0  0  0  0  0  0  0  0  0  0  0
   28.2628  -22.5160  -16.5977 C   0  0  2  0  0  0  0  0  0  0  0  0
   28.7045  -22.0845  -17.8851 N   0  0  0  0  0  0  0  0  0  0  0  0
   27.7963  -21.3620  -15.7411 C   0  0  0  0  0  0  0  0  0  0  0  0
   28.2261  -20.2304  -16.0388 O   0  0  0  0  0  0  0  0  0  0  0  0
   24.2476  -19.0441  -13.6977 C   0  0  0  0  0  0  0  0  0  0  0  0
   25.0029  -19.9993  -14.6273 C   0  0  2  0  0  0  0  0  0  0  0  0
   24.0100  -20.9412  -15.2099 C   0  0  0  0  0  0  0  0  0  0  0  0
   26.1548  -20.6140  -13.8968 C   0  0  2  0  0  0  0  0  0  0  0  0
   26.9255  -21.5621  -14.6697 N   0  0  0  0  0  0  0  0  0  0  0  0
   25.9133  -21.0804  -12.5332 C   0  0  0  0  0  0  0  0  0  0  0  0
   25.2782  -22.1905  -12.3370 O   0  0  0  0  0  0  0  0  0  0  0  0
   26.3281  -20.4161  -11.3803 N   0  0  0  0  0  0  0  0  0  0  0  0
   25.9659  -20.8547  -10.0249 C   0  0  1  0  0  0  0  0  0  0  0  0
   26.9419  -20.1160   -9.1410 C   0  0  0  0  0  0  0  0  0  0  0  0
   26.7360  -20.2392   -7.7034 C   0  0  0  0  0  0  0  0  0  0  0  0
   25.5815  -20.7538   -7.0863 C   0  0  0  0  0  0  0  0  0  0  0  0
   25.7260  -20.6828   -5.7552 N   0  0  0  0  0  0  0  0  0  0  0  0
   26.9212  -20.1465   -5.4386 C   0  0  0  0  0  0  0  0  0  0  0  0
   27.4919  -19.9045   -4.2079 C   0  0  0  0  0  0  0  0  0  0  0  0
   28.7568  -19.3603   -4.1805 C   0  0  0  0  0  0  0  0  0  0  0  0
   29.4089  -19.0764   -5.3858 C   0  0  0  0  0  0  0  0  0  0  0  0
   28.8068  -19.3311   -6.5921 C   0  0  0  0  0  0  0  0  0  0  0  0
   27.5462  -19.8724   -6.6505 C   0  0  0  0  0  0  0  0  0  0  0  0
   24.6021  -20.4376   -9.7466 C   0  0  0  0  0  0  0  0  0  0  0  0
   23.7721  -21.2304   -8.9726 O   0  0  0  0  0  0  0  0  0  0  0  0
   24.0830  -19.3638  -10.1704 O   0  0  0  0  0  0  0  0  0  0  0  0
  2  1  1  0
  3  4  1  6
  3  2  1  0
  5  3  1  0
  6  5  2  0
  8  7  1  1
  8  9  1  0
 10  8  1  0
 10 11  1  6
 11  5  1  0
 12 10  1  0
 13 12  2  0
 14 12  1  0
 15 14  1  0
 15 16  1  1
 16 17  1  0
 17 25  1  0
 18 17  2  0
 18 19  1  0
 19 20  1  0
 20 21  1  0
 21 22  2  0
 23 22  1  0
 24 23  2  0
 25 20  2  0
 25 24  1  0
 26 15  1  0
 26 27  1  0
 28 26  2  0
M  END
$$$$
