HKM.pdb
     RDKit          3D

 28 28  0  0  1  0  0  0  0  0999 V2000
   20.0333  -12.3336  -16.6803 N   0  0  0  0  0  0  0  0  0  0  0  0
   19.5228  -11.0227  -16.3237 C   0  0  1  0  0  0  0  0  0  0  0  0
   18.7216  -11.1419  -15.0635 C   0  0  0  0  0  0  0  0  0  0  0  0
   17.5518  -12.0088  -15.3128 C   0  0  0  0  0  0  0  0  0  0  0  0
   17.3683  -13.3404  -14.9306 C   0  0  0  0  0  0  0  0  0  0  0  0
   16.1576  -13.7238  -15.3713 N   0  0  0  0  0  0  0  0  0  0  0  0
   15.5979  -12.6801  -16.0055 C   0  0  0  0  0  0  0  0  0  0  0  0
   16.4269  -11.6460  -15.9758 N   0  0  0  0  0  0  0  0  0  0  0  0
   20.6486  -10.0561  -16.1705 C   0  0  0  0  0  0  0  0  0  0  0  0
   21.3522  -10.1521  -15.1219 O   0  0  0  0  0  0  0  0  0  0  0  0
   20.9000   -9.0856  -17.1631 N   0  0  0  0  0  0  0  0  0  0  0  0
   22.0263   -8.1705  -17.0751 C   0  0  1  0  0  0  0  0  0  0  0  0
   22.7262   -8.0499  -18.3988 C   0  0  0  0  0  0  0  0  0  0  0  0
   23.4612   -9.2909  -18.7026 C   0  0  0  0  0  0  0  0  0  0  0  0
   24.2929   -9.2356  -19.9623 C   0  0  0  0  0  0  0  0  0  0  0  0
   25.0696  -10.4862  -20.2194 C   0  0  0  0  0  0  0  0  0  0  0  0
   25.7826  -10.4191  -21.4818 N   0  0  0  0  0  0  0  0  0  0  0  0
   21.4764   -6.8545  -16.6791 C   0  0  0  0  0  0  0  0  0  0  0  0
   20.6518   -6.1869  -17.3512 O   0  0  0  0  0  0  0  0  0  0  0  0
   16.6825   -2.2716  -14.1559 C   0  0  0  0  0  0  0  0  0  0  0  0
   17.4250   -3.8333  -14.6771 S   0  0  0  0  0  0  0  0  0  0  0  0
   19.2112   -3.7904  -14.6229 C   0  0  0  0  0  0  0  0  0  0  0  0
   19.9279   -4.9518  -15.1756 C   0  0  0  0  0  0  0  0  0  0  0  0
   21.4118   -4.9212  -15.0877 C   0  0  2  0  0  0  0  0  0  0  0  0
   21.8923   -6.2794  -15.4571 N   0  0  0  0  0  0  0  0  0  0  0  0
   21.9914   -4.5659  -13.7912 C   0  0  0  0  0  0  0  0  0  0  0  0
   22.1534   -3.3276  -13.5408 O   0  0  0  0  0  0  0  0  0  0  0  0
   22.3777   -5.4310  -12.8020 O   0  0  0  0  0  0  0  0  0  0  0  0
  2  1  1  1
  3  2  1  0
  4  3  1  0
  4  5  2  0
  6  5  1  0
  7  6  1  0
  8  7  2  0
  8  4  1  0
  9  2  1  0
 10  9  2  0
 11  9  1  0
 12 11  1  0
 12 13  1  6
 13 14  1  0
 14 15  1  0
 16 15  1  0
 17 16  1  0
 18 12  1  0
 19 18  2  0
 21 20  1  0
 22 21  1  0
 23 22  1  0
 24 23  1  1
 24 25  1  0
 25 18  1  0
 26 24  1  0
 26 28  1  0
 27 26  2  0
M  END
$$$$
