HKM.pdb
     RDKit          3D

 28 28  0  0  1  0  0  0  0  0999 V2000
   25.9448  -17.2897  -16.8827 N   0  0  0  0  0  0  0  0  0  0  0  0
   26.4014  -17.2634  -15.5054 C   0  0  1  0  0  0  0  0  0  0  0  0
   25.6698  -16.1799  -14.7739 C   0  0  0  0  0  0  0  0  0  0  0  0
   26.0265  -14.8722  -15.3612 C   0  0  0  0  0  0  0  0  0  0  0  0
   26.8623  -14.6157  -16.4514 C   0  0  0  0  0  0  0  0  0  0  0  0
   26.8970  -13.2837  -16.6291 N   0  0  0  0  0  0  0  0  0  0  0  0
   26.1168  -12.7203  -15.6917 C   0  0  0  0  0  0  0  0  0  0  0  0
   25.5898  -13.6654  -14.9259 N   0  0  0  0  0  0  0  0  0  0  0  0
   26.1918  -18.5958  -14.8681 C   0  0  0  0  0  0  0  0  0  0  0  0
   25.0319  -19.0977  -14.9496 O   0  0  0  0  0  0  0  0  0  0  0  0
   27.2537  -19.2496  -14.2085 N   0  0  0  0  0  0  0  0  0  0  0  0
   27.1341  -20.6164  -13.7277 C   0  0  1  0  0  0  0  0  0  0  0  0
   28.3081  -21.4453  -14.1653 C   0  0  0  0  0  0  0  0  0  0  0  0
   28.0499  -22.0364  -15.4906 C   0  0  0  0  0  0  0  0  0  0  0  0
   29.1559  -22.9261  -16.0074 C   0  0  0  0  0  0  0  0  0  0  0  0
   28.9209  -23.4234  -17.3969 C   0  0  0  0  0  0  0  0  0  0  0  0
   29.0625  -22.3590  -18.3735 N   0  0  0  0  0  0  0  0  0  0  0  0
   27.0953  -20.5465  -12.2496 C   0  0  0  0  0  0  0  0  0  0  0  0
   28.0823  -20.2965  -11.5144 O   0  0  0  0  0  0  0  0  0  0  0  0
   28.7883  -19.6174   -6.0087 C   0  0  0  0  0  0  0  0  0  0  0  0
   27.7487  -18.7666   -7.2158 S   0  0  0  0  0  0  0  0  0  0  0  0
   26.5913  -19.8691   -8.0159 C   0  0  0  0  0  0  0  0  0  0  0  0
   26.6394  -19.9416   -9.4858 C   0  0  0  0  0  0  0  0  0  0  0  0
   25.8672  -21.0407  -10.1232 C   0  0  2  0  0  0  0  0  0  0  0  0
   25.8684  -20.7745  -11.5864 N   0  0  0  0  0  0  0  0  0  0  0  0
   24.4799  -21.2137   -9.6890 C   0  0  0  0  0  0  0  0  0  0  0  0
   24.2807  -21.5139   -8.4673 O   0  0  0  0  0  0  0  0  0  0  0  0
   23.3570  -21.0797  -10.4620 O   0  0  0  0  0  0  0  0  0  0  0  0
  2  1  1  6
  3  2  1  0
  4  3  1  0
  4  5  2  0
  6  5  1  0
  7  6  1  0
  8  7  2  0
  8  4  1  0
  9  2  1  0
 10  9  2  0
 11  9  1  0
 12 11  1  0
 12 13  1  1
 13 14  1  0
 14 15  1  0
 16 15  1  0
 17 16  1  0
 18 12  1  0
 19 18  2  0
 21 20  1  0
 22 21  1  0
 23 22  1  0
 24 23  1  1
 24 25  1  0
 25 18  1  0
 26 24  1  0
 26 28  1  0
 27 26  2  0
M  END
$$$$
