HKM.pdb
     RDKit          3D

 28 28  0  0  1  0  0  0  0  0999 V2000
   20.5075  -13.9545  -20.9854 N   0  0  0  0  0  0  0  0  0  0  0  0
   19.9714  -13.2266  -19.8502 C   0  0  1  0  0  0  0  0  0  0  0  0
   20.0815  -14.0865  -18.6284 C   0  0  0  0  0  0  0  0  0  0  0  0
   19.1369  -15.2163  -18.7439 C   0  0  0  0  0  0  0  0  0  0  0  0
   19.3992  -16.5187  -19.1775 C   0  0  0  0  0  0  0  0  0  0  0  0
   18.2442  -17.2039  -19.1196 N   0  0  0  0  0  0  0  0  0  0  0  0
   17.2908  -16.3716  -18.6687 C   0  0  0  0  0  0  0  0  0  0  0  0
   17.8167  -15.1762  -18.4404 N   0  0  0  0  0  0  0  0  0  0  0  0
   20.6950  -11.9333  -19.6797 C   0  0  0  0  0  0  0  0  0  0  0  0
   21.9570  -11.9611  -19.7817 O   0  0  0  0  0  0  0  0  0  0  0  0
   19.9840  -10.7435  -19.4167 N   0  0  0  0  0  0  0  0  0  0  0  0
   20.6602   -9.4712  -19.2234 C   0  0  1  0  0  0  0  0  0  0  0  0
   19.6951   -8.3259  -19.3396 C   0  0  0  0  0  0  0  0  0  0  0  0
   20.3966   -7.0450  -19.1397 C   0  0  0  0  0  0  0  0  0  0  0  0
   19.4967   -5.8317  -19.1276 C   0  0  0  0  0  0  0  0  0  0  0  0
   20.2259   -4.5512  -18.8790 C   0  0  0  0  0  0  0  0  0  0  0  0
   19.3236   -3.4143  -18.8935 N   0  0  0  0  0  0  0  0  0  0  0  0
   21.2403   -9.4993  -17.8618 C   0  0  0  0  0  0  0  0  0  0  0  0
   20.6042   -9.7713  -16.8136 O   0  0  0  0  0  0  0  0  0  0  0  0
   27.8606  -11.0572  -13.9941 C   0  0  0  0  0  0  0  0  0  0  0  0
   27.1029  -10.5602  -15.5564 S   0  0  0  0  0  0  0  0  0  0  0  0
   25.4465   -9.9245  -15.3388 C   0  0  0  0  0  0  0  0  0  0  0  0
   24.5855   -9.8710  -16.5321 C   0  0  0  0  0  0  0  0  0  0  0  0
   23.2241   -9.3034  -16.3452 C   0  0  2  0  0  0  0  0  0  0  0  0
   22.6118   -9.2013  -17.6966 N   0  0  0  0  0  0  0  0  0  0  0  0
   23.1360   -7.9919  -15.7007 C   0  0  0  0  0  0  0  0  0  0  0  0
   22.7375   -7.9583  -14.4914 O   0  0  0  0  0  0  0  0  0  0  0  0
   23.4456   -6.7813  -16.2616 O   0  0  0  0  0  0  0  0  0  0  0  0
  2  1  1  6
  3  2  1  0
  4  3  1  0
  4  5  2  0
  6  5  1  0
  7  6  1  0
  8  7  2  0
  8  4  1  0
  9  2  1  0
 10  9  2  0
 11  9  1  0
 12 11  1  0
 12 13  1  1
 13 14  1  0
 14 15  1  0
 16 15  1  0
 17 16  1  0
 18 12  1  0
 19 18  2  0
 21 20  1  0
 22 21  1  0
 23 22  1  0
 24 23  1  6
 24 25  1  0
 25 18  1  0
 26 24  1  0
 26 28  1  0
 27 26  2  0
M  END
$$$$
