HKM.pdb
     RDKit          3D

 28 28  0  0  1  0  0  0  0  0999 V2000
   27.6523  -19.7815  -16.4593 N   0  0  0  0  0  0  0  0  0  0  0  0
   26.6785  -20.8520  -16.3508 C   0  0  1  0  0  0  0  0  0  0  0  0
   27.2596  -21.9517  -15.5158 C   0  0  0  0  0  0  0  0  0  0  0  0
   28.2732  -22.6780  -16.3077 C   0  0  0  0  0  0  0  0  0  0  0  0
   28.6327  -22.4744  -17.6428 C   0  0  0  0  0  0  0  0  0  0  0  0
   29.5949  -23.3641  -17.9421 N   0  0  0  0  0  0  0  0  0  0  0  0
   29.8349  -24.0999  -16.8440 C   0  0  0  0  0  0  0  0  0  0  0  0
   29.0466  -23.6958  -15.8577 N   0  0  0  0  0  0  0  0  0  0  0  0
   25.4062  -20.3336  -15.7695 C   0  0  0  0  0  0  0  0  0  0  0  0
   25.5018  -19.5551  -14.7752 O   0  0  0  0  0  0  0  0  0  0  0  0
   24.1622  -20.7077  -16.3197 N   0  0  0  0  0  0  0  0  0  0  0  0
   22.9044  -20.2221  -15.7759 C   0  0  1  0  0  0  0  0  0  0  0  0
   21.7802  -20.4326  -16.7498 C   0  0  0  0  0  0  0  0  0  0  0  0
   20.5408  -19.8199  -16.2389 C   0  0  0  0  0  0  0  0  0  0  0  0
   19.3131  -20.0966  -17.0743 C   0  0  0  0  0  0  0  0  0  0  0  0
   18.0818  -19.4181  -16.5676 C   0  0  0  0  0  0  0  0  0  0  0  0
   16.9381  -19.6858  -17.4203 N   0  0  0  0  0  0  0  0  0  0  0  0
   22.6468  -20.9963  -14.5408 C   0  0  0  0  0  0  0  0  0  0  0  0
   22.7779  -22.2405  -14.4304 O   0  0  0  0  0  0  0  0  0  0  0  0
   25.6587  -19.8287   -9.5297 C   0  0  0  0  0  0  0  0  0  0  0  0
   24.5027  -21.0134   -8.8072 S   0  0  0  0  0  0  0  0  0  0  0  0
   23.1095  -21.3454   -9.8767 C   0  0  0  0  0  0  0  0  0  0  0  0
   23.1135  -20.7056  -11.2029 C   0  0  0  0  0  0  0  0  0  0  0  0
   22.0030  -21.0715  -12.1213 C   0  0  2  0  0  0  0  0  0  0  0  0
   22.2190  -20.3113  -13.3812 N   0  0  0  0  0  0  0  0  0  0  0  0
   20.6416  -20.8067  -11.6529 C   0  0  0  0  0  0  0  0  0  0  0  0
   20.1501  -19.6574  -11.8979 O   0  0  0  0  0  0  0  0  0  0  0  0
   19.8250  -21.6738  -10.9764 O   0  0  0  0  0  0  0  0  0  0  0  0
  2  1  1  1
  3  2  1  0
  4  3  1  0
  4  5  2  0
  6  5  1  0
  7  6  1  0
  8  7  2  0
  8  4  1  0
  9  2  1  0
 10  9  2  0
 11  9  1  0
 12 11  1  0
 12 13  1  6
 13 14  1  0
 14 15  1  0
 16 15  1  0
 17 16  1  0
 18 12  1  0
 19 18  2  0
 21 20  1  0
 22 21  1  0
 23 22  1  0
 24 23  1  1
 24 25  1  0
 25 18  1  0
 26 24  1  0
 26 28  1  0
 27 26  2  0
M  END
$$$$
