HKM.pdb
     RDKit          3D

 28 28  0  0  1  0  0  0  0  0999 V2000
   26.9162  -23.6851  -17.0421 N   0  0  0  0  0  0  0  0  0  0  0  0
   26.9384  -22.3154  -16.5631 C   0  0  1  0  0  0  0  0  0  0  0  0
   27.1869  -21.4012  -17.7236 C   0  0  0  0  0  0  0  0  0  0  0  0
   28.5316  -21.6697  -18.2731 C   0  0  0  0  0  0  0  0  0  0  0  0
   28.8966  -21.8496  -19.6100 C   0  0  0  0  0  0  0  0  0  0  0  0
   30.2223  -22.0697  -19.6406 N   0  0  0  0  0  0  0  0  0  0  0  0
   30.6779  -22.0310  -18.3773 C   0  0  0  0  0  0  0  0  0  0  0  0
   29.6707  -21.7915  -17.5492 N   0  0  0  0  0  0  0  0  0  0  0  0
   25.6569  -21.9910  -15.8719 C   0  0  0  0  0  0  0  0  0  0  0  0
   24.5847  -22.3056  -16.4679 O   0  0  0  0  0  0  0  0  0  0  0  0
   25.6631  -21.3608  -14.6097 N   0  0  0  0  0  0  0  0  0  0  0  0
   24.4325  -21.0399  -13.9052 C   0  0  1  0  0  0  0  0  0  0  0  0
   24.6513  -21.0263  -12.4190 C   0  0  0  0  0  0  0  0  0  0  0  0
   23.3659  -20.8677  -11.7153 C   0  0  0  0  0  0  0  0  0  0  0  0
   23.4516  -21.0035  -10.2133 C   0  0  0  0  0  0  0  0  0  0  0  0
   22.1349  -20.8457   -9.5243 C   0  0  0  0  0  0  0  0  0  0  0  0
   22.2620  -21.0190   -8.0889 N   0  0  0  0  0  0  0  0  0  0  0  0
   24.0188  -19.6939  -14.3615 C   0  0  0  0  0  0  0  0  0  0  0  0
   24.7014  -18.6478  -14.2307 O   0  0  0  0  0  0  0  0  0  0  0  0
   25.3949  -17.9076  -19.8804 C   0  0  0  0  0  0  0  0  0  0  0  0
   23.7040  -17.9407  -19.2466 S   0  0  0  0  0  0  0  0  0  0  0  0
   23.6461  -18.1063  -17.4676 C   0  0  0  0  0  0  0  0  0  0  0  0
   22.3169  -18.0868  -16.8343 C   0  0  0  0  0  0  0  0  0  0  0  0
   22.2856  -18.1800  -15.3508 C   0  0  2  0  0  0  0  0  0  0  0  0
   22.7650  -19.5424  -14.9956 N   0  0  0  0  0  0  0  0  0  0  0  0
   20.9918  -17.9645  -14.7007 C   0  0  0  0  0  0  0  0  0  0  0  0
   20.2334  -18.9772  -14.5533 O   0  0  0  0  0  0  0  0  0  0  0  0
   20.5038  -16.7778  -14.2212 O   0  0  0  0  0  0  0  0  0  0  0  0
  2  1  1  6
  3  2  1  0
  4  3  1  0
  4  5  2  0
  6  5  1  0
  7  6  1  0
  8  7  2  0
  8  4  1  0
  9  2  1  0
 10  9  2  0
 11  9  1  0
 12 11  1  0
 12 13  1  1
 13 14  1  0
 14 15  1  0
 16 15  1  0
 17 16  1  0
 18 12  1  0
 19 18  2  0
 21 20  1  0
 22 21  1  0
 23 22  1  0
 24 23  1  6
 24 25  1  0
 25 18  1  0
 26 24  1  0
 26 28  1  0
 27 26  2  0
M  END
$$$$
