HKM.pdb
     RDKit          3D

 28 28  0  0  1  0  0  0  0  0999 V2000
   26.4225  -20.8963  -11.7986 N   0  0  0  0  0  0  0  0  0  0  0  0
   25.1502  -21.0139  -12.4868 C   0  0  1  0  0  0  0  0  0  0  0  0
   24.1462  -20.1394  -11.8001 C   0  0  0  0  0  0  0  0  0  0  0  0
   24.1088  -20.4801  -10.3631 C   0  0  0  0  0  0  0  0  0  0  0  0
   23.7679  -21.7012   -9.7751 C   0  0  0  0  0  0  0  0  0  0  0  0
   23.8720  -21.5510   -8.4433 N   0  0  0  0  0  0  0  0  0  0  0  0
   24.2621  -20.2890   -8.1979 C   0  0  0  0  0  0  0  0  0  0  0  0
   24.4069  -19.6383   -9.3438 N   0  0  0  0  0  0  0  0  0  0  0  0
   25.3068  -20.6476  -13.9243 C   0  0  0  0  0  0  0  0  0  0  0  0
   25.5075  -19.4255  -14.1893 O   0  0  0  0  0  0  0  0  0  0  0  0
   25.2307  -21.6360  -14.9281 N   0  0  0  0  0  0  0  0  0  0  0  0
   25.4386  -21.3225  -16.3324 C   0  0  1  0  0  0  0  0  0  0  0  0
   26.0539  -22.4852  -17.0578 C   0  0  0  0  0  0  0  0  0  0  0  0
   27.5189  -22.4703  -16.8961 C   0  0  0  0  0  0  0  0  0  0  0  0
   28.2502  -23.5165  -17.7039 C   0  0  0  0  0  0  0  0  0  0  0  0
   29.7370  -23.4367  -17.5760 C   0  0  0  0  0  0  0  0  0  0  0  0
   30.3952  -24.4431  -18.3887 N   0  0  0  0  0  0  0  0  0  0  0  0
   24.1062  -21.0252  -16.9046 C   0  0  0  0  0  0  0  0  0  0  0  0
   23.0109  -21.3711  -16.3967 O   0  0  0  0  0  0  0  0  0  0  0  0
   19.9170  -15.3757  -16.1470 C   0  0  0  0  0  0  0  0  0  0  0  0
   21.3723  -16.4299  -15.9663 S   0  0  0  0  0  0  0  0  0  0  0  0
   21.5524  -17.5814  -17.3216 C   0  0  0  0  0  0  0  0  0  0  0  0
   22.6693  -18.5380  -17.2462 C   0  0  0  0  0  0  0  0  0  0  0  0
   22.8245  -19.4711  -18.3933 C   0  0  2  0  0  0  0  0  0  0  0  0
   24.0282  -20.2987  -18.1143 N   0  0  0  0  0  0  0  0  0  0  0  0
   22.9774  -18.8706  -19.7196 C   0  0  0  0  0  0  0  0  0  0  0  0
   24.1604  -18.6065  -20.1110 O   0  0  0  0  0  0  0  0  0  0  0  0
   21.9742  -18.5635  -20.6002 O   0  0  0  0  0  0  0  0  0  0  0  0
  2  1  1  1
  3  2  1  0
  4  3  1  0
  4  5  2  0
  6  5  1  0
  7  6  1  0
  8  7  2  0
  8  4  1  0
  9  2  1  0
 10  9  2  0
 11  9  1  0
 12 11  1  0
 12 13  1  6
 13 14  1  0
 14 15  1  0
 16 15  1  0
 17 16  1  0
 18 12  1  0
 19 18  2  0
 21 20  1  0
 22 21  1  0
 23 22  1  0
 24 23  1  1
 24 25  1  0
 25 18  1  0
 26 24  1  0
 26 28  1  0
 27 26  2  0
M  END
$$$$
