HKM.pdb
     RDKit          3D

 28 28  0  0  1  0  0  0  0  0999 V2000
   24.4305  -23.5683  -16.9472 N   0  0  0  0  0  0  0  0  0  0  0  0
   24.0378  -24.2007  -15.7014 C   0  0  1  0  0  0  0  0  0  0  0  0
   25.2696  -24.5113  -14.9074 C   0  0  0  0  0  0  0  0  0  0  0  0
   26.1202  -25.4427  -15.6762 C   0  0  0  0  0  0  0  0  0  0  0  0
   27.4677  -25.2981  -16.0174 C   0  0  0  0  0  0  0  0  0  0  0  0
   27.8255  -26.3869  -16.7198 N   0  0  0  0  0  0  0  0  0  0  0  0
   26.7510  -27.1872  -16.8194 C   0  0  0  0  0  0  0  0  0  0  0  0
   25.7225  -26.6292  -16.1963 N   0  0  0  0  0  0  0  0  0  0  0  0
   23.1052  -23.3149  -14.9460 C   0  0  0  0  0  0  0  0  0  0  0  0
   22.6550  -23.7551  -13.8472 O   0  0  0  0  0  0  0  0  0  0  0  0
   22.7536  -22.0461  -15.4529 N   0  0  0  0  0  0  0  0  0  0  0  0
   21.7891  -21.1907  -14.7809 C   0  0  1  0  0  0  0  0  0  0  0  0
   21.8601  -19.7846  -15.3050 C   0  0  0  0  0  0  0  0  0  0  0  0
   20.9572  -18.9077  -14.5379 C   0  0  0  0  0  0  0  0  0  0  0  0
   20.9846  -17.4570  -14.9578 C   0  0  0  0  0  0  0  0  0  0  0  0
   20.1497  -16.5699  -14.0922 C   0  0  0  0  0  0  0  0  0  0  0  0
   20.3405  -15.1701  -14.4250 N   0  0  0  0  0  0  0  0  0  0  0  0
   20.4505  -21.7593  -15.0562 C   0  0  0  0  0  0  0  0  0  0  0  0
   20.0068  -22.0368  -16.1978 O   0  0  0  0  0  0  0  0  0  0  0  0
   17.1220  -27.2045  -13.5621 C   0  0  0  0  0  0  0  0  0  0  0  0
   16.3205  -25.8207  -12.7227 S   0  0  0  0  0  0  0  0  0  0  0  0
   16.5939  -24.2650  -13.5596 C   0  0  0  0  0  0  0  0  0  0  0  0
   17.9490  -23.6935  -13.4889 C   0  0  0  0  0  0  0  0  0  0  0  0
   18.1792  -22.4325  -14.2422 C   0  0  2  0  0  0  0  0  0  0  0  0
   19.5824  -22.0204  -13.9720 N   0  0  0  0  0  0  0  0  0  0  0  0
   17.3008  -21.3041  -13.9290 C   0  0  0  0  0  0  0  0  0  0  0  0
   17.5225  -20.6711  -12.8461 O   0  0  0  0  0  0  0  0  0  0  0  0
   16.2565  -20.8441  -14.6867 O   0  0  0  0  0  0  0  0  0  0  0  0
  2  1  1  6
  3  2  1  0
  4  3  1  0
  4  5  2  0
  6  5  1  0
  7  6  1  0
  8  7  2  0
  8  4  1  0
  9  2  1  0
 10  9  2  0
 11  9  1  0
 12 11  1  0
 12 13  1  6
 13 14  1  0
 14 15  1  0
 16 15  1  0
 17 16  1  0
 18 12  1  0
 19 18  2  0
 21 20  1  0
 22 21  1  0
 23 22  1  0
 24 23  1  1
 24 25  1  0
 25 18  1  0
 26 24  1  0
 26 28  1  0
 27 26  2  0
M  END
$$$$
