HKM.pdb
     RDKit          3D

 28 28  0  0  1  0  0  0  0  0999 V2000
   25.0441  -19.5927  -18.2418 N   0  0  0  0  0  0  0  0  0  0  0  0
   24.5637  -18.7895  -17.1326 C   0  0  1  0  0  0  0  0  0  0  0  0
   25.0446  -17.3820  -17.3108 C   0  0  0  0  0  0  0  0  0  0  0  0
   26.5197  -17.3601  -17.2346 C   0  0  0  0  0  0  0  0  0  0  0  0
   27.3847  -18.4226  -16.9592 C   0  0  0  0  0  0  0  0  0  0  0  0
   28.6392  -17.9409  -16.9924 N   0  0  0  0  0  0  0  0  0  0  0  0
   28.5722  -16.6296  -17.2766 C   0  0  0  0  0  0  0  0  0  0  0  0
   27.3042  -16.2714  -17.4238 N   0  0  0  0  0  0  0  0  0  0  0  0
   23.0756  -18.8568  -17.0548 C   0  0  0  0  0  0  0  0  0  0  0  0
   22.4366  -18.7658  -18.1444 O   0  0  0  0  0  0  0  0  0  0  0  0
   22.4294  -19.0152  -15.8107 N   0  0  0  0  0  0  0  0  0  0  0  0
   20.9940  -19.2232  -15.7115 C   0  0  1  0  0  0  0  0  0  0  0  0
   20.6597  -20.1258  -14.5581 C   0  0  0  0  0  0  0  0  0  0  0  0
   19.2363  -20.5060  -14.6034 C   0  0  0  0  0  0  0  0  0  0  0  0
   18.8062  -21.4595  -13.5135 C   0  0  0  0  0  0  0  0  0  0  0  0
   17.3433  -21.7642  -13.5311 C   0  0  0  0  0  0  0  0  0  0  0  0
   16.9944  -22.6318  -14.6412 N   0  0  0  0  0  0  0  0  0  0  0  0
   20.3841  -17.8917  -15.4968 C   0  0  0  0  0  0  0  0  0  0  0  0
   20.6256  -17.1378  -14.5219 O   0  0  0  0  0  0  0  0  0  0  0  0
   21.7043  -13.3575  -20.0281 C   0  0  0  0  0  0  0  0  0  0  0  0
   20.0529  -13.8882  -19.5251 S   0  0  0  0  0  0  0  0  0  0  0  0
   20.0638  -14.7658  -17.9679 C   0  0  0  0  0  0  0  0  0  0  0  0
   18.7996  -15.3861  -17.5378 C   0  0  0  0  0  0  0  0  0  0  0  0
   18.8130  -16.0812  -16.2235 C   0  0  2  0  0  0  0  0  0  0  0  0
   19.4550  -17.4045  -16.4437 N   0  0  0  0  0  0  0  0  0  0  0  0
   17.5181  -16.3008  -15.5770 C   0  0  0  0  0  0  0  0  0  0  0  0
   16.9534  -17.4274  -15.7627 O   0  0  0  0  0  0  0  0  0  0  0  0
   16.8412  -15.4178  -14.7781 O   0  0  0  0  0  0  0  0  0  0  0  0
  2  1  1  6
  3  2  1  0
  4  3  1  0
  4  5  2  0
  6  5  1  0
  7  6  1  0
  8  7  2  0
  8  4  1  0
  9  2  1  0
 10  9  2  0
 11  9  1  0
 12 11  1  0
 12 13  1  1
 13 14  1  0
 14 15  1  0
 16 15  1  0
 17 16  1  0
 18 12  1  0
 19 18  2  0
 21 20  1  0
 22 21  1  0
 23 22  1  0
 24 23  1  6
 24 25  1  0
 25 18  1  0
 26 24  1  0
 26 28  1  0
 27 26  2  0
M  END
$$$$
