HKM.pdb
     RDKit          3D

 28 28  0  0  1  0  0  0  0  0999 V2000
   25.7587  -19.1054  -18.6955 N   0  0  0  0  0  0  0  0  0  0  0  0
   24.8428  -18.2626  -17.9492 C   0  0  1  0  0  0  0  0  0  0  0  0
   24.1689  -17.3207  -18.8994 C   0  0  0  0  0  0  0  0  0  0  0  0
   25.1871  -16.4530  -19.5259 C   0  0  0  0  0  0  0  0  0  0  0  0
   25.6323  -16.4638  -20.8505 C   0  0  0  0  0  0  0  0  0  0  0  0
   26.5647  -15.5031  -20.9710 N   0  0  0  0  0  0  0  0  0  0  0  0
   26.7045  -14.9090  -19.7742 C   0  0  0  0  0  0  0  0  0  0  0  0
   25.8820  -15.4720  -18.9002 N   0  0  0  0  0  0  0  0  0  0  0  0
   23.8538  -19.1026  -17.2132 C   0  0  0  0  0  0  0  0  0  0  0  0
   23.0818  -19.8267  -17.9085 O   0  0  0  0  0  0  0  0  0  0  0  0
   23.7988  -19.0755  -15.8037 N   0  0  0  0  0  0  0  0  0  0  0  0
   22.8850  -19.9220  -15.0541 C   0  0  1  0  0  0  0  0  0  0  0  0
   23.5341  -20.4373  -13.8013 C   0  0  0  0  0  0  0  0  0  0  0  0
   24.4882  -21.5129  -14.1260 C   0  0  0  0  0  0  0  0  0  0  0  0
   23.8478  -22.8087  -14.5647 C   0  0  0  0  0  0  0  0  0  0  0  0
   24.8343  -23.8455  -14.9951 C   0  0  0  0  0  0  0  0  0  0  0  0
   24.1752  -25.0834  -15.3691 N   0  0  0  0  0  0  0  0  0  0  0  0
   21.7174  -19.0827  -14.7029 C   0  0  0  0  0  0  0  0  0  0  0  0
   21.7795  -17.9631  -14.1372 O   0  0  0  0  0  0  0  0  0  0  0  0
   17.2909  -13.8998  -16.4092 C   0  0  0  0  0  0  0  0  0  0  0  0
   17.7896  -15.5665  -16.8941 S   0  0  0  0  0  0  0  0  0  0  0  0
   18.3829  -16.5302  -15.5104 C   0  0  0  0  0  0  0  0  0  0  0  0
   18.9229  -17.8678  -15.8060 C   0  0  0  0  0  0  0  0  0  0  0  0
   19.2382  -18.7309  -14.6372 C   0  0  2  0  0  0  0  0  0  0  0  0
   20.4207  -19.5502  -15.0145 N   0  0  0  0  0  0  0  0  0  0  0  0
   18.1820  -19.6339  -14.1765 C   0  0  0  0  0  0  0  0  0  0  0  0
   18.2962  -20.8681  -14.4699 O   0  0  0  0  0  0  0  0  0  0  0  0
   17.0727  -19.2930  -13.4489 O   0  0  0  0  0  0  0  0  0  0  0  0
  2  1  1  6
  3  2  1  0
  4  3  1  0
  4  5  2  0
  6  5  1  0
  7  6  1  0
  8  7  2  0
  8  4  1  0
  9  2  1  0
 10  9  2  0
 11  9  1  0
 12 11  1  0
 12 13  1  1
 13 14  1  0
 14 15  1  0
 16 15  1  0
 17 16  1  0
 18 12  1  0
 19 18  2  0
 21 20  1  0
 22 21  1  0
 23 22  1  0
 24 23  1  6
 24 25  1  0
 25 18  1  0
 26 24  1  0
 26 28  1  0
 27 26  2  0
M  END
$$$$
