HKM.pdb
     RDKit          3D

 28 28  0  0  1  0  0  0  0  0999 V2000
   25.3235  -19.2722  -16.4198 N   0  0  0  0  0  0  0  0  0  0  0  0
   25.5241  -20.6470  -16.0004 C   0  0  1  0  0  0  0  0  0  0  0  0
   24.2081  -21.3616  -16.0395 C   0  0  0  0  0  0  0  0  0  0  0  0
   23.2889  -20.7387  -15.0652 C   0  0  0  0  0  0  0  0  0  0  0  0
   23.0455  -21.1209  -13.7431 C   0  0  0  0  0  0  0  0  0  0  0  0
   22.1355  -20.2702  -13.2379 N   0  0  0  0  0  0  0  0  0  0  0  0
   21.8159  -19.3869  -14.1984 C   0  0  0  0  0  0  0  0  0  0  0  0
   22.5030  -19.6597  -15.2989 N   0  0  0  0  0  0  0  0  0  0  0  0
   26.5358  -21.3092  -16.8740 C   0  0  0  0  0  0  0  0  0  0  0  0
   26.5601  -20.9637  -18.0921 O   0  0  0  0  0  0  0  0  0  0  0  0
   27.4169  -22.2756  -16.3447 N   0  0  0  0  0  0  0  0  0  0  0  0
   28.4750  -22.8707  -17.1447 C   0  0  1  0  0  0  0  0  0  0  0  0
   29.4915  -23.5505  -16.2723 C   0  0  0  0  0  0  0  0  0  0  0  0
   30.5844  -24.0998  -17.0948 C   0  0  0  0  0  0  0  0  0  0  0  0
   31.7404  -24.6669  -16.3049 C   0  0  0  0  0  0  0  0  0  0  0  0
   32.8966  -25.0827  -17.1556 C   0  0  0  0  0  0  0  0  0  0  0  0
   33.9939  -25.5880  -16.3510 N   0  0  0  0  0  0  0  0  0  0  0  0
   27.8309  -23.8666  -18.0304 C   0  0  0  0  0  0  0  0  0  0  0  0
   26.8510  -24.5852  -17.7132 O   0  0  0  0  0  0  0  0  0  0  0  0
   22.7514  -24.8595  -20.0325 C   0  0  0  0  0  0  0  0  0  0  0  0
   23.6750  -24.4200  -21.5210 S   0  0  0  0  0  0  0  0  0  0  0  0
   25.3760  -24.9653  -21.4536 C   0  0  0  0  0  0  0  0  0  0  0  0
   26.2190  -24.4046  -20.3844 C   0  0  0  0  0  0  0  0  0  0  0  0
   27.6068  -24.9291  -20.2876 C   0  0  2  0  0  0  0  0  0  0  0  0
   28.3350  -24.0456  -19.3384 N   0  0  0  0  0  0  0  0  0  0  0  0
   28.3762  -25.0005  -21.5310 C   0  0  0  0  0  0  0  0  0  0  0  0
   28.3603  -26.1033  -22.1681 O   0  0  0  0  0  0  0  0  0  0  0  0
   29.1161  -23.9952  -22.0951 O   0  0  0  0  0  0  0  0  0  0  0  0
  2  1  1  6
  3  2  1  0
  4  3  1  0
  4  5  2  0
  6  5  1  0
  7  6  1  0
  8  7  2  0
  8  4  1  0
  9  2  1  0
 10  9  2  0
 11  9  1  0
 12 11  1  0
 12 13  1  1
 13 14  1  0
 14 15  1  0
 16 15  1  0
 17 16  1  0
 18 12  1  0
 19 18  2  0
 21 20  1  0
 22 21  1  0
 23 22  1  0
 24 23  1  6
 24 25  1  0
 25 18  1  0
 26 24  1  0
 26 28  1  0
 27 26  2  0
M  END
$$$$
