HKM.pdb
     RDKit          3D

 28 28  0  0  1  0  0  0  0  0999 V2000
   19.5793  -19.1387  -14.9477 N   0  0  0  0  0  0  0  0  0  0  0  0
   20.6735  -18.5815  -14.1741 C   0  0  1  0  0  0  0  0  0  0  0  0
   20.1067  -17.7808  -13.0419 C   0  0  0  0  0  0  0  0  0  0  0  0
   19.4073  -16.5990  -13.5862 C   0  0  0  0  0  0  0  0  0  0  0  0
   19.9451  -15.3484  -13.9023 C   0  0  0  0  0  0  0  0  0  0  0  0
   18.9419  -14.5827  -14.3652 N   0  0  0  0  0  0  0  0  0  0  0  0
   17.8167  -15.3164  -14.3434 C   0  0  0  0  0  0  0  0  0  0  0  0
   18.0856  -16.5281  -13.8774 N   0  0  0  0  0  0  0  0  0  0  0  0
   21.5654  -19.6722  -13.6841 C   0  0  0  0  0  0  0  0  0  0  0  0
   21.2488  -20.2286  -12.5914 O   0  0  0  0  0  0  0  0  0  0  0  0
   22.7065  -20.0507  -14.4223 N   0  0  0  0  0  0  0  0  0  0  0  0
   23.6168  -21.0830  -13.9540 C   0  0  1  0  0  0  0  0  0  0  0  0
   24.1922  -21.8560  -15.1064 C   0  0  0  0  0  0  0  0  0  0  0  0
   23.7112  -23.2490  -15.0776 C   0  0  0  0  0  0  0  0  0  0  0  0
   24.8005  -24.2865  -14.9402 C   0  0  0  0  0  0  0  0  0  0  0  0
   24.3009  -25.6917  -15.0363 C   0  0  0  0  0  0  0  0  0  0  0  0
   25.3841  -26.6503  -14.9163 N   0  0  0  0  0  0  0  0  0  0  0  0
   24.7035  -20.3934  -13.2228 C   0  0  0  0  0  0  0  0  0  0  0  0
   25.2794  -19.3461  -13.6086 O   0  0  0  0  0  0  0  0  0  0  0  0
   28.3503  -19.4907   -6.2801 C   0  0  0  0  0  0  0  0  0  0  0  0
   27.0041  -20.2313   -7.2293 S   0  0  0  0  0  0  0  0  0  0  0  0
   27.2407  -20.0629   -8.9931 C   0  0  0  0  0  0  0  0  0  0  0  0
   26.1347  -20.4960   -9.8634 C   0  0  0  0  0  0  0  0  0  0  0  0
   26.3405  -20.3407  -11.3276 C   0  0  2  0  0  0  0  0  0  0  0  0
   25.1491  -20.9308  -11.9941 N   0  0  0  0  0  0  0  0  0  0  0  0
   27.5388  -20.9591  -11.8973 C   0  0  0  0  0  0  0  0  0  0  0  0
   27.4832  -22.2015  -12.1728 O   0  0  0  0  0  0  0  0  0  0  0  0
   28.7273  -20.3379  -12.1764 O   0  0  0  0  0  0  0  0  0  0  0  0
  2  1  1  1
  3  2  1  0
  4  3  1  0
  4  5  2  0
  6  5  1  0
  7  6  1  0
  8  7  2  0
  8  4  1  0
  9  2  1  0
 10  9  2  0
 11  9  1  0
 12 11  1  0
 12 13  1  6
 13 14  1  0
 14 15  1  0
 16 15  1  0
 17 16  1  0
 18 12  1  0
 19 18  2  0
 21 20  1  0
 22 21  1  0
 23 22  1  0
 24 23  1  1
 24 25  1  0
 25 18  1  0
 26 24  1  0
 26 28  1  0
 27 26  2  0
M  END
$$$$
