HKM.pdb
     RDKit          3D

 28 28  0  0  1  0  0  0  0  0999 V2000
   23.8118  -19.5150  -21.4424 N   0  0  0  0  0  0  0  0  0  0  0  0
   24.8047  -19.0444  -20.4944 C   0  0  1  0  0  0  0  0  0  0  0  0
   24.3208  -17.7658  -19.8819 C   0  0  0  0  0  0  0  0  0  0  0  0
   24.3391  -16.7005  -20.9051 C   0  0  0  0  0  0  0  0  0  0  0  0
   25.3487  -16.4062  -21.8255 C   0  0  0  0  0  0  0  0  0  0  0  0
   24.9350  -15.3571  -22.5570 N   0  0  0  0  0  0  0  0  0  0  0  0
   23.7156  -15.0017  -22.1190 C   0  0  0  0  0  0  0  0  0  0  0  0
   23.3493  -15.8021  -21.1277 N   0  0  0  0  0  0  0  0  0  0  0  0
   25.0631  -20.0871  -19.4594 C   0  0  0  0  0  0  0  0  0  0  0  0
   24.0530  -20.6010  -18.8942 O   0  0  0  0  0  0  0  0  0  0  0  0
   26.3834  -20.4682  -19.1401 N   0  0  0  0  0  0  0  0  0  0  0  0
   26.6721  -21.4351  -18.0935 C   0  0  1  0  0  0  0  0  0  0  0  0
   28.0585  -21.9934  -18.2444 C   0  0  0  0  0  0  0  0  0  0  0  0
   28.3242  -22.9912  -17.1926 C   0  0  0  0  0  0  0  0  0  0  0  0
   29.6815  -23.6486  -17.2795 C   0  0  0  0  0  0  0  0  0  0  0  0
   29.8592  -24.7787  -16.3179 C   0  0  0  0  0  0  0  0  0  0  0  0
   31.1567  -25.4103  -16.4739 N   0  0  0  0  0  0  0  0  0  0  0  0
   26.5612  -20.7146  -16.8052 C   0  0  0  0  0  0  0  0  0  0  0  0
   27.2538  -19.7205  -16.4742 O   0  0  0  0  0  0  0  0  0  0  0  0
   27.1710  -15.8585  -14.5871 C   0  0  0  0  0  0  0  0  0  0  0  0
   25.4619  -16.0456  -15.1401 S   0  0  0  0  0  0  0  0  0  0  0  0
   24.7922  -17.6567  -14.7512 C   0  0  0  0  0  0  0  0  0  0  0  0
   25.4076  -18.8180  -15.4153 C   0  0  0  0  0  0  0  0  0  0  0  0
   24.9300  -20.1593  -14.9872 C   0  0  2  0  0  0  0  0  0  0  0  0
   25.6133  -21.1558  -15.8544 N   0  0  0  0  0  0  0  0  0  0  0  0
   23.4881  -20.4022  -15.0567 C   0  0  0  0  0  0  0  0  0  0  0  0
   22.7660  -19.9171  -14.1262 O   0  0  0  0  0  0  0  0  0  0  0  0
   22.8206  -21.0980  -16.0296 O   0  0  0  0  0  0  0  0  0  0  0  0
  2  1  1  6
  3  2  1  0
  4  3  1  0
  4  5  2  0
  6  5  1  0
  7  6  1  0
  8  7  2  0
  8  4  1  0
  9  2  1  0
 10  9  2  0
 11  9  1  0
 12 11  1  0
 12 13  1  6
 13 14  1  0
 14 15  1  0
 16 15  1  0
 17 16  1  0
 18 12  1  0
 19 18  2  0
 21 20  1  0
 22 21  1  0
 23 22  1  0
 24 23  1  6
 24 25  1  0
 25 18  1  0
 26 24  1  0
 26 28  1  0
 27 26  2  0
M  END
$$$$
