HKM.pdb
     RDKit          3D

 28 28  0  0  1  0  0  0  0  0999 V2000
   22.8352  -17.0157  -18.1140 N   0  0  0  0  0  0  0  0  0  0  0  0
   22.5701  -17.0636  -16.6880 C   0  0  1  0  0  0  0  0  0  0  0  0
   21.2819  -16.3508  -16.4113 C   0  0  0  0  0  0  0  0  0  0  0  0
   21.4400  -14.9190  -16.7382 C   0  0  0  0  0  0  0  0  0  0  0  0
   20.8891  -14.2136  -17.8116 C   0  0  0  0  0  0  0  0  0  0  0  0
   21.3018  -12.9382  -17.7110 N   0  0  0  0  0  0  0  0  0  0  0  0
   22.0807  -12.8395  -16.6208 C   0  0  0  0  0  0  0  0  0  0  0  0
   22.1698  -14.0231  -16.0301 N   0  0  0  0  0  0  0  0  0  0  0  0
   22.5271  -18.4793  -16.2197 C   0  0  0  0  0  0  0  0  0  0  0  0
   21.6004  -19.2104  -16.6787 O   0  0  0  0  0  0  0  0  0  0  0  0
   23.4871  -18.9610  -15.3051 N   0  0  0  0  0  0  0  0  0  0  0  0
   23.5010  -20.3463  -14.8643 C   0  0  1  0  0  0  0  0  0  0  0  0
   24.8429  -20.7180  -14.3003 C   0  0  0  0  0  0  0  0  0  0  0  0
   25.7696  -21.0836  -15.3866 C   0  0  0  0  0  0  0  0  0  0  0  0
   27.0803  -21.6734  -14.9216 C   0  0  0  0  0  0  0  0  0  0  0  0
   28.0286  -21.9725  -16.0373 C   0  0  0  0  0  0  0  0  0  0  0  0
   29.2455  -22.5941  -15.5482 N   0  0  0  0  0  0  0  0  0  0  0  0
   22.4660  -20.4697  -13.8134 C   0  0  0  0  0  0  0  0  0  0  0  0
   22.1578  -19.5667  -12.9966 O   0  0  0  0  0  0  0  0  0  0  0  0
   18.1950  -17.8449  -14.1485 C   0  0  0  0  0  0  0  0  0  0  0  0
   17.2402  -19.1990  -13.4297 S   0  0  0  0  0  0  0  0  0  0  0  0
   18.2796  -20.5307  -12.8450 C   0  0  0  0  0  0  0  0  0  0  0  0
   19.6456  -20.6051  -13.3897 C   0  0  0  0  0  0  0  0  0  0  0  0
   20.4977  -21.7201  -12.8986 C   0  0  2  0  0  0  0  0  0  0  0  0
   21.7534  -21.6843  -13.6947 N   0  0  0  0  0  0  0  0  0  0  0  0
   19.9373  -23.0697  -12.9852 C   0  0  0  0  0  0  0  0  0  0  0  0
   20.0759  -23.6927  -14.0875 O   0  0  0  0  0  0  0  0  0  0  0  0
   19.2771  -23.7475  -11.9948 O   0  0  0  0  0  0  0  0  0  0  0  0
  2  1  1  6
  3  2  1  0
  4  3  1  0
  4  5  2  0
  6  5  1  0
  7  6  1  0
  8  7  2  0
  8  4  1  0
  9  2  1  0
 10  9  2  0
 11  9  1  0
 12 11  1  0
 12 13  1  1
 13 14  1  0
 14 15  1  0
 16 15  1  0
 17 16  1  0
 18 12  1  0
 19 18  2  0
 21 20  1  0
 22 21  1  0
 23 22  1  0
 24 23  1  6
 24 25  1  0
 25 18  1  0
 26 24  1  0
 26 28  1  0
 27 26  2  0
M  END
$$$$
