RQR.pdb
     RDKit          3D

 32 31  0  0  1  0  0  0  0  0999 V2000
   24.3233  -24.2010  -14.2039 N   0  0  0  0  0  0  0  0  0  0  0  0
   24.4032  -22.8072  -14.4788 C   0  0  0  0  0  0  0  0  0  0  0  0
   25.5030  -22.3161  -14.9880 N   0  0  0  0  0  0  0  0  0  0  0  0
   23.3086  -21.9409  -14.2076 N   0  0  0  0  0  0  0  0  0  0  0  0
   22.1216  -22.4368  -13.5796 C   0  0  0  0  0  0  0  0  0  0  0  0
   21.0744  -21.3918  -13.2993 C   0  0  0  0  0  0  0  0  0  0  0  0
   19.8254  -21.9046  -12.6694 C   0  0  0  0  0  0  0  0  0  0  0  0
   19.3081  -23.1418  -13.3908 C   0  0  2  0  0  0  0  0  0  0  0  0
   18.3762  -22.7566  -14.4125 N   0  0  0  0  0  0  0  0  0  0  0  0
   18.7019  -24.0433  -12.3652 C   0  0  0  0  0  0  0  0  0  0  0  0
   17.4748  -23.9161  -12.1413 O   0  0  0  0  0  0  0  0  0  0  0  0
   25.5859  -21.3141  -15.2335 N   0  0  0  0  0  0  0  0  0  0  0  0
   21.2792  -29.2507  -10.5237 C   0  0  0  0  0  0  0  0  0  0  0  0
   20.2938  -29.1940  -11.5464 O   0  0  0  0  0  0  0  0  0  0  0  0
   20.1823  -30.0870  -12.4233 C   0  0  0  0  0  0  0  0  0  0  0  0
   19.3495  -28.0427  -11.5991 C   0  0  0  0  0  0  0  0  0  0  0  0
   19.5801  -27.0820  -10.4671 C   0  0  2  0  0  0  0  0  0  0  0  0
   18.7484  -25.8184  -10.6595 N   0  0  0  0  0  0  0  0  0  0  0  0
   19.4023  -25.0152  -11.6406 C   0  0  0  0  0  0  0  0  0  0  0  0
   18.5158  -25.1287   -9.3853 O   0  0  0  0  0  0  0  0  0  0  0  0
   19.3067  -24.3089   -8.8659 N   0  0  0  0  0  0  0  0  0  0  0  0
   13.4508  -23.9314   -2.9874 C   0  0  0  0  0  0  0  0  0  0  0  0
   14.3806  -22.8387   -3.0194 N   0  0  0  0  0  0  0  0  0  0  0  0
   14.8136  -22.3719   -1.9285 N   0  0  0  0  0  0  0  0  0  0  0  0
   14.8240  -22.2785   -4.2333 C   0  0  0  0  0  0  0  0  0  0  0  0
   14.9027  -22.8880   -5.4958 C   0  0  0  0  0  0  0  0  0  0  0  0
   15.4203  -24.2969   -5.5520 C   0  0  0  0  0  0  0  0  0  0  0  0
   15.5875  -24.7318   -7.0268 C   0  0  1  0  0  0  0  0  0  0  0  0
   17.0407  -24.7847   -7.3940 N   0  0  0  0  0  0  0  0  0  0  0  0
   17.3125  -25.3884   -8.6596 C   0  0  0  0  0  0  0  0  0  0  0  0
   17.8426  -25.4048   -6.2923 O   0  0  0  0  0  0  0  0  0  0  0  0
   18.0439  -26.6402   -6.2032 O   0  0  0  0  0  0  0  0  0  0  0  0
  2  3  2  0
  2  1  1  0
  4  2  1  0
  5  6  1  0
  5  4  1  0
  6  7  1  0
  7  8  1  0
  8 10  1  0
  8  9  1  6
 10 18  1  0
 11 10  2  0
 13 12  1  0
 13 14  2  0
 15 13  1  0
 16 15  1  0
 17 16  1  6
 18 17  1  0
 19 20  2  0
 19 17  1  0
 22 21  1  0
 23 22  2  0
 24 22  1  0
 25 24  1  0
 26 27  1  0
 26 25  1  0
 28 27  1  6
 28 30  1  0
 28 29  1  0
 29 19  1  0
 30 32  1  0
 31 30  2  0
M  END
$$$$
