RQR.pdb
     RDKit          3D

 32 31  0  0  1  0  0  0  0  0999 V2000
   27.9413  -25.0751  -16.2983 N   0  0  0  0  0  0  0  0  0  0  0  0
   26.6688  -25.6754  -16.5102 C   0  0  0  0  0  0  0  0  0  0  0  0
   26.4939  -26.9338  -16.2005 N   0  0  0  0  0  0  0  0  0  0  0  0
   25.5863  -24.9304  -17.0539 N   0  0  0  0  0  0  0  0  0  0  0  0
   25.7197  -23.5285  -17.3110 C   0  0  0  0  0  0  0  0  0  0  0  0
   26.6805  -22.8104  -16.4008 C   0  0  0  0  0  0  0  0  0  0  0  0
   26.0438  -22.0207  -15.3096 C   0  0  0  0  0  0  0  0  0  0  0  0
   25.6265  -20.6393  -15.7956 C   0  0  2  0  0  0  0  0  0  0  0  0
   26.7375  -19.7347  -15.7061 N   0  0  0  0  0  0  0  0  0  0  0  0
   24.4583  -20.2038  -14.9723 C   0  0  0  0  0  0  0  0  0  0  0  0
   24.6908  -19.8238  -13.8002 O   0  0  0  0  0  0  0  0  0  0  0  0
   25.5938  -27.4142  -16.3743 N   0  0  0  0  0  0  0  0  0  0  0  0
   19.8259  -16.5429  -16.0720 C   0  0  0  0  0  0  0  0  0  0  0  0
   19.5176  -17.0036  -14.7633 O   0  0  0  0  0  0  0  0  0  0  0  0
   18.6032  -16.4934  -14.0686 C   0  0  0  0  0  0  0  0  0  0  0  0
   20.2946  -18.1305  -14.1748 C   0  0  0  0  0  0  0  0  0  0  0  0
   21.3521  -18.6292  -15.1183 C   0  0  2  0  0  0  0  0  0  0  0  0
   22.0626  -19.8447  -14.5321 N   0  0  0  0  0  0  0  0  0  0  0  0
   23.1298  -20.1890  -15.4139 C   0  0  0  0  0  0  0  0  0  0  0  0
   21.1246  -20.9438  -14.2759 O   0  0  0  0  0  0  0  0  0  0  0  0
   20.7373  -21.7636  -15.1391 N   0  0  0  0  0  0  0  0  0  0  0  0
   18.3382  -26.1431  -10.8577 C   0  0  0  0  0  0  0  0  0  0  0  0
   18.1110  -25.9675   -9.4516 N   0  0  0  0  0  0  0  0  0  0  0  0
   18.1432  -26.9791   -8.6958 N   0  0  0  0  0  0  0  0  0  0  0  0
   17.8578  -24.6988   -8.8947 C   0  0  0  0  0  0  0  0  0  0  0  0
   17.8805  -23.4480   -9.5324 C   0  0  0  0  0  0  0  0  0  0  0  0
   18.3051  -23.4144  -10.9728 C   0  0  0  0  0  0  0  0  0  0  0  0
   19.2626  -22.2222  -11.2057 C   0  0  2  0  0  0  0  0  0  0  0  0
   19.6110  -22.1088  -12.6600 N   0  0  0  0  0  0  0  0  0  0  0  0
   20.5963  -21.1191  -12.9599 C   0  0  0  0  0  0  0  0  0  0  0  0
   18.3755  -21.9404  -13.4886 O   0  0  0  0  0  0  0  0  0  0  0  0
   17.7504  -20.8557  -13.5737 O   0  0  0  0  0  0  0  0  0  0  0  0
  2  3  2  0
  2  1  1  0
  4  2  1  0
  5  6  1  0
  5  4  1  0
  6  7  1  0
  7  8  1  0
  8 10  1  0
  8  9  1  1
 10 18  1  0
 11 10  2  0
 13 12  1  0
 13 14  2  0
 15 13  1  0
 16 15  1  0
 17 16  1  1
 18 17  1  0
 19 20  2  0
 19 17  1  0
 22 21  1  0
 23 22  2  0
 24 22  1  0
 25 24  1  0
 26 27  1  0
 26 25  1  0
 28 27  1  1
 28 30  1  0
 28 29  1  0
 29 19  1  0
 30 32  1  0
 31 30  2  0
M  END
$$$$
