RQR.pdb
     RDKit          3D

 32 31  0  0  1  0  0  0  0  0999 V2000
   27.1685  -27.5470  -17.8877 N   0  0  0  0  0  0  0  0  0  0  0  0
   28.5009  -27.0487  -17.9184 C   0  0  0  0  0  0  0  0  0  0  0  0
   29.4933  -27.8821  -18.0937 N   0  0  0  0  0  0  0  0  0  0  0  0
   28.7703  -25.6613  -17.7603 N   0  0  0  0  0  0  0  0  0  0  0  0
   27.8473  -24.8110  -17.0717 C   0  0  0  0  0  0  0  0  0  0  0  0
   26.7877  -24.1941  -17.9458 C   0  0  0  0  0  0  0  0  0  0  0  0
   25.8232  -23.3076  -17.2361 C   0  0  0  0  0  0  0  0  0  0  0  0
   26.5429  -22.2050  -16.4712 C   0  0  2  0  0  0  0  0  0  0  0  0
   26.8668  -22.6602  -15.1489 N   0  0  0  0  0  0  0  0  0  0  0  0
   25.6553  -21.0032  -16.4678 C   0  0  0  0  0  0  0  0  0  0  0  0
   24.7104  -20.9887  -15.6437 O   0  0  0  0  0  0  0  0  0  0  0  0
   30.4753  -27.5566  -18.1217 N   0  0  0  0  0  0  0  0  0  0  0  0
   26.5021  -15.4219  -19.3396 C   0  0  0  0  0  0  0  0  0  0  0  0
   25.2087  -15.2972  -18.7638 O   0  0  0  0  0  0  0  0  0  0  0  0
   24.5465  -14.2308  -18.8219 C   0  0  0  0  0  0  0  0  0  0  0  0
   24.5978  -16.4604  -18.0611 C   0  0  0  0  0  0  0  0  0  0  0  0
   25.5186  -17.6475  -18.0464 C   0  0  1  0  0  0  0  0  0  0  0  0
   24.9038  -18.7920  -17.2478 N   0  0  0  0  0  0  0  0  0  0  0  0
   25.8029  -19.8977  -17.3141 C   0  0  0  0  0  0  0  0  0  0  0  0
   23.5458  -19.1013  -17.7100 O   0  0  0  0  0  0  0  0  0  0  0  0
   23.2780  -19.8200  -18.6995 N   0  0  0  0  0  0  0  0  0  0  0  0
   16.8236  -22.5357  -13.8482 C   0  0  0  0  0  0  0  0  0  0  0  0
   17.3545  -21.2104  -13.7026 N   0  0  0  0  0  0  0  0  0  0  0  0
   17.1442  -20.5820  -12.6272 N   0  0  0  0  0  0  0  0  0  0  0  0
   18.1050  -20.5965  -14.7242 C   0  0  0  0  0  0  0  0  0  0  0  0
   18.2151  -20.9763  -16.0716 C   0  0  0  0  0  0  0  0  0  0  0  0
   18.9206  -20.0302  -17.0008 C   0  0  0  0  0  0  0  0  0  0  0  0
   20.3001  -19.6536  -16.4115 C   0  0  2  0  0  0  0  0  0  0  0  0
   21.0792  -18.8287  -17.3923 N   0  0  0  0  0  0  0  0  0  0  0  0
   22.4273  -18.5599  -17.0045 C   0  0  0  0  0  0  0  0  0  0  0  0
   20.3348  -17.5773  -17.7404 O   0  0  0  0  0  0  0  0  0  0  0  0
   19.1866  -17.5815  -18.2466 O   0  0  0  0  0  0  0  0  0  0  0  0
  2  3  2  0
  2  1  1  0
  4  2  1  0
  5  6  1  0
  5  4  1  0
  6  7  1  0
  7  8  1  0
  8 10  1  0
  8  9  1  1
 10 18  1  0
 11 10  2  0
 13 12  1  0
 13 14  2  0
 15 13  1  0
 16 15  1  0
 17 16  1  1
 18 17  1  0
 19 20  2  0
 19 17  1  0
 22 21  1  0
 23 22  2  0
 24 22  1  0
 25 24  1  0
 26 27  1  0
 26 25  1  0
 28 27  1  6
 28 30  1  0
 28 29  1  0
 29 19  1  0
 30 32  1  0
 31 30  2  0
M  END
$$$$
