RQR.pdb
     RDKit          3D

 32 31  0  0  1  0  0  0  0  0999 V2000
   27.9430  -25.9483  -16.4201 N   0  0  0  0  0  0  0  0  0  0  0  0
   27.0844  -25.2837  -17.3397 C   0  0  0  0  0  0  0  0  0  0  0  0
   26.9178  -25.7828  -18.5369 N   0  0  0  0  0  0  0  0  0  0  0  0
   26.4068  -24.0866  -16.9789 N   0  0  0  0  0  0  0  0  0  0  0  0
   26.9710  -22.8068  -17.2838 C   0  0  0  0  0  0  0  0  0  0  0  0
   27.5021  -22.0534  -16.0930 C   0  0  0  0  0  0  0  0  0  0  0  0
   26.4677  -21.6027  -15.1202 C   0  0  0  0  0  0  0  0  0  0  0  0
   26.0639  -20.1560  -15.3705 C   0  0  2  0  0  0  0  0  0  0  0  0
   27.1323  -19.2779  -14.9856 N   0  0  0  0  0  0  0  0  0  0  0  0
   24.8030  -19.9003  -14.6109 C   0  0  0  0  0  0  0  0  0  0  0  0
   24.8873  -19.8376  -13.3614 O   0  0  0  0  0  0  0  0  0  0  0  0
   26.2919  -25.3341  -19.2284 N   0  0  0  0  0  0  0  0  0  0  0  0
   20.3546  -16.1562  -15.9367 C   0  0  0  0  0  0  0  0  0  0  0  0
   21.6649  -15.9824  -15.4144 O   0  0  0  0  0  0  0  0  0  0  0  0
   22.2534  -14.8722  -15.4299 C   0  0  0  0  0  0  0  0  0  0  0  0
   22.3846  -17.1454  -14.8232 C   0  0  0  0  0  0  0  0  0  0  0  0
   21.5746  -18.4072  -14.9178 C   0  0  2  0  0  0  0  0  0  0  0  0
   22.3701  -19.5951  -14.3871 N   0  0  0  0  0  0  0  0  0  0  0  0
   23.5410  -19.7258  -15.1915 C   0  0  0  0  0  0  0  0  0  0  0  0
   21.5488  -20.8099  -14.3306 O   0  0  0  0  0  0  0  0  0  0  0  0
   21.6181  -21.7537  -15.1503 N   0  0  0  0  0  0  0  0  0  0  0  0
   18.8442  -24.7269   -7.0090 C   0  0  0  0  0  0  0  0  0  0  0  0
   18.3232  -24.0298   -8.1502 N   0  0  0  0  0  0  0  0  0  0  0  0
   17.2897  -23.3169   -8.0121 N   0  0  0  0  0  0  0  0  0  0  0  0
   18.9362  -24.1175   -9.4153 C   0  0  0  0  0  0  0  0  0  0  0  0
   18.3270  -24.3027  -10.6668 C   0  0  0  0  0  0  0  0  0  0  0  0
   19.2042  -24.2115  -11.8827 C   0  0  0  0  0  0  0  0  0  0  0  0
   19.9905  -22.8798  -11.8587 C   0  0  2  0  0  0  0  0  0  0  0  0
   19.7874  -22.1303  -13.1418 N   0  0  0  0  0  0  0  0  0  0  0  0
   20.5922  -20.9584  -13.2796 C   0  0  0  0  0  0  0  0  0  0  0  0
   18.3348  -21.8432  -13.3626 O   0  0  0  0  0  0  0  0  0  0  0  0
   17.7898  -20.7657  -13.0210 O   0  0  0  0  0  0  0  0  0  0  0  0
  2  3  2  0
  2  1  1  0
  4  2  1  0
  5  6  1  0
  5  4  1  0
  6  7  1  0
  7  8  1  0
  8 10  1  0
  8  9  1  1
 10 18  1  0
 11 10  2  0
 13 12  1  0
 13 14  2  0
 15 13  1  0
 16 15  1  0
 17 16  1  1
 18 17  1  0
 19 20  2  0
 19 17  1  0
 22 21  1  0
 23 22  2  0
 24 22  1  0
 25 24  1  0
 26 27  1  0
 26 25  1  0
 28 27  1  6
 28 30  1  0
 28 29  1  0
 29 19  1  0
 30 32  1  0
 31 30  2  0
M  END
$$$$
