RQR.pdb
     RDKit          3D

 32 31  0  0  1  0  0  0  0  0999 V2000
   28.6701  -27.8223  -16.5612 N   0  0  0  0  0  0  0  0  0  0  0  0
   28.8785  -27.7641  -17.9676 C   0  0  0  0  0  0  0  0  0  0  0  0
   28.4247  -28.7298  -18.7235 N   0  0  0  0  0  0  0  0  0  0  0  0
   29.5725  -26.6750  -18.5631 N   0  0  0  0  0  0  0  0  0  0  0  0
   29.3192  -25.3297  -18.1443 C   0  0  0  0  0  0  0  0  0  0  0  0
   27.8740  -24.9119  -18.2099 C   0  0  0  0  0  0  0  0  0  0  0  0
   27.3845  -24.1491  -17.0274 C   0  0  0  0  0  0  0  0  0  0  0  0
   28.3500  -23.0343  -16.6482 C   0  0  2  0  0  0  0  0  0  0  0  0
   29.4120  -23.5629  -15.8399 N   0  0  0  0  0  0  0  0  0  0  0  0
   27.5640  -21.9735  -15.9490 C   0  0  0  0  0  0  0  0  0  0  0  0
   27.2530  -22.1830  -14.7525 O   0  0  0  0  0  0  0  0  0  0  0  0
   28.6061  -28.7510  -19.7422 N   0  0  0  0  0  0  0  0  0  0  0  0
   27.7908  -15.8601  -16.8956 C   0  0  0  0  0  0  0  0  0  0  0  0
   26.7468  -15.9618  -15.9366 O   0  0  0  0  0  0  0  0  0  0  0  0
   26.2288  -14.9524  -15.3964 C   0  0  0  0  0  0  0  0  0  0  0  0
   26.2338  -17.3042  -15.5430 C   0  0  0  0  0  0  0  0  0  0  0  0
   26.9664  -18.4089  -16.2503 C   0  0  1  0  0  0  0  0  0  0  0  0
   26.4802  -19.7703  -15.7648 N   0  0  0  0  0  0  0  0  0  0  0  0
   27.1528  -20.7683  -16.5309 C   0  0  0  0  0  0  0  0  0  0  0  0
   25.0169  -19.8678  -15.8152 O   0  0  0  0  0  0  0  0  0  0  0  0
   24.3503  -20.0220  -16.8637 N   0  0  0  0  0  0  0  0  0  0  0  0
   17.6525  -22.6149  -12.7798 C   0  0  0  0  0  0  0  0  0  0  0  0
   18.8339  -23.2681  -12.2927 N   0  0  0  0  0  0  0  0  0  0  0  0
   18.8223  -24.5225  -12.1448 N   0  0  0  0  0  0  0  0  0  0  0  0
   20.0033  -22.5478  -11.9803 C   0  0  0  0  0  0  0  0  0  0  0  0
   20.2293  -21.1661  -12.0872 C   0  0  0  0  0  0  0  0  0  0  0  0
   20.7669  -20.6528  -13.3924 C   0  0  0  0  0  0  0  0  0  0  0  0
   22.2971  -20.4557  -13.2837 C   0  0  2  0  0  0  0  0  0  0  0  0
   22.8469  -19.9170  -14.5709 N   0  0  0  0  0  0  0  0  0  0  0  0
   24.2687  -19.7839  -14.6007 C   0  0  0  0  0  0  0  0  0  0  0  0
   22.1558  -18.6442  -14.9499 O   0  0  0  0  0  0  0  0  0  0  0  0
   22.5121  -17.5184  -14.5254 O   0  0  0  0  0  0  0  0  0  0  0  0
  2  3  2  0
  2  1  1  0
  4  2  1  0
  5  6  1  0
  5  4  1  0
  6  7  1  0
  7  8  1  0
  8 10  1  0
  8  9  1  1
 10 18  1  0
 11 10  2  0
 13 12  1  0
 13 14  2  0
 15 13  1  0
 16 15  1  0
 17 16  1  1
 18 17  1  0
 19 20  2  0
 19 17  1  0
 22 21  1  0
 23 22  2  0
 24 22  1  0
 25 24  1  0
 26 27  1  0
 26 25  1  0
 28 27  1  6
 28 30  1  0
 28 29  1  0
 29 19  1  0
 30 32  1  0
 31 30  2  0
M  END
$$$$
