RQR.pdb
     RDKit          3D

 32 31  0  0  1  0  0  0  0  0999 V2000
   21.0036  -25.6516  -11.8087 N   0  0  0  0  0  0  0  0  0  0  0  0
   21.2542  -26.0857  -13.1404 C   0  0  0  0  0  0  0  0  0  0  0  0
   20.3309  -26.7541  -13.7813 N   0  0  0  0  0  0  0  0  0  0  0  0
   22.4912  -25.8061  -13.7838 N   0  0  0  0  0  0  0  0  0  0  0  0
   23.5202  -25.0779  -13.1054 C   0  0  0  0  0  0  0  0  0  0  0  0
   23.4395  -23.5823  -13.2605 C   0  0  0  0  0  0  0  0  0  0  0  0
   24.4557  -22.9880  -14.1735 C   0  0  0  0  0  0  0  0  0  0  0  0
   25.5031  -22.1992  -13.3992 C   0  0  2  0  0  0  0  0  0  0  0  0
   25.2682  -22.3302  -11.9892 N   0  0  0  0  0  0  0  0  0  0  0  0
   25.4393  -20.7818  -13.8670 C   0  0  0  0  0  0  0  0  0  0  0  0
   24.5872  -20.0364  -13.3280 O   0  0  0  0  0  0  0  0  0  0  0  0
   20.4858  -27.1060  -14.7423 N   0  0  0  0  0  0  0  0  0  0  0  0
   29.0737  -17.8554  -18.1716 C   0  0  0  0  0  0  0  0  0  0  0  0
   28.2087  -16.8230  -17.7178 O   0  0  0  0  0  0  0  0  0  0  0  0
   28.2852  -15.6444  -18.1466 C   0  0  0  0  0  0  0  0  0  0  0  0
   27.1671  -17.1278  -16.6970 C   0  0  0  0  0  0  0  0  0  0  0  0
   27.2832  -18.5365  -16.1874 C   0  0  1  0  0  0  0  0  0  0  0  0
   26.1256  -18.8639  -15.2502 N   0  0  0  0  0  0  0  0  0  0  0  0
   26.2590  -20.2292  -14.8584 C   0  0  0  0  0  0  0  0  0  0  0  0
   24.8310  -18.5448  -15.8630 O   0  0  0  0  0  0  0  0  0  0  0  0
   24.2869  -19.2189  -16.7669 N   0  0  0  0  0  0  0  0  0  0  0  0
   20.6000  -11.7692  -16.1743 C   0  0  0  0  0  0  0  0  0  0  0  0
   19.3695  -12.4829  -16.3645 N   0  0  0  0  0  0  0  0  0  0  0  0
   18.4545  -11.9514  -17.0544 N   0  0  0  0  0  0  0  0  0  0  0  0
   19.1590  -13.7588  -15.8061 C   0  0  0  0  0  0  0  0  0  0  0  0
   20.0663  -14.5559  -15.0899 C   0  0  0  0  0  0  0  0  0  0  0  0
   20.7444  -15.6704  -15.8344 C   0  0  0  0  0  0  0  0  0  0  0  0
   22.0961  -16.0008  -15.1591 C   0  0  1  0  0  0  0  0  0  0  0  0
   22.8346  -17.0394  -15.9498 N   0  0  0  0  0  0  0  0  0  0  0  0
   24.1144  -17.3902  -15.4213 C   0  0  0  0  0  0  0  0  0  0  0  0
   22.9107  -16.6504  -17.3935 O   0  0  0  0  0  0  0  0  0  0  0  0
   22.1761  -17.1530  -18.2780 O   0  0  0  0  0  0  0  0  0  0  0  0
  2  3  2  0
  2  1  1  0
  4  2  1  0
  5  6  1  0
  5  4  1  0
  6  7  1  0
  7  8  1  0
  8 10  1  0
  8  9  1  1
 10 18  1  0
 11 10  2  0
 13 12  1  0
 13 14  2  0
 15 13  1  0
 16 15  1  0
 17 16  1  1
 18 17  1  0
 19 20  2  0
 19 17  1  0
 22 21  1  0
 23 22  2  0
 24 22  1  0
 25 24  1  0
 26 27  1  0
 26 25  1  0
 28 27  1  1
 28 30  1  0
 28 29  1  0
 29 19  1  0
 30 32  1  0
 31 30  2  0
M  END
$$$$
