RQR.pdb
     RDKit          3D

 32 31  0  0  1  0  0  0  0  0999 V2000
   24.1502  -23.6296  -19.5056 N   0  0  0  0  0  0  0  0  0  0  0  0
   24.1209  -22.2604  -19.8916 C   0  0  0  0  0  0  0  0  0  0  0  0
   23.2039  -21.8497  -20.7285 N   0  0  0  0  0  0  0  0  0  0  0  0
   25.0722  -21.3334  -19.3839 N   0  0  0  0  0  0  0  0  0  0  0  0
   25.5781  -21.4608  -18.0508 C   0  0  0  0  0  0  0  0  0  0  0  0
   27.0725  -21.6210  -17.9575 C   0  0  0  0  0  0  0  0  0  0  0  0
   27.5897  -21.9228  -16.5933 C   0  0  0  0  0  0  0  0  0  0  0  0
   27.0097  -20.9699  -15.5569 C   0  0  2  0  0  0  0  0  0  0  0  0
   28.0684  -20.3950  -14.7764 N   0  0  0  0  0  0  0  0  0  0  0  0
   26.0340  -21.7411  -14.7290 C   0  0  0  0  0  0  0  0  0  0  0  0
   25.7589  -22.9063  -15.1015 O   0  0  0  0  0  0  0  0  0  0  0  0
   23.1949  -20.8795  -21.0888 N   0  0  0  0  0  0  0  0  0  0  0  0
   25.2438  -21.2796   -8.7319 C   0  0  0  0  0  0  0  0  0  0  0  0
   25.3095  -20.1879   -9.6396 O   0  0  0  0  0  0  0  0  0  0  0  0
   25.5404  -19.0119   -9.2618 C   0  0  0  0  0  0  0  0  0  0  0  0
   25.0996  -20.4244  -11.0956 C   0  0  0  0  0  0  0  0  0  0  0  0
   24.6947  -21.8438  -11.3758 C   0  0  1  0  0  0  0  0  0  0  0  0
   24.4516  -22.0468  -12.8676 N   0  0  0  0  0  0  0  0  0  0  0  0
   25.4088  -21.2585  -13.5730 C   0  0  0  0  0  0  0  0  0  0  0  0
   23.0595  -21.7567  -13.2297 O   0  0  0  0  0  0  0  0  0  0  0  0
   22.6532  -20.6563  -13.6672 N   0  0  0  0  0  0  0  0  0  0  0  0
   16.4671  -25.8027  -16.8054 C   0  0  0  0  0  0  0  0  0  0  0  0
   15.8708  -24.7023  -16.1030 N   0  0  0  0  0  0  0  0  0  0  0  0
   14.7070  -24.3306  -16.4238 N   0  0  0  0  0  0  0  0  0  0  0  0
   16.5474  -24.0315  -15.0657 C   0  0  0  0  0  0  0  0  0  0  0  0
   17.8462  -24.2597  -14.5834 C   0  0  0  0  0  0  0  0  0  0  0  0
   18.3333  -23.3805  -13.4672 C   0  0  0  0  0  0  0  0  0  0  0  0
   19.8006  -23.7338  -13.1286 C   0  0  2  0  0  0  0  0  0  0  0  0
   20.6893  -22.5476  -13.3575 N   0  0  0  0  0  0  0  0  0  0  0  0
   22.0721  -22.7793  -13.0845 C   0  0  0  0  0  0  0  0  0  0  0  0
   20.1671  -21.3471  -12.6315 O   0  0  0  0  0  0  0  0  0  0  0  0
   20.4446  -21.0965  -11.4336 O   0  0  0  0  0  0  0  0  0  0  0  0
  2  3  2  0
  2  1  1  0
  4  2  1  0
  5  6  1  0
  5  4  1  0
  6  7  1  0
  7  8  1  0
  8 10  1  0
  8  9  1  1
 10 18  1  0
 11 10  2  0
 13 12  1  0
 13 14  2  0
 15 13  1  0
 16 15  1  0
 17 16  1  1
 18 17  1  0
 19 20  2  0
 19 17  1  0
 22 21  1  0
 23 22  2  0
 24 22  1  0
 25 24  1  0
 26 27  1  0
 26 25  1  0
 28 27  1  6
 28 30  1  0
 28 29  1  0
 29 19  1  0
 30 32  1  0
 31 30  2  0
M  END
$$$$
