RQR.pdb
     RDKit          3D

 32 31  0  0  1  0  0  0  0  0999 V2000
   28.4635  -25.7146  -18.1475 N   0  0  0  0  0  0  0  0  0  0  0  0
   27.2423  -25.9025  -18.8533 C   0  0  0  0  0  0  0  0  0  0  0  0
   27.2746  -26.3411  -20.0848 N   0  0  0  0  0  0  0  0  0  0  0  0
   25.9896  -25.6201  -18.2424 N   0  0  0  0  0  0  0  0  0  0  0  0
   25.8080  -24.4347  -17.4606 C   0  0  0  0  0  0  0  0  0  0  0  0
   26.5133  -24.4442  -16.1302 C   0  0  0  0  0  0  0  0  0  0  0  0
   26.2231  -23.2739  -15.2551 C   0  0  0  0  0  0  0  0  0  0  0  0
   26.3513  -21.9638  -16.0206 C   0  0  2  0  0  0  0  0  0  0  0  0
   27.6664  -21.4184  -15.8372 N   0  0  0  0  0  0  0  0  0  0  0  0
   25.2734  -21.0496  -15.5364 C   0  0  0  0  0  0  0  0  0  0  0  0
   25.2139  -20.8336  -14.3027 O   0  0  0  0  0  0  0  0  0  0  0  0
   26.4062  -26.5368  -20.6129 N   0  0  0  0  0  0  0  0  0  0  0  0
   22.4921  -15.8527  -16.4487 C   0  0  0  0  0  0  0  0  0  0  0  0
   23.7963  -16.2578  -16.8422 O   0  0  0  0  0  0  0  0  0  0  0  0
   24.7191  -15.4336  -17.0615 C   0  0  0  0  0  0  0  0  0  0  0  0
   24.1014  -17.7069  -17.0068 C   0  0  0  0  0  0  0  0  0  0  0  0
   22.8916  -18.5618  -16.7565 C   0  0  2  0  0  0  0  0  0  0  0  0
   23.2299  -19.7018  -15.8016 N   0  0  0  0  0  0  0  0  0  0  0  0
   24.3304  -20.4196  -16.3574 C   0  0  0  0  0  0  0  0  0  0  0  0
   22.0554  -20.5362  -15.5231 O   0  0  0  0  0  0  0  0  0  0  0  0
   21.6624  -21.4761  -16.2508 N   0  0  0  0  0  0  0  0  0  0  0  0
   16.9826  -26.0561  -11.3302 C   0  0  0  0  0  0  0  0  0  0  0  0
   18.3016  -26.2532  -11.8604 N   0  0  0  0  0  0  0  0  0  0  0  0
   18.6818  -27.4263  -12.1339 N   0  0  0  0  0  0  0  0  0  0  0  0
   19.1782  -25.1741  -12.0863 C   0  0  0  0  0  0  0  0  0  0  0  0
   19.0069  -23.8254  -11.7352 C   0  0  0  0  0  0  0  0  0  0  0  0
   18.8804  -22.8309  -12.8537 C   0  0  0  0  0  0  0  0  0  0  0  0
   20.2263  -22.0947  -13.0506 C   0  0  2  0  0  0  0  0  0  0  0  0
   20.0778  -20.9967  -14.0615 N   0  0  0  0  0  0  0  0  0  0  0  0
   21.2828  -20.2852  -14.3476 C   0  0  0  0  0  0  0  0  0  0  0  0
   18.9588  -20.0770  -13.6832 O   0  0  0  0  0  0  0  0  0  0  0  0
   19.1305  -18.8630  -13.4159 O   0  0  0  0  0  0  0  0  0  0  0  0
  2  3  2  0
  2  1  1  0
  4  2  1  0
  5  6  1  0
  5  4  1  0
  6  7  1  0
  7  8  1  0
  8 10  1  0
  8  9  1  1
 10 18  1  0
 11 10  2  0
 13 12  1  0
 13 14  2  0
 15 13  1  0
 16 15  1  0
 17 16  1  1
 18 17  1  0
 19 20  2  0
 19 17  1  0
 22 21  1  0
 23 22  2  0
 24 22  1  0
 25 24  1  0
 26 27  1  0
 26 25  1  0
 28 27  1  6
 28 30  1  0
 28 29  1  0
 29 19  1  0
 30 32  1  0
 31 30  2  0
M  END
$$$$
