RQR.pdb
     RDKit          3D

 32 31  0  0  1  0  0  0  0  0999 V2000
   30.6220  -19.3113  -19.3954 N   0  0  0  0  0  0  0  0  0  0  0  0
   30.2923  -20.6868  -19.2407 C   0  0  0  0  0  0  0  0  0  0  0  0
   31.0990  -21.5973  -19.7208 N   0  0  0  0  0  0  0  0  0  0  0  0
   29.1010  -21.0865  -18.5750 N   0  0  0  0  0  0  0  0  0  0  0  0
   28.0583  -20.1417  -18.3116 C   0  0  0  0  0  0  0  0  0  0  0  0
   27.9500  -19.7087  -16.8735 C   0  0  0  0  0  0  0  0  0  0  0  0
   26.7236  -20.1733  -16.1664 C   0  0  0  0  0  0  0  0  0  0  0  0
   27.0189  -21.3696  -15.2718 C   0  0  2  0  0  0  0  0  0  0  0  0
   27.2017  -22.5455  -16.0746 N   0  0  0  0  0  0  0  0  0  0  0  0
   25.8887  -21.5003  -14.3035 C   0  0  0  0  0  0  0  0  0  0  0  0
   24.9462  -22.2644  -14.6199 O   0  0  0  0  0  0  0  0  0  0  0  0
   30.8997  -22.6073  -19.6151 N   0  0  0  0  0  0  0  0  0  0  0  0
   25.9133  -19.9935   -8.2670 C   0  0  0  0  0  0  0  0  0  0  0  0
   26.7663  -20.8144   -9.0535 O   0  0  0  0  0  0  0  0  0  0  0  0
   27.8652  -21.2477   -8.6249 C   0  0  0  0  0  0  0  0  0  0  0  0
   26.3622  -21.1860  -10.4386 C   0  0  0  0  0  0  0  0  0  0  0  0
   25.0615  -20.5438  -10.8296 C   0  0  2  0  0  0  0  0  0  0  0  0
   24.6586  -20.9652  -12.2388 N   0  0  0  0  0  0  0  0  0  0  0  0
   25.8075  -20.8348  -13.0745 C   0  0  0  0  0  0  0  0  0  0  0  0
   23.4908  -20.2129  -12.7116 O   0  0  0  0  0  0  0  0  0  0  0  0
   23.5489  -19.1445  -13.3617 N   0  0  0  0  0  0  0  0  0  0  0  0
   22.5018  -19.4707  -18.0351 C   0  0  0  0  0  0  0  0  0  0  0  0
   21.1586  -19.5244  -18.5377 N   0  0  0  0  0  0  0  0  0  0  0  0
   20.8024  -18.6946  -19.4209 N   0  0  0  0  0  0  0  0  0  0  0  0
   20.2320  -20.4789  -18.0749 C   0  0  0  0  0  0  0  0  0  0  0  0
   20.3582  -21.3589  -16.9880 C   0  0  0  0  0  0  0  0  0  0  0  0
   20.1048  -20.8029  -15.6158 C   0  0  0  0  0  0  0  0  0  0  0  0
   21.3265  -21.0791  -14.7084 C   0  0  2  0  0  0  0  0  0  0  0  0
   21.0883  -20.5337  -13.3318 N   0  0  0  0  0  0  0  0  0  0  0  0
   22.1801  -20.7057  -12.4270 C   0  0  0  0  0  0  0  0  0  0  0  0
   19.8045  -21.0594  -12.7691 O   0  0  0  0  0  0  0  0  0  0  0  0
   18.6987  -20.4908  -12.9379 O   0  0  0  0  0  0  0  0  0  0  0  0
  2  3  2  0
  2  1  1  0
  4  2  1  0
  5  6  1  0
  5  4  1  0
  6  7  1  0
  7  8  1  0
  8 10  1  0
  8  9  1  6
 10 18  1  0
 11 10  2  0
 13 12  1  0
 13 14  2  0
 15 13  1  0
 16 15  1  0
 17 16  1  1
 18 17  1  0
 19 20  2  0
 19 17  1  0
 22 21  1  0
 23 22  2  0
 24 22  1  0
 25 24  1  0
 26 27  1  0
 26 25  1  0
 28 27  1  6
 28 30  1  0
 28 29  1  0
 29 19  1  0
 30 32  1  0
 31 30  2  0
M  END
$$$$
