RQR.pdb
     RDKit          3D

 32 31  0  0  1  0  0  0  0  0999 V2000
   17.3344  -25.5126  -13.5607 N   0  0  0  0  0  0  0  0  0  0  0  0
   16.1438  -24.8401  -13.1671 C   0  0  0  0  0  0  0  0  0  0  0  0
   15.0158  -25.5006  -13.1328 N   0  0  0  0  0  0  0  0  0  0  0  0
   16.1607  -23.4630  -12.8125 N   0  0  0  0  0  0  0  0  0  0  0  0
   17.3184  -22.6582  -13.0605 C   0  0  0  0  0  0  0  0  0  0  0  0
   17.2910  -21.9004  -14.3614 C   0  0  0  0  0  0  0  0  0  0  0  0
   18.5050  -21.0829  -14.6398 C   0  0  0  0  0  0  0  0  0  0  0  0
   19.6256  -21.4025  -13.6596 C   0  0  2  0  0  0  0  0  0  0  0  0
   19.3271  -20.8343  -12.3755 N   0  0  0  0  0  0  0  0  0  0  0  0
   20.8985  -20.8798  -14.2414 C   0  0  0  0  0  0  0  0  0  0  0  0
   21.1600  -19.6676  -14.0565 O   0  0  0  0  0  0  0  0  0  0  0  0
   14.1325  -25.0491  -12.8376 N   0  0  0  0  0  0  0  0  0  0  0  0
   25.9035  -24.1082  -16.3307 C   0  0  0  0  0  0  0  0  0  0  0  0
   26.3044  -22.7511  -16.4626 O   0  0  0  0  0  0  0  0  0  0  0  0
   27.4517  -22.4239  -16.8569 C   0  0  0  0  0  0  0  0  0  0  0  0
   25.3453  -21.6616  -16.1260 C   0  0  0  0  0  0  0  0  0  0  0  0
   23.9870  -22.2034  -15.7812 C   0  0  2  0  0  0  0  0  0  0  0  0
   23.0166  -21.0653  -15.4831 N   0  0  0  0  0  0  0  0  0  0  0  0
   21.8156  -21.6430  -14.9740 C   0  0  0  0  0  0  0  0  0  0  0  0
   22.8136  -20.2104  -16.6583 O   0  0  0  0  0  0  0  0  0  0  0  0
   22.2700  -20.5826  -17.7230 N   0  0  0  0  0  0  0  0  0  0  0  0
   21.8233  -20.3465  -23.9472 C   0  0  0  0  0  0  0  0  0  0  0  0
   23.1402  -19.8290  -23.7076 N   0  0  0  0  0  0  0  0  0  0  0  0
   24.0042  -19.9066  -24.6258 N   0  0  0  0  0  0  0  0  0  0  0  0
   23.4909  -19.2351  -22.4795 C   0  0  0  0  0  0  0  0  0  0  0  0
   22.7147  -19.1206  -21.3150 C   0  0  0  0  0  0  0  0  0  0  0  0
   23.3690  -18.5174  -20.1050 C   0  0  0  0  0  0  0  0  0  0  0  0
   22.3904  -18.5607  -18.9080 C   0  0  2  0  0  0  0  0  0  0  0  0
   23.0210  -17.9431  -17.6955 N   0  0  0  0  0  0  0  0  0  0  0  0
   23.2560  -18.8522  -16.6192 C   0  0  0  0  0  0  0  0  0  0  0  0
   22.2506  -16.7377  -17.2543 O   0  0  0  0  0  0  0  0  0  0  0  0
   21.9623  -16.5103  -16.0543 O   0  0  0  0  0  0  0  0  0  0  0  0
  2  3  2  0
  2  1  1  0
  4  2  1  0
  5  6  1  0
  5  4  1  0
  6  7  1  0
  7  8  1  0
  8 10  1  0
  8  9  1  1
 10 18  1  0
 11 10  2  0
 13 12  1  0
 13 14  2  0
 15 13  1  0
 16 15  1  0
 17 16  1  1
 18 17  1  0
 19 20  2  0
 19 17  1  0
 22 21  1  0
 23 22  2  0
 24 22  1  0
 25 24  1  0
 26 27  1  0
 26 25  1  0
 28 27  1  6
 28 30  1  0
 28 29  1  0
 29 19  1  0
 30 32  1  0
 31 30  2  0
M  END
$$$$
