RQR.pdb
     RDKit          3D

 32 31  0  0  1  0  0  0  0  0999 V2000
   29.3749  -17.0353  -20.2649 N   0  0  0  0  0  0  0  0  0  0  0  0
   29.4421  -18.0564  -19.2762 C   0  0  0  0  0  0  0  0  0  0  0  0
   30.1664  -19.1214  -19.5026 N   0  0  0  0  0  0  0  0  0  0  0  0
   28.7342  -17.9381  -18.0486 N   0  0  0  0  0  0  0  0  0  0  0  0
   27.5094  -18.6491  -17.8393 C   0  0  0  0  0  0  0  0  0  0  0  0
   26.9030  -18.4692  -16.4728 C   0  0  0  0  0  0  0  0  0  0  0  0
   25.6072  -19.1733  -16.2610 C   0  0  0  0  0  0  0  0  0  0  0  0
   25.7891  -20.6851  -16.2733 C   0  0  2  0  0  0  0  0  0  0  0  0
   26.7998  -21.0469  -17.2263 N   0  0  0  0  0  0  0  0  0  0  0  0
   24.4612  -21.2981  -16.5778 C   0  0  0  0  0  0  0  0  0  0  0  0
   24.1663  -21.4603  -17.7857 O   0  0  0  0  0  0  0  0  0  0  0  0
   30.1559  -19.9306  -18.8574 N   0  0  0  0  0  0  0  0  0  0  0  0
   25.5559  -26.1261  -16.5968 C   0  0  0  0  0  0  0  0  0  0  0  0
   24.1938  -26.4586  -16.3642 O   0  0  0  0  0  0  0  0  0  0  0  0
   23.7773  -27.6439  -16.3877 C   0  0  0  0  0  0  0  0  0  0  0  0
   23.2077  -25.3781  -16.0810 C   0  0  0  0  0  0  0  0  0  0  0  0
   23.8689  -24.0321  -15.9888 C   0  0  1  0  0  0  0  0  0  0  0  0
   22.8319  -22.9423  -15.7383 N   0  0  0  0  0  0  0  0  0  0  0  0
   23.5278  -21.7029  -15.6160 C   0  0  0  0  0  0  0  0  0  0  0  0
   21.9823  -23.2635  -14.5858 O   0  0  0  0  0  0  0  0  0  0  0  0
   22.3900  -23.3556  -13.4057 N   0  0  0  0  0  0  0  0  0  0  0  0
   18.9106  -24.2071   -6.9207 C   0  0  0  0  0  0  0  0  0  0  0  0
   18.7811  -25.1120   -8.0271 N   0  0  0  0  0  0  0  0  0  0  0  0
   18.8369  -26.3552   -7.8102 N   0  0  0  0  0  0  0  0  0  0  0  0
   18.5899  -24.6499   -9.3438 C   0  0  0  0  0  0  0  0  0  0  0  0
   19.2763  -23.6251  -10.0149 C   0  0  0  0  0  0  0  0  0  0  0  0
   18.8411  -23.3045  -11.4163 C   0  0  0  0  0  0  0  0  0  0  0  0
   20.0242  -23.5151  -12.3900 C   0  0  2  0  0  0  0  0  0  0  0  0
   19.6105  -23.1853  -13.7934 N   0  0  0  0  0  0  0  0  0  0  0  0
   20.5868  -23.4941  -14.7891 C   0  0  0  0  0  0  0  0  0  0  0  0
   19.1419  -21.7665  -13.8873 O   0  0  0  0  0  0  0  0  0  0  0  0
   19.8987  -20.7818  -13.7078 O   0  0  0  0  0  0  0  0  0  0  0  0
  2  3  2  0
  2  1  1  0
  4  2  1  0
  5  6  1  0
  5  4  1  0
  6  7  1  0
  7  8  1  0
  8 10  1  0
  8  9  1  6
 10 18  1  0
 11 10  2  0
 13 12  1  0
 13 14  2  0
 15 13  1  0
 16 15  1  0
 17 16  1  6
 18 17  1  0
 19 20  2  0
 19 17  1  0
 22 21  1  0
 23 22  2  0
 24 22  1  0
 25 24  1  0
 26 27  1  0
 26 25  1  0
 28 27  1  6
 28 30  1  0
 28 29  1  0
 29 19  1  0
 30 32  1  0
 31 30  2  0
M  END
$$$$
