LNH.pdb
     RDKit          3D

 27 27  0  0  1  0  0  0  0  0999 V2000
    6.9035  -12.4906   18.7397 C   0  0  0  0  0  0  0  0  0  0  0  0
    7.7612  -13.5647   19.3212 C   0  0  1  0  0  0  0  0  0  0  0  0
    9.2251  -13.1815   19.0530 C   0  0  0  0  0  0  0  0  0  0  0  0
    7.6328  -13.7432   20.8049 C   0  0  0  0  0  0  0  0  0  0  0  0
    8.5175  -14.8906   21.2309 C   0  0  2  0  0  0  0  0  0  0  0  0
    8.0359  -16.0657   20.4896 N   0  0  0  0  0  0  0  0  0  0  0  0
    8.3613  -15.2053   22.6728 C   0  0  0  0  0  0  0  0  0  0  0  0
    8.3209  -14.2735   23.5051 O   0  0  0  0  0  0  0  0  0  0  0  0
    7.6004  -17.9845   27.0694 N   0  0  0  0  0  0  0  0  0  0  0  0
    6.9362  -18.5677   25.9270 C   0  0  0  0  0  0  0  0  0  0  0  0
    6.1646  -19.5292   26.1568 O   0  0  0  0  0  0  0  0  0  0  0  0
    7.1659  -18.0396   24.5624 C   0  0  0  0  0  0  0  0  0  0  0  0
    8.1773  -16.9027   24.5310 C   0  0  2  0  0  0  0  0  0  0  0  0
    8.2595  -16.5392   23.1004 N   0  0  0  0  0  0  0  0  0  0  0  0
    9.4784  -17.3394   25.0196 C   0  0  0  0  0  0  0  0  0  0  0  0
    9.7265  -17.1498   26.2639 O   0  0  0  0  0  0  0  0  0  0  0  0
   10.4477  -17.9475   24.2052 N   0  0  0  0  0  0  0  0  0  0  0  0
   11.7791  -18.2152   24.8014 C   0  0  1  0  0  0  0  0  0  0  0  0
   12.5003  -16.9179   24.7065 C   0  0  0  0  0  0  0  0  0  0  0  0
   12.6836  -16.3701   23.3608 C   0  0  0  0  0  0  0  0  0  0  0  0
   12.2223  -16.8296   22.1545 C   0  0  0  0  0  0  0  0  0  0  0  0
   12.5992  -15.9355   21.1980 N   0  0  0  0  0  0  0  0  0  0  0  0
   13.2797  -14.9410   21.7940 C   0  0  0  0  0  0  0  0  0  0  0  0
   13.3306  -15.2006   23.0896 N   0  0  0  0  0  0  0  0  0  0  0  0
   11.4790  -18.6043   26.2107 C   0  0  0  0  0  0  0  0  0  0  0  0
   12.4478  -18.9628   27.0979 O   0  0  0  0  0  0  0  0  0  0  0  0
   10.2968  -18.6038   26.6074 O   0  0  0  0  0  0  0  0  0  0  0  0
  2  1  1  1
  2  4  1  0
  2  3  1  0
  4  5  1  0
  5  7  1  0
  5  6  1  6
  7  8  2  0
  9 10  1  0
 10 12  1  0
 11 10  2  0
 13 12  1  6
 14 13  1  0
 14  7  1  0
 15 13  1  0
 16 15  2  0
 17 15  1  0
 18 19  1  1
 18 17  1  0
 20 19  1  0
 21 20  2  0
 22 21  1  0
 23 22  1  0
 23 24  2  0
 24 20  1  0
 25 26  1  0
 25 18  1  0
 27 25  2  0
M  END
$$$$
