LNH.pdb
     RDKit          3D

 27 27  0  0  1  0  0  0  0  0999 V2000
    7.6978  -11.9861   18.7766 C   0  0  0  0  0  0  0  0  0  0  0  0
    7.6943  -13.3928   19.2752 C   0  0  1  0  0  0  0  0  0  0  0  0
    8.3417  -14.2680   18.1905 C   0  0  0  0  0  0  0  0  0  0  0  0
    8.4812  -13.6206   20.5318 C   0  0  0  0  0  0  0  0  0  0  0  0
    8.3178  -15.0630   20.9482 C   0  0  2  0  0  0  0  0  0  0  0  0
    6.9327  -15.1888   21.4258 N   0  0  0  0  0  0  0  0  0  0  0  0
    9.1948  -15.4121   22.0934 C   0  0  0  0  0  0  0  0  0  0  0  0
    8.9294  -14.9651   23.2303 O   0  0  0  0  0  0  0  0  0  0  0  0
   12.6563  -17.5802   25.2171 N   0  0  0  0  0  0  0  0  0  0  0  0
   11.5437  -18.3493   24.7103 C   0  0  0  0  0  0  0  0  0  0  0  0
   11.2740  -19.4132   25.3171 O   0  0  0  0  0  0  0  0  0  0  0  0
   10.7713  -17.8854   23.5346 C   0  0  0  0  0  0  0  0  0  0  0  0
   11.2591  -16.5476   22.9973 C   0  0  2  0  0  0  0  0  0  0  0  0
   10.3146  -16.2381   21.9030 N   0  0  0  0  0  0  0  0  0  0  0  0
   12.6179  -16.6490   22.4819 C   0  0  0  0  0  0  0  0  0  0  0  0
   12.8451  -17.5685   21.6165 O   0  0  0  0  0  0  0  0  0  0  0  0
   13.6633  -15.8004   22.8810 N   0  0  0  0  0  0  0  0  0  0  0  0
   15.0075  -16.0442   22.3036 C   0  0  1  0  0  0  0  0  0  0  0  0
   15.3395  -14.7867   21.5822 C   0  0  0  0  0  0  0  0  0  0  0  0
   15.0489  -14.7616   20.1470 C   0  0  0  0  0  0  0  0  0  0  0  0
   14.4531  -15.7079   19.3543 C   0  0  0  0  0  0  0  0  0  0  0  0
   14.3444  -15.1894   18.0990 N   0  0  0  0  0  0  0  0  0  0  0  0
   14.8604  -13.9480   18.1086 C   0  0  0  0  0  0  0  0  0  0  0  0
   15.2826  -13.6910   19.3351 N   0  0  0  0  0  0  0  0  0  0  0  0
   15.8815  -16.2732   23.4916 C   0  0  0  0  0  0  0  0  0  0  0  0
   17.1701  -16.7008   23.3864 O   0  0  0  0  0  0  0  0  0  0  0  0
   15.4276  -16.0667   24.6345 O   0  0  0  0  0  0  0  0  0  0  0  0
  2  1  1  6
  2  4  1  0
  2  3  1  0
  4  5  1  0
  5  7  1  0
  5  6  1  1
  7  8  2  0
  9 10  1  0
 10 12  1  0
 11 10  2  0
 13 12  1  6
 14 13  1  0
 14  7  1  0
 15 13  1  0
 16 15  2  0
 17 15  1  0
 18 19  1  1
 18 17  1  0
 20 19  1  0
 21 20  2  0
 22 21  1  0
 23 22  1  0
 23 24  2  0
 24 20  1  0
 25 26  1  0
 25 18  1  0
 27 25  2  0
M  END
$$$$
