LNH.pdb
     RDKit          3D

 27 27  0  0  1  0  0  0  0  0999 V2000
    6.8778  -13.0047   19.9209 C   0  0  0  0  0  0  0  0  0  0  0  0
    7.7707  -13.9261   20.6834 C   0  0  1  0  0  0  0  0  0  0  0  0
    8.9818  -13.1073   21.1570 C   0  0  0  0  0  0  0  0  0  0  0  0
    7.1571  -14.5286   21.9124 C   0  0  0  0  0  0  0  0  0  0  0  0
    8.1763  -15.4298   22.5679 C   0  0  2  0  0  0  0  0  0  0  0  0
    8.7672  -16.2249   21.4811 N   0  0  0  0  0  0  0  0  0  0  0  0
    7.5442  -16.3933   23.5031 C   0  0  0  0  0  0  0  0  0  0  0  0
    6.8076  -15.9684   24.4194 O   0  0  0  0  0  0  0  0  0  0  0  0
    4.6066  -21.2006   23.7300 N   0  0  0  0  0  0  0  0  0  0  0  0
    6.0164  -20.9972   23.9694 C   0  0  0  0  0  0  0  0  0  0  0  0
    6.5706  -21.7907   24.7668 O   0  0  0  0  0  0  0  0  0  0  0  0
    6.7523  -19.9032   23.2943 C   0  0  0  0  0  0  0  0  0  0  0  0
    7.1249  -18.7701   24.2396 C   0  0  2  0  0  0  0  0  0  0  0  0
    7.7710  -17.7720   23.3612 N   0  0  0  0  0  0  0  0  0  0  0  0
    8.0556  -19.2221   25.2652 C   0  0  0  0  0  0  0  0  0  0  0  0
    7.6002  -20.0353   26.1468 O   0  0  0  0  0  0  0  0  0  0  0  0
    9.3988  -18.8168   25.3255 N   0  0  0  0  0  0  0  0  0  0  0  0
   10.2717  -19.4709   26.3305 C   0  0  1  0  0  0  0  0  0  0  0  0
   11.6392  -19.3852   25.7522 C   0  0  0  0  0  0  0  0  0  0  0  0
   11.9361  -20.2926   24.6418 C   0  0  0  0  0  0  0  0  0  0  0  0
   11.2753  -21.4196   24.2269 C   0  0  0  0  0  0  0  0  0  0  0  0
   11.8990  -21.8776   23.1055 N   0  0  0  0  0  0  0  0  0  0  0  0
   12.9252  -21.0549   22.8270 C   0  0  0  0  0  0  0  0  0  0  0  0
   12.9480  -20.1052   23.7469 N   0  0  0  0  0  0  0  0  0  0  0  0
   10.1122  -18.6338   27.5559 C   0  0  0  0  0  0  0  0  0  0  0  0
   10.5193  -19.0467   28.7880 O   0  0  0  0  0  0  0  0  0  0  0  0
    9.5880  -17.5061   27.4630 O   0  0  0  0  0  0  0  0  0  0  0  0
  2  1  1  1
  2  4  1  0
  2  3  1  0
  4  5  1  0
  5  7  1  0
  5  6  1  6
  7  8  2  0
  9 10  1  0
 10 12  1  0
 11 10  2  0
 13 12  1  6
 14 13  1  0
 14  7  1  0
 15 13  1  0
 16 15  2  0
 17 15  1  0
 18 19  1  6
 18 17  1  0
 20 19  1  0
 21 20  2  0
 22 21  1  0
 23 22  1  0
 23 24  2  0
 24 20  1  0
 25 26  1  0
 25 18  1  0
 27 25  2  0
M  END
$$$$
