LNH.pdb
     RDKit          3D

 27 27  0  0  1  0  0  0  0  0999 V2000
    6.8921  -12.6026   18.4682 C   0  0  0  0  0  0  0  0  0  0  0  0
    7.9112  -13.4893   19.1028 C   0  0  1  0  0  0  0  0  0  0  0  0
    9.2707  -12.7811   18.9935 C   0  0  0  0  0  0  0  0  0  0  0  0
    7.6906  -13.7645   20.5608 C   0  0  0  0  0  0  0  0  0  0  0  0
    8.8116  -14.6443   21.0604 C   0  0  2  0  0  0  0  0  0  0  0  0
    8.6929  -15.9074   20.3166 N   0  0  0  0  0  0  0  0  0  0  0  0
    8.6534  -14.9816   22.4970 C   0  0  0  0  0  0  0  0  0  0  0  0
    8.5722  -14.0618   23.3396 O   0  0  0  0  0  0  0  0  0  0  0  0
    5.6891  -17.3367   25.0383 N   0  0  0  0  0  0  0  0  0  0  0  0
    6.5492  -18.4246   24.6343 C   0  0  0  0  0  0  0  0  0  0  0  0
    6.0448  -19.5726   24.6452 O   0  0  0  0  0  0  0  0  0  0  0  0
    7.9515  -18.1747   24.2281 C   0  0  0  0  0  0  0  0  0  0  0  0
    8.3386  -16.7052   24.3130 C   0  0  2  0  0  0  0  0  0  0  0  0
    8.5953  -16.3232   22.9081 N   0  0  0  0  0  0  0  0  0  0  0  0
    9.5394  -16.5207   25.1169 C   0  0  0  0  0  0  0  0  0  0  0  0
    9.7693  -15.3377   25.5568 O   0  0  0  0  0  0  0  0  0  0  0  0
   10.4325  -17.5597   25.4255 N   0  0  0  0  0  0  0  0  0  0  0  0
   11.5319  -17.2640   26.3760 C   0  0  1  0  0  0  0  0  0  0  0  0
   10.8674  -17.1804   27.7039 C   0  0  0  0  0  0  0  0  0  0  0  0
   10.3144  -15.8764   28.0760 C   0  0  0  0  0  0  0  0  0  0  0  0
   10.1804  -14.7337   27.3309 C   0  0  0  0  0  0  0  0  0  0  0  0
    9.5436  -13.8078   28.1015 N   0  0  0  0  0  0  0  0  0  0  0  0
    9.2860  -14.3605   29.2996 C   0  0  0  0  0  0  0  0  0  0  0  0
    9.7475  -15.5997   29.2851 N   0  0  0  0  0  0  0  0  0  0  0  0
   12.4426  -18.4410   26.2619 C   0  0  0  0  0  0  0  0  0  0  0  0
   13.6987  -18.4539   26.7876 O   0  0  0  0  0  0  0  0  0  0  0  0
   12.0501  -19.4632   25.6652 O   0  0  0  0  0  0  0  0  0  0  0  0
  2  1  1  1
  2  4  1  0
  2  3  1  0
  4  5  1  0
  5  7  1  0
  5  6  1  6
  7  8  2  0
  9 10  1  0
 10 12  1  0
 11 10  2  0
 13 12  1  6
 14 13  1  0
 14  7  1  0
 15 13  1  0
 16 15  2  0
 17 15  1  0
 18 19  1  1
 18 17  1  0
 20 19  1  0
 21 20  2  0
 22 21  1  0
 23 22  1  0
 23 24  2  0
 24 20  1  0
 25 26  1  0
 25 18  1  0
 27 25  2  0
M  END
$$$$
