LNH.pdb
     RDKit          3D

 27 27  0  0  1  0  0  0  0  0999 V2000
    6.8821  -12.5135   18.7821 C   0  0  0  0  0  0  0  0  0  0  0  0
    7.8998  -13.2545   19.5837 C   0  0  1  0  0  0  0  0  0  0  0  0
    8.3067  -12.3524   20.7594 C   0  0  0  0  0  0  0  0  0  0  0  0
    7.4181  -14.5427   20.1825 C   0  0  0  0  0  0  0  0  0  0  0  0
    8.5380  -15.1439   20.9979 C   0  0  2  0  0  0  0  0  0  0  0  0
    9.6567  -14.1938   20.9058 N   0  0  0  0  0  0  0  0  0  0  0  0
    9.0194  -16.4233   20.4200 C   0  0  0  0  0  0  0  0  0  0  0  0
    8.2989  -17.4421   20.4951 O   0  0  0  0  0  0  0  0  0  0  0  0
    9.3898  -16.2055   16.4190 N   0  0  0  0  0  0  0  0  0  0  0  0
    9.6857  -17.4138   17.1529 C   0  0  0  0  0  0  0  0  0  0  0  0
    8.7876  -18.2886   17.1796 O   0  0  0  0  0  0  0  0  0  0  0  0
   10.9913  -17.5922   17.8294 C   0  0  0  0  0  0  0  0  0  0  0  0
   10.8576  -17.7694   19.3351 C   0  0  2  0  0  0  0  0  0  0  0  0
   10.2745  -16.4905   19.7934 N   0  0  0  0  0  0  0  0  0  0  0  0
   12.1559  -17.9879   19.9588 C   0  0  0  0  0  0  0  0  0  0  0  0
   12.8387  -18.9921   19.5450 O   0  0  0  0  0  0  0  0  0  0  0  0
   12.6797  -17.1630   20.9675 N   0  0  0  0  0  0  0  0  0  0  0  0
   14.0327  -17.4815   21.4850 C   0  0  1  0  0  0  0  0  0  0  0  0
   14.7438  -16.1754   21.5044 C   0  0  0  0  0  0  0  0  0  0  0  0
   15.0671  -15.5891   20.2019 C   0  0  0  0  0  0  0  0  0  0  0  0
   14.7897  -16.0453   18.9394 C   0  0  0  0  0  0  0  0  0  0  0  0
   15.2359  -15.1117   18.0531 N   0  0  0  0  0  0  0  0  0  0  0  0
   15.7790  -14.0962   18.7468 C   0  0  0  0  0  0  0  0  0  0  0  0
   15.6783  -14.3815   20.0341 N   0  0  0  0  0  0  0  0  0  0  0  0
   13.7846  -18.0213   22.8541 C   0  0  0  0  0  0  0  0  0  0  0  0
   14.7867  -18.4566   23.6669 O   0  0  0  0  0  0  0  0  0  0  0  0
   12.6164  -18.0804   23.2866 O   0  0  0  0  0  0  0  0  0  0  0  0
  2  1  1  1
  2  4  1  0
  2  3  1  0
  4  5  1  0
  5  7  1  0
  5  6  1  6
  7  8  2  0
  9 10  1  0
 10 12  1  0
 11 10  2  0
 13 12  1  6
 14 13  1  0
 14  7  1  0
 15 13  1  0
 16 15  2  0
 17 15  1  0
 18 19  1  1
 18 17  1  0
 20 19  1  0
 21 20  2  0
 22 21  1  0
 23 22  1  0
 23 24  2  0
 24 20  1  0
 25 26  1  0
 25 18  1  0
 27 25  2  0
M  END
$$$$
