LNH.pdb
     RDKit          3D

 27 27  0  0  1  0  0  0  0  0999 V2000
    7.6510  -12.4383   18.6289 C   0  0  0  0  0  0  0  0  0  0  0  0
    7.8113  -13.8279   19.1493 C   0  0  1  0  0  0  0  0  0  0  0  0
    7.0654  -13.9068   20.4906 C   0  0  0  0  0  0  0  0  0  0  0  0
    7.2321  -14.9013   18.2762 C   0  0  0  0  0  0  0  0  0  0  0  0
    7.5535  -16.2448   18.8864 C   0  0  2  0  0  0  0  0  0  0  0  0
    8.1353  -15.9577   20.2061 N   0  0  0  0  0  0  0  0  0  0  0  0
    8.5923  -16.9703   18.1136 C   0  0  0  0  0  0  0  0  0  0  0  0
    8.2490  -17.7183   17.1726 O   0  0  0  0  0  0  0  0  0  0  0  0
   10.7904  -15.4413   14.9119 N   0  0  0  0  0  0  0  0  0  0  0  0
   11.2892  -16.6508   15.5239 C   0  0  0  0  0  0  0  0  0  0  0  0
   11.2999  -17.6796   14.8068 O   0  0  0  0  0  0  0  0  0  0  0  0
   11.7625  -16.6535   16.9274 C   0  0  0  0  0  0  0  0  0  0  0  0
   11.0055  -17.6403   17.8047 C   0  0  2  0  0  0  0  0  0  0  0  0
    9.9509  -16.8187   18.4358 N   0  0  0  0  0  0  0  0  0  0  0  0
   11.8746  -18.2188   18.8207 C   0  0  0  0  0  0  0  0  0  0  0  0
   12.6655  -17.4170   19.4352 O   0  0  0  0  0  0  0  0  0  0  0  0
   11.8803  -19.5842   19.1494 N   0  0  0  0  0  0  0  0  0  0  0  0
   12.2464  -19.9574   20.5374 C   0  0  1  0  0  0  0  0  0  0  0  0
   11.1917  -19.3373   21.3830 C   0  0  0  0  0  0  0  0  0  0  0  0
   11.5558  -18.1006   22.0779 C   0  0  0  0  0  0  0  0  0  0  0  0
   12.7372  -17.4055   22.0740 C   0  0  0  0  0  0  0  0  0  0  0  0
   12.5594  -16.2801   22.8212 N   0  0  0  0  0  0  0  0  0  0  0  0
   11.2958  -16.2733   23.2804 C   0  0  0  0  0  0  0  0  0  0  0  0
   10.6941  -17.3635   22.8355 N   0  0  0  0  0  0  0  0  0  0  0  0
   12.1861  -21.4486   20.5447 C   0  0  0  0  0  0  0  0  0  0  0  0
   11.5661  -22.1654   19.5669 O   0  0  0  0  0  0  0  0  0  0  0  0
   12.7230  -22.0785   21.4774 O   0  0  0  0  0  0  0  0  0  0  0  0
  2  1  1  6
  2  4  1  0
  2  3  1  0
  4  5  1  0
  5  7  1  0
  5  6  1  1
  7  8  2  0
  9 10  1  0
 10 12  1  0
 11 10  2  0
 13 12  1  6
 14 13  1  0
 14  7  1  0
 15 13  1  0
 16 15  2  0
 17 15  1  0
 18 19  1  1
 18 17  1  0
 20 19  1  0
 21 20  2  0
 22 21  1  0
 23 22  1  0
 23 24  2  0
 24 20  1  0
 25 26  1  0
 25 18  1  0
 27 25  2  0
M  END
$$$$
