LNH.pdb
     RDKit          3D

 27 27  0  0  1  0  0  0  0  0999 V2000
    8.0873  -13.1360   19.0671 C   0  0  0  0  0  0  0  0  0  0  0  0
    8.4461  -13.0193   20.5111 C   0  0  1  0  0  0  0  0  0  0  0  0
    8.2708  -11.5462   20.9121 C   0  0  0  0  0  0  0  0  0  0  0  0
    7.5859  -13.8196   21.4435 C   0  0  0  0  0  0  0  0  0  0  0  0
    7.8657  -15.2864   21.2182 C   0  0  2  0  0  0  0  0  0  0  0  0
    6.5752  -15.8901   20.8541 N   0  0  0  0  0  0  0  0  0  0  0  0
    8.3146  -15.9624   22.4608 C   0  0  0  0  0  0  0  0  0  0  0  0
    7.4691  -16.4976   23.2101 O   0  0  0  0  0  0  0  0  0  0  0  0
   13.6188  -18.5735   23.6349 N   0  0  0  0  0  0  0  0  0  0  0  0
   12.1948  -18.6731   23.4143 C   0  0  0  0  0  0  0  0  0  0  0  0
   11.6400  -19.7304   23.7976 O   0  0  0  0  0  0  0  0  0  0  0  0
   11.4461  -17.5694   22.7697 C   0  0  0  0  0  0  0  0  0  0  0  0
   10.2609  -17.0958   23.5988 C   0  0  2  0  0  0  0  0  0  0  0  0
    9.6785  -16.0012   22.7938 N   0  0  0  0  0  0  0  0  0  0  0  0
   10.6908  -16.5971   24.8984 C   0  0  0  0  0  0  0  0  0  0  0  0
   11.4202  -17.3774   25.6090 O   0  0  0  0  0  0  0  0  0  0  0  0
   10.3508  -15.3271   25.3922 N   0  0  0  0  0  0  0  0  0  0  0  0
    9.7556  -15.2518   26.7486 C   0  0  1  0  0  0  0  0  0  0  0  0
    8.2923  -15.3947   26.5245 C   0  0  0  0  0  0  0  0  0  0  0  0
    7.5767  -14.1903   26.0980 C   0  0  0  0  0  0  0  0  0  0  0  0
    8.0627  -12.9589   25.7422 C   0  0  0  0  0  0  0  0  0  0  0  0
    7.0056  -12.1910   25.3560 N   0  0  0  0  0  0  0  0  0  0  0  0
    5.8859  -12.9266   25.4680 C   0  0  0  0  0  0  0  0  0  0  0  0
    6.2272  -14.1243   25.9125 N   0  0  0  0  0  0  0  0  0  0  0  0
   10.3428  -16.4174   27.4726 C   0  0  0  0  0  0  0  0  0  0  0  0
   10.7770  -17.5386   26.8334 O   0  0  0  0  0  0  0  0  0  0  0  0
   10.4488  -16.3766   28.7144 O   0  0  0  0  0  0  0  0  0  0  0  0
  2  1  1  6
  2  4  1  0
  2  3  1  0
  4  5  1  0
  5  7  1  0
  5  6  1  1
  7  8  2  0
  9 10  1  0
 10 12  1  0
 11 10  2  0
 13 12  1  6
 14 13  1  0
 14  7  1  0
 15 13  1  0
 16 15  2  0
 17 15  1  0
 18 19  1  6
 18 17  1  0
 20 19  1  0
 21 20  2  0
 22 21  1  0
 23 22  1  0
 23 24  2  0
 24 20  1  0
 25 26  1  0
 25 18  1  0
 27 25  2  0
M  END
$$$$
