LNH.pdb
     RDKit          3D

 27 27  0  0  1  0  0  0  0  0999 V2000
    6.3393  -11.1397   25.6438 C   0  0  0  0  0  0  0  0  0  0  0  0
    7.0422  -12.3401   26.1848 C   0  0  1  0  0  0  0  0  0  0  0  0
    7.3226  -12.0784   27.6729 C   0  0  0  0  0  0  0  0  0  0  0  0
    6.2574  -13.6166   26.1175 C   0  0  0  0  0  0  0  0  0  0  0  0
    7.1785  -14.7669   26.4478 C   0  0  2  0  0  0  0  0  0  0  0  0
    8.5041  -14.1695   26.6677 N   0  0  0  0  0  0  0  0  0  0  0  0
    7.3208  -15.7078   25.3089 C   0  0  0  0  0  0  0  0  0  0  0  0
    6.3604  -16.4439   24.9953 O   0  0  0  0  0  0  0  0  0  0  0  0
    8.7202  -17.0179   20.2568 N   0  0  0  0  0  0  0  0  0  0  0  0
    9.7633  -16.7839   21.2282 C   0  0  0  0  0  0  0  0  0  0  0  0
   10.8847  -17.2873   20.9798 O   0  0  0  0  0  0  0  0  0  0  0  0
    9.5018  -15.9842   22.4472 C   0  0  0  0  0  0  0  0  0  0  0  0
    8.7470  -16.7634   23.5147 C   0  0  2  0  0  0  0  0  0  0  0  0
    8.5246  -15.7718   24.5884 N   0  0  0  0  0  0  0  0  0  0  0  0
    9.5383  -17.8811   24.0116 C   0  0  0  0  0  0  0  0  0  0  0  0
    9.7040  -18.8753   23.2180 O   0  0  0  0  0  0  0  0  0  0  0  0
   10.1158  -17.9131   25.2914 N   0  0  0  0  0  0  0  0  0  0  0  0
   10.9279  -19.1008   25.6515 C   0  0  1  0  0  0  0  0  0  0  0  0
   12.3365  -18.6646   25.4582 C   0  0  0  0  0  0  0  0  0  0  0  0
   12.9421  -18.9704   24.1603 C   0  0  0  0  0  0  0  0  0  0  0  0
   12.3870  -19.5400   23.0439 C   0  0  0  0  0  0  0  0  0  0  0  0
   13.3369  -19.5509   22.0672 N   0  0  0  0  0  0  0  0  0  0  0  0
   14.4588  -19.0004   22.5630 C   0  0  0  0  0  0  0  0  0  0  0  0
   14.2230  -18.6524   23.8167 N   0  0  0  0  0  0  0  0  0  0  0  0
   10.5955  -19.3522   27.0847 C   0  0  0  0  0  0  0  0  0  0  0  0
   11.1714  -20.3504   27.8100 O   0  0  0  0  0  0  0  0  0  0  0  0
    9.7592  -18.6247   27.6559 O   0  0  0  0  0  0  0  0  0  0  0  0
  2  1  1  1
  2  4  1  0
  2  3  1  0
  4  5  1  0
  5  7  1  0
  5  6  1  6
  7  8  2  0
  9 10  1  0
 10 12  1  0
 11 10  2  0
 13 12  1  6
 14 13  1  0
 14  7  1  0
 15 13  1  0
 16 15  2  0
 17 15  1  0
 18 19  1  1
 18 17  1  0
 20 19  1  0
 21 20  2  0
 22 21  1  0
 23 22  1  0
 23 24  2  0
 24 20  1  0
 25 26  1  0
 25 18  1  0
 27 25  2  0
M  END
$$$$
