LNH.pdb
     RDKit          3D

 27 27  0  0  1  0  0  0  0  0999 V2000
    6.5786  -12.5941   19.0948 C   0  0  0  0  0  0  0  0  0  0  0  0
    7.9201  -13.2426   19.0090 C   0  0  1  0  0  0  0  0  0  0  0  0
    8.9749  -12.1254   19.0383 C   0  0  0  0  0  0  0  0  0  0  0  0
    8.2490  -14.1685   20.1423 C   0  0  0  0  0  0  0  0  0  0  0  0
    9.6806  -14.6251   19.9920 C   0  0  2  0  0  0  0  0  0  0  0  0
    9.7712  -15.2286   18.6541 N   0  0  0  0  0  0  0  0  0  0  0  0
   10.0268  -15.6925   20.9633 C   0  0  0  0  0  0  0  0  0  0  0  0
    9.7727  -15.5269   22.1760 O   0  0  0  0  0  0  0  0  0  0  0  0
    8.7814  -19.9204   21.1340 N   0  0  0  0  0  0  0  0  0  0  0  0
    9.8179  -19.5162   20.2127 C   0  0  0  0  0  0  0  0  0  0  0  0
    9.5038  -19.4703   18.9995 O   0  0  0  0  0  0  0  0  0  0  0  0
   11.1751  -19.1741   20.6975 C   0  0  0  0  0  0  0  0  0  0  0  0
   11.2146  -17.8613   21.4665 C   0  0  2  0  0  0  0  0  0  0  0  0
   10.6354  -16.8798   20.5248 N   0  0  0  0  0  0  0  0  0  0  0  0
   12.5811  -17.4908   21.8094 C   0  0  0  0  0  0  0  0  0  0  0  0
   13.3324  -18.4147   22.2867 O   0  0  0  0  0  0  0  0  0  0  0  0
   13.0986  -16.1961   21.6403 N   0  0  0  0  0  0  0  0  0  0  0  0
   14.5355  -15.9836   21.9403 C   0  0  1  0  0  0  0  0  0  0  0  0
   14.8734  -14.7011   21.2673 C   0  0  0  0  0  0  0  0  0  0  0  0
   15.0959  -14.7619   19.8211 C   0  0  0  0  0  0  0  0  0  0  0  0
   15.0002  -15.8251   18.9611 C   0  0  0  0  0  0  0  0  0  0  0  0
   15.2347  -15.3624   17.7012 N   0  0  0  0  0  0  0  0  0  0  0  0
   15.4708  -14.0409   17.7736 C   0  0  0  0  0  0  0  0  0  0  0  0
   15.3878  -13.6805   19.0432 N   0  0  0  0  0  0  0  0  0  0  0  0
   14.5890  -15.8834   23.4285 C   0  0  0  0  0  0  0  0  0  0  0  0
   15.7578  -15.7636   24.1169 O   0  0  0  0  0  0  0  0  0  0  0  0
   13.5274  -15.9069   24.0823 O   0  0  0  0  0  0  0  0  0  0  0  0
  2  1  1  1
  2  4  1  0
  2  3  1  0
  4  5  1  0
  5  7  1  0
  5  6  1  6
  7  8  2  0
  9 10  1  0
 10 12  1  0
 11 10  2  0
 13 12  1  6
 14 13  1  0
 14  7  1  0
 15 13  1  0
 16 15  2  0
 17 15  1  0
 18 19  1  6
 18 17  1  0
 20 19  1  0
 21 20  2  0
 22 21  1  0
 23 22  1  0
 23 24  2  0
 24 20  1  0
 25 26  1  0
 25 18  1  0
 27 25  2  0
M  END
$$$$
