LNH.pdb
     RDKit          3D

 27 27  0  0  1  0  0  0  0  0999 V2000
    7.4323  -12.0606   19.3513 C   0  0  0  0  0  0  0  0  0  0  0  0
    8.2377  -13.2974   19.5731 C   0  0  1  0  0  0  0  0  0  0  0  0
    9.6969  -12.8653   19.7866 C   0  0  0  0  0  0  0  0  0  0  0  0
    7.8493  -14.0970   20.7813 C   0  0  0  0  0  0  0  0  0  0  0  0
    8.6816  -15.3567   20.8138 C   0  0  2  0  0  0  0  0  0  0  0  0
    8.2557  -16.1495   19.6507 N   0  0  0  0  0  0  0  0  0  0  0  0
    8.3957  -16.1793   22.0155 C   0  0  0  0  0  0  0  0  0  0  0  0
    7.4720  -17.0208   21.9796 O   0  0  0  0  0  0  0  0  0  0  0  0
    9.7975  -19.5786   25.4543 N   0  0  0  0  0  0  0  0  0  0  0  0
   10.3098  -19.4293   24.1120 C   0  0  0  0  0  0  0  0  0  0  0  0
   10.9639  -20.3945   23.6503 O   0  0  0  0  0  0  0  0  0  0  0  0
   10.0609  -18.1923   23.3362 C   0  0  0  0  0  0  0  0  0  0  0  0
    9.3612  -17.1141   24.1513 C   0  0  2  0  0  0  0  0  0  0  0  0
    9.1560  -16.0145   23.1848 N   0  0  0  0  0  0  0  0  0  0  0  0
   10.1931  -16.6669   25.2604 C   0  0  0  0  0  0  0  0  0  0  0  0
   10.8201  -17.5715   25.9195 O   0  0  0  0  0  0  0  0  0  0  0  0
   10.3361  -15.3187   25.6272 N   0  0  0  0  0  0  0  0  0  0  0  0
    9.9920  -14.9432   27.0201 C   0  0  1  0  0  0  0  0  0  0  0  0
    8.5056  -14.9710   27.0597 C   0  0  0  0  0  0  0  0  0  0  0  0
    7.8149  -13.8405   26.4354 C   0  0  0  0  0  0  0  0  0  0  0  0
    8.3259  -12.7639   25.7581 C   0  0  0  0  0  0  0  0  0  0  0  0
    7.2766  -12.0210   25.3070 N   0  0  0  0  0  0  0  0  0  0  0  0
    6.1372  -12.6206   25.6939 C   0  0  0  0  0  0  0  0  0  0  0  0
    6.4589  -13.7106   26.3699 N   0  0  0  0  0  0  0  0  0  0  0  0
   10.6094  -16.0168   27.8531 C   0  0  0  0  0  0  0  0  0  0  0  0
   10.7652  -15.9049   29.2013 O   0  0  0  0  0  0  0  0  0  0  0  0
   11.0017  -17.0666   27.3063 O   0  0  0  0  0  0  0  0  0  0  0  0
  2  1  1  1
  2  4  1  0
  2  3  1  0
  4  5  1  0
  5  7  1  0
  5  6  1  6
  7  8  2  0
  9 10  1  0
 10 12  1  0
 11 10  2  0
 13 12  1  6
 14 13  1  0
 14  7  1  0
 15 13  1  0
 16 15  2  0
 17 15  1  0
 18 19  1  6
 18 17  1  0
 20 19  1  0
 21 20  2  0
 22 21  1  0
 23 22  1  0
 23 24  2  0
 24 20  1  0
 25 26  1  0
 25 18  1  0
 27 25  2  0
M  END
$$$$
