LNH.pdb
     RDKit          3D

 27 27  0  0  1  0  0  0  0  0999 V2000
    7.0218  -12.2215   18.2642 C   0  0  0  0  0  0  0  0  0  0  0  0
    7.8976  -13.3790   18.6117 C   0  0  1  0  0  0  0  0  0  0  0  0
    9.3441  -12.9777   18.2830 C   0  0  0  0  0  0  0  0  0  0  0  0
    7.8831  -13.7712   20.0594 C   0  0  0  0  0  0  0  0  0  0  0  0
    8.8595  -14.9053   20.2615 C   0  0  2  0  0  0  0  0  0  0  0  0
    8.4652  -15.9501   19.3048 N   0  0  0  0  0  0  0  0  0  0  0  0
    8.7423  -15.5032   21.6148 C   0  0  0  0  0  0  0  0  0  0  0  0
    8.7960  -14.7635   22.6211 O   0  0  0  0  0  0  0  0  0  0  0  0
    5.4324  -17.8077   23.6358 N   0  0  0  0  0  0  0  0  0  0  0  0
    6.3137  -18.3349   22.6201 C   0  0  0  0  0  0  0  0  0  0  0  0
    5.8434  -18.4263   21.4612 O   0  0  0  0  0  0  0  0  0  0  0  0
    7.7001  -18.7380   22.9509 C   0  0  0  0  0  0  0  0  0  0  0  0
    8.6446  -17.5520   23.0847 C   0  0  2  0  0  0  0  0  0  0  0  0
    8.5723  -16.8892   21.7653 N   0  0  0  0  0  0  0  0  0  0  0  0
   10.0066  -17.9896   23.3593 C   0  0  0  0  0  0  0  0  0  0  0  0
   10.3322  -19.1645   22.9600 O   0  0  0  0  0  0  0  0  0  0  0  0
   10.9560  -17.1966   24.0243 N   0  0  0  0  0  0  0  0  0  0  0  0
   12.3290  -17.7393   24.1668 C   0  0  1  0  0  0  0  0  0  0  0  0
   13.2206  -16.5847   23.8772 C   0  0  0  0  0  0  0  0  0  0  0  0
   13.2314  -16.0991   22.4957 C   0  0  0  0  0  0  0  0  0  0  0  0
   12.5312  -16.5410   21.4032 C   0  0  0  0  0  0  0  0  0  0  0  0
   12.8318  -15.7207   20.3576 N   0  0  0  0  0  0  0  0  0  0  0  0
   13.6994  -14.7884   20.7881 C   0  0  0  0  0  0  0  0  0  0  0  0
   13.9392  -15.0144   22.0687 N   0  0  0  0  0  0  0  0  0  0  0  0
   12.4036  -18.1802   25.5908 C   0  0  0  0  0  0  0  0  0  0  0  0
   11.3793  -18.0045   26.4708 O   0  0  0  0  0  0  0  0  0  0  0  0
   13.4397  -18.7360   26.0061 O   0  0  0  0  0  0  0  0  0  0  0  0
  2  1  1  1
  2  4  1  0
  2  3  1  0
  4  5  1  0
  5  7  1  0
  5  6  1  6
  7  8  2  0
  9 10  1  0
 10 12  1  0
 11 10  2  0
 13 12  1  6
 14 13  1  0
 14  7  1  0
 15 13  1  0
 16 15  2  0
 17 15  1  0
 18 19  1  1
 18 17  1  0
 20 19  1  0
 21 20  2  0
 22 21  1  0
 23 22  1  0
 23 24  2  0
 24 20  1  0
 25 26  1  0
 25 18  1  0
 27 25  2  0
M  END
$$$$
