LNH.pdb
     RDKit          3D

 27 27  0  0  1  0  0  0  0  0999 V2000
    7.4576  -11.9484   19.0995 C   0  0  0  0  0  0  0  0  0  0  0  0
    7.9368  -13.3221   19.4323 C   0  0  1  0  0  0  0  0  0  0  0  0
    9.4343  -13.2206   19.7623 C   0  0  0  0  0  0  0  0  0  0  0  0
    7.2795  -13.9496   20.6257 C   0  0  0  0  0  0  0  0  0  0  0  0
    7.7238  -15.3899   20.7190 C   0  0  2  0  0  0  0  0  0  0  0  0
    6.9780  -16.1087   19.6752 N   0  0  0  0  0  0  0  0  0  0  0  0
    7.3409  -16.0054   22.0141 C   0  0  0  0  0  0  0  0  0  0  0  0
    6.1309  -16.1509   22.2923 O   0  0  0  0  0  0  0  0  0  0  0  0
    7.2348  -18.7771   26.3188 N   0  0  0  0  0  0  0  0  0  0  0  0
    6.7242  -19.0609   24.9978 C   0  0  0  0  0  0  0  0  0  0  0  0
    5.9077  -20.0080   24.9031 O   0  0  0  0  0  0  0  0  0  0  0  0
    7.1534  -18.2597   23.8282 C   0  0  0  0  0  0  0  0  0  0  0  0
    7.9938  -17.0514   24.2157 C   0  0  2  0  0  0  0  0  0  0  0  0
    8.3291  -16.4214   22.9211 N   0  0  0  0  0  0  0  0  0  0  0  0
    9.2072  -17.4538   24.9142 C   0  0  0  0  0  0  0  0  0  0  0  0
    9.9933  -18.2593   24.2985 O   0  0  0  0  0  0  0  0  0  0  0  0
    9.5456  -17.0048   26.2011 N   0  0  0  0  0  0  0  0  0  0  0  0
   10.8588  -17.4188   26.7524 C   0  0  1  0  0  0  0  0  0  0  0  0
   11.4207  -16.1798   27.3532 C   0  0  0  0  0  0  0  0  0  0  0  0
   10.4560  -15.2288   27.9097 C   0  0  0  0  0  0  0  0  0  0  0  0
    9.0959  -15.3337   28.0440 C   0  0  0  0  0  0  0  0  0  0  0  0
    8.6544  -14.2152   28.6847 N   0  0  0  0  0  0  0  0  0  0  0  0
    9.7148  -13.4308   28.9444 C   0  0  0  0  0  0  0  0  0  0  0  0
   10.7944  -14.0373   28.4804 N   0  0  0  0  0  0  0  0  0  0  0  0
   10.5188  -18.4507   27.7756 C   0  0  0  0  0  0  0  0  0  0  0  0
    9.2486  -18.8991   27.9755 O   0  0  0  0  0  0  0  0  0  0  0  0
   11.4251  -18.9334   28.4831 O   0  0  0  0  0  0  0  0  0  0  0  0
  2  1  1  1
  2  4  1  0
  2  3  1  0
  4  5  1  0
  5  7  1  0
  5  6  1  6
  7  8  2  0
  9 10  1  0
 10 12  1  0
 11 10  2  0
 13 12  1  6
 14 13  1  0
 14  7  1  0
 15 13  1  0
 16 15  2  0
 17 15  1  0
 18 19  1  1
 18 17  1  0
 20 19  1  0
 21 20  2  0
 22 21  1  0
 23 22  1  0
 23 24  2  0
 24 20  1  0
 25 26  1  0
 25 18  1  0
 27 25  2  0
M  END
$$$$
