LNH.pdb
     RDKit          3D

 27 27  0  0  1  0  0  0  0  0999 V2000
    8.4060  -12.3027   19.1872 C   0  0  0  0  0  0  0  0  0  0  0  0
    8.7142  -13.4407   20.1024 C   0  0  1  0  0  0  0  0  0  0  0  0
    7.6156  -13.4793   21.1762 C   0  0  0  0  0  0  0  0  0  0  0  0
    8.7210  -14.7921   19.4515 C   0  0  0  0  0  0  0  0  0  0  0  0
    9.3360  -15.7851   20.4087 C   0  0  2  0  0  0  0  0  0  0  0  0
    9.4467  -15.0853   21.6973 N   0  0  0  0  0  0  0  0  0  0  0  0
   10.7156  -16.1589   20.0091 C   0  0  0  0  0  0  0  0  0  0  0  0
   10.8915  -16.8692   18.9956 O   0  0  0  0  0  0  0  0  0  0  0  0
   12.6825  -13.1286   18.4830 N   0  0  0  0  0  0  0  0  0  0  0  0
   13.3487  -14.4010   18.6357 C   0  0  0  0  0  0  0  0  0  0  0  0
   13.4722  -15.0978   17.6004 O   0  0  0  0  0  0  0  0  0  0  0  0
   13.8559  -14.8402   19.9562 C   0  0  0  0  0  0  0  0  0  0  0  0
   13.2011  -16.1247   20.4437 C   0  0  2  0  0  0  0  0  0  0  0  0
   11.8159  -15.7189   20.7629 N   0  0  0  0  0  0  0  0  0  0  0  0
   13.8666  -16.6387   21.6332 C   0  0  0  0  0  0  0  0  0  0  0  0
   15.1451  -16.7362   21.5886 O   0  0  0  0  0  0  0  0  0  0  0  0
   13.1836  -17.0196   22.7997 N   0  0  0  0  0  0  0  0  0  0  0  0
   13.9916  -17.5120   23.9419 C   0  0  1  0  0  0  0  0  0  0  0  0
   14.7699  -16.3263   24.3894 C   0  0  0  0  0  0  0  0  0  0  0  0
   16.2052  -16.3402   24.0985 C   0  0  0  0  0  0  0  0  0  0  0  0
   16.9516  -17.2537   23.4003 C   0  0  0  0  0  0  0  0  0  0  0  0
   18.2312  -16.7888   23.3448 N   0  0  0  0  0  0  0  0  0  0  0  0
   18.2816  -15.6122   23.9932 C   0  0  0  0  0  0  0  0  0  0  0  0
   17.0684  -15.3428   24.4450 N   0  0  0  0  0  0  0  0  0  0  0  0
   12.9785  -17.9476   24.9476 C   0  0  0  0  0  0  0  0  0  0  0  0
   13.3189  -18.5207   26.1351 O   0  0  0  0  0  0  0  0  0  0  0  0
   11.7662  -17.7846   24.7056 O   0  0  0  0  0  0  0  0  0  0  0  0
  2  1  1  6
  2  4  1  0
  2  3  1  0
  4  5  1  0
  5  7  1  0
  5  6  1  1
  7  8  2  0
  9 10  1  0
 10 12  1  0
 11 10  2  0
 13 12  1  1
 14 13  1  0
 14  7  1  0
 15 13  1  0
 16 15  2  0
 17 15  1  0
 18 19  1  1
 18 17  1  0
 20 19  1  0
 21 20  2  0
 22 21  1  0
 23 22  1  0
 23 24  2  0
 24 20  1  0
 25 26  1  0
 25 18  1  0
 27 25  2  0
M  END
$$$$
