LNH.pdb
     RDKit          3D

 27 27  0  0  1  0  0  0  0  0999 V2000
    7.0546  -12.6414   20.7670 C   0  0  0  0  0  0  0  0  0  0  0  0
    7.7726  -13.6185   19.8968 C   0  0  1  0  0  0  0  0  0  0  0  0
    8.2079  -12.8713   18.6264 C   0  0  0  0  0  0  0  0  0  0  0  0
    9.0179  -14.2026   20.4950 C   0  0  0  0  0  0  0  0  0  0  0  0
    9.1765  -15.6177   19.9921 C   0  0  2  0  0  0  0  0  0  0  0  0
    7.8340  -16.0480   19.5736 N   0  0  0  0  0  0  0  0  0  0  0  0
    9.6022  -16.5447   21.0701 C   0  0  0  0  0  0  0  0  0  0  0  0
    8.7363  -17.1255   21.7597 O   0  0  0  0  0  0  0  0  0  0  0  0
   11.5880  -20.1241   20.5746 N   0  0  0  0  0  0  0  0  0  0  0  0
   12.6126  -19.1066   20.6100 C   0  0  0  0  0  0  0  0  0  0  0  0
   13.3483  -19.0155   19.5985 O   0  0  0  0  0  0  0  0  0  0  0  0
   12.7673  -18.2239   21.7893 C   0  0  0  0  0  0  0  0  0  0  0  0
   11.4359  -17.7291   22.3360 C   0  0  2  0  0  0  0  0  0  0  0  0
   10.9669  -16.7685   21.3148 N   0  0  0  0  0  0  0  0  0  0  0  0
   11.6069  -17.0622   23.6198 C   0  0  0  0  0  0  0  0  0  0  0  0
   12.0603  -15.8623   23.5967 O   0  0  0  0  0  0  0  0  0  0  0  0
   11.3004  -17.6628   24.8518 N   0  0  0  0  0  0  0  0  0  0  0  0
   11.3743  -16.8172   26.0681 C   0  0  1  0  0  0  0  0  0  0  0  0
   10.1964  -15.9145   25.9694 C   0  0  0  0  0  0  0  0  0  0  0  0
    9.8918  -15.1076   27.1528 C   0  0  0  0  0  0  0  0  0  0  0  0
    9.1175  -15.4053   28.2441 C   0  0  0  0  0  0  0  0  0  0  0  0
    9.2000  -14.3570   29.1104 N   0  0  0  0  0  0  0  0  0  0  0  0
   10.0075  -13.4267   28.5720 C   0  0  0  0  0  0  0  0  0  0  0  0
   10.4223  -13.8756   27.3994 N   0  0  0  0  0  0  0  0  0  0  0  0
   11.2623  -17.7870   27.1970 C   0  0  0  0  0  0  0  0  0  0  0  0
   10.9478  -19.0990   27.0123 O   0  0  0  0  0  0  0  0  0  0  0  0
   11.4643  -17.3948   28.3633 O   0  0  0  0  0  0  0  0  0  0  0  0
  2  1  1  1
  2  4  1  0
  2  3  1  0
  4  5  1  0
  5  7  1  0
  5  6  1  1
  7  8  2  0
  9 10  1  0
 10 12  1  0
 11 10  2  0
 13 12  1  6
 14 13  1  0
 14  7  1  0
 15 13  1  0
 16 15  2  0
 17 15  1  0
 18 19  1  6
 18 17  1  0
 20 19  1  0
 21 20  2  0
 22 21  1  0
 23 22  1  0
 23 24  2  0
 24 20  1  0
 25 26  1  0
 25 18  1  0
 27 25  2  0
M  END
$$$$
