LEK.pdb
     RDKit          3D

 27 26  0  0  1  0  0  0  0  0999 V2000
    7.4518  -11.9797   19.1752 C   0  0  0  0  0  0  0  0  0  0  0  0
    8.1549  -13.2552   18.7842 C   0  0  1  0  0  0  0  0  0  0  0  0
    9.5739  -12.9911   18.3317 C   0  0  0  0  0  0  0  0  0  0  0  0
    8.0846  -14.2162   19.9248 C   0  0  0  0  0  0  0  0  0  0  0  0
    8.8989  -15.4591   19.6412 C   0  0  2  0  0  0  0  0  0  0  0  0
    8.2450  -16.3225   18.6811 N   0  0  0  0  0  0  0  0  0  0  0  0
    9.1469  -16.2119   20.8920 C   0  0  0  0  0  0  0  0  0  0  0  0
    8.1898  -16.7861   21.4642 O   0  0  0  0  0  0  0  0  0  0  0  0
   10.4297  -16.3159   21.4804 N   0  0  0  0  0  0  0  0  0  0  0  0
   10.6173  -17.1440   22.6922 C   0  0  1  0  0  0  0  0  0  0  0  0
   12.0360  -17.6001   22.7399 C   0  0  0  0  0  0  0  0  0  0  0  0
   12.3980  -18.4050   23.9426 C   0  0  0  0  0  0  0  0  0  0  0  0
   13.8599  -18.8107   23.8802 C   0  0  0  0  0  0  0  0  0  0  0  0
   14.1863  -19.9997   23.6710 O   0  0  0  0  0  0  0  0  0  0  0  0
   10.2344  -16.3801   23.8812 C   0  0  0  0  0  0  0  0  0  0  0  0
   10.7503  -15.2192   24.1146 O   0  0  0  0  0  0  0  0  0  0  0  0
   14.8047  -17.8343   24.0601 O   0  0  0  0  0  0  0  0  0  0  0  0
    9.2920  -16.8400   24.8286 N   0  0  0  0  0  0  0  0  0  0  0  0
    9.0181  -16.0278   26.0151 C   0  0  1  0  0  0  0  0  0  0  0  0
    7.5176  -15.7124   25.9261 C   0  0  0  0  0  0  0  0  0  0  0  0
    7.1173  -14.8632   27.0809 C   0  0  0  0  0  0  0  0  0  0  0  0
    7.0196  -13.4210   26.5414 C   0  0  0  0  0  0  0  0  0  0  0  0
    6.6439  -12.5648   27.7557 C   0  0  0  0  0  0  0  0  0  0  0  0
    6.6231  -11.1840   27.3681 N   0  0  0  0  0  0  0  0  0  0  0  0
    9.3633  -16.8145   27.2054 C   0  0  0  0  0  0  0  0  0  0  0  0
    9.2666  -18.0660   27.2071 O   0  0  0  0  0  0  0  0  0  0  0  0
    9.8190  -16.2562   28.4078 O   0  0  0  0  0  0  0  0  0  0  0  0
  2  1  1  1
  2  3  1  0
  4  5  1  0
  4  2  1  0
  5  6  1  6
  7  5  1  0
  7  8  2  0
  9  7  1  0
 10  9  1  0
 10 11  1  1
 12 11  1  0
 12 13  1  0
 13 14  2  0
 15 10  1  0
 16 15  2  0
 17 13  1  0
 18 15  1  0
 19 18  1  0
 19 25  1  0
 19 20  1  1
 21 20  1  0
 22 23  1  0
 22 21  1  0
 23 24  1  0
 25 27  1  0
 26 25  2  0
M  END
$$$$
