LEK.pdb
     RDKit          3D

 27 26  0  0  1  0  0  0  0  0999 V2000
    6.9567  -12.9622   18.6833 C   0  0  0  0  0  0  0  0  0  0  0  0
    8.4397  -12.9943   18.9548 C   0  0  1  0  0  0  0  0  0  0  0  0
    8.9912  -11.6060   19.1922 C   0  0  0  0  0  0  0  0  0  0  0  0
    8.7031  -13.9205   20.0960 C   0  0  0  0  0  0  0  0  0  0  0  0
   10.1678  -13.9164   20.4741 C   0  0  2  0  0  0  0  0  0  0  0  0
   10.9867  -13.3103   19.4461 N   0  0  0  0  0  0  0  0  0  0  0  0
   10.6400  -15.2963   20.7303 C   0  0  0  0  0  0  0  0  0  0  0  0
    9.9109  -16.0856   21.3773 O   0  0  0  0  0  0  0  0  0  0  0  0
   11.8917  -15.7734   20.2739 N   0  0  0  0  0  0  0  0  0  0  0  0
   12.3246  -17.1460   20.6175 C   0  0  1  0  0  0  0  0  0  0  0  0
   13.3331  -17.5904   19.6135 C   0  0  0  0  0  0  0  0  0  0  0  0
   13.7122  -19.0308   19.6977 C   0  0  0  0  0  0  0  0  0  0  0  0
   14.7253  -19.3693   18.6184 C   0  0  0  0  0  0  0  0  0  0  0  0
   14.5273  -19.0401   17.4281 O   0  0  0  0  0  0  0  0  0  0  0  0
   12.8456  -17.1756   21.9856 C   0  0  0  0  0  0  0  0  0  0  0  0
   13.4699  -16.1570   22.4766 O   0  0  0  0  0  0  0  0  0  0  0  0
   15.8581  -20.0444   18.9911 O   0  0  0  0  0  0  0  0  0  0  0  0
   12.6994  -18.2858   22.8476 N   0  0  0  0  0  0  0  0  0  0  0  0
   13.1455  -18.1742   24.2371 C   0  0  1  0  0  0  0  0  0  0  0  0
   12.2049  -19.1041   25.0179 C   0  0  0  0  0  0  0  0  0  0  0  0
   12.6458  -19.1820   26.4373 C   0  0  0  0  0  0  0  0  0  0  0  0
   11.7638  -20.2582   27.1037 C   0  0  0  0  0  0  0  0  0  0  0  0
   12.2875  -20.3708   28.5396 C   0  0  0  0  0  0  0  0  0  0  0  0
   11.5939  -21.4323   29.2103 N   0  0  0  0  0  0  0  0  0  0  0  0
   14.5495  -18.5966   24.3089 C   0  0  0  0  0  0  0  0  0  0  0  0
   15.0433  -19.3591   23.4429 O   0  0  0  0  0  0  0  0  0  0  0  0
   15.4366  -18.1971   25.3182 O   0  0  0  0  0  0  0  0  0  0  0  0
  2  1  1  1
  2  3  1  0
  4  5  1  0
  4  2  1  0
  5  6  1  6
  7  5  1  0
  7  8  2  0
  9  7  1  0
 10  9  1  0
 10 11  1  6
 12 11  1  0
 12 13  1  0
 13 14  2  0
 15 10  1  0
 16 15  2  0
 17 13  1  0
 18 15  1  0
 19 18  1  0
 19 25  1  0
 19 20  1  1
 21 20  1  0
 22 23  1  0
 22 21  1  0
 23 24  1  0
 25 27  1  0
 26 25  2  0
M  END
$$$$
