LEK.pdb
     RDKit          3D

 27 26  0  0  1  0  0  0  0  0999 V2000
    7.0051  -12.0391   27.2508 C   0  0  0  0  0  0  0  0  0  0  0  0
    6.8758  -12.6333   25.8708 C   0  0  1  0  0  0  0  0  0  0  0  0
    7.4112  -11.6969   24.8104 C   0  0  0  0  0  0  0  0  0  0  0  0
    7.5477  -13.9666   25.8527 C   0  0  0  0  0  0  0  0  0  0  0  0
    7.4767  -14.5940   24.4781 C   0  0  2  0  0  0  0  0  0  0  0  0
    6.1150  -14.9057   24.0992 N   0  0  0  0  0  0  0  0  0  0  0  0
    8.2962  -15.8262   24.4286 C   0  0  0  0  0  0  0  0  0  0  0  0
    7.9047  -16.8501   25.0383 O   0  0  0  0  0  0  0  0  0  0  0  0
    9.5166  -15.9050   23.7165 N   0  0  0  0  0  0  0  0  0  0  0  0
   10.2887  -17.1673   23.7190 C   0  0  1  0  0  0  0  0  0  0  0  0
   11.1849  -17.1774   22.5276 C   0  0  0  0  0  0  0  0  0  0  0  0
   10.4846  -17.2820   21.2145 C   0  0  0  0  0  0  0  0  0  0  0  0
   11.4971  -17.3294   20.0838 C   0  0  0  0  0  0  0  0  0  0  0  0
   12.3487  -16.4236   19.9482 O   0  0  0  0  0  0  0  0  0  0  0  0
   11.0276  -17.2962   24.9765 C   0  0  0  0  0  0  0  0  0  0  0  0
   11.5108  -16.2547   25.5683 O   0  0  0  0  0  0  0  0  0  0  0  0
   11.4459  -18.3933   19.2214 O   0  0  0  0  0  0  0  0  0  0  0  0
   11.2516  -18.5336   25.6214 N   0  0  0  0  0  0  0  0  0  0  0  0
   11.9740  -18.5547   26.8942 C   0  0  1  0  0  0  0  0  0  0  0  0
   11.2378  -19.6076   27.7359 C   0  0  0  0  0  0  0  0  0  0  0  0
   11.9639  -19.8177   29.0179 C   0  0  0  0  0  0  0  0  0  0  0  0
   11.2545  -20.9897   29.7275 C   0  0  0  0  0  0  0  0  0  0  0  0
   12.0679  -21.2359   31.0027 C   0  0  0  0  0  0  0  0  0  0  0  0
   11.3772  -22.1882   31.8236 N   0  0  0  0  0  0  0  0  0  0  0  0
   13.3716  -18.9164   26.6282 C   0  0  0  0  0  0  0  0  0  0  0  0
   13.6847  -19.6066   25.6277 O   0  0  0  0  0  0  0  0  0  0  0  0
   14.4476  -18.5339   27.4413 O   0  0  0  0  0  0  0  0  0  0  0  0
  2  1  1  1
  2  3  1  0
  4  5  1  0
  4  2  1  0
  5  6  1  1
  7  5  1  0
  7  8  2  0
  9  7  1  0
 10  9  1  0
 10 11  1  6
 12 11  1  0
 12 13  1  0
 13 14  2  0
 15 10  1  0
 16 15  2  0
 17 13  1  0
 18 15  1  0
 19 18  1  0
 19 25  1  0
 19 20  1  1
 21 20  1  0
 22 23  1  0
 22 21  1  0
 23 24  1  0
 25 27  1  0
 26 25  2  0
M  END
$$$$
