LEK.pdb
     RDKit          3D

 27 26  0  0  1  0  0  0  0  0999 V2000
    6.4435  -12.5822   18.8408 C   0  0  0  0  0  0  0  0  0  0  0  0
    7.8262  -13.1759   18.7411 C   0  0  1  0  0  0  0  0  0  0  0  0
    8.8916  -12.1023   18.7220 C   0  0  0  0  0  0  0  0  0  0  0  0
    8.0150  -14.1534   19.8538 C   0  0  0  0  0  0  0  0  0  0  0  0
    9.4549  -14.6086   19.9408 C   0  0  2  0  0  0  0  0  0  0  0  0
    9.9376  -15.1106   18.6719 N   0  0  0  0  0  0  0  0  0  0  0  0
    9.6045  -15.6580   20.9748 C   0  0  0  0  0  0  0  0  0  0  0  0
    9.0774  -15.4915   22.1007 O   0  0  0  0  0  0  0  0  0  0  0  0
   10.3235  -16.8560   20.7501 N   0  0  0  0  0  0  0  0  0  0  0  0
   10.3943  -17.8811   21.8149 C   0  0  1  0  0  0  0  0  0  0  0  0
   11.0383  -19.1033   21.2544 C   0  0  0  0  0  0  0  0  0  0  0  0
   11.2134  -20.2233   22.2241 C   0  0  0  0  0  0  0  0  0  0  0  0
   11.8838  -21.4041   21.5444 C   0  0  0  0  0  0  0  0  0  0  0  0
   11.5033  -21.7963   20.4194 O   0  0  0  0  0  0  0  0  0  0  0  0
   11.1164  -17.3480   22.9717 C   0  0  0  0  0  0  0  0  0  0  0  0
   12.2799  -16.8050   22.8309 O   0  0  0  0  0  0  0  0  0  0  0  0
   12.9148  -22.0222   22.2025 O   0  0  0  0  0  0  0  0  0  0  0  0
   10.6037  -17.3793   24.2882 N   0  0  0  0  0  0  0  0  0  0  0  0
   11.4090  -16.8321   25.3811 C   0  0  1  0  0  0  0  0  0  0  0  0
   10.3973  -16.0964   26.2722 C   0  0  0  0  0  0  0  0  0  0  0  0
   11.0872  -15.5723   27.4823 C   0  0  0  0  0  0  0  0  0  0  0  0
   10.0139  -14.8238   28.2997 C   0  0  0  0  0  0  0  0  0  0  0  0
   10.7676  -14.2183   29.4888 C   0  0  0  0  0  0  0  0  0  0  0  0
    9.8323  -13.5476   30.3449 N   0  0  0  0  0  0  0  0  0  0  0  0
   12.0702  -17.9455   26.0725 C   0  0  0  0  0  0  0  0  0  0  0  0
   11.5469  -19.0856   26.1155 O   0  0  0  0  0  0  0  0  0  0  0  0
   13.3066  -17.8387   26.7243 O   0  0  0  0  0  0  0  0  0  0  0  0
  2  1  1  1
  2  3  1  0
  4  5  1  0
  4  2  1  0
  5  6  1  6
  7  5  1  0
  7  8  2  0
  9  7  1  0
 10  9  1  0
 10 11  1  6
 12 11  1  0
 12 13  1  0
 13 14  2  0
 15 10  1  0
 16 15  2  0
 17 13  1  0
 18 15  1  0
 19 18  1  0
 19 25  1  0
 19 20  1  1
 21 20  1  0
 22 23  1  0
 22 21  1  0
 23 24  1  0
 25 27  1  0
 26 25  2  0
M  END
$$$$
