LEK.pdb
     RDKit          3D

 27 26  0  0  1  0  0  0  0  0999 V2000
    6.8214  -13.0079   18.5787 C   0  0  0  0  0  0  0  0  0  0  0  0
    8.2787  -13.2715   18.8632 C   0  0  1  0  0  0  0  0  0  0  0  0
    9.0740  -11.9863   18.9240 C   0  0  0  0  0  0  0  0  0  0  0  0
    8.3897  -14.0762   20.1159 C   0  0  0  0  0  0  0  0  0  0  0  0
    9.8316  -14.2051   20.5547 C   0  0  2  0  0  0  0  0  0  0  0  0
   10.7360  -14.2413   19.4252 N   0  0  0  0  0  0  0  0  0  0  0  0
   10.0165  -15.4252   21.3731 C   0  0  0  0  0  0  0  0  0  0  0  0
    9.1710  -15.7078   22.2554 O   0  0  0  0  0  0  0  0  0  0  0  0
   11.1166  -16.2994   21.2051 N   0  0  0  0  0  0  0  0  0  0  0  0
   11.2211  -17.5175   22.0386 C   0  0  1  0  0  0  0  0  0  0  0  0
   12.2706  -18.4020   21.4563 C   0  0  0  0  0  0  0  0  0  0  0  0
   12.5097  -19.6708   22.2035 C   0  0  0  0  0  0  0  0  0  0  0  0
   13.5443  -20.5161   21.4818 C   0  0  0  0  0  0  0  0  0  0  0  0
   14.6925  -20.0724   21.2604 O   0  0  0  0  0  0  0  0  0  0  0  0
   11.5072  -17.1479   23.4263 C   0  0  0  0  0  0  0  0  0  0  0  0
   12.6349  -16.6056   23.7461 O   0  0  0  0  0  0  0  0  0  0  0  0
   13.1789  -21.7754   21.0835 O   0  0  0  0  0  0  0  0  0  0  0  0
   10.5924  -17.3434   24.4855 N   0  0  0  0  0  0  0  0  0  0  0  0
   10.9395  -16.8674   25.8254 C   0  0  1  0  0  0  0  0  0  0  0  0
    9.6194  -16.3265   26.3945 C   0  0  0  0  0  0  0  0  0  0  0  0
    9.7518  -14.8684   26.6615 C   0  0  0  0  0  0  0  0  0  0  0  0
    8.3840  -14.4040   27.2036 C   0  0  0  0  0  0  0  0  0  0  0  0
    8.5267  -12.8914   27.4046 C   0  0  0  0  0  0  0  0  0  0  0  0
    7.2570  -12.3475   27.7914 N   0  0  0  0  0  0  0  0  0  0  0  0
   11.4690  -17.9986   26.5968 C   0  0  0  0  0  0  0  0  0  0  0  0
   12.2367  -17.8163   27.5729 O   0  0  0  0  0  0  0  0  0  0  0  0
   11.1724  -19.3408   26.3219 O   0  0  0  0  0  0  0  0  0  0  0  0
  2  1  1  1
  2  3  1  0
  4  5  1  0
  4  2  1  0
  5  6  1  6
  7  5  1  0
  7  8  2  0
  9  7  1  0
 10  9  1  0
 10 11  1  6
 12 11  1  0
 12 13  1  0
 13 14  2  0
 15 10  1  0
 16 15  2  0
 17 13  1  0
 18 15  1  0
 19 18  1  0
 19 25  1  0
 19 20  1  1
 21 20  1  0
 22 23  1  0
 22 21  1  0
 23 24  1  0
 25 27  1  0
 26 25  2  0
M  END
$$$$
