LEK.pdb
     RDKit          3D

 27 26  0  0  1  0  0  0  0  0999 V2000
    7.0915  -11.7725   27.0770 C   0  0  0  0  0  0  0  0  0  0  0  0
    6.6535  -12.7072   25.9776 C   0  0  1  0  0  0  0  0  0  0  0  0
    6.6583  -12.0204   24.6299 C   0  0  0  0  0  0  0  0  0  0  0  0
    7.5163  -13.9254   26.0052 C   0  0  0  0  0  0  0  0  0  0  0  0
    6.9925  -14.9855   25.0618 C   0  0  2  0  0  0  0  0  0  0  0  0
    5.7392  -15.5437   25.5229 N   0  0  0  0  0  0  0  0  0  0  0  0
    7.9860  -16.0717   24.9008 C   0  0  0  0  0  0  0  0  0  0  0  0
    7.9306  -17.0725   25.6549 O   0  0  0  0  0  0  0  0  0  0  0  0
    9.0089  -16.0340   23.9236 N   0  0  0  0  0  0  0  0  0  0  0  0
    9.9196  -17.1898   23.7681 C   0  0  1  0  0  0  0  0  0  0  0  0
   10.6806  -17.0262   22.4966 C   0  0  0  0  0  0  0  0  0  0  0  0
   11.6946  -18.0872   22.2293 C   0  0  0  0  0  0  0  0  0  0  0  0
   12.3540  -17.8533   20.8816 C   0  0  0  0  0  0  0  0  0  0  0  0
   13.5783  -18.0546   20.7240 O   0  0  0  0  0  0  0  0  0  0  0  0
   10.7965  -17.2929   24.9362 C   0  0  0  0  0  0  0  0  0  0  0  0
   11.3996  -16.2506   25.4033 O   0  0  0  0  0  0  0  0  0  0  0  0
   11.5658  -17.4163   19.8492 O   0  0  0  0  0  0  0  0  0  0  0  0
   11.0330  -18.5045   25.6241 N   0  0  0  0  0  0  0  0  0  0  0  0
   11.9318  -18.5057   26.7793 C   0  0  1  0  0  0  0  0  0  0  0  0
   11.3576  -19.5832   27.7112 C   0  0  0  0  0  0  0  0  0  0  0  0
   12.2407  -19.7371   28.8992 C   0  0  0  0  0  0  0  0  0  0  0  0
   11.5734  -20.7996   29.7970 C   0  0  0  0  0  0  0  0  0  0  0  0
   12.4520  -20.8722   31.0506 C   0  0  0  0  0  0  0  0  0  0  0  0
   11.8149  -21.7134   32.0222 N   0  0  0  0  0  0  0  0  0  0  0  0
   13.2870  -18.8224   26.3124 C   0  0  0  0  0  0  0  0  0  0  0  0
   14.2976  -18.3279   26.8686 O   0  0  0  0  0  0  0  0  0  0  0  0
   13.5646  -19.6799   25.2387 O   0  0  0  0  0  0  0  0  0  0  0  0
  2  1  1  1
  2  3  1  0
  4  5  1  0
  4  2  1  0
  5  6  1  1
  7  5  1  0
  7  8  2  0
  9  7  1  0
 10  9  1  0
 10 11  1  6
 12 11  1  0
 12 13  1  0
 13 14  2  0
 15 10  1  0
 16 15  2  0
 17 13  1  0
 18 15  1  0
 19 18  1  0
 19 25  1  0
 19 20  1  1
 21 20  1  0
 22 23  1  0
 22 21  1  0
 23 24  1  0
 25 27  1  0
 26 25  2  0
M  END
$$$$
