LEK.pdb
     RDKit          3D

 27 26  0  0  1  0  0  0  0  0999 V2000
    7.5804  -13.0739   17.6640 C   0  0  0  0  0  0  0  0  0  0  0  0
    8.4187  -13.1627   18.9144 C   0  0  1  0  0  0  0  0  0  0  0  0
    8.1862  -11.9771   19.8244 C   0  0  0  0  0  0  0  0  0  0  0  0
    8.1464  -14.4669   19.5885 C   0  0  0  0  0  0  0  0  0  0  0  0
    8.8819  -14.5630   20.9068 C   0  0  2  0  0  0  0  0  0  0  0  0
    9.6233  -13.3544   21.1980 N   0  0  0  0  0  0  0  0  0  0  0  0
    9.8071  -15.7190   20.9003 C   0  0  0  0  0  0  0  0  0  0  0  0
    9.3382  -16.8821   20.9277 O   0  0  0  0  0  0  0  0  0  0  0  0
   11.2141  -15.5723   20.8643 N   0  0  0  0  0  0  0  0  0  0  0  0
   12.0786  -16.7732   20.8728 C   0  0  1  0  0  0  0  0  0  0  0  0
   13.0798  -16.6446   19.7756 C   0  0  0  0  0  0  0  0  0  0  0  0
   14.0649  -17.7614   19.6887 C   0  0  0  0  0  0  0  0  0  0  0  0
   15.0430  -17.5095   18.5549 C   0  0  0  0  0  0  0  0  0  0  0  0
   16.0014  -18.2868   18.3511 O   0  0  0  0  0  0  0  0  0  0  0  0
   12.7051  -16.9260   22.1874 C   0  0  0  0  0  0  0  0  0  0  0  0
   13.0456  -15.8910   22.8809 O   0  0  0  0  0  0  0  0  0  0  0  0
   14.8408  -16.4069   17.7665 O   0  0  0  0  0  0  0  0  0  0  0  0
   12.9670  -18.1816   22.7807 N   0  0  0  0  0  0  0  0  0  0  0  0
   13.4050  -18.2340   24.1763 C   0  0  1  0  0  0  0  0  0  0  0  0
   12.5225  -19.3167   24.8151 C   0  0  0  0  0  0  0  0  0  0  0  0
   12.9160  -19.5053   26.2380 C   0  0  0  0  0  0  0  0  0  0  0  0
   12.0576  -20.6711   26.7712 C   0  0  0  0  0  0  0  0  0  0  0  0
   12.4818  -20.8432   28.2338 C   0  0  0  0  0  0  0  0  0  0  0  0
   11.7791  -21.9591   28.7982 N   0  0  0  0  0  0  0  0  0  0  0  0
   14.8322  -18.5769   24.2019 C   0  0  0  0  0  0  0  0  0  0  0  0
   15.5767  -18.1884   25.1347 O   0  0  0  0  0  0  0  0  0  0  0  0
   15.4702  -19.3461   23.2189 O   0  0  0  0  0  0  0  0  0  0  0  0
  2  1  1  6
  2  3  1  0
  4  5  1  0
  4  2  1  0
  5  6  1  6
  7  5  1  0
  7  8  2  0
  9  7  1  0
 10  9  1  0
 10 11  1  6
 12 11  1  0
 12 13  1  0
 13 14  2  0
 15 10  1  0
 16 15  2  0
 17 13  1  0
 18 15  1  0
 19 18  1  0
 19 25  1  0
 19 20  1  1
 21 20  1  0
 22 23  1  0
 22 21  1  0
 23 24  1  0
 25 27  1  0
 26 25  2  0
M  END
$$$$
