LEK.pdb
     RDKit          3D

 27 26  0  0  1  0  0  0  0  0999 V2000
    6.7783  -12.7029   19.6451 C   0  0  0  0  0  0  0  0  0  0  0  0
    8.2143  -13.1256   19.4627 C   0  0  1  0  0  0  0  0  0  0  0  0
    9.1693  -11.9901   19.7572 C   0  0  0  0  0  0  0  0  0  0  0  0
    8.4755  -14.3298   20.3059 C   0  0  0  0  0  0  0  0  0  0  0  0
    9.9387  -14.7122   20.2715 C   0  0  2  0  0  0  0  0  0  0  0  0
   10.4037  -14.9376   18.9195 N   0  0  0  0  0  0  0  0  0  0  0  0
   10.1752  -15.9280   21.0830 C   0  0  0  0  0  0  0  0  0  0  0  0
    9.4564  -16.1463   22.0875 O   0  0  0  0  0  0  0  0  0  0  0  0
   11.1870  -16.8681   20.7750 N   0  0  0  0  0  0  0  0  0  0  0  0
   11.2642  -18.1385   21.5299 C   0  0  1  0  0  0  0  0  0  0  0  0
   11.9459  -19.1552   20.6789 C   0  0  0  0  0  0  0  0  0  0  0  0
   12.0432  -20.5165   21.2810 C   0  0  0  0  0  0  0  0  0  0  0  0
   12.7446  -21.4635   20.3233 C   0  0  0  0  0  0  0  0  0  0  0  0
   12.9565  -22.6546   20.6406 O   0  0  0  0  0  0  0  0  0  0  0  0
   11.9544  -17.9199   22.8026 C   0  0  0  0  0  0  0  0  0  0  0  0
   12.9326  -17.0807   22.8877 O   0  0  0  0  0  0  0  0  0  0  0  0
   13.1354  -20.9709   19.1056 O   0  0  0  0  0  0  0  0  0  0  0  0
   11.6045  -18.5854   23.9992 N   0  0  0  0  0  0  0  0  0  0  0  0
   12.4183  -18.3744   25.1974 C   0  0  1  0  0  0  0  0  0  0  0  0
   11.6516  -19.0983   26.3142 C   0  0  0  0  0  0  0  0  0  0  0  0
   12.4083  -18.9878   27.5910 C   0  0  0  0  0  0  0  0  0  0  0  0
   11.5128  -19.6174   28.6782 C   0  0  0  0  0  0  0  0  0  0  0  0
   12.2438  -19.3547   29.9993 C   0  0  0  0  0  0  0  0  0  0  0  0
   11.5074  -19.9594   31.0715 N   0  0  0  0  0  0  0  0  0  0  0  0
   13.7496  -18.9456   24.9604 C   0  0  0  0  0  0  0  0  0  0  0  0
   13.8939  -20.0062   24.3049 O   0  0  0  0  0  0  0  0  0  0  0  0
   14.9412  -18.3746   25.4287 O   0  0  0  0  0  0  0  0  0  0  0  0
  2  1  1  1
  2  3  1  0
  4  5  1  0
  4  2  1  0
  5  6  1  6
  7  5  1  0
  7  8  2  0
  9  7  1  0
 10  9  1  0
 10 11  1  6
 12 11  1  0
 12 13  1  0
 13 14  2  0
 15 10  1  0
 16 15  2  0
 17 13  1  0
 18 15  1  0
 19 18  1  0
 19 25  1  0
 19 20  1  1
 21 20  1  0
 22 23  1  0
 22 21  1  0
 23 24  1  0
 25 27  1  0
 26 25  2  0
M  END
$$$$
