LEK.pdb
     RDKit          3D

 27 26  0  0  1  0  0  0  0  0999 V2000
    7.0248  -11.5790   26.8931 C   0  0  0  0  0  0  0  0  0  0  0  0
    6.4783  -12.5952   25.9221 C   0  0  1  0  0  0  0  0  0  0  0  0
    6.3088  -12.0067   24.5390 C   0  0  0  0  0  0  0  0  0  0  0  0
    7.3630  -13.7980   25.9307 C   0  0  0  0  0  0  0  0  0  0  0  0
    6.8756  -14.8399   24.9483 C   0  0  2  0  0  0  0  0  0  0  0  0
    5.6037  -15.4028   25.3486 N   0  0  0  0  0  0  0  0  0  0  0  0
    7.8727  -15.9257   24.8082 C   0  0  0  0  0  0  0  0  0  0  0  0
    7.7905  -16.9352   25.5480 O   0  0  0  0  0  0  0  0  0  0  0  0
    8.9281  -15.8780   23.8668 N   0  0  0  0  0  0  0  0  0  0  0  0
    9.8463  -17.0307   23.7333 C   0  0  1  0  0  0  0  0  0  0  0  0
   10.6493  -16.8558   22.4894 C   0  0  0  0  0  0  0  0  0  0  0  0
   11.6056  -17.9627   22.1970 C   0  0  0  0  0  0  0  0  0  0  0  0
   12.3377  -17.6915   20.8946 C   0  0  0  0  0  0  0  0  0  0  0  0
   11.8539  -18.0553   19.8001 O   0  0  0  0  0  0  0  0  0  0  0  0
   10.6836  -17.1411   24.9294 C   0  0  0  0  0  0  0  0  0  0  0  0
   11.1386  -16.0845   25.5167 O   0  0  0  0  0  0  0  0  0  0  0  0
   13.5405  -17.0378   20.9590 O   0  0  0  0  0  0  0  0  0  0  0  0
   11.0374  -18.3764   25.5175 N   0  0  0  0  0  0  0  0  0  0  0  0
   11.8796  -18.3819   26.7146 C   0  0  1  0  0  0  0  0  0  0  0  0
   11.2417  -19.4392   27.6278 C   0  0  0  0  0  0  0  0  0  0  0  0
   12.1093  -19.6603   28.8166 C   0  0  0  0  0  0  0  0  0  0  0  0
   11.4893  -20.8438   29.5881 C   0  0  0  0  0  0  0  0  0  0  0  0
   12.4475  -21.1058   30.7552 C   0  0  0  0  0  0  0  0  0  0  0  0
   12.0208  -22.2810   31.4581 N   0  0  0  0  0  0  0  0  0  0  0  0
   13.2495  -18.7278   26.3163 C   0  0  0  0  0  0  0  0  0  0  0  0
   13.4717  -19.4474   25.3122 O   0  0  0  0  0  0  0  0  0  0  0  0
   14.3957  -18.2974   26.9992 O   0  0  0  0  0  0  0  0  0  0  0  0
  2  1  1  1
  2  3  1  0
  4  5  1  0
  4  2  1  0
  5  6  1  1
  7  5  1  0
  7  8  2  0
  9  7  1  0
 10  9  1  0
 10 11  1  6
 12 11  1  0
 12 13  1  0
 13 14  2  0
 15 10  1  0
 16 15  2  0
 17 13  1  0
 18 15  1  0
 19 18  1  0
 19 25  1  0
 19 20  1  1
 21 20  1  0
 22 23  1  0
 22 21  1  0
 23 24  1  0
 25 27  1  0
 26 25  2  0
M  END
$$$$
