LEK.pdb
     RDKit          3D

 27 26  0  0  1  0  0  0  0  0999 V2000
    6.9567  -11.8600   26.3827 C   0  0  0  0  0  0  0  0  0  0  0  0
    6.4447  -12.9407   25.4640 C   0  0  1  0  0  0  0  0  0  0  0  0
    5.9814  -12.3719   24.1412 C   0  0  0  0  0  0  0  0  0  0  0  0
    7.5033  -13.9813   25.3032 C   0  0  0  0  0  0  0  0  0  0  0  0
    7.0034  -15.1436   24.4742 C   0  0  2  0  0  0  0  0  0  0  0  0
    5.8982  -15.8245   25.1144 N   0  0  0  0  0  0  0  0  0  0  0  0
    8.0978  -16.1089   24.2232 C   0  0  0  0  0  0  0  0  0  0  0  0
    8.3278  -17.0103   25.0646 O   0  0  0  0  0  0  0  0  0  0  0  0
    8.9077  -16.0625   23.0636 N   0  0  0  0  0  0  0  0  0  0  0  0
   10.0509  -16.9920   22.9280 C   0  0  1  0  0  0  0  0  0  0  0  0
   10.5673  -16.9081   21.5319 C   0  0  0  0  0  0  0  0  0  0  0  0
    9.6997  -17.5479   20.5007 C   0  0  0  0  0  0  0  0  0  0  0  0
   10.2898  -17.3386   19.1173 C   0  0  0  0  0  0  0  0  0  0  0  0
    9.6279  -16.7768   18.2170 O   0  0  0  0  0  0  0  0  0  0  0  0
   11.0748  -16.6702   23.9240 C   0  0  0  0  0  0  0  0  0  0  0  0
   11.5233  -15.4649   24.0442 O   0  0  0  0  0  0  0  0  0  0  0  0
   11.5658  -17.7839   18.8902 O   0  0  0  0  0  0  0  0  0  0  0  0
   11.6247  -17.6258   24.8081 N   0  0  0  0  0  0  0  0  0  0  0  0
   12.2876  -17.1690   26.0305 C   0  0  1  0  0  0  0  0  0  0  0  0
   11.1615  -16.5427   26.8665 C   0  0  0  0  0  0  0  0  0  0  0  0
   11.6640  -16.2431   28.2349 C   0  0  0  0  0  0  0  0  0  0  0  0
   10.4743  -15.6360   29.0072 C   0  0  0  0  0  0  0  0  0  0  0  0
   11.0101  -15.3642   30.4171 C   0  0  0  0  0  0  0  0  0  0  0  0
    9.9597  -14.8064   31.2190 N   0  0  0  0  0  0  0  0  0  0  0  0
   12.9029  -18.3295   26.6858 C   0  0  0  0  0  0  0  0  0  0  0  0
   13.5765  -18.2002   27.7369 O   0  0  0  0  0  0  0  0  0  0  0  0
   12.7950  -19.6445   26.2121 O   0  0  0  0  0  0  0  0  0  0  0  0
  2  1  1  1
  2  3  1  0
  4  5  1  0
  4  2  1  0
  5  6  1  1
  7  5  1  0
  7  8  2  0
  9  7  1  0
 10  9  1  0
 10 11  1  6
 12 11  1  0
 12 13  1  0
 13 14  2  0
 15 10  1  0
 16 15  2  0
 17 13  1  0
 18 15  1  0
 19 18  1  0
 19 25  1  0
 19 20  1  1
 21 20  1  0
 22 23  1  0
 22 21  1  0
 23 24  1  0
 25 27  1  0
 26 25  2  0
M  END
$$$$
