LEK.pdb
     RDKit          3D

 27 26  0  0  1  0  0  0  0  0999 V2000
    7.1756  -11.7669   27.1375 C   0  0  0  0  0  0  0  0  0  0  0  0
    6.6173  -12.7150   26.1062 C   0  0  1  0  0  0  0  0  0  0  0  0
    6.7747  -12.1670   24.7052 C   0  0  0  0  0  0  0  0  0  0  0  0
    7.2622  -14.0508   26.2769 C   0  0  0  0  0  0  0  0  0  0  0  0
    6.7686  -15.0311   25.2360 C   0  0  2  0  0  0  0  0  0  0  0  0
    5.5324  -15.6667   25.6396 N   0  0  0  0  0  0  0  0  0  0  0  0
    7.7930  -16.0679   24.9744 C   0  0  0  0  0  0  0  0  0  0  0  0
    7.8316  -17.0909   25.6992 O   0  0  0  0  0  0  0  0  0  0  0  0
    8.7434  -15.9581   23.9317 N   0  0  0  0  0  0  0  0  0  0  0  0
    9.6710  -17.0789   23.6620 C   0  0  1  0  0  0  0  0  0  0  0  0
   10.2638  -16.8883   22.3073 C   0  0  0  0  0  0  0  0  0  0  0  0
   11.2228  -17.9501   21.8852 C   0  0  0  0  0  0  0  0  0  0  0  0
   11.7304  -17.6691   20.4819 C   0  0  0  0  0  0  0  0  0  0  0  0
   11.8467  -16.4953   20.0660 O   0  0  0  0  0  0  0  0  0  0  0  0
   10.6877  -17.1474   24.7135 C   0  0  0  0  0  0  0  0  0  0  0  0
   11.3021  -16.0821   25.1083 O   0  0  0  0  0  0  0  0  0  0  0  0
   12.0551  -18.7400   19.6909 O   0  0  0  0  0  0  0  0  0  0  0  0
   11.0539  -18.3487   25.3615 N   0  0  0  0  0  0  0  0  0  0  0  0
   12.1449  -18.3296   26.3370 C   0  0  1  0  0  0  0  0  0  0  0  0
   12.0192  -19.6682   27.0795 C   0  0  0  0  0  0  0  0  0  0  0  0
   11.7507  -19.4154   28.5214 C   0  0  0  0  0  0  0  0  0  0  0  0
   11.5359  -20.7993   29.1686 C   0  0  0  0  0  0  0  0  0  0  0  0
   11.1886  -20.5063   30.6322 C   0  0  0  0  0  0  0  0  0  0  0  0
   10.3889  -21.5793   31.1487 N   0  0  0  0  0  0  0  0  0  0  0  0
   13.4141  -18.2002   25.6109 C   0  0  0  0  0  0  0  0  0  0  0  0
   13.6683  -18.9194   24.6142 O   0  0  0  0  0  0  0  0  0  0  0  0
   14.4230  -17.2893   25.9540 O   0  0  0  0  0  0  0  0  0  0  0  0
  2  1  1  1
  2  3  1  0
  4  5  1  0
  4  2  1  0
  5  6  1  1
  7  5  1  0
  7  8  2  0
  9  7  1  0
 10  9  1  0
 10 11  1  6
 12 11  1  0
 12 13  1  0
 13 14  2  0
 15 10  1  0
 16 15  2  0
 17 13  1  0
 18 15  1  0
 19 18  1  0
 19 25  1  0
 19 20  1  6
 21 20  1  0
 22 23  1  0
 22 21  1  0
 23 24  1  0
 25 27  1  0
 26 25  2  0
M  END
$$$$
