LEK.pdb
     RDKit          3D

 27 26  0  0  1  0  0  0  0  0999 V2000
    7.8523  -12.5783   18.1368 C   0  0  0  0  0  0  0  0  0  0  0  0
    8.2362  -13.1717   19.4690 C   0  0  1  0  0  0  0  0  0  0  0  0
    7.9637  -12.2104   20.6045 C   0  0  0  0  0  0  0  0  0  0  0  0
    7.5314  -14.4770   19.6390 C   0  0  0  0  0  0  0  0  0  0  0  0
    7.9477  -15.1577   20.9241 C   0  0  2  0  0  0  0  0  0  0  0  0
    8.0510  -14.2187   22.0208 N   0  0  0  0  0  0  0  0  0  0  0  0
    9.2437  -15.8516   20.7460 C   0  0  0  0  0  0  0  0  0  0  0  0
    9.2719  -16.9613   20.1621 O   0  0  0  0  0  0  0  0  0  0  0  0
   10.4684  -15.3152   21.2095 N   0  0  0  0  0  0  0  0  0  0  0  0
   11.7196  -16.0868   21.0400 C   0  0  1  0  0  0  0  0  0  0  0  0
   12.6325  -15.3194   20.1453 C   0  0  0  0  0  0  0  0  0  0  0  0
   13.9589  -15.9575   19.9031 C   0  0  0  0  0  0  0  0  0  0  0  0
   14.8045  -15.0795   18.9976 C   0  0  0  0  0  0  0  0  0  0  0  0
   14.7767  -13.8338   19.1054 O   0  0  0  0  0  0  0  0  0  0  0  0
   12.3170  -16.3597   22.3486 C   0  0  0  0  0  0  0  0  0  0  0  0
   12.5319  -15.4027   23.1890 O   0  0  0  0  0  0  0  0  0  0  0  0
   15.5952  -15.6956   18.0631 O   0  0  0  0  0  0  0  0  0  0  0  0
   12.6832  -17.6549   22.7794 N   0  0  0  0  0  0  0  0  0  0  0  0
   13.1161  -17.8509   24.1638 C   0  0  1  0  0  0  0  0  0  0  0  0
   12.4171  -19.1456   24.6047 C   0  0  0  0  0  0  0  0  0  0  0  0
   12.7725  -19.4477   26.0180 C   0  0  0  0  0  0  0  0  0  0  0  0
   12.0153  -20.7407   26.3855 C   0  0  0  0  0  0  0  0  0  0  0  0
   11.9441  -20.7406   27.9164 C   0  0  0  0  0  0  0  0  0  0  0  0
   11.0967  -21.8148   28.3470 N   0  0  0  0  0  0  0  0  0  0  0  0
   14.5797  -17.9618   24.1808 C   0  0  0  0  0  0  0  0  0  0  0  0
   15.2246  -17.8807   25.2545 O   0  0  0  0  0  0  0  0  0  0  0  0
   15.3629  -18.1638   23.0358 O   0  0  0  0  0  0  0  0  0  0  0  0
  2  1  1  6
  2  3  1  0
  4  5  1  0
  4  2  1  0
  5  6  1  1
  7  5  1  0
  7  8  2  0
  9  7  1  0
 10  9  1  0
 10 11  1  6
 12 11  1  0
 12 13  1  0
 13 14  2  0
 15 10  1  0
 16 15  2  0
 17 13  1  0
 18 15  1  0
 19 18  1  0
 19 25  1  0
 19 20  1  6
 21 20  1  0
 22 23  1  0
 22 21  1  0
 23 24  1  0
 25 27  1  0
 26 25  2  0
M  END
$$$$
