CCM.pdb
     RDKit          3D

 21 20  0  0  1  0  0  0  0  0999 V2000
   12.6012  -16.1143   18.7259 N   0  0  0  0  0  0  0  0  0  0  0  0
   11.9946  -17.0772   19.6229 C   0  0  1  0  0  0  0  0  0  0  0  0
   13.0713  -17.9317   20.2084 C   0  0  0  0  0  0  0  0  0  0  0  0
   12.2704  -19.0902   21.3761 S   0  0  0  0  0  0  0  0  0  0  0  0
   11.1393  -16.4155   20.6312 C   0  0  0  0  0  0  0  0  0  0  0  0
   11.5676  -15.3763   21.1967 O   0  0  0  0  0  0  0  0  0  0  0  0
    9.8695  -16.8872   20.9928 N   0  0  0  0  0  0  0  0  0  0  0  0
    9.0472  -16.1430   21.9592 C   0  0  1  0  0  0  0  0  0  0  0  0
    7.5884  -16.5218   21.7208 C   0  0  0  0  0  0  0  0  0  0  0  0
    6.5908  -16.1282   23.1525 S   0  0  0  0  0  0  0  0  0  0  0  0
    9.5162  -16.5197   23.3008 C   0  0  0  0  0  0  0  0  0  0  0  0
   10.0573  -17.6519   23.5073 O   0  0  0  0  0  0  0  0  0  0  0  0
   10.6396  -13.9983   30.6889 C   0  0  0  0  0  0  0  0  0  0  0  0
   10.0529  -13.6333   29.0234 S   0  0  0  0  0  0  0  0  0  0  0  0
   10.3217  -15.1115   27.9990 C   0  0  0  0  0  0  0  0  0  0  0  0
    9.7801  -14.8868   26.6100 C   0  0  0  0  0  0  0  0  0  0  0  0
   10.0029  -16.0611   25.6870 C   0  0  2  0  0  0  0  0  0  0  0  0
    9.3887  -15.6504   24.3978 N   0  0  0  0  0  0  0  0  0  0  0  0
    9.2836  -17.2512   26.2050 C   0  0  0  0  0  0  0  0  0  0  0  0
    9.8087  -18.1562   27.1028 O   0  0  0  0  0  0  0  0  0  0  0  0
    8.0885  -17.4820   25.8079 O   0  0  0  0  0  0  0  0  0  0  0  0
  2  1  1  1
  3  2  1  0
  4  3  1  0
  5  2  1  0
  5  6  2  0
  7  5  1  0
  8  7  1  0
  8  9  1  1
 10  9  1  0
 11  8  1  0
 12 11  2  0
 13 14  1  0
 15 14  1  0
 16 15  1  0
 17 18  1  0
 17 16  1  1
 18 11  1  0
 19 17  1  0
 20 19  1  0
 21 19  2  0
M  END
$$$$
