CCM.pdb
     RDKit          3D

 21 20  0  0  1  0  0  0  0  0999 V2000
    5.2533  -18.5805   22.1011 N   0  0  0  0  0  0  0  0  0  0  0  0
    6.3194  -18.8308   21.1522 C   0  0  1  0  0  0  0  0  0  0  0  0
    5.7234  -19.3676   19.8917 C   0  0  0  0  0  0  0  0  0  0  0  0
    7.1033  -19.9657   18.8501 S   0  0  0  0  0  0  0  0  0  0  0  0
    7.1619  -17.6320   20.9540 C   0  0  0  0  0  0  0  0  0  0  0  0
    8.3009  -17.7741   20.4386 O   0  0  0  0  0  0  0  0  0  0  0  0
    6.7569  -16.3384   21.3121 N   0  0  0  0  0  0  0  0  0  0  0  0
    7.6483  -15.1905   21.0848 C   0  0  1  0  0  0  0  0  0  0  0  0
    6.8434  -14.1080   20.3715 C   0  0  0  0  0  0  0  0  0  0  0  0
    7.8896  -12.7222   19.9413 S   0  0  0  0  0  0  0  0  0  0  0  0
    8.1334  -14.7568   22.4032 C   0  0  0  0  0  0  0  0  0  0  0  0
    8.2178  -13.5210   22.6917 O   0  0  0  0  0  0  0  0  0  0  0  0
    7.6879  -11.3977   27.2799 C   0  0  0  0  0  0  0  0  0  0  0  0
    6.5966  -12.4250   26.2774 S   0  0  0  0  0  0  0  0  0  0  0  0
    7.6041  -13.2203   24.9893 C   0  0  0  0  0  0  0  0  0  0  0  0
    8.0368  -14.5921   25.4410 C   0  0  0  0  0  0  0  0  0  0  0  0
    9.1685  -15.1603   24.6183 C   0  0  2  0  0  0  0  0  0  0  0  0
    8.5172  -15.6821   23.3889 N   0  0  0  0  0  0  0  0  0  0  0  0
    9.8002  -16.2897   25.3445 C   0  0  0  0  0  0  0  0  0  0  0  0
   10.8181  -16.1594   26.2652 O   0  0  0  0  0  0  0  0  0  0  0  0
    9.3935  -17.4830   25.1212 O   0  0  0  0  0  0  0  0  0  0  0  0
  2  1  1  1
  3  2  1  0
  4  3  1  0
  5  2  1  0
  5  6  2  0
  7  5  1  0
  8  7  1  0
  8  9  1  1
 10  9  1  0
 11  8  1  0
 12 11  2  0
 13 14  1  0
 15 14  1  0
 16 15  1  0
 17 18  1  0
 17 16  1  1
 18 11  1  0
 19 17  1  0
 20 19  1  0
 21 19  2  0
M  END
$$$$
