CCM.pdb
     RDKit          3D

 21 20  0  0  1  0  0  0  0  0999 V2000
    8.1085  -14.5607   17.5551 N   0  0  0  0  0  0  0  0  0  0  0  0
    8.9212  -14.6294   18.7528 C   0  0  1  0  0  0  0  0  0  0  0  0
    9.5258  -13.2857   18.9999 C   0  0  0  0  0  0  0  0  0  0  0  0
    8.1775  -12.1751   19.5435 S   0  0  0  0  0  0  0  0  0  0  0  0
    8.1541  -15.1618   19.8992 C   0  0  0  0  0  0  0  0  0  0  0  0
    6.8975  -15.1131   19.8585 O   0  0  0  0  0  0  0  0  0  0  0  0
    8.7558  -15.7208   21.0354 N   0  0  0  0  0  0  0  0  0  0  0  0
    7.9286  -16.2488   22.1313 C   0  0  1  0  0  0  0  0  0  0  0  0
    7.8035  -17.7571   21.9373 C   0  0  0  0  0  0  0  0  0  0  0  0
    6.9645  -18.5061   23.3284 S   0  0  0  0  0  0  0  0  0  0  0  0
    8.6054  -15.8955   23.3878 C   0  0  0  0  0  0  0  0  0  0  0  0
    9.8566  -16.0765   23.5266 O   0  0  0  0  0  0  0  0  0  0  0  0
    5.4360  -12.1563   26.2635 C   0  0  0  0  0  0  0  0  0  0  0  0
    7.1644  -11.6904   26.0470 S   0  0  0  0  0  0  0  0  0  0  0  0
    8.1880  -12.9212   26.9098 C   0  0  0  0  0  0  0  0  0  0  0  0
    7.6980  -14.3132   26.6007 C   0  0  0  0  0  0  0  0  0  0  0  0
    8.6518  -15.1012   25.7347 C   0  0  2  0  0  0  0  0  0  0  0  0
    7.9036  -15.3463   24.4746 N   0  0  0  0  0  0  0  0  0  0  0  0
    8.9532  -16.4048   26.3764 C   0  0  0  0  0  0  0  0  0  0  0  0
    9.9876  -16.6233   27.2613 O   0  0  0  0  0  0  0  0  0  0  0  0
    8.2187  -17.4188   26.1087 O   0  0  0  0  0  0  0  0  0  0  0  0
  2  1  1  6
  3  2  1  0
  4  3  1  0
  5  2  1  0
  5  6  2  0
  7  5  1  0
  8  7  1  0
  8  9  1  6
 10  9  1  0
 11  8  1  0
 12 11  2  0
 13 14  1  0
 15 14  1  0
 16 15  1  0
 17 18  1  0
 17 16  1  1
 18 11  1  0
 19 17  1  0
 20 19  1  0
 21 19  2  0
M  END
$$$$
