CCM.pdb
     RDKit          3D

 21 20  0  0  1  0  0  0  0  0999 V2000
   10.9867  -17.2893   17.9670 N   0  0  0  0  0  0  0  0  0  0  0  0
   10.1973  -17.7708   19.0826 C   0  0  1  0  0  0  0  0  0  0  0  0
   10.7234  -19.1047   19.5022 C   0  0  0  0  0  0  0  0  0  0  0  0
    9.5691  -19.7746   20.7535 S   0  0  0  0  0  0  0  0  0  0  0  0
   10.1409  -16.7773   20.1761 C   0  0  0  0  0  0  0  0  0  0  0  0
   11.2089  -16.2207   20.5406 O   0  0  0  0  0  0  0  0  0  0  0  0
    8.9543  -16.4206   20.8322 N   0  0  0  0  0  0  0  0  0  0  0  0
    8.9562  -15.3533   21.8445 C   0  0  1  0  0  0  0  0  0  0  0  0
    7.6105  -14.6377   21.7713 C   0  0  0  0  0  0  0  0  0  0  0  0
    6.2833  -15.7358   22.2536 S   0  0  0  0  0  0  0  0  0  0  0  0
    9.1828  -15.9978   23.1464 C   0  0  0  0  0  0  0  0  0  0  0  0
    9.0970  -17.2605   23.2716 O   0  0  0  0  0  0  0  0  0  0  0  0
    9.2512  -13.1477   29.5291 C   0  0  0  0  0  0  0  0  0  0  0  0
   10.7178  -14.1027   29.0952 S   0  0  0  0  0  0  0  0  0  0  0  0
   10.2030  -15.4425   27.9787 C   0  0  0  0  0  0  0  0  0  0  0  0
   10.1321  -14.9381   26.5596 C   0  0  0  0  0  0  0  0  0  0  0  0
    9.6386  -15.9781   25.5822 C   0  0  2  0  0  0  0  0  0  0  0  0
    9.5029  -15.2512   24.2933 N   0  0  0  0  0  0  0  0  0  0  0  0
    8.3020  -16.4678   26.0013 C   0  0  0  0  0  0  0  0  0  0  0  0
    8.0843  -17.5821   26.7834 O   0  0  0  0  0  0  0  0  0  0  0  0
    7.2563  -15.8320   25.6251 O   0  0  0  0  0  0  0  0  0  0  0  0
  2  1  1  6
  3  2  1  0
  4  3  1  0
  5  2  1  0
  5  6  2  0
  7  5  1  0
  8  7  1  0
  8  9  1  1
 10  9  1  0
 11  8  1  0
 12 11  2  0
 13 14  1  0
 15 14  1  0
 16 15  1  0
 17 18  1  0
 17 16  1  1
 18 11  1  0
 19 17  1  0
 20 19  1  0
 21 19  2  0
M  END
$$$$
