CCM.pdb
     RDKit          3D

 21 20  0  0  1  0  0  0  0  0999 V2000
    7.7453  -17.1056   17.9246 N   0  0  0  0  0  0  0  0  0  0  0  0
    8.2739  -16.2131   18.9364 C   0  0  1  0  0  0  0  0  0  0  0  0
    8.1985  -14.8110   18.4259 C   0  0  0  0  0  0  0  0  0  0  0  0
    8.8617  -13.7197   19.7359 S   0  0  0  0  0  0  0  0  0  0  0  0
    7.6052  -16.4136   20.2397 C   0  0  0  0  0  0  0  0  0  0  0  0
    6.3502  -16.4998   20.2664 O   0  0  0  0  0  0  0  0  0  0  0  0
    8.2989  -16.5131   21.4540 N   0  0  0  0  0  0  0  0  0  0  0  0
    7.5662  -16.6994   22.7159 C   0  0  1  0  0  0  0  0  0  0  0  0
    7.2740  -18.1890   22.8710 C   0  0  0  0  0  0  0  0  0  0  0  0
    6.5833  -18.5331   24.4849 S   0  0  0  0  0  0  0  0  0  0  0  0
    8.4234  -16.1773   23.7903 C   0  0  0  0  0  0  0  0  0  0  0  0
    9.6721  -16.4187   23.8023 O   0  0  0  0  0  0  0  0  0  0  0  0
    6.0642  -10.3040   25.9641 C   0  0  0  0  0  0  0  0  0  0  0  0
    6.5352  -11.7270   26.9663 S   0  0  0  0  0  0  0  0  0  0  0  0
    7.5877  -12.8049   25.9479 C   0  0  0  0  0  0  0  0  0  0  0  0
    8.0376  -13.9999   26.7496 C   0  0  0  0  0  0  0  0  0  0  0  0
    8.8207  -15.0022   25.9356 C   0  0  2  0  0  0  0  0  0  0  0  0
    7.9024  -15.3959   24.8358 N   0  0  0  0  0  0  0  0  0  0  0  0
    9.1206  -16.1971   26.7628 C   0  0  0  0  0  0  0  0  0  0  0  0
    8.5256  -17.4306   26.6044 O   0  0  0  0  0  0  0  0  0  0  0  0
    9.9890  -16.1078   27.6995 O   0  0  0  0  0  0  0  0  0  0  0  0
  2  1  1  6
  3  2  1  0
  4  3  1  0
  5  2  1  0
  5  6  2  0
  7  5  1  0
  8  7  1  0
  8  9  1  1
 10  9  1  0
 11  8  1  0
 12 11  2  0
 13 14  1  0
 15 14  1  0
 16 15  1  0
 17 18  1  0
 17 16  1  1
 18 11  1  0
 19 17  1  0
 20 19  1  0
 21 19  2  0
M  END
$$$$
