CCM.pdb
     RDKit          3D

 21 20  0  0  1  0  0  0  0  0999 V2000
    7.9401  -15.0054   17.0480 N   0  0  0  0  0  0  0  0  0  0  0  0
    8.4783  -14.3915   18.2451 C   0  0  1  0  0  0  0  0  0  0  0  0
    7.7736  -13.0948   18.4775 C   0  0  0  0  0  0  0  0  0  0  0  0
    8.4240  -12.3952   20.0378 S   0  0  0  0  0  0  0  0  0  0  0  0
    8.4290  -15.3158   19.3980 C   0  0  0  0  0  0  0  0  0  0  0  0
    7.3661  -15.9534   19.6145 O   0  0  0  0  0  0  0  0  0  0  0  0
    9.5095  -15.5206   20.2676 N   0  0  0  0  0  0  0  0  0  0  0  0
    9.3774  -16.4296   21.4166 C   0  0  1  0  0  0  0  0  0  0  0  0
   10.5896  -17.3564   21.4209 C   0  0  0  0  0  0  0  0  0  0  0  0
   10.5880  -18.3928   22.8790 S   0  0  0  0  0  0  0  0  0  0  0  0
    9.3045  -15.5899   22.6213 C   0  0  0  0  0  0  0  0  0  0  0  0
   10.0855  -14.5975   22.7715 O   0  0  0  0  0  0  0  0  0  0  0  0
    6.9211  -11.1971   27.6340 C   0  0  0  0  0  0  0  0  0  0  0  0
    7.0942  -12.1025   26.0842 S   0  0  0  0  0  0  0  0  0  0  0  0
    6.8175  -13.8657   26.4324 C   0  0  0  0  0  0  0  0  0  0  0  0
    6.9882  -14.6771   25.1732 C   0  0  0  0  0  0  0  0  0  0  0  0
    8.4307  -14.9997   24.8639 C   0  0  2  0  0  0  0  0  0  0  0  0
    8.3755  -15.8466   23.6443 N   0  0  0  0  0  0  0  0  0  0  0  0
    9.0178  -15.7915   25.9732 C   0  0  0  0  0  0  0  0  0  0  0  0
    9.6546  -15.2523   27.0707 O   0  0  0  0  0  0  0  0  0  0  0  0
    8.9446  -17.0692   25.9370 O   0  0  0  0  0  0  0  0  0  0  0  0
  2  1  1  6
  3  2  1  0
  4  3  1  0
  5  2  1  0
  5  6  2  0
  7  5  1  0
  8  7  1  0
  8  9  1  1
 10  9  1  0
 11  8  1  0
 12 11  2  0
 13 14  1  0
 15 14  1  0
 16 15  1  0
 17 18  1  0
 17 16  1  1
 18 11  1  0
 19 17  1  0
 20 19  1  0
 21 19  2  0
M  END
$$$$
