CCM.pdb
     RDKit          3D

 21 20  0  0  1  0  0  0  0  0999 V2000
    9.1686  -15.0616   19.7256 N   0  0  0  0  0  0  0  0  0  0  0  0
    8.8292  -14.0088   20.6616 C   0  0  1  0  0  0  0  0  0  0  0  0
    7.8412  -13.0929   20.0157 C   0  0  0  0  0  0  0  0  0  0  0  0
    7.0719  -14.0117   18.6333 S   0  0  0  0  0  0  0  0  0  0  0  0
    8.3783  -14.5595   21.9575 C   0  0  0  0  0  0  0  0  0  0  0  0
    7.8087  -13.7902   22.7741 O   0  0  0  0  0  0  0  0  0  0  0  0
    8.5526  -15.9007   22.3269 N   0  0  0  0  0  0  0  0  0  0  0  0
    7.9936  -16.4025   23.5916 C   0  0  1  0  0  0  0  0  0  0  0  0
    7.7519  -17.9009   23.4337 C   0  0  0  0  0  0  0  0  0  0  0  0
    7.1359  -18.6061   24.9580 S   0  0  0  0  0  0  0  0  0  0  0  0
    8.9731  -16.0966   24.6445 C   0  0  0  0  0  0  0  0  0  0  0  0
   10.2201  -16.1001   24.3947 O   0  0  0  0  0  0  0  0  0  0  0  0
    6.7310  -12.1704   27.0036 C   0  0  0  0  0  0  0  0  0  0  0  0
    8.3706  -11.6768   27.5688 S   0  0  0  0  0  0  0  0  0  0  0  0
    9.5416  -12.9872   27.1012 C   0  0  0  0  0  0  0  0  0  0  0  0
    9.1273  -14.2989   27.7185 C   0  0  0  0  0  0  0  0  0  0  0  0
    9.6335  -15.5010   26.9576 C   0  0  2  0  0  0  0  0  0  0  0  0
    8.5738  -15.7883   25.9563 N   0  0  0  0  0  0  0  0  0  0  0  0
    9.7562  -16.6613   27.8745 C   0  0  0  0  0  0  0  0  0  0  0  0
   10.8510  -16.9191   28.6718 O   0  0  0  0  0  0  0  0  0  0  0  0
    8.7934  -17.5017   27.9527 O   0  0  0  0  0  0  0  0  0  0  0  0
  2  1  1  6
  3  2  1  0
  4  3  1  0
  5  2  1  0
  5  6  2  0
  7  5  1  0
  8  7  1  0
  8  9  1  6
 10  9  1  0
 11  8  1  0
 12 11  2  0
 13 14  1  0
 15 14  1  0
 16 15  1  0
 17 18  1  0
 17 16  1  1
 18 11  1  0
 19 17  1  0
 20 19  1  0
 21 19  2  0
M  END
$$$$
