CCM.pdb
     RDKit          3D

 21 20  0  0  1  0  0  0  0  0999 V2000
    6.0825  -19.1279   22.0407 N   0  0  0  0  0  0  0  0  0  0  0  0
    6.0581  -18.3612   23.2701 C   0  0  1  0  0  0  0  0  0  0  0  0
    6.4476  -19.2563   24.4012 C   0  0  0  0  0  0  0  0  0  0  0  0
    5.8187  -20.9294   24.0112 S   0  0  0  0  0  0  0  0  0  0  0  0
    6.8811  -17.1376   23.1628 C   0  0  0  0  0  0  0  0  0  0  0  0
    7.7310  -17.0618   22.2382 O   0  0  0  0  0  0  0  0  0  0  0  0
    6.7643  -16.0515   24.0416 N   0  0  0  0  0  0  0  0  0  0  0  0
    7.5570  -14.8313   23.8254 C   0  0  1  0  0  0  0  0  0  0  0  0
    6.7931  -13.6627   24.4410 C   0  0  0  0  0  0  0  0  0  0  0  0
    6.2724  -14.0550   26.1069 S   0  0  0  0  0  0  0  0  0  0  0  0
    8.8635  -15.0503   24.4631 C   0  0  0  0  0  0  0  0  0  0  0  0
    9.8262  -14.2421   24.2695 O   0  0  0  0  0  0  0  0  0  0  0  0
    9.8769  -12.4821   29.4831 C   0  0  0  0  0  0  0  0  0  0  0  0
   10.2470  -14.2318   29.2528 S   0  0  0  0  0  0  0  0  0  0  0  0
   10.2622  -14.5700   27.4662 C   0  0  0  0  0  0  0  0  0  0  0  0
   10.4999  -16.0379   27.2172 C   0  0  0  0  0  0  0  0  0  0  0  0
   10.4928  -16.4018   25.7515 C   0  0  2  0  0  0  0  0  0  0  0  0
    9.0977  -16.1501   25.3063 N   0  0  0  0  0  0  0  0  0  0  0  0
   10.7960  -17.8455   25.5905 C   0  0  0  0  0  0  0  0  0  0  0  0
    9.8714  -18.8076   25.2441 O   0  0  0  0  0  0  0  0  0  0  0  0
   11.9928  -18.2586   25.7811 O   0  0  0  0  0  0  0  0  0  0  0  0
  2  1  1  6
  3  2  1  0
  4  3  1  0
  5  2  1  0
  5  6  2  0
  7  5  1  0
  8  7  1  0
  8  9  1  1
 10  9  1  0
 11  8  1  0
 12 11  2  0
 13 14  1  0
 15 14  1  0
 16 15  1  0
 17 18  1  0
 17 16  1  1
 18 11  1  0
 19 17  1  0
 20 19  1  0
 21 19  2  0
M  END
$$$$
