CCM.pdb
     RDKit          3D

 21 20  0  0  1  0  0  0  0  0999 V2000
   10.9320  -18.0272   18.8662 N   0  0  0  0  0  0  0  0  0  0  0  0
    9.5563  -17.7250   19.2063 C   0  0  1  0  0  0  0  0  0  0  0  0
    8.8356  -19.0063   19.4731 C   0  0  0  0  0  0  0  0  0  0  0  0
    9.4223  -19.6332   21.0885 S   0  0  0  0  0  0  0  0  0  0  0  0
    9.4730  -16.7484   20.3132 C   0  0  0  0  0  0  0  0  0  0  0  0
   10.5354  -16.3971   20.8885 O   0  0  0  0  0  0  0  0  0  0  0  0
    8.2664  -16.1900   20.7584 N   0  0  0  0  0  0  0  0  0  0  0  0
    8.2620  -15.1994   21.8459 C   0  0  1  0  0  0  0  0  0  0  0  0
    6.9669  -14.3990   21.7434 C   0  0  0  0  0  0  0  0  0  0  0  0
    6.8245  -13.2496   23.1067 S   0  0  0  0  0  0  0  0  0  0  0  0
    8.3651  -15.9474   23.1074 C   0  0  0  0  0  0  0  0  0  0  0  0
    7.8729  -17.1153   23.2141 O   0  0  0  0  0  0  0  0  0  0  0  0
    9.4523  -13.1153   28.6338 C   0  0  0  0  0  0  0  0  0  0  0  0
   10.1345  -14.7035   29.1475 S   0  0  0  0  0  0  0  0  0  0  0  0
    9.6811  -15.9392   27.8928 C   0  0  0  0  0  0  0  0  0  0  0  0
    9.4658  -15.2705   26.5588 C   0  0  0  0  0  0  0  0  0  0  0  0
    9.0612  -16.2339   25.4684 C   0  0  2  0  0  0  0  0  0  0  0  0
    9.0080  -15.4076   24.2346 N   0  0  0  0  0  0  0  0  0  0  0  0
    7.7057  -16.7690   25.7479 C   0  0  0  0  0  0  0  0  0  0  0  0
    7.4500  -17.9637   26.3868 O   0  0  0  0  0  0  0  0  0  0  0  0
    6.6796  -16.0967   25.3811 O   0  0  0  0  0  0  0  0  0  0  0  0
  2  1  1  1
  3  2  1  0
  4  3  1  0
  5  2  1  0
  5  6  2  0
  7  5  1  0
  8  7  1  0
  8  9  1  1
 10  9  1  0
 11  8  1  0
 12 11  2  0
 13 14  1  0
 15 14  1  0
 16 15  1  0
 17 18  1  0
 17 16  1  1
 18 11  1  0
 19 17  1  0
 20 19  1  0
 21 19  2  0
M  END
$$$$
