CCM.pdb
     RDKit          3D

 21 20  0  0  1  0  0  0  0  0999 V2000
   10.5033  -16.6107   18.7004 N   0  0  0  0  0  0  0  0  0  0  0  0
   10.9221  -17.3945   19.8449 C   0  0  1  0  0  0  0  0  0  0  0  0
   12.3981  -17.2404   20.0176 C   0  0  0  0  0  0  0  0  0  0  0  0
   12.8900  -18.2805   21.4400 S   0  0  0  0  0  0  0  0  0  0  0  0
   10.1383  -17.0544   21.0515 C   0  0  0  0  0  0  0  0  0  0  0  0
    9.9547  -15.8409   21.3289 O   0  0  0  0  0  0  0  0  0  0  0  0
    9.5860  -18.0173   21.9078 N   0  0  0  0  0  0  0  0  0  0  0  0
    8.8037  -17.6058   23.0837 C   0  0  1  0  0  0  0  0  0  0  0  0
    7.7652  -18.6898   23.3567 C   0  0  0  0  0  0  0  0  0  0  0  0
    6.8132  -18.2993   24.8200 S   0  0  0  0  0  0  0  0  0  0  0  0
    9.7533  -17.4412   24.1941 C   0  0  0  0  0  0  0  0  0  0  0  0
   10.7770  -18.1896   24.2917 O   0  0  0  0  0  0  0  0  0  0  0  0
    9.3196  -12.6367   28.2333 C   0  0  0  0  0  0  0  0  0  0  0  0
   10.3033  -13.6453   29.3587 S   0  0  0  0  0  0  0  0  0  0  0  0
   10.8454  -15.1266   28.4539 C   0  0  0  0  0  0  0  0  0  0  0  0
   10.0932  -15.2450   27.1527 C   0  0  0  0  0  0  0  0  0  0  0  0
   10.5181  -16.4350   26.3257 C   0  0  2  0  0  0  0  0  0  0  0  0
    9.5706  -16.4576   25.1812 N   0  0  0  0  0  0  0  0  0  0  0  0
   10.3500  -17.6809   27.1140 C   0  0  0  0  0  0  0  0  0  0  0  0
   11.3618  -18.3174   27.8009 O   0  0  0  0  0  0  0  0  0  0  0  0
    9.1946  -18.2288   27.1797 O   0  0  0  0  0  0  0  0  0  0  0  0
  2  1  1  6
  3  2  1  0
  4  3  1  0
  5  2  1  0
  5  6  2  0
  7  5  1  0
  8  7  1  0
  8  9  1  1
 10  9  1  0
 11  8  1  0
 12 11  2  0
 13 14  1  0
 15 14  1  0
 16 15  1  0
 17 18  1  0
 17 16  1  1
 18 11  1  0
 19 17  1  0
 20 19  1  0
 21 19  2  0
M  END
$$$$
