CCM.pdb
     RDKit          3D

 21 20  0  0  1  0  0  0  0  0999 V2000
    8.1603  -14.7302   17.4012 N   0  0  0  0  0  0  0  0  0  0  0  0
    9.1636  -14.6140   18.4402 C   0  0  1  0  0  0  0  0  0  0  0  0
    9.3089  -13.1731   18.8076 C   0  0  0  0  0  0  0  0  0  0  0  0
    7.7674  -12.6706   19.6550 S   0  0  0  0  0  0  0  0  0  0  0  0
    8.8622  -15.4977   19.5866 C   0  0  0  0  0  0  0  0  0  0  0  0
    7.7003  -15.9680   19.6962 O   0  0  0  0  0  0  0  0  0  0  0  0
    9.8074  -15.8412   20.5635 N   0  0  0  0  0  0  0  0  0  0  0  0
    9.4587  -16.7856   21.6361 C   0  0  1  0  0  0  0  0  0  0  0  0
   10.4790  -17.9198   21.6100 C   0  0  0  0  0  0  0  0  0  0  0  0
   12.1429  -17.2768   21.7443 S   0  0  0  0  0  0  0  0  0  0  0  0
    9.4859  -16.0307   22.8975 C   0  0  0  0  0  0  0  0  0  0  0  0
   10.3159  -15.0828   23.0712 O   0  0  0  0  0  0  0  0  0  0  0  0
    6.5974  -11.1879   27.1907 C   0  0  0  0  0  0  0  0  0  0  0  0
    6.4864  -12.4522   25.9098 S   0  0  0  0  0  0  0  0  0  0  0  0
    7.2761  -13.9623   26.5443 C   0  0  0  0  0  0  0  0  0  0  0  0
    7.3274  -15.0145   25.4657 C   0  0  0  0  0  0  0  0  0  0  0  0
    8.7227  -15.5280   25.2009 C   0  0  2  0  0  0  0  0  0  0  0  0
    8.6023  -16.3221   23.9508 N   0  0  0  0  0  0  0  0  0  0  0  0
    9.1450  -16.4272   26.3032 C   0  0  0  0  0  0  0  0  0  0  0  0
    9.4689  -16.0092   27.5764 O   0  0  0  0  0  0  0  0  0  0  0  0
    9.2250  -17.6867   26.0875 O   0  0  0  0  0  0  0  0  0  0  0  0
  2  1  1  6
  3  2  1  0
  4  3  1  0
  5  2  1  0
  5  6  2  0
  7  5  1  0
  8  7  1  0
  8  9  1  1
 10  9  1  0
 11  8  1  0
 12 11  2  0
 13 14  1  0
 15 14  1  0
 16 15  1  0
 17 18  1  0
 17 16  1  1
 18 11  1  0
 19 17  1  0
 20 19  1  0
 21 19  2  0
M  END
$$$$
