SPV.pdb
     RDKit          3D

 21 21  0  0  1  0  0  0  0  0999 V2000
   10.1042  -18.5884   22.2729 O   0  0  0  0  0  0  0  0  0  0  0  0
   11.2806  -18.0192   21.8362 C   0  0  0  0  0  0  0  0  0  0  0  0
   10.8965  -16.7979   20.9814 C   0  0  2  0  0  0  0  0  0  0  0  0
   12.0463  -16.2318   20.3606 N   0  0  0  0  0  0  0  0  0  0  0  0
   10.1757  -15.8138   21.8000 C   0  0  0  0  0  0  0  0  0  0  0  0
   10.8510  -15.3036   22.7614 O   0  0  0  0  0  0  0  0  0  0  0  0
    8.8122  -15.4520   21.5405 N   0  0  0  0  0  0  0  0  0  0  0  0
    8.1300  -15.7393   20.2973 C   0  0  0  0  0  0  0  0  0  0  0  0
    6.7197  -15.2645   20.4831 C   0  0  0  0  0  0  0  0  0  0  0  0
    6.5290  -15.1670   21.9744 C   0  0  0  0  0  0  0  0  0  0  0  0
    7.9148  -14.7429   22.4023 C   0  0  1  0  0  0  0  0  0  0  0  0
    8.0980  -14.9272   23.8472 C   0  0  0  0  0  0  0  0  0  0  0  0
    8.6639  -15.9373   24.2847 O   0  0  0  0  0  0  0  0  0  0  0  0
    5.6969  -12.8423   26.7318 C   0  0  0  0  0  0  0  0  0  0  0  0
    7.2095  -12.9140   26.9334 C   0  0  2  0  0  0  0  0  0  0  0  0
    7.8096  -11.6440   26.4037 C   0  0  0  0  0  0  0  0  0  0  0  0
    7.7148  -14.1553   26.2369 C   0  0  2  0  0  0  0  0  0  0  0  0
    7.6409  -13.9630   24.8086 N   0  0  0  0  0  0  0  0  0  0  0  0
    7.0297  -15.3941   26.6749 C   0  0  0  0  0  0  0  0  0  0  0  0
    6.0770  -15.8397   25.9982 O   0  0  0  0  0  0  0  0  0  0  0  0
    7.4004  -16.0825   27.8056 O   0  0  0  0  0  0  0  0  0  0  0  0
  2  1  1  0
  2  3  1  0
  3  4  1  1
  5  3  1  0
  6  5  2  0
  7  5  1  0
  8  7  1  0
  9  8  1  0
 10  9  1  0
 10 11  1  0
 11  7  1  0
 11 12  1  1
 12 18  1  0
 13 12  2  0
 15 14  1  6
 15 16  1  0
 17 15  1  0
 17 18  1  6
 19 17  1  0
 19 21  1  0
 20 19  2  0
M  END
$$$$
