SPV.pdb
     RDKit          3D

 21 21  0  0  1  0  0  0  0  0999 V2000
    7.0010  -18.6079   24.7910 O   0  0  0  0  0  0  0  0  0  0  0  0
    6.1585  -18.1258   23.8131 C   0  0  0  0  0  0  0  0  0  0  0  0
    7.0031  -17.9597   22.5368 C   0  0  2  0  0  0  0  0  0  0  0  0
    7.7137  -19.1576   22.2397 N   0  0  0  0  0  0  0  0  0  0  0  0
    7.9044  -16.8078   22.6729 C   0  0  0  0  0  0  0  0  0  0  0  0
    8.9142  -16.9919   23.4389 O   0  0  0  0  0  0  0  0  0  0  0  0
    7.6683  -15.5653   21.9961 N   0  0  0  0  0  0  0  0  0  0  0  0
    6.7125  -15.4076   20.9214 C   0  0  0  0  0  0  0  0  0  0  0  0
    6.7322  -13.9513   20.5643 C   0  0  0  0  0  0  0  0  0  0  0  0
    7.3359  -13.2598   21.7588 C   0  0  0  0  0  0  0  0  0  0  0  0
    8.3213  -14.3099   22.2164 C   0  0  1  0  0  0  0  0  0  0  0  0
    8.7868  -14.0346   23.5813 C   0  0  0  0  0  0  0  0  0  0  0  0
    9.5140  -13.0601   23.8123 O   0  0  0  0  0  0  0  0  0  0  0  0
    6.3483  -13.8036   26.6901 C   0  0  0  0  0  0  0  0  0  0  0  0
    7.7587  -13.2948   26.3974 C   0  0  2  0  0  0  0  0  0  0  0  0
    7.6703  -12.2991   25.2774 C   0  0  0  0  0  0  0  0  0  0  0  0
    8.6277  -14.4876   26.0759 C   0  0  2  0  0  0  0  0  0  0  0  0
    8.4274  -14.8644   24.6972 N   0  0  0  0  0  0  0  0  0  0  0  0
    8.4308  -15.6248   27.0052 C   0  0  0  0  0  0  0  0  0  0  0  0
    7.8867  -16.6706   26.5875 O   0  0  0  0  0  0  0  0  0  0  0  0
    8.8251  -15.5795   28.3213 O   0  0  0  0  0  0  0  0  0  0  0  0
  2  1  1  0
  2  3  1  0
  3  4  1  1
  5  3  1  0
  6  5  2  0
  7  5  1  0
  8  7  1  0
  9  8  1  0
 10  9  1  0
 10 11  1  0
 11  7  1  0
 11 12  1  1
 12 18  1  0
 13 12  2  0
 15 14  1  6
 15 16  1  0
 17 15  1  0
 17 18  1  6
 19 17  1  0
 19 21  1  0
 20 19  2  0
M  END
$$$$
