SPV.pdb
     RDKit          3D

 21 21  0  0  1  0  0  0  0  0999 V2000
    7.4029  -16.7897   22.5016 O   0  0  0  0  0  0  0  0  0  0  0  0
    6.4983  -15.7504   22.4836 C   0  0  0  0  0  0  0  0  0  0  0  0
    7.3143  -14.4486   22.3866 C   0  0  2  0  0  0  0  0  0  0  0  0
    8.1531  -14.4606   21.2358 N   0  0  0  0  0  0  0  0  0  0  0  0
    8.0819  -14.2393   23.6215 C   0  0  0  0  0  0  0  0  0  0  0  0
    9.2597  -14.7427   23.6244 O   0  0  0  0  0  0  0  0  0  0  0  0
    7.5485  -13.5229   24.7438 N   0  0  0  0  0  0  0  0  0  0  0  0
    6.4412  -12.5962   24.6497 C   0  0  0  0  0  0  0  0  0  0  0  0
    6.1652  -12.1419   26.0519 C   0  0  0  0  0  0  0  0  0  0  0  0
    6.8016  -13.1820   26.9366 C   0  0  0  0  0  0  0  0  0  0  0  0
    8.0038  -13.5563   26.1012 C   0  0  1  0  0  0  0  0  0  0  0  0
    8.5990  -14.8136   26.5706 C   0  0  0  0  0  0  0  0  0  0  0  0
    8.0355  -15.8942   26.3550 O   0  0  0  0  0  0  0  0  0  0  0  0
   12.0239  -15.9246   25.8221 C   0  0  0  0  0  0  0  0  0  0  0  0
   11.9382  -16.0399   27.3431 C   0  0  2  0  0  0  0  0  0  0  0  0
   12.6947  -17.2680   27.7593 C   0  0  0  0  0  0  0  0  0  0  0  0
   10.4778  -16.0730   27.7270 C   0  0  2  0  0  0  0  0  0  0  0  0
    9.8427  -14.8538   27.2880 N   0  0  0  0  0  0  0  0  0  0  0  0
   10.2556  -16.3370   29.1680 C   0  0  0  0  0  0  0  0  0  0  0  0
   10.0180  -15.3797   29.9370 O   0  0  0  0  0  0  0  0  0  0  0  0
   10.2995  -17.6029   29.7021 O   0  0  0  0  0  0  0  0  0  0  0  0
  2  1  1  0
  2  3  1  0
  3  4  1  6
  5  3  1  0
  6  5  2  0
  7  5  1  0
  8  7  1  0
  9  8  1  0
 10  9  1  0
 10 11  1  0
 11  7  1  0
 11 12  1  1
 12 18  1  0
 13 12  2  0
 15 14  1  6
 15 16  1  0
 17 15  1  0
 17 18  1  1
 19 17  1  0
 19 21  1  0
 20 19  2  0
M  END
$$$$
