SPV.pdb
     RDKit          3D

 21 21  0  0  1  0  0  0  0  0999 V2000
    8.6150  -18.2658   20.8487 O   0  0  0  0  0  0  0  0  0  0  0  0
    9.9914  -18.2807   20.7850 C   0  0  0  0  0  0  0  0  0  0  0  0
   10.4335  -16.8776   20.3314 C   0  0  2  0  0  0  0  0  0  0  0  0
   11.8375  -16.8400   20.0958 N   0  0  0  0  0  0  0  0  0  0  0  0
   10.0168  -15.8721   21.3180 C   0  0  0  0  0  0  0  0  0  0  0  0
   10.6876  -15.8666   22.4090 O   0  0  0  0  0  0  0  0  0  0  0  0
    8.9344  -14.9626   21.0755 N   0  0  0  0  0  0  0  0  0  0  0  0
    8.4013  -14.6847   19.7594 C   0  0  0  0  0  0  0  0  0  0  0  0
    7.2458  -13.7528   19.9725 C   0  0  0  0  0  0  0  0  0  0  0  0
    6.8687  -13.9162   21.4218 C   0  0  0  0  0  0  0  0  0  0  0  0
    8.2274  -14.1670   22.0337 C   0  0  1  0  0  0  0  0  0  0  0  0
    8.1000  -14.7177   23.3886 C   0  0  0  0  0  0  0  0  0  0  0  0
    8.3210  -15.9165   23.6026 O   0  0  0  0  0  0  0  0  0  0  0  0
    5.6888  -12.9262   26.3810 C   0  0  0  0  0  0  0  0  0  0  0  0
    7.1189  -13.3018   26.7653 C   0  0  2  0  0  0  0  0  0  0  0  0
    7.9673  -12.0677   26.6616 C   0  0  0  0  0  0  0  0  0  0  0  0
    7.5683  -14.4200   25.8548 C   0  0  2  0  0  0  0  0  0  0  0  0
    7.7219  -13.9091   24.5139 N   0  0  0  0  0  0  0  0  0  0  0  0
    6.6865  -15.6097   25.9069 C   0  0  0  0  0  0  0  0  0  0  0  0
    6.7195  -16.3536   26.9117 O   0  0  0  0  0  0  0  0  0  0  0  0
    5.8237  -15.9345   24.8872 O   0  0  0  0  0  0  0  0  0  0  0  0
  2  1  1  0
  2  3  1  0
  3  4  1  1
  5  3  1  0
  6  5  2  0
  7  5  1  0
  8  7  1  0
  9  8  1  0
 10  9  1  0
 10 11  1  0
 11  7  1  0
 11 12  1  1
 12 18  1  0
 13 12  2  0
 15 14  1  6
 15 16  1  0
 17 15  1  0
 17 18  1  6
 19 17  1  0
 19 21  1  0
 20 19  2  0
M  END
$$$$
