SPV.pdb
     RDKit          3D

 21 21  0  0  1  0  0  0  0  0999 V2000
   10.2387  -19.5289   20.8194 O   0  0  0  0  0  0  0  0  0  0  0  0
   10.1904  -18.4079   21.6192 C   0  0  0  0  0  0  0  0  0  0  0  0
   10.3975  -17.1919   20.6982 C   0  0  2  0  0  0  0  0  0  0  0  0
   11.7634  -17.0750   20.3123 N   0  0  0  0  0  0  0  0  0  0  0  0
    9.9072  -15.9718   21.3531 C   0  0  0  0  0  0  0  0  0  0  0  0
   10.7295  -15.4195   22.1650 O   0  0  0  0  0  0  0  0  0  0  0  0
    8.5996  -15.4387   21.1008 N   0  0  0  0  0  0  0  0  0  0  0  0
    7.8396  -15.7154   19.9011 C   0  0  0  0  0  0  0  0  0  0  0  0
    6.5176  -15.0317   20.0853 C   0  0  0  0  0  0  0  0  0  0  0  0
    6.3962  -14.7997   21.5689 C   0  0  0  0  0  0  0  0  0  0  0  0
    7.8423  -14.5479   21.9277 C   0  0  1  0  0  0  0  0  0  0  0  0
    8.0495  -14.6508   23.3775 C   0  0  0  0  0  0  0  0  0  0  0  0
    8.4118  -15.7196   23.8858 O   0  0  0  0  0  0  0  0  0  0  0  0
    7.3528  -12.4466   27.7878 C   0  0  0  0  0  0  0  0  0  0  0  0
    7.0537  -12.5102   26.2910 C   0  0  2  0  0  0  0  0  0  0  0  0
    5.5715  -12.6761   26.1201 C   0  0  0  0  0  0  0  0  0  0  0  0
    7.8586  -13.6444   25.7022 C   0  0  2  0  0  0  0  0  0  0  0  0
    7.8487  -13.5380   24.2630 N   0  0  0  0  0  0  0  0  0  0  0  0
    7.4212  -14.9801   26.1714 C   0  0  0  0  0  0  0  0  0  0  0  0
    7.9569  -15.4795   27.1852 O   0  0  0  0  0  0  0  0  0  0  0  0
    6.4405  -15.7021   25.5335 O   0  0  0  0  0  0  0  0  0  0  0  0
  2  1  1  0
  2  3  1  0
  3  4  1  1
  5  3  1  0
  6  5  2  0
  7  5  1  0
  8  7  1  0
  9  8  1  0
 10  9  1  0
 10 11  1  0
 11  7  1  0
 11 12  1  1
 12 18  1  0
 13 12  2  0
 15 14  1  1
 15 16  1  0
 17 15  1  0
 17 18  1  6
 19 17  1  0
 19 21  1  0
 20 19  2  0
M  END
$$$$
