SPV.pdb
     RDKit          3D

 21 21  0  0  1  0  0  0  0  0999 V2000
   10.6047  -14.5498   20.0121 O   0  0  0  0  0  0  0  0  0  0  0  0
    9.9937  -13.4183   19.5172 C   0  0  0  0  0  0  0  0  0  0  0  0
    8.4851  -13.7175   19.4501 C   0  0  2  0  0  0  0  0  0  0  0  0
    7.7932  -12.6821   18.7591 N   0  0  0  0  0  0  0  0  0  0  0  0
    7.9499  -13.9260   20.8021 C   0  0  0  0  0  0  0  0  0  0  0  0
    8.0118  -12.9081   21.5770 O   0  0  0  0  0  0  0  0  0  0  0  0
    7.3985  -15.1814   21.2233 N   0  0  0  0  0  0  0  0  0  0  0  0
    7.0593  -16.2532   20.3124 C   0  0  0  0  0  0  0  0  0  0  0  0
    6.5961  -17.3916   21.1716 C   0  0  0  0  0  0  0  0  0  0  0  0
    7.1402  -17.0967   22.5451 C   0  0  0  0  0  0  0  0  0  0  0  0
    7.0616  -15.5877   22.5546 C   0  0  1  0  0  0  0  0  0  0  0  0
    7.8697  -15.0263   23.6441 C   0  0  0  0  0  0  0  0  0  0  0  0
    9.1047  -15.0079   23.5650 O   0  0  0  0  0  0  0  0  0  0  0  0
    6.0064  -13.0596   26.9911 C   0  0  0  0  0  0  0  0  0  0  0  0
    7.3754  -12.6778   26.4310 C   0  0  2  0  0  0  0  0  0  0  0  0
    7.1682  -11.6463   25.3601 C   0  0  0  0  0  0  0  0  0  0  0  0
    8.0435  -13.9374   25.9327 C   0  0  2  0  0  0  0  0  0  0  0  0
    7.2803  -14.4781   24.8337 N   0  0  0  0  0  0  0  0  0  0  0  0
    8.2807  -14.9376   27.0000 C   0  0  0  0  0  0  0  0  0  0  0  0
    7.5634  -15.9607   27.0516 O   0  0  0  0  0  0  0  0  0  0  0  0
    9.2665  -14.7877   27.9464 O   0  0  0  0  0  0  0  0  0  0  0  0
  2  1  1  0
  2  3  1  0
  3  4  1  1
  5  3  1  0
  6  5  2  0
  7  5  1  0
  8  7  1  0
  9  8  1  0
 10  9  1  0
 10 11  1  0
 11  7  1  0
 11 12  1  1
 12 18  1  0
 13 12  2  0
 15 14  1  6
 15 16  1  0
 17 15  1  0
 17 18  1  6
 19 17  1  0
 19 21  1  0
 20 19  2  0
M  END
$$$$
