SPV.pdb
     RDKit          3D

 21 21  0  0  1  0  0  0  0  0999 V2000
   11.1675  -19.5147   22.1773 O   0  0  0  0  0  0  0  0  0  0  0  0
   11.9534  -18.7394   21.3528 C   0  0  0  0  0  0  0  0  0  0  0  0
   11.0729  -17.5777   20.8580 C   0  0  2  0  0  0  0  0  0  0  0  0
   11.7727  -16.7801   19.9082 N   0  0  0  0  0  0  0  0  0  0  0  0
   10.5982  -16.7816   21.9977 C   0  0  0  0  0  0  0  0  0  0  0  0
   11.4966  -16.0885   22.5918 O   0  0  0  0  0  0  0  0  0  0  0  0
    9.2258  -16.7824   22.4150 N   0  0  0  0  0  0  0  0  0  0  0  0
    8.1453  -17.3149   21.6135 C   0  0  0  0  0  0  0  0  0  0  0  0
    6.9091  -17.1862   22.4526 C   0  0  0  0  0  0  0  0  0  0  0  0
    7.4058  -17.0326   23.8666 C   0  0  0  0  0  0  0  0  0  0  0  0
    8.6788  -16.2542   23.6286 C   0  0  1  0  0  0  0  0  0  0  0  0
    9.5434  -16.2853   24.8147 C   0  0  0  0  0  0  0  0  0  0  0  0
   10.3907  -17.1771   24.9510 O   0  0  0  0  0  0  0  0  0  0  0  0
   10.9289  -14.1194   29.0807 C   0  0  0  0  0  0  0  0  0  0  0  0
   10.1612  -14.0119   27.7643 C   0  0  2  0  0  0  0  0  0  0  0  0
    8.7682  -13.5466   28.0755 C   0  0  0  0  0  0  0  0  0  0  0  0
   10.2083  -15.3601   27.0852 C   0  0  2  0  0  0  0  0  0  0  0  0
    9.4538  -15.3006   25.8565 N   0  0  0  0  0  0  0  0  0  0  0  0
    9.7730  -16.4737   27.9605 C   0  0  0  0  0  0  0  0  0  0  0  0
    8.6097  -16.9199   27.8519 O   0  0  0  0  0  0  0  0  0  0  0  0
   10.6021  -17.0442   28.8970 O   0  0  0  0  0  0  0  0  0  0  0  0
  2  1  1  0
  2  3  1  0
  3  4  1  6
  5  3  1  0
  6  5  2  0
  7  5  1  0
  8  7  1  0
  9  8  1  0
 10  9  1  0
 10 11  1  0
 11  7  1  0
 11 12  1  1
 12 18  1  0
 13 12  2  0
 15 14  1  1
 15 16  1  0
 17 15  1  0
 17 18  1  6
 19 17  1  0
 19 21  1  0
 20 19  2  0
M  END
$$$$
