SPV.pdb
     RDKit          3D

 21 21  0  0  1  0  0  0  0  0999 V2000
    7.4558  -17.4302   16.6037 O   0  0  0  0  0  0  0  0  0  0  0  0
    8.5471  -17.2360   15.7852 C   0  0  0  0  0  0  0  0  0  0  0  0
    8.9841  -15.7706   15.9622 C   0  0  2  0  0  0  0  0  0  0  0  0
   10.0700  -15.4572   15.0957 N   0  0  0  0  0  0  0  0  0  0  0  0
    9.3129  -15.5071   17.3695 C   0  0  0  0  0  0  0  0  0  0  0  0
   10.2191  -16.2618   17.8692 O   0  0  0  0  0  0  0  0  0  0  0  0
    8.6635  -14.4781   18.1290 N   0  0  0  0  0  0  0  0  0  0  0  0
    7.8678  -13.4256   17.5352 C   0  0  0  0  0  0  0  0  0  0  0  0
    7.3203  -12.6280   18.6811 C   0  0  0  0  0  0  0  0  0  0  0  0
    7.4295  -13.5333   19.8803 C   0  0  0  0  0  0  0  0  0  0  0  0
    8.6999  -14.2804   19.5469 C   0  0  1  0  0  0  0  0  0  0  0  0
    8.8379  -15.4808   20.3808 C   0  0  0  0  0  0  0  0  0  0  0  0
    8.0827  -16.4480   20.2192 O   0  0  0  0  0  0  0  0  0  0  0  0
   12.3358  -16.2219   22.6524 C   0  0  0  0  0  0  0  0  0  0  0  0
   11.3538  -17.2950   22.1854 C   0  0  2  0  0  0  0  0  0  0  0  0
   11.7339  -17.6968   20.7898 C   0  0  0  0  0  0  0  0  0  0  0  0
    9.9580  -16.7275   22.2898 C   0  0  2  0  0  0  0  0  0  0  0  0
    9.8380  -15.5934   21.4055 N   0  0  0  0  0  0  0  0  0  0  0  0
    9.5588  -16.4032   23.6795 C   0  0  0  0  0  0  0  0  0  0  0  0
    9.4164  -15.2063   24.0129 O   0  0  0  0  0  0  0  0  0  0  0  0
    9.3352  -17.3723   24.6286 O   0  0  0  0  0  0  0  0  0  0  0  0
  2  1  1  0
  2  3  1  0
  3  4  1  6
  5  3  1  0
  6  5  2  0
  7  5  1  0
  8  7  1  0
  9  8  1  0
 10  9  1  0
 10 11  1  0
 11  7  1  0
 11 12  1  1
 12 18  1  0
 13 12  2  0
 15 14  1  6
 15 16  1  0
 17 15  1  0
 17 18  1  6
 19 17  1  0
 19 21  1  0
 20 19  2  0
M  END
$$$$
