SPV.pdb
     RDKit          3D

 21 21  0  0  1  0  0  0  0  0999 V2000
    7.4552  -18.1688   18.7810 O   0  0  0  0  0  0  0  0  0  0  0  0
    7.1097  -17.5604   17.5939 C   0  0  0  0  0  0  0  0  0  0  0  0
    8.1842  -16.4959   17.3074 C   0  0  2  0  0  0  0  0  0  0  0  0
    9.1545  -16.9893   16.3891 N   0  0  0  0  0  0  0  0  0  0  0  0
    8.7984  -16.0459   18.5637 C   0  0  0  0  0  0  0  0  0  0  0  0
    9.6689  -16.8423   19.0621 O   0  0  0  0  0  0  0  0  0  0  0  0
    8.4462  -14.8030   19.1872 N   0  0  0  0  0  0  0  0  0  0  0  0
    7.7442  -13.7363   18.5070 C   0  0  0  0  0  0  0  0  0  0  0  0
    7.5151  -12.6720   19.5383 C   0  0  0  0  0  0  0  0  0  0  0  0
    7.6655  -13.3690   20.8654 C   0  0  0  0  0  0  0  0  0  0  0  0
    8.7341  -14.3818   20.5253 C   0  0  1  0  0  0  0  0  0  0  0  0
    8.8088  -15.4309   21.5496 C   0  0  0  0  0  0  0  0  0  0  0  0
    7.8043  -16.0892   21.8488 O   0  0  0  0  0  0  0  0  0  0  0  0
   12.2552  -17.5399   22.3970 C   0  0  0  0  0  0  0  0  0  0  0  0
   10.8348  -17.9460   22.7859 C   0  0  2  0  0  0  0  0  0  0  0  0
   10.1795  -18.5560   21.5809 C   0  0  0  0  0  0  0  0  0  0  0  0
   10.1230  -16.7178   23.3017 C   0  0  2  0  0  0  0  0  0  0  0  0
   10.0279  -15.7428   22.2421 N   0  0  0  0  0  0  0  0  0  0  0  0
   10.7343  -16.1575   24.5298 C   0  0  0  0  0  0  0  0  0  0  0  0
   10.7084  -16.8253   25.5869 O   0  0  0  0  0  0  0  0  0  0  0  0
   11.3355  -14.9216   24.5575 O   0  0  0  0  0  0  0  0  0  0  0  0
  2  1  1  0
  2  3  1  0
  3  4  1  6
  5  3  1  0
  6  5  2  0
  7  5  1  0
  8  7  1  0
  9  8  1  0
 10  9  1  0
 10 11  1  0
 11  7  1  0
 11 12  1  1
 12 18  1  0
 13 12  2  0
 15 14  1  6
 15 16  1  0
 17 15  1  0
 17 18  1  6
 19 17  1  0
 19 21  1  0
 20 19  2  0
M  END
$$$$
