SPV.pdb
     RDKit          3D

 21 21  0  0  1  0  0  0  0  0999 V2000
   11.4181  -18.0517   22.9598 O   0  0  0  0  0  0  0  0  0  0  0  0
   10.6608  -18.3433   21.8462 C   0  0  0  0  0  0  0  0  0  0  0  0
   10.7587  -17.1271   20.9075 C   0  0  2  0  0  0  0  0  0  0  0  0
   12.1174  -16.8339   20.5977 N   0  0  0  0  0  0  0  0  0  0  0  0
   10.0711  -15.9728   21.5015 C   0  0  0  0  0  0  0  0  0  0  0  0
   10.8010  -15.2229   22.2400 O   0  0  0  0  0  0  0  0  0  0  0  0
    8.6806  -15.7066   21.2708 N   0  0  0  0  0  0  0  0  0  0  0  0
    7.9377  -16.2421   20.1506 C   0  0  0  0  0  0  0  0  0  0  0  0
    6.5226  -15.7828   20.3387 C   0  0  0  0  0  0  0  0  0  0  0  0
    6.4177  -15.4130   21.7954 C   0  0  0  0  0  0  0  0  0  0  0  0
    7.8077  -14.8753   22.0441 C   0  0  1  0  0  0  0  0  0  0  0  0
    8.0847  -14.7798   23.4827 C   0  0  0  0  0  0  0  0  0  0  0  0
    8.6255  -15.7181   24.0818 O   0  0  0  0  0  0  0  0  0  0  0  0
    7.6058  -12.0508   27.6272 C   0  0  0  0  0  0  0  0  0  0  0  0
    7.1616  -12.3066   26.1881 C   0  0  2  0  0  0  0  0  0  0  0  0
    5.6669  -12.4463   26.1811 C   0  0  0  0  0  0  0  0  0  0  0  0
    7.8838  -13.5353   25.6882 C   0  0  2  0  0  0  0  0  0  0  0  0
    7.7508  -13.6146   24.2534 N   0  0  0  0  0  0  0  0  0  0  0  0
    7.4562  -14.7830   26.3636 C   0  0  0  0  0  0  0  0  0  0  0  0
    6.4386  -15.3838   25.9542 O   0  0  0  0  0  0  0  0  0  0  0  0
    8.1376  -15.3147   27.4326 O   0  0  0  0  0  0  0  0  0  0  0  0
  2  1  1  0
  2  3  1  0
  3  4  1  1
  5  3  1  0
  6  5  2  0
  7  5  1  0
  8  7  1  0
  9  8  1  0
 10  9  1  0
 10 11  1  0
 11  7  1  0
 11 12  1  1
 12 18  1  0
 13 12  2  0
 15 14  1  1
 15 16  1  0
 17 15  1  0
 17 18  1  6
 19 17  1  0
 19 21  1  0
 20 19  2  0
M  END
$$$$
