WMK.pdb
     RDKit          3D

 32 33  0  0  1  0  0  0  0  0999 V2000
    6.6131  -17.5593   25.3020 N   0  0  0  0  0  0  0  0  0  0  0  0
    7.1312  -16.4131   24.5552 C   0  0  1  0  0  0  0  0  0  0  0  0
    8.3992  -15.9740   25.2822 C   0  0  0  0  0  0  0  0  0  0  0  0
    8.0143  -15.1800   26.4686 C   0  0  0  0  0  0  0  0  0  0  0  0
    7.9776  -15.5403   27.8047 C   0  0  0  0  0  0  0  0  0  0  0  0
    7.5614  -14.4880   28.5339 N   0  0  0  0  0  0  0  0  0  0  0  0
    7.3188  -13.4365   27.7301 C   0  0  0  0  0  0  0  0  0  0  0  0
    6.8830  -12.1640   28.0170 C   0  0  0  0  0  0  0  0  0  0  0  0
    6.7191  -11.2692   26.9599 C   0  0  0  0  0  0  0  0  0  0  0  0
    6.9934  -11.6756   25.6751 C   0  0  0  0  0  0  0  0  0  0  0  0
    7.4242  -12.9450   25.4227 C   0  0  0  0  0  0  0  0  0  0  0  0
    7.5998  -13.8641   26.4434 C   0  0  0  0  0  0  0  0  0  0  0  0
    7.4325  -16.8483   23.1720 C   0  0  0  0  0  0  0  0  0  0  0  0
    7.5177  -18.0803   22.9044 O   0  0  0  0  0  0  0  0  0  0  0  0
    8.3328  -11.0972   19.3241 C   0  0  0  0  0  0  0  0  0  0  0  0
    7.7178  -12.7402   18.8533 S   0  0  0  0  0  0  0  0  0  0  0  0
    8.2179  -13.9780   20.1286 C   0  0  0  0  0  0  0  0  0  0  0  0
    7.6657  -15.3250   19.7524 C   0  0  0  0  0  0  0  0  0  0  0  0
    7.9768  -16.3869   20.7576 C   0  0  2  0  0  0  0  0  0  0  0  0
    7.6350  -15.9281   22.1073 N   0  0  0  0  0  0  0  0  0  0  0  0
    9.4189  -16.7774   20.7398 C   0  0  0  0  0  0  0  0  0  0  0  0
    9.8985  -17.3508   19.7143 O   0  0  0  0  0  0  0  0  0  0  0  0
   10.2495  -16.5111   21.8590 N   0  0  0  0  0  0  0  0  0  0  0  0
   11.6712  -16.6466   21.7404 C   0  0  1  0  0  0  0  0  0  0  0  0
   12.2996  -15.5315   20.9652 C   0  0  0  0  0  0  0  0  0  0  0  0
   12.7509  -15.8070   19.5994 C   0  0  0  0  0  0  0  0  0  0  0  0
   13.8213  -15.0034   18.9871 C   0  0  0  0  0  0  0  0  0  0  0  0
   14.1616  -15.2839   17.5641 C   0  0  0  0  0  0  0  0  0  0  0  0
   15.2955  -14.4694   17.1057 N   0  0  0  0  0  0  0  0  0  0  0  0
   12.2513  -16.8961   23.0645 C   0  0  0  0  0  0  0  0  0  0  0  0
   11.6288  -16.5320   24.0913 O   0  0  0  0  0  0  0  0  0  0  0  0
   13.4604  -17.5232   23.2217 O   0  0  0  0  0  0  0  0  0  0  0  0
  2  1  1  1
  2 13  1  0
  2  3  1  0
  4  3  1  0
  4  5  2  0
  6  5  1  0
  7 12  2  0
  7  6  1  0
  8  7  1  0
  9 10  1  0
  9  8  2  0
 10 11  2  0
 11 12  1  0
 12  4  1  0
 13 14  2  0
 16 15  1  0
 17 16  1  0
 18 17  1  0
 19 18  1  6
 20 19  1  0
 20 13  1  0
 21 19  1  0
 22 21  2  0
 23 21  1  0
 24 23  1  0
 24 25  1  1
 25 26  1  0
 26 27  1  0
 27 28  1  0
 28 29  1  0
 30 24  1  0
 31 30  2  0
 32 30  1  0
M  END
$$$$
