WMK.pdb
     RDKit          3D

 32 33  0  0  1  0  0  0  0  0999 V2000
    6.6787  -17.9961   25.0938 N   0  0  0  0  0  0  0  0  0  0  0  0
    7.2187  -16.7110   24.6504 C   0  0  1  0  0  0  0  0  0  0  0  0
    8.3682  -16.3860   25.6003 C   0  0  0  0  0  0  0  0  0  0  0  0
    7.8398  -15.5892   26.7283 C   0  0  0  0  0  0  0  0  0  0  0  0
    7.3794  -16.0005   27.9673 C   0  0  0  0  0  0  0  0  0  0  0  0
    6.9930  -14.9220   28.6743 N   0  0  0  0  0  0  0  0  0  0  0  0
    7.1797  -13.8038   27.9496 C   0  0  0  0  0  0  0  0  0  0  0  0
    6.9351  -12.4840   28.2490 C   0  0  0  0  0  0  0  0  0  0  0  0
    7.2339  -11.5226   27.2838 C   0  0  0  0  0  0  0  0  0  0  0  0
    7.7582  -11.9125   26.0738 C   0  0  0  0  0  0  0  0  0  0  0  0
    7.9895  -13.2301   25.8067 C   0  0  0  0  0  0  0  0  0  0  0  0
    7.7070  -14.2158   26.7372 C   0  0  0  0  0  0  0  0  0  0  0  0
    7.7020  -16.8574   23.2581 C   0  0  0  0  0  0  0  0  0  0  0  0
    7.8421  -18.0095   22.7585 O   0  0  0  0  0  0  0  0  0  0  0  0
    7.0896  -12.0858   18.9687 C   0  0  0  0  0  0  0  0  0  0  0  0
    8.3151  -13.0559   18.0433 S   0  0  0  0  0  0  0  0  0  0  0  0
    8.5103  -14.7166   18.8262 C   0  0  0  0  0  0  0  0  0  0  0  0
    8.2145  -14.6071   20.2963 C   0  0  0  0  0  0  0  0  0  0  0  0
    8.3569  -15.9071   21.0206 C   0  0  2  0  0  0  0  0  0  0  0  0
    8.0230  -15.7410   22.4383 N   0  0  0  0  0  0  0  0  0  0  0  0
    9.7408  -16.4617   20.9204 C   0  0  0  0  0  0  0  0  0  0  0  0
   10.1033  -17.0485   19.8552 O   0  0  0  0  0  0  0  0  0  0  0  0
   10.6459  -16.3355   22.0058 N   0  0  0  0  0  0  0  0  0  0  0  0
   11.8894  -17.0473   21.9840 C   0  0  1  0  0  0  0  0  0  0  0  0
   13.0380  -16.1993   21.5355 C   0  0  0  0  0  0  0  0  0  0  0  0
   13.2464  -16.0219   20.0968 C   0  0  0  0  0  0  0  0  0  0  0  0
   13.1150  -14.6925   19.4786 C   0  0  0  0  0  0  0  0  0  0  0  0
   12.7571  -14.6401   18.0334 C   0  0  0  0  0  0  0  0  0  0  0  0
   13.8630  -15.1008   17.1826 N   0  0  0  0  0  0  0  0  0  0  0  0
   12.0807  -17.7379   23.2641 C   0  0  0  0  0  0  0  0  0  0  0  0
   12.9787  -18.6080   23.3695 O   0  0  0  0  0  0  0  0  0  0  0  0
   11.3076  -17.4608   24.3620 O   0  0  0  0  0  0  0  0  0  0  0  0
  2  1  1  1
  2 13  1  0
  2  3  1  0
  4  3  1  0
  4  5  2  0
  6  5  1  0
  7 12  2  0
  7  6  1  0
  8  7  1  0
  9 10  1  0
  9  8  2  0
 10 11  2  0
 11 12  1  0
 12  4  1  0
 13 14  2  0
 16 15  1  0
 17 16  1  0
 18 17  1  0
 19 18  1  6
 20 19  1  0
 20 13  1  0
 21 19  1  0
 22 21  2  0
 23 21  1  0
 24 23  1  0
 24 25  1  1
 25 26  1  0
 26 27  1  0
 27 28  1  0
 28 29  1  0
 30 24  1  0
 31 30  2  0
 32 30  1  0
M  END
$$$$
