WMK.pdb
     RDKit          3D

 32 33  0  0  1  0  0  0  0  0999 V2000
    7.9988  -19.1754   26.2614 N   0  0  0  0  0  0  0  0  0  0  0  0
    8.5293  -17.8270   26.0606 C   0  0  1  0  0  0  0  0  0  0  0  0
   10.0379  -17.9322   26.2664 C   0  0  0  0  0  0  0  0  0  0  0  0
   10.3555  -17.5354   27.6549 C   0  0  0  0  0  0  0  0  0  0  0  0
   10.8455  -18.2927   28.7050 C   0  0  0  0  0  0  0  0  0  0  0  0
   10.9801  -17.5071   29.7900 N   0  0  0  0  0  0  0  0  0  0  0  0
   10.5967  -16.2503   29.5002 C   0  0  0  0  0  0  0  0  0  0  0  0
   10.5587  -15.1172   30.2788 C   0  0  0  0  0  0  0  0  0  0  0  0
   10.1066  -13.9328   29.6975 C   0  0  0  0  0  0  0  0  0  0  0  0
    9.7156  -13.9271   28.3792 C   0  0  0  0  0  0  0  0  0  0  0  0
    9.7649  -15.0680   27.6329 C   0  0  0  0  0  0  0  0  0  0  0  0
   10.2072  -16.2645   28.1715 C   0  0  0  0  0  0  0  0  0  0  0  0
    8.2076  -17.3940   24.6813 C   0  0  0  0  0  0  0  0  0  0  0  0
    7.9783  -18.2577   23.7880 O   0  0  0  0  0  0  0  0  0  0  0  0
    6.4220  -11.1739   25.9020 C   0  0  0  0  0  0  0  0  0  0  0  0
    6.3993  -11.9400   24.2553 S   0  0  0  0  0  0  0  0  0  0  0  0
    7.0719  -13.6562   24.3607 C   0  0  0  0  0  0  0  0  0  0  0  0
    7.1946  -14.2244   22.9741 C   0  0  0  0  0  0  0  0  0  0  0  0
    7.7229  -15.6228   22.9590 C   0  0  2  0  0  0  0  0  0  0  0  0
    8.1428  -16.0245   24.3049 N   0  0  0  0  0  0  0  0  0  0  0  0
    8.8850  -15.7785   22.0327 C   0  0  0  0  0  0  0  0  0  0  0  0
    8.6823  -15.8476   20.7819 O   0  0  0  0  0  0  0  0  0  0  0  0
   10.2069  -15.8488   22.5436 N   0  0  0  0  0  0  0  0  0  0  0  0
   11.2944  -16.1676   21.6666 C   0  0  1  0  0  0  0  0  0  0  0  0
   11.8437  -14.9681   20.9604 C   0  0  0  0  0  0  0  0  0  0  0  0
   12.7058  -15.1852   19.7965 C   0  0  0  0  0  0  0  0  0  0  0  0
   13.2976  -14.0444   19.0788 C   0  0  0  0  0  0  0  0  0  0  0  0
   14.1528  -14.3463   17.8969 C   0  0  0  0  0  0  0  0  0  0  0  0
   14.7964  -13.1356   17.3683 N   0  0  0  0  0  0  0  0  0  0  0  0
   12.2817  -16.9798   22.3862 C   0  0  0  0  0  0  0  0  0  0  0  0
   12.3710  -18.2069   22.1399 O   0  0  0  0  0  0  0  0  0  0  0  0
   13.1219  -16.4391   23.3252 O   0  0  0  0  0  0  0  0  0  0  0  0
  2  1  1  6
  2 13  1  0
  2  3  1  0
  4  3  1  0
  4  5  2  0
  6  5  1  0
  7 12  2  0
  7  6  1  0
  8  7  1  0
  9 10  1  0
  9  8  2  0
 10 11  2  0
 11 12  1  0
 12  4  1  0
 13 14  2  0
 16 15  1  0
 17 16  1  0
 18 17  1  0
 19 18  1  1
 20 19  1  0
 20 13  1  0
 21 19  1  0
 22 21  2  0
 23 21  1  0
 24 23  1  0
 24 25  1  1
 25 26  1  0
 26 27  1  0
 27 28  1  0
 28 29  1  0
 30 24  1  0
 31 30  2  0
 32 30  1  0
M  END
$$$$
