WMK.pdb
     RDKit          3D

 32 33  0  0  1  0  0  0  0  0999 V2000
    6.0925  -18.7336   25.6009 N   0  0  0  0  0  0  0  0  0  0  0  0
    6.7738  -17.4428   25.5027 C   0  0  1  0  0  0  0  0  0  0  0  0
    7.9841  -17.5331   26.4282 C   0  0  0  0  0  0  0  0  0  0  0  0
    7.8529  -16.5039   27.4816 C   0  0  0  0  0  0  0  0  0  0  0  0
    7.8550  -16.6380   28.8595 C   0  0  0  0  0  0  0  0  0  0  0  0
    7.7058  -15.4235   29.4208 N   0  0  0  0  0  0  0  0  0  0  0  0
    7.6041  -14.4824   28.4646 C   0  0  0  0  0  0  0  0  0  0  0  0
    7.4423  -13.1195   28.5544 C   0  0  0  0  0  0  0  0  0  0  0  0
    7.3677  -12.3850   27.3712 C   0  0  0  0  0  0  0  0  0  0  0  0
    7.4564  -13.0323   26.1612 C   0  0  0  0  0  0  0  0  0  0  0  0
    7.6166  -14.3858   26.1051 C   0  0  0  0  0  0  0  0  0  0  0  0
    7.6953  -15.1518   27.2559 C   0  0  0  0  0  0  0  0  0  0  0  0
    7.1912  -17.2353   24.0970 C   0  0  0  0  0  0  0  0  0  0  0  0
    7.6129  -18.2119   23.4150 O   0  0  0  0  0  0  0  0  0  0  0  0
    8.3959  -11.9405   18.2355 C   0  0  0  0  0  0  0  0  0  0  0  0
    7.6083  -12.3378   19.8232 S   0  0  0  0  0  0  0  0  0  0  0  0
    8.0828  -14.0455   20.3403 C   0  0  0  0  0  0  0  0  0  0  0  0
    7.4501  -14.3527   21.6692 C   0  0  0  0  0  0  0  0  0  0  0  0
    7.6828  -15.7598   22.1172 C   0  0  2  0  0  0  0  0  0  0  0  0
    7.1395  -15.9635   23.4634 N   0  0  0  0  0  0  0  0  0  0  0  0
    9.1339  -16.1160   22.1319 C   0  0  0  0  0  0  0  0  0  0  0  0
    9.8490  -15.7834   23.1260 O   0  0  0  0  0  0  0  0  0  0  0  0
    9.7120  -16.8207   21.0444 N   0  0  0  0  0  0  0  0  0  0  0  0
   11.0746  -17.2576   21.1212 C   0  0  1  0  0  0  0  0  0  0  0  0
   11.4276  -18.2526   20.0607 C   0  0  0  0  0  0  0  0  0  0  0  0
   12.7921  -18.7842   20.0376 C   0  0  0  0  0  0  0  0  0  0  0  0
   13.2217  -19.7005   18.9686 C   0  0  0  0  0  0  0  0  0  0  0  0
   14.6275  -20.1916   19.0097 C   0  0  0  0  0  0  0  0  0  0  0  0
   14.7757  -21.3405   19.9138 N   0  0  0  0  0  0  0  0  0  0  0  0
   11.9589  -16.0903   21.2068 C   0  0  0  0  0  0  0  0  0  0  0  0
   12.8580  -16.0580   22.0815 O   0  0  0  0  0  0  0  0  0  0  0  0
   11.8394  -15.0238   20.3533 O   0  0  0  0  0  0  0  0  0  0  0  0
  2  1  1  6
  2 13  1  0
  2  3  1  0
  4  3  1  0
  4  5  2  0
  6  5  1  0
  7 12  2  0
  7  6  1  0
  8  7  1  0
  9 10  1  0
  9  8  2  0
 10 11  2  0
 11 12  1  0
 12  4  1  0
 13 14  2  0
 16 15  1  0
 17 16  1  0
 18 17  1  0
 19 18  1  1
 20 19  1  0
 20 13  1  0
 21 19  1  0
 22 21  2  0
 23 21  1  0
 24 23  1  0
 24 25  1  6
 25 26  1  0
 26 27  1  0
 27 28  1  0
 28 29  1  0
 30 24  1  0
 31 30  2  0
 32 30  1  0
M  END
$$$$
