WMK.pdb
     RDKit          3D

 32 33  0  0  1  0  0  0  0  0999 V2000
    6.3170  -17.6206   26.0328 N   0  0  0  0  0  0  0  0  0  0  0  0
    7.1616  -16.5312   25.5433 C   0  0  1  0  0  0  0  0  0  0  0  0
    8.2893  -16.3818   26.5608 C   0  0  0  0  0  0  0  0  0  0  0  0
    8.1995  -15.0393   27.1739 C   0  0  0  0  0  0  0  0  0  0  0  0
    8.8976  -14.5021   28.2419 C   0  0  0  0  0  0  0  0  0  0  0  0
    8.4819  -13.2386   28.4496 N   0  0  0  0  0  0  0  0  0  0  0  0
    7.5296  -12.9133   27.5564 C   0  0  0  0  0  0  0  0  0  0  0  0
    6.8187  -11.7492   27.3802 C   0  0  0  0  0  0  0  0  0  0  0  0
    5.8778  -11.7006   26.3518 C   0  0  0  0  0  0  0  0  0  0  0  0
    5.6868  -12.8020   25.5509 C   0  0  0  0  0  0  0  0  0  0  0  0
    6.4078  -13.9426   25.7512 C   0  0  0  0  0  0  0  0  0  0  0  0
    7.3514  -14.0324   26.7606 C   0  0  0  0  0  0  0  0  0  0  0  0
    7.6904  -16.9060   24.2117 C   0  0  0  0  0  0  0  0  0  0  0  0
    7.9594  -18.1145   23.9588 O   0  0  0  0  0  0  0  0  0  0  0  0
    8.8270  -11.2291   19.9313 C   0  0  0  0  0  0  0  0  0  0  0  0
    8.1501  -12.8915   19.6532 S   0  0  0  0  0  0  0  0  0  0  0  0
    8.6719  -14.0108   21.0258 C   0  0  0  0  0  0  0  0  0  0  0  0
    8.0437  -15.3622   20.8266 C   0  0  0  0  0  0  0  0  0  0  0  0
    8.4415  -16.3527   21.8733 C   0  0  2  0  0  0  0  0  0  0  0  0
    7.9151  -15.9522   23.1815 N   0  0  0  0  0  0  0  0  0  0  0  0
    9.9248  -16.4960   21.9818 C   0  0  0  0  0  0  0  0  0  0  0  0
   10.5510  -15.8520   22.8782 O   0  0  0  0  0  0  0  0  0  0  0  0
   10.6320  -17.3446   21.0911 N   0  0  0  0  0  0  0  0  0  0  0  0
   12.0225  -17.6107   21.3124 C   0  0  1  0  0  0  0  0  0  0  0  0
   12.5114  -18.8121   20.5661 C   0  0  0  0  0  0  0  0  0  0  0  0
   13.9147  -19.2003   20.7232 C   0  0  0  0  0  0  0  0  0  0  0  0
   14.4220  -20.4410   20.1149 C   0  0  0  0  0  0  0  0  0  0  0  0
   15.8685  -20.7505   20.2919 C   0  0  0  0  0  0  0  0  0  0  0  0
   16.2092  -22.0776   19.7609 N   0  0  0  0  0  0  0  0  0  0  0  0
   12.7958  -16.3822   21.1008 C   0  0  0  0  0  0  0  0  0  0  0  0
   13.7330  -16.0981   21.8854 O   0  0  0  0  0  0  0  0  0  0  0  0
   12.5308  -15.5264   20.0628 O   0  0  0  0  0  0  0  0  0  0  0  0
  2  1  1  1
  2 13  1  0
  2  3  1  0
  4  3  1  0
  4  5  2  0
  6  5  1  0
  7 12  2  0
  7  6  1  0
  8  7  1  0
  9 10  1  0
  9  8  2  0
 10 11  2  0
 11 12  1  0
 12  4  1  0
 13 14  2  0
 16 15  1  0
 17 16  1  0
 18 17  1  0
 19 18  1  6
 20 19  1  0
 20 13  1  0
 21 19  1  0
 22 21  2  0
 23 21  1  0
 24 23  1  0
 24 25  1  6
 25 26  1  0
 26 27  1  0
 27 28  1  0
 28 29  1  0
 30 24  1  0
 31 30  2  0
 32 30  1  0
M  END
$$$$
