WMK.pdb
     RDKit          3D

 32 33  0  0  1  0  0  0  0  0999 V2000
    5.8036  -18.0296   24.4961 N   0  0  0  0  0  0  0  0  0  0  0  0
    6.5964  -16.9132   23.9815 C   0  0  1  0  0  0  0  0  0  0  0  0
    7.3743  -16.3632   25.1738 C   0  0  0  0  0  0  0  0  0  0  0  0
    6.7735  -15.0739   25.5776 C   0  0  0  0  0  0  0  0  0  0  0  0
    5.4425  -14.7149   25.7031 C   0  0  0  0  0  0  0  0  0  0  0  0
    5.3677  -13.4302   26.0983 N   0  0  0  0  0  0  0  0  0  0  0  0
    6.6039  -12.9186   26.2414 C   0  0  0  0  0  0  0  0  0  0  0  0
    7.0224  -11.6649   26.6218 C   0  0  0  0  0  0  0  0  0  0  0  0
    8.3936  -11.4177   26.6824 C   0  0  0  0  0  0  0  0  0  0  0  0
    9.2808  -12.4193   26.3649 C   0  0  0  0  0  0  0  0  0  0  0  0
    8.8344  -13.6528   25.9909 C   0  0  0  0  0  0  0  0  0  0  0  0
    7.4817  -13.9395   25.9179 C   0  0  0  0  0  0  0  0  0  0  0  0
    7.5126  -17.4268   22.9374 C   0  0  0  0  0  0  0  0  0  0  0  0
    7.0894  -18.2527   22.0798 O   0  0  0  0  0  0  0  0  0  0  0  0
    6.9615  -12.6867   20.8266 C   0  0  0  0  0  0  0  0  0  0  0  0
    7.7612  -13.4015   19.3608 S   0  0  0  0  0  0  0  0  0  0  0  0
    8.9870  -14.6790   19.8845 C   0  0  0  0  0  0  0  0  0  0  0  0
    8.5359  -15.2942   21.1802 C   0  0  0  0  0  0  0  0  0  0  0  0
    9.4138  -16.4166   21.6323 C   0  0  2  0  0  0  0  0  0  0  0  0
    8.8744  -17.0276   22.8508 N   0  0  0  0  0  0  0  0  0  0  0  0
   10.8120  -15.9661   21.9058 C   0  0  0  0  0  0  0  0  0  0  0  0
   11.4484  -15.3269   21.0132 O   0  0  0  0  0  0  0  0  0  0  0  0
   11.4272  -16.2489   23.1527 N   0  0  0  0  0  0  0  0  0  0  0  0
   12.6288  -17.0286   23.1947 C   0  0  1  0  0  0  0  0  0  0  0  0
   12.3712  -18.5002   23.1082 C   0  0  0  0  0  0  0  0  0  0  0  0
   13.5222  -19.3981   22.9905 C   0  0  0  0  0  0  0  0  0  0  0  0
   13.3281  -20.8426   22.7846 C   0  0  0  0  0  0  0  0  0  0  0  0
   14.5477  -21.6827   22.6226 C   0  0  0  0  0  0  0  0  0  0  0  0
   14.5548  -22.8165   23.5573 N   0  0  0  0  0  0  0  0  0  0  0  0
   13.5893  -16.5006   22.2197 C   0  0  0  0  0  0  0  0  0  0  0  0
   13.2390  -16.3524   21.0239 O   0  0  0  0  0  0  0  0  0  0  0  0
   14.8685  -16.1560   22.5730 O   0  0  0  0  0  0  0  0  0  0  0  0
  2  1  1  1
  2 13  1  0
  2  3  1  0
  4  3  1  0
  4  5  2  0
  6  5  1  0
  7 12  2  0
  7  6  1  0
  8  7  1  0
  9 10  1  0
  9  8  2  0
 10 11  2  0
 11 12  1  0
 12  4  1  0
 13 14  2  0
 16 15  1  0
 17 16  1  0
 18 17  1  0
 19 18  1  1
 20 19  1  0
 20 13  1  0
 21 19  1  0
 22 21  2  0
 23 21  1  0
 24 23  1  0
 24 25  1  6
 25 26  1  0
 26 27  1  0
 27 28  1  0
 28 29  1  0
 30 24  1  0
 31 30  2  0
 32 30  1  0
M  END
$$$$
