WMK.pdb
     RDKit          3D

 32 33  0  0  1  0  0  0  0  0999 V2000
    6.1252  -17.9334   24.7056 N   0  0  0  0  0  0  0  0  0  0  0  0
    6.7271  -16.7318   24.1279 C   0  0  1  0  0  0  0  0  0  0  0  0
    7.5561  -16.0980   25.2417 C   0  0  0  0  0  0  0  0  0  0  0  0
    6.7673  -15.0106   25.8595 C   0  0  0  0  0  0  0  0  0  0  0  0
    5.5011  -15.0390   26.4183 C   0  0  0  0  0  0  0  0  0  0  0  0
    5.1857  -13.8065   26.8585 N   0  0  0  0  0  0  0  0  0  0  0  0
    6.1985  -12.9555   26.6129 C   0  0  0  0  0  0  0  0  0  0  0  0
    6.3328  -11.6129   26.8793 C   0  0  0  0  0  0  0  0  0  0  0  0
    7.5182  -10.9815   26.5036 C   0  0  0  0  0  0  0  0  0  0  0  0
    8.5094  -11.7065   25.8848 C   0  0  0  0  0  0  0  0  0  0  0  0
    8.3461  -13.0374   25.6340 C   0  0  0  0  0  0  0  0  0  0  0  0
    7.1849  -13.7021   25.9908 C   0  0  0  0  0  0  0  0  0  0  0  0
    7.5831  -17.1340   22.9882 C   0  0  0  0  0  0  0  0  0  0  0  0
    8.2649  -18.1956   23.0572 O   0  0  0  0  0  0  0  0  0  0  0  0
    8.0875  -11.5828   19.3012 C   0  0  0  0  0  0  0  0  0  0  0  0
    8.7382  -13.2280   18.8899 S   0  0  0  0  0  0  0  0  0  0  0  0
    7.8467  -14.5109   19.8739 C   0  0  0  0  0  0  0  0  0  0  0  0
    8.3921  -15.8679   19.5250 C   0  0  0  0  0  0  0  0  0  0  0  0
    8.6048  -16.7387   20.7215 C   0  0  2  0  0  0  0  0  0  0  0  0
    7.6773  -16.3676   21.7944 N   0  0  0  0  0  0  0  0  0  0  0  0
   10.0004  -16.6464   21.2472 C   0  0  0  0  0  0  0  0  0  0  0  0
   10.3839  -15.5800   21.8183 O   0  0  0  0  0  0  0  0  0  0  0  0
   10.8936  -17.7404   21.1108 N   0  0  0  0  0  0  0  0  0  0  0  0
   12.2675  -17.5911   21.4899 C   0  0  1  0  0  0  0  0  0  0  0  0
   13.0492  -18.8603   21.3573 C   0  0  0  0  0  0  0  0  0  0  0  0
   12.5177  -20.0694   21.9899 C   0  0  0  0  0  0  0  0  0  0  0  0
   12.6879  -21.3855   21.3528 C   0  0  0  0  0  0  0  0  0  0  0  0
   14.0787  -21.8307   21.0585 C   0  0  0  0  0  0  0  0  0  0  0  0
   14.4268  -23.0513   21.7990 N   0  0  0  0  0  0  0  0  0  0  0  0
   12.8402  -16.4262   20.8065 C   0  0  0  0  0  0  0  0  0  0  0  0
   13.6694  -15.7018   21.4082 O   0  0  0  0  0  0  0  0  0  0  0  0
   12.5010  -16.0998   19.5188 O   0  0  0  0  0  0  0  0  0  0  0  0
  2  1  1  1
  2 13  1  0
  2  3  1  0
  4  3  1  0
  4  5  2  0
  6  5  1  0
  7 12  2  0
  7  6  1  0
  8  7  1  0
  9 10  1  0
  9  8  2  0
 10 11  2  0
 11 12  1  0
 12  4  1  0
 13 14  2  0
 16 15  1  0
 17 16  1  0
 18 17  1  0
 19 18  1  6
 20 19  1  0
 20 13  1  0
 21 19  1  0
 22 21  2  0
 23 21  1  0
 24 23  1  0
 24 25  1  6
 25 26  1  0
 26 27  1  0
 27 28  1  0
 28 29  1  0
 30 24  1  0
 31 30  2  0
 32 30  1  0
M  END
$$$$
