WMK.pdb
     RDKit          3D

 32 33  0  0  1  0  0  0  0  0999 V2000
    7.0477  -18.0763   25.3128 N   0  0  0  0  0  0  0  0  0  0  0  0
    7.2760  -16.6978   24.8800 C   0  0  1  0  0  0  0  0  0  0  0  0
    8.5406  -16.2341   25.5979 C   0  0  0  0  0  0  0  0  0  0  0  0
    8.1547  -15.3231   26.6967 C   0  0  0  0  0  0  0  0  0  0  0  0
    8.0944  -15.5523   28.0605 C   0  0  0  0  0  0  0  0  0  0  0  0
    7.6877  -14.4278   28.6790 N   0  0  0  0  0  0  0  0  0  0  0  0
    7.4743  -13.4549   27.7743 C   0  0  0  0  0  0  0  0  0  0  0  0
    7.0577  -12.1535   27.9311 C   0  0  0  0  0  0  0  0  0  0  0  0
    6.9235  -11.3623   26.7905 C   0  0  0  0  0  0  0  0  0  0  0  0
    7.2069  -11.8951   25.5549 C   0  0  0  0  0  0  0  0  0  0  0  0
    7.6181  -13.1900   25.4321 C   0  0  0  0  0  0  0  0  0  0  0  0
    7.7642  -14.0091   26.5389 C   0  0  0  0  0  0  0  0  0  0  0  0
    7.4627  -16.6892   23.4108 C   0  0  0  0  0  0  0  0  0  0  0  0
    7.5770  -17.7808   22.7847 O   0  0  0  0  0  0  0  0  0  0  0  0
    8.1758  -11.2492   19.7929 C   0  0  0  0  0  0  0  0  0  0  0  0
    7.4222  -12.3498   18.5601 S   0  0  0  0  0  0  0  0  0  0  0  0
    7.5514  -14.1008   19.1312 C   0  0  0  0  0  0  0  0  0  0  0  0
    7.4757  -14.1373   20.6324 C   0  0  0  0  0  0  0  0  0  0  0  0
    7.6563  -15.5108   21.1945 C   0  0  2  0  0  0  0  0  0  0  0  0
    7.5209  -15.4870   22.6540 N   0  0  0  0  0  0  0  0  0  0  0  0
    8.9892  -16.0919   20.8506 C   0  0  0  0  0  0  0  0  0  0  0  0
    9.1190  -16.7715   19.7868 O   0  0  0  0  0  0  0  0  0  0  0  0
   10.1041  -15.8879   21.7043 N   0  0  0  0  0  0  0  0  0  0  0  0
   11.4229  -16.2073   21.2438 C   0  0  1  0  0  0  0  0  0  0  0  0
   12.0743  -15.0758   20.5126 C   0  0  0  0  0  0  0  0  0  0  0  0
   13.4332  -15.2726   20.0030 C   0  0  0  0  0  0  0  0  0  0  0  0
   13.9155  -14.5099   18.8401 C   0  0  0  0  0  0  0  0  0  0  0  0
   15.3189  -14.7452   18.3992 C   0  0  0  0  0  0  0  0  0  0  0  0
   15.6067  -14.0773   17.1223 N   0  0  0  0  0  0  0  0  0  0  0  0
   12.2038  -16.7733   22.3492 C   0  0  0  0  0  0  0  0  0  0  0  0
   13.3676  -17.1904   22.1346 O   0  0  0  0  0  0  0  0  0  0  0  0
   11.7033  -16.8599   23.6228 O   0  0  0  0  0  0  0  0  0  0  0  0
  2  1  1  1
  2 13  1  0
  2  3  1  0
  4  3  1  0
  4  5  2  0
  6  5  1  0
  7 12  2  0
  7  6  1  0
  8  7  1  0
  9 10  1  0
  9  8  2  0
 10 11  2  0
 11 12  1  0
 12  4  1  0
 13 14  2  0
 16 15  1  0
 17 16  1  0
 18 17  1  0
 19 18  1  1
 20 19  1  0
 20 13  1  0
 21 19  1  0
 22 21  2  0
 23 21  1  0
 24 23  1  0
 24 25  1  1
 25 26  1  0
 26 27  1  0
 27 28  1  0
 28 29  1  0
 30 24  1  0
 31 30  2  0
 32 30  1  0
M  END
$$$$
