WMK.pdb
     RDKit          3D

 32 33  0  0  1  0  0  0  0  0999 V2000
    6.9420  -18.3130   26.1172 N   0  0  0  0  0  0  0  0  0  0  0  0
    7.6903  -17.1144   25.7388 C   0  0  1  0  0  0  0  0  0  0  0  0
    9.1258  -17.3499   26.2006 C   0  0  0  0  0  0  0  0  0  0  0  0
    9.4102  -16.4521   27.3405 C   0  0  0  0  0  0  0  0  0  0  0  0
    9.8037  -16.7548   28.6327 C   0  0  0  0  0  0  0  0  0  0  0  0
    9.9444  -15.6117   29.3299 N   0  0  0  0  0  0  0  0  0  0  0  0
    9.6583  -14.5554   28.5471 C   0  0  0  0  0  0  0  0  0  0  0  0
    9.6630  -13.2066   28.8157 C   0  0  0  0  0  0  0  0  0  0  0  0
    9.3159  -12.3287   27.7892 C   0  0  0  0  0  0  0  0  0  0  0  0
    8.9822  -12.8262   26.5514 C   0  0  0  0  0  0  0  0  0  0  0  0
    8.9868  -14.1698   26.3161 C   0  0  0  0  0  0  0  0  0  0  0  0
    9.3252  -15.0752   27.3076 C   0  0  0  0  0  0  0  0  0  0  0  0
    7.6214  -16.9601   24.2675 C   0  0  0  0  0  0  0  0  0  0  0  0
    7.4149  -17.9708   23.5377 O   0  0  0  0  0  0  0  0  0  0  0  0
    7.1234  -11.9260   18.1088 C   0  0  0  0  0  0  0  0  0  0  0  0
    7.2765  -12.1652   19.9028 S   0  0  0  0  0  0  0  0  0  0  0  0
    7.4379  -13.9661   20.2764 C   0  0  0  0  0  0  0  0  0  0  0  0
    7.5932  -14.1504   21.7605 C   0  0  0  0  0  0  0  0  0  0  0  0
    7.7267  -15.5844   22.1616 C   0  0  2  0  0  0  0  0  0  0  0  0
    7.7796  -15.7033   23.6218 N   0  0  0  0  0  0  0  0  0  0  0  0
    8.9515  -16.2202   21.5887 C   0  0  0  0  0  0  0  0  0  0  0  0
    8.9206  -16.6846   20.4081 O   0  0  0  0  0  0  0  0  0  0  0  0
   10.1423  -16.3062   22.3554 N   0  0  0  0  0  0  0  0  0  0  0  0
   11.4058  -16.4558   21.6962 C   0  0  1  0  0  0  0  0  0  0  0  0
   11.8205  -15.2287   20.9468 C   0  0  0  0  0  0  0  0  0  0  0  0
   13.1477  -15.2116   20.3279 C   0  0  0  0  0  0  0  0  0  0  0  0
   13.3597  -14.5569   19.0267 C   0  0  0  0  0  0  0  0  0  0  0  0
   14.7511  -14.5203   18.4954 C   0  0  0  0  0  0  0  0  0  0  0  0
   14.8313  -13.7729   17.2328 N   0  0  0  0  0  0  0  0  0  0  0  0
   12.3952  -16.9760   22.6463 C   0  0  0  0  0  0  0  0  0  0  0  0
   13.5554  -17.2407   22.2484 O   0  0  0  0  0  0  0  0  0  0  0  0
   12.0951  -17.1817   23.9682 O   0  0  0  0  0  0  0  0  0  0  0  0
  2  1  1  6
  2 13  1  0
  2  3  1  0
  4  3  1  0
  4  5  2  0
  6  5  1  0
  7 12  2  0
  7  6  1  0
  8  7  1  0
  9 10  1  0
  9  8  2  0
 10 11  2  0
 11 12  1  0
 12  4  1  0
 13 14  2  0
 16 15  1  0
 17 16  1  0
 18 17  1  0
 19 18  1  1
 20 19  1  0
 20 13  1  0
 21 19  1  0
 22 21  2  0
 23 21  1  0
 24 23  1  0
 24 25  1  1
 25 26  1  0
 26 27  1  0
 27 28  1  0
 28 29  1  0
 30 24  1  0
 31 30  2  0
 32 30  1  0
M  END
$$$$
