WMK.pdb
     RDKit          3D

 32 33  0  0  1  0  0  0  0  0999 V2000
    6.6871  -18.3514   25.8946 N   0  0  0  0  0  0  0  0  0  0  0  0
    7.0865  -17.0317   25.4062 C   0  0  1  0  0  0  0  0  0  0  0  0
    8.4206  -16.7189   26.0783 C   0  0  0  0  0  0  0  0  0  0  0  0
    8.2233  -15.6012   27.0259 C   0  0  0  0  0  0  0  0  0  0  0  0
    8.3506  -15.5724   28.4041 C   0  0  0  0  0  0  0  0  0  0  0  0
    8.0709  -14.3322   28.8468 N   0  0  0  0  0  0  0  0  0  0  0  0
    7.7611  -13.5312   27.8109 C   0  0  0  0  0  0  0  0  0  0  0  0
    7.4114  -12.2017   27.7724 C   0  0  0  0  0  0  0  0  0  0  0  0
    7.1408  -11.6268   26.5309 C   0  0  0  0  0  0  0  0  0  0  0  0
    7.2290  -12.3926   25.3921 C   0  0  0  0  0  0  0  0  0  0  0  0
    7.5784  -13.7094   25.4632 C   0  0  0  0  0  0  0  0  0  0  0  0
    7.8551  -14.3184   26.6756 C   0  0  0  0  0  0  0  0  0  0  0  0
    7.2331  -17.0979   23.9340 C   0  0  0  0  0  0  0  0  0  0  0  0
    7.5199  -18.1962   23.3789 O   0  0  0  0  0  0  0  0  0  0  0  0
    7.6424  -11.7951   20.3516 C   0  0  0  0  0  0  0  0  0  0  0  0
    7.4717  -12.9308   18.9445 S   0  0  0  0  0  0  0  0  0  0  0  0
    7.3897  -14.6702   19.5582 C   0  0  0  0  0  0  0  0  0  0  0  0
    7.3427  -14.6616   21.0611 C   0  0  0  0  0  0  0  0  0  0  0  0
    7.3138  -16.0338   21.6537 C   0  0  2  0  0  0  0  0  0  0  0  0
    7.0631  -15.9618   23.0963 N   0  0  0  0  0  0  0  0  0  0  0  0
    8.5928  -16.7734   21.4303 C   0  0  0  0  0  0  0  0  0  0  0  0
    8.5793  -17.8626   20.7793 O   0  0  0  0  0  0  0  0  0  0  0  0
    9.8154  -16.2652   21.9405 N   0  0  0  0  0  0  0  0  0  0  0  0
   11.0520  -16.9009   21.5939 C   0  0  1  0  0  0  0  0  0  0  0  0
   11.6912  -16.3071   20.3780 C   0  0  0  0  0  0  0  0  0  0  0  0
   11.6321  -17.0644   19.1258 C   0  0  0  0  0  0  0  0  0  0  0  0
   12.1630  -16.4921   17.8779 C   0  0  0  0  0  0  0  0  0  0  0  0
   12.1154  -17.3448   16.6572 C   0  0  0  0  0  0  0  0  0  0  0  0
   12.7179  -16.6701   15.4992 N   0  0  0  0  0  0  0  0  0  0  0  0
   11.9113  -16.9798   22.7802 C   0  0  0  0  0  0  0  0  0  0  0  0
   11.5019  -16.5174   23.8725 O   0  0  0  0  0  0  0  0  0  0  0  0
   13.1574  -17.5503   22.7384 O   0  0  0  0  0  0  0  0  0  0  0  0
  2  1  1  1
  2 13  1  0
  2  3  1  0
  4  3  1  0
  4  5  2  0
  6  5  1  0
  7 12  2  0
  7  6  1  0
  8  7  1  0
  9 10  1  0
  9  8  2  0
 10 11  2  0
 11 12  1  0
 12  4  1  0
 13 14  2  0
 16 15  1  0
 17 16  1  0
 18 17  1  0
 19 18  1  1
 20 19  1  0
 20 13  1  0
 21 19  1  0
 22 21  2  0
 23 21  1  0
 24 23  1  0
 24 25  1  6
 25 26  1  0
 26 27  1  0
 27 28  1  0
 28 29  1  0
 30 24  1  0
 31 30  2  0
 32 30  1  0
M  END
$$$$
