WMK.pdb
     RDKit          3D

 32 33  0  0  1  0  0  0  0  0999 V2000
    7.7362  -17.5335   23.4606 N   0  0  0  0  0  0  0  0  0  0  0  0
    8.1432  -16.4095   22.6176 C   0  0  1  0  0  0  0  0  0  0  0  0
    6.9722  -15.4307   22.6251 C   0  0  0  0  0  0  0  0  0  0  0  0
    6.6415  -15.0983   24.0274 C   0  0  0  0  0  0  0  0  0  0  0  0
    6.2004  -15.9159   25.0536 C   0  0  0  0  0  0  0  0  0  0  0  0
    6.0269  -15.1749   26.1642 N   0  0  0  0  0  0  0  0  0  0  0  0
    6.3373  -13.8897   25.9146 C   0  0  0  0  0  0  0  0  0  0  0  0
    6.3155  -12.7822   26.7298 C   0  0  0  0  0  0  0  0  0  0  0  0
    6.6978  -11.5560   26.1865 C   0  0  0  0  0  0  0  0  0  0  0  0
    7.0815  -11.4854   24.8679 C   0  0  0  0  0  0  0  0  0  0  0  0
    7.0924  -12.6022   24.0846 C   0  0  0  0  0  0  0  0  0  0  0  0
    6.7203  -13.8385   24.5849 C   0  0  0  0  0  0  0  0  0  0  0  0
    9.3563  -15.7949   23.2039 C   0  0  0  0  0  0  0  0  0  0  0  0
    9.3648  -14.5628   23.4843 O   0  0  0  0  0  0  0  0  0  0  0  0
   10.7643  -13.5841   28.8427 C   0  0  0  0  0  0  0  0  0  0  0  0
   10.5596  -15.3546   28.4925 S   0  0  0  0  0  0  0  0  0  0  0  0
   11.5916  -15.8214   27.0345 C   0  0  0  0  0  0  0  0  0  0  0  0
   10.6955  -16.0560   25.8502 C   0  0  0  0  0  0  0  0  0  0  0  0
   11.4447  -16.1628   24.5610 C   0  0  2  0  0  0  0  0  0  0  0  0
   10.5375  -16.5393   23.4728 N   0  0  0  0  0  0  0  0  0  0  0  0
   12.5475  -17.1688   24.6294 C   0  0  0  0  0  0  0  0  0  0  0  0
   12.3440  -18.2808   25.2058 O   0  0  0  0  0  0  0  0  0  0  0  0
   13.8141  -16.8869   24.0554 N   0  0  0  0  0  0  0  0  0  0  0  0
   14.7059  -17.9611   23.7325 C   0  0  1  0  0  0  0  0  0  0  0  0
   15.4538  -17.7332   22.4565 C   0  0  0  0  0  0  0  0  0  0  0  0
   14.6996  -17.7440   21.2012 C   0  0  0  0  0  0  0  0  0  0  0  0
   15.3624  -17.4273   19.9256 C   0  0  0  0  0  0  0  0  0  0  0  0
   14.5438  -17.5231   18.6846 C   0  0  0  0  0  0  0  0  0  0  0  0
   15.3176  -17.1490   17.4928 N   0  0  0  0  0  0  0  0  0  0  0  0
   15.5365  -18.2757   24.9000 C   0  0  0  0  0  0  0  0  0  0  0  0
   16.4170  -19.1653   24.8112 O   0  0  0  0  0  0  0  0  0  0  0  0
   15.3862  -17.6225   26.0961 O   0  0  0  0  0  0  0  0  0  0  0  0
  2  1  1  1
  2 13  1  0
  2  3  1  0
  4  3  1  0
  4  5  2  0
  6  5  1  0
  7 12  2  0
  7  6  1  0
  8  7  1  0
  9 10  1  0
  9  8  2  0
 10 11  2  0
 11 12  1  0
 12  4  1  0
 13 14  2  0
 16 15  1  0
 17 16  1  0
 18 17  1  0
 19 18  1  1
 20 19  1  0
 20 13  1  0
 21 19  1  0
 22 21  2  0
 23 21  1  0
 24 23  1  0
 24 25  1  6
 25 26  1  0
 26 27  1  0
 27 28  1  0
 28 29  1  0
 30 24  1  0
 31 30  2  0
 32 30  1  0
M  END
$$$$
