WGH.pdb
     RDKit          3D

 29 31  0  0  1  0  0  0  0  0999 V2000
    9.4089  -15.3854   24.0368 N   0  0  0  0  0  0  0  0  0  0  0  0
    8.4575  -16.5538   24.0542 C   0  0  1  0  0  0  0  0  0  0  0  0
    7.1007  -16.0081   24.3087 C   0  0  0  0  0  0  0  0  0  0  0  0
    6.9602  -14.5698   24.2248 C   0  0  0  0  0  0  0  0  0  0  0  0
    6.9497  -13.7109   23.1791 C   0  0  0  0  0  0  0  0  0  0  0  0
    6.7856  -12.4399   23.6417 N   0  0  0  0  0  0  0  0  0  0  0  0
    6.6853  -12.4370   24.9767 C   0  0  0  0  0  0  0  0  0  0  0  0
    6.5046  -11.4113   25.9138 C   0  0  0  0  0  0  0  0  0  0  0  0
    6.4343  -11.7371   27.2324 C   0  0  0  0  0  0  0  0  0  0  0  0
    6.5346  -13.0285   27.6591 C   0  0  0  0  0  0  0  0  0  0  0  0
    6.7136  -14.0374   26.7147 C   0  0  0  0  0  0  0  0  0  0  0  0
    6.7903  -13.7442   25.3590 C   0  0  0  0  0  0  0  0  0  0  0  0
    8.6231  -17.2881   22.7829 C   0  0  0  0  0  0  0  0  0  0  0  0
    8.0399  -18.3787   22.5325 O   0  0  0  0  0  0  0  0  0  0  0  0
    9.4813  -16.7922   21.7289 N   0  0  0  0  0  0  0  0  0  0  0  0
   10.1275  -17.7120   20.8292 C   0  0  0  0  0  0  0  0  0  0  0  0
   11.5771  -17.8367   20.9595 C   0  0  0  0  0  0  0  0  0  0  0  0
   12.1597  -18.6149   20.1238 O   0  0  0  0  0  0  0  0  0  0  0  0
   12.3582  -17.1774   21.9128 N   0  0  0  0  0  0  0  0  0  0  0  0
   13.7389  -17.4429   22.2161 C   0  0  1  0  0  0  0  0  0  0  0  0
   14.5865  -16.2269   22.0448 C   0  0  0  0  0  0  0  0  0  0  0  0
   14.2984  -15.4036   20.8653 C   0  0  0  0  0  0  0  0  0  0  0  0
   13.3501  -15.6821   19.9034 C   0  0  0  0  0  0  0  0  0  0  0  0
   13.3814  -14.7057   18.9838 N   0  0  0  0  0  0  0  0  0  0  0  0
   14.3194  -13.8443   19.3588 C   0  0  0  0  0  0  0  0  0  0  0  0
   14.8870  -14.2606   20.5075 N   0  0  0  0  0  0  0  0  0  0  0  0
   13.9433  -18.1448   23.5008 C   0  0  0  0  0  0  0  0  0  0  0  0
   12.9625  -18.4694   24.4167 O   0  0  0  0  0  0  0  0  0  0  0  0
   15.1172  -18.4888   23.8020 O   0  0  0  0  0  0  0  0  0  0  0  0
  2  1  1  6
  2 13  1  0
  3  2  1  0
  3  4  1  0
  4 12  1  0
  4  5  2  0
  5  6  1  0
  7  8  2  0
  7  6  1  0
  9  8  1  0
 10  9  2  0
 11 10  1  0
 11 12  2  0
 12  7  1  0
 13 15  1  0
 13 14  2  0
 15 16  1  0
 17 16  1  0
 17 18  2  0
 19 17  1  0
 20 19  1  0
 20 21  1  1
 22 21  1  0
 23 22  2  0
 24 25  1  0
 24 23  1  0
 25 26  2  0
 26 22  1  0
 27 20  1  0
 28 27  1  0
 29 27  2  0
M  END
$$$$
