WGH.pdb
     RDKit          3D

 29 31  0  0  1  0  0  0  0  0999 V2000
    5.7439  -17.2845   22.5727 N   0  0  0  0  0  0  0  0  0  0  0  0
    7.0496  -16.6544   22.1618 C   0  0  1  0  0  0  0  0  0  0  0  0
    7.0743  -15.2863   22.7373 C   0  0  0  0  0  0  0  0  0  0  0  0
    6.7040  -15.1688   24.1317 C   0  0  0  0  0  0  0  0  0  0  0  0
    6.0026  -15.9738   24.9631 C   0  0  0  0  0  0  0  0  0  0  0  0
    5.9345  -15.3984   26.1962 N   0  0  0  0  0  0  0  0  0  0  0  0
    6.5793  -14.2251   26.2014 C   0  0  0  0  0  0  0  0  0  0  0  0
    6.8021  -13.2676   27.1997 C   0  0  0  0  0  0  0  0  0  0  0  0
    7.5184  -12.1543   26.8878 C   0  0  0  0  0  0  0  0  0  0  0  0
    8.0203  -11.9509   25.6363 C   0  0  0  0  0  0  0  0  0  0  0  0
    7.7905  -12.9127   24.6544 C   0  0  0  0  0  0  0  0  0  0  0  0
    7.0636  -14.0629   24.9345 C   0  0  0  0  0  0  0  0  0  0  0  0
    8.1394  -17.5514   22.5985 C   0  0  0  0  0  0  0  0  0  0  0  0
    9.3344  -17.4272   22.2130 O   0  0  0  0  0  0  0  0  0  0  0  0
    7.8971  -18.6479   23.5107 N   0  0  0  0  0  0  0  0  0  0  0  0
    8.9421  -19.5963   23.7957 C   0  0  0  0  0  0  0  0  0  0  0  0
   10.0741  -19.1001   24.5743 C   0  0  0  0  0  0  0  0  0  0  0  0
   11.0690  -19.8977   24.7059 O   0  0  0  0  0  0  0  0  0  0  0  0
   10.1470  -17.8390   25.1727 N   0  0  0  0  0  0  0  0  0  0  0  0
   11.2670  -17.3024   25.8983 C   0  0  1  0  0  0  0  0  0  0  0  0
   11.7141  -15.9942   25.3370 C   0  0  0  0  0  0  0  0  0  0  0  0
   12.0675  -15.9928   23.9132 C   0  0  0  0  0  0  0  0  0  0  0  0
   13.2910  -16.3534   23.3888 C   0  0  0  0  0  0  0  0  0  0  0  0
   13.2348  -16.2209   22.0549 N   0  0  0  0  0  0  0  0  0  0  0  0
   12.0150  -15.7910   21.7550 C   0  0  0  0  0  0  0  0  0  0  0  0
   11.2925  -15.6478   22.8830 N   0  0  0  0  0  0  0  0  0  0  0  0
   11.0810  -17.2979   27.3647 C   0  0  0  0  0  0  0  0  0  0  0  0
   12.0169  -16.9116   28.3033 O   0  0  0  0  0  0  0  0  0  0  0  0
    9.9678  -17.6768   27.8169 O   0  0  0  0  0  0  0  0  0  0  0  0
  2  1  1  1
  2 13  1  0
  3  2  1  0
  3  4  1  0
  4 12  1  0
  4  5  2  0
  5  6  1  0
  7  8  2  0
  7  6  1  0
  9  8  1  0
 10  9  2  0
 11 10  1  0
 11 12  2  0
 12  7  1  0
 13 15  1  0
 13 14  2  0
 15 16  1  0
 17 16  1  0
 17 18  2  0
 19 17  1  0
 20 19  1  0
 20 21  1  6
 22 21  1  0
 23 22  2  0
 24 25  1  0
 24 23  1  0
 25 26  2  0
 26 22  1  0
 27 20  1  0
 28 27  1  0
 29 27  2  0
M  END
$$$$
