WGH.pdb
     RDKit          3D

 29 31  0  0  1  0  0  0  0  0999 V2000
    7.1609  -17.3458   22.6228 N   0  0  0  0  0  0  0  0  0  0  0  0
    7.7855  -16.0316   22.2313 C   0  0  1  0  0  0  0  0  0  0  0  0
    8.3384  -15.4254   23.4683 C   0  0  0  0  0  0  0  0  0  0  0  0
    7.3752  -15.0015   24.4624 C   0  0  0  0  0  0  0  0  0  0  0  0
    6.3325  -15.6304   25.0526 C   0  0  0  0  0  0  0  0  0  0  0  0
    5.7337  -14.7805   25.9332 N   0  0  0  0  0  0  0  0  0  0  0  0
    6.3598  -13.5972   25.9409 C   0  0  0  0  0  0  0  0  0  0  0  0
    6.1451  -12.4133   26.6588 C   0  0  0  0  0  0  0  0  0  0  0  0
    6.9774  -11.3594   26.4431 C   0  0  0  0  0  0  0  0  0  0  0  0
    8.0071  -11.4286   25.5516 C   0  0  0  0  0  0  0  0  0  0  0  0
    8.2078  -12.6132   24.8457 C   0  0  0  0  0  0  0  0  0  0  0  0
    7.3789  -13.7112   25.0387 C   0  0  0  0  0  0  0  0  0  0  0  0
    8.7648  -16.3006   21.1582 C   0  0  0  0  0  0  0  0  0  0  0  0
    8.8054  -15.6484   20.0788 O   0  0  0  0  0  0  0  0  0  0  0  0
    9.7543  -17.3489   21.2823 N   0  0  0  0  0  0  0  0  0  0  0  0
   11.0992  -17.1331   20.8159 C   0  0  0  0  0  0  0  0  0  0  0  0
   12.0801  -16.7387   21.8239 C   0  0  0  0  0  0  0  0  0  0  0  0
   12.5306  -15.5413   21.7431 O   0  0  0  0  0  0  0  0  0  0  0  0
   12.5512  -17.5603   22.8519 N   0  0  0  0  0  0  0  0  0  0  0  0
   13.5743  -17.2298   23.8073 C   0  0  1  0  0  0  0  0  0  0  0  0
   13.0040  -16.5943   25.0309 C   0  0  0  0  0  0  0  0  0  0  0  0
   11.6833  -17.0765   25.4495 C   0  0  0  0  0  0  0  0  0  0  0  0
   10.9351  -18.0356   24.7996 C   0  0  0  0  0  0  0  0  0  0  0  0
    9.7891  -18.2077   25.4758 N   0  0  0  0  0  0  0  0  0  0  0  0
    9.8199  -17.3824   26.5152 C   0  0  0  0  0  0  0  0  0  0  0  0
   10.9729  -16.6856   26.5095 N   0  0  0  0  0  0  0  0  0  0  0  0
   14.5123  -18.3381   24.0843 C   0  0  0  0  0  0  0  0  0  0  0  0
   15.3248  -18.9673   23.1623 O   0  0  0  0  0  0  0  0  0  0  0  0
   14.5920  -18.7579   25.2695 O   0  0  0  0  0  0  0  0  0  0  0  0
  2  1  1  1
  2 13  1  0
  3  2  1  0
  3  4  1  0
  4 12  1  0
  4  5  2  0
  5  6  1  0
  7  8  2  0
  7  6  1  0
  9  8  1  0
 10  9  2  0
 11 10  1  0
 11 12  2  0
 12  7  1  0
 13 15  1  0
 13 14  2  0
 15 16  1  0
 17 16  1  0
 17 18  2  0
 19 17  1  0
 20 19  1  0
 20 21  1  1
 22 21  1  0
 23 22  2  0
 24 25  1  0
 24 23  1  0
 25 26  2  0
 26 22  1  0
 27 20  1  0
 28 27  1  0
 29 27  2  0
M  END
$$$$
