WGH.pdb
     RDKit          3D

 29 31  0  0  1  0  0  0  0  0999 V2000
    7.9328  -17.3190   23.8549 N   0  0  0  0  0  0  0  0  0  0  0  0
    8.8047  -16.4027   23.0359 C   0  0  1  0  0  0  0  0  0  0  0  0
    8.4334  -15.0110   23.3946 C   0  0  0  0  0  0  0  0  0  0  0  0
    7.4812  -14.8577   24.4740 C   0  0  0  0  0  0  0  0  0  0  0  0
    6.6825  -15.7375   25.1214 C   0  0  0  0  0  0  0  0  0  0  0  0
    5.9653  -15.0784   26.0740 N   0  0  0  0  0  0  0  0  0  0  0  0
    6.2731  -13.7755   26.0737 C   0  0  0  0  0  0  0  0  0  0  0  0
    5.8291  -12.6940   26.8459 C   0  0  0  0  0  0  0  0  0  0  0  0
    6.3495  -11.4612   26.6024 C   0  0  0  0  0  0  0  0  0  0  0  0
    7.2856  -11.2561   25.6322 C   0  0  0  0  0  0  0  0  0  0  0  0
    7.7173  -12.3419   24.8730 C   0  0  0  0  0  0  0  0  0  0  0  0
    7.2093  -13.6162   25.0919 C   0  0  0  0  0  0  0  0  0  0  0  0
   10.2119  -16.7746   23.2898 C   0  0  0  0  0  0  0  0  0  0  0  0
   11.1918  -16.0764   22.9094 O   0  0  0  0  0  0  0  0  0  0  0  0
   10.5578  -17.9855   24.0021 N   0  0  0  0  0  0  0  0  0  0  0  0
   11.9393  -18.3422   24.1943 C   0  0  0  0  0  0  0  0  0  0  0  0
   12.4118  -18.3872   25.5759 C   0  0  0  0  0  0  0  0  0  0  0  0
   13.0352  -19.4495   25.9309 O   0  0  0  0  0  0  0  0  0  0  0  0
   12.2361  -17.3706   26.5190 N   0  0  0  0  0  0  0  0  0  0  0  0
   11.6709  -17.5147   27.8337 C   0  0  1  0  0  0  0  0  0  0  0  0
   10.3201  -16.8878   27.9268 C   0  0  0  0  0  0  0  0  0  0  0  0
   10.2544  -15.4545   27.6212 C   0  0  0  0  0  0  0  0  0  0  0  0
   11.3374  -14.6113   27.4866 C   0  0  0  0  0  0  0  0  0  0  0  0
   10.8825  -13.3795   27.2113 N   0  0  0  0  0  0  0  0  0  0  0  0
    9.5573  -13.4504   27.1751 C   0  0  0  0  0  0  0  0  0  0  0  0
    9.1618  -14.7139   27.4244 N   0  0  0  0  0  0  0  0  0  0  0  0
   11.7339  -18.8937   28.3623 C   0  0  0  0  0  0  0  0  0  0  0  0
   11.0920  -19.9975   27.8370 O   0  0  0  0  0  0  0  0  0  0  0  0
   12.4379  -19.0986   29.3868 O   0  0  0  0  0  0  0  0  0  0  0  0
  2  1  1  1
  2 13  1  0
  3  2  1  0
  3  4  1  0
  4 12  1  0
  4  5  2  0
  5  6  1  0
  7  8  2  0
  7  6  1  0
  9  8  1  0
 10  9  2  0
 11 10  1  0
 11 12  2  0
 12  7  1  0
 13 15  1  0
 13 14  2  0
 15 16  1  0
 17 16  1  0
 17 18  2  0
 19 17  1  0
 20 19  1  0
 20 21  1  6
 22 21  1  0
 23 22  2  0
 24 25  1  0
 24 23  1  0
 25 26  2  0
 26 22  1  0
 27 20  1  0
 28 27  1  0
 29 27  2  0
M  END
$$$$
