WGH.pdb
     RDKit          3D

 29 31  0  0  1  0  0  0  0  0999 V2000
    9.5511  -16.3652   22.0768 N   0  0  0  0  0  0  0  0  0  0  0  0
    8.1468  -16.6900   22.5161 C   0  0  1  0  0  0  0  0  0  0  0  0
    7.2424  -16.3127   21.4012 C   0  0  0  0  0  0  0  0  0  0  0  0
    7.3001  -14.9334   20.9654 C   0  0  0  0  0  0  0  0  0  0  0  0
    7.4106  -14.3641   19.7428 C   0  0  0  0  0  0  0  0  0  0  0  0
    7.4202  -13.0082   19.8765 N   0  0  0  0  0  0  0  0  0  0  0  0
    7.3166  -12.6643   21.1662 C   0  0  0  0  0  0  0  0  0  0  0  0
    7.2745  -11.4252   21.8188 C   0  0  0  0  0  0  0  0  0  0  0  0
    7.1557  -11.4050   23.1735 C   0  0  0  0  0  0  0  0  0  0  0  0
    7.0771  -12.5536   23.9045 C   0  0  0  0  0  0  0  0  0  0  0  0
    7.1199  -13.7781   23.2406 C   0  0  0  0  0  0  0  0  0  0  0  0
    7.2406  -13.8396   21.8581 C   0  0  0  0  0  0  0  0  0  0  0  0
    8.1164  -18.1137   22.9101 C   0  0  0  0  0  0  0  0  0  0  0  0
    7.0479  -18.7690   23.0553 O   0  0  0  0  0  0  0  0  0  0  0  0
    9.3331  -18.8560   23.1593 N   0  0  0  0  0  0  0  0  0  0  0  0
    9.2737  -20.1580   23.7707 C   0  0  0  0  0  0  0  0  0  0  0  0
   10.4171  -20.5403   24.5956 C   0  0  0  0  0  0  0  0  0  0  0  0
   10.9762  -21.6585   24.3121 O   0  0  0  0  0  0  0  0  0  0  0  0
   10.9351  -19.7847   25.6513 N   0  0  0  0  0  0  0  0  0  0  0  0
   12.2381  -19.9271   26.2436 C   0  0  1  0  0  0  0  0  0  0  0  0
   13.1355  -18.7899   25.8860 C   0  0  0  0  0  0  0  0  0  0  0  0
   13.0975  -18.3573   24.4848 C   0  0  0  0  0  0  0  0  0  0  0  0
   12.3009  -17.3534   23.9752 C   0  0  0  0  0  0  0  0  0  0  0  0
   12.5410  -17.2501   22.6592 N   0  0  0  0  0  0  0  0  0  0  0  0
   13.4584  -18.1605   22.3558 C   0  0  0  0  0  0  0  0  0  0  0  0
   13.8062  -18.8435   23.4638 N   0  0  0  0  0  0  0  0  0  0  0  0
   12.2059  -20.2393   27.6880 C   0  0  0  0  0  0  0  0  0  0  0  0
   13.3010  -20.4766   28.4946 O   0  0  0  0  0  0  0  0  0  0  0  0
   11.0809  -20.2950   28.2521 O   0  0  0  0  0  0  0  0  0  0  0  0
  2  1  1  6
  2 13  1  0
  3  2  1  0
  3  4  1  0
  4 12  1  0
  4  5  2  0
  5  6  1  0
  7  8  2  0
  7  6  1  0
  9  8  1  0
 10  9  2  0
 11 10  1  0
 11 12  2  0
 12  7  1  0
 13 15  1  0
 13 14  2  0
 15 16  1  0
 17 16  1  0
 17 18  2  0
 19 17  1  0
 20 19  1  0
 20 21  1  1
 22 21  1  0
 23 22  2  0
 24 25  1  0
 24 23  1  0
 25 26  2  0
 26 22  1  0
 27 20  1  0
 28 27  1  0
 29 27  2  0
M  END
$$$$
