WGH.pdb
     RDKit          3D

 29 31  0  0  1  0  0  0  0  0999 V2000
    8.1498  -17.6729   24.9681 N   0  0  0  0  0  0  0  0  0  0  0  0
    7.5166  -17.0115   23.7713 C   0  0  1  0  0  0  0  0  0  0  0  0
    7.6665  -15.5458   23.9524 C   0  0  0  0  0  0  0  0  0  0  0  0
    7.0132  -14.9709   25.1091 C   0  0  0  0  0  0  0  0  0  0  0  0
    6.2284  -15.5023   26.0750 C   0  0  0  0  0  0  0  0  0  0  0  0
    5.8642  -14.5228   26.9491 N   0  0  0  0  0  0  0  0  0  0  0  0
    6.3935  -13.3487   26.5836 C   0  0  0  0  0  0  0  0  0  0  0  0
    6.3284  -12.0634   27.1374 C   0  0  0  0  0  0  0  0  0  0  0  0
    6.9967  -11.0523   26.5202 C   0  0  0  0  0  0  0  0  0  0  0  0
    7.7225  -11.2598   25.3844 C   0  0  0  0  0  0  0  0  0  0  0  0
    7.7778  -12.5440   24.8461 C   0  0  0  0  0  0  0  0  0  0  0  0
    7.1087  -13.6023   25.4478 C   0  0  0  0  0  0  0  0  0  0  0  0
    8.1479  -17.5739   22.5597 C   0  0  0  0  0  0  0  0  0  0  0  0
    9.3814  -17.8261   22.4755 O   0  0  0  0  0  0  0  0  0  0  0  0
    7.3754  -17.8736   21.3736 N   0  0  0  0  0  0  0  0  0  0  0  0
    8.0416  -18.1946   20.1384 C   0  0  0  0  0  0  0  0  0  0  0  0
    8.7447  -17.0986   19.4763 C   0  0  0  0  0  0  0  0  0  0  0  0
    8.0143  -16.1643   18.9896 O   0  0  0  0  0  0  0  0  0  0  0  0
   10.1323  -16.9989   19.3412 N   0  0  0  0  0  0  0  0  0  0  0  0
   10.9333  -15.8328   19.6009 C   0  0  1  0  0  0  0  0  0  0  0  0
   10.0940  -14.6577   19.9763 C   0  0  0  0  0  0  0  0  0  0  0  0
    9.0696  -14.2625   19.0034 C   0  0  0  0  0  0  0  0  0  0  0  0
    7.9221  -13.5526   19.2886 C   0  0  0  0  0  0  0  0  0  0  0  0
    7.2342  -13.3854   18.1489 N   0  0  0  0  0  0  0  0  0  0  0  0
    7.9295  -13.9722   17.1821 C   0  0  0  0  0  0  0  0  0  0  0  0
    9.0534  -14.5119   17.6925 N   0  0  0  0  0  0  0  0  0  0  0  0
   12.0685  -16.0801   20.5147 C   0  0  0  0  0  0  0  0  0  0  0  0
   12.3534  -17.2687   21.1568 O   0  0  0  0  0  0  0  0  0  0  0  0
   12.8622  -15.1273   20.7368 O   0  0  0  0  0  0  0  0  0  0  0  0
  2  1  1  1
  2 13  1  0
  3  2  1  0
  3  4  1  0
  4 12  1  0
  4  5  2  0
  5  6  1  0
  7  8  2  0
  7  6  1  0
  9  8  1  0
 10  9  2  0
 11 10  1  0
 11 12  2  0
 12  7  1  0
 13 15  1  0
 13 14  2  0
 15 16  1  0
 17 16  1  0
 17 18  2  0
 19 17  1  0
 20 19  1  0
 20 21  1  1
 22 21  1  0
 23 22  2  0
 24 25  1  0
 24 23  1  0
 25 26  2  0
 26 22  1  0
 27 20  1  0
 28 27  1  0
 29 27  2  0
M  END
$$$$
