WGH.pdb
     RDKit          3D

 29 31  0  0  1  0  0  0  0  0999 V2000
    7.3321  -17.6244   26.1549 N   0  0  0  0  0  0  0  0  0  0  0  0
    7.1318  -16.7429   24.9493 C   0  0  1  0  0  0  0  0  0  0  0  0
    8.1811  -15.6940   24.9963 C   0  0  0  0  0  0  0  0  0  0  0  0
    8.2081  -14.8645   26.1823 C   0  0  0  0  0  0  0  0  0  0  0  0
    8.9913  -14.8710   27.2858 C   0  0  0  0  0  0  0  0  0  0  0  0
    8.6018  -13.8671   28.1206 N   0  0  0  0  0  0  0  0  0  0  0  0
    7.5740  -13.1913   27.5922 C   0  0  0  0  0  0  0  0  0  0  0  0
    6.8291  -12.0921   28.0395 C   0  0  0  0  0  0  0  0  0  0  0  0
    5.8254  -11.6203   27.2523 C   0  0  0  0  0  0  0  0  0  0  0  0
    5.5304  -12.1881   26.0479 C   0  0  0  0  0  0  0  0  0  0  0  0
    6.2807  -13.2804   25.6169 C   0  0  0  0  0  0  0  0  0  0  0  0
    7.3138  -13.7908   26.3928 C   0  0  0  0  0  0  0  0  0  0  0  0
    7.1460  -17.6081   23.7517 C   0  0  0  0  0  0  0  0  0  0  0  0
    7.5594  -18.8002   23.7639 O   0  0  0  0  0  0  0  0  0  0  0  0
    6.6791  -17.1310   22.4680 N   0  0  0  0  0  0  0  0  0  0  0  0
    7.0205  -17.8426   21.2640 C   0  0  0  0  0  0  0  0  0  0  0  0
    8.2328  -17.4077   20.5747 C   0  0  0  0  0  0  0  0  0  0  0  0
    8.4312  -17.8970   19.4067 O   0  0  0  0  0  0  0  0  0  0  0  0
    9.1726  -16.5106   21.0902 N   0  0  0  0  0  0  0  0  0  0  0  0
   10.4520  -16.1914   20.5157 C   0  0  1  0  0  0  0  0  0  0  0  0
   10.5380  -14.7551   20.1205 C   0  0  0  0  0  0  0  0  0  0  0  0
    9.3695  -14.2100   19.4209 C   0  0  0  0  0  0  0  0  0  0  0  0
    8.2671  -14.9323   19.0149 C   0  0  0  0  0  0  0  0  0  0  0  0
    7.4122  -14.0942   18.4092 N   0  0  0  0  0  0  0  0  0  0  0  0
    7.9628  -12.8865   18.4356 C   0  0  0  0  0  0  0  0  0  0  0  0
    9.1596  -12.9449   19.0514 N   0  0  0  0  0  0  0  0  0  0  0  0
   11.6005  -16.6670   21.3155 C   0  0  0  0  0  0  0  0  0  0  0  0
   12.9316  -16.5857   20.9579 O   0  0  0  0  0  0  0  0  0  0  0  0
   11.3592  -17.1964   22.4329 O   0  0  0  0  0  0  0  0  0  0  0  0
  2  1  1  1
  2 13  1  0
  3  2  1  0
  3  4  1  0
  4 12  1  0
  4  5  2  0
  5  6  1  0
  7  8  2  0
  7  6  1  0
  9  8  1  0
 10  9  2  0
 11 10  1  0
 11 12  2  0
 12  7  1  0
 13 15  1  0
 13 14  2  0
 15 16  1  0
 17 16  1  0
 17 18  2  0
 19 17  1  0
 20 19  1  0
 20 21  1  1
 22 21  1  0
 23 22  2  0
 24 25  1  0
 24 23  1  0
 25 26  2  0
 26 22  1  0
 27 20  1  0
 28 27  1  0
 29 27  2  0
M  END
$$$$
