WGH.pdb
     RDKit          3D

 29 31  0  0  1  0  0  0  0  0999 V2000
    9.9394  -15.6362   22.3804 N   0  0  0  0  0  0  0  0  0  0  0  0
    9.4004  -15.7655   23.7816 C   0  0  1  0  0  0  0  0  0  0  0  0
    7.9196  -15.7306   23.6847 C   0  0  0  0  0  0  0  0  0  0  0  0
    7.3260  -14.4479   23.3723 C   0  0  0  0  0  0  0  0  0  0  0  0
    6.9834  -13.8585   22.2033 C   0  0  0  0  0  0  0  0  0  0  0  0
    6.4520  -12.6299   22.4570 N   0  0  0  0  0  0  0  0  0  0  0  0
    6.4332  -12.3910   23.7742 C   0  0  0  0  0  0  0  0  0  0  0  0
    5.9911  -11.3014   24.5360 C   0  0  0  0  0  0  0  0  0  0  0  0
    6.1038  -11.3633   25.8900 C   0  0  0  0  0  0  0  0  0  0  0  0
    6.6327  -12.4527   26.5172 C   0  0  0  0  0  0  0  0  0  0  0  0
    7.0675  -13.5285   25.7455 C   0  0  0  0  0  0  0  0  0  0  0  0
    6.9689  -13.5025   24.3600 C   0  0  0  0  0  0  0  0  0  0  0  0
    9.9736  -16.9922   24.3729 C   0  0  0  0  0  0  0  0  0  0  0  0
    9.6872  -17.4012   25.5317 O   0  0  0  0  0  0  0  0  0  0  0  0
   10.9171  -17.8133   23.6455 N   0  0  0  0  0  0  0  0  0  0  0  0
   11.6799  -18.8216   24.3341 C   0  0  0  0  0  0  0  0  0  0  0  0
   12.0993  -18.5007   25.6961 C   0  0  0  0  0  0  0  0  0  0  0  0
   12.7375  -17.4000   25.8517 O   0  0  0  0  0  0  0  0  0  0  0  0
   11.8557  -19.2948   26.8204 N   0  0  0  0  0  0  0  0  0  0  0  0
   11.4909  -18.8287   28.1313 C   0  0  1  0  0  0  0  0  0  0  0  0
   10.3402  -17.8801   28.0807 C   0  0  0  0  0  0  0  0  0  0  0  0
   10.6683  -16.4617   28.2612 C   0  0  0  0  0  0  0  0  0  0  0  0
   11.9155  -15.9580   28.5656 C   0  0  0  0  0  0  0  0  0  0  0  0
   11.8222  -14.6224   28.6534 N   0  0  0  0  0  0  0  0  0  0  0  0
   10.5568  -14.3015   28.4116 C   0  0  0  0  0  0  0  0  0  0  0  0
    9.8419  -15.4177   28.1706 N   0  0  0  0  0  0  0  0  0  0  0  0
   11.3383  -19.9097   29.1278 C   0  0  0  0  0  0  0  0  0  0  0  0
   10.6489  -21.0923   28.9477 O   0  0  0  0  0  0  0  0  0  0  0  0
   11.8856  -19.7541   30.2518 O   0  0  0  0  0  0  0  0  0  0  0  0
  2  1  1  6
  2 13  1  0
  3  2  1  0
  3  4  1  0
  4 12  1  0
  4  5  2  0
  5  6  1  0
  7  8  2  0
  7  6  1  0
  9  8  1  0
 10  9  2  0
 11 10  1  0
 11 12  2  0
 12  7  1  0
 13 15  1  0
 13 14  2  0
 15 16  1  0
 17 16  1  0
 17 18  2  0
 19 17  1  0
 20 19  1  0
 20 21  1  6
 22 21  1  0
 23 22  2  0
 24 25  1  0
 24 23  1  0
 25 26  2  0
 26 22  1  0
 27 20  1  0
 28 27  1  0
 29 27  2  0
M  END
$$$$
