WGH.pdb
     RDKit          3D

 29 31  0  0  1  0  0  0  0  0999 V2000
    8.8684  -16.8221   24.2377 N   0  0  0  0  0  0  0  0  0  0  0  0
    8.5750  -16.4841   22.7989 C   0  0  1  0  0  0  0  0  0  0  0  0
    7.3811  -15.6021   22.7924 C   0  0  0  0  0  0  0  0  0  0  0  0
    6.8699  -15.2029   24.0865 C   0  0  0  0  0  0  0  0  0  0  0  0
    6.3144  -15.8991   25.1053 C   0  0  0  0  0  0  0  0  0  0  0  0
    5.9978  -15.0426   26.1164 N   0  0  0  0  0  0  0  0  0  0  0  0
    6.3337  -13.7884   25.7898 C   0  0  0  0  0  0  0  0  0  0  0  0
    6.2258  -12.5681   26.4697 C   0  0  0  0  0  0  0  0  0  0  0  0
    6.6738  -11.4388   25.8584 C   0  0  0  0  0  0  0  0  0  0  0  0
    7.2211  -11.4674   24.6096 C   0  0  0  0  0  0  0  0  0  0  0  0
    7.3218  -12.6889   23.9467 C   0  0  0  0  0  0  0  0  0  0  0  0
    6.8754  -13.8639   24.5382 C   0  0  0  0  0  0  0  0  0  0  0  0
    9.8015  -15.9043   22.2136 C   0  0  0  0  0  0  0  0  0  0  0  0
   10.0490  -15.9132   20.9763 O   0  0  0  0  0  0  0  0  0  0  0  0
   10.8124  -15.2807   23.0397 N   0  0  0  0  0  0  0  0  0  0  0  0
   12.1605  -15.7861   23.0384 C   0  0  0  0  0  0  0  0  0  0  0  0
   12.6216  -16.4079   24.2773 C   0  0  0  0  0  0  0  0  0  0  0  0
   13.8601  -16.7353   24.3243 O   0  0  0  0  0  0  0  0  0  0  0  0
   11.8215  -16.6640   25.3944 N   0  0  0  0  0  0  0  0  0  0  0  0
   12.1460  -17.5302   26.4958 C   0  0  1  0  0  0  0  0  0  0  0  0
   11.3218  -17.2244   27.7014 C   0  0  0  0  0  0  0  0  0  0  0  0
   11.0812  -15.8027   27.9718 C   0  0  0  0  0  0  0  0  0  0  0  0
   11.9029  -14.7624   27.5915 C   0  0  0  0  0  0  0  0  0  0  0  0
   11.3558  -13.6140   28.0180 N   0  0  0  0  0  0  0  0  0  0  0  0
   10.2280  -13.9265   28.6449 C   0  0  0  0  0  0  0  0  0  0  0  0
   10.0497  -15.2617   28.6232 N   0  0  0  0  0  0  0  0  0  0  0  0
   12.1818  -18.9637   26.1371 C   0  0  0  0  0  0  0  0  0  0  0  0
   11.8080  -19.5097   24.9253 O   0  0  0  0  0  0  0  0  0  0  0  0
   12.5925  -19.7770   27.0072 O   0  0  0  0  0  0  0  0  0  0  0  0
  2  1  1  1
  2 13  1  0
  3  2  1  0
  3  4  1  0
  4 12  1  0
  4  5  2  0
  5  6  1  0
  7  8  2  0
  7  6  1  0
  9  8  1  0
 10  9  2  0
 11 10  1  0
 11 12  2  0
 12  7  1  0
 13 15  1  0
 13 14  2  0
 15 16  1  0
 17 16  1  0
 17 18  2  0
 19 17  1  0
 20 19  1  0
 20 21  1  1
 22 21  1  0
 23 22  2  0
 24 25  1  0
 24 23  1  0
 25 26  2  0
 26 22  1  0
 27 20  1  0
 28 27  1  0
 29 27  2  0
M  END
$$$$
