TFP.pdb
     RDKit          3D

 26 27  0  0  1  0  0  0  0  0999 V2000
    7.7453  -18.7429   20.8945 C   0  0  0  0  0  0  0  0  0  0  0  0
    8.7371  -18.1401   19.8956 C   0  0  1  0  0  0  0  0  0  0  0  0
    8.6163  -18.7576   18.6705 O   0  0  0  0  0  0  0  0  0  0  0  0
    8.4588  -16.6582   19.8574 C   0  0  2  0  0  0  0  0  0  0  0  0
    9.2565  -16.0304   18.8032 N   0  0  0  0  0  0  0  0  0  0  0  0
    8.7199  -15.9456   21.1032 C   0  0  0  0  0  0  0  0  0  0  0  0
    9.9127  -15.7119   21.5073 O   0  0  0  0  0  0  0  0  0  0  0  0
    7.7155  -15.4386   21.9913 N   0  0  0  0  0  0  0  0  0  0  0  0
    8.0275  -14.8932   23.2941 C   0  0  1  0  0  0  0  0  0  0  0  0
    6.8558  -13.9809   23.6196 C   0  0  0  0  0  0  0  0  0  0  0  0
    6.8733  -13.3923   24.9491 C   0  0  0  0  0  0  0  0  0  0  0  0
    6.2420  -14.0113   26.0088 C   0  0  0  0  0  0  0  0  0  0  0  0
    6.3162  -13.4069   27.2405 C   0  0  0  0  0  0  0  0  0  0  0  0
    6.9941  -12.2129   27.4533 C   0  0  0  0  0  0  0  0  0  0  0  0
    7.6198  -11.6035   26.3925 C   0  0  0  0  0  0  0  0  0  0  0  0
    7.5490  -12.2030   25.1590 C   0  0  0  0  0  0  0  0  0  0  0  0
    8.3657  -15.8333   24.3446 C   0  0  0  0  0  0  0  0  0  0  0  0
    7.5686  -16.8662   24.4332 O   0  0  0  0  0  0  0  0  0  0  0  0
    9.3891  -15.8493   25.2919 N   0  0  0  0  0  0  0  0  0  0  0  0
   10.3022  -14.7946   25.6499 C   0  0  0  0  0  0  0  0  0  0  0  0
   11.6392  -15.5382   25.4550 C   0  0  0  0  0  0  0  0  0  0  0  0
   11.3035  -16.8808   26.0888 C   0  0  0  0  0  0  0  0  0  0  0  0
    9.8027  -16.9591   26.1614 C   0  0  1  0  0  0  0  0  0  0  0  0
    9.3221  -16.7700   27.5498 C   0  0  0  0  0  0  0  0  0  0  0  0
    9.4619  -17.7413   28.5493 O   0  0  0  0  0  0  0  0  0  0  0  0
    8.7531  -15.7096   27.9137 O   0  0  0  0  0  0  0  0  0  0  0  0
  2  1  1  1
  3  2  1  0
  4  6  1  0
  4  2  1  0
  4  5  1  6
  6  8  1  0
  7  6  2  0
  8  9  1  0
  9 10  1  1
 11 16  1  0
 11 10  1  0
 12 11  2  0
 13 14  2  0
 13 12  1  0
 14 15  1  0
 15 16  2  0
 17 18  2  0
 17  9  1  0
 19 17  1  0
 20 21  1  0
 20 19  1  0
 21 22  1  0
 22 23  1  0
 23 19  1  0
 23 24  1  1
 25 24  1  0
 26 24  2  0
M  END
$$$$
