TFP.pdb
     RDKit          3D

 26 27  0  0  1  0  0  0  0  0999 V2000
    9.6940  -19.1789   21.9632 C   0  0  0  0  0  0  0  0  0  0  0  0
   10.7798  -18.5249   21.1041 C   0  0  1  0  0  0  0  0  0  0  0  0
   10.9872  -19.2577   19.9566 O   0  0  0  0  0  0  0  0  0  0  0  0
   10.3267  -17.1097   20.8458 C   0  0  2  0  0  0  0  0  0  0  0  0
   11.2634  -16.4465   19.9377 N   0  0  0  0  0  0  0  0  0  0  0  0
   10.1873  -16.2761   22.0348 C   0  0  0  0  0  0  0  0  0  0  0  0
   11.2078  -15.8421   22.6757 O   0  0  0  0  0  0  0  0  0  0  0  0
    8.9425  -15.8559   22.6080 N   0  0  0  0  0  0  0  0  0  0  0  0
    8.8620  -15.1373   23.8607 C   0  0  1  0  0  0  0  0  0  0  0  0
    7.5444  -14.3827   23.7871 C   0  0  0  0  0  0  0  0  0  0  0  0
    7.1898  -13.6278   24.9782 C   0  0  0  0  0  0  0  0  0  0  0  0
    6.4424  -14.2011   25.9868 C   0  0  0  0  0  0  0  0  0  0  0  0
    6.1613  -13.4339   27.0914 C   0  0  0  0  0  0  0  0  0  0  0  0
    6.5965  -12.1213   27.2265 C   0  0  0  0  0  0  0  0  0  0  0  0
    7.3402  -11.5584   26.2174 C   0  0  0  0  0  0  0  0  0  0  0  0
    7.6242  -12.3206   25.1109 C   0  0  0  0  0  0  0  0  0  0  0  0
    9.0484  -15.9016   25.0785 C   0  0  0  0  0  0  0  0  0  0  0  0
    8.6549  -17.1468   25.0098 O   0  0  0  0  0  0  0  0  0  0  0  0
    9.5720  -15.5614   26.3256 N   0  0  0  0  0  0  0  0  0  0  0  0
    9.5977  -14.2745   26.9715 C   0  0  0  0  0  0  0  0  0  0  0  0
   11.1076  -14.1680   27.2672 C   0  0  0  0  0  0  0  0  0  0  0  0
   11.3937  -15.5810   27.7556 C   0  0  0  0  0  0  0  0  0  0  0  0
   10.2442  -16.4362   27.2960 C   0  0  1  0  0  0  0  0  0  0  0  0
    9.3499  -16.7845   28.4244 C   0  0  0  0  0  0  0  0  0  0  0  0
    8.0173  -16.3609   28.5064 O   0  0  0  0  0  0  0  0  0  0  0  0
    9.7440  -17.4916   29.3863 O   0  0  0  0  0  0  0  0  0  0  0  0
  2  1  1  1
  3  2  1  0
  4  6  1  0
  4  2  1  0
  4  5  1  6
  6  8  1  0
  7  6  2  0
  8  9  1  0
  9 10  1  1
 11 16  1  0
 11 10  1  0
 12 11  2  0
 13 14  2  0
 13 12  1  0
 14 15  1  0
 15 16  2  0
 17 18  2  0
 17  9  1  0
 19 17  1  0
 20 21  1  0
 20 19  1  0
 21 22  1  0
 22 23  1  0
 23 19  1  0
 23 24  1  1
 25 24  1  0
 26 24  2  0
M  END
$$$$
