TFP.pdb
     RDKit          3D

 26 27  0  0  1  0  0  0  0  0999 V2000
    4.9981  -21.9332   22.4730 C   0  0  0  0  0  0  0  0  0  0  0  0
    5.7081  -20.5871   22.6423 C   0  0  1  0  0  0  0  0  0  0  0  0
    6.3687  -20.2460   21.4829 O   0  0  0  0  0  0  0  0  0  0  0  0
    4.6497  -19.5934   23.0514 C   0  0  2  0  0  0  0  0  0  0  0  0
    3.5806  -19.5673   22.0524 N   0  0  0  0  0  0  0  0  0  0  0  0
    5.1221  -18.2262   23.2399 C   0  0  0  0  0  0  0  0  0  0  0  0
    4.9909  -17.3372   22.3270 O   0  0  0  0  0  0  0  0  0  0  0  0
    5.7633  -17.7289   24.4215 N   0  0  0  0  0  0  0  0  0  0  0  0
    6.3980  -16.4304   24.4786 C   0  0  1  0  0  0  0  0  0  0  0  0
    6.3930  -16.0647   25.9541 C   0  0  0  0  0  0  0  0  0  0  0  0
    6.8618  -14.7243   26.2668 C   0  0  0  0  0  0  0  0  0  0  0  0
    8.1997  -14.4744   26.4953 C   0  0  0  0  0  0  0  0  0  0  0  0
    8.5727  -13.1801   26.7665 C   0  0  0  0  0  0  0  0  0  0  0  0
    7.6640  -12.1302   26.8179 C   0  0  0  0  0  0  0  0  0  0  0  0
    6.3338  -12.3880   26.5891 C   0  0  0  0  0  0  0  0  0  0  0  0
    5.9553  -13.6798   26.3176 C   0  0  0  0  0  0  0  0  0  0  0  0
    7.6874  -16.2918   23.8306 C   0  0  0  0  0  0  0  0  0  0  0  0
    8.4544  -17.3485   23.9043 O   0  0  0  0  0  0  0  0  0  0  0  0
    8.2765  -15.2358   23.1356 N   0  0  0  0  0  0  0  0  0  0  0  0
    7.9498  -13.8339   23.1805 C   0  0  0  0  0  0  0  0  0  0  0  0
    7.7370  -13.5736   21.6754 C   0  0  0  0  0  0  0  0  0  0  0  0
    8.9105  -14.3483   21.0926 C   0  0  0  0  0  0  0  0  0  0  0  0
    9.3799  -15.2912   22.1670 C   0  0  1  0  0  0  0  0  0  0  0  0
   10.6534  -14.8299   22.7668 C   0  0  0  0  0  0  0  0  0  0  0  0
   11.8894  -14.9310   22.1157 O   0  0  0  0  0  0  0  0  0  0  0  0
   10.6956  -14.3133   23.9122 O   0  0  0  0  0  0  0  0  0  0  0  0
  2  1  1  6
  3  2  1  0
  4  6  1  0
  4  2  1  0
  4  5  1  6
  6  8  1  0
  7  6  2  0
  8  9  1  0
  9 10  1  1
 11 16  1  0
 11 10  1  0
 12 11  2  0
 13 14  2  0
 13 12  1  0
 14 15  1  0
 15 16  2  0
 17 18  2  0
 17  9  1  0
 19 17  1  0
 20 21  1  0
 20 19  1  0
 21 22  1  0
 22 23  1  0
 23 19  1  0
 23 24  1  1
 25 24  1  0
 26 24  2  0
M  END
$$$$
