TFP.pdb
     RDKit          3D

 26 27  0  0  1  0  0  0  0  0999 V2000
   11.0009  -18.9924   19.9948 C   0  0  0  0  0  0  0  0  0  0  0  0
   10.7886  -18.3190   21.3536 C   0  0  1  0  0  0  0  0  0  0  0  0
   11.6776  -18.8191   22.2789 O   0  0  0  0  0  0  0  0  0  0  0  0
   10.9257  -16.8350   21.1219 C   0  0  2  0  0  0  0  0  0  0  0  0
   12.2805  -16.5275   20.6617 N   0  0  0  0  0  0  0  0  0  0  0  0
   10.6445  -15.9972   22.2825 C   0  0  0  0  0  0  0  0  0  0  0  0
   11.5821  -15.5457   23.0295 O   0  0  0  0  0  0  0  0  0  0  0  0
    9.3385  -15.5914   22.7118 N   0  0  0  0  0  0  0  0  0  0  0  0
    9.1021  -14.9281   23.9752 C   0  0  1  0  0  0  0  0  0  0  0  0
    7.7509  -14.2522   23.8077 C   0  0  0  0  0  0  0  0  0  0  0  0
    7.2440  -13.5687   24.9868 C   0  0  0  0  0  0  0  0  0  0  0  0
    6.4650  -14.2321   25.9130 C   0  0  0  0  0  0  0  0  0  0  0  0
    6.0373  -13.5278   27.0125 C   0  0  0  0  0  0  0  0  0  0  0  0
    6.3566  -12.1917   27.2213 C   0  0  0  0  0  0  0  0  0  0  0  0
    7.1326  -11.5390   26.2940 C   0  0  0  0  0  0  0  0  0  0  0  0
    7.5631  -12.2380   25.1930 C   0  0  0  0  0  0  0  0  0  0  0  0
    9.2285  -15.7263   25.1788 C   0  0  0  0  0  0  0  0  0  0  0  0
    9.0260  -17.0072   25.0108 O   0  0  0  0  0  0  0  0  0  0  0  0
    9.5270  -15.3882   26.4985 N   0  0  0  0  0  0  0  0  0  0  0  0
    9.2449  -14.1628   27.2007 C   0  0  0  0  0  0  0  0  0  0  0  0
   10.6644  -13.8218   27.6982 C   0  0  0  0  0  0  0  0  0  0  0  0
   11.1345  -15.1956   28.1547 C   0  0  0  0  0  0  0  0  0  0  0  0
   10.2199  -16.2003   27.5082 C   0  0  1  0  0  0  0  0  0  0  0  0
    9.2703  -16.7718   28.4910 C   0  0  0  0  0  0  0  0  0  0  0  0
    9.6672  -17.5958   29.5519 O   0  0  0  0  0  0  0  0  0  0  0  0
    8.0355  -16.5447   28.4263 O   0  0  0  0  0  0  0  0  0  0  0  0
  2  1  1  6
  3  2  1  0
  4  6  1  0
  4  2  1  0
  4  5  1  1
  6  8  1  0
  7  6  2  0
  8  9  1  0
  9 10  1  6
 11 16  1  0
 11 10  1  0
 12 11  2  0
 13 14  2  0
 13 12  1  0
 14 15  1  0
 15 16  2  0
 17 18  2  0
 17  9  1  0
 19 17  1  0
 20 21  1  0
 20 19  1  0
 21 22  1  0
 22 23  1  0
 23 19  1  0
 23 24  1  1
 25 24  1  0
 26 24  2  0
M  END
$$$$
