TFP.pdb
     RDKit          3D

 26 27  0  0  1  0  0  0  0  0999 V2000
   10.2498  -19.1594   22.3131 C   0  0  0  0  0  0  0  0  0  0  0  0
   11.3373  -18.5006   21.4599 C   0  0  1  0  0  0  0  0  0  0  0  0
   11.6511  -19.3011   20.3840 O   0  0  0  0  0  0  0  0  0  0  0  0
   10.8116  -17.1414   21.0711 C   0  0  2  0  0  0  0  0  0  0  0  0
   11.7562  -16.4837   20.1673 N   0  0  0  0  0  0  0  0  0  0  0  0
   10.5498  -16.2357   22.1842 C   0  0  0  0  0  0  0  0  0  0  0  0
   11.4940  -15.5962   22.7676 O   0  0  0  0  0  0  0  0  0  0  0  0
    9.2571  -15.9599   22.7387 N   0  0  0  0  0  0  0  0  0  0  0  0
    9.0751  -15.2059   23.9597 C   0  0  1  0  0  0  0  0  0  0  0  0
    7.7398  -14.5018   23.7812 C   0  0  0  0  0  0  0  0  0  0  0  0
    7.3083  -13.6870   24.9056 C   0  0  0  0  0  0  0  0  0  0  0  0
    7.6681  -12.3579   24.9998 C   0  0  0  0  0  0  0  0  0  0  0  0
    7.2081  -11.6445   26.0802 C   0  0  0  0  0  0  0  0  0  0  0  0
    6.4057  -12.2057   27.0661 C   0  0  0  0  0  0  0  0  0  0  0  0
    6.0523  -13.5297   26.9643 C   0  0  0  0  0  0  0  0  0  0  0  0
    6.5092  -14.2476   25.8865 C   0  0  0  0  0  0  0  0  0  0  0  0
    9.2118  -15.9246   25.2113 C   0  0  0  0  0  0  0  0  0  0  0  0
    8.9258  -17.1989   25.1457 O   0  0  0  0  0  0  0  0  0  0  0  0
    9.5933  -15.5147   26.4886 N   0  0  0  0  0  0  0  0  0  0  0  0
    9.3755  -14.2435   27.1296 C   0  0  0  0  0  0  0  0  0  0  0  0
   10.8276  -13.9045   27.5232 C   0  0  0  0  0  0  0  0  0  0  0  0
   11.2982  -15.2586   28.0350 C   0  0  0  0  0  0  0  0  0  0  0  0
   10.3289  -16.2798   27.5046 C   0  0  1  0  0  0  0  0  0  0  0  0
    9.4281  -16.7705   28.5733 C   0  0  0  0  0  0  0  0  0  0  0  0
    9.8709  -17.5391   29.6573 O   0  0  0  0  0  0  0  0  0  0  0  0
    8.1962  -16.5195   28.5664 O   0  0  0  0  0  0  0  0  0  0  0  0
  2  1  1  6
  3  2  1  0
  4  6  1  0
  4  2  1  0
  4  5  1  6
  6  8  1  0
  7  6  2  0
  8  9  1  0
  9 10  1  6
 11 16  1  0
 11 10  1  0
 12 11  2  0
 13 14  2  0
 13 12  1  0
 14 15  1  0
 15 16  2  0
 17 18  2  0
 17  9  1  0
 19 17  1  0
 20 21  1  0
 20 19  1  0
 21 22  1  0
 22 23  1  0
 23 19  1  0
 23 24  1  1
 25 24  1  0
 26 24  2  0
M  END
$$$$
