TFP.pdb
     RDKit          3D

 26 27  0  0  1  0  0  0  0  0999 V2000
    5.4515  -20.7441   20.7801 C   0  0  0  0  0  0  0  0  0  0  0  0
    6.3890  -19.8123   21.5531 C   0  0  1  0  0  0  0  0  0  0  0  0
    7.6957  -20.0279   21.1749 O   0  0  0  0  0  0  0  0  0  0  0  0
    5.9066  -18.4072   21.2923 C   0  0  2  0  0  0  0  0  0  0  0  0
    5.9770  -18.1161   19.8597 N   0  0  0  0  0  0  0  0  0  0  0  0
    6.6348  -17.3599   21.9999 C   0  0  0  0  0  0  0  0  0  0  0  0
    7.5993  -16.7215   21.4495 O   0  0  0  0  0  0  0  0  0  0  0  0
    6.3708  -16.9324   23.3424 N   0  0  0  0  0  0  0  0  0  0  0  0
    7.2416  -16.0273   24.0598 C   0  0  1  0  0  0  0  0  0  0  0  0
    6.3198  -15.2782   25.0086 C   0  0  0  0  0  0  0  0  0  0  0  0
    6.9415  -14.2024   25.7637 C   0  0  0  0  0  0  0  0  0  0  0  0
    6.7895  -12.8851   25.3809 C   0  0  0  0  0  0  0  0  0  0  0  0
    7.3897  -11.9201   26.1531 C   0  0  0  0  0  0  0  0  0  0  0  0
    8.1329  -12.2192   27.2883 C   0  0  0  0  0  0  0  0  0  0  0  0
    8.2792  -13.5334   27.6621 C   0  0  0  0  0  0  0  0  0  0  0  0
    7.6814  -14.5023   26.8941 C   0  0  0  0  0  0  0  0  0  0  0  0
    8.4173  -16.5955   24.6895 C   0  0  0  0  0  0  0  0  0  0  0  0
    8.2189  -17.7407   25.2888 O   0  0  0  0  0  0  0  0  0  0  0  0
    9.7360  -16.1510   24.7822 N   0  0  0  0  0  0  0  0  0  0  0  0
   10.2592  -14.8284   24.5561 C   0  0  0  0  0  0  0  0  0  0  0  0
   11.3506  -15.1602   23.5181 C   0  0  0  0  0  0  0  0  0  0  0  0
   11.9430  -16.4201   24.1334 C   0  0  0  0  0  0  0  0  0  0  0  0
   10.9335  -16.9301   25.1257 C   0  0  1  0  0  0  0  0  0  0  0  0
   11.3703  -16.6702   26.5172 C   0  0  0  0  0  0  0  0  0  0  0  0
   12.3726  -17.4097   27.1577 O   0  0  0  0  0  0  0  0  0  0  0  0
   10.8572  -15.7560   27.2112 O   0  0  0  0  0  0  0  0  0  0  0  0
  2  1  1  6
  3  2  1  0
  4  6  1  0
  4  2  1  0
  4  5  1  6
  6  8  1  0
  7  6  2  0
  8  9  1  0
  9 10  1  1
 11 16  1  0
 11 10  1  0
 12 11  2  0
 13 14  2  0
 13 12  1  0
 14 15  1  0
 15 16  2  0
 17 18  2  0
 17  9  1  0
 19 17  1  0
 20 21  1  0
 20 19  1  0
 21 22  1  0
 22 23  1  0
 23 19  1  0
 23 24  1  1
 25 24  1  0
 26 24  2  0
M  END
$$$$
