TFP.pdb
     RDKit          3D

 26 27  0  0  1  0  0  0  0  0999 V2000
    9.1188  -19.1589   19.4315 C   0  0  0  0  0  0  0  0  0  0  0  0
    9.3066  -18.4660   20.7841 C   0  0  1  0  0  0  0  0  0  0  0  0
   10.4219  -18.9602   21.4234 O   0  0  0  0  0  0  0  0  0  0  0  0
    9.3763  -16.9862   20.5009 C   0  0  2  0  0  0  0  0  0  0  0  0
   10.5490  -16.6933   19.6757 N   0  0  0  0  0  0  0  0  0  0  0  0
    9.4324  -16.1306   21.6810 C   0  0  0  0  0  0  0  0  0  0  0  0
   10.5456  -15.7097   22.1547 O   0  0  0  0  0  0  0  0  0  0  0  0
    8.2956  -15.6731   22.4248 N   0  0  0  0  0  0  0  0  0  0  0  0
    8.4127  -15.0365   23.7183 C   0  0  1  0  0  0  0  0  0  0  0  0
    7.1399  -14.2176   23.8604 C   0  0  0  0  0  0  0  0  0  0  0  0
    7.0056  -13.4836   25.1083 C   0  0  0  0  0  0  0  0  0  0  0  0
    6.4104  -14.0604   26.2118 C   0  0  0  0  0  0  0  0  0  0  0  0
    6.3353  -13.3141   27.3630 C   0  0  0  0  0  0  0  0  0  0  0  0
    6.8300  -12.0188   27.4536 C   0  0  0  0  0  0  0  0  0  0  0  0
    7.4211  -11.4522   26.3500 C   0  0  0  0  0  0  0  0  0  0  0  0
    7.4989  -12.1936   25.1967 C   0  0  0  0  0  0  0  0  0  0  0  0
    8.7081  -15.8880   24.8538 C   0  0  0  0  0  0  0  0  0  0  0  0
    8.0482  -17.0167   24.8789 O   0  0  0  0  0  0  0  0  0  0  0  0
    9.5701  -15.7341   25.9393 N   0  0  0  0  0  0  0  0  0  0  0  0
   10.1411  -14.5241   26.4722 C   0  0  0  0  0  0  0  0  0  0  0  0
   11.6334  -14.9125   26.4435 C   0  0  0  0  0  0  0  0  0  0  0  0
   11.5569  -16.3411   26.9631 C   0  0  0  0  0  0  0  0  0  0  0  0
   10.1251  -16.7781   26.8116 C   0  0  1  0  0  0  0  0  0  0  0  0
    9.4342  -16.8160   28.1214 C   0  0  0  0  0  0  0  0  0  0  0  0
    9.7403  -17.7450   29.1239 O   0  0  0  0  0  0  0  0  0  0  0  0
    8.5202  -16.0026   28.4103 O   0  0  0  0  0  0  0  0  0  0  0  0
  2  1  1  6
  3  2  1  0
  4  6  1  0
  4  2  1  0
  4  5  1  6
  6  8  1  0
  7  6  2  0
  8  9  1  0
  9 10  1  1
 11 16  1  0
 11 10  1  0
 12 11  2  0
 13 14  2  0
 13 12  1  0
 14 15  1  0
 15 16  2  0
 17 18  2  0
 17  9  1  0
 19 17  1  0
 20 21  1  0
 20 19  1  0
 21 22  1  0
 22 23  1  0
 23 19  1  0
 23 24  1  1
 25 24  1  0
 26 24  2  0
M  END
$$$$
