TFP.pdb
     RDKit          3D

 26 27  0  0  1  0  0  0  0  0999 V2000
   10.4083  -19.3291   20.0789 C   0  0  0  0  0  0  0  0  0  0  0  0
   10.3896  -18.5490   21.3964 C   0  0  1  0  0  0  0  0  0  0  0  0
   11.4648  -18.9070   22.1791 O   0  0  0  0  0  0  0  0  0  0  0  0
   10.3687  -17.0866   21.0278 C   0  0  2  0  0  0  0  0  0  0  0  0
   11.6068  -16.7322   20.3325 N   0  0  0  0  0  0  0  0  0  0  0  0
   10.2031  -16.1668   22.1477 C   0  0  0  0  0  0  0  0  0  0  0  0
   11.2093  -15.6400   22.7402 O   0  0  0  0  0  0  0  0  0  0  0  0
    8.9461  -15.7546   22.6997 N   0  0  0  0  0  0  0  0  0  0  0  0
    8.8365  -15.0733   23.9710 C   0  0  1  0  0  0  0  0  0  0  0  0
    7.4936  -14.3633   23.9121 C   0  0  0  0  0  0  0  0  0  0  0  0
    7.0966  -13.6765   25.1307 C   0  0  0  0  0  0  0  0  0  0  0  0
    6.3480  -14.3179   26.0966 C   0  0  0  0  0  0  0  0  0  0  0  0
    6.0256  -13.6127   27.2308 C   0  0  0  0  0  0  0  0  0  0  0  0
    6.4207  -12.2965   27.4362 C   0  0  0  0  0  0  0  0  0  0  0  0
    7.1658  -11.6655   26.4693 C   0  0  0  0  0  0  0  0  0  0  0  0
    7.4910  -12.3656   25.3335 C   0  0  0  0  0  0  0  0  0  0  0  0
    9.0456  -15.8632   25.1685 C   0  0  0  0  0  0  0  0  0  0  0  0
    8.7033  -17.1209   25.0622 O   0  0  0  0  0  0  0  0  0  0  0  0
    9.5465  -15.5373   26.4286 N   0  0  0  0  0  0  0  0  0  0  0  0
    9.5000  -14.2734   27.1175 C   0  0  0  0  0  0  0  0  0  0  0  0
   11.0010  -14.0947   27.4233 C   0  0  0  0  0  0  0  0  0  0  0  0
   11.3627  -15.5056   27.8653 C   0  0  0  0  0  0  0  0  0  0  0  0
   10.2630  -16.4063   27.3721 C   0  0  1  0  0  0  0  0  0  0  0  0
    9.3861  -16.8408   28.4842 C   0  0  0  0  0  0  0  0  0  0  0  0
    8.0325  -16.4925   28.5752 O   0  0  0  0  0  0  0  0  0  0  0  0
    9.8155  -17.5584   29.4229 O   0  0  0  0  0  0  0  0  0  0  0  0
  2  1  1  6
  3  2  1  0
  4  6  1  0
  4  2  1  0
  4  5  1  1
  6  8  1  0
  7  6  2  0
  8  9  1  0
  9 10  1  1
 11 16  1  0
 11 10  1  0
 12 11  2  0
 13 14  2  0
 13 12  1  0
 14 15  1  0
 15 16  2  0
 17 18  2  0
 17  9  1  0
 19 17  1  0
 20 21  1  0
 20 19  1  0
 21 22  1  0
 22 23  1  0
 23 19  1  0
 23 24  1  1
 25 24  1  0
 26 24  2  0
M  END
$$$$
