TFP.pdb
     RDKit          3D

 26 27  0  0  1  0  0  0  0  0999 V2000
   10.2209  -19.1895   22.4340 C   0  0  0  0  0  0  0  0  0  0  0  0
   11.3500  -18.5041   21.6594 C   0  0  1  0  0  0  0  0  0  0  0  0
   11.7624  -19.2986   20.6128 O   0  0  0  0  0  0  0  0  0  0  0  0
   10.8184  -17.1604   21.2272 C   0  0  2  0  0  0  0  0  0  0  0  0
   11.7759  -16.5131   20.3294 N   0  0  0  0  0  0  0  0  0  0  0  0
   10.5220  -16.2321   22.3127 C   0  0  0  0  0  0  0  0  0  0  0  0
   11.4463  -15.5715   22.9044 O   0  0  0  0  0  0  0  0  0  0  0  0
    9.2138  -15.9549   22.8290 N   0  0  0  0  0  0  0  0  0  0  0  0
    8.9969  -15.2036   24.0458 C   0  0  1  0  0  0  0  0  0  0  0  0
    7.6442  -14.5379   23.8506 C   0  0  0  0  0  0  0  0  0  0  0  0
    7.1608  -13.7626   24.9817 C   0  0  0  0  0  0  0  0  0  0  0  0
    7.4911  -12.4301   25.1233 C   0  0  0  0  0  0  0  0  0  0  0  0
    6.9825  -11.7554   26.2068 C   0  0  0  0  0  0  0  0  0  0  0  0
    6.1600  -12.3584   27.1504 C   0  0  0  0  0  0  0  0  0  0  0  0
    5.8362  -13.6855   27.0016 C   0  0  0  0  0  0  0  0  0  0  0  0
    6.3417  -14.3649   25.9205 C   0  0  0  0  0  0  0  0  0  0  0  0
    9.1398  -15.9152   25.3007 C   0  0  0  0  0  0  0  0  0  0  0  0
    8.8470  -17.1885   25.2452 O   0  0  0  0  0  0  0  0  0  0  0  0
    9.5330  -15.4993   26.5725 N   0  0  0  0  0  0  0  0  0  0  0  0
    9.2828  -14.2409   27.2266 C   0  0  0  0  0  0  0  0  0  0  0  0
   10.7296  -13.8514   27.5919 C   0  0  0  0  0  0  0  0  0  0  0  0
   11.2599  -15.1905   28.0846 C   0  0  0  0  0  0  0  0  0  0  0  0
   10.3174  -16.2432   27.5676 C   0  0  1  0  0  0  0  0  0  0  0  0
    9.4579  -16.7728   28.6517 C   0  0  0  0  0  0  0  0  0  0  0  0
    8.0741  -16.5632   28.7056 O   0  0  0  0  0  0  0  0  0  0  0  0
    9.9310  -17.4513   29.5985 O   0  0  0  0  0  0  0  0  0  0  0  0
  2  1  1  6
  3  2  1  0
  4  6  1  0
  4  2  1  0
  4  5  1  6
  6  8  1  0
  7  6  2  0
  8  9  1  0
  9 10  1  6
 11 16  1  0
 11 10  1  0
 12 11  2  0
 13 14  2  0
 13 12  1  0
 14 15  1  0
 15 16  2  0
 17 18  2  0
 17  9  1  0
 19 17  1  0
 20 21  1  0
 20 19  1  0
 21 22  1  0
 22 23  1  0
 23 19  1  0
 23 24  1  1
 25 24  1  0
 26 24  2  0
M  END
$$$$
