TFP.pdb
     RDKit          3D

 26 27  0  0  1  0  0  0  0  0999 V2000
   10.4348  -19.3315   20.0199 C   0  0  0  0  0  0  0  0  0  0  0  0
   10.4281  -18.5468   21.3348 C   0  0  1  0  0  0  0  0  0  0  0  0
   11.5036  -18.9110   22.1142 O   0  0  0  0  0  0  0  0  0  0  0  0
   10.4176  -17.0855   20.9612 C   0  0  2  0  0  0  0  0  0  0  0  0
   11.6602  -16.7413   20.2688 N   0  0  0  0  0  0  0  0  0  0  0  0
   10.2543  -16.1609   22.0775 C   0  0  0  0  0  0  0  0  0  0  0  0
   11.2613  -15.6256   22.6607 O   0  0  0  0  0  0  0  0  0  0  0  0
    8.9986  -15.7529   22.6356 N   0  0  0  0  0  0  0  0  0  0  0  0
    8.8939  -15.0613   23.9017 C   0  0  1  0  0  0  0  0  0  0  0  0
    7.5626  -14.3307   23.8317 C   0  0  0  0  0  0  0  0  0  0  0  0
    7.1909  -13.5941   25.0290 C   0  0  0  0  0  0  0  0  0  0  0  0
    6.4735  -14.1983   26.0413 C   0  0  0  0  0  0  0  0  0  0  0  0
    6.1740  -13.4464   27.1516 C   0  0  0  0  0  0  0  0  0  0  0  0
    6.5623  -12.1193   27.2888 C   0  0  0  0  0  0  0  0  0  0  0  0
    7.2763  -11.5256   26.2760 C   0  0  0  0  0  0  0  0  0  0  0  0
    7.5784  -12.2724   25.1638 C   0  0  0  0  0  0  0  0  0  0  0  0
    9.0849  -15.8461   25.1055 C   0  0  0  0  0  0  0  0  0  0  0  0
    8.7456  -17.1045   24.9991 O   0  0  0  0  0  0  0  0  0  0  0  0
    9.5657  -15.5145   26.3720 N   0  0  0  0  0  0  0  0  0  0  0  0
    9.5304  -14.2414   27.0445 C   0  0  0  0  0  0  0  0  0  0  0  0
   11.0280  -14.0890   27.3800 C   0  0  0  0  0  0  0  0  0  0  0  0
   11.3516  -15.5012   27.8466 C   0  0  0  0  0  0  0  0  0  0  0  0
   10.2445  -16.3858   27.3411 C   0  0  1  0  0  0  0  0  0  0  0  0
    9.3357  -16.7888   28.4394 C   0  0  0  0  0  0  0  0  0  0  0  0
    7.9735  -16.4640   28.4664 O   0  0  0  0  0  0  0  0  0  0  0  0
    9.7438  -17.4558   29.4238 O   0  0  0  0  0  0  0  0  0  0  0  0
  2  1  1  6
  3  2  1  0
  4  6  1  0
  4  2  1  0
  4  5  1  1
  6  8  1  0
  7  6  2  0
  8  9  1  0
  9 10  1  1
 11 16  1  0
 11 10  1  0
 12 11  2  0
 13 14  2  0
 13 12  1  0
 14 15  1  0
 15 16  2  0
 17 18  2  0
 17  9  1  0
 19 17  1  0
 20 21  1  0
 20 19  1  0
 21 22  1  0
 22 23  1  0
 23 19  1  0
 23 24  1  1
 25 24  1  0
 26 24  2  0
M  END
$$$$
