TFP.pdb
     RDKit          3D

 26 27  0  0  1  0  0  0  0  0999 V2000
    5.4039  -21.9633   22.8019 C   0  0  0  0  0  0  0  0  0  0  0  0
    5.9604  -20.5368   22.7985 C   0  0  1  0  0  0  0  0  0  0  0  0
    6.4078  -20.2013   21.5399 O   0  0  0  0  0  0  0  0  0  0  0  0
    4.8551  -19.6449   23.3064 C   0  0  2  0  0  0  0  0  0  0  0  0
    3.7030  -19.7211   22.4072 N   0  0  0  0  0  0  0  0  0  0  0  0
    5.2132  -18.2392   23.4598 C   0  0  0  0  0  0  0  0  0  0  0  0
    4.9446  -17.3738   22.5544 O   0  0  0  0  0  0  0  0  0  0  0  0
    5.8809  -17.6757   24.5962 N   0  0  0  0  0  0  0  0  0  0  0  0
    6.4799  -16.3593   24.5773 C   0  0  1  0  0  0  0  0  0  0  0  0
    6.4714  -15.9122   26.0302 C   0  0  0  0  0  0  0  0  0  0  0  0
    6.8892  -14.5391   26.2635 C   0  0  0  0  0  0  0  0  0  0  0  0
    5.9647  -13.5168   26.3332 C   0  0  0  0  0  0  0  0  0  0  0  0
    6.4305  -12.2471   26.5753 C   0  0  0  0  0  0  0  0  0  0  0  0
    7.7789  -11.9606   26.7496 C   0  0  0  0  0  0  0  0  0  0  0  0
    8.6925  -12.9846   26.6785 C   0  0  0  0  0  0  0  0  0  0  0  0
    8.2327  -14.2558   26.4368 C   0  0  0  0  0  0  0  0  0  0  0  0
    7.7621  -16.2220   23.9148 C   0  0  0  0  0  0  0  0  0  0  0  0
    8.5607  -17.2488   24.0482 O   0  0  0  0  0  0  0  0  0  0  0  0
    8.3165  -15.1931   23.1539 N   0  0  0  0  0  0  0  0  0  0  0  0
    7.9662  -13.7962   23.1358 C   0  0  0  0  0  0  0  0  0  0  0  0
    7.7147  -13.6162   21.6248 C   0  0  0  0  0  0  0  0  0  0  0  0
    8.8881  -14.4001   21.0543 C   0  0  0  0  0  0  0  0  0  0  0  0
    9.3984  -15.2794   22.1635 C   0  0  1  0  0  0  0  0  0  0  0  0
   10.6769  -14.7673   22.7091 C   0  0  0  0  0  0  0  0  0  0  0  0
   10.8228  -14.3162   24.0271 O   0  0  0  0  0  0  0  0  0  0  0  0
   11.7186  -14.7088   22.0078 O   0  0  0  0  0  0  0  0  0  0  0  0
  2  1  1  6
  3  2  1  0
  4  6  1  0
  4  2  1  0
  4  5  1  6
  6  8  1  0
  7  6  2  0
  8  9  1  0
  9 10  1  1
 11 16  1  0
 11 10  1  0
 12 11  2  0
 13 14  2  0
 13 12  1  0
 14 15  1  0
 15 16  2  0
 17 18  2  0
 17  9  1  0
 19 17  1  0
 20 21  1  0
 20 19  1  0
 21 22  1  0
 22 23  1  0
 23 19  1  0
 23 24  1  1
 25 24  1  0
 26 24  2  0
M  END
$$$$
