TFP.pdb
     RDKit          3D

 26 27  0  0  1  0  0  0  0  0999 V2000
    5.5071  -22.1786   23.1056 C   0  0  0  0  0  0  0  0  0  0  0  0
    6.1145  -20.7763   23.2024 C   0  0  1  0  0  0  0  0  0  0  0  0
    6.9210  -20.5286   22.1138 O   0  0  0  0  0  0  0  0  0  0  0  0
    4.9579  -19.8168   23.3305 C   0  0  2  0  0  0  0  0  0  0  0  0
    4.0768  -19.9434   22.1688 N   0  0  0  0  0  0  0  0  0  0  0  0
    5.3287  -18.4122   23.4622 C   0  0  0  0  0  0  0  0  0  0  0  0
    5.2147  -17.5917   22.4851 O   0  0  0  0  0  0  0  0  0  0  0  0
    5.8437  -17.8015   24.6524 N   0  0  0  0  0  0  0  0  0  0  0  0
    6.4405  -16.4840   24.6594 C   0  0  1  0  0  0  0  0  0  0  0  0
    6.4269  -16.0635   26.1202 C   0  0  0  0  0  0  0  0  0  0  0  0
    6.8348  -14.6921   26.3791 C   0  0  0  0  0  0  0  0  0  0  0  0
    8.1590  -14.3749   26.6045 C   0  0  0  0  0  0  0  0  0  0  0  0
    8.4735  -13.0554   26.8233 C   0  0  0  0  0  0  0  0  0  0  0  0
    7.5199  -12.0448   26.8256 C   0  0  0  0  0  0  0  0  0  0  0  0
    6.2039  -12.3697   26.6002 C   0  0  0  0  0  0  0  0  0  0  0  0
    5.8836  -13.6869   26.3809 C   0  0  0  0  0  0  0  0  0  0  0  0
    7.7245  -16.3325   24.0035 C   0  0  0  0  0  0  0  0  0  0  0  0
    8.4944  -17.3883   24.0552 O   0  0  0  0  0  0  0  0  0  0  0  0
    8.3057  -15.2647   23.3201 N   0  0  0  0  0  0  0  0  0  0  0  0
    7.9949  -13.8613   23.4095 C   0  0  0  0  0  0  0  0  0  0  0  0
    7.7447  -13.5602   21.9178 C   0  0  0  0  0  0  0  0  0  0  0  0
    8.8942  -14.3310   21.2840 C   0  0  0  0  0  0  0  0  0  0  0  0
    9.3823  -15.3058   22.3210 C   0  0  1  0  0  0  0  0  0  0  0  0
   10.6760  -14.8725   22.8979 C   0  0  0  0  0  0  0  0  0  0  0  0
   11.8902  -14.9501   22.2039 O   0  0  0  0  0  0  0  0  0  0  0  0
   10.7568  -14.4030   24.0614 O   0  0  0  0  0  0  0  0  0  0  0  0
  2  1  1  6
  3  2  1  0
  4  6  1  0
  4  2  1  0
  4  5  1  6
  6  8  1  0
  7  6  2  0
  8  9  1  0
  9 10  1  1
 11 16  1  0
 11 10  1  0
 12 11  2  0
 13 14  2  0
 13 12  1  0
 14 15  1  0
 15 16  2  0
 17 18  2  0
 17  9  1  0
 19 17  1  0
 20 21  1  0
 20 19  1  0
 21 22  1  0
 22 23  1  0
 23 19  1  0
 23 24  1  1
 25 24  1  0
 26 24  2  0
M  END
$$$$
