TFP.pdb
     RDKit          3D

 26 27  0  0  1  0  0  0  0  0999 V2000
   10.2721  -19.1619   21.8743 C   0  0  0  0  0  0  0  0  0  0  0  0
   11.1299  -18.2971   20.9465 C   0  0  1  0  0  0  0  0  0  0  0  0
   11.4049  -18.9753   19.7798 O   0  0  0  0  0  0  0  0  0  0  0  0
   10.3695  -17.0116   20.7354 C   0  0  2  0  0  0  0  0  0  0  0  0
   11.0458  -16.1948   19.7268 N   0  0  0  0  0  0  0  0  0  0  0  0
   10.1903  -16.1935   21.9297 C   0  0  0  0  0  0  0  0  0  0  0  0
   11.1599  -15.5342   22.4454 O   0  0  0  0  0  0  0  0  0  0  0  0
    8.9576  -16.0319   22.6432 N   0  0  0  0  0  0  0  0  0  0  0  0
    8.8629  -15.2905   23.8816 C   0  0  1  0  0  0  0  0  0  0  0  0
    7.5237  -14.5757   23.8004 C   0  0  0  0  0  0  0  0  0  0  0  0
    7.1498  -13.8139   24.9810 C   0  0  0  0  0  0  0  0  0  0  0  0
    6.4303  -14.3966   26.0045 C   0  0  0  0  0  0  0  0  0  0  0  0
    6.1289  -13.6213   27.0981 C   0  0  0  0  0  0  0  0  0  0  0  0
    6.5171  -12.2917   27.2079 C   0  0  0  0  0  0  0  0  0  0  0  0
    7.2332  -11.7196   26.1842 C   0  0  0  0  0  0  0  0  0  0  0  0
    7.5374  -12.4897   25.0886 C   0  0  0  0  0  0  0  0  0  0  0  0
    9.0776  -16.0241   25.1135 C   0  0  0  0  0  0  0  0  0  0  0  0
    8.7345  -17.2851   25.0674 O   0  0  0  0  0  0  0  0  0  0  0  0
    9.5847  -15.6402   26.3547 N   0  0  0  0  0  0  0  0  0  0  0  0
    9.5523  -14.3429   26.9793 C   0  0  0  0  0  0  0  0  0  0  0  0
   11.0557  -14.1639   27.2729 C   0  0  0  0  0  0  0  0  0  0  0  0
   11.4047  -15.5543   27.7845 C   0  0  0  0  0  0  0  0  0  0  0  0
   10.2950  -16.4678   27.3393 C   0  0  1  0  0  0  0  0  0  0  0  0
    9.4166  -16.8372   28.4735 C   0  0  0  0  0  0  0  0  0  0  0  0
    8.0964  -16.3870   28.5999 O   0  0  0  0  0  0  0  0  0  0  0  0
    9.8142  -17.5880   29.4002 O   0  0  0  0  0  0  0  0  0  0  0  0
  2  1  1  1
  3  2  1  0
  4  6  1  0
  4  2  1  0
  4  5  1  6
  6  8  1  0
  7  6  2  0
  8  9  1  0
  9 10  1  1
 11 16  1  0
 11 10  1  0
 12 11  2  0
 13 14  2  0
 13 12  1  0
 14 15  1  0
 15 16  2  0
 17 18  2  0
 17  9  1  0
 19 17  1  0
 20 21  1  0
 20 19  1  0
 21 22  1  0
 22 23  1  0
 23 19  1  0
 23 24  1  1
 25 24  1  0
 26 24  2  0
M  END
$$$$
