TFP.pdb
     RDKit          3D

 26 27  0  0  1  0  0  0  0  0999 V2000
   10.4301  -19.1988   22.2878 C   0  0  0  0  0  0  0  0  0  0  0  0
   11.5476  -18.4601   21.5460 C   0  0  1  0  0  0  0  0  0  0  0  0
   11.9808  -19.2043   20.4711 O   0  0  0  0  0  0  0  0  0  0  0  0
   10.9895  -17.1119   21.1642 C   0  0  2  0  0  0  0  0  0  0  0  0
   11.9328  -16.4138   20.2897 N   0  0  0  0  0  0  0  0  0  0  0  0
   10.6772  -16.2301   22.2834 C   0  0  0  0  0  0  0  0  0  0  0  0
   11.5894  -15.5720   22.8963 O   0  0  0  0  0  0  0  0  0  0  0  0
    9.3652  -15.9995   22.8126 N   0  0  0  0  0  0  0  0  0  0  0  0
    9.1329  -15.2443   24.0242 C   0  0  1  0  0  0  0  0  0  0  0  0
    7.7869  -14.5721   23.8061 C   0  0  0  0  0  0  0  0  0  0  0  0
    7.3019  -13.7703   24.9179 C   0  0  0  0  0  0  0  0  0  0  0  0
    6.6490  -14.3546   25.9841 C   0  0  0  0  0  0  0  0  0  0  0  0
    6.2353  -13.5373   27.0082 C   0  0  0  0  0  0  0  0  0  0  0  0
    6.4481  -12.1642   27.0079 C   0  0  0  0  0  0  0  0  0  0  0  0
    7.0991  -11.5908   25.9422 C   0  0  0  0  0  0  0  0  0  0  0  0
    7.5148  -12.4029   24.9158 C   0  0  0  0  0  0  0  0  0  0  0  0
    9.2522  -15.9538   25.2828 C   0  0  0  0  0  0  0  0  0  0  0  0
    9.0086  -17.2368   25.2140 O   0  0  0  0  0  0  0  0  0  0  0  0
    9.5795  -15.5275   26.5697 N   0  0  0  0  0  0  0  0  0  0  0  0
    9.2746  -14.2731   27.2083 C   0  0  0  0  0  0  0  0  0  0  0  0
   10.6955  -13.8534   27.6369 C   0  0  0  0  0  0  0  0  0  0  0  0
   11.2304  -15.1803   28.1566 C   0  0  0  0  0  0  0  0  0  0  0  0
   10.3336  -16.2532   27.6011 C   0  0  1  0  0  0  0  0  0  0  0  0
    9.4374  -16.7981   28.6471 C   0  0  0  0  0  0  0  0  0  0  0  0
    8.0424  -16.6810   28.5998 O   0  0  0  0  0  0  0  0  0  0  0  0
    9.8869  -17.4062   29.6515 O   0  0  0  0  0  0  0  0  0  0  0  0
  2  1  1  6
  3  2  1  0
  4  6  1  0
  4  2  1  0
  4  5  1  6
  6  8  1  0
  7  6  2  0
  8  9  1  0
  9 10  1  6
 11 16  1  0
 11 10  1  0
 12 11  2  0
 13 14  2  0
 13 12  1  0
 14 15  1  0
 15 16  2  0
 17 18  2  0
 17  9  1  0
 19 17  1  0
 20 21  1  0
 20 19  1  0
 21 22  1  0
 22 23  1  0
 23 19  1  0
 23 24  1  1
 25 24  1  0
 26 24  2  0
M  END
$$$$
