DPK.pdb
     RDKit          3D

 25 25  0  0  1  0  0  0  0  0999 V2000
   19.1069  -13.2705  -15.6262 N   0  0  0  0  0  0  0  0  0  0  0  0
   19.8211  -12.1877  -16.1696 C   0  0  1  0  0  0  0  0  0  0  0  0
   19.1790  -11.7792  -17.4799 C   0  0  0  0  0  0  0  0  0  0  0  0
   19.0785  -12.9233  -18.4170 C   0  0  0  0  0  0  0  0  0  0  0  0
   20.1129  -13.3797  -18.9592 O   0  0  0  0  0  0  0  0  0  0  0  0
   19.9681  -10.9765  -15.3520 C   0  0  0  0  0  0  0  0  0  0  0  0
   18.9597  -10.7777  -14.5807 O   0  0  0  0  0  0  0  0  0  0  0  0
   17.8602  -13.5062  -18.7115 O   0  0  0  0  0  0  0  0  0  0  0  0
   21.0627  -10.0768  -15.3530 N   0  0  0  0  0  0  0  0  0  0  0  0
   22.3035  -10.0392  -16.0681 C   0  0  0  0  0  0  0  0  0  0  0  0
   23.2841   -9.9419  -14.9156 C   0  0  0  0  0  0  0  0  0  0  0  0
   22.5589   -8.8698  -14.0877 C   0  0  0  0  0  0  0  0  0  0  0  0
   21.1173   -8.8951  -14.5267 C   0  0  1  0  0  0  0  0  0  0  0  0
   20.8240   -7.6401  -15.2544 C   0  0  0  0  0  0  0  0  0  0  0  0
   20.8773   -7.7180  -16.5207 O   0  0  0  0  0  0  0  0  0  0  0  0
   20.5021   -6.4028  -14.6921 N   0  0  0  0  0  0  0  0  0  0  0  0
   19.5645   -5.4825  -15.3666 C   0  0  1  0  0  0  0  0  0  0  0  0
   18.3129   -6.2325  -15.7539 C   0  0  0  0  0  0  0  0  0  0  0  0
   17.2850   -5.4037  -16.4598 C   0  0  0  0  0  0  0  0  0  0  0  0
   15.9197   -6.0343  -16.2511 C   0  0  0  0  0  0  0  0  0  0  0  0
   14.8230   -5.3448  -17.0025 C   0  0  0  0  0  0  0  0  0  0  0  0
   13.5453   -6.0381  -16.8037 N   0  0  0  0  0  0  0  0  0  0  0  0
   19.3452   -4.2970  -14.5490 C   0  0  0  0  0  0  0  0  0  0  0  0
   19.2593   -3.0093  -15.0345 O   0  0  0  0  0  0  0  0  0  0  0  0
   19.2197   -4.4166  -13.2870 O   0  0  0  0  0  0  0  0  0  0  0  0
  2  1  1  1
  2  3  1  0
  3  4  1  0
  4  8  1  0
  5  4  2  0
  6  2  1  0
  7  6  2  0
  9 13  1  0
  9  6  1  0
 10 11  1  0
 10  9  1  0
 11 12  1  0
 12 13  1  0
 13 14  1  6
 14 15  2  0
 16 14  1  0
 17 16  1  0
 17 23  1  0
 17 18  1  1
 19 18  1  0
 20 19  1  0
 20 21  1  0
 22 21  1  0
 23 25  2  0
 23 24  1  0
M  END
$$$$
