DPK.pdb
     RDKit          3D

 25 25  0  0  1  0  0  0  0  0999 V2000
   21.9398  -13.2732  -17.7507 N   0  0  0  0  0  0  0  0  0  0  0  0
   23.0382  -12.4017  -17.8590 C   0  0  1  0  0  0  0  0  0  0  0  0
   22.9758  -11.6908  -19.1958 C   0  0  0  0  0  0  0  0  0  0  0  0
   22.7636  -12.6448  -20.3102 C   0  0  0  0  0  0  0  0  0  0  0  0
   23.5598  -13.5990  -20.4764 O   0  0  0  0  0  0  0  0  0  0  0  0
   23.2131  -11.3776  -16.8208 C   0  0  0  0  0  0  0  0  0  0  0  0
   22.1277  -11.1409  -16.1748 O   0  0  0  0  0  0  0  0  0  0  0  0
   21.6984  -12.5077  -21.1805 O   0  0  0  0  0  0  0  0  0  0  0  0
   24.4063  -10.6825  -16.5036 N   0  0  0  0  0  0  0  0  0  0  0  0
   25.7234  -10.6825  -17.0674 C   0  0  0  0  0  0  0  0  0  0  0  0
   26.5511  -10.9967  -15.8364 C   0  0  0  0  0  0  0  0  0  0  0  0
   25.8708  -10.0340  -14.8510 C   0  0  0  0  0  0  0  0  0  0  0  0
   24.5071   -9.7359  -15.4192 C   0  0  1  0  0  0  0  0  0  0  0  0
   24.4760   -8.3211  -15.8529 C   0  0  0  0  0  0  0  0  0  0  0  0
   24.8249   -8.1111  -17.0557 O   0  0  0  0  0  0  0  0  0  0  0  0
   24.1083   -7.2172  -15.0803 N   0  0  0  0  0  0  0  0  0  0  0  0
   23.3363   -6.1030  -15.6664 C   0  0  1  0  0  0  0  0  0  0  0  0
   22.0919   -6.6447  -16.3275 C   0  0  0  0  0  0  0  0  0  0  0  0
   21.2091   -5.6017  -16.9398 C   0  0  0  0  0  0  0  0  0  0  0  0
   19.9836   -6.2798  -17.5258 C   0  0  0  0  0  0  0  0  0  0  0  0
   19.0358   -5.3290  -18.1893 C   0  0  0  0  0  0  0  0  0  0  0  0
   17.9308   -6.0580  -18.8219 N   0  0  0  0  0  0  0  0  0  0  0  0
   23.1036   -5.0696  -14.6664 C   0  0  0  0  0  0  0  0  0  0  0  0
   23.1827   -3.7132  -14.9012 O   0  0  0  0  0  0  0  0  0  0  0  0
   22.8035   -5.4030  -13.4741 O   0  0  0  0  0  0  0  0  0  0  0  0
  2  1  1  1
  2  3  1  0
  3  4  1  0
  4  8  1  0
  5  4  2  0
  6  2  1  0
  7  6  2  0
  9 13  1  0
  9  6  1  0
 10 11  1  0
 10  9  1  0
 11 12  1  0
 12 13  1  0
 13 14  1  6
 14 15  2  0
 16 14  1  0
 17 16  1  0
 17 23  1  0
 17 18  1  1
 19 18  1  0
 20 19  1  0
 20 21  1  0
 22 21  1  0
 23 25  2  0
 23 24  1  0
M  END
$$$$
