DPK.pdb
     RDKit          3D

 25 25  0  0  1  0  0  0  0  0999 V2000
   21.4216  -21.5293  -13.9300 N   0  0  0  0  0  0  0  0  0  0  0  0
   21.1830  -20.8803  -12.7054 C   0  0  1  0  0  0  0  0  0  0  0  0
   19.8548  -20.1546  -12.7807 C   0  0  0  0  0  0  0  0  0  0  0  0
   19.8168  -19.2055  -13.9186 C   0  0  0  0  0  0  0  0  0  0  0  0
   20.5599  -18.1955  -13.9153 O   0  0  0  0  0  0  0  0  0  0  0  0
   21.1745  -21.6932  -11.4823 C   0  0  0  0  0  0  0  0  0  0  0  0
   21.0382  -22.9476  -11.7257 O   0  0  0  0  0  0  0  0  0  0  0  0
   18.9737  -19.4077  -14.9953 O   0  0  0  0  0  0  0  0  0  0  0  0
   21.2969  -21.2271  -10.1498 N   0  0  0  0  0  0  0  0  0  0  0  0
   21.4149  -19.9215   -9.5721 C   0  0  0  0  0  0  0  0  0  0  0  0
   22.6828  -20.0927   -8.7582 C   0  0  0  0  0  0  0  0  0  0  0  0
   22.3660  -21.4561   -8.1247 C   0  0  0  0  0  0  0  0  0  0  0  0
   21.3270  -22.1035   -9.0038 C   0  0  1  0  0  0  0  0  0  0  0  0
   20.0492  -22.1615   -8.2592 C   0  0  0  0  0  0  0  0  0  0  0  0
   19.2016  -21.2648   -8.5587 O   0  0  0  0  0  0  0  0  0  0  0  0
   19.6948  -23.0892   -7.2771 N   0  0  0  0  0  0  0  0  0  0  0  0
   18.2838  -23.4713   -7.0667 C   0  0  1  0  0  0  0  0  0  0  0  0
   17.7283  -24.0680   -8.3373 C   0  0  0  0  0  0  0  0  0  0  0  0
   18.2222  -25.4478   -8.6438 C   0  0  0  0  0  0  0  0  0  0  0  0
   17.4760  -25.9774   -9.8554 C   0  0  0  0  0  0  0  0  0  0  0  0
   17.8941  -27.3582  -10.2569 C   0  0  0  0  0  0  0  0  0  0  0  0
   17.0669  -27.8466  -11.3659 N   0  0  0  0  0  0  0  0  0  0  0  0
   18.1600  -24.3131   -5.8843 C   0  0  0  0  0  0  0  0  0  0  0  0
   16.9762  -24.5888   -5.2333 O   0  0  0  0  0  0  0  0  0  0  0  0
   19.1998  -24.8519   -5.3830 O   0  0  0  0  0  0  0  0  0  0  0  0
  2  1  1  6
  2  3  1  0
  3  4  1  0
  4  8  1  0
  5  4  2  0
  6  2  1  0
  7  6  2  0
  9 13  1  0
  9  6  1  0
 10 11  1  0
 10  9  1  0
 11 12  1  0
 12 13  1  0
 13 14  1  1
 14 15  2  0
 16 14  1  0
 17 16  1  0
 17 23  1  0
 17 18  1  6
 19 18  1  0
 20 19  1  0
 20 21  1  0
 22 21  1  0
 23 25  2  0
 23 24  1  0
M  END
$$$$
