DPK.pdb
     RDKit          3D

 25 25  0  0  1  0  0  0  0  0999 V2000
   26.3160  -19.8312  -18.6509 N   0  0  0  0  0  0  0  0  0  0  0  0
   26.5163  -19.1900  -17.4154 C   0  0  1  0  0  0  0  0  0  0  0  0
   25.4904  -18.0858  -17.2590 C   0  0  0  0  0  0  0  0  0  0  0  0
   25.6001  -17.0829  -18.3449 C   0  0  0  0  0  0  0  0  0  0  0  0
   24.5907  -16.7881  -19.0278 O   0  0  0  0  0  0  0  0  0  0  0  0
   26.4745  -20.0088  -16.1968 C   0  0  0  0  0  0  0  0  0  0  0  0
   25.6787  -21.0119  -16.3046 O   0  0  0  0  0  0  0  0  0  0  0  0
   26.8003  -16.4576  -18.6271 O   0  0  0  0  0  0  0  0  0  0  0  0
   27.1967  -19.7879  -14.9979 N   0  0  0  0  0  0  0  0  0  0  0  0
   28.0322  -18.7195  -14.5364 C   0  0  0  0  0  0  0  0  0  0  0  0
   29.2933  -19.4857  -14.1873 C   0  0  0  0  0  0  0  0  0  0  0  0
   28.6471  -20.6621  -13.4396 C   0  0  0  0  0  0  0  0  0  0  0  0
   27.2131  -20.7233  -13.8994 C   0  0  1  0  0  0  0  0  0  0  0  0
   26.3388  -20.3371  -12.7693 C   0  0  0  0  0  0  0  0  0  0  0  0
   26.2088  -19.0880  -12.5818 O   0  0  0  0  0  0  0  0  0  0  0  0
   25.6579  -21.1985  -11.9061 N   0  0  0  0  0  0  0  0  0  0  0  0
   24.5488  -20.7088  -11.0628 C   0  0  1  0  0  0  0  0  0  0  0  0
   23.2406  -21.2519  -11.5851 C   0  0  0  0  0  0  0  0  0  0  0  0
   22.4784  -20.3039  -12.4581 C   0  0  0  0  0  0  0  0  0  0  0  0
   21.2465  -21.0125  -12.9922 C   0  0  0  0  0  0  0  0  0  0  0  0
   20.4677  -20.1953  -13.9762 C   0  0  0  0  0  0  0  0  0  0  0  0
   19.2981  -20.9402  -14.4557 N   0  0  0  0  0  0  0  0  0  0  0  0
   24.8184  -20.9927   -9.6597 C   0  0  0  0  0  0  0  0  0  0  0  0
   24.3043  -20.2787   -8.5980 O   0  0  0  0  0  0  0  0  0  0  0  0
   25.5821  -21.9637   -9.3490 O   0  0  0  0  0  0  0  0  0  0  0  0
  2  1  1  6
  2  3  1  0
  3  4  1  0
  4  8  1  0
  5  4  2  0
  6  2  1  0
  7  6  2  0
  9 13  1  0
  9  6  1  0
 10 11  1  0
 10  9  1  0
 11 12  1  0
 12 13  1  0
 13 14  1  1
 14 15  2  0
 16 14  1  0
 17 16  1  0
 17 23  1  0
 17 18  1  6
 19 18  1  0
 20 19  1  0
 20 21  1  0
 22 21  1  0
 23 25  2  0
 23 24  1  0
M  END
$$$$
