DPK.pdb
     RDKit          3D

 25 25  0  0  1  0  0  0  0  0999 V2000
   25.9564  -21.6966  -12.3713 N   0  0  0  0  0  0  0  0  0  0  0  0
   26.1661  -21.0143  -13.5829 C   0  0  1  0  0  0  0  0  0  0  0  0
   25.5074  -21.7883  -14.7070 C   0  0  0  0  0  0  0  0  0  0  0  0
   25.9753  -23.1942  -14.7470 C   0  0  0  0  0  0  0  0  0  0  0  0
   27.1451  -23.4533  -15.1165 O   0  0  0  0  0  0  0  0  0  0  0  0
   25.7118  -19.6210  -13.6793 C   0  0  0  0  0  0  0  0  0  0  0  0
   24.9197  -19.2940  -12.7218 O   0  0  0  0  0  0  0  0  0  0  0  0
   25.1456  -24.2383  -14.3833 O   0  0  0  0  0  0  0  0  0  0  0  0
   26.0592  -18.6799  -14.6800 N   0  0  0  0  0  0  0  0  0  0  0  0
   26.8754  -18.7509  -15.8553 C   0  0  0  0  0  0  0  0  0  0  0  0
   27.8281  -17.5991  -15.6004 C   0  0  0  0  0  0  0  0  0  0  0  0
   26.8028  -16.5513  -15.1407 C   0  0  0  0  0  0  0  0  0  0  0  0
   25.5876  -17.3162  -14.6827 C   0  0  1  0  0  0  0  0  0  0  0  0
   24.4848  -17.0645  -15.6371 C   0  0  0  0  0  0  0  0  0  0  0  0
   24.6211  -17.5973  -16.7817 O   0  0  0  0  0  0  0  0  0  0  0  0
   23.3323  -16.3107  -15.4039 N   0  0  0  0  0  0  0  0  0  0  0  0
   22.2020  -16.3372  -16.3540 C   0  0  1  0  0  0  0  0  0  0  0  0
   21.0607  -17.1254  -15.7579 C   0  0  0  0  0  0  0  0  0  0  0  0
   21.4332  -18.4953  -15.2821 C   0  0  0  0  0  0  0  0  0  0  0  0
   20.2203  -19.1338  -14.6292 C   0  0  0  0  0  0  0  0  0  0  0  0
   20.4938  -20.4929  -14.0629 C   0  0  0  0  0  0  0  0  0  0  0  0
   19.2910  -21.0379  -13.4234 N   0  0  0  0  0  0  0  0  0  0  0  0
   21.8641  -14.9838  -16.7738 C   0  0  0  0  0  0  0  0  0  0  0  0
   21.1570  -14.6655  -17.9140 O   0  0  0  0  0  0  0  0  0  0  0  0
   22.2322  -13.9933  -16.0625 O   0  0  0  0  0  0  0  0  0  0  0  0
  2  1  1  1
  2  3  1  0
  3  4  1  0
  4  8  1  0
  5  4  2  0
  6  2  1  0
  7  6  2  0
  9 13  1  0
  9  6  1  0
 10 11  1  0
 10  9  1  0
 11 12  1  0
 12 13  1  0
 13 14  1  6
 14 15  2  0
 16 14  1  0
 17 16  1  0
 17 23  1  0
 17 18  1  1
 19 18  1  0
 20 19  1  0
 20 21  1  0
 22 21  1  0
 23 25  2  0
 23 24  1  0
M  END
$$$$
