DPK.pdb
     RDKit          3D

 25 25  0  0  1  0  0  0  0  0999 V2000
   20.3081  -21.9015  -14.5774 N   0  0  0  0  0  0  0  0  0  0  0  0
   19.8484  -21.2984  -13.3930 C   0  0  1  0  0  0  0  0  0  0  0  0
   18.3406  -21.1634  -13.4595 C   0  0  0  0  0  0  0  0  0  0  0  0
   17.9322  -20.0558  -14.3559 C   0  0  0  0  0  0  0  0  0  0  0  0
   17.1147  -20.2703  -15.2821 O   0  0  0  0  0  0  0  0  0  0  0  0
   20.1792  -21.9432  -12.1156 C   0  0  0  0  0  0  0  0  0  0  0  0
   20.3932  -23.2040  -12.2412 O   0  0  0  0  0  0  0  0  0  0  0  0
   18.4353  -18.7783  -14.1949 O   0  0  0  0  0  0  0  0  0  0  0  0
   20.2725  -21.3196  -10.8466 N   0  0  0  0  0  0  0  0  0  0  0  0
   20.1032  -19.9688  -10.4004 C   0  0  0  0  0  0  0  0  0  0  0  0
   21.4261  -19.7429   -9.6946 C   0  0  0  0  0  0  0  0  0  0  0  0
   21.4993  -21.0654   -8.9161 C   0  0  0  0  0  0  0  0  0  0  0  0
   20.5954  -22.0338   -9.6350 C   0  0  1  0  0  0  0  0  0  0  0  0
   19.4248  -22.3142   -8.7738 C   0  0  0  0  0  0  0  0  0  0  0  0
   18.3480  -21.7306   -9.1091 O   0  0  0  0  0  0  0  0  0  0  0  0
   19.3928  -23.1419   -7.6492 N   0  0  0  0  0  0  0  0  0  0  0  0
   18.2425  -24.0322   -7.3936 C   0  0  1  0  0  0  0  0  0  0  0  0
   18.2159  -25.1312   -8.4282 C   0  0  0  0  0  0  0  0  0  0  0  0
   17.1002  -26.1156   -8.2607 C   0  0  0  0  0  0  0  0  0  0  0  0
   17.2420  -27.2005   -9.3133 C   0  0  0  0  0  0  0  0  0  0  0  0
   16.1822  -28.2552   -9.2295 C   0  0  0  0  0  0  0  0  0  0  0  0
   16.4473  -29.3318  -10.1904 N   0  0  0  0  0  0  0  0  0  0  0  0
   18.2548  -24.4876   -6.0099 C   0  0  0  0  0  0  0  0  0  0  0  0
   17.1303  -24.7542   -5.2578 O   0  0  0  0  0  0  0  0  0  0  0  0
   19.3671  -24.6634   -5.4145 O   0  0  0  0  0  0  0  0  0  0  0  0
  2  1  1  6
  2  3  1  0
  3  4  1  0
  4  8  1  0
  5  4  2  0
  6  2  1  0
  7  6  2  0
  9 13  1  0
  9  6  1  0
 10 11  1  0
 10  9  1  0
 11 12  1  0
 12 13  1  0
 13 14  1  1
 14 15  2  0
 16 14  1  0
 17 16  1  0
 17 23  1  0
 17 18  1  6
 19 18  1  0
 20 19  1  0
 20 21  1  0
 22 21  1  0
 23 25  2  0
 23 24  1  0
M  END
$$$$
