DPK.pdb
     RDKit          3D

 25 25  0  0  1  0  0  0  0  0999 V2000
   20.8108  -20.5197  -11.6801 N   0  0  0  0  0  0  0  0  0  0  0  0
   21.6918  -21.1800  -12.5550 C   0  0  1  0  0  0  0  0  0  0  0  0
   20.9484  -21.5435  -13.8244 C   0  0  0  0  0  0  0  0  0  0  0  0
   19.7138  -22.3097  -13.5319 C   0  0  0  0  0  0  0  0  0  0  0  0
   19.7844  -23.5356  -13.2781 O   0  0  0  0  0  0  0  0  0  0  0  0
   22.9254  -20.4863  -12.9476 C   0  0  0  0  0  0  0  0  0  0  0  0
   22.8069  -19.2075  -12.9025 O   0  0  0  0  0  0  0  0  0  0  0  0
   18.4729  -21.7005  -13.5318 O   0  0  0  0  0  0  0  0  0  0  0  0
   24.1480  -21.0829  -13.3438 N   0  0  0  0  0  0  0  0  0  0  0  0
   24.5697  -22.4417  -13.5114 C   0  0  0  0  0  0  0  0  0  0  0  0
   25.7969  -22.4623  -12.6210 C   0  0  0  0  0  0  0  0  0  0  0  0
   26.4331  -21.1404  -13.0771 C   0  0  0  0  0  0  0  0  0  0  0  0
   25.3248  -20.3228  -13.6892 C   0  0  1  0  0  0  0  0  0  0  0  0
   25.5654  -20.2182  -15.1459 C   0  0  0  0  0  0  0  0  0  0  0  0
   25.4980  -21.3104  -15.7901 O   0  0  0  0  0  0  0  0  0  0  0  0
   25.8549  -19.0562  -15.8646 N   0  0  0  0  0  0  0  0  0  0  0  0
   25.8331  -19.0509  -17.3413 C   0  0  1  0  0  0  0  0  0  0  0  0
   24.7411  -18.1279  -17.8260 C   0  0  0  0  0  0  0  0  0  0  0  0
   23.4070  -18.7836  -18.0049 C   0  0  0  0  0  0  0  0  0  0  0  0
   22.3229  -17.8165  -17.5639 C   0  0  0  0  0  0  0  0  0  0  0  0
   20.9484  -18.4105  -17.5863 C   0  0  0  0  0  0  0  0  0  0  0  0
   19.9634  -17.4539  -17.0692 N   0  0  0  0  0  0  0  0  0  0  0  0
   27.1617  -18.7630  -17.8645 C   0  0  0  0  0  0  0  0  0  0  0  0
   28.1646  -18.1278  -17.1632 O   0  0  0  0  0  0  0  0  0  0  0  0
   27.4579  -19.1064  -19.0549 O   0  0  0  0  0  0  0  0  0  0  0  0
  2  1  1  1
  2  3  1  0
  3  4  1  0
  4  8  1  0
  5  4  2  0
  6  2  1  0
  7  6  2  0
  9 13  1  0
  9  6  1  0
 10 11  1  0
 10  9  1  0
 11 12  1  0
 12 13  1  0
 13 14  1  6
 14 15  2  0
 16 14  1  0
 17 16  1  0
 17 23  1  0
 17 18  1  1
 19 18  1  0
 20 19  1  0
 20 21  1  0
 22 21  1  0
 23 25  2  0
 23 24  1  0
M  END
$$$$
