DPK.pdb
     RDKit          3D

 25 25  0  0  1  0  0  0  0  0999 V2000
   33.8251  -30.2760  -18.0908 N   0  0  0  0  0  0  0  0  0  0  0  0
   34.4363  -31.5404  -18.1643 C   0  0  1  0  0  0  0  0  0  0  0  0
   33.4763  -32.5171  -18.8127 C   0  0  0  0  0  0  0  0  0  0  0  0
   32.1507  -32.4989  -18.1497 C   0  0  0  0  0  0  0  0  0  0  0  0
   32.0778  -32.4223  -16.9003 O   0  0  0  0  0  0  0  0  0  0  0  0
   35.7203  -31.6476  -18.8693 C   0  0  0  0  0  0  0  0  0  0  0  0
   36.1395  -30.5134  -19.3041 O   0  0  0  0  0  0  0  0  0  0  0  0
   30.9800  -32.5651  -18.8818 O   0  0  0  0  0  0  0  0  0  0  0  0
   36.4750  -32.8266  -19.0883 N   0  0  0  0  0  0  0  0  0  0  0  0
   36.2819  -34.1989  -18.7252 C   0  0  0  0  0  0  0  0  0  0  0  0
   37.5867  -34.4810  -18.0061 C   0  0  0  0  0  0  0  0  0  0  0  0
   38.5476  -33.8238  -19.0087 C   0  0  0  0  0  0  0  0  0  0  0  0
   37.7263  -32.8440  -19.8068 C   0  0  1  0  0  0  0  0  0  0  0  0
   37.6139  -33.3439  -21.1953 C   0  0  0  0  0  0  0  0  0  0  0  0
   36.6763  -34.1748  -21.4022 O   0  0  0  0  0  0  0  0  0  0  0  0
   38.4257  -32.9968  -22.2776 N   0  0  0  0  0  0  0  0  0  0  0  0
   38.1949  -33.5753  -23.6167 C   0  0  1  0  0  0  0  0  0  0  0  0
   38.7597  -32.6518  -24.6690 C   0  0  0  0  0  0  0  0  0  0  0  0
   38.5969  -33.1388  -26.0754 C   0  0  0  0  0  0  0  0  0  0  0  0
   39.2080  -32.1197  -27.0205 C   0  0  0  0  0  0  0  0  0  0  0  0
   39.1540  -32.5326  -28.4590 C   0  0  0  0  0  0  0  0  0  0  0  0
   39.7761  -31.5142  -29.3126 N   0  0  0  0  0  0  0  0  0  0  0  0
   38.6902  -34.9442  -23.6672 C   0  0  0  0  0  0  0  0  0  0  0  0
   39.7258  -35.4366  -22.9015 O   0  0  0  0  0  0  0  0  0  0  0  0
   38.1540  -35.7790  -24.4662 O   0  0  0  0  0  0  0  0  0  0  0  0
  2  1  1  6
  2  3  1  0
  3  4  1  0
  4  8  1  0
  5  4  2  0
  6  2  1  0
  7  6  2  0
  9 13  1  0
  9  6  1  0
 10 11  1  0
 10  9  1  0
 11 12  1  0
 12 13  1  0
 13 14  1  6
 14 15  2  0
 16 14  1  0
 17 16  1  0
 17 23  1  0
 17 18  1  6
 19 18  1  0
 20 19  1  0
 20 21  1  0
 22 21  1  0
 23 25  2  0
 23 24  1  0
M  END
$$$$
