DPK.pdb
     RDKit          3D

 25 25  0  0  1  0  0  0  0  0999 V2000
   19.1131  -13.5529  -16.0920 N   0  0  0  0  0  0  0  0  0  0  0  0
   20.1549  -12.7729  -16.6250 C   0  0  1  0  0  0  0  0  0  0  0  0
   19.6937  -12.1566  -17.9302 C   0  0  0  0  0  0  0  0  0  0  0  0
   19.1283  -13.1772  -18.8444 C   0  0  0  0  0  0  0  0  0  0  0  0
   19.8523  -14.1120  -19.2618 O   0  0  0  0  0  0  0  0  0  0  0  0
   20.7040  -11.6928  -15.7950 C   0  0  0  0  0  0  0  0  0  0  0  0
   19.8603  -11.2612  -14.9272 O   0  0  0  0  0  0  0  0  0  0  0  0
   17.8088  -13.1241  -19.2528 O   0  0  0  0  0  0  0  0  0  0  0  0
   22.0032  -11.1331  -15.8769 N   0  0  0  0  0  0  0  0  0  0  0  0
   23.1156  -11.3549  -16.7520 C   0  0  0  0  0  0  0  0  0  0  0  0
   24.2045  -11.6626  -15.7425 C   0  0  0  0  0  0  0  0  0  0  0  0
   23.9129  -10.5352  -14.7403 C   0  0  0  0  0  0  0  0  0  0  0  0
   22.4849  -10.1144  -14.9757 C   0  0  1  0  0  0  0  0  0  0  0  0
   22.4843   -8.7522  -15.5546 C   0  0  0  0  0  0  0  0  0  0  0  0
   22.3702   -8.6960  -16.8180 O   0  0  0  0  0  0  0  0  0  0  0  0
   22.5963   -7.5471  -14.8575 N   0  0  0  0  0  0  0  0  0  0  0  0
   21.9746   -6.3106  -15.3730 C   0  0  1  0  0  0  0  0  0  0  0  0
   20.5096   -6.5571  -15.6418 C   0  0  0  0  0  0  0  0  0  0  0  0
   19.7245   -5.3280  -15.9805 C   0  0  0  0  0  0  0  0  0  0  0  0
   18.2832   -5.7249  -16.2453 C   0  0  0  0  0  0  0  0  0  0  0  0
   17.4006   -4.5674  -16.5969 C   0  0  0  0  0  0  0  0  0  0  0  0
   16.0108   -5.0082  -16.7605 N   0  0  0  0  0  0  0  0  0  0  0  0
   22.2590   -5.1937  -14.4822 C   0  0  0  0  0  0  0  0  0  0  0  0
   22.4451   -5.2992  -13.1201 O   0  0  0  0  0  0  0  0  0  0  0  0
   22.3491   -4.0155  -14.9583 O   0  0  0  0  0  0  0  0  0  0  0  0
  2  1  1  1
  2  3  1  0
  3  4  1  0
  4  8  1  0
  5  4  2  0
  6  2  1  0
  7  6  2  0
  9 13  1  0
  9  6  1  0
 10 11  1  0
 10  9  1  0
 11 12  1  0
 12 13  1  0
 13 14  1  6
 14 15  2  0
 16 14  1  0
 17 16  1  0
 17 23  1  0
 17 18  1  1
 19 18  1  0
 20 19  1  0
 20 21  1  0
 22 21  1  0
 23 25  2  0
 23 24  1  0
M  END
$$$$
