YVT.pdb
     RDKit          3D

 27 27  0  0  1  0  0  0  0  0999 V2000
   18.9046   -5.9278  -16.0114 O   0  0  0  0  0  0  0  0  0  0  0  0
   19.6565   -4.7606  -16.1284 C   0  0  0  0  0  0  0  0  0  0  0  0
   19.2585   -3.6747  -15.3557 C   0  0  0  0  0  0  0  0  0  0  0  0
   19.9925   -2.4924  -15.4521 C   0  0  0  0  0  0  0  0  0  0  0  0
   21.0757   -2.4457  -16.3026 C   0  0  0  0  0  0  0  0  0  0  0  0
   21.8417   -1.1903  -16.3942 C   0  0  0  0  0  0  0  0  0  0  0  0
   21.1871   -0.1908  -17.3217 C   0  0  2  0  0  0  0  0  0  0  0  0
   21.1608   -0.6087  -18.6846 N   0  0  0  0  0  0  0  0  0  0  0  0
   21.9339    1.0879  -17.1896 C   0  0  0  0  0  0  0  0  0  0  0  0
   22.9588    1.2391  -17.8906 O   0  0  0  0  0  0  0  0  0  0  0  0
   21.4723   -3.5196  -17.0692 C   0  0  0  0  0  0  0  0  0  0  0  0
   20.7408   -4.7056  -16.9765 C   0  0  0  0  0  0  0  0  0  0  0  0
   21.4811    3.9320  -18.5761 C   0  0  0  0  0  0  0  0  0  0  0  0
   21.4536    4.3867  -17.1455 C   0  0  1  0  0  0  0  0  0  0  0  0
   20.0281    4.6202  -16.6733 C   0  0  0  0  0  0  0  0  0  0  0  0
   22.1767    3.4117  -16.2324 C   0  0  2  0  0  0  0  0  0  0  0  0
   21.5432    2.1323  -16.3159 N   0  0  0  0  0  0  0  0  0  0  0  0
   22.2544    3.9238  -14.8410 C   0  0  0  0  0  0  0  0  0  0  0  0
   21.2263    4.0021  -14.1200 O   0  0  0  0  0  0  0  0  0  0  0  0
   24.4910    2.6121  -12.2348 C   0  0  0  0  0  0  0  0  0  0  0  0
   24.7081    4.1263  -12.2081 C   0  0  1  0  0  0  0  0  0  0  0  0
   25.8190    4.4413  -12.9909 O   0  0  0  0  0  0  0  0  0  0  0  0
   23.5087    4.7909  -12.8643 C   0  0  2  0  0  0  0  0  0  0  0  0
   23.4753    4.3510  -14.2446 N   0  0  0  0  0  0  0  0  0  0  0  0
   23.5710    6.2719  -12.7589 C   0  0  0  0  0  0  0  0  0  0  0  0
   23.3761    6.8206  -11.4998 O   0  0  0  0  0  0  0  0  0  0  0  0
   23.7899    6.9726  -13.7693 O   0  0  0  0  0  0  0  0  0  0  0  0
  2  1  1  0
  3  2  2  0
  4  3  1  0
  5  4  2  0
  5 11  1  0
  6  5  1  0
  7  9  1  0
  7  6  1  0
  7  8  1  6
  9 17  1  0
 10  9  2  0
 11 12  2  0
 12  2  1  0
 14 15  1  1
 14 13  1  0
 16 14  1  0
 16 17  1  1
 18 19  2  0
 18 16  1  0
 21 20  1  6
 21 22  1  0
 23 24  1  6
 23 21  1  0
 24 18  1  0
 25 23  1  0
 26 25  1  0
 27 25  2  0
M  END
$$$$
