YVT.pdb
     RDKit          3D

 27 27  0  0  1  0  0  0  0  0999 V2000
   16.1671  -17.3665  -20.9311 O   0  0  0  0  0  0  0  0  0  0  0  0
   16.7600  -16.5367  -19.9818 C   0  0  0  0  0  0  0  0  0  0  0  0
   17.6093  -15.5426  -20.4565 C   0  0  0  0  0  0  0  0  0  0  0  0
   18.2174  -14.6965  -19.5290 C   0  0  0  0  0  0  0  0  0  0  0  0
   17.9555  -14.8764  -18.1881 C   0  0  0  0  0  0  0  0  0  0  0  0
   18.6048  -13.9752  -17.2199 C   0  0  0  0  0  0  0  0  0  0  0  0
   20.0171  -14.4099  -16.8966 C   0  0  2  0  0  0  0  0  0  0  0  0
   20.0935  -15.6993  -16.2928 N   0  0  0  0  0  0  0  0  0  0  0  0
   20.5983  -13.3827  -15.9924 C   0  0  0  0  0  0  0  0  0  0  0  0
   20.2839  -13.4266  -14.7826 O   0  0  0  0  0  0  0  0  0  0  0  0
   17.1149  -15.8600  -17.7149 C   0  0  0  0  0  0  0  0  0  0  0  0
   16.5035  -16.7098  -18.6393 C   0  0  0  0  0  0  0  0  0  0  0  0
   24.2056  -10.2755  -14.9464 C   0  0  0  0  0  0  0  0  0  0  0  0
   23.5590  -11.3828  -15.7272 C   0  0  1  0  0  0  0  0  0  0  0  0
   24.1133  -12.7371  -15.3169 C   0  0  0  0  0  0  0  0  0  0  0  0
   22.0459  -11.3520  -15.5977 C   0  0  2  0  0  0  0  0  0  0  0  0
   21.4825  -12.3672  -16.4326 N   0  0  0  0  0  0  0  0  0  0  0  0
   21.5015  -10.0018  -15.8893 C   0  0  0  0  0  0  0  0  0  0  0  0
   21.7153   -9.4409  -16.9950 O   0  0  0  0  0  0  0  0  0  0  0  0
   18.0108   -8.9200  -15.8806 C   0  0  0  0  0  0  0  0  0  0  0  0
   18.7259   -7.9450  -14.9432 C   0  0  1  0  0  0  0  0  0  0  0  0
   18.6152   -8.4090  -13.6323 O   0  0  0  0  0  0  0  0  0  0  0  0
   20.2068   -7.9542  -15.2863 C   0  0  2  0  0  0  0  0  0  0  0  0
   20.7171   -9.2690  -14.9532 N   0  0  0  0  0  0  0  0  0  0  0  0
   20.9459   -6.8793  -14.5745 C   0  0  0  0  0  0  0  0  0  0  0  0
   20.7147   -5.5764  -14.9910 O   0  0  0  0  0  0  0  0  0  0  0  0
   21.7344   -7.1569  -13.6466 O   0  0  0  0  0  0  0  0  0  0  0  0
  2  1  1  0
  3  2  2  0
  4  3  1  0
  5  4  2  0
  5 11  1  0
  6  5  1  0
  7  9  1  0
  7  6  1  0
  7  8  1  1
  9 17  1  0
 10  9  2  0
 11 12  2  0
 12  2  1  0
 14 15  1  1
 14 13  1  0
 16 14  1  0
 16 17  1  6
 18 19  2  0
 18 16  1  0
 21 20  1  6
 21 22  1  0
 23 24  1  1
 23 21  1  0
 24 18  1  0
 25 23  1  0
 26 25  1  0
 27 25  2  0
M  END
$$$$
