YVT.pdb
     RDKit          3D

 27 27  0  0  1  0  0  0  0  0999 V2000
   13.7428  -14.1371  -17.0955 O   0  0  0  0  0  0  0  0  0  0  0  0
   14.8391  -13.4175  -16.6248 C   0  0  0  0  0  0  0  0  0  0  0  0
   15.2332  -12.3109  -17.3697 C   0  0  0  0  0  0  0  0  0  0  0  0
   16.3279  -11.5709  -16.9225 C   0  0  0  0  0  0  0  0  0  0  0  0
   16.9722  -11.9614  -15.7687 C   0  0  0  0  0  0  0  0  0  0  0  0
   18.1269  -11.1703  -15.3083 C   0  0  0  0  0  0  0  0  0  0  0  0
   19.3759  -11.4685  -16.1078 C   0  0  2  0  0  0  0  0  0  0  0  0
   19.8184  -12.8190  -15.9929 N   0  0  0  0  0  0  0  0  0  0  0  0
   20.4345  -10.5378  -15.6350 C   0  0  0  0  0  0  0  0  0  0  0  0
   21.0186  -10.8154  -14.5644 O   0  0  0  0  0  0  0  0  0  0  0  0
   16.5841  -13.0569  -15.0288 C   0  0  0  0  0  0  0  0  0  0  0  0
   15.4887  -13.8012  -15.4721 C   0  0  0  0  0  0  0  0  0  0  0  0
   23.6142   -9.5945  -16.9974 C   0  0  0  0  0  0  0  0  0  0  0  0
   22.8959   -8.2852  -16.8425 C   0  0  1  0  0  0  0  0  0  0  0  0
   22.4191   -7.7608  -18.1869 C   0  0  0  0  0  0  0  0  0  0  0  0
   21.7431   -8.3901  -15.8591 C   0  0  2  0  0  0  0  0  0  0  0  0
   20.8087   -9.3634  -16.3333 N   0  0  0  0  0  0  0  0  0  0  0  0
   21.1169   -7.0670  -15.6106 C   0  0  0  0  0  0  0  0  0  0  0  0
   21.7668   -6.1317  -15.0763 O   0  0  0  0  0  0  0  0  0  0  0  0
   19.3940   -4.9147  -18.0807 C   0  0  0  0  0  0  0  0  0  0  0  0
   18.4131   -5.0553  -16.9150 C   0  0  1  0  0  0  0  0  0  0  0  0
   17.5204   -6.0906  -17.1928 O   0  0  0  0  0  0  0  0  0  0  0  0
   19.1966   -5.4733  -15.6813 C   0  0  2  0  0  0  0  0  0  0  0  0
   19.7655   -6.7778  -15.9548 N   0  0  0  0  0  0  0  0  0  0  0  0
   18.3446   -5.4875  -14.4638 C   0  0  0  0  0  0  0  0  0  0  0  0
   17.8407   -4.2681  -14.0357 O   0  0  0  0  0  0  0  0  0  0  0  0
   18.1051   -6.5587  -13.8679 O   0  0  0  0  0  0  0  0  0  0  0  0
  2  1  1  0
  3  2  2  0
  4  3  1  0
  5  4  2  0
  5 11  1  0
  6  5  1  0
  7  9  1  0
  7  6  1  0
  7  8  1  1
  9 17  1  0
 10  9  2  0
 11 12  2  0
 12  2  1  0
 14 15  1  6
 14 13  1  0
 16 14  1  0
 16 17  1  6
 18 19  2  0
 18 16  1  0
 21 20  1  6
 21 22  1  0
 23 24  1  6
 23 21  1  0
 24 18  1  0
 25 23  1  0
 26 25  1  0
 27 25  2  0
M  END
$$$$
