YVT.pdb
     RDKit          3D

 27 27  0  0  1  0  0  0  0  0999 V2000
   27.8778  -12.8321  -17.3677 O   0  0  0  0  0  0  0  0  0  0  0  0
   27.3625  -14.0151  -16.8422 C   0  0  0  0  0  0  0  0  0  0  0  0
   26.8926  -14.9566  -17.7519 C   0  0  0  0  0  0  0  0  0  0  0  0
   26.3709  -16.1509  -17.2547 C   0  0  0  0  0  0  0  0  0  0  0  0
   26.3411  -16.3510  -15.8917 C   0  0  0  0  0  0  0  0  0  0  0  0
   25.7872  -17.6172  -15.3808 C   0  0  0  0  0  0  0  0  0  0  0  0
   26.8720  -18.5963  -14.9903 C   0  0  2  0  0  0  0  0  0  0  0  0
   27.6757  -19.0252  -16.0872 N   0  0  0  0  0  0  0  0  0  0  0  0
   26.2050  -19.7625  -14.3538 C   0  0  0  0  0  0  0  0  0  0  0  0
   25.9300  -20.7438  -15.0791 O   0  0  0  0  0  0  0  0  0  0  0  0
   26.8057  -15.4205  -14.9882 C   0  0  0  0  0  0  0  0  0  0  0  0
   27.3291  -14.2230  -15.4807 C   0  0  0  0  0  0  0  0  0  0  0  0
   27.2082  -21.3585  -11.0071 C   0  0  0  0  0  0  0  0  0  0  0  0
   25.7278  -21.1136  -10.9612 C   0  0  1  0  0  0  0  0  0  0  0  0
   25.3931  -19.9591  -10.0314 C   0  0  0  0  0  0  0  0  0  0  0  0
   25.1541  -20.8796  -12.3480 C   0  0  2  0  0  0  0  0  0  0  0  0
   25.8697  -19.8139  -12.9784 N   0  0  0  0  0  0  0  0  0  0  0  0
   23.6901  -20.6370  -12.2983 C   0  0  0  0  0  0  0  0  0  0  0  0
   23.2198  -19.6222  -11.7223 O   0  0  0  0  0  0  0  0  0  0  0  0
   21.5296  -22.2383  -15.3912 C   0  0  0  0  0  0  0  0  0  0  0  0
   21.3624  -20.8693  -14.7291 C   0  0  1  0  0  0  0  0  0  0  0  0
   20.0955  -20.3690  -15.0302 O   0  0  0  0  0  0  0  0  0  0  0  0
   21.4097  -21.0604  -13.2218 C   0  0  2  0  0  0  0  0  0  0  0  0
   22.7425  -21.5215  -12.8885 N   0  0  0  0  0  0  0  0  0  0  0  0
   20.3650  -22.0069  -12.7515 C   0  0  0  0  0  0  0  0  0  0  0  0
   20.8014  -23.2204  -12.2403 O   0  0  0  0  0  0  0  0  0  0  0  0
   19.1552  -21.7049  -12.8219 O   0  0  0  0  0  0  0  0  0  0  0  0
  2  1  1  0
  3  2  2  0
  4  3  1  0
  5  4  2  0
  5 11  1  0
  6  5  1  0
  7  9  1  0
  7  6  1  0
  7  8  1  6
  9 17  1  0
 10  9  2  0
 11 12  2  0
 12  2  1  0
 14 15  1  1
 14 13  1  0
 16 14  1  0
 16 17  1  1
 18 19  2  0
 18 16  1  0
 21 20  1  6
 21 22  1  0
 23 24  1  6
 23 21  1  0
 24 18  1  0
 25 23  1  0
 26 25  1  0
 27 25  2  0
M  END
$$$$
