YVT.pdb
     RDKit          3D

 27 27  0  0  1  0  0  0  0  0999 V2000
   19.5616  -15.5952  -19.3398 O   0  0  0  0  0  0  0  0  0  0  0  0
   20.2914  -16.4040  -18.4710 C   0  0  0  0  0  0  0  0  0  0  0  0
   19.6858  -17.5832  -18.0497 C   0  0  0  0  0  0  0  0  0  0  0  0
   20.3927  -18.4131  -17.1794 C   0  0  0  0  0  0  0  0  0  0  0  0
   21.6544  -18.0360  -16.7734 C   0  0  0  0  0  0  0  0  0  0  0  0
   22.3893  -18.9225  -15.8541 C   0  0  0  0  0  0  0  0  0  0  0  0
   23.4291  -19.7524  -16.5737 C   0  0  2  0  0  0  0  0  0  0  0  0
   22.8747  -20.6858  -17.4982 N   0  0  0  0  0  0  0  0  0  0  0  0
   24.2206  -20.4641  -15.5358 C   0  0  0  0  0  0  0  0  0  0  0  0
   23.7896  -21.5650  -15.1275 O   0  0  0  0  0  0  0  0  0  0  0  0
   22.2568  -16.8687  -17.1890 C   0  0  0  0  0  0  0  0  0  0  0  0
   21.5533  -16.0343  -18.0603 C   0  0  0  0  0  0  0  0  0  0  0  0
   27.9359  -21.1490  -15.6767 C   0  0  0  0  0  0  0  0  0  0  0  0
   27.6688  -20.5281  -14.3361 C   0  0  1  0  0  0  0  0  0  0  0  0
   28.1775  -19.0969  -14.2853 C   0  0  0  0  0  0  0  0  0  0  0  0
   26.1964  -20.5958  -13.9692 C   0  0  2  0  0  0  0  0  0  0  0  0
   25.4277  -19.9588  -14.9932 N   0  0  0  0  0  0  0  0  0  0  0  0
   25.9436  -20.0242  -12.6225 C   0  0  0  0  0  0  0  0  0  0  0  0
   25.9718  -18.7813  -12.4294 O   0  0  0  0  0  0  0  0  0  0  0  0
   23.9240  -22.1140   -9.5907 C   0  0  0  0  0  0  0  0  0  0  0  0
   23.9791  -20.5991   -9.7980 C   0  0  1  0  0  0  0  0  0  0  0  0
   23.7211  -19.9632   -8.5834 O   0  0  0  0  0  0  0  0  0  0  0  0
   25.3979  -20.2242  -10.1946 C   0  0  2  0  0  0  0  0  0  0  0  0
   25.6584  -20.8315  -11.4843 N   0  0  0  0  0  0  0  0  0  0  0  0
   26.3889  -20.6522   -9.1733 C   0  0  0  0  0  0  0  0  0  0  0  0
   26.3014  -20.0548   -7.9244 O   0  0  0  0  0  0  0  0  0  0  0  0
   27.2529  -21.5117   -9.4466 O   0  0  0  0  0  0  0  0  0  0  0  0
  2  1  1  0
  3  2  2  0
  4  3  1  0
  5  4  2  0
  5 11  1  0
  6  5  1  0
  7  9  1  0
  7  6  1  0
  7  8  1  6
  9 17  1  0
 10  9  2  0
 11 12  2  0
 12  2  1  0
 14 15  1  6
 14 13  1  0
 16 14  1  0
 16 17  1  6
 18 19  2  0
 18 16  1  0
 21 20  1  1
 21 22  1  0
 23 24  1  6
 23 21  1  0
 24 18  1  0
 25 23  1  0
 26 25  1  0
 27 25  2  0
M  END
$$$$
