YVT.pdb
     RDKit          3D

 27 27  0  0  1  0  0  0  0  0999 V2000
   21.5985  -13.6890  -18.3062 O   0  0  0  0  0  0  0  0  0  0  0  0
   21.5521  -14.8703  -17.5689 C   0  0  0  0  0  0  0  0  0  0  0  0
   21.3268  -16.0463  -18.2766 C   0  0  0  0  0  0  0  0  0  0  0  0
   21.2752  -17.2448  -17.5647 C   0  0  0  0  0  0  0  0  0  0  0  0
   21.4480  -17.2182  -16.1979 C   0  0  0  0  0  0  0  0  0  0  0  0
   21.3910  -18.4917  -15.4590 C   0  0  0  0  0  0  0  0  0  0  0  0
   22.7688  -19.0518  -15.1835 C   0  0  2  0  0  0  0  0  0  0  0  0
   23.4781  -19.4281  -16.3618 N   0  0  0  0  0  0  0  0  0  0  0  0
   22.5962  -20.2269  -14.2891 C   0  0  0  0  0  0  0  0  0  0  0  0
   22.3833  -21.3383  -14.8220 O   0  0  0  0  0  0  0  0  0  0  0  0
   21.6714  -16.0550  -15.4941 C   0  0  0  0  0  0  0  0  0  0  0  0
   21.7239  -14.8523  -16.2021 C   0  0  0  0  0  0  0  0  0  0  0  0
   24.9324  -21.3251  -11.6294 C   0  0  0  0  0  0  0  0  0  0  0  0
   23.5867  -21.2745  -10.9655 C   0  0  1  0  0  0  0  0  0  0  0  0
   23.4910  -20.0941  -10.0131 C   0  0  0  0  0  0  0  0  0  0  0  0
   22.4593  -21.2459  -11.9831 C   0  0  2  0  0  0  0  0  0  0  0  0
   22.6609  -20.1474  -12.8763 N   0  0  0  0  0  0  0  0  0  0  0  0
   21.1300  -21.2118  -11.3225 C   0  0  0  0  0  0  0  0  0  0  0  0
   20.6453  -20.1324  -10.8952 O   0  0  0  0  0  0  0  0  0  0  0  0
   17.8622  -21.9544  -12.5607 C   0  0  0  0  0  0  0  0  0  0  0  0
   18.0063  -22.8814  -11.3521 C   0  0  1  0  0  0  0  0  0  0  0  0
   18.4813  -24.1205  -11.7821 O   0  0  0  0  0  0  0  0  0  0  0  0
   19.0683  -22.3020  -10.4317 C   0  0  2  0  0  0  0  0  0  0  0  0
   20.3336  -22.3775  -11.1341 N   0  0  0  0  0  0  0  0  0  0  0  0
   19.1180  -23.0135   -9.1280 C   0  0  0  0  0  0  0  0  0  0  0  0
   17.9878  -22.9370   -8.3274 O   0  0  0  0  0  0  0  0  0  0  0  0
   20.1399  -23.6456   -8.7872 O   0  0  0  0  0  0  0  0  0  0  0  0
  2  1  1  0
  3  2  2  0
  4  3  1  0
  5  4  2  0
  5 11  1  0
  6  5  1  0
  7  9  1  0
  7  6  1  0
  7  8  1  6
  9 17  1  0
 10  9  2  0
 11 12  2  0
 12  2  1  0
 14 15  1  6
 14 13  1  0
 16 14  1  0
 16 17  1  6
 18 19  2  0
 18 16  1  0
 21 20  1  6
 21 22  1  0
 23 24  1  6
 23 21  1  0
 24 18  1  0
 25 23  1  0
 26 25  1  0
 27 25  2  0
M  END
$$$$
