YVT.pdb
     RDKit          3D

 27 27  0  0  1  0  0  0  0  0999 V2000
   27.4190  -19.7264   -5.1505 O   0  0  0  0  0  0  0  0  0  0  0  0
   26.9558  -19.7952   -6.4627 C   0  0  0  0  0  0  0  0  0  0  0  0
   27.1185  -18.6590   -7.2486 C   0  0  0  0  0  0  0  0  0  0  0  0
   26.6642  -18.6985   -8.5669 C   0  0  0  0  0  0  0  0  0  0  0  0
   26.0761  -19.8527   -9.0368 C   0  0  0  0  0  0  0  0  0  0  0  0
   25.6010  -19.8799  -10.4313 C   0  0  0  0  0  0  0  0  0  0  0  0
   25.9501  -21.1774  -11.1261 C   0  0  2  0  0  0  0  0  0  0  0  0
   27.3532  -21.4017  -11.2449 N   0  0  0  0  0  0  0  0  0  0  0  0
   25.3188  -21.1406  -12.4716 C   0  0  0  0  0  0  0  0  0  0  0  0
   25.9140  -20.5165  -13.3776 O   0  0  0  0  0  0  0  0  0  0  0  0
   25.9136  -20.9795   -8.2609 C   0  0  0  0  0  0  0  0  0  0  0  0
   26.3666  -20.9452   -6.9403 C   0  0  0  0  0  0  0  0  0  0  0  0
   24.9615  -23.4700  -14.9885 C   0  0  0  0  0  0  0  0  0  0  0  0
   23.5358  -23.0976  -14.7010 C   0  0  1  0  0  0  0  0  0  0  0  0
   22.8525  -24.1608  -13.8569 C   0  0  0  0  0  0  0  0  0  0  0  0
   23.4337  -21.7320  -14.0438 C   0  0  2  0  0  0  0  0  0  0  0  0
   24.0873  -21.7729  -12.7725 N   0  0  0  0  0  0  0  0  0  0  0  0
   22.0236  -21.2768  -13.9496 C   0  0  0  0  0  0  0  0  0  0  0  0
   21.3610  -21.4319  -12.8914 O   0  0  0  0  0  0  0  0  0  0  0  0
   20.4974  -17.8897  -15.5462 C   0  0  0  0  0  0  0  0  0  0  0  0
   19.7197  -19.1465  -15.9415 C   0  0  1  0  0  0  0  0  0  0  0  0
   20.2327  -19.6417  -17.1405 O   0  0  0  0  0  0  0  0  0  0  0  0
   19.9690  -20.2121  -14.8865 C   0  0  2  0  0  0  0  0  0  0  0  0
   21.3438  -20.6470  -15.0312 N   0  0  0  0  0  0  0  0  0  0  0  0
   19.0161  -21.3458  -15.0097 C   0  0  0  0  0  0  0  0  0  0  0  0
   19.4982  -22.5114  -15.5871 O   0  0  0  0  0  0  0  0  0  0  0  0
   17.8395  -21.2342  -14.6059 O   0  0  0  0  0  0  0  0  0  0  0  0
  2  1  1  0
  3  2  2  0
  4  3  1  0
  5  4  2  0
  5 11  1  0
  6  5  1  0
  7  9  1  0
  7  6  1  0
  7  8  1  6
  9 17  1  0
 10  9  2  0
 11 12  2  0
 12  2  1  0
 14 15  1  1
 14 13  1  0
 16 14  1  0
 16 17  1  1
 18 19  2  0
 18 16  1  0
 21 20  1  1
 21 22  1  0
 23 24  1  6
 23 21  1  0
 24 18  1  0
 25 23  1  0
 26 25  1  0
 27 25  2  0
M  END
$$$$
