YVT.pdb
     RDKit          3D

 27 27  0  0  1  0  0  0  0  0999 V2000
   26.2933  -30.5802  -18.2620 O   0  0  0  0  0  0  0  0  0  0  0  0
   26.6654  -29.3647  -17.6916 C   0  0  0  0  0  0  0  0  0  0  0  0
   25.7140  -28.3499  -17.6945 C   0  0  0  0  0  0  0  0  0  0  0  0
   26.0583  -27.1216  -17.1300 C   0  0  0  0  0  0  0  0  0  0  0  0
   27.3181  -26.9615  -16.5952 C   0  0  0  0  0  0  0  0  0  0  0  0
   27.6678  -25.6586  -16.0024 C   0  0  0  0  0  0  0  0  0  0  0  0
   28.1528  -24.6725  -17.0417 C   0  0  2  0  0  0  0  0  0  0  0  0
   29.4716  -24.9416  -17.5125 N   0  0  0  0  0  0  0  0  0  0  0  0
   28.0912  -23.3196  -16.4283 C   0  0  0  0  0  0  0  0  0  0  0  0
   28.9650  -22.4887  -16.7611 O   0  0  0  0  0  0  0  0  0  0  0  0
   28.2625  -27.9646  -16.5909 C   0  0  0  0  0  0  0  0  0  0  0  0
   27.9229  -29.1963  -17.1547 C   0  0  0  0  0  0  0  0  0  0  0  0
   27.9972  -20.6315  -16.9813 C   0  0  0  0  0  0  0  0  0  0  0  0
   26.8201  -20.6096  -16.0497 C   0  0  1  0  0  0  0  0  0  0  0  0
   25.5198  -20.8241  -16.8065 C   0  0  0  0  0  0  0  0  0  0  0  0
   26.9717  -21.6240  -14.9294 C   0  0  2  0  0  0  0  0  0  0  0  0
   27.0995  -22.9316  -15.4942 N   0  0  0  0  0  0  0  0  0  0  0  0
   25.8578  -21.5273  -13.9525 C   0  0  0  0  0  0  0  0  0  0  0  0
   24.7249  -22.0099  -14.2103 O   0  0  0  0  0  0  0  0  0  0  0  0
   24.6344  -20.9809   -9.2091 C   0  0  0  0  0  0  0  0  0  0  0  0
   25.6570  -20.7456  -10.3225 C   0  0  1  0  0  0  0  0  0  0  0  0
   26.7166  -21.6392  -10.1645 O   0  0  0  0  0  0  0  0  0  0  0  0
   24.9989  -21.0790  -11.6516 C   0  0  2  0  0  0  0  0  0  0  0  0
   25.9983  -20.8938  -12.6846 N   0  0  0  0  0  0  0  0  0  0  0  0
   23.7927  -20.2460  -11.8957 C   0  0  0  0  0  0  0  0  0  0  0  0
   22.5749  -20.7693  -11.4864 O   0  0  0  0  0  0  0  0  0  0  0  0
   23.8920  -19.1289  -12.4454 O   0  0  0  0  0  0  0  0  0  0  0  0
  2  1  1  0
  3  2  2  0
  4  3  1  0
  5  4  2  0
  5 11  1  0
  6  5  1  0
  7  9  1  0
  7  6  1  0
  7  8  1  1
  9 17  1  0
 10  9  2  0
 11 12  2  0
 12  2  1  0
 14 15  1  6
 14 13  1  0
 16 14  1  0
 16 17  1  6
 18 19  2  0
 18 16  1  0
 21 20  1  1
 21 22  1  0
 23 24  1  6
 23 21  1  0
 24 18  1  0
 25 23  1  0
 26 25  1  0
 27 25  2  0
M  END
$$$$
