YVT.pdb
     RDKit          3D

 27 27  0  0  1  0  0  0  0  0999 V2000
   29.2587  -29.3134  -19.7399 O   0  0  0  0  0  0  0  0  0  0  0  0
   28.7880  -28.2250  -19.0084 C   0  0  0  0  0  0  0  0  0  0  0  0
   28.8542  -28.3214  -17.6224 C   0  0  0  0  0  0  0  0  0  0  0  0
   28.3901  -27.2468  -16.8636 C   0  0  0  0  0  0  0  0  0  0  0  0
   27.8875  -26.1392  -17.5112 C   0  0  0  0  0  0  0  0  0  0  0  0
   27.4009  -25.0116  -16.6970 C   0  0  0  0  0  0  0  0  0  0  0  0
   28.3603  -23.8424  -16.7130 C   0  0  2  0  0  0  0  0  0  0  0  0
   29.6107  -24.1214  -16.0870 N   0  0  0  0  0  0  0  0  0  0  0  0
   27.6843  -22.7081  -16.0299 C   0  0  0  0  0  0  0  0  0  0  0  0
   27.7946  -22.6276  -14.7866 O   0  0  0  0  0  0  0  0  0  0  0  0
   27.8206  -26.0407  -18.8838 C   0  0  0  0  0  0  0  0  0  0  0  0
   28.2840  -27.1138  -19.6481 C   0  0  0  0  0  0  0  0  0  0  0  0
   28.5004  -19.3811  -16.1471 C   0  0  0  0  0  0  0  0  0  0  0  0
   27.0488  -19.3308  -16.5268 C   0  0  1  0  0  0  0  0  0  0  0  0
   26.8816  -19.0807  -18.0164 C   0  0  0  0  0  0  0  0  0  0  0  0
   26.3129  -20.5892  -16.1001 C   0  0  2  0  0  0  0  0  0  0  0  0
   26.9289  -21.7244  -16.7143 N   0  0  0  0  0  0  0  0  0  0  0  0
   24.8602  -20.4965  -16.3926 C   0  0  0  0  0  0  0  0  0  0  0  0
   24.4320  -20.5435  -17.5746 O   0  0  0  0  0  0  0  0  0  0  0  0
   22.1392  -22.4958  -14.7235 C   0  0  0  0  0  0  0  0  0  0  0  0
   21.6996  -21.0320  -14.6562 C   0  0  1  0  0  0  0  0  0  0  0  0
   22.0662  -20.5023  -13.4188 O   0  0  0  0  0  0  0  0  0  0  0  0
   22.4710  -20.2542  -15.7101 C   0  0  2  0  0  0  0  0  0  0  0  0
   23.8770  -20.3510  -15.3724 N   0  0  0  0  0  0  0  0  0  0  0  0
   22.0202  -18.8407  -15.7944 C   0  0  0  0  0  0  0  0  0  0  0  0
   20.7306  -18.6193  -16.2549 O   0  0  0  0  0  0  0  0  0  0  0  0
   22.7827  -17.9092  -15.4613 O   0  0  0  0  0  0  0  0  0  0  0  0
  2  1  1  0
  3  2  2  0
  4  3  1  0
  5  4  2  0
  5 11  1  0
  6  5  1  0
  7  9  1  0
  7  6  1  0
  7  8  1  1
  9 17  1  0
 10  9  2  0
 11 12  2  0
 12  2  1  0
 14 15  1  6
 14 13  1  0
 16 14  1  0
 16 17  1  6
 18 19  2  0
 18 16  1  0
 21 20  1  1
 21 22  1  0
 23 24  1  1
 23 21  1  0
 24 18  1  0
 25 23  1  0
 26 25  1  0
 27 25  2  0
M  END
$$$$
