YVT.pdb
     RDKit          3D

 27 27  0  0  1  0  0  0  0  0999 V2000
   16.3292  -20.9077  -18.5270 O   0  0  0  0  0  0  0  0  0  0  0  0
   17.4590  -20.5346  -17.8019 C   0  0  0  0  0  0  0  0  0  0  0  0
   17.2979  -19.5228  -16.8611 C   0  0  0  0  0  0  0  0  0  0  0  0
   18.4119  -19.1281  -16.1200 C   0  0  0  0  0  0  0  0  0  0  0  0
   19.6201  -19.7508  -16.3464 C   0  0  0  0  0  0  0  0  0  0  0  0
   20.7881  -19.3236  -15.5562 C   0  0  0  0  0  0  0  0  0  0  0  0
   21.1037  -20.2922  -14.4382 C   0  0  2  0  0  0  0  0  0  0  0  0
   20.2669  -20.1359  -13.2943 N   0  0  0  0  0  0  0  0  0  0  0  0
   22.5283  -20.0866  -14.0659 C   0  0  0  0  0  0  0  0  0  0  0  0
   22.8167  -19.0623  -13.4085 O   0  0  0  0  0  0  0  0  0  0  0  0
   19.7826  -20.7532  -17.2775 C   0  0  0  0  0  0  0  0  0  0  0  0
   18.6706  -21.1521  -18.0222 C   0  0  0  0  0  0  0  0  0  0  0  0
   24.7198  -21.4587  -11.7674 C   0  0  0  0  0  0  0  0  0  0  0  0
   25.4104  -21.7337  -13.0718 C   0  0  1  0  0  0  0  0  0  0  0  0
   25.2161  -23.1791  -13.4993 C   0  0  0  0  0  0  0  0  0  0  0  0
   24.9548  -20.7779  -14.1608 C   0  0  2  0  0  0  0  0  0  0  0  0
   23.5636  -20.9873  -14.4174 N   0  0  0  0  0  0  0  0  0  0  0  0
   25.7892  -20.9061  -15.3822 C   0  0  0  0  0  0  0  0  0  0  0  0
   25.5601  -21.8040  -16.2332 O   0  0  0  0  0  0  0  0  0  0  0  0
   29.1999  -18.4922  -15.9504 C   0  0  0  0  0  0  0  0  0  0  0  0
   28.3495  -18.8860  -17.1597 C   0  0  1  0  0  0  0  0  0  0  0  0
   29.1860  -19.0964  -18.2561 O   0  0  0  0  0  0  0  0  0  0  0  0
   27.6811  -20.2176  -16.8584 C   0  0  2  0  0  0  0  0  0  0  0  0
   26.8818  -20.0368  -15.6632 N   0  0  0  0  0  0  0  0  0  0  0  0
   28.6745  -21.3110  -16.6973 C   0  0  0  0  0  0  0  0  0  0  0  0
   29.2240  -21.8363  -17.8576 O   0  0  0  0  0  0  0  0  0  0  0  0
   28.9869  -21.7238  -15.5606 O   0  0  0  0  0  0  0  0  0  0  0  0
  2  1  1  0
  3  2  2  0
  4  3  1  0
  5  4  2  0
  5 11  1  0
  6  5  1  0
  7  9  1  0
  7  6  1  0
  7  8  1  1
  9 17  1  0
 10  9  2  0
 11 12  2  0
 12  2  1  0
 14 15  1  6
 14 13  1  0
 16 14  1  0
 16 17  1  6
 18 19  2  0
 18 16  1  0
 21 20  1  1
 21 22  1  0
 23 24  1  1
 23 21  1  0
 24 18  1  0
 25 23  1  0
 26 25  1  0
 27 25  2  0
M  END
$$$$
