YVT.pdb
     RDKit          3D

 27 27  0  0  1  0  0  0  0  0999 V2000
   30.9013  -16.6513  -19.1163 O   0  0  0  0  0  0  0  0  0  0  0  0
   29.9427  -17.3662  -18.4013 C   0  0  0  0  0  0  0  0  0  0  0  0
   29.8585  -17.1152  -17.0357 C   0  0  0  0  0  0  0  0  0  0  0  0
   28.9077  -17.8163  -16.2938 C   0  0  0  0  0  0  0  0  0  0  0  0
   28.0945  -18.7239  -16.9371 C   0  0  0  0  0  0  0  0  0  0  0  0
   27.0949  -19.4572  -16.1407 C   0  0  0  0  0  0  0  0  0  0  0  0
   27.6953  -20.6529  -15.4354 C   0  0  2  0  0  0  0  0  0  0  0  0
   28.2129  -21.6398  -16.3249 N   0  0  0  0  0  0  0  0  0  0  0  0
   26.6312  -21.2394  -14.5786 C   0  0  0  0  0  0  0  0  0  0  0  0
   25.9348  -22.1590  -15.0620 O   0  0  0  0  0  0  0  0  0  0  0  0
   28.1756  -18.9746  -18.2894 C   0  0  0  0  0  0  0  0  0  0  0  0
   29.1257  -18.2753  -19.0368 C   0  0  0  0  0  0  0  0  0  0  0  0
   25.9966  -19.6213  -10.7021 C   0  0  0  0  0  0  0  0  0  0  0  0
   25.6645  -21.0607  -10.9702 C   0  0  1  0  0  0  0  0  0  0  0  0
   24.5525  -21.5450  -10.0545 C   0  0  0  0  0  0  0  0  0  0  0  0
   25.3085  -21.2925  -12.4285 C   0  0  2  0  0  0  0  0  0  0  0  0
   26.3719  -20.8097  -13.2539 N   0  0  0  0  0  0  0  0  0  0  0  0
   23.9963  -20.6886  -12.7717 C   0  0  0  0  0  0  0  0  0  0  0  0
   23.8496  -19.4400  -12.8208 O   0  0  0  0  0  0  0  0  0  0  0  0
   22.0799  -20.8073  -15.7595 C   0  0  0  0  0  0  0  0  0  0  0  0
   21.1061  -21.3292  -14.7012 C   0  0  1  0  0  0  0  0  0  0  0  0
   21.1761  -22.7220  -14.6647 O   0  0  0  0  0  0  0  0  0  0  0  0
   21.5699  -20.8328  -13.3414 C   0  0  2  0  0  0  0  0  0  0  0  0
   22.8412  -21.4697  -13.0619 N   0  0  0  0  0  0  0  0  0  0  0  0
   20.5682  -21.1118  -12.2798 C   0  0  0  0  0  0  0  0  0  0  0  0
   19.4075  -20.3523  -12.2964 O   0  0  0  0  0  0  0  0  0  0  0  0
   20.7804  -21.9938  -11.4213 O   0  0  0  0  0  0  0  0  0  0  0  0
  2  1  1  0
  3  2  2  0
  4  3  1  0
  5  4  2  0
  5 11  1  0
  6  5  1  0
  7  9  1  0
  7  6  1  0
  7  8  1  6
  9 17  1  0
 10  9  2  0
 11 12  2  0
 12  2  1  0
 14 15  1  1
 14 13  1  0
 16 14  1  0
 16 17  1  6
 18 19  2  0
 18 16  1  0
 21 20  1  6
 21 22  1  0
 23 24  1  1
 23 21  1  0
 24 18  1  0
 25 23  1  0
 26 25  1  0
 27 25  2  0
M  END
$$$$
