YVT.pdb
     RDKit          3D

 27 27  0  0  1  0  0  0  0  0999 V2000
   21.4644   -5.1493  -22.3715 O   0  0  0  0  0  0  0  0  0  0  0  0
   21.1013   -5.5452  -21.0860 C   0  0  0  0  0  0  0  0  0  0  0  0
   19.8145   -6.0470  -20.9212 C   0  0  0  0  0  0  0  0  0  0  0  0
   19.4227   -6.4513  -19.6449 C   0  0  0  0  0  0  0  0  0  0  0  0
   20.3187   -6.3391  -18.6040 C   0  0  0  0  0  0  0  0  0  0  0  0
   19.8911   -6.7701  -17.2613 C   0  0  0  0  0  0  0  0  0  0  0  0
   20.5380   -8.0739  -16.8495 C   0  0  2  0  0  0  0  0  0  0  0  0
   20.1794   -9.1763  -17.6796 N   0  0  0  0  0  0  0  0  0  0  0  0
   20.1393   -8.3384  -15.4418 C   0  0  0  0  0  0  0  0  0  0  0  0
   19.1099   -9.0214  -15.2463 O   0  0  0  0  0  0  0  0  0  0  0  0
   21.5938   -5.8426  -18.7640 C   0  0  0  0  0  0  0  0  0  0  0  0
   21.9910   -5.4364  -20.0398 C   0  0  0  0  0  0  0  0  0  0  0  0
   21.5088   -8.6043  -10.7172 C   0  0  0  0  0  0  0  0  0  0  0  0
   21.7679   -8.5077  -12.1928 C   0  0  1  0  0  0  0  0  0  0  0  0
   22.3396   -9.8077  -12.7339 C   0  0  0  0  0  0  0  0  0  0  0  0
   20.5192   -8.1024  -12.9568 C   0  0  2  0  0  0  0  0  0  0  0  0
   20.8635   -7.8579  -14.3231 N   0  0  0  0  0  0  0  0  0  0  0  0
   19.8424   -6.9447  -12.3196 C   0  0  0  0  0  0  0  0  0  0  0  0
   20.4141   -5.8276  -12.2299 O   0  0  0  0  0  0  0  0  0  0  0  0
   16.8500   -5.2408  -13.3165 C   0  0  0  0  0  0  0  0  0  0  0  0
   16.5737   -5.6470  -11.8676 C   0  0  1  0  0  0  0  0  0  0  0  0
   15.9121   -6.8751  -11.8568 O   0  0  0  0  0  0  0  0  0  0  0  0
   17.9074   -5.8632  -11.1712 C   0  0  2  0  0  0  0  0  0  0  0  0
   18.5269   -7.0236  -11.7793 N   0  0  0  0  0  0  0  0  0  0  0  0
   17.7441   -6.0308   -9.7036 C   0  0  0  0  0  0  0  0  0  0  0  0
   17.3833   -4.9042   -8.9792 O   0  0  0  0  0  0  0  0  0  0  0  0
   17.9279   -7.1433   -9.1664 O   0  0  0  0  0  0  0  0  0  0  0  0
  2  1  1  0
  3  2  2  0
  4  3  1  0
  5  4  2  0
  5 11  1  0
  6  5  1  0
  7  9  1  0
  7  6  1  0
  7  8  1  6
  9 17  1  0
 10  9  2  0
 11 12  2  0
 12  2  1  0
 14 15  1  6
 14 13  1  0
 16 14  1  0
 16 17  1  6
 18 19  2  0
 18 16  1  0
 21 20  1  6
 21 22  1  0
 23 24  1  6
 23 21  1  0
 24 18  1  0
 25 23  1  0
 26 25  1  0
 27 25  2  0
M  END
$$$$
