YVT.pdb
     RDKit          3D

 27 27  0  0  1  0  0  0  0  0999 V2000
   28.8572  -18.6429   -3.4527 O   0  0  0  0  0  0  0  0  0  0  0  0
   28.4740  -19.0798   -4.7190 C   0  0  0  0  0  0  0  0  0  0  0  0
   28.3941  -20.4548   -4.9136 C   0  0  0  0  0  0  0  0  0  0  0  0
   28.0129  -20.9217   -6.1717 C   0  0  0  0  0  0  0  0  0  0  0  0
   27.7323  -20.0099   -7.1660 C   0  0  0  0  0  0  0  0  0  0  0  0
   27.3309  -20.5175   -8.4898 C   0  0  0  0  0  0  0  0  0  0  0  0
   25.8597  -20.2955   -8.7622 C   0  0  2  0  0  0  0  0  0  0  0  0
   25.0012  -20.9757   -7.8494 N   0  0  0  0  0  0  0  0  0  0  0  0
   25.5955  -20.7493  -10.1531 C   0  0  0  0  0  0  0  0  0  0  0  0
   25.4496  -21.9762  -10.3477 O   0  0  0  0  0  0  0  0  0  0  0  0
   27.8106  -18.6475   -6.9763 C   0  0  0  0  0  0  0  0  0  0  0  0
   28.1917  -18.1749   -5.7187 C   0  0  0  0  0  0  0  0  0  0  0  0
   23.8070  -22.1612  -11.7021 C   0  0  0  0  0  0  0  0  0  0  0  0
   23.8000  -20.9382  -12.5728 C   0  0  1  0  0  0  0  0  0  0  0  0
   22.7062  -19.9719  -12.1495 C   0  0  0  0  0  0  0  0  0  0  0  0
   25.1555  -20.2528  -12.5892 C   0  0  2  0  0  0  0  0  0  0  0  0
   25.5022  -19.8662  -11.2568 N   0  0  0  0  0  0  0  0  0  0  0  0
   25.1786  -19.1139  -13.5415 C   0  0  0  0  0  0  0  0  0  0  0  0
   24.5618  -18.0463  -13.2913 O   0  0  0  0  0  0  0  0  0  0  0  0
   28.2996  -17.6005  -14.4514 C   0  0  0  0  0  0  0  0  0  0  0  0
   27.6047  -17.8397  -15.7933 C   0  0  1  0  0  0  0  0  0  0  0  0
   28.0145  -19.0708  -16.3058 O   0  0  0  0  0  0  0  0  0  0  0  0
   26.1093  -17.9469  -15.5426 C   0  0  2  0  0  0  0  0  0  0  0  0
   25.8875  -19.1565  -14.7761 N   0  0  0  0  0  0  0  0  0  0  0  0
   25.3347  -17.9479  -16.8108 C   0  0  0  0  0  0  0  0  0  0  0  0
   25.3668  -16.7854  -17.5672 O   0  0  0  0  0  0  0  0  0  0  0  0
   24.6910  -18.9590  -17.1619 O   0  0  0  0  0  0  0  0  0  0  0  0
  2  1  1  0
  3  2  2  0
  4  3  1  0
  5  4  2  0
  5 11  1  0
  6  5  1  0
  7  9  1  0
  7  6  1  0
  7  8  1  1
  9 17  1  0
 10  9  2  0
 11 12  2  0
 12  2  1  0
 14 15  1  1
 14 13  1  0
 16 14  1  0
 16 17  1  1
 18 19  2  0
 18 16  1  0
 21 20  1  1
 21 22  1  0
 23 24  1  6
 23 21  1  0
 24 18  1  0
 25 23  1  0
 26 25  1  0
 27 25  2  0
M  END
$$$$
