AQH.pdb
     RDKit          3D

 25 25  0  0  1  0  0  0  0  0999 V2000
    8.7828  -19.6013   16.5156 C   0  0  0  0  0  0  0  0  0  0  0  0
    9.3290  -18.2741   16.0938 C   0  0  2  0  0  0  0  0  0  0  0  0
   10.4166  -18.4194   15.1629 N   0  0  0  0  0  0  0  0  0  0  0  0
    9.7824  -17.4618   17.2707 C   0  0  0  0  0  0  0  0  0  0  0  0
   10.9690  -17.6142   17.6567 O   0  0  0  0  0  0  0  0  0  0  0  0
    6.6455  -12.5203   19.3038 N   0  0  0  0  0  0  0  0  0  0  0  0
    7.6303  -12.5535   20.3184 C   0  0  0  0  0  0  0  0  0  0  0  0
    7.6738  -11.6539   21.1759 O   0  0  0  0  0  0  0  0  0  0  0  0
    8.5947  -13.6717   20.3317 C   0  0  0  0  0  0  0  0  0  0  0  0
    8.3882  -14.6281   19.2240 C   0  0  0  0  0  0  0  0  0  0  0  0
    9.4350  -15.6912   19.0242 C   0  0  2  0  0  0  0  0  0  0  0  0
    8.9320  -16.5553   17.9366 N   0  0  0  0  0  0  0  0  0  0  0  0
    9.5301  -16.5326   20.2226 C   0  0  0  0  0  0  0  0  0  0  0  0
    8.8943  -17.6528   20.1652 O   0  0  0  0  0  0  0  0  0  0  0  0
   10.2409  -16.2408   21.4070 N   0  0  0  0  0  0  0  0  0  0  0  0
   10.7173  -17.3431   22.2093 C   0  0  1  0  0  0  0  0  0  0  0  0
   11.5939  -18.2708   21.3959 C   0  0  0  0  0  0  0  0  0  0  0  0
   12.0087  -19.4033   22.2381 C   0  0  0  0  0  0  0  0  0  0  0  0
   11.7532  -19.6747   23.5664 C   0  0  0  0  0  0  0  0  0  0  0  0
   12.3825  -20.8349   23.8880 N   0  0  0  0  0  0  0  0  0  0  0  0
   13.0119  -21.2867   22.8182 C   0  0  0  0  0  0  0  0  0  0  0  0
   12.7952  -20.4305   21.8103 N   0  0  0  0  0  0  0  0  0  0  0  0
   11.3876  -16.7955   23.3940 C   0  0  0  0  0  0  0  0  0  0  0  0
   11.8303  -15.6072   23.3884 O   0  0  0  0  0  0  0  0  0  0  0  0
   11.5493  -17.5523   24.5346 O   0  0  0  0  0  0  0  0  0  0  0  0
  2  1  1  1
  2  4  1  0
  3  2  1  0
  4  5  2  0
  7  6  1  0
  7  9  1  0
  8  7  2  0
 10  9  1  0
 11 10  1  1
 11 13  1  0
 12 11  1  0
 12  4  1  0
 13 14  2  0
 15 16  1  0
 15 13  1  0
 16 23  1  0
 16 17  1  6
 18 17  1  0
 18 19  2  0
 20 19  1  0
 21 20  1  0
 22 21  2  0
 22 18  1  0
 23 24  2  0
 23 25  1  0
M  END
$$$$
