AQH.pdb
     RDKit          3D

 25 25  0  0  1  0  0  0  0  0999 V2000
    7.7694  -16.8533   23.6068 C   0  0  0  0  0  0  0  0  0  0  0  0
    6.9274  -16.4020   22.4556 C   0  0  2  0  0  0  0  0  0  0  0  0
    5.9359  -17.3844   22.1062 N   0  0  0  0  0  0  0  0  0  0  0  0
    7.7616  -16.0819   21.2505 C   0  0  0  0  0  0  0  0  0  0  0  0
    7.8845  -16.9775   20.3771 O   0  0  0  0  0  0  0  0  0  0  0  0
    6.1506  -13.8426   18.1135 N   0  0  0  0  0  0  0  0  0  0  0  0
    7.3679  -13.1278   18.0262 C   0  0  0  0  0  0  0  0  0  0  0  0
    7.9688  -13.0485   16.9402 O   0  0  0  0  0  0  0  0  0  0  0  0
    7.9003  -12.4860   19.2449 C   0  0  0  0  0  0  0  0  0  0  0  0
    9.1837  -13.0668   19.6921 C   0  0  0  0  0  0  0  0  0  0  0  0
    9.2345  -14.5574   19.8953 C   0  0  2  0  0  0  0  0  0  0  0  0
    8.3942  -14.8335   21.0786 N   0  0  0  0  0  0  0  0  0  0  0  0
   10.5996  -14.9698   20.2411 C   0  0  0  0  0  0  0  0  0  0  0  0
   11.4835  -14.7888   19.3200 O   0  0  0  0  0  0  0  0  0  0  0  0
   11.0302  -15.5304   21.4633 N   0  0  0  0  0  0  0  0  0  0  0  0
   12.4415  -15.7778   21.6441 C   0  0  1  0  0  0  0  0  0  0  0  0
   13.2449  -14.5073   21.4673 C   0  0  0  0  0  0  0  0  0  0  0  0
   13.9349  -14.5504   20.1689 C   0  0  0  0  0  0  0  0  0  0  0  0
   13.7970  -15.4212   19.1079 C   0  0  0  0  0  0  0  0  0  0  0  0
   14.6827  -15.0555   18.1447 N   0  0  0  0  0  0  0  0  0  0  0  0
   15.3569  -14.0009   18.5669 C   0  0  0  0  0  0  0  0  0  0  0  0
   14.9156  -13.6826   19.7916 N   0  0  0  0  0  0  0  0  0  0  0  0
   12.6345  -16.4138   22.9521 C   0  0  0  0  0  0  0  0  0  0  0  0
   11.6434  -16.6271   23.7139 O   0  0  0  0  0  0  0  0  0  0  0  0
   13.8878  -16.7944   23.3812 O   0  0  0  0  0  0  0  0  0  0  0  0
  2  1  1  1
  2  4  1  0
  3  2  1  0
  4  5  2  0
  7  6  1  0
  7  9  1  0
  8  7  2  0
 10  9  1  0
 11 10  1  1
 11 13  1  0
 12 11  1  0
 12  4  1  0
 13 14  2  0
 15 16  1  0
 15 13  1  0
 16 23  1  0
 16 17  1  1
 18 17  1  0
 18 19  2  0
 20 19  1  0
 21 20  1  0
 22 21  2  0
 22 18  1  0
 23 24  2  0
 23 25  1  0
M  END
$$$$
