AQH.pdb
     RDKit          3D

 25 25  0  0  1  0  0  0  0  0999 V2000
    8.1288  -12.2326   19.3455 C   0  0  0  0  0  0  0  0  0  0  0  0
    8.7301  -13.2071   18.3829 C   0  0  2  0  0  0  0  0  0  0  0  0
    7.7295  -13.8071   17.5407 N   0  0  0  0  0  0  0  0  0  0  0  0
    9.4993  -14.2830   19.0909 C   0  0  0  0  0  0  0  0  0  0  0  0
    8.8908  -15.3503   19.3567 O   0  0  0  0  0  0  0  0  0  0  0  0
   15.7688  -16.3283   18.5308 N   0  0  0  0  0  0  0  0  0  0  0  0
   14.7770  -15.4908   17.9694 C   0  0  0  0  0  0  0  0  0  0  0  0
   15.0968  -14.5936   17.1698 O   0  0  0  0  0  0  0  0  0  0  0  0
   13.3678  -15.7074   18.3540 C   0  0  0  0  0  0  0  0  0  0  0  0
   13.0207  -15.0931   19.6527 C   0  0  0  0  0  0  0  0  0  0  0  0
   11.5952  -15.2211   20.1191 C   0  0  2  0  0  0  0  0  0  0  0  0
   10.8527  -14.1298   19.4556 N   0  0  0  0  0  0  0  0  0  0  0  0
   11.5157  -14.9695   21.5626 C   0  0  0  0  0  0  0  0  0  0  0  0
   11.7781  -13.7619   21.9301 O   0  0  0  0  0  0  0  0  0  0  0  0
   11.1812  -15.9037   22.5670 N   0  0  0  0  0  0  0  0  0  0  0  0
   10.2956  -15.4822   23.6271 C   0  0  1  0  0  0  0  0  0  0  0  0
    9.0138  -14.9024   23.0688 C   0  0  0  0  0  0  0  0  0  0  0  0
    8.1461  -14.4904   24.1829 C   0  0  0  0  0  0  0  0  0  0  0  0
    8.3342  -14.5782   25.5467 C   0  0  0  0  0  0  0  0  0  0  0  0
    7.2261  -14.0837   26.1577 N   0  0  0  0  0  0  0  0  0  0  0  0
    6.3677  -13.6972   25.2310 C   0  0  0  0  0  0  0  0  0  0  0  0
    6.9103  -13.9370   24.0293 N   0  0  0  0  0  0  0  0  0  0  0  0
   10.0786  -16.6206   24.5269 C   0  0  0  0  0  0  0  0  0  0  0  0
    9.3254  -16.5025   25.5402 O   0  0  0  0  0  0  0  0  0  0  0  0
   10.6814  -17.8380   24.2936 O   0  0  0  0  0  0  0  0  0  0  0  0
  2  1  1  1
  2  4  1  0
  3  2  1  0
  4  5  2  0
  7  6  1  0
  7  9  1  0
  8  7  2  0
 10  9  1  0
 11 10  1  6
 11 13  1  0
 12 11  1  0
 12  4  1  0
 13 14  2  0
 15 16  1  0
 15 13  1  0
 16 23  1  0
 16 17  1  6
 18 17  1  0
 18 19  2  0
 20 19  1  0
 21 20  1  0
 22 21  2  0
 22 18  1  0
 23 24  2  0
 23 25  1  0
M  END
$$$$
