AQH.pdb
     RDKit          3D

 25 25  0  0  1  0  0  0  0  0999 V2000
   12.5174  -17.8633   16.8634 C   0  0  0  0  0  0  0  0  0  0  0  0
   11.5889  -16.7054   16.6766 C   0  0  2  0  0  0  0  0  0  0  0  0
   12.0201  -15.8470   15.6053 N   0  0  0  0  0  0  0  0  0  0  0  0
   11.4448  -15.9016   17.9351 C   0  0  0  0  0  0  0  0  0  0  0  0
   12.3676  -15.0956   18.2161 O   0  0  0  0  0  0  0  0  0  0  0  0
    8.1193  -14.8476   17.4321 N   0  0  0  0  0  0  0  0  0  0  0  0
    7.8021  -13.6916   18.1827 C   0  0  0  0  0  0  0  0  0  0  0  0
    7.3199  -12.6937   17.6185 O   0  0  0  0  0  0  0  0  0  0  0  0
    8.0562  -13.7011   19.6373 C   0  0  0  0  0  0  0  0  0  0  0  0
    8.6589  -14.9644   20.1120 C   0  0  0  0  0  0  0  0  0  0  0  0
   10.1462  -15.1263   19.9457 C   0  0  2  0  0  0  0  0  0  0  0  0
   10.3286  -16.0253   18.7877 N   0  0  0  0  0  0  0  0  0  0  0  0
   10.7084  -15.8188   21.1109 C   0  0  0  0  0  0  0  0  0  0  0  0
   10.5887  -17.1025   21.1037 O   0  0  0  0  0  0  0  0  0  0  0  0
   11.3592  -15.2260   22.2147 N   0  0  0  0  0  0  0  0  0  0  0  0
   11.8387  -16.0868   23.2705 C   0  0  1  0  0  0  0  0  0  0  0  0
   13.1198  -15.5503   23.8721 C   0  0  0  0  0  0  0  0  0  0  0  0
   14.2035  -15.6715   22.8848 C   0  0  0  0  0  0  0  0  0  0  0  0
   14.7343  -16.7850   22.2672 C   0  0  0  0  0  0  0  0  0  0  0  0
   15.7420  -16.3753   21.4532 N   0  0  0  0  0  0  0  0  0  0  0  0
   15.8530  -15.0621   21.5438 C   0  0  0  0  0  0  0  0  0  0  0  0
   14.9279  -14.6207   22.4072 N   0  0  0  0  0  0  0  0  0  0  0  0
   10.7606  -16.2594   24.2505 C   0  0  0  0  0  0  0  0  0  0  0  0
    9.6474  -15.6738   24.0890 O   0  0  0  0  0  0  0  0  0  0  0  0
   10.9287  -17.0579   25.3613 O   0  0  0  0  0  0  0  0  0  0  0  0
  2  1  1  1
  2  4  1  0
  3  2  1  0
  4  5  2  0
  7  6  1  0
  7  9  1  0
  8  7  2  0
 10  9  1  0
 11 10  1  1
 11 13  1  0
 12 11  1  0
 12  4  1  0
 13 14  2  0
 15 16  1  0
 15 13  1  0
 16 23  1  0
 16 17  1  1
 18 17  1  0
 18 19  2  0
 20 19  1  0
 21 20  1  0
 22 21  2  0
 22 18  1  0
 23 24  2  0
 23 25  1  0
M  END
$$$$
