AQH.pdb
     RDKit          3D

 25 25  0  0  1  0  0  0  0  0999 V2000
    7.8254  -12.2542   19.8182 C   0  0  0  0  0  0  0  0  0  0  0  0
    8.5901  -13.1678   18.9134 C   0  0  2  0  0  0  0  0  0  0  0  0
    7.8391  -13.4930   17.7299 N   0  0  0  0  0  0  0  0  0  0  0  0
    8.9932  -14.4318   19.6137 C   0  0  0  0  0  0  0  0  0  0  0  0
    8.7492  -15.5190   19.0318 O   0  0  0  0  0  0  0  0  0  0  0  0
   13.6697  -14.6416   18.3591 N   0  0  0  0  0  0  0  0  0  0  0  0
   13.4968  -15.9621   18.8354 C   0  0  0  0  0  0  0  0  0  0  0  0
   14.3882  -16.8112   18.6588 O   0  0  0  0  0  0  0  0  0  0  0  0
   12.2440  -16.3018   19.5395 C   0  0  0  0  0  0  0  0  0  0  0  0
   11.8209  -15.2635   20.5026 C   0  0  0  0  0  0  0  0  0  0  0  0
   10.5498  -15.5096   21.2706 C   0  0  2  0  0  0  0  0  0  0  0  0
    9.6226  -14.4296   20.8755 N   0  0  0  0  0  0  0  0  0  0  0  0
   10.7945  -15.3513   22.7087 C   0  0  0  0  0  0  0  0  0  0  0  0
   10.9352  -14.1364   23.1166 O   0  0  0  0  0  0  0  0  0  0  0  0
   10.8841  -16.3814   23.6701 N   0  0  0  0  0  0  0  0  0  0  0  0
    9.9399  -16.3826   24.7629 C   0  0  1  0  0  0  0  0  0  0  0  0
    8.5168  -16.3000   24.2541 C   0  0  0  0  0  0  0  0  0  0  0  0
    7.9144  -15.0381   24.7109 C   0  0  0  0  0  0  0  0  0  0  0  0
    8.4355  -14.0247   25.4884 C   0  0  0  0  0  0  0  0  0  0  0  0
    7.4714  -13.0819   25.6535 N   0  0  0  0  0  0  0  0  0  0  0  0
    6.3835  -13.4711   25.0131 C   0  0  0  0  0  0  0  0  0  0  0  0
    6.6359  -14.6545   24.4369 N   0  0  0  0  0  0  0  0  0  0  0  0
   10.1960  -17.5654   25.5925 C   0  0  0  0  0  0  0  0  0  0  0  0
   10.3984  -18.6951   25.0533 O   0  0  0  0  0  0  0  0  0  0  0  0
   10.2250  -17.4782   26.9677 O   0  0  0  0  0  0  0  0  0  0  0  0
  2  1  1  1
  2  4  1  0
  3  2  1  0
  4  5  2  0
  7  6  1  0
  7  9  1  0
  8  7  2  0
 10  9  1  0
 11 10  1  6
 11 13  1  0
 12 11  1  0
 12  4  1  0
 13 14  2  0
 15 16  1  0
 15 13  1  0
 16 23  1  0
 16 17  1  6
 18 17  1  0
 18 19  2  0
 20 19  1  0
 21 20  1  0
 22 21  2  0
 22 18  1  0
 23 24  2  0
 23 25  1  0
M  END
$$$$
