AQH.pdb
     RDKit          3D

 25 25  0  0  1  0  0  0  0  0999 V2000
    7.8348  -12.3808   19.1039 C   0  0  0  0  0  0  0  0  0  0  0  0
    8.4199  -13.7562   19.1656 C   0  0  2  0  0  0  0  0  0  0  0  0
    7.3975  -14.7686   19.1555 N   0  0  0  0  0  0  0  0  0  0  0  0
    9.2897  -13.9349   20.3747 C   0  0  0  0  0  0  0  0  0  0  0  0
   10.2545  -13.1417   20.5162 O   0  0  0  0  0  0  0  0  0  0  0  0
    7.4566  -17.1952   25.3180 N   0  0  0  0  0  0  0  0  0  0  0  0
    7.0242  -15.8764   25.0454 C   0  0  0  0  0  0  0  0  0  0  0  0
    5.9885  -15.4369   25.5752 O   0  0  0  0  0  0  0  0  0  0  0  0
    7.8259  -15.0452   24.1251 C   0  0  0  0  0  0  0  0  0  0  0  0
    8.9929  -15.7599   23.5667 C   0  0  0  0  0  0  0  0  0  0  0  0
    9.8491  -15.0175   22.5759 C   0  0  2  0  0  0  0  0  0  0  0  0
    9.0571  -14.9448   21.3310 N   0  0  0  0  0  0  0  0  0  0  0  0
   11.0513  -15.8001   22.2668 C   0  0  0  0  0  0  0  0  0  0  0  0
   10.8599  -16.8446   21.5356 O   0  0  0  0  0  0  0  0  0  0  0  0
   12.3719  -15.5216   22.6813 N   0  0  0  0  0  0  0  0  0  0  0  0
   13.4117  -16.4616   22.3336 C   0  0  1  0  0  0  0  0  0  0  0  0
   14.6220  -15.7511   21.7668 C   0  0  0  0  0  0  0  0  0  0  0  0
   14.2877  -15.2154   20.4382 C   0  0  0  0  0  0  0  0  0  0  0  0
   13.2565  -15.5295   19.5774 C   0  0  0  0  0  0  0  0  0  0  0  0
   13.3978  -14.7742   18.4570 N   0  0  0  0  0  0  0  0  0  0  0  0
   14.4682  -14.0118   18.5918 C   0  0  0  0  0  0  0  0  0  0  0  0
   15.0184  -14.2674   19.7867 N   0  0  0  0  0  0  0  0  0  0  0  0
   13.7128  -17.2748   23.5171 C   0  0  0  0  0  0  0  0  0  0  0  0
   14.5740  -18.2036   23.4547 O   0  0  0  0  0  0  0  0  0  0  0  0
   13.0740  -17.0497   24.7175 O   0  0  0  0  0  0  0  0  0  0  0  0
  2  1  1  1
  2  4  1  0
  3  2  1  0
  4  5  2  0
  7  6  1  0
  7  9  1  0
  8  7  2  0
 10  9  1  0
 11 10  1  1
 11 13  1  0
 12 11  1  0
 12  4  1  0
 13 14  2  0
 15 16  1  0
 15 13  1  0
 16 23  1  0
 16 17  1  1
 18 17  1  0
 18 19  2  0
 20 19  1  0
 21 20  1  0
 22 21  2  0
 22 18  1  0
 23 24  2  0
 23 25  1  0
M  END
$$$$
