AQH.pdb
     RDKit          3D

 25 25  0  0  1  0  0  0  0  0999 V2000
    7.7510  -12.4410   19.0417 C   0  0  0  0  0  0  0  0  0  0  0  0
    8.3834  -13.3249   18.0138 C   0  0  2  0  0  0  0  0  0  0  0  0
    7.3958  -14.0298   17.2403 N   0  0  0  0  0  0  0  0  0  0  0  0
    9.3289  -14.3097   18.6355 C   0  0  0  0  0  0  0  0  0  0  0  0
    8.9332  -15.4970   18.7535 O   0  0  0  0  0  0  0  0  0  0  0  0
   15.4146  -14.7288   17.0840 N   0  0  0  0  0  0  0  0  0  0  0  0
   15.3139  -14.9263   18.4808 C   0  0  0  0  0  0  0  0  0  0  0  0
   16.2719  -14.6441   19.2219 O   0  0  0  0  0  0  0  0  0  0  0  0
   14.0556  -15.4707   19.0293 C   0  0  0  0  0  0  0  0  0  0  0  0
   12.9128  -14.5442   18.8869 C   0  0  0  0  0  0  0  0  0  0  0  0
   11.6013  -14.9657   19.4936 C   0  0  2  0  0  0  0  0  0  0  0  0
   10.6169  -13.9452   19.0789 N   0  0  0  0  0  0  0  0  0  0  0  0
   11.6831  -14.9035   20.9574 C   0  0  0  0  0  0  0  0  0  0  0  0
   11.1054  -13.8877   21.5022 O   0  0  0  0  0  0  0  0  0  0  0  0
   12.3171  -15.8336   21.8096 N   0  0  0  0  0  0  0  0  0  0  0  0
   11.5253  -16.4765   22.8319 C   0  0  1  0  0  0  0  0  0  0  0  0
   10.3251  -17.1771   22.2322 C   0  0  0  0  0  0  0  0  0  0  0  0
    9.1505  -16.2982   22.3403 C   0  0  0  0  0  0  0  0  0  0  0  0
    8.9235  -15.1981   23.1411 C   0  0  0  0  0  0  0  0  0  0  0  0
    7.6680  -14.7448   22.8886 N   0  0  0  0  0  0  0  0  0  0  0  0
    7.1152  -15.5166   21.9700 C   0  0  0  0  0  0  0  0  0  0  0  0
    8.0006  -16.4624   21.6276 N   0  0  0  0  0  0  0  0  0  0  0  0
   12.4001  -17.3702   23.5992 C   0  0  0  0  0  0  0  0  0  0  0  0
   13.4042  -17.9137   23.0474 O   0  0  0  0  0  0  0  0  0  0  0  0
   12.1557  -17.6372   24.9291 O   0  0  0  0  0  0  0  0  0  0  0  0
  2  1  1  1
  2  4  1  0
  3  2  1  0
  4  5  2  0
  7  6  1  0
  7  9  1  0
  8  7  2  0
 10  9  1  0
 11 10  1  6
 11 13  1  0
 12 11  1  0
 12  4  1  0
 13 14  2  0
 15 16  1  0
 15 13  1  0
 16 23  1  0
 16 17  1  6
 18 17  1  0
 18 19  2  0
 20 19  1  0
 21 20  1  0
 22 21  2  0
 22 18  1  0
 23 24  2  0
 23 25  1  0
M  END
$$$$
