AQH.pdb
     RDKit          3D

 25 25  0  0  1  0  0  0  0  0999 V2000
    7.5500  -12.6752   19.5295 C   0  0  0  0  0  0  0  0  0  0  0  0
    8.4379  -13.1322   18.4157 C   0  0  2  0  0  0  0  0  0  0  0  0
    7.6779  -13.5309   17.2608 N   0  0  0  0  0  0  0  0  0  0  0  0
    9.3278  -14.2615   18.8437 C   0  0  0  0  0  0  0  0  0  0  0  0
    9.0976  -15.3968   18.3557 O   0  0  0  0  0  0  0  0  0  0  0  0
   15.2618  -16.2710   18.2136 N   0  0  0  0  0  0  0  0  0  0  0  0
   14.6901  -14.9863   18.3658 C   0  0  0  0  0  0  0  0  0  0  0  0
   15.4213  -13.9846   18.4585 O   0  0  0  0  0  0  0  0  0  0  0  0
   13.2189  -14.8678   18.4117 C   0  0  0  0  0  0  0  0  0  0  0  0
   12.6962  -14.6672   19.7796 C   0  0  0  0  0  0  0  0  0  0  0  0
   11.3157  -15.1892   20.0757 C   0  0  2  0  0  0  0  0  0  0  0  0
   10.3882  -14.0847   19.7562 N   0  0  0  0  0  0  0  0  0  0  0  0
   11.1776  -15.4547   21.5122 C   0  0  0  0  0  0  0  0  0  0  0  0
   11.9195  -14.7349   22.2828 O   0  0  0  0  0  0  0  0  0  0  0  0
   10.3236  -16.4009   22.1195 N   0  0  0  0  0  0  0  0  0  0  0  0
   10.8203  -17.7418   22.3215 C   0  0  1  0  0  0  0  0  0  0  0  0
   10.9830  -18.4676   21.0032 C   0  0  0  0  0  0  0  0  0  0  0  0
    9.6620  -18.6311   20.3771 C   0  0  0  0  0  0  0  0  0  0  0  0
    8.4057  -18.2836   20.8287 C   0  0  0  0  0  0  0  0  0  0  0  0
    7.4997  -18.6701   19.8930 N   0  0  0  0  0  0  0  0  0  0  0  0
    8.1430  -19.2384   18.8890 C   0  0  0  0  0  0  0  0  0  0  0  0
    9.4539  -19.2225   19.1672 N   0  0  0  0  0  0  0  0  0  0  0  0
   12.0607  -17.6617   23.1011 C   0  0  0  0  0  0  0  0  0  0  0  0
   13.1763  -17.5111   22.5174 O   0  0  0  0  0  0  0  0  0  0  0  0
   12.0440  -17.7451   24.4768 O   0  0  0  0  0  0  0  0  0  0  0  0
  2  1  1  1
  2  4  1  0
  3  2  1  0
  4  5  2  0
  7  6  1  0
  7  9  1  0
  8  7  2  0
 10  9  1  0
 11 10  1  1
 11 13  1  0
 12 11  1  0
 12  4  1  0
 13 14  2  0
 15 16  1  0
 15 13  1  0
 16 23  1  0
 16 17  1  6
 18 17  1  0
 18 19  2  0
 20 19  1  0
 21 20  1  0
 22 21  2  0
 22 18  1  0
 23 24  2  0
 23 25  1  0
M  END
$$$$
