AQH.pdb
     RDKit          3D

 25 25  0  0  1  0  0  0  0  0999 V2000
    8.9763  -18.6207   18.0145 C   0  0  0  0  0  0  0  0  0  0  0  0
    9.1774  -18.3871   19.4784 C   0  0  2  0  0  0  0  0  0  0  0  0
    8.0102  -18.7480   20.2385 N   0  0  0  0  0  0  0  0  0  0  0  0
    9.5419  -16.9609   19.7673 C   0  0  0  0  0  0  0  0  0  0  0  0
   10.6025  -16.5196   19.2569 O   0  0  0  0  0  0  0  0  0  0  0  0
    7.6125  -15.1454   18.1850 N   0  0  0  0  0  0  0  0  0  0  0  0
    7.7195  -13.7353   18.1600 C   0  0  0  0  0  0  0  0  0  0  0  0
    7.7144  -13.1280   17.0748 O   0  0  0  0  0  0  0  0  0  0  0  0
    7.8364  -13.0121   19.4421 C   0  0  0  0  0  0  0  0  0  0  0  0
    7.8693  -13.9120   20.6141 C   0  0  0  0  0  0  0  0  0  0  0  0
    9.1209  -14.7198   20.8306 C   0  0  2  0  0  0  0  0  0  0  0  0
    8.7444  -16.1256   20.5763 N   0  0  0  0  0  0  0  0  0  0  0  0
    9.5318  -14.6403   22.2370 C   0  0  0  0  0  0  0  0  0  0  0  0
    9.4211  -13.4770   22.7819 O   0  0  0  0  0  0  0  0  0  0  0  0
   10.0224  -15.6959   23.0361 N   0  0  0  0  0  0  0  0  0  0  0  0
    9.5069  -15.8361   24.3778 C   0  0  1  0  0  0  0  0  0  0  0  0
    7.9979  -15.9544   24.3726 C   0  0  0  0  0  0  0  0  0  0  0  0
    7.4183  -14.7515   24.9900 C   0  0  0  0  0  0  0  0  0  0  0  0
    8.0276  -13.6397   25.5338 C   0  0  0  0  0  0  0  0  0  0  0  0
    7.0561  -12.8137   26.0025 N   0  0  0  0  0  0  0  0  0  0  0  0
    5.8798  -13.3684   25.7710 C   0  0  0  0  0  0  0  0  0  0  0  0
    6.0822  -14.5428   25.1582 N   0  0  0  0  0  0  0  0  0  0  0  0
   10.1798  -16.9743   25.0138 C   0  0  0  0  0  0  0  0  0  0  0  0
   10.4596  -16.9444   26.2503 O   0  0  0  0  0  0  0  0  0  0  0  0
   10.5197  -18.0965   24.2894 O   0  0  0  0  0  0  0  0  0  0  0  0
  2  1  1  6
  2  4  1  0
  3  2  1  0
  4  5  2  0
  7  6  1  0
  7  9  1  0
  8  7  2  0
 10  9  1  0
 11 10  1  1
 11 13  1  0
 12 11  1  0
 12  4  1  0
 13 14  2  0
 15 16  1  0
 15 13  1  0
 16 23  1  0
 16 17  1  6
 18 17  1  0
 18 19  2  0
 20 19  1  0
 21 20  1  0
 22 21  2  0
 22 18  1  0
 23 24  2  0
 23 25  1  0
M  END
$$$$
