AQH.pdb
     RDKit          3D

 25 25  0  0  1  0  0  0  0  0999 V2000
    8.5303  -12.8653   19.5063 C   0  0  0  0  0  0  0  0  0  0  0  0
    7.7286  -14.1264   19.4373 C   0  0  2  0  0  0  0  0  0  0  0  0
    6.5873  -13.9829   18.5728 N   0  0  0  0  0  0  0  0  0  0  0  0
    7.2745  -14.5699   20.7965 C   0  0  0  0  0  0  0  0  0  0  0  0
    6.4074  -13.8673   21.3750 O   0  0  0  0  0  0  0  0  0  0  0  0
    6.5857  -20.3375   22.2493 N   0  0  0  0  0  0  0  0  0  0  0  0
    6.2923  -19.8146   23.5303 C   0  0  0  0  0  0  0  0  0  0  0  0
    5.8178  -20.5522   24.4120 O   0  0  0  0  0  0  0  0  0  0  0  0
    6.5609  -18.3859   23.7896 C   0  0  0  0  0  0  0  0  0  0  0  0
    7.0143  -17.6542   22.5881 C   0  0  0  0  0  0  0  0  0  0  0  0
    7.2663  -16.1772   22.7322 C   0  0  2  0  0  0  0  0  0  0  0  0
    7.7835  -15.7254   21.4242 N   0  0  0  0  0  0  0  0  0  0  0  0
    8.3334  -15.9440   23.7119 C   0  0  0  0  0  0  0  0  0  0  0  0
    8.9361  -14.8083   23.6154 O   0  0  0  0  0  0  0  0  0  0  0  0
    8.7519  -16.8248   24.7330 N   0  0  0  0  0  0  0  0  0  0  0  0
    9.4505  -16.2729   25.8700 C   0  0  1  0  0  0  0  0  0  0  0  0
    8.7028  -15.0908   26.4484 C   0  0  0  0  0  0  0  0  0  0  0  0
    9.4021  -14.6218   27.6546 C   0  0  0  0  0  0  0  0  0  0  0  0
   10.5160  -15.1211   28.2973 C   0  0  0  0  0  0  0  0  0  0  0  0
   10.7551  -14.3476   29.3883 N   0  0  0  0  0  0  0  0  0  0  0  0
    9.8389  -13.3976   29.4437 C   0  0  0  0  0  0  0  0  0  0  0  0
    9.0119  -13.5501   28.4003 N   0  0  0  0  0  0  0  0  0  0  0  0
    9.6784  -17.3508   26.8391 C   0  0  0  0  0  0  0  0  0  0  0  0
   10.3899  -17.1475   27.8688 O   0  0  0  0  0  0  0  0  0  0  0  0
    9.1269  -18.6008   26.6569 O   0  0  0  0  0  0  0  0  0  0  0  0
  2  1  1  1
  2  4  1  0
  3  2  1  0
  4  5  2  0
  7  6  1  0
  7  9  1  0
  8  7  2  0
 10  9  1  0
 11 10  1  6
 11 13  1  0
 12 11  1  0
 12  4  1  0
 13 14  2  0
 15 16  1  0
 15 13  1  0
 16 23  1  0
 16 17  1  1
 18 17  1  0
 18 19  2  0
 20 19  1  0
 21 20  1  0
 22 21  2  0
 22 18  1  0
 23 24  2  0
 23 25  1  0
M  END
$$$$
