RCN.pdb
     RDKit          3D

 26 25  0  0  1  0  0  0  0  0999 V2000
   19.7305  -20.2806  -16.8442 N   0  0  0  0  0  0  0  0  0  0  0  0
   20.0415  -20.2541  -18.2285 C   0  0  0  0  0  0  0  0  0  0  0  0
   19.3996  -20.9648  -19.1114 N   0  0  0  0  0  0  0  0  0  0  0  0
   21.0920  -19.4300  -18.7167 N   0  0  0  0  0  0  0  0  0  0  0  0
   21.5139  -18.2276  -18.0300 C   0  0  0  0  0  0  0  0  0  0  0  0
   21.9498  -18.5489  -16.6064 C   0  0  0  0  0  0  0  0  0  0  0  0
   22.4822  -17.3550  -15.9004 C   0  0  0  0  0  0  0  0  0  0  0  0
   23.9061  -17.0746  -16.2882 C   0  0  2  0  0  0  0  0  0  0  0  0
   24.6995  -18.2591  -15.9372 N   0  0  0  0  0  0  0  0  0  0  0  0
   24.4945  -15.8697  -15.6863 C   0  0  0  0  0  0  0  0  0  0  0  0
   24.7146  -15.8880  -14.4275 O   0  0  0  0  0  0  0  0  0  0  0  0
   19.6246  -20.9216  -20.1217 N   0  0  0  0  0  0  0  0  0  0  0  0
   24.8227  -14.7092  -16.4274 C   0  0  2  0  0  0  0  0  0  0  0  0
   25.3653  -13.5580  -15.7278 C   0  0  0  0  0  0  0  0  0  0  0  0
   26.7974  -13.3919  -16.1719 S   0  0  0  0  0  0  0  0  0  0  0  0
   27.4916  -11.8352  -15.5909 C   0  0  0  0  0  0  0  0  0  0  0  0
   24.5194  -12.3726  -15.9152 O   0  0  0  0  0  0  0  0  0  0  0  0
   24.0909  -12.1605  -17.1034 N   0  0  0  0  0  0  0  0  0  0  0  0
   21.6600   -8.0297  -15.6145 C   0  0  0  0  0  0  0  0  0  0  0  0
   21.7115   -8.6286  -14.3322 O   0  0  0  0  0  0  0  0  0  0  0  0
   20.9996   -8.1487  -13.3811 C   0  0  0  0  0  0  0  0  0  0  0  0
   22.5599   -9.7939  -14.0563 C   0  0  2  0  0  0  0  0  0  0  0  0
   23.2557  -10.2966  -15.2777 N   0  0  0  0  0  0  0  0  0  0  0  0
   24.1189  -11.4402  -14.9530 C   0  0  0  0  0  0  0  0  0  0  0  0
   24.1003   -9.1945  -15.8265 O   0  0  0  0  0  0  0  0  0  0  0  0
   23.6053   -8.1033  -16.4740 O   0  0  0  0  0  0  0  0  0  0  0  0
  1  2  1  0
  2  3  2  0
  4  5  1  0
  4  2  1  0
  6  5  1  0
  7  6  1  0
  7  8  1  0
  8 10  1  0
  8  9  1  1
 10 11  2  0
 12 13  1  0
 12 10  1  0
 14 15  1  0
 13 14  1  1
 16 23  1  0
 16 13  1  0
 17 16  2  0
 19 21  1  0
 19 18  1  0
 20 19  2  0
 22 23  1  0
 22 21  1  6
 24 22  1  0
 25 24  1  0
 26 24  2  0
M  END
$$$$
