RCN.pdb
     RDKit          3D

 26 25  0  0  1  0  0  0  0  0999 V2000
   18.8433  -14.5600  -16.8294 N   0  0  0  0  0  0  0  0  0  0  0  0
   18.3944  -14.4663  -18.1724 C   0  0  0  0  0  0  0  0  0  0  0  0
   18.0730  -15.5080  -18.8850 N   0  0  0  0  0  0  0  0  0  0  0  0
   18.2753  -13.1997  -18.8070 N   0  0  0  0  0  0  0  0  0  0  0  0
   18.6624  -11.9679  -18.1527 C   0  0  0  0  0  0  0  0  0  0  0  0
   17.5591  -11.4880  -17.2187 C   0  0  0  0  0  0  0  0  0  0  0  0
   17.8924  -10.1894  -16.5784 C   0  0  0  0  0  0  0  0  0  0  0  0
   18.9180  -10.3569  -15.4936 C   0  0  2  0  0  0  0  0  0  0  0  0
   18.4111  -11.3715  -14.5613 N   0  0  0  0  0  0  0  0  0  0  0  0
   19.2702   -9.1279  -14.7683 C   0  0  0  0  0  0  0  0  0  0  0  0
   18.4716   -8.7370  -13.8501 O   0  0  0  0  0  0  0  0  0  0  0  0
   17.6973  -15.4224  -19.8467 N   0  0  0  0  0  0  0  0  0  0  0  0
   20.4355   -8.3710  -15.0375 C   0  0  2  0  0  0  0  0  0  0  0  0
   20.6380   -7.1169  -14.3337 C   0  0  0  0  0  0  0  0  0  0  0  0
   21.9850   -7.1887  -13.6585 S   0  0  0  0  0  0  0  0  0  0  0  0
   22.3627   -5.6648  -12.7767 C   0  0  0  0  0  0  0  0  0  0  0  0
   20.4567   -5.9675  -15.2292 O   0  0  0  0  0  0  0  0  0  0  0  0
   21.0941   -6.0044  -16.3396 N   0  0  0  0  0  0  0  0  0  0  0  0
   18.0807   -3.2981  -18.3470 C   0  0  0  0  0  0  0  0  0  0  0  0
   17.5502   -2.8422  -17.1156 O   0  0  0  0  0  0  0  0  0  0  0  0
   16.4044   -2.2691  -17.0942 C   0  0  0  0  0  0  0  0  0  0  0  0
   18.2763   -3.0095  -15.8512 C   0  0  2  0  0  0  0  0  0  0  0  0
   19.5556   -3.7600  -16.0215 N   0  0  0  0  0  0  0  0  0  0  0  0
   19.6696   -4.8304  -15.0218 C   0  0  0  0  0  0  0  0  0  0  0  0
   20.6897   -2.8061  -15.8394 O   0  0  0  0  0  0  0  0  0  0  0  0
   21.0363   -1.8501  -16.7453 O   0  0  0  0  0  0  0  0  0  0  0  0
  1  2  1  0
  2  3  2  0
  4  5  1  0
  4  2  1  0
  6  5  1  0
  7  6  1  0
  7  8  1  0
  8 10  1  0
  8  9  1  1
 10 11  2  0
 12 13  1  0
 12 10  1  0
 14 15  1  0
 13 14  1  1
 16 23  1  0
 16 13  1  0
 17 16  2  0
 19 21  1  0
 19 18  1  0
 20 19  2  0
 22 23  1  0
 22 21  1  6
 24 22  1  0
 25 24  1  0
 26 24  2  0
M  END
$$$$
