RCN.pdb
     RDKit          3D

 26 25  0  0  1  0  0  0  0  0999 V2000
   28.6872  -21.4883   -9.9507 N   0  0  0  0  0  0  0  0  0  0  0  0
   29.3473  -21.2339  -11.1809 C   0  0  0  0  0  0  0  0  0  0  0  0
   30.6436  -21.1625  -11.2864 N   0  0  0  0  0  0  0  0  0  0  0  0
   28.6001  -21.0427  -12.3751 N   0  0  0  0  0  0  0  0  0  0  0  0
   27.1812  -20.7565  -12.3616 C   0  0  0  0  0  0  0  0  0  0  0  0
   26.4207  -21.8532  -11.6275 C   0  0  0  0  0  0  0  0  0  0  0  0
   24.9647  -21.5684  -11.5477 C   0  0  0  0  0  0  0  0  0  0  0  0
   24.2169  -22.1949  -12.6900 C   0  0  2  0  0  0  0  0  0  0  0  0
   25.0452  -23.2896  -13.2108 N   0  0  0  0  0  0  0  0  0  0  0  0
   23.8446  -21.2760  -13.7751 C   0  0  0  0  0  0  0  0  0  0  0  0
   24.5134  -21.3468  -14.8619 O   0  0  0  0  0  0  0  0  0  0  0  0
   31.1105  -20.9166  -12.1779 N   0  0  0  0  0  0  0  0  0  0  0  0
   22.7951  -20.3319  -13.6710 C   0  0  2  0  0  0  0  0  0  0  0  0
   22.4877  -19.4928  -14.8158 C   0  0  0  0  0  0  0  0  0  0  0  0
   21.0677  -19.0099  -14.6550 S   0  0  0  0  0  0  0  0  0  0  0  0
   20.7938  -18.2983  -13.0237 C   0  0  0  0  0  0  0  0  0  0  0  0
   23.4865  -18.4293  -14.9811 O   0  0  0  0  0  0  0  0  0  0  0  0
   24.2904  -18.2454  -14.0010 N   0  0  0  0  0  0  0  0  0  0  0  0
   27.7354  -16.9963  -17.1034 C   0  0  0  0  0  0  0  0  0  0  0  0
   27.2515  -18.3051  -16.8610 O   0  0  0  0  0  0  0  0  0  0  0  0
   28.0763  -19.2840  -16.8056 C   0  0  0  0  0  0  0  0  0  0  0  0
   25.8226  -18.5777  -16.6664 C   0  0  2  0  0  0  0  0  0  0  0  0
   24.9984  -17.3329  -16.6619 N   0  0  0  0  0  0  0  0  0  0  0  0
   23.6729  -17.5869  -16.0817 C   0  0  0  0  0  0  0  0  0  0  0  0
   24.8284  -16.8747  -18.0727 O   0  0  0  0  0  0  0  0  0  0  0  0
   25.4680  -15.7981  -18.6081 O   0  0  0  0  0  0  0  0  0  0  0  0
  1  2  1  0
  2  3  2  0
  4  5  1  0
  4  2  1  0
  6  5  1  0
  7  6  1  0
  7  8  1  0
  8 10  1  0
  8  9  1  6
 10 11  2  0
 12 13  1  0
 12 10  1  0
 14 15  1  0
 13 14  1  1
 16 23  1  0
 16 13  1  0
 17 16  2  0
 19 21  1  0
 19 18  1  0
 20 19  2  0
 22 23  1  0
 22 21  1  1
 24 22  1  0
 25 24  1  0
 26 24  2  0
M  END
$$$$
