RCN.pdb
     RDKit          3D

 26 25  0  0  1  0  0  0  0  0999 V2000
   18.6821  -24.7067   -6.8015 N   0  0  0  0  0  0  0  0  0  0  0  0
   17.7435  -24.5063   -7.8468 C   0  0  0  0  0  0  0  0  0  0  0  0
   16.8042  -25.3638   -8.1279 N   0  0  0  0  0  0  0  0  0  0  0  0
   17.7938  -23.3324   -8.6470 N   0  0  0  0  0  0  0  0  0  0  0  0
   18.8587  -23.0896   -9.5970 C   0  0  0  0  0  0  0  0  0  0  0  0
   20.0777  -22.5033   -8.8967 C   0  0  0  0  0  0  0  0  0  0  0  0
   21.2074  -22.2762   -9.8345 C   0  0  0  0  0  0  0  0  0  0  0  0
   21.5858  -20.8239   -9.9003 C   0  0  2  0  0  0  0  0  0  0  0  0
   20.5206  -20.1239  -10.6289 N   0  0  0  0  0  0  0  0  0  0  0  0
   22.8923  -20.5433  -10.5124 C   0  0  0  0  0  0  0  0  0  0  0  0
   22.8958  -20.0338  -11.6845 O   0  0  0  0  0  0  0  0  0  0  0  0
   16.0987  -25.1853   -8.8653 N   0  0  0  0  0  0  0  0  0  0  0  0
   24.1261  -20.8080   -9.8713 C   0  0  2  0  0  0  0  0  0  0  0  0
   25.3604  -20.4374  -10.5409 C   0  0  0  0  0  0  0  0  0  0  0  0
   26.4138  -20.2495   -9.4775 S   0  0  0  0  0  0  0  0  0  0  0  0
   25.8240  -19.1920   -8.1447 C   0  0  0  0  0  0  0  0  0  0  0  0
   25.7084  -21.4031  -11.5908 O   0  0  0  0  0  0  0  0  0  0  0  0
   25.2834  -22.6002  -11.4273 N   0  0  0  0  0  0  0  0  0  0  0  0
   24.8847  -22.0809  -16.6092 C   0  0  0  0  0  0  0  0  0  0  0  0
   24.1058  -21.3463  -15.6822 O   0  0  0  0  0  0  0  0  0  0  0  0
   22.9245  -20.9706  -16.0064 C   0  0  0  0  0  0  0  0  0  0  0  0
   24.6122  -21.0012  -14.3486 C   0  0  2  0  0  0  0  0  0  0  0  0
   25.9646  -21.5754  -14.0843 N   0  0  0  0  0  0  0  0  0  0  0  0
   26.4493  -21.1787  -12.7554 C   0  0  0  0  0  0  0  0  0  0  0  0
   26.9082  -21.0549  -15.1178 O   0  0  0  0  0  0  0  0  0  0  0  0
   27.5446  -21.8368  -16.0335 O   0  0  0  0  0  0  0  0  0  0  0  0
  1  2  1  0
  2  3  2  0
  4  5  1  0
  4  2  1  0
  6  5  1  0
  7  6  1  0
  7  8  1  0
  8 10  1  0
  8  9  1  6
 10 11  2  0
 12 13  1  0
 12 10  1  0
 14 15  1  0
 13 14  1  6
 16 23  1  0
 16 13  1  0
 17 16  2  0
 19 21  1  0
 19 18  1  0
 20 19  2  0
 22 23  1  0
 22 21  1  1
 24 22  1  0
 25 24  1  0
 26 24  2  0
M  END
$$$$
