RCN.pdb
     RDKit          3D

 26 25  0  0  1  0  0  0  0  0999 V2000
   20.5941  -31.7693   -8.1795 N   0  0  0  0  0  0  0  0  0  0  0  0
   21.6220  -31.8370   -9.1555 C   0  0  0  0  0  0  0  0  0  0  0  0
   22.3623  -32.8942   -9.3310 N   0  0  0  0  0  0  0  0  0  0  0  0
   21.8896  -30.7254  -10.0004 N   0  0  0  0  0  0  0  0  0  0  0  0
   21.1027  -29.5114   -9.9529 C   0  0  0  0  0  0  0  0  0  0  0  0
   20.2050  -29.4068  -11.1789 C   0  0  0  0  0  0  0  0  0  0  0  0
   20.6623  -28.3520  -12.1200 C   0  0  0  0  0  0  0  0  0  0  0  0
   19.6934  -27.2055  -12.1761 C   0  0  2  0  0  0  0  0  0  0  0  0
   19.9765  -26.4493  -13.4023 N   0  0  0  0  0  0  0  0  0  0  0  0
   19.7113  -26.3114  -11.0097 C   0  0  0  0  0  0  0  0  0  0  0  0
   20.8005  -25.6909  -10.7604 O   0  0  0  0  0  0  0  0  0  0  0  0
   23.1142  -32.9277  -10.0428 N   0  0  0  0  0  0  0  0  0  0  0  0
   18.5938  -26.1107  -10.1645 C   0  0  1  0  0  0  0  0  0  0  0  0
   18.7273  -25.2268   -9.0198 C   0  0  0  0  0  0  0  0  0  0  0  0
   18.1080  -23.9034   -9.3948 S   0  0  0  0  0  0  0  0  0  0  0  0
   17.2513  -24.0007  -10.9757 C   0  0  0  0  0  0  0  0  0  0  0  0
   18.1802  -25.8422   -7.8041 O   0  0  0  0  0  0  0  0  0  0  0  0
   17.2131  -26.6657   -7.9682 N   0  0  0  0  0  0  0  0  0  0  0  0
   18.4995  -28.0975   -2.6239 C   0  0  0  0  0  0  0  0  0  0  0  0
   18.1120  -26.7710   -2.9334 O   0  0  0  0  0  0  0  0  0  0  0  0
   17.2471  -26.1770   -2.1979 C   0  0  0  0  0  0  0  0  0  0  0  0
   18.6770  -26.0473   -4.0783 C   0  0  1  0  0  0  0  0  0  0  0  0
   17.9516  -26.3347   -5.3510 N   0  0  0  0  0  0  0  0  0  0  0  0
   18.5855  -25.6420   -6.4808 C   0  0  0  0  0  0  0  0  0  0  0  0
   16.5466  -25.8486   -5.2131 O   0  0  0  0  0  0  0  0  0  0  0  0
   15.5214  -26.6037   -4.7298 O   0  0  0  0  0  0  0  0  0  0  0  0
  1  2  1  0
  2  3  2  0
  4  5  1  0
  4  2  1  0
  6  5  1  0
  7  6  1  0
  7  8  1  0
  8 10  1  0
  8  9  1  6
 10 11  2  0
 12 13  1  0
 12 10  1  0
 14 15  1  0
 13 14  1  1
 16 23  1  0
 16 13  1  0
 17 16  2  0
 19 21  1  0
 19 18  1  0
 20 19  2  0
 22 23  1  0
 22 21  1  6
 24 22  1  0
 25 24  1  0
 26 24  2  0
M  END
$$$$
