RCN.pdb
     RDKit          3D

 26 25  0  0  1  0  0  0  0  0999 V2000
   20.9362  -27.9017  -10.3673 N   0  0  0  0  0  0  0  0  0  0  0  0
   20.0377  -28.9398  -10.0089 C   0  0  0  0  0  0  0  0  0  0  0  0
   20.4342  -30.1353   -9.6770 N   0  0  0  0  0  0  0  0  0  0  0  0
   18.6350  -28.7087   -9.9981 N   0  0  0  0  0  0  0  0  0  0  0  0
   18.0703  -27.3778  -10.0704 C   0  0  0  0  0  0  0  0  0  0  0  0
   17.6056  -26.9179   -8.6947 C   0  0  0  0  0  0  0  0  0  0  0  0
   16.8387  -25.6470   -8.7583 C   0  0  0  0  0  0  0  0  0  0  0  0
   17.5157  -24.5550   -7.9799 C   0  0  2  0  0  0  0  0  0  0  0  0
   18.9453  -24.5993   -8.3114 N   0  0  0  0  0  0  0  0  0  0  0  0
   17.3275  -24.6137   -6.5234 C   0  0  0  0  0  0  0  0  0  0  0  0
   18.3624  -24.8272   -5.8044 O   0  0  0  0  0  0  0  0  0  0  0  0
   19.7658  -30.8970   -9.4621 N   0  0  0  0  0  0  0  0  0  0  0  0
   16.0715  -24.4467   -5.8926 C   0  0  2  0  0  0  0  0  0  0  0  0
   16.0159  -24.3782   -4.4430 C   0  0  0  0  0  0  0  0  0  0  0  0
   14.7453  -23.6545   -4.0722 S   0  0  0  0  0  0  0  0  0  0  0  0
   14.5888  -23.4690   -2.2879 C   0  0  0  0  0  0  0  0  0  0  0  0
   16.1673  -25.7084   -3.8400 O   0  0  0  0  0  0  0  0  0  0  0  0
   15.5114  -26.6612   -4.3900 N   0  0  0  0  0  0  0  0  0  0  0  0
   20.2319  -26.5306   -2.6361 C   0  0  0  0  0  0  0  0  0  0  0  0
   19.3532  -27.6412   -2.6354 O   0  0  0  0  0  0  0  0  0  0  0  0
   19.4866  -28.5538   -3.5248 C   0  0  0  0  0  0  0  0  0  0  0  0
   18.2866  -27.7829   -1.6372 C   0  0  2  0  0  0  0  0  0  0  0  0
   16.9424  -27.4306   -2.1828 N   0  0  0  0  0  0  0  0  0  0  0  0
   16.9435  -26.0689   -2.7340 C   0  0  0  0  0  0  0  0  0  0  0  0
   15.9488  -27.5006   -1.0705 O   0  0  0  0  0  0  0  0  0  0  0  0
   15.6606  -28.6352   -0.3746 O   0  0  0  0  0  0  0  0  0  0  0  0
  1  2  1  0
  2  3  2  0
  4  5  1  0
  4  2  1  0
  6  5  1  0
  7  6  1  0
  7  8  1  0
  8 10  1  0
  8  9  1  1
 10 11  2  0
 12 13  1  0
 12 10  1  0
 14 15  1  0
 13 14  1  6
 16 23  1  0
 16 13  1  0
 17 16  2  0
 19 21  1  0
 19 18  1  0
 20 19  2  0
 22 23  1  0
 22 21  1  6
 24 22  1  0
 25 24  1  0
 26 24  2  0
M  END
$$$$
