RCN.pdb
     RDKit          3D

 26 25  0  0  1  0  0  0  0  0999 V2000
   30.0380  -23.3354  -16.7728 N   0  0  0  0  0  0  0  0  0  0  0  0
   28.7757  -23.0784  -16.1775 C   0  0  0  0  0  0  0  0  0  0  0  0
   28.4424  -21.9129  -15.7012 N   0  0  0  0  0  0  0  0  0  0  0  0
   27.8022  -24.1095  -16.0760 N   0  0  0  0  0  0  0  0  0  0  0  0
   28.0899  -25.4821  -16.4343 C   0  0  0  0  0  0  0  0  0  0  0  0
   27.5143  -25.8095  -17.8059 C   0  0  0  0  0  0  0  0  0  0  0  0
   26.0300  -25.7462  -17.8204 C   0  0  0  0  0  0  0  0  0  0  0  0
   25.4226  -26.8683  -17.0276 C   0  0  2  0  0  0  0  0  0  0  0  0
   25.4690  -28.0739  -17.8641 N   0  0  0  0  0  0  0  0  0  0  0  0
   24.0527  -26.6299  -16.5514 C   0  0  0  0  0  0  0  0  0  0  0  0
   23.1272  -26.5634  -17.4304 O   0  0  0  0  0  0  0  0  0  0  0  0
   27.5208  -21.7416  -15.2600 N   0  0  0  0  0  0  0  0  0  0  0  0
   23.7189  -26.4736  -15.1848 C   0  0  2  0  0  0  0  0  0  0  0  0
   22.3454  -26.1655  -14.8269 C   0  0  0  0  0  0  0  0  0  0  0  0
   21.8739  -27.2374  -13.8759 S   0  0  0  0  0  0  0  0  0  0  0  0
   20.3123  -26.7893  -13.0992 C   0  0  0  0  0  0  0  0  0  0  0  0
   22.2212  -24.7929  -14.3208 O   0  0  0  0  0  0  0  0  0  0  0  0
   23.0936  -24.4221  -13.4595 N   0  0  0  0  0  0  0  0  0  0  0  0
   22.7282  -19.4884  -13.8992 C   0  0  0  0  0  0  0  0  0  0  0  0
   21.6023  -20.0980  -14.5046 O   0  0  0  0  0  0  0  0  0  0  0  0
   20.4990  -19.4513  -14.5831 C   0  0  0  0  0  0  0  0  0  0  0  0
   21.6606  -21.4581  -15.0529 C   0  0  1  0  0  0  0  0  0  0  0  0
   21.2438  -22.4928  -14.0608 N   0  0  0  0  0  0  0  0  0  0  0  0
   21.2646  -23.8322  -14.6639 C   0  0  0  0  0  0  0  0  0  0  0  0
   19.8524  -22.1853  -13.6149 O   0  0  0  0  0  0  0  0  0  0  0  0
   19.5472  -21.3273  -12.6023 O   0  0  0  0  0  0  0  0  0  0  0  0
  1  2  1  0
  2  3  2  0
  4  5  1  0
  4  2  1  0
  6  5  1  0
  7  6  1  0
  7  8  1  0
  8 10  1  0
  8  9  1  6
 10 11  2  0
 12 13  1  0
 12 10  1  0
 14 15  1  0
 13 14  1  1
 16 23  1  0
 16 13  1  0
 17 16  2  0
 19 21  1  0
 19 18  1  0
 20 19  2  0
 22 23  1  0
 22 21  1  1
 24 22  1  0
 25 24  1  0
 26 24  2  0
M  END
$$$$
