RCN.pdb
     RDKit          3D

 26 25  0  0  1  0  0  0  0  0999 V2000
   29.7203  -23.0040  -18.4038 N   0  0  0  0  0  0  0  0  0  0  0  0
   30.1984  -21.6889  -18.6400 C   0  0  0  0  0  0  0  0  0  0  0  0
   31.0275  -21.3999  -19.6021 N   0  0  0  0  0  0  0  0  0  0  0  0
   29.7799  -20.6096  -17.8148 N   0  0  0  0  0  0  0  0  0  0  0  0
   28.8130  -20.7797  -16.7512 C   0  0  0  0  0  0  0  0  0  0  0  0
   27.4071  -20.4751  -17.2518 C   0  0  0  0  0  0  0  0  0  0  0  0
   26.3850  -20.6386  -16.1860 C   0  0  0  0  0  0  0  0  0  0  0  0
   26.7356  -21.7632  -15.2538 C   0  0  2  0  0  0  0  0  0  0  0  0
   26.7372  -23.0028  -16.0404 N   0  0  0  0  0  0  0  0  0  0  0  0
   25.8589  -21.9033  -14.0824 C   0  0  0  0  0  0  0  0  0  0  0  0
   24.8708  -22.7080  -14.1796 O   0  0  0  0  0  0  0  0  0  0  0  0
   31.3435  -20.4301  -19.7836 N   0  0  0  0  0  0  0  0  0  0  0  0
   26.0578  -21.1979  -12.8715 C   0  0  2  0  0  0  0  0  0  0  0  0
   25.0548  -21.2983  -11.8260 C   0  0  0  0  0  0  0  0  0  0  0  0
   25.6751  -20.7809  -10.5520 S   0  0  0  0  0  0  0  0  0  0  0  0
   24.4733  -20.7156   -9.2126 C   0  0  0  0  0  0  0  0  0  0  0  0
   23.8062  -20.6333  -12.2191 O   0  0  0  0  0  0  0  0  0  0  0  0
   23.9117  -19.4311  -12.6483 N   0  0  0  0  0  0  0  0  0  0  0  0
   19.7080  -18.4872  -13.8689 C   0  0  0  0  0  0  0  0  0  0  0  0
   20.1179  -19.6239  -14.6076 O   0  0  0  0  0  0  0  0  0  0  0  0
   19.7266  -19.7653  -15.8195 C   0  0  0  0  0  0  0  0  0  0  0  0
   20.9871  -20.6528  -14.0248 C   0  0  2  0  0  0  0  0  0  0  0  0
   21.3373  -20.3668  -12.6021 N   0  0  0  0  0  0  0  0  0  0  0  0
   22.5075  -21.1509  -12.1850 C   0  0  0  0  0  0  0  0  0  0  0  0
   20.1737  -20.7425  -11.7452 O   0  0  0  0  0  0  0  0  0  0  0  0
   18.9552  -20.1370  -11.8040 O   0  0  0  0  0  0  0  0  0  0  0  0
  1  2  1  0
  2  3  2  0
  4  5  1  0
  4  2  1  0
  6  5  1  0
  7  6  1  0
  7  8  1  0
  8 10  1  0
  8  9  1  6
 10 11  2  0
 12 13  1  0
 12 10  1  0
 14 15  1  0
 13 14  1  1
 16 23  1  0
 16 13  1  0
 17 16  2  0
 19 21  1  0
 19 18  1  0
 20 19  2  0
 22 23  1  0
 22 21  1  6
 24 22  1  0
 25 24  1  0
 26 24  2  0
M  END
$$$$
