RCN.pdb
     RDKit          3D

 26 25  0  0  1  0  0  0  0  0999 V2000
   21.4403  -24.7633  -19.7847 N   0  0  0  0  0  0  0  0  0  0  0  0
   21.7081  -25.4802  -18.5896 C   0  0  0  0  0  0  0  0  0  0  0  0
   22.1443  -26.7075  -18.5838 N   0  0  0  0  0  0  0  0  0  0  0  0
   21.5054  -24.8707  -17.3214 N   0  0  0  0  0  0  0  0  0  0  0  0
   20.8953  -23.5657  -17.1796 C   0  0  0  0  0  0  0  0  0  0  0  0
   21.9624  -22.4894  -17.0280 C   0  0  0  0  0  0  0  0  0  0  0  0
   21.7241  -21.6272  -15.8418 C   0  0  0  0  0  0  0  0  0  0  0  0
   20.4749  -20.8076  -15.9980 C   0  0  2  0  0  0  0  0  0  0  0  0
   20.8472  -19.5636  -16.6830 N   0  0  0  0  0  0  0  0  0  0  0  0
   19.7609  -20.5082  -14.7486 C   0  0  0  0  0  0  0  0  0  0  0  0
   20.2515  -19.6016  -13.9931 O   0  0  0  0  0  0  0  0  0  0  0  0
   22.3310  -27.2210  -17.7036 N   0  0  0  0  0  0  0  0  0  0  0  0
   18.5735  -21.1687  -14.3522 C   0  0  2  0  0  0  0  0  0  0  0  0
   17.8967  -20.7337  -13.1430 C   0  0  0  0  0  0  0  0  0  0  0  0
   16.6274  -20.0339  -13.5612 S   0  0  0  0  0  0  0  0  0  0  0  0
   15.6953  -19.4509  -12.1351 C   0  0  0  0  0  0  0  0  0  0  0  0
   17.7072  -21.8492  -12.2072 O   0  0  0  0  0  0  0  0  0  0  0  0
   17.2949  -22.9520  -12.7114 N   0  0  0  0  0  0  0  0  0  0  0  0
   17.4926  -25.2817   -8.3397 C   0  0  0  0  0  0  0  0  0  0  0  0
   18.1531  -24.1295   -7.8480 O   0  0  0  0  0  0  0  0  0  0  0  0
   18.6383  -24.1364   -6.6622 C   0  0  0  0  0  0  0  0  0  0  0  0
   18.3037  -22.9177   -8.6622 C   0  0  2  0  0  0  0  0  0  0  0  0
   17.6418  -23.0383   -9.9949 N   0  0  0  0  0  0  0  0  0  0  0  0
   17.9227  -21.8597  -10.8255 C   0  0  0  0  0  0  0  0  0  0  0  0
   16.1674  -23.1389   -9.7818 O   0  0  0  0  0  0  0  0  0  0  0  0
   15.4877  -24.3155   -9.6903 O   0  0  0  0  0  0  0  0  0  0  0  0
  1  2  1  0
  2  3  2  0
  4  5  1  0
  4  2  1  0
  6  5  1  0
  7  6  1  0
  7  8  1  0
  8 10  1  0
  8  9  1  1
 10 11  2  0
 12 13  1  0
 12 10  1  0
 14 15  1  0
 13 14  1  6
 16 23  1  0
 16 13  1  0
 17 16  2  0
 19 21  1  0
 19 18  1  0
 20 19  2  0
 22 23  1  0
 22 21  1  6
 24 22  1  0
 25 24  1  0
 26 24  2  0
M  END
$$$$
