RCN.pdb
     RDKit          3D

 26 25  0  0  1  0  0  0  0  0999 V2000
   19.8888  -17.2821  -16.3539 N   0  0  0  0  0  0  0  0  0  0  0  0
   18.5946  -17.8485  -16.4878 C   0  0  0  0  0  0  0  0  0  0  0  0
   17.5401  -17.1420  -16.7798 N   0  0  0  0  0  0  0  0  0  0  0  0
   18.3948  -19.2439  -16.3037 N   0  0  0  0  0  0  0  0  0  0  0  0
   19.3895  -20.0918  -15.6815 C   0  0  0  0  0  0  0  0  0  0  0  0
   19.4196  -19.8655  -14.1756 C   0  0  0  0  0  0  0  0  0  0  0  0
   20.7716  -19.4821  -13.6934 C   0  0  0  0  0  0  0  0  0  0  0  0
   21.7092  -20.6558  -13.6905 C   0  0  2  0  0  0  0  0  0  0  0  0
   21.2372  -21.5938  -12.6644 N   0  0  0  0  0  0  0  0  0  0  0  0
   23.1247  -20.3273  -13.4692 C   0  0  0  0  0  0  0  0  0  0  0  0
   23.5782  -19.2714  -14.0285 O   0  0  0  0  0  0  0  0  0  0  0  0
   16.6060  -17.5727  -16.9035 N   0  0  0  0  0  0  0  0  0  0  0  0
   23.9930  -21.1158  -12.6770 C   0  0  1  0  0  0  0  0  0  0  0  0
   25.3841  -20.7186  -12.5494 C   0  0  0  0  0  0  0  0  0  0  0  0
   25.9792  -21.5116  -11.4125 S   0  0  0  0  0  0  0  0  0  0  0  0
   25.3485  -20.9562   -9.8200 C   0  0  0  0  0  0  0  0  0  0  0  0
   26.0942  -20.8447  -13.8284 O   0  0  0  0  0  0  0  0  0  0  0  0
   25.7870  -21.8549  -14.5534 N   0  0  0  0  0  0  0  0  0  0  0  0
   27.6066  -16.6314  -15.4106 C   0  0  0  0  0  0  0  0  0  0  0  0
   27.3968  -17.7755  -16.2185 O   0  0  0  0  0  0  0  0  0  0  0  0
   26.3940  -17.8117  -17.0152 C   0  0  0  0  0  0  0  0  0  0  0  0
   28.3015  -18.9303  -16.1740 C   0  0  2  0  0  0  0  0  0  0  0  0
   27.6187  -20.1740  -15.7096 N   0  0  0  0  0  0  0  0  0  0  0  0
   27.0694  -19.9944  -14.3589 C   0  0  0  0  0  0  0  0  0  0  0  0
   28.6217  -21.2796  -15.6801 O   0  0  0  0  0  0  0  0  0  0  0  0
   29.0100  -21.9282  -14.5472 O   0  0  0  0  0  0  0  0  0  0  0  0
  1  2  1  0
  2  3  2  0
  4  5  1  0
  4  2  1  0
  6  5  1  0
  7  6  1  0
  7  8  1  0
  8 10  1  0
  8  9  1  1
 10 11  2  0
 12 13  1  0
 12 10  1  0
 14 15  1  0
 13 14  1  6
 16 23  1  0
 16 13  1  0
 17 16  2  0
 19 21  1  0
 19 18  1  0
 20 19  2  0
 22 23  1  0
 22 21  1  6
 24 22  1  0
 25 24  1  0
 26 24  2  0
M  END
$$$$
