RCN.pdb
     RDKit          3D

 26 25  0  0  1  0  0  0  0  0999 V2000
   28.5141  -21.0586  -16.9213 N   0  0  0  0  0  0  0  0  0  0  0  0
   29.0491  -22.1729  -17.6183 C   0  0  0  0  0  0  0  0  0  0  0  0
   30.2145  -22.1505  -18.1995 N   0  0  0  0  0  0  0  0  0  0  0  0
   28.3150  -23.3868  -17.7110 N   0  0  0  0  0  0  0  0  0  0  0  0
   27.1184  -23.6277  -16.9328 C   0  0  0  0  0  0  0  0  0  0  0  0
   25.9284  -22.8962  -17.5400 C   0  0  0  0  0  0  0  0  0  0  0  0
   24.6566  -23.2205  -16.8438 C   0  0  0  0  0  0  0  0  0  0  0  0
   24.8609  -23.3687  -15.3630 C   0  0  2  0  0  0  0  0  0  0  0  0
   25.3105  -24.7443  -15.1161 N   0  0  0  0  0  0  0  0  0  0  0  0
   23.6876  -23.0587  -14.5338 C   0  0  0  0  0  0  0  0  0  0  0  0
   23.0546  -24.0422  -14.0185 O   0  0  0  0  0  0  0  0  0  0  0  0
   30.5990  -22.9758  -18.6939 N   0  0  0  0  0  0  0  0  0  0  0  0
   23.2356  -21.7407  -14.2849 C   0  0  1  0  0  0  0  0  0  0  0  0
   22.0713  -21.5442  -13.4393 C   0  0  0  0  0  0  0  0  0  0  0  0
   22.3062  -20.2939  -12.6286 S   0  0  0  0  0  0  0  0  0  0  0  0
   23.0925  -20.6680  -11.0525 C   0  0  0  0  0  0  0  0  0  0  0  0
   20.8329  -21.5451  -14.2281 O   0  0  0  0  0  0  0  0  0  0  0  0
   20.8980  -21.0128  -15.3913 N   0  0  0  0  0  0  0  0  0  0  0  0
   17.9093  -25.3183  -13.5240 C   0  0  0  0  0  0  0  0  0  0  0  0
   17.9311  -24.3717  -14.5771 O   0  0  0  0  0  0  0  0  0  0  0  0
   18.4190  -24.7024  -15.7148 C   0  0  0  0  0  0  0  0  0  0  0  0
   17.4048  -23.0123  -14.4062 C   0  0  2  0  0  0  0  0  0  0  0  0
   18.4103  -21.9629  -14.7472 N   0  0  0  0  0  0  0  0  0  0  0  0
   19.5831  -22.0584  -13.8676 C   0  0  0  0  0  0  0  0  0  0  0  0
   17.7758  -20.6240  -14.5625 O   0  0  0  0  0  0  0  0  0  0  0  0
   16.8012  -20.1229  -15.3711 O   0  0  0  0  0  0  0  0  0  0  0  0
  1  2  1  0
  2  3  2  0
  4  5  1  0
  4  2  1  0
  6  5  1  0
  7  6  1  0
  7  8  1  0
  8 10  1  0
  8  9  1  6
 10 11  2  0
 12 13  1  0
 12 10  1  0
 14 15  1  0
 13 14  1  1
 16 23  1  0
 16 13  1  0
 17 16  2  0
 19 21  1  0
 19 18  1  0
 20 19  2  0
 22 23  1  0
 22 21  1  6
 24 22  1  0
 25 24  1  0
 26 24  2  0
M  END
$$$$
