RCN.pdb
     RDKit          3D

 26 25  0  0  1  0  0  0  0  0999 V2000
   15.0699  -13.8168  -20.4775 N   0  0  0  0  0  0  0  0  0  0  0  0
   14.2591  -14.7985  -19.8509 C   0  0  0  0  0  0  0  0  0  0  0  0
   13.6474  -15.7384  -20.5132 N   0  0  0  0  0  0  0  0  0  0  0  0
   14.0793  -14.7931  -18.4407 N   0  0  0  0  0  0  0  0  0  0  0  0
   14.6950  -13.7997  -17.5867 C   0  0  0  0  0  0  0  0  0  0  0  0
   16.2069  -13.9821  -17.5569 C   0  0  0  0  0  0  0  0  0  0  0  0
   16.8687  -13.0249  -16.6333 C   0  0  0  0  0  0  0  0  0  0  0  0
   18.3588  -13.2140  -16.6183 C   0  0  2  0  0  0  0  0  0  0  0  0
   18.6248  -14.5782  -16.1453 N   0  0  0  0  0  0  0  0  0  0  0  0
   19.1067  -12.2392  -15.8115 C   0  0  0  0  0  0  0  0  0  0  0  0
   18.9404  -12.2725  -14.5448 O   0  0  0  0  0  0  0  0  0  0  0  0
   13.0808  -16.4656  -20.0403 N   0  0  0  0  0  0  0  0  0  0  0  0
   19.9885  -11.2812  -16.3667 C   0  0  1  0  0  0  0  0  0  0  0  0
   20.6315  -10.3228  -15.4852 C   0  0  0  0  0  0  0  0  0  0  0  0
   22.1089  -10.6277  -15.4852 S   0  0  0  0  0  0  0  0  0  0  0  0
   23.0263   -9.4446  -14.4845 C   0  0  0  0  0  0  0  0  0  0  0  0
   20.2855   -8.9441  -15.8531 O   0  0  0  0  0  0  0  0  0  0  0  0
   20.4033   -8.6383  -17.0913 N   0  0  0  0  0  0  0  0  0  0  0  0
   17.2121   -4.3136  -16.3113 C   0  0  0  0  0  0  0  0  0  0  0  0
   18.0815   -4.6081  -15.2329 O   0  0  0  0  0  0  0  0  0  0  0  0
   18.6428   -3.6500  -14.5934 C   0  0  0  0  0  0  0  0  0  0  0  0
   18.3601   -5.9881  -14.8186 C   0  0  1  0  0  0  0  0  0  0  0  0
   19.5459   -6.5665  -15.5171 N   0  0  0  0  0  0  0  0  0  0  0  0
   19.8394   -7.9161  -15.0165 C   0  0  0  0  0  0  0  0  0  0  0  0
   20.7235   -5.6871  -15.2541 O   0  0  0  0  0  0  0  0  0  0  0  0
   20.9510   -4.5050  -15.8911 O   0  0  0  0  0  0  0  0  0  0  0  0
  1  2  1  0
  2  3  2  0
  4  5  1  0
  4  2  1  0
  6  5  1  0
  7  6  1  0
  7  8  1  0
  8 10  1  0
  8  9  1  1
 10 11  2  0
 12 13  1  0
 12 10  1  0
 14 15  1  0
 13 14  1  1
 16 23  1  0
 16 13  1  0
 17 16  2  0
 19 21  1  0
 19 18  1  0
 20 19  2  0
 22 23  1  0
 22 21  1  6
 24 22  1  0
 25 24  1  0
 26 24  2  0
M  END
$$$$
