RCN.pdb
     RDKit          3D

 26 25  0  0  1  0  0  0  0  0999 V2000
   32.9928  -32.0308   -7.9789 N   0  0  0  0  0  0  0  0  0  0  0  0
   32.6539  -32.8563   -6.8756 C   0  0  0  0  0  0  0  0  0  0  0  0
   33.4226  -33.8171   -6.4486 N   0  0  0  0  0  0  0  0  0  0  0  0
   31.4315  -32.6609   -6.1766 N   0  0  0  0  0  0  0  0  0  0  0  0
   30.2197  -32.2335   -6.8431 C   0  0  0  0  0  0  0  0  0  0  0  0
   29.0750  -32.1104   -5.8459 C   0  0  0  0  0  0  0  0  0  0  0  0
   27.7823  -31.8051   -6.5116 C   0  0  0  0  0  0  0  0  0  0  0  0
   27.2979  -32.9654   -7.3335 C   0  0  2  0  0  0  0  0  0  0  0  0
   26.4893  -32.4204   -8.4312 N   0  0  0  0  0  0  0  0  0  0  0  0
   26.5363  -33.9827   -6.5950 C   0  0  0  0  0  0  0  0  0  0  0  0
   25.5747  -34.5588   -7.2089 O   0  0  0  0  0  0  0  0  0  0  0  0
   33.1469  -34.4352   -5.6642 N   0  0  0  0  0  0  0  0  0  0  0  0
   26.8164  -34.3462   -5.2561 C   0  0  2  0  0  0  0  0  0  0  0  0
   27.3296  -35.6767   -4.9811 C   0  0  0  0  0  0  0  0  0  0  0  0
   28.4634  -35.9325   -5.9426 S   0  0  0  0  0  0  0  0  0  0  0  0
   28.3403  -37.5673   -6.6874 C   0  0  0  0  0  0  0  0  0  0  0  0
   27.6760  -35.8321   -3.5627 O   0  0  0  0  0  0  0  0  0  0  0  0
   28.1777  -34.8061   -2.9830 N   0  0  0  0  0  0  0  0  0  0  0  0
   27.7234  -36.4797    1.4617 C   0  0  0  0  0  0  0  0  0  0  0  0
   26.6640  -35.8896    0.7302 O   0  0  0  0  0  0  0  0  0  0  0  0
   25.7858  -35.1873    1.3444 C   0  0  0  0  0  0  0  0  0  0  0  0
   26.5408  -36.0557   -0.7228 C   0  0  2  0  0  0  0  0  0  0  0  0
   27.6226  -36.9112   -1.2943 N   0  0  0  0  0  0  0  0  0  0  0  0
   27.5250  -36.9666   -2.7590 C   0  0  0  0  0  0  0  0  0  0  0  0
   27.4702  -38.2921   -0.7474 O   0  0  0  0  0  0  0  0  0  0  0  0
   28.4997  -39.0373   -0.2578 O   0  0  0  0  0  0  0  0  0  0  0  0
  1  2  1  0
  2  3  2  0
  4  5  1  0
  4  2  1  0
  6  5  1  0
  7  6  1  0
  7  8  1  0
  8 10  1  0
  8  9  1  6
 10 11  2  0
 12 13  1  0
 12 10  1  0
 14 15  1  0
 13 14  1  6
 16 23  1  0
 16 13  1  0
 17 16  2  0
 19 21  1  0
 19 18  1  0
 20 19  2  0
 22 23  1  0
 22 21  1  6
 24 22  1  0
 25 24  1  0
 26 24  2  0
M  END
$$$$
