RCN.pdb
     RDKit          3D

 26 25  0  0  1  0  0  0  0  0999 V2000
   29.8430  -22.1148  -17.4153 N   0  0  0  0  0  0  0  0  0  0  0  0
   29.3382  -22.7140  -18.5984 C   0  0  0  0  0  0  0  0  0  0  0  0
   30.0695  -23.4493  -19.3864 N   0  0  0  0  0  0  0  0  0  0  0  0
   27.9806  -22.5300  -18.9781 N   0  0  0  0  0  0  0  0  0  0  0  0
   27.0218  -21.8649  -18.1216 C   0  0  0  0  0  0  0  0  0  0  0  0
   27.5510  -21.7720  -16.6964 C   0  0  0  0  0  0  0  0  0  0  0  0
   26.4946  -21.3716  -15.7314 C   0  0  0  0  0  0  0  0  0  0  0  0
   26.2748  -22.4270  -14.6853 C   0  0  2  0  0  0  0  0  0  0  0  0
   26.0871  -23.7055  -15.3823 N   0  0  0  0  0  0  0  0  0  0  0  0
   25.1544  -22.1768  -13.7675 C   0  0  0  0  0  0  0  0  0  0  0  0
   24.0152  -22.6626  -14.0833 O   0  0  0  0  0  0  0  0  0  0  0  0
   29.7338  -23.7631  -20.3150 N   0  0  0  0  0  0  0  0  0  0  0  0
   25.2796  -21.4339  -12.5693 C   0  0  1  0  0  0  0  0  0  0  0  0
   24.1037  -21.2307  -11.7414 C   0  0  0  0  0  0  0  0  0  0  0  0
   24.5671  -20.6370  -10.4344 S   0  0  0  0  0  0  0  0  0  0  0  0
   25.8162  -21.6683   -9.6477 C   0  0  0  0  0  0  0  0  0  0  0  0
   23.0829  -20.4469  -12.4481 O   0  0  0  0  0  0  0  0  0  0  0  0
   23.4220  -19.2669  -12.8129 N   0  0  0  0  0  0  0  0  0  0  0  0
   21.7280  -21.8418  -16.3616 C   0  0  0  0  0  0  0  0  0  0  0  0
   21.3470  -20.6135  -15.7685 O   0  0  0  0  0  0  0  0  0  0  0  0
   21.9002  -19.5251  -16.1572 C   0  0  0  0  0  0  0  0  0  0  0  0
   20.3272  -20.5467  -14.7152 C   0  0  2  0  0  0  0  0  0  0  0  0
   20.8424  -19.9260  -13.4590 N   0  0  0  0  0  0  0  0  0  0  0  0
   21.7785  -20.8294  -12.7765 C   0  0  0  0  0  0  0  0  0  0  0  0
   19.6840  -19.6584  -12.5557 O   0  0  0  0  0  0  0  0  0  0  0  0
   19.5438  -20.1985  -11.3134 O   0  0  0  0  0  0  0  0  0  0  0  0
  1  2  1  0
  2  3  2  0
  4  5  1  0
  4  2  1  0
  6  5  1  0
  7  6  1  0
  7  8  1  0
  8 10  1  0
  8  9  1  6
 10 11  2  0
 12 13  1  0
 12 10  1  0
 14 15  1  0
 13 14  1  1
 16 23  1  0
 16 13  1  0
 17 16  2  0
 19 21  1  0
 19 18  1  0
 20 19  2  0
 22 23  1  0
 22 21  1  6
 24 22  1  0
 25 24  1  0
 26 24  2  0
M  END
$$$$
