RCN.pdb
     RDKit          3D

 26 25  0  0  1  0  0  0  0  0999 V2000
   19.3652  -23.7432   -6.9852 N   0  0  0  0  0  0  0  0  0  0  0  0
   18.7719  -23.1619   -8.1358 C   0  0  0  0  0  0  0  0  0  0  0  0
   17.4846  -23.1379   -8.3322 N   0  0  0  0  0  0  0  0  0  0  0  0
   19.5806  -22.5685   -9.1432 N   0  0  0  0  0  0  0  0  0  0  0  0
   21.0228  -22.5027   -9.0376 C   0  0  0  0  0  0  0  0  0  0  0  0
   21.4905  -21.0541   -8.9860 C   0  0  0  0  0  0  0  0  0  0  0  0
   22.4869  -20.7489  -10.0449 C   0  0  0  0  0  0  0  0  0  0  0  0
   23.8814  -21.0932   -9.6054 C   0  0  2  0  0  0  0  0  0  0  0  0
   23.9815  -20.7821   -8.1740 N   0  0  0  0  0  0  0  0  0  0  0  0
   24.9572  -20.4229  -10.3496 C   0  0  0  0  0  0  0  0  0  0  0  0
   25.4604  -19.3673   -9.8340 O   0  0  0  0  0  0  0  0  0  0  0  0
   17.0663  -22.7390   -9.1920 N   0  0  0  0  0  0  0  0  0  0  0  0
   25.4521  -20.8876  -11.5917 C   0  0  2  0  0  0  0  0  0  0  0  0
   26.5199  -20.1502  -12.2437 C   0  0  0  0  0  0  0  0  0  0  0  0
   27.7609  -21.0062  -12.1881 S   0  0  0  0  0  0  0  0  0  0  0  0
   27.5431  -22.5432  -13.1006 C   0  0  0  0  0  0  0  0  0  0  0  0
   26.1259  -19.7208  -13.5913 O   0  0  0  0  0  0  0  0  0  0  0  0
   25.2844  -20.4672  -14.2039 N   0  0  0  0  0  0  0  0  0  0  0  0
   25.3962  -17.5050  -18.2457 C   0  0  0  0  0  0  0  0  0  0  0  0
   26.1177  -16.5917  -17.4388 O   0  0  0  0  0  0  0  0  0  0  0  0
   26.4800  -15.4645  -17.9287 C   0  0  0  0  0  0  0  0  0  0  0  0
   26.4639  -16.8967  -16.0456 C   0  0  1  0  0  0  0  0  0  0  0  0
   26.0923  -18.2891  -15.6558 N   0  0  0  0  0  0  0  0  0  0  0  0
   26.5555  -18.5910  -14.2948 C   0  0  0  0  0  0  0  0  0  0  0  0
   26.7440  -19.2356  -16.6090 O   0  0  0  0  0  0  0  0  0  0  0  0
   28.0055  -19.7255  -16.4559 O   0  0  0  0  0  0  0  0  0  0  0  0
  1  2  1  0
  2  3  2  0
  4  5  1  0
  4  2  1  0
  6  5  1  0
  7  6  1  0
  7  8  1  0
  8 10  1  0
  8  9  1  1
 10 11  2  0
 12 13  1  0
 12 10  1  0
 14 15  1  0
 13 14  1  1
 16 23  1  0
 16 13  1  0
 17 16  2  0
 19 21  1  0
 19 18  1  0
 20 19  2  0
 22 23  1  0
 22 21  1  1
 24 22  1  0
 25 24  1  0
 26 24  2  0
M  END
$$$$
