WIY.pdb
     RDKit          3D

 35 37  0  0  1  0  0  0  0  0999 V2000
    6.4474  -18.3952   25.4425 N   0  0  0  0  0  0  0  0  0  0  0  0
    6.6467  -17.0141   24.9526 C   0  0  1  0  0  0  0  0  0  0  0  0
    7.2485  -16.2785   26.1380 C   0  0  0  0  0  0  0  0  0  0  0  0
    6.6357  -14.9549   26.3601 C   0  0  0  0  0  0  0  0  0  0  0  0
    5.3070  -14.6665   26.6961 C   0  0  0  0  0  0  0  0  0  0  0  0
    5.1377  -13.3403   26.8077 N   0  0  0  0  0  0  0  0  0  0  0  0
    6.3259  -12.7315   26.5531 C   0  0  0  0  0  0  0  0  0  0  0  0
    6.6385  -11.3879   26.5509 C   0  0  0  0  0  0  0  0  0  0  0  0
    7.9435  -11.0259   26.2576 C   0  0  0  0  0  0  0  0  0  0  0  0
    8.8676  -12.0081   25.9830 C   0  0  0  0  0  0  0  0  0  0  0  0
    8.5458  -13.3604   25.9870 C   0  0  0  0  0  0  0  0  0  0  0  0
    7.2539  -13.7199   26.2768 C   0  0  0  0  0  0  0  0  0  0  0  0
    7.7053  -17.0450   23.9104 C   0  0  0  0  0  0  0  0  0  0  0  0
    8.4842  -18.0651   23.8125 O   0  0  0  0  0  0  0  0  0  0  0  0
    6.9737  -13.5058   19.8867 C   0  0  0  0  0  0  0  0  0  0  0  0
    7.3430  -14.8727   20.4119 C   0  0  0  0  0  0  0  0  0  0  0  0
    8.6947  -14.7710   21.0628 C   0  0  2  0  0  0  0  0  0  0  0  0
    9.7343  -14.8935   19.9703 C   0  0  0  0  0  0  0  0  0  0  0  0
    8.9175  -15.9037   22.0616 C   0  0  2  0  0  0  0  0  0  0  0  0
    7.8519  -15.9541   23.0305 N   0  0  0  0  0  0  0  0  0  0  0  0
   10.2569  -15.7064   22.6499 C   0  0  0  0  0  0  0  0  0  0  0  0
   10.7113  -14.5406   22.6934 O   0  0  0  0  0  0  0  0  0  0  0  0
    9.0283  -15.0594   29.0550 O   0  0  0  0  0  0  0  0  0  0  0  0
    9.9042  -15.5567   28.0875 C   0  0  0  0  0  0  0  0  0  0  0  0
   11.2351  -15.1876   28.0464 C   0  0  0  0  0  0  0  0  0  0  0  0
   12.0577  -15.7101   27.0670 C   0  0  0  0  0  0  0  0  0  0  0  0
   11.5559  -16.5936   26.1371 C   0  0  0  0  0  0  0  0  0  0  0  0
   12.4647  -17.1361   25.1111 C   0  0  0  0  0  0  0  0  0  0  0  0
   12.3366  -16.3958   23.7854 C   0  0  2  0  0  0  0  0  0  0  0  0
   11.0483  -16.7578   23.1675 N   0  0  0  0  0  0  0  0  0  0  0  0
   13.4272  -16.7119   22.8637 C   0  0  0  0  0  0  0  0  0  0  0  0
   14.6089  -16.4539   23.1109 O   0  0  0  0  0  0  0  0  0  0  0  0
   10.2074  -16.9642   26.1826 C   0  0  0  0  0  0  0  0  0  0  0  0
    9.3794  -16.4462   27.1582 C   0  0  0  0  0  0  0  0  0  0  0  0
   13.1957  -17.3373   21.6177 O   0  0  0  0  0  0  0  0  0  0  0  0
  2  1  1  1
  2  3  1  0
  3  4  1  0
  4  5  2  0
  6  5  1  0
  7  6  1  0
  8  7  2  0
  9  8  1  0
 10  9  2  0
 10 11  1  0
 11 12  2  0
 12  7  1  0
 12  4  1  0
 13  2  1  0
 14 13  2  0
 15 16  1  0
 17 19  1  0
 17 16  1  0
 17 18  1  6
 19 20  1  1
 20 13  1  0
 21 19  1  0
 21 22  2  0
 23 24  1  0
 24 34  2  0
 24 25  1  0
 25 26  2  0
 26 27  1  0
 27 28  1  0
 29 28  1  1
 29 30  1  0
 30 21  1  0
 31 29  1  0
 32 31  2  0
 33 27  2  0
 34 33  1  0
 35 31  1  0
M  END
$$$$
