WIY.pdb
     RDKit          3D

 35 37  0  0  1  0  0  0  0  0999 V2000
    6.4963  -18.3304   24.2838 N   0  0  0  0  0  0  0  0  0  0  0  0
    6.7647  -16.9216   23.9226 C   0  0  1  0  0  0  0  0  0  0  0  0
    7.5791  -16.3842   25.0873 C   0  0  0  0  0  0  0  0  0  0  0  0
    6.9042  -15.2794   25.7947 C   0  0  0  0  0  0  0  0  0  0  0  0
    5.6320  -15.2815   26.3805 C   0  0  0  0  0  0  0  0  0  0  0  0
    5.3738  -14.0829   26.9251 N   0  0  0  0  0  0  0  0  0  0  0  0
    6.4468  -13.2751   26.7169 C   0  0  0  0  0  0  0  0  0  0  0  0
    6.6411  -11.9628   27.0951 C   0  0  0  0  0  0  0  0  0  0  0  0
    7.8429  -11.3614   26.7572 C   0  0  0  0  0  0  0  0  0  0  0  0
    8.7861  -12.0868   26.0657 C   0  0  0  0  0  0  0  0  0  0  0  0
    8.5838  -13.4091   25.6878 C   0  0  0  0  0  0  0  0  0  0  0  0
    7.3941  -14.0054   26.0213 C   0  0  0  0  0  0  0  0  0  0  0  0
    7.6758  -16.9143   22.7488 C   0  0  0  0  0  0  0  0  0  0  0  0
    8.3267  -17.9783   22.4311 O   0  0  0  0  0  0  0  0  0  0  0  0
    7.4774  -12.2841   19.6245 C   0  0  0  0  0  0  0  0  0  0  0  0
    7.3452  -13.7226   20.0648 C   0  0  0  0  0  0  0  0  0  0  0  0
    8.7291  -14.2838   20.2409 C   0  0  2  0  0  0  0  0  0  0  0  0
    9.3620  -14.3682   18.8693 C   0  0  0  0  0  0  0  0  0  0  0  0
    8.6875  -15.6900   20.8338 C   0  0  2  0  0  0  0  0  0  0  0  0
    7.8233  -15.7386   21.9859 N   0  0  0  0  0  0  0  0  0  0  0  0
   10.0824  -16.0856   21.1107 C   0  0  0  0  0  0  0  0  0  0  0  0
   10.7533  -16.5643   20.1683 O   0  0  0  0  0  0  0  0  0  0  0  0
   14.4358  -14.1511   17.0188 O   0  0  0  0  0  0  0  0  0  0  0  0
   14.0646  -14.3736   18.3468 C   0  0  0  0  0  0  0  0  0  0  0  0
   13.2544  -13.4929   19.0375 C   0  0  0  0  0  0  0  0  0  0  0  0
   12.9182  -13.7621   20.3502 C   0  0  0  0  0  0  0  0  0  0  0  0
   13.3867  -14.9007   20.9678 C   0  0  0  0  0  0  0  0  0  0  0  0
   13.0014  -15.1586   22.3671 C   0  0  0  0  0  0  0  0  0  0  0  0
   12.1031  -16.3826   22.4959 C   0  0  2  0  0  0  0  0  0  0  0  0
   10.6991  -15.9500   22.3760 N   0  0  0  0  0  0  0  0  0  0  0  0
   12.2928  -17.0812   23.7666 C   0  0  0  0  0  0  0  0  0  0  0  0
   11.3725  -17.2813   24.5648 O   0  0  0  0  0  0  0  0  0  0  0  0
   14.2071  -15.7894   20.2643 C   0  0  0  0  0  0  0  0  0  0  0  0
   14.5474  -15.5271   18.9524 C   0  0  0  0  0  0  0  0  0  0  0  0
   13.5549  -17.5752   24.1673 O   0  0  0  0  0  0  0  0  0  0  0  0
  2  1  1  1
  2  3  1  0
  3  4  1  0
  4  5  2  0
  6  5  1  0
  7  6  1  0
  8  7  2  0
  9  8  1  0
 10  9  2  0
 10 11  1  0
 11 12  2  0
 12  7  1  0
 12  4  1  0
 13  2  1  0
 14 13  2  0
 15 16  1  0
 17 19  1  0
 17 16  1  0
 17 18  1  6
 19 20  1  1
 20 13  1  0
 21 19  1  0
 21 22  2  0
 23 24  1  0
 24 34  2  0
 24 25  1  0
 25 26  2  0
 26 27  1  0
 27 28  1  0
 29 28  1  1
 29 30  1  0
 30 21  1  0
 31 29  1  0
 32 31  2  0
 33 27  2  0
 34 33  1  0
 35 31  1  0
M  END
$$$$
