WIY.pdb
     RDKit          3D

 35 37  0  0  1  0  0  0  0  0999 V2000
    6.2818  -17.8793   25.1699 N   0  0  0  0  0  0  0  0  0  0  0  0
    6.5498  -16.5786   24.5190 C   0  0  1  0  0  0  0  0  0  0  0  0
    7.1497  -15.7234   25.6222 C   0  0  0  0  0  0  0  0  0  0  0  0
    6.2754  -14.6019   26.0152 C   0  0  0  0  0  0  0  0  0  0  0  0
    4.9331  -14.6543   26.4116 C   0  0  0  0  0  0  0  0  0  0  0  0
    4.4854  -13.4197   26.6857 N   0  0  0  0  0  0  0  0  0  0  0  0
    5.4997  -12.5384   26.4813 C   0  0  0  0  0  0  0  0  0  0  0  0
    5.5126  -11.1675   26.6343 C   0  0  0  0  0  0  0  0  0  0  0  0
    6.6926  -10.4951   26.3592 C   0  0  0  0  0  0  0  0  0  0  0  0
    7.7939  -11.2111   25.9487 C   0  0  0  0  0  0  0  0  0  0  0  0
    7.7739  -12.5927   25.7966 C   0  0  0  0  0  0  0  0  0  0  0  0
    6.6061  -13.2594   26.0682 C   0  0  0  0  0  0  0  0  0  0  0  0
    7.6333  -16.7788   23.5221 C   0  0  0  0  0  0  0  0  0  0  0  0
    8.4227  -17.7905   23.6221 O   0  0  0  0  0  0  0  0  0  0  0  0
    7.9977  -12.8489   19.6214 C   0  0  0  0  0  0  0  0  0  0  0  0
    8.8319  -13.7076   20.5419 C   0  0  0  0  0  0  0  0  0  0  0  0
    8.5201  -15.1480   20.2432 C   0  0  2  0  0  0  0  0  0  0  0  0
    7.0444  -15.2351   19.9210 C   0  0  0  0  0  0  0  0  0  0  0  0
    8.7974  -16.0389   21.4515 C   0  0  2  0  0  0  0  0  0  0  0  0
    7.7919  -15.8573   22.4678 N   0  0  0  0  0  0  0  0  0  0  0  0
   10.1707  -15.7416   21.9038 C   0  0  0  0  0  0  0  0  0  0  0  0
   11.1207  -16.2368   21.2559 O   0  0  0  0  0  0  0  0  0  0  0  0
   11.4001  -18.4969   29.2943 O   0  0  0  0  0  0  0  0  0  0  0  0
   11.4016  -17.5445   28.2727 C   0  0  0  0  0  0  0  0  0  0  0  0
   10.2390  -17.1484   27.6398 C   0  0  0  0  0  0  0  0  0  0  0  0
   10.2981  -16.2022   26.6349 C   0  0  0  0  0  0  0  0  0  0  0  0
   11.5074  -15.6561   26.2653 C   0  0  0  0  0  0  0  0  0  0  0  0
   11.5310  -14.6439   25.1939 C   0  0  0  0  0  0  0  0  0  0  0  0
   11.6626  -15.2761   23.8137 C   0  0  2  0  0  0  0  0  0  0  0  0
   10.4690  -14.9286   23.0217 N   0  0  0  0  0  0  0  0  0  0  0  0
   11.8003  -16.7306   23.8784 C   0  0  0  0  0  0  0  0  0  0  0  0
   10.8768  -17.5035   23.6066 O   0  0  0  0  0  0  0  0  0  0  0  0
   12.6820  -16.0605   26.9089 C   0  0  0  0  0  0  0  0  0  0  0  0
   12.6309  -17.0056   27.9139 C   0  0  0  0  0  0  0  0  0  0  0  0
   13.0109  -17.3509   24.2619 O   0  0  0  0  0  0  0  0  0  0  0  0
  2  1  1  1
  2  3  1  0
  3  4  1  0
  4  5  2  0
  6  5  1  0
  7  6  1  0
  8  7  2  0
  9  8  1  0
 10  9  2  0
 10 11  1  0
 11 12  2  0
 12  7  1  0
 12  4  1  0
 13  2  1  0
 14 13  2  0
 15 16  1  0
 17 19  1  0
 17 16  1  0
 17 18  1  1
 19 20  1  1
 20 13  1  0
 21 19  1  0
 21 22  2  0
 23 24  1  0
 24 34  2  0
 24 25  1  0
 25 26  2  0
 26 27  1  0
 27 28  1  0
 29 28  1  1
 29 30  1  0
 30 21  1  0
 31 29  1  0
 32 31  2  0
 33 27  2  0
 34 33  1  0
 35 31  1  0
M  END
$$$$
