WIY.pdb
     RDKit          3D

 35 37  0  0  1  0  0  0  0  0999 V2000
    6.2073  -18.8865   24.2354 N   0  0  0  0  0  0  0  0  0  0  0  0
    6.3236  -17.4152   24.1418 C   0  0  1  0  0  0  0  0  0  0  0  0
    6.9473  -17.0031   25.4645 C   0  0  0  0  0  0  0  0  0  0  0  0
    6.3238  -15.7956   26.0387 C   0  0  0  0  0  0  0  0  0  0  0  0
    5.0608  -15.6780   26.6326 C   0  0  0  0  0  0  0  0  0  0  0  0
    4.8546  -14.4133   27.0297 N   0  0  0  0  0  0  0  0  0  0  0  0
    5.9535  -13.6782   26.7144 C   0  0  0  0  0  0  0  0  0  0  0  0
    6.2013  -12.3382   26.9281 C   0  0  0  0  0  0  0  0  0  0  0  0
    7.4195  -11.8286   26.5078 C   0  0  0  0  0  0  0  0  0  0  0  0
    8.3254  -12.6680   25.9008 C   0  0  0  0  0  0  0  0  0  0  0  0
    8.0692  -14.0177   25.6886 C   0  0  0  0  0  0  0  0  0  0  0  0
    6.8633  -14.5232   26.1037 C   0  0  0  0  0  0  0  0  0  0  0  0
    7.3331  -17.1000   23.0980 C   0  0  0  0  0  0  0  0  0  0  0  0
    8.2614  -17.9478   22.8218 O   0  0  0  0  0  0  0  0  0  0  0  0
    8.2943  -12.5782   18.9535 C   0  0  0  0  0  0  0  0  0  0  0  0
    8.6949  -13.9239   19.5097 C   0  0  0  0  0  0  0  0  0  0  0  0
    7.8000  -14.2286   20.6791 C   0  0  2  0  0  0  0  0  0  0  0  0
    8.0233  -13.1482   21.7145 C   0  0  0  0  0  0  0  0  0  0  0  0
    8.1495  -15.5736   21.3109 C   0  0  2  0  0  0  0  0  0  0  0  0
    7.2691  -15.8703   22.4126 N   0  0  0  0  0  0  0  0  0  0  0  0
    9.5780  -15.5218   21.6793 C   0  0  0  0  0  0  0  0  0  0  0  0
   10.2791  -14.6131   21.1791 O   0  0  0  0  0  0  0  0  0  0  0  0
   10.5531  -15.9458   29.3833 O   0  0  0  0  0  0  0  0  0  0  0  0
   10.7859  -15.6525   28.0377 C   0  0  0  0  0  0  0  0  0  0  0  0
   12.0000  -15.1636   27.5948 C   0  0  0  0  0  0  0  0  0  0  0  0
   12.1759  -14.8901   26.2520 C   0  0  0  0  0  0  0  0  0  0  0  0
   11.1488  -15.1030   25.3594 C   0  0  0  0  0  0  0  0  0  0  0  0
   11.3752  -14.8066   23.9333 C   0  0  0  0  0  0  0  0  0  0  0  0
   11.5173  -16.0754   23.1016 C   0  0  2  0  0  0  0  0  0  0  0  0
   10.1927  -16.4367   22.5652 N   0  0  0  0  0  0  0  0  0  0  0  0
   12.0519  -17.1932   23.8784 C   0  0  0  0  0  0  0  0  0  0  0  0
   13.1674  -17.1687   24.4068 O   0  0  0  0  0  0  0  0  0  0  0  0
    9.9211  -15.5980   25.8127 C   0  0  0  0  0  0  0  0  0  0  0  0
    9.7377  -15.8735   27.1529 C   0  0  0  0  0  0  0  0  0  0  0  0
   11.3195  -18.3859   24.0743 O   0  0  0  0  0  0  0  0  0  0  0  0
  2  1  1  1
  2  3  1  0
  3  4  1  0
  4  5  2  0
  6  5  1  0
  7  6  1  0
  8  7  2  0
  9  8  1  0
 10  9  2  0
 10 11  1  0
 11 12  2  0
 12  7  1  0
 12  4  1  0
 13  2  1  0
 14 13  2  0
 15 16  1  0
 17 19  1  0
 17 16  1  0
 17 18  1  1
 19 20  1  1
 20 13  1  0
 21 19  1  0
 21 22  2  0
 23 24  1  0
 24 34  2  0
 24 25  1  0
 25 26  2  0
 26 27  1  0
 27 28  1  0
 29 28  1  1
 29 30  1  0
 30 21  1  0
 31 29  1  0
 32 31  2  0
 33 27  2  0
 34 33  1  0
 35 31  1  0
M  END
$$$$
