WIY.pdb
     RDKit          3D

 35 37  0  0  1  0  0  0  0  0999 V2000
    6.1797  -18.2406   23.6014 N   0  0  0  0  0  0  0  0  0  0  0  0
    6.6456  -16.8369   23.6009 C   0  0  1  0  0  0  0  0  0  0  0  0
    7.2900  -16.6548   24.9647 C   0  0  0  0  0  0  0  0  0  0  0  0
    6.6755  -15.5646   25.7460 C   0  0  0  0  0  0  0  0  0  0  0  0
    5.4931  -15.6029   26.4957 C   0  0  0  0  0  0  0  0  0  0  0  0
    5.2662  -14.4067   27.0593 N   0  0  0  0  0  0  0  0  0  0  0  0
    6.2723  -13.5651   26.7033 C   0  0  0  0  0  0  0  0  0  0  0  0
    6.4676  -12.2419   27.0408 C   0  0  0  0  0  0  0  0  0  0  0  0
    7.5914  -11.6039   26.5408 C   0  0  0  0  0  0  0  0  0  0  0  0
    8.4602  -12.3054   25.7365 C   0  0  0  0  0  0  0  0  0  0  0  0
    8.2574  -13.6389   25.4003 C   0  0  0  0  0  0  0  0  0  0  0  0
    7.1447  -14.2714   25.8943 C   0  0  0  0  0  0  0  0  0  0  0  0
    7.7463  -16.7190   22.6096 C   0  0  0  0  0  0  0  0  0  0  0  0
    8.3924  -17.7675   22.2358 O   0  0  0  0  0  0  0  0  0  0  0  0
    7.4661  -12.4252   19.1755 C   0  0  0  0  0  0  0  0  0  0  0  0
    7.6097  -13.8426   19.6765 C   0  0  0  0  0  0  0  0  0  0  0  0
    8.9491  -13.9644   20.3490 C   0  0  2  0  0  0  0  0  0  0  0  0
   10.0067  -13.8929   19.2694 C   0  0  0  0  0  0  0  0  0  0  0  0
    9.0909  -15.3042   21.0669 C   0  0  2  0  0  0  0  0  0  0  0  0
    8.0785  -15.4556   22.0812 N   0  0  0  0  0  0  0  0  0  0  0  0
   10.4730  -15.3771   21.5805 C   0  0  0  0  0  0  0  0  0  0  0  0
   11.2298  -14.4034   21.3651 O   0  0  0  0  0  0  0  0  0  0  0  0
   11.0688  -15.0836   29.9600 O   0  0  0  0  0  0  0  0  0  0  0  0
   10.8298  -15.2606   28.5954 C   0  0  0  0  0  0  0  0  0  0  0  0
   10.3140  -16.4384   28.0895 C   0  0  0  0  0  0  0  0  0  0  0  0
   10.0973  -16.5597   26.7304 C   0  0  0  0  0  0  0  0  0  0  0  0
   10.3929  -15.5141   25.8839 C   0  0  0  0  0  0  0  0  0  0  0  0
   10.1419  -15.6770   24.4405 C   0  0  0  0  0  0  0  0  0  0  0  0
   11.3479  -16.2584   23.7131 C   0  0  2  0  0  0  0  0  0  0  0  0
   10.9837  -16.4808   22.3022 N   0  0  0  0  0  0  0  0  0  0  0  0
   11.8021  -17.5162   24.3051 C   0  0  0  0  0  0  0  0  0  0  0  0
   12.7301  -17.5777   25.1170 O   0  0  0  0  0  0  0  0  0  0  0  0
   10.9153  -14.3235   26.4008 C   0  0  0  0  0  0  0  0  0  0  0  0
   11.1346  -14.1949   27.7577 C   0  0  0  0  0  0  0  0  0  0  0  0
   11.2031  -18.7546   23.9811 O   0  0  0  0  0  0  0  0  0  0  0  0
  2  1  1  1
  2  3  1  0
  3  4  1  0
  4  5  2  0
  6  5  1  0
  7  6  1  0
  8  7  2  0
  9  8  1  0
 10  9  2  0
 10 11  1  0
 11 12  2  0
 12  7  1  0
 12  4  1  0
 13  2  1  0
 14 13  2  0
 15 16  1  0
 17 19  1  0
 17 16  1  0
 17 18  1  6
 19 20  1  1
 20 13  1  0
 21 19  1  0
 21 22  2  0
 23 24  1  0
 24 34  2  0
 24 25  1  0
 25 26  2  0
 26 27  1  0
 27 28  1  0
 29 28  1  1
 29 30  1  0
 30 21  1  0
 31 29  1  0
 32 31  2  0
 33 27  2  0
 34 33  1  0
 35 31  1  0
M  END
$$$$
