WIY.pdb
     RDKit          3D

 35 37  0  0  1  0  0  0  0  0999 V2000
    6.0889  -18.5620   24.1860 N   0  0  0  0  0  0  0  0  0  0  0  0
    6.4104  -17.1228   24.0743 C   0  0  1  0  0  0  0  0  0  0  0  0
    6.9903  -16.7613   25.4312 C   0  0  0  0  0  0  0  0  0  0  0  0
    6.2746  -15.6460   26.0797 C   0  0  0  0  0  0  0  0  0  0  0  0
    5.1038  -15.7038   26.8462 C   0  0  0  0  0  0  0  0  0  0  0  0
    4.7630  -14.4738   27.2597 N   0  0  0  0  0  0  0  0  0  0  0  0
    5.6810  -13.5904   26.7863 C   0  0  0  0  0  0  0  0  0  0  0  0
    5.7472  -12.2227   26.9531 C   0  0  0  0  0  0  0  0  0  0  0  0
    6.8019  -11.5471   26.3605 C   0  0  0  0  0  0  0  0  0  0  0  0
    7.7326  -12.2570   25.6367 C   0  0  0  0  0  0  0  0  0  0  0  0
    7.6600  -13.6354   25.4726 C   0  0  0  0  0  0  0  0  0  0  0  0
    6.6158  -14.3053   26.0585 C   0  0  0  0  0  0  0  0  0  0  0  0
    7.5239  -16.9754   23.1014 C   0  0  0  0  0  0  0  0  0  0  0  0
    8.2201  -18.0020   22.7579 O   0  0  0  0  0  0  0  0  0  0  0  0
    7.4754  -12.2451   20.1432 C   0  0  0  0  0  0  0  0  0  0  0  0
    7.4239  -13.7011   20.5407 C   0  0  0  0  0  0  0  0  0  0  0  0
    8.7993  -14.1088   20.9913 C   0  0  2  0  0  0  0  0  0  0  0  0
    9.7075  -14.0531   19.7825 C   0  0  0  0  0  0  0  0  0  0  0  0
    8.8076  -15.5379   21.5281 C   0  0  2  0  0  0  0  0  0  0  0  0
    7.8133  -15.7082   22.5572 N   0  0  0  0  0  0  0  0  0  0  0  0
   10.1861  -15.8277   21.9694 C   0  0  0  0  0  0  0  0  0  0  0  0
   11.1156  -15.6304   21.1541 O   0  0  0  0  0  0  0  0  0  0  0  0
    9.5906  -14.0267   28.9217 O   0  0  0  0  0  0  0  0  0  0  0  0
   10.1840  -14.8280   27.9437 C   0  0  0  0  0  0  0  0  0  0  0  0
    9.8053  -16.1419   27.7455 C   0  0  0  0  0  0  0  0  0  0  0  0
   10.4260  -16.8897   26.7635 C   0  0  0  0  0  0  0  0  0  0  0  0
   11.4161  -16.3304   25.9863 C   0  0  0  0  0  0  0  0  0  0  0  0
   12.0511  -17.1564   24.9435 C   0  0  0  0  0  0  0  0  0  0  0  0
   11.9381  -16.5205   23.5634 C   0  0  2  0  0  0  0  0  0  0  0  0
   10.5114  -16.3101   23.2582 N   0  0  0  0  0  0  0  0  0  0  0  0
   12.5453  -17.3448   22.5191 C   0  0  0  0  0  0  0  0  0  0  0  0
   13.7393  -17.6588   22.5233 O   0  0  0  0  0  0  0  0  0  0  0  0
   11.7965  -14.9996   26.1910 C   0  0  0  0  0  0  0  0  0  0  0  0
   11.1808  -14.2462   27.1703 C   0  0  0  0  0  0  0  0  0  0  0  0
   11.7973  -17.8381   21.4262 O   0  0  0  0  0  0  0  0  0  0  0  0
  2  1  1  1
  2  3  1  0
  3  4  1  0
  4  5  2  0
  6  5  1  0
  7  6  1  0
  8  7  2  0
  9  8  1  0
 10  9  2  0
 10 11  1  0
 11 12  2  0
 12  7  1  0
 12  4  1  0
 13  2  1  0
 14 13  2  0
 15 16  1  0
 17 19  1  0
 17 16  1  0
 17 18  1  6
 19 20  1  1
 20 13  1  0
 21 19  1  0
 21 22  2  0
 23 24  1  0
 24 34  2  0
 24 25  1  0
 25 26  2  0
 26 27  1  0
 27 28  1  0
 29 28  1  1
 29 30  1  0
 30 21  1  0
 31 29  1  0
 32 31  2  0
 33 27  2  0
 34 33  1  0
 35 31  1  0
M  END
$$$$
