WIY.pdb
     RDKit          3D

 35 37  0  0  1  0  0  0  0  0999 V2000
    6.1081  -18.5045   22.9802 N   0  0  0  0  0  0  0  0  0  0  0  0
    6.5293  -17.0918   23.0995 C   0  0  1  0  0  0  0  0  0  0  0  0
    7.1428  -16.9989   24.4864 C   0  0  0  0  0  0  0  0  0  0  0  0
    6.4431  -16.0355   25.3574 C   0  0  0  0  0  0  0  0  0  0  0  0
    5.3812  -16.2827   26.2365 C   0  0  0  0  0  0  0  0  0  0  0  0
    5.0166  -15.1464   26.8494 N   0  0  0  0  0  0  0  0  0  0  0  0
    5.8120  -14.1401   26.3997 C   0  0  0  0  0  0  0  0  0  0  0  0
    5.8115  -12.8040   26.7425 C   0  0  0  0  0  0  0  0  0  0  0  0
    6.7407  -11.9771   26.1317 C   0  0  0  0  0  0  0  0  0  0  0  0
    7.6186  -12.5132   25.2174 C   0  0  0  0  0  0  0  0  0  0  0  0
    7.6136  -13.8609   24.8766 C   0  0  0  0  0  0  0  0  0  0  0  0
    6.6937  -14.6803   25.4803 C   0  0  0  0  0  0  0  0  0  0  0  0
    7.6434  -16.8627   22.1434 C   0  0  0  0  0  0  0  0  0  0  0  0
    8.5299  -17.7767   21.9553 O   0  0  0  0  0  0  0  0  0  0  0  0
    7.4519  -12.3421   18.8777 C   0  0  0  0  0  0  0  0  0  0  0  0
    7.7340  -13.7676   19.2887 C   0  0  0  0  0  0  0  0  0  0  0  0
    8.8053  -13.7438   20.3437 C   0  0  2  0  0  0  0  0  0  0  0  0
   10.1029  -13.3658   19.6638 C   0  0  0  0  0  0  0  0  0  0  0  0
    8.9855  -15.1178   20.9841 C   0  0  2  0  0  0  0  0  0  0  0  0
    7.7244  -15.6418   21.4443 N   0  0  0  0  0  0  0  0  0  0  0  0
   10.0001  -14.9718   22.0463 C   0  0  0  0  0  0  0  0  0  0  0  0
   10.0871  -13.8649   22.6247 O   0  0  0  0  0  0  0  0  0  0  0  0
   11.8196  -15.4791   30.1461 O   0  0  0  0  0  0  0  0  0  0  0  0
   11.4319  -15.5443   28.8059 C   0  0  0  0  0  0  0  0  0  0  0  0
   11.9854  -14.7220   27.8432 C   0  0  0  0  0  0  0  0  0  0  0  0
   11.5646  -14.8288   26.5315 C   0  0  0  0  0  0  0  0  0  0  0  0
   10.5999  -15.7485   26.1842 C   0  0  0  0  0  0  0  0  0  0  0  0
   10.1809  -15.8389   24.7738 C   0  0  0  0  0  0  0  0  0  0  0  0
   11.3705  -15.9825   23.8325 C   0  0  2  0  0  0  0  0  0  0  0  0
   10.8718  -16.0111   22.4457 N   0  0  0  0  0  0  0  0  0  0  0  0
   12.1475  -17.1926   24.0980 C   0  0  0  0  0  0  0  0  0  0  0  0
   12.8232  -17.3438   25.1202 O   0  0  0  0  0  0  0  0  0  0  0  0
   10.0422  -16.5787   27.1626 C   0  0  0  0  0  0  0  0  0  0  0  0
   10.4575  -16.4779   28.4753 C   0  0  0  0  0  0  0  0  0  0  0  0
   12.1767  -18.2766   23.1917 O   0  0  0  0  0  0  0  0  0  0  0  0
  2  1  1  6
  2  3  1  0
  3  4  1  0
  4  5  2  0
  6  5  1  0
  7  6  1  0
  8  7  2  0
  9  8  1  0
 10  9  2  0
 10 11  1  0
 11 12  2  0
 12  7  1  0
 12  4  1  0
 13  2  1  0
 14 13  2  0
 15 16  1  0
 17 19  1  0
 17 16  1  0
 17 18  1  6
 19 20  1  1
 20 13  1  0
 21 19  1  0
 21 22  2  0
 23 24  1  0
 24 34  2  0
 24 25  1  0
 25 26  2  0
 26 27  1  0
 27 28  1  0
 29 28  1  1
 29 30  1  0
 30 21  1  0
 31 29  1  0
 32 31  2  0
 33 27  2  0
 34 33  1  0
 35 31  1  0
M  END
$$$$
