WIY.pdb
     RDKit          3D

 35 37  0  0  1  0  0  0  0  0999 V2000
    5.9616  -17.1163   24.9988 N   0  0  0  0  0  0  0  0  0  0  0  0
    6.7887  -16.1734   24.2152 C   0  0  1  0  0  0  0  0  0  0  0  0
    7.4330  -15.2802   25.2618 C   0  0  0  0  0  0  0  0  0  0  0  0
    6.4750  -14.3471   25.8847 C   0  0  0  0  0  0  0  0  0  0  0  0
    5.2784  -14.6544   26.5446 C   0  0  0  0  0  0  0  0  0  0  0  0
    4.6849  -13.5289   26.9699 N   0  0  0  0  0  0  0  0  0  0  0  0
    5.4584  -12.4712   26.6090 C   0  0  0  0  0  0  0  0  0  0  0  0
    5.2575  -11.1243   26.8289 C   0  0  0  0  0  0  0  0  0  0  0  0
    6.2126  -10.2399   26.3538 C   0  0  0  0  0  0  0  0  0  0  0  0
    7.3124  -10.7321   25.6889 C   0  0  0  0  0  0  0  0  0  0  0  0
    7.5086  -12.0909   25.4708 C   0  0  0  0  0  0  0  0  0  0  0  0
    6.5634  -12.9674   25.9402 C   0  0  0  0  0  0  0  0  0  0  0  0
    7.8985  -16.9425   23.5948 C   0  0  0  0  0  0  0  0  0  0  0  0
    7.7955  -18.2169   23.4460 O   0  0  0  0  0  0  0  0  0  0  0  0
    7.5968  -13.3340   19.5646 C   0  0  0  0  0  0  0  0  0  0  0  0
    8.4448  -14.5457   19.8702 C   0  0  0  0  0  0  0  0  0  0  0  0
    8.2418  -14.9022   21.3169 C   0  0  2  0  0  0  0  0  0  0  0  0
    8.4287  -13.6375   22.1260 C   0  0  0  0  0  0  0  0  0  0  0  0
    9.2724  -15.9255   21.7872 C   0  0  2  0  0  0  0  0  0  0  0  0
    9.0624  -16.2709   23.1704 N   0  0  0  0  0  0  0  0  0  0  0  0
   10.6061  -15.3595   21.5041 C   0  0  0  0  0  0  0  0  0  0  0  0
   10.9191  -15.1685   20.3071 O   0  0  0  0  0  0  0  0  0  0  0  0
   10.9888  -15.8145   29.1391 O   0  0  0  0  0  0  0  0  0  0  0  0
   11.1584  -16.1718   27.7996 C   0  0  0  0  0  0  0  0  0  0  0  0
   11.0981  -17.4868   27.3798 C   0  0  0  0  0  0  0  0  0  0  0  0
   11.2732  -17.7842   26.0420 C   0  0  0  0  0  0  0  0  0  0  0  0
   11.5064  -16.7774   25.1314 C   0  0  0  0  0  0  0  0  0  0  0  0
   11.6814  -17.1317   23.7113 C   0  0  0  0  0  0  0  0  0  0  0  0
   12.4726  -16.0737   22.9519 C   0  0  2  0  0  0  0  0  0  0  0  0
   11.5425  -15.0199   22.5078 N   0  0  0  0  0  0  0  0  0  0  0  0
   13.1736  -16.6272   21.7940 C   0  0  0  0  0  0  0  0  0  0  0  0
   12.7254  -16.5617   20.6455 O   0  0  0  0  0  0  0  0  0  0  0  0
   11.5669  -15.4473   25.5614 C   0  0  0  0  0  0  0  0  0  0  0  0
   11.3930  -15.1424   26.8965 C   0  0  0  0  0  0  0  0  0  0  0  0
   14.4206  -17.2810   21.9167 O   0  0  0  0  0  0  0  0  0  0  0  0
  2  1  1  1
  2  3  1  0
  3  4  1  0
  4  5  2  0
  6  5  1  0
  7  6  1  0
  8  7  2  0
  9  8  1  0
 10  9  2  0
 10 11  1  0
 11 12  2  0
 12  7  1  0
 12  4  1  0
 13  2  1  0
 14 13  2  0
 15 16  1  0
 17 19  1  0
 17 16  1  0
 17 18  1  1
 19 20  1  1
 20 13  1  0
 21 19  1  0
 21 22  2  0
 23 24  1  0
 24 34  2  0
 24 25  1  0
 25 26  2  0
 26 27  1  0
 27 28  1  0
 29 28  1  6
 29 30  1  0
 30 21  1  0
 31 29  1  0
 32 31  2  0
 33 27  2  0
 34 33  1  0
 35 31  1  0
M  END
$$$$
