WIY.pdb
     RDKit          3D

 35 37  0  0  1  0  0  0  0  0999 V2000
    6.6989  -18.2933   24.9448 N   0  0  0  0  0  0  0  0  0  0  0  0
    6.8665  -16.8982   24.4834 C   0  0  1  0  0  0  0  0  0  0  0  0
    7.3737  -16.1562   25.7084 C   0  0  0  0  0  0  0  0  0  0  0  0
    6.5770  -14.9538   26.0186 C   0  0  0  0  0  0  0  0  0  0  0  0
    5.1913  -14.8622   26.2006 C   0  0  0  0  0  0  0  0  0  0  0  0
    4.8445  -13.5934   26.4650 N   0  0  0  0  0  0  0  0  0  0  0  0
    5.9692  -12.8304   26.4641 C   0  0  0  0  0  0  0  0  0  0  0  0
    6.1086  -11.4762   26.6868 C   0  0  0  0  0  0  0  0  0  0  0  0
    7.3840  -10.9374   26.6310 C   0  0  0  0  0  0  0  0  0  0  0  0
    8.4508  -11.7631   26.3591 C   0  0  0  0  0  0  0  0  0  0  0  0
    8.3032  -13.1272   26.1356 C   0  0  0  0  0  0  0  0  0  0  0  0
    7.0409  -13.6616   26.1901 C   0  0  0  0  0  0  0  0  0  0  0  0
    7.9792  -16.8708   23.4991 C   0  0  0  0  0  0  0  0  0  0  0  0
    8.8251  -17.8399   23.4550 O   0  0  0  0  0  0  0  0  0  0  0  0
    8.0133  -12.5082   19.8828 C   0  0  0  0  0  0  0  0  0  0  0  0
    8.8192  -13.4638   20.7302 C   0  0  0  0  0  0  0  0  0  0  0  0
    8.4100  -14.8647   20.3678 C   0  0  2  0  0  0  0  0  0  0  0  0
    6.8978  -14.9016   20.3366 C   0  0  0  0  0  0  0  0  0  0  0  0
    8.8896  -15.8713   21.4106 C   0  0  2  0  0  0  0  0  0  0  0  0
    8.1035  -15.7806   22.6149 N   0  0  0  0  0  0  0  0  0  0  0  0
   10.3319  -15.6314   21.6139 C   0  0  0  0  0  0  0  0  0  0  0  0
   11.1391  -16.3046   20.9338 O   0  0  0  0  0  0  0  0  0  0  0  0
   11.8406  -16.7757   29.9391 O   0  0  0  0  0  0  0  0  0  0  0  0
   11.4349  -16.4705   28.6380 C   0  0  0  0  0  0  0  0  0  0  0  0
   11.1656  -15.1749   28.2404 C   0  0  0  0  0  0  0  0  0  0  0  0
   10.7673  -14.9295   26.9404 C   0  0  0  0  0  0  0  0  0  0  0  0
   10.6392  -15.9685   26.0453 C   0  0  0  0  0  0  0  0  0  0  0  0
   10.2188  -15.6679   24.6648 C   0  0  0  0  0  0  0  0  0  0  0  0
   11.3831  -15.1943   23.8034 C   0  0  2  0  0  0  0  0  0  0  0  0
   10.8476  -14.6840   22.5284 N   0  0  0  0  0  0  0  0  0  0  0  0
   12.3482  -16.2602   23.5370 C   0  0  0  0  0  0  0  0  0  0  0  0
   13.5508  -16.1549   23.7956 O   0  0  0  0  0  0  0  0  0  0  0  0
   10.9128  -17.2788   26.4527 C   0  0  0  0  0  0  0  0  0  0  0  0
   11.3111  -17.5318   27.7499 C   0  0  0  0  0  0  0  0  0  0  0  0
   11.9627  -17.4909   22.9588 O   0  0  0  0  0  0  0  0  0  0  0  0
  2  1  1  1
  2  3  1  0
  3  4  1  0
  4  5  2  0
  6  5  1  0
  7  6  1  0
  8  7  2  0
  9  8  1  0
 10  9  2  0
 10 11  1  0
 11 12  2  0
 12  7  1  0
 12  4  1  0
 13  2  1  0
 14 13  2  0
 15 16  1  0
 17 19  1  0
 17 16  1  0
 17 18  1  1
 19 20  1  1
 20 13  1  0
 21 19  1  0
 21 22  2  0
 23 24  1  0
 24 34  2  0
 24 25  1  0
 25 26  2  0
 26 27  1  0
 27 28  1  0
 29 28  1  1
 29 30  1  0
 30 21  1  0
 31 29  1  0
 32 31  2  0
 33 27  2  0
 34 33  1  0
 35 31  1  0
M  END
$$$$
