WIY.pdb
     RDKit          3D

 35 37  0  0  1  0  0  0  0  0999 V2000
    6.3627  -18.4174   25.0994 N   0  0  0  0  0  0  0  0  0  0  0  0
    6.5500  -17.0258   24.6350 C   0  0  1  0  0  0  0  0  0  0  0  0
    7.1457  -16.3070   25.8336 C   0  0  0  0  0  0  0  0  0  0  0  0
    6.3917  -15.0947   26.2056 C   0  0  0  0  0  0  0  0  0  0  0  0
    5.2006  -15.0121   26.9377 C   0  0  0  0  0  0  0  0  0  0  0  0
    4.8259  -13.7301   27.0645 N   0  0  0  0  0  0  0  0  0  0  0  0
    5.7412  -12.9493   26.4320 C   0  0  0  0  0  0  0  0  0  0  0  0
    5.7779  -11.5769   26.2979 C   0  0  0  0  0  0  0  0  0  0  0  0
    6.8369  -11.0216   25.5978 C   0  0  0  0  0  0  0  0  0  0  0  0
    7.8007  -11.8496   25.0692 C   0  0  0  0  0  0  0  0  0  0  0  0
    7.7576  -13.2320   25.2081 C   0  0  0  0  0  0  0  0  0  0  0  0
    6.7093  -13.7830   25.9006 C   0  0  0  0  0  0  0  0  0  0  0  0
    7.6086  -17.0284   23.5923 C   0  0  0  0  0  0  0  0  0  0  0  0
    8.3944  -18.0410   23.4738 O   0  0  0  0  0  0  0  0  0  0  0  0
    7.2053  -13.0510   19.6518 C   0  0  0  0  0  0  0  0  0  0  0  0
    7.2729  -14.4350   20.2522 C   0  0  0  0  0  0  0  0  0  0  0  0
    8.6332  -14.6079   20.8694 C   0  0  2  0  0  0  0  0  0  0  0  0
    9.6373  -14.6831   19.7401 C   0  0  0  0  0  0  0  0  0  0  0  0
    8.7194  -15.9045   21.6706 C   0  0  2  0  0  0  0  0  0  0  0  0
    7.7477  -15.9189   22.7346 N   0  0  0  0  0  0  0  0  0  0  0  0
   10.1160  -16.0392   22.1292 C   0  0  0  0  0  0  0  0  0  0  0  0
   11.0073  -16.1730   21.2603 O   0  0  0  0  0  0  0  0  0  0  0  0
    9.7489  -17.2716   29.6009 O   0  0  0  0  0  0  0  0  0  0  0  0
   10.3610  -16.7522   28.4580 C   0  0  0  0  0  0  0  0  0  0  0  0
   11.2533  -17.4917   27.7056 C   0  0  0  0  0  0  0  0  0  0  0  0
   11.8301  -16.9282   26.5837 C   0  0  0  0  0  0  0  0  0  0  0  0
   11.5186  -15.6378   26.2162 C   0  0  0  0  0  0  0  0  0  0  0  0
   12.1481  -15.0722   25.0093 C   0  0  0  0  0  0  0  0  0  0  0  0
   11.9415  -15.9597   23.7880 C   0  0  2  0  0  0  0  0  0  0  0  0
   10.4992  -16.0215   23.4903 N   0  0  0  0  0  0  0  0  0  0  0  0
   12.4578  -17.3130   23.9896 C   0  0  0  0  0  0  0  0  0  0  0  0
   13.6333  -17.5439   24.2880 O   0  0  0  0  0  0  0  0  0  0  0  0
   10.6146  -14.8928   26.9815 C   0  0  0  0  0  0  0  0  0  0  0  0
   10.0343  -15.4490   28.1038 C   0  0  0  0  0  0  0  0  0  0  0  0
   11.6365  -18.4550   23.8523 O   0  0  0  0  0  0  0  0  0  0  0  0
  2  1  1  1
  2  3  1  0
  3  4  1  0
  4  5  2  0
  6  5  1  0
  7  6  1  0
  8  7  2  0
  9  8  1  0
 10  9  2  0
 10 11  1  0
 11 12  2  0
 12  7  1  0
 12  4  1  0
 13  2  1  0
 14 13  2  0
 15 16  1  0
 17 19  1  0
 17 16  1  0
 17 18  1  6
 19 20  1  1
 20 13  1  0
 21 19  1  0
 21 22  2  0
 23 24  1  0
 24 34  2  0
 24 25  1  0
 25 26  2  0
 26 27  1  0
 27 28  1  0
 29 28  1  1
 29 30  1  0
 30 21  1  0
 31 29  1  0
 32 31  2  0
 33 27  2  0
 34 33  1  0
 35 31  1  0
M  END
$$$$
