WIY.pdb
     RDKit          3D

 35 37  0  0  1  0  0  0  0  0999 V2000
    6.4507  -18.3876   24.2022 N   0  0  0  0  0  0  0  0  0  0  0  0
    6.6870  -16.9483   23.9576 C   0  0  1  0  0  0  0  0  0  0  0  0
    7.3009  -16.4434   25.2524 C   0  0  0  0  0  0  0  0  0  0  0  0
    6.5623  -15.3036   25.8286 C   0  0  0  0  0  0  0  0  0  0  0  0
    5.3136  -15.3186   26.4627 C   0  0  0  0  0  0  0  0  0  0  0  0
    4.9773  -14.0780   26.8471 N   0  0  0  0  0  0  0  0  0  0  0  0
    5.9749  -13.2294   26.4838 C   0  0  0  0  0  0  0  0  0  0  0  0
    6.0752  -11.8660   26.6685 C   0  0  0  0  0  0  0  0  0  0  0  0
    7.2134  -11.2298   26.1998 C   0  0  0  0  0  0  0  0  0  0  0  0
    8.1895  -11.9726   25.5757 C   0  0  0  0  0  0  0  0  0  0  0  0
    8.0821  -13.3464   25.3929 C   0  0  0  0  0  0  0  0  0  0  0  0
    6.9552  -13.9772   25.8560 C   0  0  0  0  0  0  0  0  0  0  0  0
    7.7498  -16.8264   22.9264 C   0  0  0  0  0  0  0  0  0  0  0  0
    8.5129  -17.8295   22.6652 O   0  0  0  0  0  0  0  0  0  0  0  0
    7.1237  -12.7634   19.2319 C   0  0  0  0  0  0  0  0  0  0  0  0
    7.3776  -14.1571   19.7552 C   0  0  0  0  0  0  0  0  0  0  0  0
    8.7186  -14.1608   20.4356 C   0  0  2  0  0  0  0  0  0  0  0  0
    9.7753  -14.0888   19.3552 C   0  0  0  0  0  0  0  0  0  0  0  0
    8.9357  -15.4467   21.2293 C   0  0  2  0  0  0  0  0  0  0  0  0
    7.9179  -15.6091   22.2365 N   0  0  0  0  0  0  0  0  0  0  0  0
   10.3103  -15.3990   21.7652 C   0  0  0  0  0  0  0  0  0  0  0  0
   10.9427  -14.3236   21.6603 O   0  0  0  0  0  0  0  0  0  0  0  0
   11.4389  -15.7274   30.1133 O   0  0  0  0  0  0  0  0  0  0  0  0
   11.1284  -15.7452   28.7516 C   0  0  0  0  0  0  0  0  0  0  0  0
   11.0792  -14.5886   27.9972 C   0  0  0  0  0  0  0  0  0  0  0  0
   10.7667  -14.6637   26.6536 C   0  0  0  0  0  0  0  0  0  0  0  0
   10.5057  -15.8830   26.0683 C   0  0  0  0  0  0  0  0  0  0  0  0
   10.1826  -15.9253   24.6307 C   0  0  0  0  0  0  0  0  0  0  0  0
   11.3879  -16.3191   23.7857 C   0  0  2  0  0  0  0  0  0  0  0  0
   10.9462  -16.4964   22.3906 N   0  0  0  0  0  0  0  0  0  0  0  0
   12.0210  -17.5497   24.2584 C   0  0  0  0  0  0  0  0  0  0  0  0
   12.9977  -17.5530   25.0136 O   0  0  0  0  0  0  0  0  0  0  0  0
   10.5564  -17.0514   26.8364 C   0  0  0  0  0  0  0  0  0  0  0  0
   10.8680  -16.9842   28.1796 C   0  0  0  0  0  0  0  0  0  0  0  0
   11.5521  -18.8268   23.8758 O   0  0  0  0  0  0  0  0  0  0  0  0
  2  1  1  1
  2  3  1  0
  3  4  1  0
  4  5  2  0
  6  5  1  0
  7  6  1  0
  8  7  2  0
  9  8  1  0
 10  9  2  0
 10 11  1  0
 11 12  2  0
 12  7  1  0
 12  4  1  0
 13  2  1  0
 14 13  2  0
 15 16  1  0
 17 19  1  0
 17 16  1  0
 17 18  1  6
 19 20  1  1
 20 13  1  0
 21 19  1  0
 21 22  2  0
 23 24  1  0
 24 34  2  0
 24 25  1  0
 25 26  2  0
 26 27  1  0
 27 28  1  0
 29 28  1  1
 29 30  1  0
 30 21  1  0
 31 29  1  0
 32 31  2  0
 33 27  2  0
 34 33  1  0
 35 31  1  0
M  END
$$$$
