WIY.pdb
     RDKit          3D

 35 37  0  0  1  0  0  0  0  0999 V2000
    6.0222  -18.1633   23.6877 N   0  0  0  0  0  0  0  0  0  0  0  0
    6.5536  -16.7842   23.6334 C   0  0  1  0  0  0  0  0  0  0  0  0
    7.2576  -16.6005   24.9672 C   0  0  0  0  0  0  0  0  0  0  0  0
    6.6256  -15.5670   25.8092 C   0  0  0  0  0  0  0  0  0  0  0  0
    5.5941  -15.7290   26.7427 C   0  0  0  0  0  0  0  0  0  0  0  0
    5.2914  -14.5486   27.3040 N   0  0  0  0  0  0  0  0  0  0  0  0
    6.0987  -13.5964   26.7665 C   0  0  0  0  0  0  0  0  0  0  0  0
    6.1548  -12.2441   27.0325 C   0  0  0  0  0  0  0  0  0  0  0  0
    7.0833  -11.4844   26.3391 C   0  0  0  0  0  0  0  0  0  0  0  0
    7.9049  -12.0998   25.4225 C   0  0  0  0  0  0  0  0  0  0  0  0
    7.8432  -13.4634   25.1593 C   0  0  0  0  0  0  0  0  0  0  0  0
    6.9238  -14.2163   25.8448 C   0  0  0  0  0  0  0  0  0  0  0  0
    7.6198  -16.7435   22.5993 C   0  0  0  0  0  0  0  0  0  0  0  0
    8.1498  -17.8375   22.1762 O   0  0  0  0  0  0  0  0  0  0  0  0
    7.6244  -12.2723   19.3174 C   0  0  0  0  0  0  0  0  0  0  0  0
    7.6177  -13.7199   19.7476 C   0  0  0  0  0  0  0  0  0  0  0  0
    8.9570  -14.0299   20.3572 C   0  0  2  0  0  0  0  0  0  0  0  0
    9.9798  -14.0013   19.2427 C   0  0  0  0  0  0  0  0  0  0  0  0
    8.9738  -15.4218   20.9838 C   0  0  2  0  0  0  0  0  0  0  0  0
    8.0471  -15.5033   22.0844 N   0  0  0  0  0  0  0  0  0  0  0  0
   10.3729  -15.7150   21.3521 C   0  0  0  0  0  0  0  0  0  0  0  0
   11.2707  -14.9922   20.8635 O   0  0  0  0  0  0  0  0  0  0  0  0
   11.1260  -14.8194   29.7243 O   0  0  0  0  0  0  0  0  0  0  0  0
   10.9109  -15.0067   28.3570 C   0  0  0  0  0  0  0  0  0  0  0  0
   11.3090  -16.1579   27.7046 C   0  0  0  0  0  0  0  0  0  0  0  0
   11.0714  -16.2909   26.3502 C   0  0  0  0  0  0  0  0  0  0  0  0
   10.4418  -15.2834   25.6532 C   0  0  0  0  0  0  0  0  0  0  0  0
   10.1987  -15.4634   24.2105 C   0  0  0  0  0  0  0  0  0  0  0  0
   11.2293  -16.3835   23.5679 C   0  0  2  0  0  0  0  0  0  0  0  0
   10.7507  -16.7608   22.2258 N   0  0  0  0  0  0  0  0  0  0  0  0
   11.4684  -17.5900   24.3590 C   0  0  0  0  0  0  0  0  0  0  0  0
   12.1153  -17.5841   25.4105 O   0  0  0  0  0  0  0  0  0  0  0  0
   10.0407  -14.1195   26.3181 C   0  0  0  0  0  0  0  0  0  0  0  0
   10.2748  -13.9793   27.6713 C   0  0  0  0  0  0  0  0  0  0  0  0
   10.9711  -18.8531   23.9657 O   0  0  0  0  0  0  0  0  0  0  0  0
  2  1  1  1
  2  3  1  0
  3  4  1  0
  4  5  2  0
  6  5  1  0
  7  6  1  0
  8  7  2  0
  9  8  1  0
 10  9  2  0
 10 11  1  0
 11 12  2  0
 12  7  1  0
 12  4  1  0
 13  2  1  0
 14 13  2  0
 15 16  1  0
 17 19  1  0
 17 16  1  0
 17 18  1  6
 19 20  1  1
 20 13  1  0
 21 19  1  0
 21 22  2  0
 23 24  1  0
 24 34  2  0
 24 25  1  0
 25 26  2  0
 26 27  1  0
 27 28  1  0
 29 28  1  1
 29 30  1  0
 30 21  1  0
 31 29  1  0
 32 31  2  0
 33 27  2  0
 34 33  1  0
 35 31  1  0
M  END
$$$$
