WIY.pdb
     RDKit          3D

 35 37  0  0  1  0  0  0  0  0999 V2000
    6.2125  -18.0706   25.4311 N   0  0  0  0  0  0  0  0  0  0  0  0
    6.5145  -16.6991   24.9675 C   0  0  1  0  0  0  0  0  0  0  0  0
    7.0789  -16.0038   26.1949 C   0  0  0  0  0  0  0  0  0  0  0  0
    6.5499  -14.6380   26.3718 C   0  0  0  0  0  0  0  0  0  0  0  0
    5.3049  -14.2569   26.8880 C   0  0  0  0  0  0  0  0  0  0  0  0
    5.1945  -12.9198   26.8837 N   0  0  0  0  0  0  0  0  0  0  0  0
    6.3401  -12.3946   26.3748 C   0  0  0  0  0  0  0  0  0  0  0  0
    6.6860  -11.0738   26.1782 C   0  0  0  0  0  0  0  0  0  0  0  0
    7.9331  -10.8031   25.6385 C   0  0  0  0  0  0  0  0  0  0  0  0
    8.7699  -11.8491   25.3228 C   0  0  0  0  0  0  0  0  0  0  0  0
    8.4151  -13.1780   25.5235 C   0  0  0  0  0  0  0  0  0  0  0  0
    7.1803  -13.4472   26.0573 C   0  0  0  0  0  0  0  0  0  0  0  0
    7.6331  -16.7799   23.9928 C   0  0  0  0  0  0  0  0  0  0  0  0
    8.4795  -17.7472   24.0613 O   0  0  0  0  0  0  0  0  0  0  0  0
    7.2620  -13.6955   19.3581 C   0  0  0  0  0  0  0  0  0  0  0  0
    7.4101  -14.8473   20.3235 C   0  0  0  0  0  0  0  0  0  0  0  0
    8.7256  -14.6912   21.0350 C   0  0  2  0  0  0  0  0  0  0  0  0
    9.8211  -14.8731   20.0075 C   0  0  0  0  0  0  0  0  0  0  0  0
    8.9034  -15.7557   22.1147 C   0  0  2  0  0  0  0  0  0  0  0  0
    7.7624  -15.7941   22.9941 N   0  0  0  0  0  0  0  0  0  0  0  0
   10.1806  -15.4715   22.7981 C   0  0  0  0  0  0  0  0  0  0  0  0
   10.3870  -14.3005   23.1901 O   0  0  0  0  0  0  0  0  0  0  0  0
    8.5933  -16.2187   28.8713 O   0  0  0  0  0  0  0  0  0  0  0  0
    9.5947  -16.3710   27.9096 C   0  0  0  0  0  0  0  0  0  0  0  0
   10.6126  -15.4485   27.7608 C   0  0  0  0  0  0  0  0  0  0  0  0
   11.5778  -15.6484   26.7927 C   0  0  0  0  0  0  0  0  0  0  0  0
   11.5272  -16.7597   25.9805 C   0  0  0  0  0  0  0  0  0  0  0  0
   12.5781  -16.9435   24.9633 C   0  0  0  0  0  0  0  0  0  0  0  0
   12.3830  -16.0201   23.7670 C   0  0  2  0  0  0  0  0  0  0  0  0
   11.1765  -16.4469   23.0356 N   0  0  0  0  0  0  0  0  0  0  0  0
   13.5323  -16.0301   22.8627 C   0  0  0  0  0  0  0  0  0  0  0  0
   13.4661  -16.4398   21.7000 O   0  0  0  0  0  0  0  0  0  0  0  0
   10.4943  -17.6908   26.1348 C   0  0  0  0  0  0  0  0  0  0  0  0
    9.5263  -17.4978   27.0998 C   0  0  0  0  0  0  0  0  0  0  0  0
   14.8056  -15.5685   23.2664 O   0  0  0  0  0  0  0  0  0  0  0  0
  2  1  1  1
  2  3  1  0
  3  4  1  0
  4  5  2  0
  6  5  1  0
  7  6  1  0
  8  7  2  0
  9  8  1  0
 10  9  2  0
 10 11  1  0
 11 12  2  0
 12  7  1  0
 12  4  1  0
 13  2  1  0
 14 13  2  0
 15 16  1  0
 17 19  1  0
 17 16  1  0
 17 18  1  6
 19 20  1  1
 20 13  1  0
 21 19  1  0
 21 22  2  0
 23 24  1  0
 24 34  2  0
 24 25  1  0
 25 26  2  0
 26 27  1  0
 27 28  1  0
 29 28  1  1
 29 30  1  0
 30 21  1  0
 31 29  1  0
 32 31  2  0
 33 27  2  0
 34 33  1  0
 35 31  1  0
M  END
$$$$
