WIY.pdb
     RDKit          3D

 35 37  0  0  1  0  0  0  0  0999 V2000
    7.6832  -19.3113   17.8593 N   0  0  0  0  0  0  0  0  0  0  0  0
    7.1347  -18.3776   18.8666 C   0  0  1  0  0  0  0  0  0  0  0  0
    6.9264  -19.2377   20.1015 C   0  0  0  0  0  0  0  0  0  0  0  0
    5.8520  -20.2340   19.9294 C   0  0  0  0  0  0  0  0  0  0  0  0
    5.9099  -21.6129   20.1679 C   0  0  0  0  0  0  0  0  0  0  0  0
    4.7258  -22.1785   19.8889 N   0  0  0  0  0  0  0  0  0  0  0  0
    3.8732  -21.2075   19.4675 C   0  0  0  0  0  0  0  0  0  0  0  0
    2.5549  -21.3102   19.0744 C   0  0  0  0  0  0  0  0  0  0  0  0
    1.9012  -20.1513   18.6876 C   0  0  0  0  0  0  0  0  0  0  0  0
    2.5828  -18.9559   18.7100 C   0  0  0  0  0  0  0  0  0  0  0  0
    3.9114  -18.8596   19.1075 C   0  0  0  0  0  0  0  0  0  0  0  0
    4.5598  -20.0065   19.4901 C   0  0  0  0  0  0  0  0  0  0  0  0
    8.2015  -17.4056   19.2205 C   0  0  0  0  0  0  0  0  0  0  0  0
    9.4171  -17.6216   18.8566 O   0  0  0  0  0  0  0  0  0  0  0  0
    6.7386  -12.1077   20.1414 C   0  0  0  0  0  0  0  0  0  0  0  0
    7.5050  -13.2852   19.5876 C   0  0  0  0  0  0  0  0  0  0  0  0
    8.2196  -13.9533   20.7295 C   0  0  2  0  0  0  0  0  0  0  0  0
    9.3111  -13.0138   21.1932 C   0  0  0  0  0  0  0  0  0  0  0  0
    8.8723  -15.2609   20.2881 C   0  0  2  0  0  0  0  0  0  0  0  0
    7.8764  -16.2477   19.9549 N   0  0  0  0  0  0  0  0  0  0  0  0
    9.7907  -15.6735   21.3677 C   0  0  0  0  0  0  0  0  0  0  0  0
   10.7103  -14.8862   21.6869 O   0  0  0  0  0  0  0  0  0  0  0  0
   11.7044  -22.3195   19.6313 O   0  0  0  0  0  0  0  0  0  0  0  0
   11.4258  -21.3902   20.6360 C   0  0  0  0  0  0  0  0  0  0  0  0
   12.4219  -20.8369   21.4177 C   0  0  0  0  0  0  0  0  0  0  0  0
   12.0900  -19.9219   22.3982 C   0  0  0  0  0  0  0  0  0  0  0  0
   10.7752  -19.5624   22.5963 C   0  0  0  0  0  0  0  0  0  0  0  0
   10.4595  -18.5778   23.6470 C   0  0  0  0  0  0  0  0  0  0  0  0
   10.6363  -17.1452   23.1591 C   0  0  2  0  0  0  0  0  0  0  0  0
    9.6854  -16.9024   22.0593 N   0  0  0  0  0  0  0  0  0  0  0  0
   11.9978  -16.8787   22.6964 C   0  0  0  0  0  0  0  0  0  0  0  0
   12.9835  -16.9556   23.4357 O   0  0  0  0  0  0  0  0  0  0  0  0
    9.7701  -20.1255   21.8025 C   0  0  0  0  0  0  0  0  0  0  0  0
   10.0939  -21.0405   20.8209 C   0  0  0  0  0  0  0  0  0  0  0  0
   12.2750  -16.5103   21.3604 O   0  0  0  0  0  0  0  0  0  0  0  0
  2  1  1  6
  2  3  1  0
  3  4  1  0
  4  5  2  0
  6  5  1  0
  7  6  1  0
  8  7  2  0
  9  8  1  0
 10  9  2  0
 10 11  1  0
 11 12  2  0
 12  7  1  0
 12  4  1  0
 13  2  1  0
 14 13  2  0
 15 16  1  0
 17 19  1  0
 17 16  1  0
 17 18  1  6
 19 20  1  1
 20 13  1  0
 21 19  1  0
 21 22  2  0
 23 24  1  0
 24 34  2  0
 24 25  1  0
 25 26  2  0
 26 27  1  0
 27 28  1  0
 29 28  1  6
 29 30  1  0
 30 21  1  0
 31 29  1  0
 32 31  2  0
 33 27  2  0
 34 33  1  0
 35 31  1  0
M  END
$$$$
