IAK.pdb
     RDKit          3D

 23 22  0  0  1  0  0  0  0  0999 V2000
    8.2779  -12.1924   18.6288 C   0  0  0  0  0  0  0  0  0  0  0  0
    7.2801  -13.1909   19.1129 C   0  0  0  0  0  0  0  0  0  0  0  0
    7.8910  -14.1330   20.0933 C   0  0  2  0  0  0  0  0  0  0  0  0
    9.2123  -14.6934   19.5914 C   0  0  0  0  0  0  0  0  0  0  0  0
    6.9972  -15.1898   20.6470 C   0  0  2  0  0  0  0  0  0  0  0  0
    5.7323  -14.4817   20.9541 N   0  0  0  0  0  0  0  0  0  0  0  0
    7.4358  -15.8515   21.8700 C   0  0  0  0  0  0  0  0  0  0  0  0
    7.8409  -15.1494   22.8685 O   0  0  0  0  0  0  0  0  0  0  0  0
    7.2697  -19.1110   23.6033 C   0  0  0  0  0  0  0  0  0  0  0  0
    8.0531  -17.8294   23.3133 C   0  0  2  0  0  0  0  0  0  0  0  0
    7.4768  -17.2487   22.1221 N   0  0  0  0  0  0  0  0  0  0  0  0
    9.4603  -18.2216   23.1377 C   0  0  0  0  0  0  0  0  0  0  0  0
    9.8829  -19.0031   22.2491 O   0  0  0  0  0  0  0  0  0  0  0  0
   10.4045  -17.6519   24.0686 N   0  0  0  0  0  0  0  0  0  0  0  0
   11.8068  -17.9570   24.0114 C   0  0  1  0  0  0  0  0  0  0  0  0
   12.5683  -16.7499   23.5069 C   0  0  0  0  0  0  0  0  0  0  0  0
   12.4845  -16.5997   22.0207 C   0  0  0  0  0  0  0  0  0  0  0  0
   13.2187  -15.3460   21.5904 C   0  0  0  0  0  0  0  0  0  0  0  0
   13.1217  -15.1146   20.1078 C   0  0  0  0  0  0  0  0  0  0  0  0
   13.7159  -13.8818   19.6787 N   0  0  0  0  0  0  0  0  0  0  0  0
   12.2671  -18.3237   25.3750 C   0  0  0  0  0  0  0  0  0  0  0  0
   11.4647  -18.2015   26.5017 O   0  0  0  0  0  0  0  0  0  0  0  0
   13.4369  -18.7738   25.5745 O   0  0  0  0  0  0  0  0  0  0  0  0
  2  3  1  0
  2  1  1  0
  3  5  1  0
  3  4  1  6
  5  7  1  0
  5  6  1  1
  7  8  2  0
 10  9  1  6
 10 12  1  0
 11 10  1  0
 11  7  1  0
 12 13  2  0
 14 15  1  0
 14 12  1  0
 15 21  1  0
 15 16  1  1
 17 16  1  0
 18 17  1  0
 19 18  1  0
 20 19  1  0
 21 23  2  0
 21 22  1  0
M  END
$$$$
