IAK.pdb
     RDKit          3D

 23 22  0  0  1  0  0  0  0  0999 V2000
    6.1874  -11.5219   27.0996 C   0  0  0  0  0  0  0  0  0  0  0  0
    5.7241  -12.7991   26.4822 C   0  0  0  0  0  0  0  0  0  0  0  0
    6.7842  -13.3994   25.6233 C   0  0  2  0  0  0  0  0  0  0  0  0
    7.3740  -12.3825   24.6590 C   0  0  0  0  0  0  0  0  0  0  0  0
    6.4492  -14.6899   24.9564 C   0  0  2  0  0  0  0  0  0  0  0  0
    6.0817  -15.5972   26.0687 N   0  0  0  0  0  0  0  0  0  0  0  0
    7.5131  -15.3368   24.1978 C   0  0  0  0  0  0  0  0  0  0  0  0
    8.4770  -15.9215   24.8168 O   0  0  0  0  0  0  0  0  0  0  0  0
    8.5668  -15.7870   20.6176 C   0  0  0  0  0  0  0  0  0  0  0  0
    8.7287  -16.0751   22.1113 C   0  0  2  0  0  0  0  0  0  0  0  0
    7.6345  -15.4138   22.7847 N   0  0  0  0  0  0  0  0  0  0  0  0
   10.0460  -15.5511   22.5053 C   0  0  0  0  0  0  0  0  0  0  0  0
   10.2529  -14.4006   22.9664 O   0  0  0  0  0  0  0  0  0  0  0  0
   11.1663  -16.4454   22.3395 N   0  0  0  0  0  0  0  0  0  0  0  0
   12.1048  -16.6926   23.3983 C   0  0  1  0  0  0  0  0  0  0  0  0
   11.3922  -17.3391   24.5669 C   0  0  0  0  0  0  0  0  0  0  0  0
   12.3171  -17.6500   25.7011 C   0  0  0  0  0  0  0  0  0  0  0  0
   11.5465  -18.3171   26.8223 C   0  0  0  0  0  0  0  0  0  0  0  0
   12.4041  -18.5556   28.0341 C   0  0  0  0  0  0  0  0  0  0  0  0
   11.7150  -19.2157   29.1048 N   0  0  0  0  0  0  0  0  0  0  0  0
   13.1716  -17.5894   22.8850 C   0  0  0  0  0  0  0  0  0  0  0  0
   14.5245  -17.3004   23.0058 O   0  0  0  0  0  0  0  0  0  0  0  0
   12.8884  -18.6805   22.3021 O   0  0  0  0  0  0  0  0  0  0  0  0
  2  3  1  0
  2  1  1  0
  3  5  1  0
  3  4  1  6
  5  7  1  0
  5  6  1  1
  7  8  2  0
 10  9  1  6
 10 12  1  0
 11 10  1  0
 11  7  1  0
 12 13  2  0
 14 15  1  0
 14 12  1  0
 15 21  1  0
 15 16  1  1
 17 16  1  0
 18 17  1  0
 19 18  1  0
 20 19  1  0
 21 23  2  0
 21 22  1  0
M  END
$$$$
