IAK.pdb
     RDKit          3D

 23 22  0  0  1  0  0  0  0  0999 V2000
    8.5337  -13.0087   19.2523 C   0  0  0  0  0  0  0  0  0  0  0  0
    7.7213  -13.2032   20.4889 C   0  0  0  0  0  0  0  0  0  0  0  0
    8.1495  -14.4237   21.2299 C   0  0  2  0  0  0  0  0  0  0  0  0
    8.3691  -15.6039   20.2968 C   0  0  0  0  0  0  0  0  0  0  0  0
    7.3466  -14.7889   22.4317 C   0  0  2  0  0  0  0  0  0  0  0  0
    7.3775  -13.5749   23.2807 N   0  0  0  0  0  0  0  0  0  0  0  0
    7.8352  -15.9000   23.2396 C   0  0  0  0  0  0  0  0  0  0  0  0
    9.0050  -15.8402   23.7707 O   0  0  0  0  0  0  0  0  0  0  0  0
    6.7097  -19.3326   24.2898 C   0  0  0  0  0  0  0  0  0  0  0  0
    7.7784  -18.2437   24.1776 C   0  0  2  0  0  0  0  0  0  0  0  0
    7.1526  -17.1094   23.5374 N   0  0  0  0  0  0  0  0  0  0  0  0
    8.8828  -18.8113   23.3882 C   0  0  0  0  0  0  0  0  0  0  0  0
    8.8857  -18.9281   22.1370 O   0  0  0  0  0  0  0  0  0  0  0  0
   10.0362  -19.2593   24.1308 N   0  0  0  0  0  0  0  0  0  0  0  0
   11.2310  -19.7152   23.4771 C   0  0  1  0  0  0  0  0  0  0  0  0
   11.8807  -18.5604   22.7450 C   0  0  0  0  0  0  0  0  0  0  0  0
   13.1758  -18.9454   22.1023 C   0  0  0  0  0  0  0  0  0  0  0  0
   13.4175  -18.0827   20.8804 C   0  0  0  0  0  0  0  0  0  0  0  0
   14.6923  -18.4495   20.1724 C   0  0  0  0  0  0  0  0  0  0  0  0
   15.0147  -17.5770   19.0806 N   0  0  0  0  0  0  0  0  0  0  0  0
   12.1548  -20.2587   24.5052 C   0  0  0  0  0  0  0  0  0  0  0  0
   12.0507  -19.9478   25.8545 O   0  0  0  0  0  0  0  0  0  0  0  0
   13.0983  -21.0467   24.1898 O   0  0  0  0  0  0  0  0  0  0  0  0
  2  3  1  0
  2  1  1  0
  3  5  1  0
  3  4  1  6
  5  7  1  0
  5  6  1  1
  7  8  2  0
 10  9  1  6
 10 12  1  0
 11 10  1  0
 11  7  1  0
 12 13  2  0
 14 15  1  0
 14 12  1  0
 15 21  1  0
 15 16  1  1
 17 16  1  0
 18 17  1  0
 19 18  1  0
 20 19  1  0
 21 23  2  0
 21 22  1  0
M  END
$$$$
