IAK.pdb
     RDKit          3D

 23 22  0  0  1  0  0  0  0  0999 V2000
    6.3523  -11.3192   27.3022 C   0  0  0  0  0  0  0  0  0  0  0  0
    5.7092  -12.4760   26.6129 C   0  0  0  0  0  0  0  0  0  0  0  0
    6.6609  -13.1474   25.6826 C   0  0  2  0  0  0  0  0  0  0  0  0
    7.3960  -12.1460   24.8058 C   0  0  0  0  0  0  0  0  0  0  0  0
    6.1289  -14.3029   24.9054 C   0  0  2  0  0  0  0  0  0  0  0  0
    5.6163  -15.2372   25.9349 N   0  0  0  0  0  0  0  0  0  0  0  0
    7.0807  -15.0392   24.0820 C   0  0  0  0  0  0  0  0  0  0  0  0
    7.9559  -15.7994   24.6388 O   0  0  0  0  0  0  0  0  0  0  0  0
    8.1706  -15.1255   20.4954 C   0  0  0  0  0  0  0  0  0  0  0  0
    8.2612  -15.6417   21.9326 C   0  0  2  0  0  0  0  0  0  0  0  0
    7.1758  -15.0302   22.6648 N   0  0  0  0  0  0  0  0  0  0  0  0
    9.5865  -15.2544   22.4410 C   0  0  0  0  0  0  0  0  0  0  0  0
    9.8017  -14.3068   23.2377 O   0  0  0  0  0  0  0  0  0  0  0  0
   10.7051  -16.0374   21.9740 N   0  0  0  0  0  0  0  0  0  0  0  0
   11.7134  -16.5319   22.8694 C   0  0  1  0  0  0  0  0  0  0  0  0
   11.0903  -17.5052   23.8470 C   0  0  0  0  0  0  0  0  0  0  0  0
   11.1962  -17.0398   25.2650 C   0  0  0  0  0  0  0  0  0  0  0  0
   10.8461  -18.1760   26.2044 C   0  0  0  0  0  0  0  0  0  0  0  0
   11.0699  -17.8079   27.6451 C   0  0  0  0  0  0  0  0  0  0  0  0
   10.7025  -18.8438   28.5664 N   0  0  0  0  0  0  0  0  0  0  0  0
   12.7662  -17.2080   22.0692 C   0  0  0  0  0  0  0  0  0  0  0  0
   14.1079  -16.8562   22.1347 O   0  0  0  0  0  0  0  0  0  0  0  0
   12.4804  -18.1557   21.2748 O   0  0  0  0  0  0  0  0  0  0  0  0
  2  3  1  0
  2  1  1  0
  3  5  1  0
  3  4  1  6
  5  7  1  0
  5  6  1  1
  7  8  2  0
 10  9  1  6
 10 12  1  0
 11 10  1  0
 11  7  1  0
 12 13  2  0
 14 15  1  0
 14 12  1  0
 15 21  1  0
 15 16  1  1
 17 16  1  0
 18 17  1  0
 19 18  1  0
 20 19  1  0
 21 23  2  0
 21 22  1  0
M  END
$$$$
