IAK.pdb
     RDKit          3D

 23 22  0  0  1  0  0  0  0  0999 V2000
    6.6335  -11.4030   27.4299 C   0  0  0  0  0  0  0  0  0  0  0  0
    5.9533  -12.5659   26.7881 C   0  0  0  0  0  0  0  0  0  0  0  0
    6.8815  -13.3028   25.8840 C   0  0  2  0  0  0  0  0  0  0  0  0
    7.6500  -12.3597   24.9720 C   0  0  0  0  0  0  0  0  0  0  0  0
    6.3104  -14.4672   25.1489 C   0  0  2  0  0  0  0  0  0  0  0  0
    5.8417  -15.3841   26.2144 N   0  0  0  0  0  0  0  0  0  0  0  0
    7.2210  -15.2195   24.2941 C   0  0  0  0  0  0  0  0  0  0  0  0
    8.0563  -16.0454   24.8178 O   0  0  0  0  0  0  0  0  0  0  0  0
    8.1821  -15.4151   20.6674 C   0  0  0  0  0  0  0  0  0  0  0  0
    8.2665  -15.9262   22.1069 C   0  0  2  0  0  0  0  0  0  0  0  0
    7.3139  -15.1606   22.8780 N   0  0  0  0  0  0  0  0  0  0  0  0
    9.6557  -15.7260   22.5486 C   0  0  0  0  0  0  0  0  0  0  0  0
   10.2178  -14.6084   22.6679 O   0  0  0  0  0  0  0  0  0  0  0  0
   10.4059  -16.9183   22.8617 N   0  0  0  0  0  0  0  0  0  0  0  0
   11.7428  -16.8601   23.3836 C   0  0  1  0  0  0  0  0  0  0  0  0
   11.9830  -18.0438   24.2960 C   0  0  0  0  0  0  0  0  0  0  0  0
   11.1768  -17.9704   25.5542 C   0  0  0  0  0  0  0  0  0  0  0  0
   11.4879  -19.1654   26.4323 C   0  0  0  0  0  0  0  0  0  0  0  0
   10.7943  -19.0845   27.7639 C   0  0  0  0  0  0  0  0  0  0  0  0
   11.1184  -20.1670   28.6472 N   0  0  0  0  0  0  0  0  0  0  0  0
   12.6965  -16.8848   22.2453 C   0  0  0  0  0  0  0  0  0  0  0  0
   12.3164  -17.2020   20.9479 O   0  0  0  0  0  0  0  0  0  0  0  0
   13.9247  -16.6118   22.4114 O   0  0  0  0  0  0  0  0  0  0  0  0
  2  3  1  0
  2  1  1  0
  3  5  1  0
  3  4  1  6
  5  7  1  0
  5  6  1  1
  7  8  2  0
 10  9  1  6
 10 12  1  0
 11 10  1  0
 11  7  1  0
 12 13  2  0
 14 15  1  0
 14 12  1  0
 15 21  1  0
 15 16  1  1
 17 16  1  0
 18 17  1  0
 19 18  1  0
 20 19  1  0
 21 23  2  0
 21 22  1  0
M  END
$$$$
