IAK.pdb
     RDKit          3D

 23 22  0  0  1  0  0  0  0  0999 V2000
    7.4897  -11.9959   19.3386 C   0  0  0  0  0  0  0  0  0  0  0  0
    7.6242  -13.4806   19.2695 C   0  0  0  0  0  0  0  0  0  0  0  0
    8.0910  -14.0416   20.5693 C   0  0  2  0  0  0  0  0  0  0  0  0
    9.3072  -13.3001   21.1012 C   0  0  0  0  0  0  0  0  0  0  0  0
    8.2518  -15.5221   20.6361 C   0  0  2  0  0  0  0  0  0  0  0  0
    6.9585  -16.0575   20.1500 N   0  0  0  0  0  0  0  0  0  0  0  0
    8.4978  -16.1009   21.9515 C   0  0  0  0  0  0  0  0  0  0  0  0
    7.5948  -16.0248   22.8641 O   0  0  0  0  0  0  0  0  0  0  0  0
   10.9865  -18.3129   23.6553 C   0  0  0  0  0  0  0  0  0  0  0  0
    9.8401  -17.3021   23.7212 C   0  0  2  0  0  0  0  0  0  0  0  0
    9.6685  -16.7783   22.3854 N   0  0  0  0  0  0  0  0  0  0  0  0
   10.2362  -16.2726   24.6950 C   0  0  0  0  0  0  0  0  0  0  0  0
   11.1038  -15.3868   24.4913 O   0  0  0  0  0  0  0  0  0  0  0  0
    9.5626  -16.3054   25.9708 N   0  0  0  0  0  0  0  0  0  0  0  0
    9.8098  -15.3205   26.9865 C   0  0  1  0  0  0  0  0  0  0  0  0
    8.4982  -14.7077   27.4286 C   0  0  0  0  0  0  0  0  0  0  0  0
    8.1566  -13.4696   26.6612 C   0  0  0  0  0  0  0  0  0  0  0  0
    6.8368  -12.9103   27.1524 C   0  0  0  0  0  0  0  0  0  0  0  0
    6.5128  -11.5860   26.5182 C   0  0  0  0  0  0  0  0  0  0  0  0
    5.2644  -11.0304   26.9541 N   0  0  0  0  0  0  0  0  0  0  0  0
   10.4821  -15.9823   28.1336 C   0  0  0  0  0  0  0  0  0  0  0  0
   11.1678  -15.2794   29.1154 O   0  0  0  0  0  0  0  0  0  0  0  0
   10.4591  -17.2439   28.2697 O   0  0  0  0  0  0  0  0  0  0  0  0
  2  3  1  0
  2  1  1  0
  3  5  1  0
  3  4  1  6
  5  7  1  0
  5  6  1  1
  7  8  2  0
 10  9  1  6
 10 12  1  0
 11 10  1  0
 11  7  1  0
 12 13  2  0
 14 15  1  0
 14 12  1  0
 15 21  1  0
 15 16  1  1
 17 16  1  0
 18 17  1  0
 19 18  1  0
 20 19  1  0
 21 23  2  0
 21 22  1  0
M  END
$$$$
