IAK.pdb
     RDKit          3D

 23 22  0  0  1  0  0  0  0  0999 V2000
    6.5744  -11.2290   27.1593 C   0  0  0  0  0  0  0  0  0  0  0  0
    5.9942  -12.4996   26.6339 C   0  0  0  0  0  0  0  0  0  0  0  0
    6.9656  -13.2155   25.7587 C   0  0  2  0  0  0  0  0  0  0  0  0
    7.6061  -12.2825   24.7433 C   0  0  0  0  0  0  0  0  0  0  0  0
    6.4949  -14.4896   25.1446 C   0  0  2  0  0  0  0  0  0  0  0  0
    6.0542  -15.3143   26.2941 N   0  0  0  0  0  0  0  0  0  0  0  0
    7.4788  -15.2671   24.4006 C   0  0  0  0  0  0  0  0  0  0  0  0
    8.3914  -15.9175   25.0315 O   0  0  0  0  0  0  0  0  0  0  0  0
    8.4458  -15.9496   20.8347 C   0  0  0  0  0  0  0  0  0  0  0  0
    8.5598  -16.2340   22.3335 C   0  0  2  0  0  0  0  0  0  0  0  0
    7.5692  -15.4122   22.9905 N   0  0  0  0  0  0  0  0  0  0  0  0
    9.9371  -15.8976   22.7268 C   0  0  0  0  0  0  0  0  0  0  0  0
   10.4654  -14.7649   22.5961 O   0  0  0  0  0  0  0  0  0  0  0  0
   10.7175  -16.9661   23.3027 N   0  0  0  0  0  0  0  0  0  0  0  0
   12.0228  -16.7404   23.8576 C   0  0  1  0  0  0  0  0  0  0  0  0
   12.2529  -17.6885   25.0150 C   0  0  0  0  0  0  0  0  0  0  0  0
   11.4642  -17.3121   26.2294 C   0  0  0  0  0  0  0  0  0  0  0  0
   11.7964  -18.2547   27.3683 C   0  0  0  0  0  0  0  0  0  0  0  0
   11.1243  -17.8506   28.6512 C   0  0  0  0  0  0  0  0  0  0  0  0
   11.4017  -18.7325   29.7477 N   0  0  0  0  0  0  0  0  0  0  0  0
   13.0347  -16.9694   22.7948 C   0  0  0  0  0  0  0  0  0  0  0  0
   14.2847  -16.3648   22.7988 O   0  0  0  0  0  0  0  0  0  0  0  0
   12.7968  -17.7429   21.8172 O   0  0  0  0  0  0  0  0  0  0  0  0
  2  3  1  0
  2  1  1  0
  3  5  1  0
  3  4  1  6
  5  7  1  0
  5  6  1  1
  7  8  2  0
 10  9  1  6
 10 12  1  0
 11 10  1  0
 11  7  1  0
 12 13  2  0
 14 15  1  0
 14 12  1  0
 15 21  1  0
 15 16  1  1
 17 16  1  0
 18 17  1  0
 19 18  1  0
 20 19  1  0
 21 23  2  0
 21 22  1  0
M  END
$$$$
