IAK.pdb
     RDKit          3D

 23 22  0  0  1  0  0  0  0  0999 V2000
    6.4708  -11.0333   27.7272 C   0  0  0  0  0  0  0  0  0  0  0  0
    5.8802  -12.2145   27.0323 C   0  0  0  0  0  0  0  0  0  0  0  0
    6.9225  -12.9845   26.2957 C   0  0  2  0  0  0  0  0  0  0  0  0
    7.8150  -12.0763   25.4648 C   0  0  0  0  0  0  0  0  0  0  0  0
    6.4549  -14.1769   25.5330 C   0  0  2  0  0  0  0  0  0  0  0  0
    5.5142  -14.8591   26.4524 N   0  0  0  0  0  0  0  0  0  0  0  0
    7.4679  -15.1502   25.1428 C   0  0  0  0  0  0  0  0  0  0  0  0
    8.4612  -14.7835   24.4128 O   0  0  0  0  0  0  0  0  0  0  0  0
    8.0515  -18.8537   25.4037 C   0  0  0  0  0  0  0  0  0  0  0  0
    8.4677  -17.4594   24.9315 C   0  0  2  0  0  0  0  0  0  0  0  0
    7.5083  -16.5291   25.4813 N   0  0  0  0  0  0  0  0  0  0  0  0
    8.4608  -17.4888   23.4604 C   0  0  0  0  0  0  0  0  0  0  0  0
    7.4882  -17.8541   22.7536 O   0  0  0  0  0  0  0  0  0  0  0  0
    9.6738  -17.0611   22.8060 N   0  0  0  0  0  0  0  0  0  0  0  0
    9.7644  -16.9389   21.3778 C   0  0  1  0  0  0  0  0  0  0  0  0
    9.1068  -15.6490   20.9363 C   0  0  0  0  0  0  0  0  0  0  0  0
    9.2822  -15.3877   19.4737 C   0  0  0  0  0  0  0  0  0  0  0  0
    8.6389  -14.0652   19.1089 C   0  0  0  0  0  0  0  0  0  0  0  0
    8.7372  -13.7755   17.6367 C   0  0  0  0  0  0  0  0  0  0  0  0
    7.9962  -12.6175   17.2282 N   0  0  0  0  0  0  0  0  0  0  0  0
   11.1989  -16.9442   20.9927 C   0  0  0  0  0  0  0  0  0  0  0  0
   11.6297  -17.1310   19.6859 O   0  0  0  0  0  0  0  0  0  0  0  0
   12.1118  -16.7748   21.8578 O   0  0  0  0  0  0  0  0  0  0  0  0
  2  3  1  0
  2  1  1  0
  3  5  1  0
  3  4  1  6
  5  7  1  0
  5  6  1  1
  7  8  2  0
 10  9  1  1
 10 12  1  0
 11 10  1  0
 11  7  1  0
 12 13  2  0
 14 15  1  0
 14 12  1  0
 15 21  1  0
 15 16  1  1
 17 16  1  0
 18 17  1  0
 19 18  1  0
 20 19  1  0
 21 23  2  0
 21 22  1  0
M  END
$$$$
