IAK.pdb
     RDKit          3D

 23 22  0  0  1  0  0  0  0  0999 V2000
    6.4453  -11.5070   27.7866 C   0  0  0  0  0  0  0  0  0  0  0  0
    5.7736  -12.4862   26.8827 C   0  0  0  0  0  0  0  0  0  0  0  0
    6.7619  -13.1806   26.0091 C   0  0  2  0  0  0  0  0  0  0  0  0
    7.7285  -12.2027   25.3603 C   0  0  0  0  0  0  0  0  0  0  0  0
    6.2128  -14.1689   25.0375 C   0  0  2  0  0  0  0  0  0  0  0  0
    5.3694  -15.0677   25.8599 N   0  0  0  0  0  0  0  0  0  0  0  0
    7.1760  -15.0019   24.3273 C   0  0  0  0  0  0  0  0  0  0  0  0
    7.8092  -15.9276   24.9565 O   0  0  0  0  0  0  0  0  0  0  0  0
    8.6105  -15.3557   20.8682 C   0  0  0  0  0  0  0  0  0  0  0  0
    8.4518  -15.8331   22.3129 C   0  0  2  0  0  0  0  0  0  0  0  0
    7.5284  -14.9247   22.9535 N   0  0  0  0  0  0  0  0  0  0  0  0
    9.7927  -15.8102   22.9183 C   0  0  0  0  0  0  0  0  0  0  0  0
   10.4620  -14.7706   23.1426 O   0  0  0  0  0  0  0  0  0  0  0  0
   10.3577  -17.0903   23.2711 N   0  0  0  0  0  0  0  0  0  0  0  0
   11.5461  -17.2025   24.0699 C   0  0  1  0  0  0  0  0  0  0  0  0
   11.2715  -18.0890   25.2658 C   0  0  0  0  0  0  0  0  0  0  0  0
   12.4980  -18.3440   26.0837 C   0  0  0  0  0  0  0  0  0  0  0  0
   12.1511  -19.2261   27.2659 C   0  0  0  0  0  0  0  0  0  0  0  0
   13.2903  -19.3391   28.2407 C   0  0  0  0  0  0  0  0  0  0  0  0
   13.0064  -20.1897   29.3600 N   0  0  0  0  0  0  0  0  0  0  0  0
   12.6253  -17.7860   23.2329 C   0  0  0  0  0  0  0  0  0  0  0  0
   13.9700  -17.4972   23.4248 O   0  0  0  0  0  0  0  0  0  0  0  0
   12.3611  -18.5898   22.2870 O   0  0  0  0  0  0  0  0  0  0  0  0
  2  3  1  0
  2  1  1  0
  3  5  1  0
  3  4  1  6
  5  7  1  0
  5  6  1  1
  7  8  2  0
 10  9  1  6
 10 12  1  0
 11 10  1  0
 11  7  1  0
 12 13  2  0
 14 15  1  0
 14 12  1  0
 15 21  1  0
 15 16  1  1
 17 16  1  0
 18 17  1  0
 19 18  1  0
 20 19  1  0
 21 23  2  0
 21 22  1  0
M  END
$$$$
