IAK.pdb
     RDKit          3D

 23 22  0  0  1  0  0  0  0  0999 V2000
    7.3172  -11.3773   26.3602 C   0  0  0  0  0  0  0  0  0  0  0  0
    7.4077  -12.8656   26.2982 C   0  0  0  0  0  0  0  0  0  0  0  0
    6.1739  -13.4575   25.7071 C   0  0  2  0  0  0  0  0  0  0  0  0
    4.9310  -13.0795   26.4970 C   0  0  0  0  0  0  0  0  0  0  0  0
    6.2226  -14.9116   25.3824 C   0  0  2  0  0  0  0  0  0  0  0  0
    6.9971  -15.5134   26.4932 N   0  0  0  0  0  0  0  0  0  0  0  0
    6.8801  -15.2884   24.1368 C   0  0  0  0  0  0  0  0  0  0  0  0
    6.7429  -16.4809   23.6752 O   0  0  0  0  0  0  0  0  0  0  0  0
    8.3888  -13.6382   21.1851 C   0  0  0  0  0  0  0  0  0  0  0  0
    8.2404  -14.8938   22.0462 C   0  0  2  0  0  0  0  0  0  0  0  0
    7.6983  -14.4672   23.3160 N   0  0  0  0  0  0  0  0  0  0  0  0
    9.5808  -15.4890   22.1652 C   0  0  0  0  0  0  0  0  0  0  0  0
   10.3788  -15.6592   21.2096 O   0  0  0  0  0  0  0  0  0  0  0  0
    9.9839  -15.8990   23.4888 N   0  0  0  0  0  0  0  0  0  0  0  0
   11.3003  -16.4055   23.7597 C   0  0  1  0  0  0  0  0  0  0  0  0
   11.4256  -16.7298   25.2330 C   0  0  0  0  0  0  0  0  0  0  0  0
   11.1431  -15.5480   26.1059 C   0  0  0  0  0  0  0  0  0  0  0  0
   11.2791  -15.9428   27.5624 C   0  0  0  0  0  0  0  0  0  0  0  0
   10.9105  -14.8183   28.4900 C   0  0  0  0  0  0  0  0  0  0  0  0
   10.9532  -15.1803   29.8771 N   0  0  0  0  0  0  0  0  0  0  0  0
   11.5143  -17.6274   22.9430 C   0  0  0  0  0  0  0  0  0  0  0  0
   12.7754  -18.1322   22.6548 O   0  0  0  0  0  0  0  0  0  0  0  0
   10.5350  -18.2767   22.4633 O   0  0  0  0  0  0  0  0  0  0  0  0
  2  3  1  0
  2  1  1  0
  3  5  1  0
  3  4  1  1
  5  7  1  0
  5  6  1  1
  7  8  2  0
 10  9  1  6
 10 12  1  0
 11 10  1  0
 11  7  1  0
 12 13  2  0
 14 15  1  0
 14 12  1  0
 15 21  1  0
 15 16  1  1
 17 16  1  0
 18 17  1  0
 19 18  1  0
 20 19  1  0
 21 23  2  0
 21 22  1  0
M  END
$$$$
