IAK.pdb
     RDKit          3D

 23 22  0  0  1  0  0  0  0  0999 V2000
    7.7985  -13.2426   18.6059 C   0  0  0  0  0  0  0  0  0  0  0  0
    7.1980  -13.0477   19.9581 C   0  0  0  0  0  0  0  0  0  0  0  0
    7.8181  -13.9598   20.9609 C   0  0  2  0  0  0  0  0  0  0  0  0
    8.0660  -15.3460   20.3875 C   0  0  0  0  0  0  0  0  0  0  0  0
    7.1765  -14.0056   22.3057 C   0  0  2  0  0  0  0  0  0  0  0  0
    6.9444  -12.5841   22.6540 N   0  0  0  0  0  0  0  0  0  0  0  0
    7.9526  -14.5996   23.3877 C   0  0  0  0  0  0  0  0  0  0  0  0
    9.1238  -14.1442   23.6612 O   0  0  0  0  0  0  0  0  0  0  0  0
    7.5673  -16.4859   26.4773 C   0  0  0  0  0  0  0  0  0  0  0  0
    8.4288  -16.2548   25.2344 C   0  0  2  0  0  0  0  0  0  0  0  0
    7.5658  -15.6757   24.2304 N   0  0  0  0  0  0  0  0  0  0  0  0
    8.9681  -17.5660   24.8408 C   0  0  0  0  0  0  0  0  0  0  0  0
    8.2823  -18.5215   24.3983 O   0  0  0  0  0  0  0  0  0  0  0  0
   10.3934  -17.7409   24.9835 N   0  0  0  0  0  0  0  0  0  0  0  0
   11.0377  -18.9927   24.6995 C   0  0  1  0  0  0  0  0  0  0  0  0
   11.9536  -18.8322   23.5051 C   0  0  0  0  0  0  0  0  0  0  0  0
   11.2348  -18.3213   22.2965 C   0  0  0  0  0  0  0  0  0  0  0  0
   12.2170  -18.1318   21.1584 C   0  0  0  0  0  0  0  0  0  0  0  0
   11.5362  -17.6961   19.8904 C   0  0  0  0  0  0  0  0  0  0  0  0
   12.4098  -17.6568   18.7536 N   0  0  0  0  0  0  0  0  0  0  0  0
   11.8170  -19.4054   25.8947 C   0  0  0  0  0  0  0  0  0  0  0  0
   11.9270  -18.6186   27.0335 O   0  0  0  0  0  0  0  0  0  0  0  0
   12.4285  -20.5170   25.9284 O   0  0  0  0  0  0  0  0  0  0  0  0
  2  3  1  0
  2  1  1  0
  3  5  1  0
  3  4  1  6
  5  7  1  0
  5  6  1  1
  7  8  2  0
 10  9  1  1
 10 12  1  0
 11 10  1  0
 11  7  1  0
 12 13  2  0
 14 15  1  0
 14 12  1  0
 15 21  1  0
 15 16  1  6
 17 16  1  0
 18 17  1  0
 19 18  1  0
 20 19  1  0
 21 23  2  0
 21 22  1  0
M  END
$$$$
