IAK.pdb
     RDKit          3D

 23 22  0  0  1  0  0  0  0  0999 V2000
    6.7751  -11.2487   27.3526 C   0  0  0  0  0  0  0  0  0  0  0  0
    6.0012  -12.3376   26.6875 C   0  0  0  0  0  0  0  0  0  0  0  0
    6.8755  -13.1581   25.8019 C   0  0  2  0  0  0  0  0  0  0  0  0
    7.7509  -12.2911   24.9111 C   0  0  0  0  0  0  0  0  0  0  0  0
    6.2132  -14.2617   25.0498 C   0  0  2  0  0  0  0  0  0  0  0  0
    5.5951  -15.1061   26.0989 N   0  0  0  0  0  0  0  0  0  0  0  0
    7.0732  -15.1223   24.2463 C   0  0  0  0  0  0  0  0  0  0  0  0
    7.8128  -16.0043   24.8201 O   0  0  0  0  0  0  0  0  0  0  0  0
    8.1367  -15.4751   20.6599 C   0  0  0  0  0  0  0  0  0  0  0  0
    8.1750  -15.9262   22.1212 C   0  0  2  0  0  0  0  0  0  0  0  0
    7.2111  -15.1182   22.8327 N   0  0  0  0  0  0  0  0  0  0  0  0
    9.5538  -15.7234   22.5931 C   0  0  0  0  0  0  0  0  0  0  0  0
   10.1435  -14.6145   22.6337 O   0  0  0  0  0  0  0  0  0  0  0  0
   10.2585  -16.9021   23.0364 N   0  0  0  0  0  0  0  0  0  0  0  0
   11.5880  -16.8349   23.5758 C   0  0  1  0  0  0  0  0  0  0  0  0
   11.8088  -17.9922   24.5262 C   0  0  0  0  0  0  0  0  0  0  0  0
   10.9992  -17.8679   25.7783 C   0  0  0  0  0  0  0  0  0  0  0  0
   11.3083  -19.0260   26.7051 C   0  0  0  0  0  0  0  0  0  0  0  0
   10.5574  -18.9266   28.0041 C   0  0  0  0  0  0  0  0  0  0  0  0
   10.8097  -20.0190   28.8986 N   0  0  0  0  0  0  0  0  0  0  0  0
   12.5578  -16.8982   22.4527 C   0  0  0  0  0  0  0  0  0  0  0  0
   13.8869  -16.5167   22.5798 O   0  0  0  0  0  0  0  0  0  0  0  0
   12.2078  -17.3117   21.3050 O   0  0  0  0  0  0  0  0  0  0  0  0
  2  3  1  0
  2  1  1  0
  3  5  1  0
  3  4  1  6
  5  7  1  0
  5  6  1  1
  7  8  2  0
 10  9  1  6
 10 12  1  0
 11 10  1  0
 11  7  1  0
 12 13  2  0
 14 15  1  0
 14 12  1  0
 15 21  1  0
 15 16  1  1
 17 16  1  0
 18 17  1  0
 19 18  1  0
 20 19  1  0
 21 23  2  0
 21 22  1  0
M  END
$$$$
