IAK.pdb
     RDKit          3D

 23 22  0  0  1  0  0  0  0  0999 V2000
    6.6011  -11.8417   27.7105 C   0  0  0  0  0  0  0  0  0  0  0  0
    5.9832  -12.9198   26.8842 C   0  0  0  0  0  0  0  0  0  0  0  0
    6.9878  -13.5519   25.9824 C   0  0  2  0  0  0  0  0  0  0  0  0
    7.7784  -12.5143   25.2012 C   0  0  0  0  0  0  0  0  0  0  0  0
    6.5006  -14.6656   25.1196 C   0  0  2  0  0  0  0  0  0  0  0  0
    5.8903  -15.6280   26.0666 N   0  0  0  0  0  0  0  0  0  0  0  0
    7.5029  -15.3890   24.3463 C   0  0  0  0  0  0  0  0  0  0  0  0
    8.3413  -16.1587   24.9451 O   0  0  0  0  0  0  0  0  0  0  0  0
    8.6488  -15.6940   20.7779 C   0  0  0  0  0  0  0  0  0  0  0  0
    8.7138  -16.1062   22.2497 C   0  0  2  0  0  0  0  0  0  0  0  0
    7.6878  -15.3570   22.9384 N   0  0  0  0  0  0  0  0  0  0  0  0
   10.0708  -15.7881   22.7211 C   0  0  0  0  0  0  0  0  0  0  0  0
   10.6100  -14.6555   22.6474 O   0  0  0  0  0  0  0  0  0  0  0  0
   10.8161  -16.8759   23.3073 N   0  0  0  0  0  0  0  0  0  0  0  0
   12.1437  -16.6958   23.8249 C   0  0  1  0  0  0  0  0  0  0  0  0
   12.4042  -17.7107   24.9174 C   0  0  0  0  0  0  0  0  0  0  0  0
   11.5963  -17.4471   26.1488 C   0  0  0  0  0  0  0  0  0  0  0  0
   11.7806  -18.5825   27.1351 C   0  0  0  0  0  0  0  0  0  0  0  0
   11.0302  -18.3459   28.4164 C   0  0  0  0  0  0  0  0  0  0  0  0
   11.1669  -19.4109   29.3673 N   0  0  0  0  0  0  0  0  0  0  0  0
   13.1129  -16.8745   22.7138 C   0  0  0  0  0  0  0  0  0  0  0  0
   12.7745  -17.4654   21.5037 O   0  0  0  0  0  0  0  0  0  0  0  0
   14.3166  -16.4874   22.8235 O   0  0  0  0  0  0  0  0  0  0  0  0
  2  3  1  0
  2  1  1  0
  3  5  1  0
  3  4  1  6
  5  7  1  0
  5  6  1  1
  7  8  2  0
 10  9  1  6
 10 12  1  0
 11 10  1  0
 11  7  1  0
 12 13  2  0
 14 15  1  0
 14 12  1  0
 15 21  1  0
 15 16  1  1
 17 16  1  0
 18 17  1  0
 19 18  1  0
 20 19  1  0
 21 23  2  0
 21 22  1  0
M  END
$$$$
