LQR.pdb
     RDKit          3D

 29 28  0  0  1  0  0  0  0  0999 V2000
   26.3280  -25.7908  -16.5826 C   0  0  0  0  0  0  0  0  0  0  0  0
   25.6782  -24.4075  -16.7885 C   0  0  2  0  0  0  0  0  0  0  0  0
   25.4588  -24.2049  -18.2657 C   0  0  0  0  0  0  0  0  0  0  0  0
   26.5486  -23.3364  -16.1829 C   0  0  0  0  0  0  0  0  0  0  0  0
   25.9230  -22.0228  -16.1319 C   0  0  2  0  0  0  0  0  0  0  0  0
   26.9782  -20.9944  -16.1482 N   0  0  0  0  0  0  0  0  0  0  0  0
   24.9380  -21.6769  -15.1503 C   0  0  0  0  0  0  0  0  0  0  0  0
   25.2680  -21.6531  -13.9253 O   0  0  0  0  0  0  0  0  0  0  0  0
   20.8473  -17.2730  -15.0027 N   0  0  0  0  0  0  0  0  0  0  0  0
   20.3472  -18.0249  -13.9028 C   0  0  0  0  0  0  0  0  0  0  0  0
   19.4061  -17.4967  -13.2576 O   0  0  0  0  0  0  0  0  0  0  0  0
   20.9188  -19.3637  -13.5486 C   0  0  0  0  0  0  0  0  0  0  0  0
   21.9900  -19.6545  -14.5433 C   0  0  0  0  0  0  0  0  0  0  0  0
   22.6558  -21.0110  -14.3298 C   0  0  2  0  0  0  0  0  0  0  0  0
   23.5607  -21.3352  -15.3857 N   0  0  0  0  0  0  0  0  0  0  0  0
   21.5322  -21.9876  -14.1771 C   0  0  0  0  0  0  0  0  0  0  0  0
   20.8880  -22.3818  -15.2049 O   0  0  0  0  0  0  0  0  0  0  0  0
   17.9577  -26.6117   -9.1191 N   0  0  0  0  0  0  0  0  0  0  0  0
   17.8603  -27.7456  -10.0032 C   0  0  0  0  0  0  0  0  0  0  0  0
   16.8507  -28.5195   -9.9134 N   0  0  0  0  0  0  0  0  0  0  0  0
   18.8857  -27.9802  -10.9548 N   0  0  0  0  0  0  0  0  0  0  0  0
   19.9652  -27.0403  -11.0889 C   0  0  0  0  0  0  0  0  0  0  0  0
   19.5609  -25.7897  -11.7468 C   0  0  0  0  0  0  0  0  0  0  0  0
   20.4394  -24.6893  -12.0877 C   0  0  0  0  0  0  0  0  0  0  0  0
   20.0302  -23.4551  -12.7192 C   0  0  2  0  0  0  0  0  0  0  0  0
   21.1378  -22.5072  -12.9352 N   0  0  0  0  0  0  0  0  0  0  0  0
   18.7879  -22.7727  -12.4265 C   0  0  0  0  0  0  0  0  0  0  0  0
   17.4847  -23.0278  -12.6667 O   0  0  0  0  0  0  0  0  0  0  0  0
   18.9569  -21.6411  -11.7660 O   0  0  0  0  0  0  0  0  0  0  0  0
  2  1  1  6
  2  4  1  0
  3  2  1  0
  4  5  1  0
  5  6  1  1
  5  7  1  0
  7  8  2  0
  7 15  1  0
 10 12  1  0
 10  9  1  0
 11 10  2  0
 14 13  1  6
 13 12  1  0
 14 16  1  0
 15 14  1  0
 16 26  1  0
 16 17  2  0
 19 18  1  0
 20 19  2  0
 21 19  1  0
 21 22  1  0
 22 23  1  0
 23 24  1  0
 25 24  1  1
 25 27  1  0
 26 25  1  0
 27 28  1  0
 29 27  2  0
M  END
$$$$
