LQR.pdb
     RDKit          3D

 29 28  0  0  1  0  0  0  0  0999 V2000
   30.0419  -29.6310  -17.8684 C   0  0  0  0  0  0  0  0  0  0  0  0
   28.9195  -29.1038  -18.7852 C   0  0  2  0  0  0  0  0  0  0  0  0
   29.3842  -27.8102  -19.4033 C   0  0  0  0  0  0  0  0  0  0  0  0
   27.6462  -28.9406  -17.9956 C   0  0  0  0  0  0  0  0  0  0  0  0
   27.1861  -30.1634  -17.3534 C   0  0  2  0  0  0  0  0  0  0  0  0
   27.2448  -31.2637  -18.3319 N   0  0  0  0  0  0  0  0  0  0  0  0
   25.9505  -30.2357  -16.6313 C   0  0  0  0  0  0  0  0  0  0  0  0
   25.6917  -29.3513  -15.7590 O   0  0  0  0  0  0  0  0  0  0  0  0
   20.3650  -31.9120  -18.4744 N   0  0  0  0  0  0  0  0  0  0  0  0
   20.0887  -31.4604  -17.1535 C   0  0  0  0  0  0  0  0  0  0  0  0
   18.8729  -31.3429  -16.8551 O   0  0  0  0  0  0  0  0  0  0  0  0
   21.1917  -31.1484  -16.1888 C   0  0  0  0  0  0  0  0  0  0  0  0
   22.4759  -31.3783  -16.9097 C   0  0  0  0  0  0  0  0  0  0  0  0
   23.7041  -31.1896  -16.0238 C   0  0  2  0  0  0  0  0  0  0  0  0
   24.9173  -31.2259  -16.7761 N   0  0  0  0  0  0  0  0  0  0  0  0
   23.6103  -32.2565  -14.9786 C   0  0  0  0  0  0  0  0  0  0  0  0
   23.8482  -33.4712  -15.2864 O   0  0  0  0  0  0  0  0  0  0  0  0
   24.7042  -32.1398   -6.9440 N   0  0  0  0  0  0  0  0  0  0  0  0
   25.6106  -33.1986   -7.3102 C   0  0  0  0  0  0  0  0  0  0  0  0
   26.0898  -33.9504   -6.3983 N   0  0  0  0  0  0  0  0  0  0  0  0
   25.9526  -33.3856   -8.6741 N   0  0  0  0  0  0  0  0  0  0  0  0
   25.3823  -32.5291   -9.6780 C   0  0  0  0  0  0  0  0  0  0  0  0
   24.0639  -32.9844  -10.1415 C   0  0  0  0  0  0  0  0  0  0  0  0
   23.3097  -32.4167  -11.2405 C   0  0  0  0  0  0  0  0  0  0  0  0
   23.1988  -32.9877  -12.5638 C   0  0  2  0  0  0  0  0  0  0  0  0
   23.2666  -31.9887  -13.6452 N   0  0  0  0  0  0  0  0  0  0  0  0
   22.3132  -34.0826  -12.8981 C   0  0  0  0  0  0  0  0  0  0  0  0
   22.3100  -35.4098  -12.6543 O   0  0  0  0  0  0  0  0  0  0  0  0
   21.2578  -33.7055  -13.5975 O   0  0  0  0  0  0  0  0  0  0  0  0
  2  1  1  1
  2  4  1  0
  3  2  1  0
  4  5  1  0
  5  6  1  6
  5  7  1  0
  7  8  2  0
  7 15  1  0
 10 12  1  0
 10  9  1  0
 11 10  2  0
 14 13  1  6
 13 12  1  0
 14 16  1  0
 15 14  1  0
 16 26  1  0
 16 17  2  0
 19 18  1  0
 20 19  2  0
 21 19  1  0
 21 22  1  0
 22 23  1  0
 23 24  1  0
 25 24  1  1
 25 27  1  0
 26 25  1  0
 27 28  1  0
 29 27  2  0
M  END
$$$$
