LQR.pdb
     RDKit          3D

 29 28  0  0  1  0  0  0  0  0999 V2000
   31.4797  -12.5986  -18.8153 C   0  0  0  0  0  0  0  0  0  0  0  0
   30.4329  -11.4719  -18.7017 C   0  0  2  0  0  0  0  0  0  0  0  0
   31.1522  -10.1929  -18.3580 C   0  0  0  0  0  0  0  0  0  0  0  0
   29.3913  -11.8406  -17.6768 C   0  0  0  0  0  0  0  0  0  0  0  0
   28.7022  -13.0923  -17.9557 C   0  0  2  0  0  0  0  0  0  0  0  0
   28.2768  -13.0950  -19.3666 N   0  0  0  0  0  0  0  0  0  0  0  0
   27.6332  -13.5817  -17.1366 C   0  0  0  0  0  0  0  0  0  0  0  0
   27.8105  -13.6825  -15.8842 O   0  0  0  0  0  0  0  0  0  0  0  0
   24.5744  -11.8348  -18.1374 N   0  0  0  0  0  0  0  0  0  0  0  0
   23.4974  -11.9172  -17.2108 C   0  0  0  0  0  0  0  0  0  0  0  0
   22.8931  -10.8406  -16.9724 O   0  0  0  0  0  0  0  0  0  0  0  0
   23.1193  -13.2162  -16.5674 C   0  0  0  0  0  0  0  0  0  0  0  0
   23.9139  -14.2815  -17.2421 C   0  0  0  0  0  0  0  0  0  0  0  0
   25.3173  -14.4412  -16.6641 C   0  0  2  0  0  0  0  0  0  0  0  0
   26.3240  -13.9899  -17.5707 N   0  0  0  0  0  0  0  0  0  0  0  0
   25.4373  -15.8879  -16.3009 C   0  0  0  0  0  0  0  0  0  0  0  0
   25.6791  -16.7532  -17.2062 O   0  0  0  0  0  0  0  0  0  0  0  0
   26.8600  -20.4408   -9.6477 N   0  0  0  0  0  0  0  0  0  0  0  0
   25.9846  -21.2882  -10.4175 C   0  0  0  0  0  0  0  0  0  0  0  0
   25.0119  -21.8710   -9.8341 N   0  0  0  0  0  0  0  0  0  0  0  0
   26.2196  -21.4584  -11.8059 N   0  0  0  0  0  0  0  0  0  0  0  0
   26.6677  -20.3449  -12.5970 C   0  0  0  0  0  0  0  0  0  0  0  0
   25.8214  -19.1530  -12.4446 C   0  0  0  0  0  0  0  0  0  0  0  0
   25.9151  -17.9409  -13.2325 C   0  0  0  0  0  0  0  0  0  0  0  0
   25.3925  -17.7679  -14.5690 C   0  0  2  0  0  0  0  0  0  0  0  0
   25.2953  -16.3578  -14.9868 N   0  0  0  0  0  0  0  0  0  0  0  0
   24.3241  -18.5688  -15.1272 C   0  0  0  0  0  0  0  0  0  0  0  0
   24.2529  -19.7839  -15.7101 O   0  0  0  0  0  0  0  0  0  0  0  0
   23.1399  -17.9888  -15.0466 O   0  0  0  0  0  0  0  0  0  0  0  0
  2  1  1  1
  2  4  1  0
  3  2  1  0
  4  5  1  0
  5  6  1  6
  5  7  1  0
  7  8  2  0
  7 15  1  0
 10 12  1  0
 10  9  1  0
 11 10  2  0
 14 13  1  6
 13 12  1  0
 14 16  1  0
 15 14  1  0
 16 26  1  0
 16 17  2  0
 19 18  1  0
 20 19  2  0
 21 19  1  0
 21 22  1  0
 22 23  1  0
 23 24  1  0
 25 24  1  1
 25 27  1  0
 26 25  1  0
 27 28  1  0
 29 27  2  0
M  END
$$$$
