LQR.pdb
     RDKit          3D

 29 28  0  0  1  0  0  0  0  0999 V2000
   28.3447  -20.7419  -14.1316 C   0  0  0  0  0  0  0  0  0  0  0  0
   27.8502  -19.4659  -14.8425 C   0  0  2  0  0  0  0  0  0  0  0  0
   28.8719  -18.3794  -14.6258 C   0  0  0  0  0  0  0  0  0  0  0  0
   26.4865  -19.0861  -14.3254 C   0  0  0  0  0  0  0  0  0  0  0  0
   25.4824  -20.1289  -14.4799 C   0  0  2  0  0  0  0  0  0  0  0  0
   25.6171  -20.7214  -15.8224 N   0  0  0  0  0  0  0  0  0  0  0  0
   24.0953  -19.9103  -14.1945 C   0  0  0  0  0  0  0  0  0  0  0  0
   23.7505  -19.5831  -13.0180 O   0  0  0  0  0  0  0  0  0  0  0  0
   19.7814  -17.5794  -17.9050 N   0  0  0  0  0  0  0  0  0  0  0  0
   19.0452  -17.6863  -16.6918 C   0  0  0  0  0  0  0  0  0  0  0  0
   17.9300  -17.1058  -16.6719 O   0  0  0  0  0  0  0  0  0  0  0  0
   19.5808  -18.4486  -15.5186 C   0  0  0  0  0  0  0  0  0  0  0  0
   20.9583  -18.8885  -15.8799 C   0  0  0  0  0  0  0  0  0  0  0  0
   21.6582  -19.6525  -14.7594 C   0  0  2  0  0  0  0  0  0  0  0  0
   22.9930  -20.0165  -15.1125 N   0  0  0  0  0  0  0  0  0  0  0  0
   20.7733  -20.8215  -14.4600 C   0  0  0  0  0  0  0  0  0  0  0  0
   20.8665  -21.8851  -15.1577 O   0  0  0  0  0  0  0  0  0  0  0  0
   15.9498  -24.1891   -9.5505 N   0  0  0  0  0  0  0  0  0  0  0  0
   16.7275  -25.3934   -9.4036 C   0  0  0  0  0  0  0  0  0  0  0  0
   16.1269  -26.5031   -9.2191 N   0  0  0  0  0  0  0  0  0  0  0  0
   18.1429  -25.3236   -9.4667 N   0  0  0  0  0  0  0  0  0  0  0  0
   18.7855  -24.0648   -9.7295 C   0  0  0  0  0  0  0  0  0  0  0  0
   18.5625  -23.5795  -11.0988 C   0  0  0  0  0  0  0  0  0  0  0  0
   19.2086  -22.4347  -11.7077 C   0  0  0  0  0  0  0  0  0  0  0  0
   18.9657  -21.9500  -13.0476 C   0  0  2  0  0  0  0  0  0  0  0  0
   19.8227  -20.8130  -13.4284 N   0  0  0  0  0  0  0  0  0  0  0  0
   17.6510  -21.8561  -13.6453 C   0  0  0  0  0  0  0  0  0  0  0  0
   16.6792  -22.7426  -13.9469 O   0  0  0  0  0  0  0  0  0  0  0  0
   17.3111  -20.6209  -13.9679 O   0  0  0  0  0  0  0  0  0  0  0  0
  2  1  1  1
  2  4  1  0
  3  2  1  0
  4  5  1  0
  5  6  1  6
  5  7  1  0
  7  8  2  0
  7 15  1  0
 10 12  1  0
 10  9  1  0
 11 10  2  0
 14 13  1  6
 13 12  1  0
 14 16  1  0
 15 14  1  0
 16 26  1  0
 16 17  2  0
 19 18  1  0
 20 19  2  0
 21 19  1  0
 21 22  1  0
 22 23  1  0
 23 24  1  0
 25 24  1  1
 25 27  1  0
 26 25  1  0
 27 28  1  0
 29 27  2  0
M  END
$$$$
