LQR.pdb
     RDKit          3D

 29 28  0  0  1  0  0  0  0  0999 V2000
   28.0118  -18.4846  -18.7635 C   0  0  0  0  0  0  0  0  0  0  0  0
   29.0771  -18.8842  -17.7225 C   0  0  2  0  0  0  0  0  0  0  0  0
   30.2756  -19.4256  -18.4584 C   0  0  0  0  0  0  0  0  0  0  0  0
   28.4977  -19.8815  -16.7523 C   0  0  0  0  0  0  0  0  0  0  0  0
   27.3316  -19.3957  -16.0286 C   0  0  2  0  0  0  0  0  0  0  0  0
   27.6413  -18.0693  -15.4664 N   0  0  0  0  0  0  0  0  0  0  0  0
   26.6551  -20.1837  -15.0413 C   0  0  0  0  0  0  0  0  0  0  0  0
   26.2870  -21.3616  -15.3365 O   0  0  0  0  0  0  0  0  0  0  0  0
   26.2860  -19.4540   -8.8046 N   0  0  0  0  0  0  0  0  0  0  0  0
   25.5621  -20.6654   -8.9873 C   0  0  0  0  0  0  0  0  0  0  0  0
   25.2155  -21.2632   -7.9367 O   0  0  0  0  0  0  0  0  0  0  0  0
   25.2403  -21.1834  -10.3558 C   0  0  0  0  0  0  0  0  0  0  0  0
   25.8909  -20.2634  -11.3314 C   0  0  0  0  0  0  0  0  0  0  0  0
   25.6535  -20.6636  -12.7848 C   0  0  2  0  0  0  0  0  0  0  0  0
   26.3264  -19.7943  -13.6961 N   0  0  0  0  0  0  0  0  0  0  0  0
   24.1669  -20.6830  -12.9558 C   0  0  0  0  0  0  0  0  0  0  0  0
   23.5090  -19.5907  -12.9274 O   0  0  0  0  0  0  0  0  0  0  0  0
   20.1436  -27.1998  -16.9160 N   0  0  0  0  0  0  0  0  0  0  0  0
   20.9178  -27.0883  -15.7056 C   0  0  0  0  0  0  0  0  0  0  0  0
   21.2756  -28.1498  -15.0962 N   0  0  0  0  0  0  0  0  0  0  0  0
   21.2672  -25.8041  -15.2150 N   0  0  0  0  0  0  0  0  0  0  0  0
   20.9978  -24.6373  -16.0104 C   0  0  0  0  0  0  0  0  0  0  0  0
   21.4161  -23.3878  -15.3594 C   0  0  0  0  0  0  0  0  0  0  0  0
   21.5271  -23.1724  -13.9311 C   0  0  0  0  0  0  0  0  0  0  0  0
   21.9740  -21.9512  -13.3001 C   0  0  2  0  0  0  0  0  0  0  0  0
   23.4378  -21.8654  -13.1509 N   0  0  0  0  0  0  0  0  0  0  0  0
   21.2831  -21.3117  -12.2008 C   0  0  0  0  0  0  0  0  0  0  0  0
   20.1480  -20.5916  -12.0827 O   0  0  0  0  0  0  0  0  0  0  0  0
   21.8924  -21.4688  -11.0392 O   0  0  0  0  0  0  0  0  0  0  0  0
  2  1  1  6
  2  4  1  0
  3  2  1  0
  4  5  1  0
  5  6  1  1
  5  7  1  0
  7  8  2  0
  7 15  1  0
 10 12  1  0
 10  9  1  0
 11 10  2  0
 14 13  1  1
 13 12  1  0
 14 16  1  0
 15 14  1  0
 16 26  1  0
 16 17  2  0
 19 18  1  0
 20 19  2  0
 21 19  1  0
 21 22  1  0
 22 23  1  0
 23 24  1  0
 25 24  1  1
 25 27  1  0
 26 25  1  0
 27 28  1  0
 29 27  2  0
M  END
$$$$
