LQR.pdb
     RDKit          3D

 29 28  0  0  1  0  0  0  0  0999 V2000
   29.2623  -19.8628  -11.0327 C   0  0  0  0  0  0  0  0  0  0  0  0
   28.7425  -21.3141  -10.9919 C   0  0  2  0  0  0  0  0  0  0  0  0
   29.8807  -22.2330  -11.3543 C   0  0  0  0  0  0  0  0  0  0  0  0
   27.5637  -21.4633  -11.9191 C   0  0  0  0  0  0  0  0  0  0  0  0
   26.4388  -20.5991  -11.5915 C   0  0  2  0  0  0  0  0  0  0  0  0
   26.2265  -20.6296  -10.1336 N   0  0  0  0  0  0  0  0  0  0  0  0
   25.1739  -20.6963  -12.2576 C   0  0  0  0  0  0  0  0  0  0  0  0
   25.1418  -21.0578  -13.4735 O   0  0  0  0  0  0  0  0  0  0  0  0
   19.3338  -19.3692  -10.1909 N   0  0  0  0  0  0  0  0  0  0  0  0
   19.0564  -19.9416  -11.4640 C   0  0  0  0  0  0  0  0  0  0  0  0
   17.8422  -20.0122  -11.7828 O   0  0  0  0  0  0  0  0  0  0  0  0
   20.1566  -20.4256  -12.3583 C   0  0  0  0  0  0  0  0  0  0  0  0
   21.4372  -20.2058  -11.6281 C   0  0  0  0  0  0  0  0  0  0  0  0
   22.6664  -20.6159  -12.4342 C   0  0  2  0  0  0  0  0  0  0  0  0
   23.8759  -20.4269  -11.6992 N   0  0  0  0  0  0  0  0  0  0  0  0
   22.5984  -19.8191  -13.6991 C   0  0  0  0  0  0  0  0  0  0  0  0
   22.7797  -18.5570  -13.6663 O   0  0  0  0  0  0  0  0  0  0  0  0
   28.2950  -19.5331  -16.9635 N   0  0  0  0  0  0  0  0  0  0  0  0
   27.9510  -18.5275  -17.9369 C   0  0  0  0  0  0  0  0  0  0  0  0
   28.7898  -17.6038  -18.2000 N   0  0  0  0  0  0  0  0  0  0  0  0
   26.6895  -18.5829  -18.5832 N   0  0  0  0  0  0  0  0  0  0  0  0
   25.7871  -19.6650  -18.2982 C   0  0  0  0  0  0  0  0  0  0  0  0
   24.6479  -19.2594  -17.4627 C   0  0  0  0  0  0  0  0  0  0  0  0
   23.5513  -20.1129  -17.0530 C   0  0  0  0  0  0  0  0  0  0  0  0
   22.4246  -19.7006  -16.2468 C   0  0  2  0  0  0  0  0  0  0  0  0
   22.3400  -20.3972  -14.9508 N   0  0  0  0  0  0  0  0  0  0  0  0
   21.1140  -19.4037  -16.7843 C   0  0  0  0  0  0  0  0  0  0  0  0
   20.6432  -18.5644  -17.7304 O   0  0  0  0  0  0  0  0  0  0  0  0
   20.1494  -20.1186  -16.2330 O   0  0  0  0  0  0  0  0  0  0  0  0
  2  1  1  6
  2  4  1  0
  3  2  1  0
  4  5  1  0
  5  6  1  1
  5  7  1  0
  7  8  2  0
  7 15  1  0
 10 12  1  0
 10  9  1  0
 11 10  2  0
 14 13  1  1
 13 12  1  0
 14 16  1  0
 15 14  1  0
 16 26  1  0
 16 17  2  0
 19 18  1  0
 20 19  2  0
 21 19  1  0
 21 22  1  0
 22 23  1  0
 23 24  1  0
 25 24  1  6
 25 27  1  0
 26 25  1  0
 27 28  1  0
 29 27  2  0
M  END
$$$$
