LQR.pdb
     RDKit          3D

 29 28  0  0  1  0  0  0  0  0999 V2000
   25.1261   -9.2319  -17.0549 C   0  0  0  0  0  0  0  0  0  0  0  0
   25.1136  -10.0734  -15.7626 C   0  0  2  0  0  0  0  0  0  0  0  0
   24.7403   -9.1701  -14.6154 C   0  0  0  0  0  0  0  0  0  0  0  0
   26.4553  -10.7309  -15.5654 C   0  0  0  0  0  0  0  0  0  0  0  0
   26.8484  -11.6138  -16.6542 C   0  0  2  0  0  0  0  0  0  0  0  0
   26.0180  -12.8300  -16.6015 N   0  0  0  0  0  0  0  0  0  0  0  0
   28.2128  -11.9806  -16.8934 C   0  0  0  0  0  0  0  0  0  0  0  0
   28.9576  -12.2682  -15.9071 O   0  0  0  0  0  0  0  0  0  0  0  0
   30.8479  -14.5665  -21.8839 N   0  0  0  0  0  0  0  0  0  0  0  0
   31.9844  -14.4210  -21.0398 C   0  0  0  0  0  0  0  0  0  0  0  0
   33.0262  -15.0187  -21.4117 O   0  0  0  0  0  0  0  0  0  0  0  0
   31.9261  -13.6012  -19.7872 C   0  0  0  0  0  0  0  0  0  0  0  0
   30.5203  -13.1266  -19.6449 C   0  0  0  0  0  0  0  0  0  0  0  0
   30.2423  -12.4681  -18.2965 C   0  0  2  0  0  0  0  0  0  0  0  0
   28.8769  -12.0712  -18.1662 N   0  0  0  0  0  0  0  0  0  0  0  0
   31.2124  -11.3328  -18.1990 C   0  0  0  0  0  0  0  0  0  0  0  0
   30.7831  -10.1367  -18.0905 O   0  0  0  0  0  0  0  0  0  0  0  0
   34.5433   -4.9341  -15.9697 N   0  0  0  0  0  0  0  0  0  0  0  0
   35.2941   -5.7064  -15.0122 C   0  0  0  0  0  0  0  0  0  0  0  0
   36.1549   -5.1190  -14.2772 N   0  0  0  0  0  0  0  0  0  0  0  0
   35.0629   -7.1018  -14.9042 N   0  0  0  0  0  0  0  0  0  0  0  0
   34.1220   -7.7407  -15.7835 C   0  0  0  0  0  0  0  0  0  0  0  0
   33.9596   -9.1753  -15.5083 C   0  0  0  0  0  0  0  0  0  0  0  0
   33.2016  -10.1118  -16.3127 C   0  0  0  0  0  0  0  0  0  0  0  0
   33.5928  -10.6077  -17.6129 C   0  0  2  0  0  0  0  0  0  0  0  0
   32.6031  -11.5151  -18.2207 N   0  0  0  0  0  0  0  0  0  0  0  0
   34.9477  -10.9796  -17.9601 C   0  0  0  0  0  0  0  0  0  0  0  0
   36.1327  -10.3345  -17.9858 O   0  0  0  0  0  0  0  0  0  0  0  0
   35.0634  -12.2417  -18.3329 O   0  0  0  0  0  0  0  0  0  0  0  0
  2  1  1  6
  2  4  1  0
  3  2  1  0
  4  5  1  0
  5  6  1  1
  5  7  1  0
  7  8  2  0
  7 15  1  0
 10 12  1  0
 10  9  1  0
 11 10  2  0
 14 13  1  6
 13 12  1  0
 14 16  1  0
 15 14  1  0
 16 26  1  0
 16 17  2  0
 19 18  1  0
 20 19  2  0
 21 19  1  0
 21 22  1  0
 22 23  1  0
 23 24  1  0
 25 24  1  1
 25 27  1  0
 26 25  1  0
 27 28  1  0
 29 27  2  0
M  END
$$$$
