LQR.pdb
     RDKit          3D

 29 28  0  0  1  0  0  0  0  0999 V2000
   27.0969  -14.8552  -15.5422 C   0  0  0  0  0  0  0  0  0  0  0  0
   27.2468  -14.1707  -16.9159 C   0  0  2  0  0  0  0  0  0  0  0  0
   28.6165  -13.5457  -16.9842 C   0  0  0  0  0  0  0  0  0  0  0  0
   26.1431  -13.1630  -17.1103 C   0  0  0  0  0  0  0  0  0  0  0  0
   24.8091  -13.7447  -17.1470 C   0  0  2  0  0  0  0  0  0  0  0  0
   24.7877  -14.8181  -18.1564 N   0  0  0  0  0  0  0  0  0  0  0  0
   23.6251  -12.9479  -17.2763 C   0  0  0  0  0  0  0  0  0  0  0  0
   23.3969  -12.3536  -18.3740 O   0  0  0  0  0  0  0  0  0  0  0  0
   18.1946  -13.1718  -14.1997 N   0  0  0  0  0  0  0  0  0  0  0  0
   17.9457  -12.1130  -15.1174 C   0  0  0  0  0  0  0  0  0  0  0  0
   16.7626  -11.6895  -15.1613 O   0  0  0  0  0  0  0  0  0  0  0  0
   19.0388  -11.5481  -15.9722 C   0  0  0  0  0  0  0  0  0  0  0  0
   20.2565  -12.3688  -15.7170 C   0  0  0  0  0  0  0  0  0  0  0  0
   21.4757  -11.8954  -16.5035 C   0  0  2  0  0  0  0  0  0  0  0  0
   22.6145  -12.7266  -16.2770 N   0  0  0  0  0  0  0  0  0  0  0  0
   21.6807  -10.4686  -16.1016 C   0  0  0  0  0  0  0  0  0  0  0  0
   22.3654  -10.1928  -15.0614 O   0  0  0  0  0  0  0  0  0  0  0  0
   24.0232   -4.0168  -20.9426 N   0  0  0  0  0  0  0  0  0  0  0  0
   22.9037   -3.3690  -20.3070 C   0  0  0  0  0  0  0  0  0  0  0  0
   22.7292   -2.1176  -20.4795 N   0  0  0  0  0  0  0  0  0  0  0  0
   22.0183   -4.1322  -19.5036 N   0  0  0  0  0  0  0  0  0  0  0  0
   22.5386   -4.9335  -18.4294 C   0  0  0  0  0  0  0  0  0  0  0  0
   21.4960   -5.6799  -17.7109 C   0  0  0  0  0  0  0  0  0  0  0  0
   21.3357   -7.1198  -17.7061 C   0  0  0  0  0  0  0  0  0  0  0  0
   21.3950   -7.9655  -16.5354 C   0  0  2  0  0  0  0  0  0  0  0  0
   21.1485   -9.3898  -16.8232 N   0  0  0  0  0  0  0  0  0  0  0  0
   20.8824   -7.5827  -15.2372 C   0  0  0  0  0  0  0  0  0  0  0  0
   19.6677   -7.6107  -14.6497 O   0  0  0  0  0  0  0  0  0  0  0  0
   21.8107   -7.0994  -14.4310 O   0  0  0  0  0  0  0  0  0  0  0  0
  2  1  1  1
  2  4  1  0
  3  2  1  0
  4  5  1  0
  5  6  1  6
  5  7  1  0
  7  8  2  0
  7 15  1  0
 10 12  1  0
 10  9  1  0
 11 10  2  0
 14 13  1  1
 13 12  1  0
 14 16  1  0
 15 14  1  0
 16 26  1  0
 16 17  2  0
 19 18  1  0
 20 19  2  0
 21 19  1  0
 21 22  1  0
 22 23  1  0
 23 24  1  0
 25 24  1  6
 25 27  1  0
 26 25  1  0
 27 28  1  0
 29 27  2  0
M  END
$$$$
