LQR.pdb
     RDKit          3D

 29 28  0  0  1  0  0  0  0  0999 V2000
   22.5384  -20.9407  -12.8829 C   0  0  0  0  0  0  0  0  0  0  0  0
   21.2560  -20.6434  -13.6862 C   0  0  2  0  0  0  0  0  0  0  0  0
   21.3913  -19.2737  -14.3001 C   0  0  0  0  0  0  0  0  0  0  0  0
   20.0506  -20.7562  -12.7886 C   0  0  0  0  0  0  0  0  0  0  0  0
   19.8680  -22.0771  -12.2045 C   0  0  2  0  0  0  0  0  0  0  0  0
   19.7725  -23.0671  -13.2918 N   0  0  0  0  0  0  0  0  0  0  0  0
   18.8616  -22.3521  -11.2223 C   0  0  0  0  0  0  0  0  0  0  0  0
   17.7394  -21.7657  -11.3063 O   0  0  0  0  0  0  0  0  0  0  0  0
   14.5611  -25.4931  -10.9101 N   0  0  0  0  0  0  0  0  0  0  0  0
   15.8363  -26.0613  -11.1857 C   0  0  0  0  0  0  0  0  0  0  0  0
   15.8304  -27.1376  -11.8358 O   0  0  0  0  0  0  0  0  0  0  0  0
   17.1002  -25.4038  -10.7222 C   0  0  0  0  0  0  0  0  0  0  0  0
   16.7015  -24.1816   -9.9680 C   0  0  0  0  0  0  0  0  0  0  0  0
   17.8653  -23.5234   -9.2322 C   0  0  2  0  0  0  0  0  0  0  0  0
   18.9632  -23.2501  -10.1033 N   0  0  0  0  0  0  0  0  0  0  0  0
   18.2035  -24.4520   -8.1084 C   0  0  0  0  0  0  0  0  0  0  0  0
   18.8993  -25.4969   -8.3341 O   0  0  0  0  0  0  0  0  0  0  0  0
   12.7735  -22.1572   -5.8261 N   0  0  0  0  0  0  0  0  0  0  0  0
   13.2874  -21.4895   -4.6570 C   0  0  0  0  0  0  0  0  0  0  0  0
   12.9336  -20.2872   -4.4214 N   0  0  0  0  0  0  0  0  0  0  0  0
   14.1747  -22.1792   -3.7915 N   0  0  0  0  0  0  0  0  0  0  0  0
   14.4607  -23.5693   -4.0208 C   0  0  0  0  0  0  0  0  0  0  0  0
   15.7368  -23.7872   -4.7167 C   0  0  0  0  0  0  0  0  0  0  0  0
   16.3285  -25.0748   -5.0181 C   0  0  0  0  0  0  0  0  0  0  0  0
   17.5360  -25.2831   -5.7848 C   0  0  2  0  0  0  0  0  0  0  0  0
   17.7875  -24.2321   -6.7869 N   0  0  0  0  0  0  0  0  0  0  0  0
   17.9880  -26.5801   -6.2410 C   0  0  0  0  0  0  0  0  0  0  0  0
   18.2746  -27.1163   -7.4458 O   0  0  0  0  0  0  0  0  0  0  0  0
   18.1720  -27.4441   -5.2587 O   0  0  0  0  0  0  0  0  0  0  0  0
  2  1  1  1
  2  4  1  0
  3  2  1  0
  4  5  1  0
  5  6  1  6
  5  7  1  0
  7  8  2  0
  7 15  1  0
 10 12  1  0
 10  9  1  0
 11 10  2  0
 14 13  1  6
 13 12  1  0
 14 16  1  0
 15 14  1  0
 16 26  1  0
 16 17  2  0
 19 18  1  0
 20 19  2  0
 21 19  1  0
 21 22  1  0
 22 23  1  0
 23 24  1  0
 25 24  1  6
 25 27  1  0
 26 25  1  0
 27 28  1  0
 29 27  2  0
M  END
$$$$
