LQR.pdb
     RDKit          3D

 29 28  0  0  1  0  0  0  0  0999 V2000
   24.9882  -13.2731  -15.4062 C   0  0  0  0  0  0  0  0  0  0  0  0
   24.0314  -13.7658  -16.5107 C   0  0  2  0  0  0  0  0  0  0  0  0
   22.6748  -13.1568  -16.2654 C   0  0  0  0  0  0  0  0  0  0  0  0
   23.9933  -15.2724  -16.5220 C   0  0  0  0  0  0  0  0  0  0  0  0
   25.3056  -15.8980  -16.5990 C   0  0  2  0  0  0  0  0  0  0  0  0
   25.8415  -15.7094  -17.9587 N   0  0  0  0  0  0  0  0  0  0  0  0
   25.5409  -17.2476  -16.1789 C   0  0  0  0  0  0  0  0  0  0  0  0
   24.7423  -18.1597  -16.5537 O   0  0  0  0  0  0  0  0  0  0  0  0
   28.7835  -21.0044  -16.7658 N   0  0  0  0  0  0  0  0  0  0  0  0
   28.6717  -21.6479  -15.5015 C   0  0  0  0  0  0  0  0  0  0  0  0
   28.8189  -22.8967  -15.5046 O   0  0  0  0  0  0  0  0  0  0  0  0
   28.3952  -20.8696  -14.2516 C   0  0  0  0  0  0  0  0  0  0  0  0
   28.2139  -19.4471  -14.6580 C   0  0  0  0  0  0  0  0  0  0  0  0
   26.7678  -19.0998  -15.0003 C   0  0  2  0  0  0  0  0  0  0  0  0
   26.6164  -17.7239  -15.3510 N   0  0  0  0  0  0  0  0  0  0  0  0
   25.9652  -19.5096  -13.8055 C   0  0  0  0  0  0  0  0  0  0  0  0
   26.1037  -18.8856  -12.7018 O   0  0  0  0  0  0  0  0  0  0  0  0
   18.4798  -23.9825  -12.0605 N   0  0  0  0  0  0  0  0  0  0  0  0
   18.4262  -22.7471  -11.3203 C   0  0  0  0  0  0  0  0  0  0  0  0
   17.4887  -22.5692  -10.4742 N   0  0  0  0  0  0  0  0  0  0  0  0
   19.4139  -21.7541  -11.5448 N   0  0  0  0  0  0  0  0  0  0  0  0
   20.3801  -21.9314  -12.5945 C   0  0  0  0  0  0  0  0  0  0  0  0
   21.7357  -21.5185  -12.2046 C   0  0  0  0  0  0  0  0  0  0  0  0
   22.8776  -21.4155  -13.0902 C   0  0  0  0  0  0  0  0  0  0  0  0
   24.2055  -20.9985  -12.7001 C   0  0  2  0  0  0  0  0  0  0  0  0
   25.0454  -20.5684  -13.8322 N   0  0  0  0  0  0  0  0  0  0  0  0
   24.9851  -21.6498  -11.6692 C   0  0  0  0  0  0  0  0  0  0  0  0
   25.0159  -21.5900  -10.3214 O   0  0  0  0  0  0  0  0  0  0  0  0
   25.8689  -22.5078  -12.1466 O   0  0  0  0  0  0  0  0  0  0  0  0
  2  1  1  1
  2  4  1  0
  3  2  1  0
  4  5  1  0
  5  6  1  6
  5  7  1  0
  7  8  2  0
  7 15  1  0
 10 12  1  0
 10  9  1  0
 11 10  2  0
 14 13  1  1
 13 12  1  0
 14 16  1  0
 15 14  1  0
 16 26  1  0
 16 17  2  0
 19 18  1  0
 20 19  2  0
 21 19  1  0
 21 22  1  0
 22 23  1  0
 23 24  1  0
 25 24  1  6
 25 27  1  0
 26 25  1  0
 27 28  1  0
 29 27  2  0
M  END
$$$$
