LQR.pdb
     RDKit          3D

 29 28  0  0  1  0  0  0  0  0999 V2000
   27.3426  -17.9357  -18.2979 C   0  0  0  0  0  0  0  0  0  0  0  0
   28.4148  -18.8329  -17.6469 C   0  0  2  0  0  0  0  0  0  0  0  0
   29.2615  -19.4268  -18.7431 C   0  0  0  0  0  0  0  0  0  0  0  0
   27.7542  -19.8856  -16.7943 C   0  0  0  0  0  0  0  0  0  0  0  0
   26.7380  -19.3650  -15.8911 C   0  0  2  0  0  0  0  0  0  0  0  0
   27.3751  -18.4248  -14.9521 N   0  0  0  0  0  0  0  0  0  0  0  0
   25.8377  -20.2171  -15.1722 C   0  0  0  0  0  0  0  0  0  0  0  0
   25.1604  -21.0795  -15.8106 O   0  0  0  0  0  0  0  0  0  0  0  0
   25.0350  -20.8326   -8.9501 N   0  0  0  0  0  0  0  0  0  0  0  0
   26.2631  -20.8950   -9.6666 C   0  0  0  0  0  0  0  0  0  0  0  0
   27.3091  -20.8137   -8.9736 O   0  0  0  0  0  0  0  0  0  0  0  0
   26.2902  -21.0488  -11.1565 C   0  0  0  0  0  0  0  0  0  0  0  0
   24.8734  -21.1557  -11.6071 C   0  0  0  0  0  0  0  0  0  0  0  0
   24.7253  -21.1659  -13.1260 C   0  0  2  0  0  0  0  0  0  0  0  0
   25.5933  -20.2225  -13.7547 N   0  0  0  0  0  0  0  0  0  0  0  0
   23.2730  -20.9167  -13.3871 C   0  0  0  0  0  0  0  0  0  0  0  0
   22.8302  -19.7214  -13.4290 O   0  0  0  0  0  0  0  0  0  0  0  0
   15.3941  -24.1480  -13.9877 N   0  0  0  0  0  0  0  0  0  0  0  0
   15.5193  -23.6433  -15.3318 C   0  0  0  0  0  0  0  0  0  0  0  0
   14.5208  -23.7218  -16.1211 N   0  0  0  0  0  0  0  0  0  0  0  0
   16.7469  -23.0699  -15.7517 N   0  0  0  0  0  0  0  0  0  0  0  0
   17.9272  -23.2404  -14.9490 C   0  0  0  0  0  0  0  0  0  0  0  0
   19.1224  -22.6272  -15.5454 C   0  0  0  0  0  0  0  0  0  0  0  0
   20.4544  -22.6387  -14.9758 C   0  0  0  0  0  0  0  0  0  0  0  0
   20.9223  -21.7679  -13.9213 C   0  0  2  0  0  0  0  0  0  0  0  0
   22.3477  -21.9506  -13.5939 N   0  0  0  0  0  0  0  0  0  0  0  0
   20.1416  -21.4263  -12.7515 C   0  0  0  0  0  0  0  0  0  0  0  0
   19.0709  -20.6378  -12.5213 O   0  0  0  0  0  0  0  0  0  0  0  0
   20.5613  -22.0242  -11.6507 O   0  0  0  0  0  0  0  0  0  0  0  0
  2  1  1  6
  2  4  1  0
  3  2  1  0
  4  5  1  0
  5  6  1  1
  5  7  1  0
  7  8  2  0
  7 15  1  0
 10 12  1  0
 10  9  1  0
 11 10  2  0
 14 13  1  1
 13 12  1  0
 14 16  1  0
 15 14  1  0
 16 26  1  0
 16 17  2  0
 19 18  1  0
 20 19  2  0
 21 19  1  0
 21 22  1  0
 22 23  1  0
 23 24  1  0
 25 24  1  1
 25 27  1  0
 26 25  1  0
 27 28  1  0
 29 27  2  0
M  END
$$$$
