LQR.pdb
     RDKit          3D

 29 28  0  0  1  0  0  0  0  0999 V2000
   28.1422  -14.7155  -15.5492 C   0  0  0  0  0  0  0  0  0  0  0  0
   27.2531  -15.0511  -16.7637 C   0  0  2  0  0  0  0  0  0  0  0  0
   26.4384  -13.8296  -17.1034 C   0  0  0  0  0  0  0  0  0  0  0  0
   26.3933  -16.2497  -16.4546 C   0  0  0  0  0  0  0  0  0  0  0  0
   27.1450  -17.4332  -16.0627 C   0  0  2  0  0  0  0  0  0  0  0  0
   27.9298  -17.9007  -17.2190 N   0  0  0  0  0  0  0  0  0  0  0  0
   26.5311  -18.5572  -15.4199 C   0  0  0  0  0  0  0  0  0  0  0  0
   26.0475  -19.4887  -16.1330 O   0  0  0  0  0  0  0  0  0  0  0  0
   25.9482  -20.0675   -9.2980 N   0  0  0  0  0  0  0  0  0  0  0  0
   24.9624  -20.9064   -9.8892 C   0  0  0  0  0  0  0  0  0  0  0  0
   24.3609  -21.6849   -9.1062 O   0  0  0  0  0  0  0  0  0  0  0  0
   24.6708  -20.8525  -11.3578 C   0  0  0  0  0  0  0  0  0  0  0  0
   25.6049  -19.8526  -11.9487 C   0  0  0  0  0  0  0  0  0  0  0  0
   25.4590  -19.7150  -13.4615 C   0  0  2  0  0  0  0  0  0  0  0  0
   26.3878  -18.7767  -14.0056 N   0  0  0  0  0  0  0  0  0  0  0  0
   24.0265  -19.3491  -13.6929 C   0  0  0  0  0  0  0  0  0  0  0  0
   23.5820  -18.2270  -13.2804 O   0  0  0  0  0  0  0  0  0  0  0  0
   18.9984  -17.9961  -19.2921 N   0  0  0  0  0  0  0  0  0  0  0  0
   18.0404  -17.5300  -18.3216 C   0  0  0  0  0  0  0  0  0  0  0  0
   16.8506  -17.2679  -18.6984 N   0  0  0  0  0  0  0  0  0  0  0  0
   18.4363  -17.3716  -16.9688 N   0  0  0  0  0  0  0  0  0  0  0  0
   19.8004  -17.6204  -16.5893 C   0  0  0  0  0  0  0  0  0  0  0  0
   20.0871  -19.0457  -16.3736 C   0  0  0  0  0  0  0  0  0  0  0  0
   21.3500  -19.5980  -15.9277 C   0  0  0  0  0  0  0  0  0  0  0  0
   21.6890  -19.9156  -14.5590 C   0  0  2  0  0  0  0  0  0  0  0  0
   23.1221  -20.1925  -14.3549 N   0  0  0  0  0  0  0  0  0  0  0  0
   20.8570  -20.7173  -13.6873 C   0  0  0  0  0  0  0  0  0  0  0  0
   19.6451  -20.5537  -13.1165 O   0  0  0  0  0  0  0  0  0  0  0  0
   21.3961  -21.8831  -13.3781 O   0  0  0  0  0  0  0  0  0  0  0  0
  2  1  1  1
  2  4  1  0
  3  2  1  0
  4  5  1  0
  5  6  1  6
  5  7  1  0
  7  8  2  0
  7 15  1  0
 10 12  1  0
 10  9  1  0
 11 10  2  0
 14 13  1  1
 13 12  1  0
 14 16  1  0
 15 14  1  0
 16 26  1  0
 16 17  2  0
 19 18  1  0
 20 19  2  0
 21 19  1  0
 21 22  1  0
 22 23  1  0
 23 24  1  0
 25 24  1  6
 25 27  1  0
 26 25  1  0
 27 28  1  0
 29 27  2  0
M  END
$$$$
