LQR.pdb
     RDKit          3D

 29 28  0  0  1  0  0  0  0  0999 V2000
   28.1119  -18.6783   -4.8915 C   0  0  0  0  0  0  0  0  0  0  0  0
   27.9539  -20.1977   -5.1034 C   0  0  2  0  0  0  0  0  0  0  0  0
   28.8439  -20.9066   -4.1152 C   0  0  0  0  0  0  0  0  0  0  0  0
   28.2800  -20.5533   -6.5312 C   0  0  0  0  0  0  0  0  0  0  0  0
   27.3514  -20.0004   -7.5067 C   0  0  2  0  0  0  0  0  0  0  0  0
   26.0417  -19.8094   -6.8590 N   0  0  0  0  0  0  0  0  0  0  0  0
   27.1600  -20.5813   -8.8025 C   0  0  0  0  0  0  0  0  0  0  0  0
   28.1474  -21.1189   -9.3908 O   0  0  0  0  0  0  0  0  0  0  0  0
   25.2150  -24.7269  -12.1970 N   0  0  0  0  0  0  0  0  0  0  0  0
   24.4269  -23.7625  -12.8854 C   0  0  0  0  0  0  0  0  0  0  0  0
   23.8977  -24.1490  -13.9586 O   0  0  0  0  0  0  0  0  0  0  0  0
   24.2484  -22.3747  -12.3501 C   0  0  0  0  0  0  0  0  0  0  0  0
   24.9513  -22.3231  -11.0367 C   0  0  0  0  0  0  0  0  0  0  0  0
   25.8796  -21.1196  -10.8991 C   0  0  2  0  0  0  0  0  0  0  0  0
   25.9361  -20.6381   -9.5560 N   0  0  0  0  0  0  0  0  0  0  0  0
   25.3729  -20.1102  -11.8810 C   0  0  0  0  0  0  0  0  0  0  0  0
   24.2957  -19.4719  -11.6385 O   0  0  0  0  0  0  0  0  0  0  0  0
   27.7577  -13.9649  -16.4727 N   0  0  0  0  0  0  0  0  0  0  0  0
   28.4680  -14.9566  -17.2401 C   0  0  0  0  0  0  0  0  0  0  0  0
   29.5801  -14.6454  -17.7811 N   0  0  0  0  0  0  0  0  0  0  0  0
   27.9194  -16.2572  -17.3798 N   0  0  0  0  0  0  0  0  0  0  0  0
   26.6490  -16.5653  -16.7816 C   0  0  0  0  0  0  0  0  0  0  0  0
   26.7452  -16.8569  -15.3443 C   0  0  0  0  0  0  0  0  0  0  0  0
   26.7451  -18.1760  -14.7454 C   0  0  0  0  0  0  0  0  0  0  0  0
   25.6320  -18.7797  -14.0485 C   0  0  2  0  0  0  0  0  0  0  0  0
   26.0333  -19.8193  -13.0839 N   0  0  0  0  0  0  0  0  0  0  0  0
   24.3611  -19.0850  -14.6701 C   0  0  0  0  0  0  0  0  0  0  0  0
   23.2604  -18.3694  -14.9826 O   0  0  0  0  0  0  0  0  0  0  0  0
   24.2435  -20.3526  -15.0230 O   0  0  0  0  0  0  0  0  0  0  0  0
  2  1  1  6
  2  4  1  0
  3  2  1  0
  4  5  1  0
  5  6  1  1
  5  7  1  0
  7  8  2  0
  7 15  1  0
 10 12  1  0
 10  9  1  0
 11 10  2  0
 14 13  1  1
 13 12  1  0
 14 16  1  0
 15 14  1  0
 16 26  1  0
 16 17  2  0
 19 18  1  0
 20 19  2  0
 21 19  1  0
 21 22  1  0
 22 23  1  0
 23 24  1  0
 25 24  1  6
 25 27  1  0
 26 25  1  0
 27 28  1  0
 29 27  2  0
M  END
$$$$
