MAK.pdb
     RDKit          3D

 23 22  0  0  1  0  0  0  0  0999 V2000
   27.7133  -34.9019  -11.7654 C   0  0  0  0  0  0  0  0  0  0  0  0
   26.4990  -33.5946  -11.9488 S   0  0  0  0  0  0  0  0  0  0  0  0
   25.4302  -33.5943  -10.4586 C   0  0  0  0  0  0  0  0  0  0  0  0
   26.2383  -33.0705   -9.3206 C   0  0  0  0  0  0  0  0  0  0  0  0
   25.5091  -33.0725   -7.9877 C   0  0  2  0  0  0  0  0  0  0  0  0
   24.6465  -31.8640   -7.9445 N   0  0  0  0  0  0  0  0  0  0  0  0
   26.3999  -32.9734   -6.8231 C   0  0  0  0  0  0  0  0  0  0  0  0
   27.5800  -32.5983   -6.9724 O   0  0  0  0  0  0  0  0  0  0  0  0
   25.8755  -33.1393   -3.1292 C   0  0  0  0  0  0  0  0  0  0  0  0
   26.8309  -33.1229   -4.3501 C   0  0  2  0  0  0  0  0  0  0  0  0
   25.9796  -33.2876   -5.4858 N   0  0  0  0  0  0  0  0  0  0  0  0
   27.7696  -34.2224   -4.1191 C   0  0  0  0  0  0  0  0  0  0  0  0
   27.5024  -35.4202   -4.4812 O   0  0  0  0  0  0  0  0  0  0  0  0
   29.0019  -34.0224   -3.4950 N   0  0  0  0  0  0  0  0  0  0  0  0
   29.9842  -35.0694   -3.2583 C   0  0  1  0  0  0  0  0  0  0  0  0
   31.3593  -34.5427   -3.1012 C   0  0  0  0  0  0  0  0  0  0  0  0
   32.4402  -35.5051   -2.8173 C   0  0  0  0  0  0  0  0  0  0  0  0
   33.8160  -35.0256   -2.6375 C   0  0  0  0  0  0  0  0  0  0  0  0
   34.8895  -36.0330   -2.4465 C   0  0  0  0  0  0  0  0  0  0  0  0
   36.1688  -35.3006   -2.4320 N   0  0  0  0  0  0  0  0  0  0  0  0
   29.4775  -35.9572   -2.2073 C   0  0  0  0  0  0  0  0  0  0  0  0
   28.8020  -35.5304   -1.0718 O   0  0  0  0  0  0  0  0  0  0  0  0
   29.6614  -37.2174   -2.3218 O   0  0  0  0  0  0  0  0  0  0  0  0
  2  1  1  0
  2  3  1  0
  4  5  1  0
  4  3  1  0
  5  7  1  0
  5  6  1  6
  7  8  2  0
 10  9  1  1
 10 12  1  0
 11 10  1  0
 11  7  1  0
 12 14  1  0
 12 13  2  0
 14 15  1  0
 15 21  1  0
 15 16  1  1
 17 16  1  0
 18 17  1  0
 19 18  1  0
 20 19  1  0
 21 23  2  0
 21 22  1  0
M  END
$$$$
