MAK.pdb
     RDKit          3D

 23 22  0  0  1  0  0  0  0  0999 V2000
   27.2710  -18.4049  -14.5489 C   0  0  0  0  0  0  0  0  0  0  0  0
   28.2522  -19.2664  -13.3192 S   0  0  0  0  0  0  0  0  0  0  0  0
   27.2717  -20.6862  -12.6980 C   0  0  0  0  0  0  0  0  0  0  0  0
   25.8884  -20.5532  -13.2376 C   0  0  0  0  0  0  0  0  0  0  0  0
   24.9144  -21.5952  -12.7142 C   0  0  2  0  0  0  0  0  0  0  0  0
   25.3185  -22.9106  -13.2737 N   0  0  0  0  0  0  0  0  0  0  0  0
   23.5266  -21.3820  -13.1481 C   0  0  0  0  0  0  0  0  0  0  0  0
   23.1959  -21.6372  -14.3234 O   0  0  0  0  0  0  0  0  0  0  0  0
   20.3888  -20.2142  -11.4500 C   0  0  0  0  0  0  0  0  0  0  0  0
   21.1871  -20.5580  -12.7339 C   0  0  2  0  0  0  0  0  0  0  0  0
   22.4992  -20.8876  -12.2741 N   0  0  0  0  0  0  0  0  0  0  0  0
   21.1101  -19.3574  -13.5681 C   0  0  0  0  0  0  0  0  0  0  0  0
   21.8194  -18.3216  -13.3207 O   0  0  0  0  0  0  0  0  0  0  0  0
   20.2625  -19.2801  -14.6743 N   0  0  0  0  0  0  0  0  0  0  0  0
   20.1116  -18.1021  -15.5150 C   0  0  1  0  0  0  0  0  0  0  0  0
   20.5956  -18.3169  -16.8979 C   0  0  0  0  0  0  0  0  0  0  0  0
   20.4714  -17.2017  -17.8551 C   0  0  0  0  0  0  0  0  0  0  0  0
   20.8499  -17.3996  -19.2597 C   0  0  0  0  0  0  0  0  0  0  0  0
   20.7839  -16.2320  -20.1740 C   0  0  0  0  0  0  0  0  0  0  0  0
   21.2537  -16.6920  -21.4934 N   0  0  0  0  0  0  0  0  0  0  0  0
   18.7514  -17.5804  -15.3495 C   0  0  0  0  0  0  0  0  0  0  0  0
   18.4043  -16.2391  -15.4403 O   0  0  0  0  0  0  0  0  0  0  0  0
   17.8019  -18.3999  -15.1005 O   0  0  0  0  0  0  0  0  0  0  0  0
  2  1  1  0
  2  3  1  0
  4  5  1  0
  4  3  1  0
  5  7  1  0
  5  6  1  6
  7  8  2  0
 10  9  1  1
 10 12  1  0
 11 10  1  0
 11  7  1  0
 12 14  1  0
 12 13  2  0
 14 15  1  0
 15 21  1  0
 15 16  1  6
 17 16  1  0
 18 17  1  0
 19 18  1  0
 20 19  1  0
 21 23  2  0
 21 22  1  0
M  END
$$$$
