MAK.pdb
     RDKit          3D

 23 22  0  0  1  0  0  0  0  0999 V2000
   28.0681  -21.7288   -9.5894 C   0  0  0  0  0  0  0  0  0  0  0  0
   29.5500  -21.2938  -10.5015 S   0  0  0  0  0  0  0  0  0  0  0  0
   29.1008  -21.1166  -12.2707 C   0  0  0  0  0  0  0  0  0  0  0  0
   27.9780  -20.1397  -12.3582 C   0  0  0  0  0  0  0  0  0  0  0  0
   27.3845  -19.9983  -13.7496 C   0  0  2  0  0  0  0  0  0  0  0  0
   28.5069  -19.7801  -14.6979 N   0  0  0  0  0  0  0  0  0  0  0  0
   26.4972  -18.8367  -13.9016 C   0  0  0  0  0  0  0  0  0  0  0  0
   25.4096  -18.8002  -13.2919 O   0  0  0  0  0  0  0  0  0  0  0  0
   26.7162  -15.5759  -15.7452 C   0  0  0  0  0  0  0  0  0  0  0  0
   25.8957  -16.6461  -14.9804 C   0  0  2  0  0  0  0  0  0  0  0  0
   26.8186  -17.7078  -14.7300 N   0  0  0  0  0  0  0  0  0  0  0  0
   24.7870  -16.9910  -15.8721 C   0  0  0  0  0  0  0  0  0  0  0  0
   24.9113  -17.8788  -16.7851 O   0  0  0  0  0  0  0  0  0  0  0  0
   23.5397  -16.3725  -15.7727 N   0  0  0  0  0  0  0  0  0  0  0  0
   22.3779  -16.7294  -16.5727 C   0  0  1  0  0  0  0  0  0  0  0  0
   21.2311  -17.1804  -15.7516 C   0  0  0  0  0  0  0  0  0  0  0  0
   20.0029  -17.6016  -16.4512 C   0  0  0  0  0  0  0  0  0  0  0  0
   18.8258  -18.0128  -15.6762 C   0  0  0  0  0  0  0  0  0  0  0  0
   17.6150  -18.4455  -16.4181 C   0  0  0  0  0  0  0  0  0  0  0  0
   16.5836  -18.7588  -15.4125 N   0  0  0  0  0  0  0  0  0  0  0  0
   22.1326  -15.6593  -17.5446 C   0  0  0  0  0  0  0  0  0  0  0  0
   21.7670  -15.8642  -18.8682 O   0  0  0  0  0  0  0  0  0  0  0  0
   22.2612  -14.4435  -17.1698 O   0  0  0  0  0  0  0  0  0  0  0  0
  2  1  1  0
  2  3  1  0
  4  5  1  0
  4  3  1  0
  5  7  1  0
  5  6  1  6
  7  8  2  0
 10  9  1  6
 10 12  1  0
 11 10  1  0
 11  7  1  0
 12 14  1  0
 12 13  2  0
 14 15  1  0
 15 21  1  0
 15 16  1  1
 17 16  1  0
 18 17  1  0
 19 18  1  0
 20 19  1  0
 21 23  2  0
 21 22  1  0
M  END
$$$$
