MAK.pdb
     RDKit          3D

 23 22  0  0  1  0  0  0  0  0999 V2000
   18.8735  -17.4497  -11.9049 C   0  0  0  0  0  0  0  0  0  0  0  0
   18.8765  -15.9091  -12.8233 S   0  0  0  0  0  0  0  0  0  0  0  0
   19.5243  -16.2476  -14.5052 C   0  0  0  0  0  0  0  0  0  0  0  0
   19.5579  -14.9550  -15.2472 C   0  0  0  0  0  0  0  0  0  0  0  0
   18.1876  -14.3543  -15.5113 C   0  0  2  0  0  0  0  0  0  0  0  0
   17.5294  -15.1772  -16.5583 N   0  0  0  0  0  0  0  0  0  0  0  0
   18.2318  -12.9852  -16.0437 C   0  0  0  0  0  0  0  0  0  0  0  0
   18.8864  -12.7400  -17.0768 O   0  0  0  0  0  0  0  0  0  0  0  0
   16.4948   -9.7773  -15.2036 C   0  0  0  0  0  0  0  0  0  0  0  0
   17.6295  -10.5464  -15.9279 C   0  0  2  0  0  0  0  0  0  0  0  0
   17.5437  -11.8832  -15.4306 N   0  0  0  0  0  0  0  0  0  0  0  0
   18.8608   -9.8363  -15.5770 C   0  0  0  0  0  0  0  0  0  0  0  0
   19.5004  -10.0943  -14.4992 O   0  0  0  0  0  0  0  0  0  0  0  0
   19.4006   -8.8446  -16.3974 N   0  0  0  0  0  0  0  0  0  0  0  0
   20.6784   -8.1887  -16.1641 C   0  0  1  0  0  0  0  0  0  0  0  0
   21.2521   -7.5939  -17.3928 C   0  0  0  0  0  0  0  0  0  0  0  0
   22.5102   -6.8339  -17.2709 C   0  0  0  0  0  0  0  0  0  0  0  0
   23.1095   -6.2183  -18.4613 C   0  0  0  0  0  0  0  0  0  0  0  0
   24.3706   -5.4531  -18.2944 C   0  0  0  0  0  0  0  0  0  0  0  0
   24.6911   -4.8611  -19.6059 N   0  0  0  0  0  0  0  0  0  0  0  0
   20.5505   -7.3199  -14.9900 C   0  0  0  0  0  0  0  0  0  0  0  0
   21.4879   -7.2292  -13.9697 O   0  0  0  0  0  0  0  0  0  0  0  0
   19.5092   -6.5868  -14.8748 O   0  0  0  0  0  0  0  0  0  0  0  0
  2  1  1  0
  2  3  1  0
  4  5  1  0
  4  3  1  0
  5  7  1  0
  5  6  1  6
  7  8  2  0
 10  9  1  1
 10 12  1  0
 11 10  1  0
 11  7  1  0
 12 14  1  0
 12 13  2  0
 14 15  1  0
 15 21  1  0
 15 16  1  6
 17 16  1  0
 18 17  1  0
 19 18  1  0
 20 19  1  0
 21 23  2  0
 21 22  1  0
M  END
$$$$
