MAK.pdb
     RDKit          3D

 23 22  0  0  1  0  0  0  0  0999 V2000
   30.1664  -16.8174  -16.8178 C   0  0  0  0  0  0  0  0  0  0  0  0
   29.0453  -17.8789  -15.9050 S   0  0  0  0  0  0  0  0  0  0  0  0
   28.2073  -18.9882  -17.1010 C   0  0  0  0  0  0  0  0  0  0  0  0
   27.2274  -19.8166  -16.3420 C   0  0  0  0  0  0  0  0  0  0  0  0
   27.8355  -20.5991  -15.1904 C   0  0  2  0  0  0  0  0  0  0  0  0
   28.6203  -21.7185  -15.7714 N   0  0  0  0  0  0  0  0  0  0  0  0
   26.8414  -21.2211  -14.3046 C   0  0  0  0  0  0  0  0  0  0  0  0
   26.0802  -22.1047  -14.7469 O   0  0  0  0  0  0  0  0  0  0  0  0
   25.8149  -20.6477  -10.7372 C   0  0  0  0  0  0  0  0  0  0  0  0
   25.5789  -21.2849  -12.1307 C   0  0  2  0  0  0  0  0  0  0  0  0
   26.6932  -20.8653  -12.9207 N   0  0  0  0  0  0  0  0  0  0  0  0
   24.2814  -20.7716  -12.5739 C   0  0  0  0  0  0  0  0  0  0  0  0
   24.1362  -19.5622  -12.9654 O   0  0  0  0  0  0  0  0  0  0  0  0
   23.1383  -21.5724  -12.5937 N   0  0  0  0  0  0  0  0  0  0  0  0
   21.8399  -21.1413  -13.0891 C   0  0  1  0  0  0  0  0  0  0  0  0
   21.1708  -22.1695  -13.9186 C   0  0  0  0  0  0  0  0  0  0  0  0
   19.8576  -21.8392  -14.5032 C   0  0  0  0  0  0  0  0  0  0  0  0
   19.1321  -22.8480  -15.2850 C   0  0  0  0  0  0  0  0  0  0  0  0
   17.7999  -22.4860  -15.8309 C   0  0  0  0  0  0  0  0  0  0  0  0
   17.2451  -23.7020  -16.4526 N   0  0  0  0  0  0  0  0  0  0  0  0
   21.0778  -20.5746  -11.9721 C   0  0  0  0  0  0  0  0  0  0  0  0
   20.1474  -19.5508  -12.0906 O   0  0  0  0  0  0  0  0  0  0  0  0
   21.2689  -21.0385  -10.7959 O   0  0  0  0  0  0  0  0  0  0  0  0
  2  1  1  0
  2  3  1  0
  4  5  1  0
  4  3  1  0
  5  7  1  0
  5  6  1  6
  7  8  2  0
 10  9  1  1
 10 12  1  0
 11 10  1  0
 11  7  1  0
 12 14  1  0
 12 13  2  0
 14 15  1  0
 15 21  1  0
 15 16  1  1
 17 16  1  0
 18 17  1  0
 19 18  1  0
 20 19  1  0
 21 23  2  0
 21 22  1  0
M  END
$$$$
