MAK.pdb
     RDKit          3D

 23 22  0  0  1  0  0  0  0  0999 V2000
   22.8165  -21.5088  -17.3368 C   0  0  0  0  0  0  0  0  0  0  0  0
   23.3069  -22.7666  -16.1560 S   0  0  0  0  0  0  0  0  0  0  0  0
   24.9686  -22.3311  -15.5141 C   0  0  0  0  0  0  0  0  0  0  0  0
   25.2139  -20.8943  -15.8274 C   0  0  0  0  0  0  0  0  0  0  0  0
   26.5742  -20.3847  -15.3822 C   0  0  2  0  0  0  0  0  0  0  0  0
   26.6269  -20.4772  -13.9006 N   0  0  0  0  0  0  0  0  0  0  0  0
   26.8143  -18.9716  -15.7064 C   0  0  0  0  0  0  0  0  0  0  0  0
   26.3300  -18.0766  -14.9852 O   0  0  0  0  0  0  0  0  0  0  0  0
   28.7512  -17.1715  -18.3703 C   0  0  0  0  0  0  0  0  0  0  0  0
   27.6874  -17.1821  -17.2425 C   0  0  2  0  0  0  0  0  0  0  0  0
   27.5987  -18.5482  -16.8331 N   0  0  0  0  0  0  0  0  0  0  0  0
   26.4720  -16.6422  -17.8546 C   0  0  0  0  0  0  0  0  0  0  0  0
   25.4548  -17.3813  -18.0919 O   0  0  0  0  0  0  0  0  0  0  0  0
   26.3588  -15.2970  -18.2093 N   0  0  0  0  0  0  0  0  0  0  0  0
   25.1455  -14.6810  -18.7247 C   0  0  1  0  0  0  0  0  0  0  0  0
   23.9990  -14.8037  -17.7956 C   0  0  0  0  0  0  0  0  0  0  0  0
   22.7203  -14.1833  -18.1894 C   0  0  0  0  0  0  0  0  0  0  0  0
   21.5515  -14.2973  -17.3083 C   0  0  0  0  0  0  0  0  0  0  0  0
   20.2817  -13.6636  -17.7437 C   0  0  0  0  0  0  0  0  0  0  0  0
   19.3326  -13.7879  -16.6225 N   0  0  0  0  0  0  0  0  0  0  0  0
   25.4747  -13.3397  -19.2169 C   0  0  0  0  0  0  0  0  0  0  0  0
   24.7157  -12.6283  -20.1364 O   0  0  0  0  0  0  0  0  0  0  0  0
   26.5325  -12.7658  -18.7846 O   0  0  0  0  0  0  0  0  0  0  0  0
  2  1  1  0
  2  3  1  0
  4  5  1  0
  4  3  1  0
  5  7  1  0
  5  6  1  1
  7  8  2  0
 10  9  1  6
 10 12  1  0
 11 10  1  0
 11  7  1  0
 12 14  1  0
 12 13  2  0
 14 15  1  0
 15 21  1  0
 15 16  1  1
 17 16  1  0
 18 17  1  0
 19 18  1  0
 20 19  1  0
 21 23  2  0
 21 22  1  0
M  END
$$$$
