MAK.pdb
     RDKit          3D

 23 22  0  0  1  0  0  0  0  0999 V2000
   22.9062  -29.2725  -10.0500 C   0  0  0  0  0  0  0  0  0  0  0  0
   21.7757  -30.2182  -11.0722 S   0  0  0  0  0  0  0  0  0  0  0  0
   20.6820  -29.0403  -11.9551 C   0  0  0  0  0  0  0  0  0  0  0  0
   20.6613  -27.7691  -11.1764 C   0  0  0  0  0  0  0  0  0  0  0  0
   19.2720  -27.3201  -10.7566 C   0  0  2  0  0  0  0  0  0  0  0  0
   18.8040  -26.3177  -11.7479 N   0  0  0  0  0  0  0  0  0  0  0  0
   19.2350  -26.6443   -9.4521 C   0  0  0  0  0  0  0  0  0  0  0  0
   19.6556  -27.2311   -8.4350 O   0  0  0  0  0  0  0  0  0  0  0  0
   17.9015  -23.3452   -8.2576 C   0  0  0  0  0  0  0  0  0  0  0  0
   18.6285  -24.6886   -7.9922 C   0  0  2  0  0  0  0  0  0  0  0  0
   18.7335  -25.3098   -9.2747 N   0  0  0  0  0  0  0  0  0  0  0  0
   17.7843  -25.3997   -7.0304 C   0  0  0  0  0  0  0  0  0  0  0  0
   16.7987  -26.1228   -7.4086 O   0  0  0  0  0  0  0  0  0  0  0  0
   18.0101  -25.3275   -5.6550 N   0  0  0  0  0  0  0  0  0  0  0  0
   17.2674  -26.0838   -4.6581 C   0  0  1  0  0  0  0  0  0  0  0  0
   18.0869  -26.4371   -3.4765 C   0  0  0  0  0  0  0  0  0  0  0  0
   17.4447  -27.2067   -2.3946 C   0  0  0  0  0  0  0  0  0  0  0  0
   18.2455  -27.6738   -1.2562 C   0  0  0  0  0  0  0  0  0  0  0  0
   17.5968  -28.5657   -0.2626 C   0  0  0  0  0  0  0  0  0  0  0  0
   18.6296  -28.9355    0.7221 N   0  0  0  0  0  0  0  0  0  0  0  0
   15.9891  -25.4081   -4.4152 C   0  0  0  0  0  0  0  0  0  0  0  0
   15.7903  -24.0374   -4.5120 O   0  0  0  0  0  0  0  0  0  0  0  0
   14.9721  -26.1104   -4.0871 O   0  0  0  0  0  0  0  0  0  0  0  0
  2  1  1  0
  2  3  1  0
  4  5  1  0
  4  3  1  0
  5  7  1  0
  5  6  1  6
  7  8  2  0
 10  9  1  6
 10 12  1  0
 11 10  1  0
 11  7  1  0
 12 14  1  0
 12 13  2  0
 14 15  1  0
 15 21  1  0
 15 16  1  1
 17 16  1  0
 18 17  1  0
 19 18  1  0
 20 19  1  0
 21 23  2  0
 21 22  1  0
M  END
$$$$
