MAK.pdb
     RDKit          3D

 23 22  0  0  1  0  0  0  0  0999 V2000
   27.9838  -18.8999   -4.3863 C   0  0  0  0  0  0  0  0  0  0  0  0
   28.3336  -20.4113   -5.2865 S   0  0  0  0  0  0  0  0  0  0  0  0
   26.7512  -21.3010   -5.5463 C   0  0  0  0  0  0  0  0  0  0  0  0
   26.2853  -21.0037   -6.9309 C   0  0  0  0  0  0  0  0  0  0  0  0
   27.2946  -20.2460   -7.7769 C   0  0  2  0  0  0  0  0  0  0  0  0
   27.3394  -18.8471   -7.2792 N   0  0  0  0  0  0  0  0  0  0  0  0
   26.9305  -20.1565   -9.1978 C   0  0  0  0  0  0  0  0  0  0  0  0
   25.8564  -19.6180   -9.5324 O   0  0  0  0  0  0  0  0  0  0  0  0
   28.7049  -20.8841  -12.4101 C   0  0  0  0  0  0  0  0  0  0  0  0
   27.3995  -20.5753  -11.6327 C   0  0  2  0  0  0  0  0  0  0  0  0
   27.7631  -20.6625  -10.2536 N   0  0  0  0  0  0  0  0  0  0  0  0
   26.4369  -21.5832  -12.0811 C   0  0  0  0  0  0  0  0  0  0  0  0
   25.8587  -22.3725  -11.2566 O   0  0  0  0  0  0  0  0  0  0  0  0
   26.0996  -21.7348  -13.4270 N   0  0  0  0  0  0  0  0  0  0  0  0
   24.7383  -21.8610  -13.9251 C   0  0  1  0  0  0  0  0  0  0  0  0
   23.7759  -21.0084  -13.1905 C   0  0  0  0  0  0  0  0  0  0  0  0
   22.4313  -21.5535  -12.9255 C   0  0  0  0  0  0  0  0  0  0  0  0
   21.3173  -20.6413  -12.6386 C   0  0  0  0  0  0  0  0  0  0  0  0
   19.9842  -21.2307  -12.3573 C   0  0  0  0  0  0  0  0  0  0  0  0
   19.0497  -20.1072  -12.1633 N   0  0  0  0  0  0  0  0  0  0  0  0
   24.7626  -21.7464  -15.3866 C   0  0  0  0  0  0  0  0  0  0  0  0
   24.4090  -22.7630  -16.2638 O   0  0  0  0  0  0  0  0  0  0  0  0
   25.1351  -20.6423  -15.9132 O   0  0  0  0  0  0  0  0  0  0  0  0
  2  1  1  0
  2  3  1  0
  4  5  1  0
  4  3  1  0
  5  7  1  0
  5  6  1  1
  7  8  2  0
 10  9  1  6
 10 12  1  0
 11 10  1  0
 11  7  1  0
 12 14  1  0
 12 13  2  0
 14 15  1  0
 15 21  1  0
 15 16  1  1
 17 16  1  0
 18 17  1  0
 19 18  1  0
 20 19  1  0
 21 23  2  0
 21 22  1  0
M  END
$$$$
