MAK.pdb
     RDKit          3D

 23 22  0  0  1  0  0  0  0  0999 V2000
   31.3572  -22.2435  -11.3684 C   0  0  0  0  0  0  0  0  0  0  0  0
   31.1150  -20.4678  -11.2962 S   0  0  0  0  0  0  0  0  0  0  0  0
   29.4143  -20.0991  -11.8750 C   0  0  0  0  0  0  0  0  0  0  0  0
   29.0856  -21.0646  -12.9623 C   0  0  0  0  0  0  0  0  0  0  0  0
   27.6739  -20.9297  -13.5073 C   0  0  2  0  0  0  0  0  0  0  0  0
   27.3784  -19.4798  -13.6384 N   0  0  0  0  0  0  0  0  0  0  0  0
   26.6389  -21.4728  -12.6165 C   0  0  0  0  0  0  0  0  0  0  0  0
   26.2941  -22.6671  -12.7185 O   0  0  0  0  0  0  0  0  0  0  0  0
   24.7539  -20.3124   -9.6231 C   0  0  0  0  0  0  0  0  0  0  0  0
   24.7920  -21.1184  -10.9469 C   0  0  2  0  0  0  0  0  0  0  0  0
   25.9859  -20.6895  -11.6046 N   0  0  0  0  0  0  0  0  0  0  0  0
   23.5493  -20.7769  -11.6415 C   0  0  0  0  0  0  0  0  0  0  0  0
   22.4050  -20.9619  -11.0996 O   0  0  0  0  0  0  0  0  0  0  0  0
   23.5474  -20.2324  -12.9266 N   0  0  0  0  0  0  0  0  0  0  0  0
   22.3610  -19.7398  -13.6100 C   0  0  1  0  0  0  0  0  0  0  0  0
   22.6819  -18.8575  -14.7552 C   0  0  0  0  0  0  0  0  0  0  0  0
   21.5609  -18.2355  -15.4844 C   0  0  0  0  0  0  0  0  0  0  0  0
   21.8318  -17.3655  -16.6354 C   0  0  0  0  0  0  0  0  0  0  0  0
   20.6772  -16.7384  -17.3264 C   0  0  0  0  0  0  0  0  0  0  0  0
   21.2290  -15.8421  -18.3585 N   0  0  0  0  0  0  0  0  0  0  0  0
   21.4621  -20.8707  -13.8606 C   0  0  0  0  0  0  0  0  0  0  0  0
   20.1172  -20.9008  -13.5168 O   0  0  0  0  0  0  0  0  0  0  0  0
   21.9284  -21.9150  -14.4325 O   0  0  0  0  0  0  0  0  0  0  0  0
  2  1  1  0
  2  3  1  0
  4  5  1  0
  4  3  1  0
  5  7  1  0
  5  6  1  1
  7  8  2  0
 10  9  1  1
 10 12  1  0
 11 10  1  0
 11  7  1  0
 12 14  1  0
 12 13  2  0
 14 15  1  0
 15 21  1  0
 15 16  1  6
 17 16  1  0
 18 17  1  0
 19 18  1  0
 20 19  1  0
 21 23  2  0
 21 22  1  0
M  END
$$$$
