MAK.pdb
     RDKit          3D

 23 22  0  0  1  0  0  0  0  0999 V2000
   17.9380  -10.1658  -20.1080 C   0  0  0  0  0  0  0  0  0  0  0  0
   19.6738   -9.8343  -20.4148 S   0  0  0  0  0  0  0  0  0  0  0  0
   20.5558   -9.8726  -18.8074 C   0  0  0  0  0  0  0  0  0  0  0  0
   20.0119   -8.7694  -17.9649 C   0  0  0  0  0  0  0  0  0  0  0  0
   20.6623   -8.6539  -16.5967 C   0  0  2  0  0  0  0  0  0  0  0  0
   20.2513   -9.8392  -15.8012 N   0  0  0  0  0  0  0  0  0  0  0  0
   20.2237   -7.4809  -15.8277 C   0  0  0  0  0  0  0  0  0  0  0  0
   19.0146   -7.3266  -15.5631 O   0  0  0  0  0  0  0  0  0  0  0  0
   21.7077   -5.0256  -13.5711 C   0  0  0  0  0  0  0  0  0  0  0  0
   20.6856   -5.2762  -14.7096 C   0  0  2  0  0  0  0  0  0  0  0  0
   21.1302   -6.4759  -15.3458 N   0  0  0  0  0  0  0  0  0  0  0  0
   20.7414   -4.0772  -15.5479 C   0  0  0  0  0  0  0  0  0  0  0  0
   21.6925   -3.8853  -16.3821 O   0  0  0  0  0  0  0  0  0  0  0  0
   19.7628   -3.0842  -15.4823 N   0  0  0  0  0  0  0  0  0  0  0  0
   19.7482   -1.8870  -16.3092 C   0  0  1  0  0  0  0  0  0  0  0  0
   18.3807   -1.3751  -16.5556 C   0  0  0  0  0  0  0  0  0  0  0  0
   17.4349   -2.2480  -17.2759 C   0  0  0  0  0  0  0  0  0  0  0  0
   16.0629   -1.7891  -17.5253 C   0  0  0  0  0  0  0  0  0  0  0  0
   15.1132   -2.7348  -18.1635 C   0  0  0  0  0  0  0  0  0  0  0  0
   13.7985   -2.0688  -18.1942 N   0  0  0  0  0  0  0  0  0  0  0  0
   20.7376   -0.9423  -15.7817 C   0  0  0  0  0  0  0  0  0  0  0  0
   21.4824   -0.0644  -16.5578 O   0  0  0  0  0  0  0  0  0  0  0  0
   20.9481   -0.9085  -14.5209 O   0  0  0  0  0  0  0  0  0  0  0  0
  2  1  1  0
  2  3  1  0
  4  5  1  0
  4  3  1  0
  5  7  1  0
  5  6  1  1
  7  8  2  0
 10  9  1  1
 10 12  1  0
 11 10  1  0
 11  7  1  0
 12 14  1  0
 12 13  2  0
 14 15  1  0
 15 21  1  0
 15 16  1  1
 17 16  1  0
 18 17  1  0
 19 18  1  0
 20 19  1  0
 21 23  2  0
 21 22  1  0
M  END
$$$$
