MAK.pdb
     RDKit          3D

 23 22  0  0  1  0  0  0  0  0999 V2000
   24.8598  -15.3801  -23.4240 C   0  0  0  0  0  0  0  0  0  0  0  0
   24.2866  -14.2389  -22.1646 S   0  0  0  0  0  0  0  0  0  0  0  0
   25.1440  -14.6426  -20.5946 C   0  0  0  0  0  0  0  0  0  0  0  0
   24.6687  -13.6824  -19.5580 C   0  0  0  0  0  0  0  0  0  0  0  0
   25.3425  -13.8438  -18.2059 C   0  0  2  0  0  0  0  0  0  0  0  0
   24.9631  -15.1762  -17.6698 N   0  0  0  0  0  0  0  0  0  0  0  0
   24.9016  -12.8653  -17.2019 C   0  0  0  0  0  0  0  0  0  0  0  0
   23.7133  -12.8546  -16.8232 O   0  0  0  0  0  0  0  0  0  0  0  0
   26.6050  -10.1043  -15.3082 C   0  0  0  0  0  0  0  0  0  0  0  0
   25.3352  -10.9146  -15.6751 C   0  0  2  0  0  0  0  0  0  0  0  0
   25.7831  -11.8965  -16.6117 N   0  0  0  0  0  0  0  0  0  0  0  0
   24.3942   -9.9318  -16.2155 C   0  0  0  0  0  0  0  0  0  0  0  0
   24.4444   -9.5560  -17.4375 O   0  0  0  0  0  0  0  0  0  0  0  0
   23.3953   -9.3559  -15.4290 N   0  0  0  0  0  0  0  0  0  0  0  0
   22.4419   -8.3650  -15.9047 C   0  0  1  0  0  0  0  0  0  0  0  0
   21.2277   -8.9727  -16.4957 C   0  0  0  0  0  0  0  0  0  0  0  0
   20.1647   -8.0689  -16.9737 C   0  0  0  0  0  0  0  0  0  0  0  0
   18.9150   -8.6279  -17.5039 C   0  0  0  0  0  0  0  0  0  0  0  0
   17.8512   -7.6845  -17.9303 C   0  0  0  0  0  0  0  0  0  0  0  0
   16.6990   -8.4996  -18.3559 N   0  0  0  0  0  0  0  0  0  0  0  0
   22.2508   -7.3586  -14.8557 C   0  0  0  0  0  0  0  0  0  0  0  0
   22.2392   -7.6304  -13.4942 O   0  0  0  0  0  0  0  0  0  0  0  0
   22.0779   -6.1380  -15.1953 O   0  0  0  0  0  0  0  0  0  0  0  0
  2  1  1  0
  2  3  1  0
  4  5  1  0
  4  3  1  0
  5  7  1  0
  5  6  1  1
  7  8  2  0
 10  9  1  6
 10 12  1  0
 11 10  1  0
 11  7  1  0
 12 14  1  0
 12 13  2  0
 14 15  1  0
 15 21  1  0
 15 16  1  1
 17 16  1  0
 18 17  1  0
 19 18  1  0
 20 19  1  0
 21 23  2  0
 21 22  1  0
M  END
$$$$
