MAK.pdb
     RDKit          3D

 23 22  0  0  1  0  0  0  0  0999 V2000
   15.1413  -14.6283   -8.8222 C   0  0  0  0  0  0  0  0  0  0  0  0
   15.8335  -13.0738   -9.3890 S   0  0  0  0  0  0  0  0  0  0  0  0
   14.7854  -12.4464  -10.7569 C   0  0  0  0  0  0  0  0  0  0  0  0
   15.3361  -11.1281  -11.1826 C   0  0  0  0  0  0  0  0  0  0  0  0
   14.8102   -9.9477  -10.3837 C   0  0  2  0  0  0  0  0  0  0  0  0
   13.3880   -9.7455  -10.7622 N   0  0  0  0  0  0  0  0  0  0  0  0
   15.4902   -8.6792  -10.6806 C   0  0  0  0  0  0  0  0  0  0  0  0
   15.4805   -8.2248  -11.8422 O   0  0  0  0  0  0  0  0  0  0  0  0
   17.1636   -6.0309   -8.6373 C   0  0  0  0  0  0  0  0  0  0  0  0
   16.9295   -6.7327   -9.9998 C   0  0  2  0  0  0  0  0  0  0  0  0
   16.1809   -7.9082   -9.6844 N   0  0  0  0  0  0  0  0  0  0  0  0
   18.2675   -6.9808  -10.5399 C   0  0  0  0  0  0  0  0  0  0  0  0
   19.0072   -7.9243  -10.0932 O   0  0  0  0  0  0  0  0  0  0  0  0
   18.8043   -6.2043  -11.5680 N   0  0  0  0  0  0  0  0  0  0  0  0
   20.0694   -6.4790  -12.2324 C   0  0  1  0  0  0  0  0  0  0  0  0
   19.9044   -7.2439  -13.4895 C   0  0  0  0  0  0  0  0  0  0  0  0
   21.1176   -7.5858  -14.2553 C   0  0  0  0  0  0  0  0  0  0  0  0
   20.9968   -8.2841  -15.5410 C   0  0  0  0  0  0  0  0  0  0  0  0
   22.2353   -8.7978  -16.1781 C   0  0  0  0  0  0  0  0  0  0  0  0
   21.8208   -9.5672  -17.3653 N   0  0  0  0  0  0  0  0  0  0  0  0
   20.8441   -5.2358  -12.2955 C   0  0  0  0  0  0  0  0  0  0  0  0
   22.2233   -5.1576  -12.1554 O   0  0  0  0  0  0  0  0  0  0  0  0
   20.2269   -4.1329  -12.4899 O   0  0  0  0  0  0  0  0  0  0  0  0
  2  1  1  0
  2  3  1  0
  4  5  1  0
  4  3  1  0
  5  7  1  0
  5  6  1  6
  7  8  2  0
 10  9  1  1
 10 12  1  0
 11 10  1  0
 11  7  1  0
 12 14  1  0
 12 13  2  0
 14 15  1  0
 15 21  1  0
 15 16  1  6
 17 16  1  0
 18 17  1  0
 19 18  1  0
 20 19  1  0
 21 23  2  0
 21 22  1  0
M  END
$$$$
