DHN.pdb
     RDKit          3D

 27 27  0  0  1  0  0  0  0  0999 V2000
   20.7015  -17.7744  -16.3666 N   0  0  0  0  0  0  0  0  0  0  0  0
   21.5124  -17.3850  -15.2712 C   0  0  1  0  0  0  0  0  0  0  0  0
   21.5037  -18.3625  -14.1251 C   0  0  0  0  0  0  0  0  0  0  0  0
   20.1541  -18.5271  -13.5324 C   0  0  0  0  0  0  0  0  0  0  0  0
   19.4568  -17.5102  -13.1941 O   0  0  0  0  0  0  0  0  0  0  0  0
   22.9571  -17.2022  -15.7053 C   0  0  0  0  0  0  0  0  0  0  0  0
   23.4903  -18.0483  -16.4479 O   0  0  0  0  0  0  0  0  0  0  0  0
   19.5613  -19.7574  -13.3061 O   0  0  0  0  0  0  0  0  0  0  0  0
   23.6919  -16.0876  -15.2745 N   0  0  0  0  0  0  0  0  0  0  0  0
   25.0501  -15.7237  -15.5217 C   0  0  1  0  0  0  0  0  0  0  0  0
   25.3900  -14.2534  -15.2950 C   0  0  0  0  0  0  0  0  0  0  0  0
   24.7900  -13.3486  -16.2747 C   0  0  0  0  0  0  0  0  0  0  0  0
   24.0795  -13.7727  -17.3772 C   0  0  0  0  0  0  0  0  0  0  0  0
   23.6555  -12.7238  -18.0913 N   0  0  0  0  0  0  0  0  0  0  0  0
   24.0924  -11.6032  -17.4498 C   0  0  0  0  0  0  0  0  0  0  0  0
   24.7729  -11.9972  -16.3592 N   0  0  0  0  0  0  0  0  0  0  0  0
   26.0781  -16.5643  -14.9271 C   0  0  0  0  0  0  0  0  0  0  0  0
   26.0758  -16.6191  -13.6477 O   0  0  0  0  0  0  0  0  0  0  0  0
   28.4330  -21.1840  -14.1970 N   0  0  0  0  0  0  0  0  0  0  0  0
   27.0954  -20.7439  -14.2120 C   0  0  0  0  0  0  0  0  0  0  0  0
   26.1851  -21.5586  -13.8099 O   0  0  0  0  0  0  0  0  0  0  0  0
   26.6140  -19.4311  -14.6409 C   0  0  0  0  0  0  0  0  0  0  0  0
   27.6705  -18.5122  -15.1574 C   0  0  2  0  0  0  0  0  0  0  0  0
   27.0409  -17.2942  -15.6734 N   0  0  0  0  0  0  0  0  0  0  0  0
   28.5192  -19.1222  -16.2183 C   0  0  0  0  0  0  0  0  0  0  0  0
   28.0994  -19.1383  -17.4135 O   0  0  0  0  0  0  0  0  0  0  0  0
   29.7583  -19.6890  -16.0132 O   0  0  0  0  0  0  0  0  0  0  0  0
  2  1  1  6
  2  3  1  0
  4  8  1  0
  4  3  1  0
  5  4  2  0
  6  7  2  0
  6  2  1  0
  9  6  1  0
 10  9  1  0
 10 11  1  1
 12 11  1  0
 12 13  2  0
 14 13  1  0
 15 14  1  0
 16 15  2  0
 16 12  1  0
 17 10  1  0
 17 18  2  0
 20 19  1  0
 20 21  2  0
 22 20  1  0
 23 24  1  0
 23 22  1  6
 24 17  1  0
 25 23  1  0
 26 25  2  0
 27 25  1  0
M  END
$$$$
