DHN.pdb
     RDKit          3D

 27 27  0  0  1  0  0  0  0  0999 V2000
   28.7569  -22.8652  -17.5398 N   0  0  0  0  0  0  0  0  0  0  0  0
   28.3183  -21.5799  -17.1339 C   0  0  1  0  0  0  0  0  0  0  0  0
   27.8030  -20.7244  -18.2616 C   0  0  0  0  0  0  0  0  0  0  0  0
   28.8730  -20.3395  -19.2140 C   0  0  0  0  0  0  0  0  0  0  0  0
   28.6260  -20.2095  -20.4618 O   0  0  0  0  0  0  0  0  0  0  0  0
   27.2111  -21.6876  -16.0989 C   0  0  0  0  0  0  0  0  0  0  0  0
   26.1780  -22.3309  -16.3648 O   0  0  0  0  0  0  0  0  0  0  0  0
   30.1831  -20.0979  -18.8380 O   0  0  0  0  0  0  0  0  0  0  0  0
   27.3461  -21.0672  -14.8480 N   0  0  0  0  0  0  0  0  0  0  0  0
   26.4604  -21.0406  -13.7286 C   0  0  1  0  0  0  0  0  0  0  0  0
   27.0154  -20.3906  -12.4645 C   0  0  0  0  0  0  0  0  0  0  0  0
   26.1186  -20.4739  -11.3125 C   0  0  0  0  0  0  0  0  0  0  0  0
   24.8541  -21.0206  -11.3619 C   0  0  0  0  0  0  0  0  0  0  0  0
   24.2699  -20.9556  -10.1601 N   0  0  0  0  0  0  0  0  0  0  0  0
   25.1606  -20.3611   -9.3167 C   0  0  0  0  0  0  0  0  0  0  0  0
   26.2671  -20.0780  -10.0261 N   0  0  0  0  0  0  0  0  0  0  0  0
   25.1047  -20.5704  -13.9698 C   0  0  0  0  0  0  0  0  0  0  0  0
   25.0074  -19.3908  -14.4586 O   0  0  0  0  0  0  0  0  0  0  0  0
   19.8956  -20.2878  -15.0623 N   0  0  0  0  0  0  0  0  0  0  0  0
   20.6054  -21.4524  -15.4129 C   0  0  0  0  0  0  0  0  0  0  0  0
   20.0191  -22.3161  -16.1642 O   0  0  0  0  0  0  0  0  0  0  0  0
   21.9689  -21.7967  -15.0113 C   0  0  0  0  0  0  0  0  0  0  0  0
   22.5950  -20.8532  -14.0392 C   0  0  2  0  0  0  0  0  0  0  0  0
   23.9370  -21.3316  -13.6980 N   0  0  0  0  0  0  0  0  0  0  0  0
   21.7993  -20.6714  -12.7936 C   0  0  0  0  0  0  0  0  0  0  0  0
   20.8420  -19.8417  -12.7864 O   0  0  0  0  0  0  0  0  0  0  0  0
   22.0153  -21.3435  -11.6103 O   0  0  0  0  0  0  0  0  0  0  0  0
  2  1  1  6
  2  3  1  0
  4  8  1  0
  4  3  1  0
  5  4  2  0
  6  7  2  0
  6  2  1  0
  9  6  1  0
 10  9  1  0
 10 11  1  1
 12 11  1  0
 12 13  2  0
 14 13  1  0
 15 14  1  0
 16 15  2  0
 16 12  1  0
 17 10  1  0
 17 18  2  0
 20 19  1  0
 20 21  2  0
 22 20  1  0
 23 24  1  0
 23 22  1  6
 24 17  1  0
 25 23  1  0
 26 25  2  0
 27 25  1  0
M  END
$$$$
