DHN.pdb
     RDKit          3D

 27 27  0  0  1  0  0  0  0  0999 V2000
   12.1186  -18.7932    3.5630 N   0  0  0  0  0  0  0  0  0  0  0  0
   12.8426  -17.6611    4.0141 C   0  0  1  0  0  0  0  0  0  0  0  0
   12.1314  -16.8626    5.0750 C   0  0  0  0  0  0  0  0  0  0  0  0
   10.8778  -16.2475    4.5748 C   0  0  0  0  0  0  0  0  0  0  0  0
   10.9073  -15.3117    3.7041 O   0  0  0  0  0  0  0  0  0  0  0  0
   14.1924  -18.0715    4.5786 C   0  0  0  0  0  0  0  0  0  0  0  0
   14.2859  -19.1082    5.2628 O   0  0  0  0  0  0  0  0  0  0  0  0
    9.6158  -16.6271    4.9984 O   0  0  0  0  0  0  0  0  0  0  0  0
   15.3313  -17.2900    4.3337 N   0  0  0  0  0  0  0  0  0  0  0  0
   16.6912  -17.4913    4.7189 C   0  0  1  0  0  0  0  0  0  0  0  0
   17.7365  -17.0737    3.6886 C   0  0  0  0  0  0  0  0  0  0  0  0
   17.9593  -18.0637    2.6356 C   0  0  0  0  0  0  0  0  0  0  0  0
   17.3198  -19.2836    2.5811 C   0  0  0  0  0  0  0  0  0  0  0  0
   17.7255  -19.9760    1.5107 N   0  0  0  0  0  0  0  0  0  0  0  0
   18.6386  -19.2018    0.8589 C   0  0  0  0  0  0  0  0  0  0  0  0
   18.7672  -18.0551    1.5489 N   0  0  0  0  0  0  0  0  0  0  0  0
   17.0817  -17.0160    6.0374 C   0  0  0  0  0  0  0  0  0  0  0  0
   17.0036  -15.7500    6.2143 O   0  0  0  0  0  0  0  0  0  0  0  0
   17.9699  -16.5149   11.2417 N   0  0  0  0  0  0  0  0  0  0  0  0
   16.7475  -16.7585   10.5867 C   0  0  0  0  0  0  0  0  0  0  0  0
   15.6597  -16.5938   11.2529 O   0  0  0  0  0  0  0  0  0  0  0  0
   16.5717  -17.1852    9.1988 C   0  0  0  0  0  0  0  0  0  0  0  0
   17.8379  -17.3459    8.4254 C   0  0  2  0  0  0  0  0  0  0  0  0
   17.5258  -17.8600    7.0896 N   0  0  0  0  0  0  0  0  0  0  0  0
   18.8259  -18.2430    9.0863 C   0  0  0  0  0  0  0  0  0  0  0  0
   19.0929  -19.3639    8.5598 O   0  0  0  0  0  0  0  0  0  0  0  0
   19.4976  -17.9574   10.2550 O   0  0  0  0  0  0  0  0  0  0  0  0
  2  1  1  1
  2  3  1  0
  4  8  1  0
  4  3  1  0
  5  4  2  0
  6  7  2  0
  6  2  1  0
  9  6  1  0
 10  9  1  0
 10 11  1  6
 12 11  1  0
 12 13  2  0
 14 13  1  0
 15 14  1  0
 16 15  2  0
 16 12  1  0
 17 10  1  0
 17 18  2  0
 20 19  1  0
 20 21  2  0
 22 20  1  0
 23 24  1  0
 23 22  1  1
 24 17  1  0
 25 23  1  0
 26 25  2  0
 27 25  1  0
M  END
$$$$
