DHN.pdb
     RDKit          3D

 27 27  0  0  1  0  0  0  0  0999 V2000
   22.3946  -10.8590  -20.3168 N   0  0  0  0  0  0  0  0  0  0  0  0
   22.7787  -10.7593  -18.9560 C   0  0  1  0  0  0  0  0  0  0  0  0
   24.0868  -10.0444  -18.7399 C   0  0  0  0  0  0  0  0  0  0  0  0
   25.2261  -10.7429  -19.3834 C   0  0  0  0  0  0  0  0  0  0  0  0
   25.1894  -12.0035  -19.5941 O   0  0  0  0  0  0  0  0  0  0  0  0
   21.7197  -10.0295  -18.1467 C   0  0  0  0  0  0  0  0  0  0  0  0
   21.0752   -9.1002  -18.6691 O   0  0  0  0  0  0  0  0  0  0  0  0
   26.3834  -10.1041  -19.7942 O   0  0  0  0  0  0  0  0  0  0  0  0
   21.4648  -10.3963  -16.8169 N   0  0  0  0  0  0  0  0  0  0  0  0
   20.5296   -9.8696  -15.8755 C   0  0  1  0  0  0  0  0  0  0  0  0
   19.9243  -10.8845  -14.9100 C   0  0  0  0  0  0  0  0  0  0  0  0
   19.0179  -11.8399  -15.5458 C   0  0  0  0  0  0  0  0  0  0  0  0
   18.6276  -11.7662  -16.8658 C   0  0  0  0  0  0  0  0  0  0  0  0
   17.7954  -12.7705  -17.1634 N   0  0  0  0  0  0  0  0  0  0  0  0
   17.6401  -13.5081  -16.0277 C   0  0  0  0  0  0  0  0  0  0  0  0
   18.3824  -12.9344  -15.0646 N   0  0  0  0  0  0  0  0  0  0  0  0
   20.9267   -8.6737  -15.1481 C   0  0  0  0  0  0  0  0  0  0  0  0
   22.1073   -8.6946  -14.6523 O   0  0  0  0  0  0  0  0  0  0  0  0
   22.7875   -3.5118  -15.3165 N   0  0  0  0  0  0  0  0  0  0  0  0
   22.3675   -4.5900  -14.5141 C   0  0  0  0  0  0  0  0  0  0  0  0
   22.4388   -4.4583  -13.2367 O   0  0  0  0  0  0  0  0  0  0  0  0
   21.8436   -5.8729  -14.9818 C   0  0  0  0  0  0  0  0  0  0  0  0
   20.5755   -6.3101  -14.3276 C   0  0  2  0  0  0  0  0  0  0  0  0
   20.0966   -7.5349  -14.9731 N   0  0  0  0  0  0  0  0  0  0  0  0
   19.5038   -5.2766  -14.3627 C   0  0  0  0  0  0  0  0  0  0  0  0
   18.5778   -5.3744  -15.2217 O   0  0  0  0  0  0  0  0  0  0  0  0
   19.4243   -4.1889  -13.5206 O   0  0  0  0  0  0  0  0  0  0  0  0
  2  1  1  6
  2  3  1  0
  4  8  1  0
  4  3  1  0
  5  4  2  0
  6  7  2  0
  6  2  1  0
  9  6  1  0
 10  9  1  0
 10 11  1  1
 12 11  1  0
 12 13  2  0
 14 13  1  0
 15 14  1  0
 16 15  2  0
 16 12  1  0
 17 10  1  0
 17 18  2  0
 20 19  1  0
 20 21  2  0
 22 20  1  0
 23 24  1  0
 23 22  1  6
 24 17  1  0
 25 23  1  0
 26 25  2  0
 27 25  1  0
M  END
$$$$
