DHN.pdb
     RDKit          3D

 27 27  0  0  1  0  0  0  0  0999 V2000
   20.4683  -12.0240  -17.6259 N   0  0  0  0  0  0  0  0  0  0  0  0
   19.7455  -11.4427  -16.5541 C   0  0  1  0  0  0  0  0  0  0  0  0
   19.1961  -12.4440  -15.5720 C   0  0  0  0  0  0  0  0  0  0  0  0
   18.1932  -13.3475  -16.1866 C   0  0  0  0  0  0  0  0  0  0  0  0
   17.8209  -14.4168  -15.5924 O   0  0  0  0  0  0  0  0  0  0  0  0
   20.6178  -10.4711  -15.7770 C   0  0  0  0  0  0  0  0  0  0  0  0
   20.3556  -10.2241  -14.5845 O   0  0  0  0  0  0  0  0  0  0  0  0
   17.5995  -13.1112  -17.4145 O   0  0  0  0  0  0  0  0  0  0  0  0
   21.7145   -9.8518  -16.3946 N   0  0  0  0  0  0  0  0  0  0  0  0
   22.6152   -8.8601  -15.9011 C   0  0  1  0  0  0  0  0  0  0  0  0
   24.0437   -8.9453  -16.4309 C   0  0  0  0  0  0  0  0  0  0  0  0
   24.7332  -10.1859  -16.0789 C   0  0  0  0  0  0  0  0  0  0  0  0
   24.1934  -11.1606  -15.2673 C   0  0  0  0  0  0  0  0  0  0  0  0
   25.0528  -12.1755  -15.1214 N   0  0  0  0  0  0  0  0  0  0  0  0
   26.1649  -11.8620  -15.8446 C   0  0  0  0  0  0  0  0  0  0  0  0
   25.9557  -10.6621  -16.4140 N   0  0  0  0  0  0  0  0  0  0  0  0
   22.1593   -7.4787  -15.9337 C   0  0  0  0  0  0  0  0  0  0  0  0
   21.8625   -7.0216  -17.0925 O   0  0  0  0  0  0  0  0  0  0  0  0
   20.0016   -2.7653  -14.7774 N   0  0  0  0  0  0  0  0  0  0  0  0
   19.3681   -4.0207  -14.7036 C   0  0  0  0  0  0  0  0  0  0  0  0
   18.0861   -4.0475  -14.6036 O   0  0  0  0  0  0  0  0  0  0  0  0
   20.0202   -5.3296  -14.7318 C   0  0  0  0  0  0  0  0  0  0  0  0
   21.5068   -5.2886  -14.8562 C   0  0  2  0  0  0  0  0  0  0  0  0
   22.0350   -6.6532  -14.7849 N   0  0  0  0  0  0  0  0  0  0  0  0
   22.1649   -4.4448  -13.8205 C   0  0  0  0  0  0  0  0  0  0  0  0
   22.5920   -4.9887  -12.7591 O   0  0  0  0  0  0  0  0  0  0  0  0
   22.3579   -3.0836  -13.9130 O   0  0  0  0  0  0  0  0  0  0  0  0
  2  1  1  6
  2  3  1  0
  4  8  1  0
  4  3  1  0
  5  4  2  0
  6  7  2  0
  6  2  1  0
  9  6  1  0
 10  9  1  0
 10 11  1  6
 12 11  1  0
 12 13  2  0
 14 13  1  0
 15 14  1  0
 16 15  2  0
 16 12  1  0
 17 10  1  0
 17 18  2  0
 20 19  1  0
 20 21  2  0
 22 20  1  0
 23 24  1  0
 23 22  1  1
 24 17  1  0
 25 23  1  0
 26 25  2  0
 27 25  1  0
M  END
$$$$
