DHN.pdb
     RDKit          3D

 27 27  0  0  1  0  0  0  0  0999 V2000
   18.4155  -24.7093  -10.7862 N   0  0  0  0  0  0  0  0  0  0  0  0
   18.2924  -23.5187  -10.0268 C   0  0  1  0  0  0  0  0  0  0  0  0
   18.9723  -23.5762   -8.6839 C   0  0  0  0  0  0  0  0  0  0  0  0
   18.5384  -24.7446   -7.8798 C   0  0  0  0  0  0  0  0  0  0  0  0
   17.6370  -25.5415   -8.3126 O   0  0  0  0  0  0  0  0  0  0  0  0
   18.8702  -22.3332  -10.7815 C   0  0  0  0  0  0  0  0  0  0  0  0
   18.9335  -21.2197  -10.2266 O   0  0  0  0  0  0  0  0  0  0  0  0
   19.0598  -25.0548   -6.6356 O   0  0  0  0  0  0  0  0  0  0  0  0
   19.3313  -22.4860  -12.0975 N   0  0  0  0  0  0  0  0  0  0  0  0
   20.0626  -21.5870  -12.9313 C   0  0  1  0  0  0  0  0  0  0  0  0
   21.5298  -21.9417  -13.1551 C   0  0  0  0  0  0  0  0  0  0  0  0
   22.2637  -20.9558  -13.9475 C   0  0  0  0  0  0  0  0  0  0  0  0
   21.6893  -19.8271  -14.4917 C   0  0  0  0  0  0  0  0  0  0  0  0
   22.6018  -19.1171  -15.1649 N   0  0  0  0  0  0  0  0  0  0  0  0
   23.7840  -19.7875  -15.0598 C   0  0  0  0  0  0  0  0  0  0  0  0
   23.5626  -20.8910  -14.3243 N   0  0  0  0  0  0  0  0  0  0  0  0
   19.4484  -21.2107  -14.1955 C   0  0  0  0  0  0  0  0  0  0  0  0
   19.0461  -22.1827  -14.9258 O   0  0  0  0  0  0  0  0  0  0  0  0
   15.7870  -19.8203  -14.9789 N   0  0  0  0  0  0  0  0  0  0  0  0
   16.3825  -18.5618  -15.1902 C   0  0  0  0  0  0  0  0  0  0  0  0
   15.6755  -17.5115  -14.9646 O   0  0  0  0  0  0  0  0  0  0  0  0
   17.7492  -18.3093  -15.6456 C   0  0  0  0  0  0  0  0  0  0  0  0
   18.5733  -19.5331  -15.8698 C   0  0  2  0  0  0  0  0  0  0  0  0
   19.2837  -19.8700  -14.6336 N   0  0  0  0  0  0  0  0  0  0  0  0
   19.5513  -19.3929  -16.9841 C   0  0  0  0  0  0  0  0  0  0  0  0
   20.6800  -18.8657  -16.7541 O   0  0  0  0  0  0  0  0  0  0  0  0
   19.3347  -19.7962  -18.2838 O   0  0  0  0  0  0  0  0  0  0  0  0
  2  1  1  6
  2  3  1  0
  4  8  1  0
  4  3  1  0
  5  4  2  0
  6  7  2  0
  6  2  1  0
  9  6  1  0
 10  9  1  0
 10 11  1  6
 12 11  1  0
 12 13  2  0
 14 13  1  0
 15 14  1  0
 16 15  2  0
 16 12  1  0
 17 10  1  0
 17 18  2  0
 20 19  1  0
 20 21  2  0
 22 20  1  0
 23 24  1  0
 23 22  1  1
 24 17  1  0
 25 23  1  0
 26 25  2  0
 27 25  1  0
M  END
$$$$
