DHN.pdb
     RDKit          3D

 27 27  0  0  1  0  0  0  0  0999 V2000
   32.3431  -34.9415   -6.4048 N   0  0  0  0  0  0  0  0  0  0  0  0
   31.6716  -35.7272   -5.4347 C   0  0  1  0  0  0  0  0  0  0  0  0
   32.5749  -36.2825   -4.3648 C   0  0  0  0  0  0  0  0  0  0  0  0
   33.5576  -37.2546   -4.9026 C   0  0  0  0  0  0  0  0  0  0  0  0
   34.6848  -37.4358   -4.3269 O   0  0  0  0  0  0  0  0  0  0  0  0
   30.5851  -34.9210   -4.7429 C   0  0  0  0  0  0  0  0  0  0  0  0
   30.8517  -33.7957   -4.2800 O   0  0  0  0  0  0  0  0  0  0  0  0
   33.3381  -38.0189   -6.0356 O   0  0  0  0  0  0  0  0  0  0  0  0
   29.2861  -35.4369   -4.6230 N   0  0  0  0  0  0  0  0  0  0  0  0
   28.1068  -34.8529   -4.0697 C   0  0  1  0  0  0  0  0  0  0  0  0
   26.8598  -34.9304   -4.9459 C   0  0  0  0  0  0  0  0  0  0  0  0
   26.9291  -34.1032   -6.1498 C   0  0  0  0  0  0  0  0  0  0  0  0
   28.0572  -33.4172   -6.5460 C   0  0  0  0  0  0  0  0  0  0  0  0
   27.8219  -32.7468   -7.6796 N   0  0  0  0  0  0  0  0  0  0  0  0
   26.5281  -32.9968   -8.0283 C   0  0  0  0  0  0  0  0  0  0  0  0
   26.0060  -33.8144   -7.0974 N   0  0  0  0  0  0  0  0  0  0  0  0
   27.7703  -35.2141   -2.7010 C   0  0  0  0  0  0  0  0  0  0  0  0
   27.5963  -36.4644   -2.4859 O   0  0  0  0  0  0  0  0  0  0  0  0
   26.6220  -35.0665    2.5532 N   0  0  0  0  0  0  0  0  0  0  0  0
   27.0536  -33.8307    2.0343 C   0  0  0  0  0  0  0  0  0  0  0  0
   27.1918  -32.8461    2.8501 O   0  0  0  0  0  0  0  0  0  0  0  0
   27.3731  -33.5350    0.6379 C   0  0  0  0  0  0  0  0  0  0  0  0
   27.1694  -34.6714   -0.3077 C   0  0  2  0  0  0  0  0  0  0  0  0
   27.6333  -34.2792   -1.6408 N   0  0  0  0  0  0  0  0  0  0  0  0
   25.7547  -35.1297   -0.3873 C   0  0  0  0  0  0  0  0  0  0  0  0
   24.9578  -34.5430   -1.1782 O   0  0  0  0  0  0  0  0  0  0  0  0
   25.2153  -36.1658    0.3436 O   0  0  0  0  0  0  0  0  0  0  0  0
  2  1  1  6
  2  3  1  0
  4  8  1  0
  4  3  1  0
  5  4  2  0
  6  7  2  0
  6  2  1  0
  9  6  1  0
 10  9  1  0
 10 11  1  6
 12 11  1  0
 12 13  2  0
 14 13  1  0
 15 14  1  0
 16 15  2  0
 16 12  1  0
 17 10  1  0
 17 18  2  0
 20 19  1  0
 20 21  2  0
 22 20  1  0
 23 24  1  0
 23 22  1  1
 24 17  1  0
 25 23  1  0
 26 25  2  0
 27 25  1  0
M  END
$$$$
