DHN.pdb
     RDKit          3D

 27 27  0  0  1  0  0  0  0  0999 V2000
   16.1183  -18.7386    2.0127 N   0  0  0  0  0  0  0  0  0  0  0  0
   15.5621  -18.8629    3.3105 C   0  0  1  0  0  0  0  0  0  0  0  0
   15.1180  -20.2604    3.6549 C   0  0  0  0  0  0  0  0  0  0  0  0
   14.1815  -20.8201    2.6501 C   0  0  0  0  0  0  0  0  0  0  0  0
   14.1924  -22.0663    2.3645 O   0  0  0  0  0  0  0  0  0  0  0  0
   16.5588  -18.4255    4.3707 C   0  0  0  0  0  0  0  0  0  0  0  0
   17.7196  -18.8773    4.3506 O   0  0  0  0  0  0  0  0  0  0  0  0
   13.2502  -20.0601    1.9636 O   0  0  0  0  0  0  0  0  0  0  0  0
   16.1791  -17.5174    5.3703 N   0  0  0  0  0  0  0  0  0  0  0  0
   16.9354  -16.9501    6.4400 C   0  0  1  0  0  0  0  0  0  0  0  0
   16.6529  -15.4808    6.7399 C   0  0  0  0  0  0  0  0  0  0  0  0
   17.2085  -14.5569    5.7519 C   0  0  0  0  0  0  0  0  0  0  0  0
   16.4413  -13.7943    4.8974 C   0  0  0  0  0  0  0  0  0  0  0  0
   17.2229  -13.0498    4.1070 N   0  0  0  0  0  0  0  0  0  0  0  0
   18.5131  -13.3278    4.4478 C   0  0  0  0  0  0  0  0  0  0  0  0
   18.4861  -14.2361    5.4387 N   0  0  0  0  0  0  0  0  0  0  0  0
   16.9906  -17.7048    7.6828 C   0  0  0  0  0  0  0  0  0  0  0  0
   16.0090  -18.5005    7.8906 O   0  0  0  0  0  0  0  0  0  0  0  0
   18.3068  -20.1671   12.1833 N   0  0  0  0  0  0  0  0  0  0  0  0
   18.7255  -20.5180   10.8854 C   0  0  0  0  0  0  0  0  0  0  0  0
   19.2175  -21.6925   10.7044 O   0  0  0  0  0  0  0  0  0  0  0  0
   18.6590  -19.6773    9.6905 C   0  0  0  0  0  0  0  0  0  0  0  0
   18.0286  -18.3404    9.8969 C   0  0  2  0  0  0  0  0  0  0  0  0
   18.0412  -17.6004    8.6326 N   0  0  0  0  0  0  0  0  0  0  0  0
   18.6919  -17.5296   10.9554 C   0  0  0  0  0  0  0  0  0  0  0  0
   18.7510  -17.9837   12.1366 O   0  0  0  0  0  0  0  0  0  0  0  0
   19.2652  -16.2916   10.7625 O   0  0  0  0  0  0  0  0  0  0  0  0
  2  1  1  6
  2  3  1  0
  4  8  1  0
  4  3  1  0
  5  4  2  0
  6  7  2  0
  6  2  1  0
  9  6  1  0
 10  9  1  0
 10 11  1  1
 12 11  1  0
 12 13  2  0
 14 13  1  0
 15 14  1  0
 16 15  2  0
 16 12  1  0
 17 10  1  0
 17 18  2  0
 20 19  1  0
 20 21  2  0
 22 20  1  0
 23 24  1  0
 23 22  1  6
 24 17  1  0
 25 23  1  0
 26 25  2  0
 27 25  1  0
M  END
$$$$
