DHN.pdb
     RDKit          3D

 27 27  0  0  1  0  0  0  0  0999 V2000
   22.2745  -12.4891  -18.7674 N   0  0  0  0  0  0  0  0  0  0  0  0
   22.0275  -11.1150  -19.0129 C   0  0  1  0  0  0  0  0  0  0  0  0
   20.6689  -10.8323  -19.5987 C   0  0  0  0  0  0  0  0  0  0  0  0
   20.5159  -11.3869  -20.9658 C   0  0  0  0  0  0  0  0  0  0  0  0
   19.3888  -11.3476  -21.5683 O   0  0  0  0  0  0  0  0  0  0  0  0
   22.1509  -10.3057  -17.7328 C   0  0  0  0  0  0  0  0  0  0  0  0
   21.4225  -10.5760  -16.7590 O   0  0  0  0  0  0  0  0  0  0  0  0
   21.5501  -11.9728  -21.6753 O   0  0  0  0  0  0  0  0  0  0  0  0
   23.0790   -9.2577  -17.6424 N   0  0  0  0  0  0  0  0  0  0  0  0
   23.4511   -8.4456  -16.5287 C   0  0  1  0  0  0  0  0  0  0  0  0
   24.9503   -8.3316  -16.2680 C   0  0  0  0  0  0  0  0  0  0  0  0
   25.6036   -9.6116  -15.9971 C   0  0  0  0  0  0  0  0  0  0  0  0
   24.9411  -10.8200  -15.9650 C   0  0  0  0  0  0  0  0  0  0  0  0
   25.7946  -11.8132  -15.6908 N   0  0  0  0  0  0  0  0  0  0  0  0
   27.0266  -11.2492  -15.5425 C   0  0  0  0  0  0  0  0  0  0  0  0
   26.8937   -9.9245  -15.7300 N   0  0  0  0  0  0  0  0  0  0  0  0
   22.8333   -7.1317  -16.4336 C   0  0  0  0  0  0  0  0  0  0  0  0
   23.0269   -6.3558  -17.4338 O   0  0  0  0  0  0  0  0  0  0  0  0
   19.9552   -2.8695  -14.8573 N   0  0  0  0  0  0  0  0  0  0  0  0
   19.5524   -4.0998  -14.3032 C   0  0  0  0  0  0  0  0  0  0  0  0
   18.4863   -4.1203  -13.5841 O   0  0  0  0  0  0  0  0  0  0  0  0
   20.2252   -5.3889  -14.4603 C   0  0  0  0  0  0  0  0  0  0  0  0
   21.4860   -5.3468  -15.2577 C   0  0  2  0  0  0  0  0  0  0  0  0
   22.0587   -6.6935  -15.3269 N   0  0  0  0  0  0  0  0  0  0  0  0
   22.5000   -4.4017  -14.7133 C   0  0  0  0  0  0  0  0  0  0  0  0
   22.4476   -3.1799  -15.0442 O   0  0  0  0  0  0  0  0  0  0  0  0
   23.5228   -4.7444  -13.8559 O   0  0  0  0  0  0  0  0  0  0  0  0
  2  1  1  1
  2  3  1  0
  4  8  1  0
  4  3  1  0
  5  4  2  0
  6  7  2  0
  6  2  1  0
  9  6  1  0
 10  9  1  0
 10 11  1  6
 12 11  1  0
 12 13  2  0
 14 13  1  0
 15 14  1  0
 16 15  2  0
 16 12  1  0
 17 10  1  0
 17 18  2  0
 20 19  1  0
 20 21  2  0
 22 20  1  0
 23 24  1  0
 23 22  1  1
 24 17  1  0
 25 23  1  0
 26 25  2  0
 27 25  1  0
M  END
$$$$
