DHN.pdb
     RDKit          3D

 27 27  0  0  1  0  0  0  0  0999 V2000
   19.1890  -14.6635  -17.5631 N   0  0  0  0  0  0  0  0  0  0  0  0
   18.5405  -13.8392  -16.6095 C   0  0  1  0  0  0  0  0  0  0  0  0
   17.9361  -14.5964  -15.4560 C   0  0  0  0  0  0  0  0  0  0  0  0
   17.2970  -15.8643  -15.8847 C   0  0  0  0  0  0  0  0  0  0  0  0
   17.1228  -16.1259  -17.1241 O   0  0  0  0  0  0  0  0  0  0  0  0
   19.5059  -12.8184  -16.0308 C   0  0  0  0  0  0  0  0  0  0  0  0
   19.2021  -12.2010  -14.9924 O   0  0  0  0  0  0  0  0  0  0  0  0
   16.8525  -16.8347  -15.0032 O   0  0  0  0  0  0  0  0  0  0  0  0
   20.7349  -12.5681  -16.6590 N   0  0  0  0  0  0  0  0  0  0  0  0
   21.7333  -11.5867  -16.3794 C   0  0  1  0  0  0  0  0  0  0  0  0
   23.1115  -11.8607  -16.9746 C   0  0  0  0  0  0  0  0  0  0  0  0
   24.1454  -10.9272  -16.5295 C   0  0  0  0  0  0  0  0  0  0  0  0
   24.5989   -9.8669  -17.2847 C   0  0  0  0  0  0  0  0  0  0  0  0
   25.5455   -9.1927  -16.6219 N   0  0  0  0  0  0  0  0  0  0  0  0
   25.7125   -9.8176  -15.4220 C   0  0  0  0  0  0  0  0  0  0  0  0
   24.8626  -10.8587  -15.3830 N   0  0  0  0  0  0  0  0  0  0  0  0
   21.3706  -10.1946  -16.5974 C   0  0  0  0  0  0  0  0  0  0  0  0
   20.9161   -9.9174  -17.7621 O   0  0  0  0  0  0  0  0  0  0  0  0
   18.5476   -5.5224  -16.7621 N   0  0  0  0  0  0  0  0  0  0  0  0
   19.3075   -6.1409  -15.7507 C   0  0  0  0  0  0  0  0  0  0  0  0
   19.6862   -5.4233  -14.7529 O   0  0  0  0  0  0  0  0  0  0  0  0
   19.7220   -7.5429  -15.7053 C   0  0  0  0  0  0  0  0  0  0  0  0
   21.1834   -7.7729  -15.9017 C   0  0  2  0  0  0  0  0  0  0  0  0
   21.4939   -9.1758  -15.6157 N   0  0  0  0  0  0  0  0  0  0  0  0
   22.0401   -6.8916  -15.0608 C   0  0  0  0  0  0  0  0  0  0  0  0
   22.1105   -5.6561  -15.3317 O   0  0  0  0  0  0  0  0  0  0  0  0
   22.7875   -7.3095  -13.9813 O   0  0  0  0  0  0  0  0  0  0  0  0
  2  1  1  6
  2  3  1  0
  4  8  1  0
  4  3  1  0
  5  4  2  0
  6  7  2  0
  6  2  1  0
  9  6  1  0
 10  9  1  0
 10 11  1  6
 12 11  1  0
 12 13  2  0
 14 13  1  0
 15 14  1  0
 16 15  2  0
 16 12  1  0
 17 10  1  0
 17 18  2  0
 20 19  1  0
 20 21  2  0
 22 20  1  0
 23 24  1  0
 23 22  1  1
 24 17  1  0
 25 23  1  0
 26 25  2  0
 27 25  1  0
M  END
$$$$
