DHN.pdb
     RDKit          3D

 27 27  0  0  1  0  0  0  0  0999 V2000
   22.0152  -13.3871  -19.0003 N   0  0  0  0  0  0  0  0  0  0  0  0
   22.8505  -12.4975  -18.2793 C   0  0  1  0  0  0  0  0  0  0  0  0
   24.2133  -12.3054  -18.8915 C   0  0  0  0  0  0  0  0  0  0  0  0
   24.9772  -13.5737  -18.9806 C   0  0  0  0  0  0  0  0  0  0  0  0
   25.5843  -13.9006  -20.0574 O   0  0  0  0  0  0  0  0  0  0  0  0
   22.2058  -11.1268  -18.1594 C   0  0  0  0  0  0  0  0  0  0  0  0
   22.5008  -10.2324  -18.9748 O   0  0  0  0  0  0  0  0  0  0  0  0
   25.0895  -14.4756  -17.9365 O   0  0  0  0  0  0  0  0  0  0  0  0
   21.2820  -10.8640  -17.1369 N   0  0  0  0  0  0  0  0  0  0  0  0
   20.5226   -9.6880  -16.8567 C   0  0  1  0  0  0  0  0  0  0  0  0
   19.1057   -9.9257  -16.3424 C   0  0  0  0  0  0  0  0  0  0  0  0
   18.3609   -8.6974  -16.0684 C   0  0  0  0  0  0  0  0  0  0  0  0
   18.8434   -7.4327  -16.3291 C   0  0  0  0  0  0  0  0  0  0  0  0
   17.9450   -6.5076  -15.9726 N   0  0  0  0  0  0  0  0  0  0  0  0
   16.8650   -7.1733  -15.4743 C   0  0  0  0  0  0  0  0  0  0  0  0
   17.1319   -8.4894  -15.5394 N   0  0  0  0  0  0  0  0  0  0  0  0
   21.1700   -8.6580  -16.0585 C   0  0  0  0  0  0  0  0  0  0  0  0
   21.6164   -9.0394  -14.9205 O   0  0  0  0  0  0  0  0  0  0  0  0
   23.3736   -4.0164  -14.4166 N   0  0  0  0  0  0  0  0  0  0  0  0
   22.8207   -3.9575  -15.7103 C   0  0  0  0  0  0  0  0  0  0  0  0
   22.9568   -2.8669  -16.3782 O   0  0  0  0  0  0  0  0  0  0  0  0
   22.0941   -5.0247  -16.3976 C   0  0  0  0  0  0  0  0  0  0  0  0
   21.9990   -6.3080  -15.6417 C   0  0  2  0  0  0  0  0  0  0  0  0
   21.3210   -7.3075  -16.4709 N   0  0  0  0  0  0  0  0  0  0  0  0
   21.2893   -6.1771  -14.3390 C   0  0  0  0  0  0  0  0  0  0  0  0
   21.9658   -6.0372  -13.2772 O   0  0  0  0  0  0  0  0  0  0  0  0
   19.9210   -6.1951  -14.1769 O   0  0  0  0  0  0  0  0  0  0  0  0
  2  1  1  6
  2  3  1  0
  4  8  1  0
  4  3  1  0
  5  4  2  0
  6  7  2  0
  6  2  1  0
  9  6  1  0
 10  9  1  0
 10 11  1  1
 12 11  1  0
 12 13  2  0
 14 13  1  0
 15 14  1  0
 16 15  2  0
 16 12  1  0
 17 10  1  0
 17 18  2  0
 20 19  1  0
 20 21  2  0
 22 20  1  0
 23 24  1  0
 23 22  1  6
 24 17  1  0
 25 23  1  0
 26 25  2  0
 27 25  1  0
M  END
$$$$
