QSS.pdb
     RDKit          3D

 22 21  0  0  1  0  0  0  0  0999 V2000
    6.7773  -17.1245   15.7954 N   0  0  0  0  0  0  0  0  0  0  0  0
    7.7268  -16.1901   15.2949 C   0  0  0  0  0  0  0  0  0  0  0  0
    7.8674  -16.1478   14.0581 O   0  0  0  0  0  0  0  0  0  0  0  0
    8.4859  -15.3402   16.1855 C   0  0  0  0  0  0  0  0  0  0  0  0
    8.2431  -15.4148   17.6377 C   0  0  0  0  0  0  0  0  0  0  0  0
    7.8453  -14.1781   18.3549 C   0  0  2  0  0  0  0  0  0  0  0  0
    8.0093  -12.9647   17.6193 N   0  0  0  0  0  0  0  0  0  0  0  0
    8.6253  -14.1599   19.6399 C   0  0  0  0  0  0  0  0  0  0  0  0
    9.8601  -13.8710   19.6131 O   0  0  0  0  0  0  0  0  0  0  0  0
    6.7889  -15.4687   23.1211 O   0  0  0  0  0  0  0  0  0  0  0  0
    7.7609  -14.4751   23.2452 C   0  0  0  0  0  0  0  0  0  0  0  0
    8.7635  -14.5789   22.1220 C   0  0  2  0  0  0  0  0  0  0  0  0
    8.0454  -14.4500   20.8689 N   0  0  0  0  0  0  0  0  0  0  0  0
    9.5053  -15.8202   22.2488 C   0  0  0  0  0  0  0  0  0  0  0  0
    9.1543  -16.8440   21.6310 O   0  0  0  0  0  0  0  0  0  0  0  0
   13.1933  -15.6338   23.9371 O   0  0  0  0  0  0  0  0  0  0  0  0
   12.9414  -16.7292   23.1232 C   0  0  0  0  0  0  0  0  0  0  0  0
   11.4635  -17.0642   23.2268 C   0  0  2  0  0  0  0  0  0  0  0  0
   10.6431  -15.8775   23.0824 N   0  0  0  0  0  0  0  0  0  0  0  0
   11.2311  -17.7287   24.5187 C   0  0  0  0  0  0  0  0  0  0  0  0
   11.9664  -18.8629   24.8250 O   0  0  0  0  0  0  0  0  0  0  0  0
   10.3675  -17.2262   25.2853 O   0  0  0  0  0  0  0  0  0  0  0  0
  1  2  1  0
  2  3  2  0
  4  2  1  0
  4  5  1  0
  6  5  1  0
  6  8  1  0
  6  7  1  6
  8  9  2  0
  8 13  1  0
 10 11  1  0
 12 11  1  1
 12 14  1  0
 13 12  1  0
 14 19  1  0
 14 15  2  0
 16 17  1  0
 18 17  1  1
 18 20  1  0
 19 18  1  0
 20 21  1  0
 22 20  2  0
M  END
$$$$
