QSS.pdb
     RDKit          3D

 22 21  0  0  1  0  0  0  0  0999 V2000
    9.7666  -16.1411   13.1986 N   0  0  0  0  0  0  0  0  0  0  0  0
    9.3121  -16.1777   14.5467 C   0  0  0  0  0  0  0  0  0  0  0  0
    8.3225  -16.8966   14.7811 O   0  0  0  0  0  0  0  0  0  0  0  0
    9.9710  -15.4135   15.5827 C   0  0  0  0  0  0  0  0  0  0  0  0
    9.5149  -15.5443   16.9785 C   0  0  0  0  0  0  0  0  0  0  0  0
    8.3576  -14.7304   17.4260 C   0  0  2  0  0  0  0  0  0  0  0  0
    8.1952  -13.4785   16.7577 N   0  0  0  0  0  0  0  0  0  0  0  0
    8.5087  -14.5533   18.9112 C   0  0  0  0  0  0  0  0  0  0  0  0
    9.4445  -13.8228   19.3577 O   0  0  0  0  0  0  0  0  0  0  0  0
    6.1056  -16.7208   21.4732 O   0  0  0  0  0  0  0  0  0  0  0  0
    6.3333  -15.3849   21.8064 C   0  0  0  0  0  0  0  0  0  0  0  0
    7.6615  -14.9262   21.2562 C   0  0  2  0  0  0  0  0  0  0  0  0
    7.6584  -15.1630   19.8256 N   0  0  0  0  0  0  0  0  0  0  0  0
    8.7363  -15.6011   21.9607 C   0  0  0  0  0  0  0  0  0  0  0  0
    9.4665  -16.4267   21.3790 O   0  0  0  0  0  0  0  0  0  0  0  0
    8.7817  -15.2360   25.9794 O   0  0  0  0  0  0  0  0  0  0  0  0
   10.0773  -15.3976   25.5092 C   0  0  0  0  0  0  0  0  0  0  0  0
   10.0016  -15.9725   24.1054 C   0  0  2  0  0  0  0  0  0  0  0  0
    8.9652  -15.3243   23.3259 N   0  0  0  0  0  0  0  0  0  0  0  0
    9.7712  -17.4217   24.2129 C   0  0  0  0  0  0  0  0  0  0  0  0
   10.7646  -18.2137   24.7667 O   0  0  0  0  0  0  0  0  0  0  0  0
    8.6722  -17.8697   23.7915 O   0  0  0  0  0  0  0  0  0  0  0  0
  1  2  1  0
  2  3  2  0
  4  2  1  0
  4  5  1  0
  6  5  1  0
  6  8  1  0
  6  7  1  6
  8  9  2  0
  8 13  1  0
 10 11  1  0
 12 11  1  1
 12 14  1  0
 13 12  1  0
 14 19  1  0
 14 15  2  0
 16 17  1  0
 18 17  1  1
 18 20  1  0
 19 18  1  0
 20 21  1  0
 22 20  2  0
M  END
$$$$
