QSS.pdb
     RDKit          3D

 22 21  0  0  1  0  0  0  0  0999 V2000
    6.9222  -21.1850   18.0881 N   0  0  0  0  0  0  0  0  0  0  0  0
    8.0369  -21.0902   18.9677 C   0  0  0  0  0  0  0  0  0  0  0  0
    8.7309  -22.1160   19.0993 O   0  0  0  0  0  0  0  0  0  0  0  0
    8.3377  -19.8621   19.6698 C   0  0  0  0  0  0  0  0  0  0  0  0
    7.4722  -18.6853   19.4712 C   0  0  0  0  0  0  0  0  0  0  0  0
    8.0508  -17.4795   18.8282 C   0  0  2  0  0  0  0  0  0  0  0  0
    8.5080  -17.6611   17.4872 N   0  0  0  0  0  0  0  0  0  0  0  0
    9.1525  -17.0006   19.7321 C   0  0  0  0  0  0  0  0  0  0  0  0
   10.3593  -17.2293   19.4156 O   0  0  0  0  0  0  0  0  0  0  0  0
    8.3328  -15.5502   23.5372 O   0  0  0  0  0  0  0  0  0  0  0  0
    9.2170  -14.8109   22.7505 C   0  0  0  0  0  0  0  0  0  0  0  0
    9.9145  -15.7098   21.7592 C   0  0  2  0  0  0  0  0  0  0  0  0
    8.9026  -16.3112   20.9125 N   0  0  0  0  0  0  0  0  0  0  0  0
   10.7323  -16.6739   22.4723 C   0  0  0  0  0  0  0  0  0  0  0  0
   10.3015  -17.8142   22.7318 O   0  0  0  0  0  0  0  0  0  0  0  0
   14.5964  -15.5806   23.2856 O   0  0  0  0  0  0  0  0  0  0  0  0
   14.3992  -16.9414   23.0978 C   0  0  0  0  0  0  0  0  0  0  0  0
   12.9643  -17.2668   23.4750 C   0  0  2  0  0  0  0  0  0  0  0  0
   12.0369  -16.3232   22.8820 N   0  0  0  0  0  0  0  0  0  0  0  0
   12.8641  -17.2741   24.9429 C   0  0  0  0  0  0  0  0  0  0  0  0
   13.6486  -18.1647   25.6586 O   0  0  0  0  0  0  0  0  0  0  0  0
   12.0626  -16.4621   25.4762 O   0  0  0  0  0  0  0  0  0  0  0  0
  1  2  1  0
  2  3  2  0
  4  2  1  0
  4  5  1  0
  6  5  1  0
  6  8  1  0
  6  7  1  6
  8  9  2  0
  8 13  1  0
 10 11  1  0
 12 11  1  1
 12 14  1  0
 13 12  1  0
 14 19  1  0
 14 15  2  0
 16 17  1  0
 18 17  1  1
 18 20  1  0
 19 18  1  0
 20 21  1  0
 22 20  2  0
M  END
$$$$
