QSS.pdb
     RDKit          3D

 22 21  0  0  1  0  0  0  0  0999 V2000
   13.7545  -21.6510   16.9157 N   0  0  0  0  0  0  0  0  0  0  0  0
   13.9475  -20.3474   16.3785 C   0  0  0  0  0  0  0  0  0  0  0  0
   15.1079  -19.8964   16.4155 O   0  0  0  0  0  0  0  0  0  0  0  0
   12.8457  -19.5930   15.8231 C   0  0  0  0  0  0  0  0  0  0  0  0
   12.3920  -18.3675   16.5054 C   0  0  0  0  0  0  0  0  0  0  0  0
   11.0214  -18.3378   17.0736 C   0  0  2  0  0  0  0  0  0  0  0  0
   10.0112  -17.8188   16.2073 N   0  0  0  0  0  0  0  0  0  0  0  0
   11.1079  -17.5597   18.3570 C   0  0  0  0  0  0  0  0  0  0  0  0
   12.1094  -16.8089   18.5620 O   0  0  0  0  0  0  0  0  0  0  0  0
    8.2108  -18.0781   21.3518 O   0  0  0  0  0  0  0  0  0  0  0  0
    8.7520  -16.8130   21.1197 C   0  0  0  0  0  0  0  0  0  0  0  0
   10.1675  -16.9333   20.6107 C   0  0  2  0  0  0  0  0  0  0  0  0
   10.1274  -17.6292   19.3392 N   0  0  0  0  0  0  0  0  0  0  0  0
   10.9882  -17.5883   21.6130 C   0  0  0  0  0  0  0  0  0  0  0  0
   11.6737  -18.5891   21.3276 O   0  0  0  0  0  0  0  0  0  0  0  0
   14.3903  -15.9824   23.7162 O   0  0  0  0  0  0  0  0  0  0  0  0
   13.1774  -15.9391   23.0433 C   0  0  0  0  0  0  0  0  0  0  0  0
   12.2380  -16.9364   23.6990 C   0  0  2  0  0  0  0  0  0  0  0  0
   11.0163  -17.0907   22.9337 N   0  0  0  0  0  0  0  0  0  0  0  0
   11.9635  -16.4781   25.0699 C   0  0  0  0  0  0  0  0  0  0  0  0
   10.7078  -15.9696   25.3622 O   0  0  0  0  0  0  0  0  0  0  0  0
   12.8939  -16.5735   25.9134 O   0  0  0  0  0  0  0  0  0  0  0  0
  1  2  1  0
  2  3  2  0
  4  2  1  0
  4  5  1  0
  6  5  1  0
  6  8  1  0
  6  7  1  6
  8  9  2  0
  8 13  1  0
 10 11  1  0
 12 11  1  1
 12 14  1  0
 13 12  1  0
 14 19  1  0
 14 15  2  0
 16 17  1  0
 18 17  1  6
 18 20  1  0
 19 18  1  0
 20 21  1  0
 22 20  2  0
M  END
$$$$
