QSS.pdb
     RDKit          3D

 22 21  0  0  1  0  0  0  0  0999 V2000
    8.2432  -13.1888   14.7190 N   0  0  0  0  0  0  0  0  0  0  0  0
    7.4383  -13.7669   15.7403 C   0  0  0  0  0  0  0  0  0  0  0  0
    6.8412  -14.8204   15.4489 O   0  0  0  0  0  0  0  0  0  0  0  0
    7.3245  -13.1532   17.0449 C   0  0  0  0  0  0  0  0  0  0  0  0
    7.4993  -13.9820   18.2515 C   0  0  0  0  0  0  0  0  0  0  0  0
    8.8691  -14.4174   18.6208 C   0  0  2  0  0  0  0  0  0  0  0  0
    9.6026  -15.0730   17.5851 N   0  0  0  0  0  0  0  0  0  0  0  0
    8.7269  -15.2872   19.8386 C   0  0  0  0  0  0  0  0  0  0  0  0
    7.5942  -15.3896   20.4001 O   0  0  0  0  0  0  0  0  0  0  0  0
   11.6377  -18.0056   20.7391 O   0  0  0  0  0  0  0  0  0  0  0  0
   10.3332  -18.1723   21.2061 C   0  0  0  0  0  0  0  0  0  0  0  0
    9.7272  -16.8359   21.5582 C   0  0  2  0  0  0  0  0  0  0  0  0
    9.7950  -15.9908   20.3818 N   0  0  0  0  0  0  0  0  0  0  0  0
   10.4078  -16.2861   22.7164 C   0  0  0  0  0  0  0  0  0  0  0  0
   11.4456  -15.6079   22.5893 O   0  0  0  0  0  0  0  0  0  0  0  0
    8.3669  -15.7504   26.0442 O   0  0  0  0  0  0  0  0  0  0  0  0
    9.6319  -15.1799   26.0476 C   0  0  0  0  0  0  0  0  0  0  0  0
   10.5500  -16.0628   25.2201 C   0  0  2  0  0  0  0  0  0  0  0  0
    9.8932  -16.5179   24.0103 N   0  0  0  0  0  0  0  0  0  0  0  0
   10.9823  -17.1918   26.0586 C   0  0  0  0  0  0  0  0  0  0  0  0
   11.7268  -16.9276   27.1973 O   0  0  0  0  0  0  0  0  0  0  0  0
   10.6492  -18.3500   25.6931 O   0  0  0  0  0  0  0  0  0  0  0  0
  1  2  1  0
  2  3  2  0
  4  2  1  0
  4  5  1  0
  6  5  1  0
  6  8  1  0
  6  7  1  6
  8  9  2  0
  8 13  1  0
 10 11  1  0
 12 11  1  6
 12 14  1  0
 13 12  1  0
 14 19  1  0
 14 15  2  0
 16 17  1  0
 18 17  1  1
 18 20  1  0
 19 18  1  0
 20 21  1  0
 22 20  2  0
M  END
$$$$
