QSS.pdb
     RDKit          3D

 22 21  0  0  1  0  0  0  0  0999 V2000
    9.8807  -13.9384   16.4108 N   0  0  0  0  0  0  0  0  0  0  0  0
    8.5318  -13.5513   16.6474 C   0  0  0  0  0  0  0  0  0  0  0  0
    7.8384  -13.3070   15.6421 O   0  0  0  0  0  0  0  0  0  0  0  0
    8.0045  -13.4475   17.9901 C   0  0  0  0  0  0  0  0  0  0  0  0
    8.8329  -13.8857   19.1281 C   0  0  0  0  0  0  0  0  0  0  0  0
    8.3076  -14.9489   20.0201 C   0  0  2  0  0  0  0  0  0  0  0  0
    6.8843  -15.0145   20.1216 N   0  0  0  0  0  0  0  0  0  0  0  0
    8.9523  -14.7379   21.3617 C   0  0  0  0  0  0  0  0  0  0  0  0
   10.1970  -14.5015   21.4225 O   0  0  0  0  0  0  0  0  0  0  0  0
    6.6425  -14.7423   24.8497 O   0  0  0  0  0  0  0  0  0  0  0  0
    7.8815  -14.1011   24.8148 C   0  0  0  0  0  0  0  0  0  0  0  0
    8.8191  -14.8223   23.8778 C   0  0  2  0  0  0  0  0  0  0  0  0
    8.2354  -14.7921   22.5508 N   0  0  0  0  0  0  0  0  0  0  0  0
    9.0688  -16.1615   24.3792 C   0  0  0  0  0  0  0  0  0  0  0  0
    8.2810  -17.0957   24.1352 O   0  0  0  0  0  0  0  0  0  0  0  0
   12.8489  -17.1202   25.3248 O   0  0  0  0  0  0  0  0  0  0  0  0
   11.9549  -18.1468   25.0552 C   0  0  0  0  0  0  0  0  0  0  0  0
   10.5962  -17.7453   25.6028 C   0  0  2  0  0  0  0  0  0  0  0  0
   10.2193  -16.4186   25.1558 N   0  0  0  0  0  0  0  0  0  0  0  0
   10.6486  -17.8271   27.0709 C   0  0  0  0  0  0  0  0  0  0  0  0
   10.9672  -19.0412   27.6584 O   0  0  0  0  0  0  0  0  0  0  0  0
   10.3986  -16.7784   27.7221 O   0  0  0  0  0  0  0  0  0  0  0  0
  1  2  1  0
  2  3  2  0
  4  2  1  0
  4  5  1  0
  6  5  1  0
  6  8  1  0
  6  7  1  1
  8  9  2  0
  8 13  1  0
 10 11  1  0
 12 11  1  1
 12 14  1  0
 13 12  1  0
 14 19  1  0
 14 15  2  0
 16 17  1  0
 18 17  1  6
 18 20  1  0
 19 18  1  0
 20 21  1  0
 22 20  2  0
M  END
$$$$
