QSS.pdb
     RDKit          3D

 22 21  0  0  1  0  0  0  0  0999 V2000
   -4.3575  -29.3671   26.0447 N   0  0  0  0  0  0  0  0  0  0  0  0
   -4.0280  -29.1511   24.6772 C   0  0  0  0  0  0  0  0  0  0  0  0
   -3.7955  -30.1660   23.9937 O   0  0  0  0  0  0  0  0  0  0  0  0
   -3.9662  -27.8176   24.1209 C   0  0  0  0  0  0  0  0  0  0  0  0
   -4.3128  -26.6633   24.9699 C   0  0  0  0  0  0  0  0  0  0  0  0
   -4.2925  -25.3075   24.3669 C   0  0  2  0  0  0  0  0  0  0  0  0
   -3.0857  -24.9584   23.6870 N   0  0  0  0  0  0  0  0  0  0  0  0
   -4.6062  -24.3422   25.4758 C   0  0  0  0  0  0  0  0  0  0  0  0
   -3.8495  -24.2970   26.4928 O   0  0  0  0  0  0  0  0  0  0  0  0
   -7.7741  -21.7313   25.0261 O   0  0  0  0  0  0  0  0  0  0  0  0
   -6.7043  -21.3530   25.8384 C   0  0  0  0  0  0  0  0  0  0  0  0
   -6.0829  -22.5661   26.4861 C   0  0  2  0  0  0  0  0  0  0  0  0
   -5.7018  -23.4885   25.4341 N   0  0  0  0  0  0  0  0  0  0  0  0
   -7.0101  -23.1273   27.4518 C   0  0  0  0  0  0  0  0  0  0  0  0
   -7.8071  -24.0289   27.1278 O   0  0  0  0  0  0  0  0  0  0  0  0
   -6.1474  -23.8139   31.2457 O   0  0  0  0  0  0  0  0  0  0  0  0
   -7.2839  -23.0197   31.1890 C   0  0  0  0  0  0  0  0  0  0  0  0
   -7.8970  -23.1710   29.8076 C   0  0  2  0  0  0  0  0  0  0  0  0
   -7.0159  -22.6507   28.7805 N   0  0  0  0  0  0  0  0  0  0  0  0
   -9.1981  -22.4841   29.8032 C   0  0  0  0  0  0  0  0  0  0  0  0
  -10.2293  -23.0079   30.5668 O   0  0  0  0  0  0  0  0  0  0  0  0
   -9.3064  -21.4459   29.0985 O   0  0  0  0  0  0  0  0  0  0  0  0
  1  2  1  0
  2  3  2  0
  4  2  1  0
  4  5  1  0
  6  5  1  0
  6  8  1  0
  6  7  1  1
  8  9  2  0
  8 13  1  0
 10 11  1  0
 12 11  1  6
 12 14  1  0
 13 12  1  0
 14 19  1  0
 14 15  2  0
 16 17  1  0
 18 17  1  1
 18 20  1  0
 19 18  1  0
 20 21  1  0
 22 20  2  0
M  END
$$$$
