QSS.pdb
     RDKit          3D

 22 21  0  0  1  0  0  0  0  0999 V2000
    7.8491  -22.4188   17.9555 N   0  0  0  0  0  0  0  0  0  0  0  0
    7.6898  -21.0137   17.7959 C   0  0  0  0  0  0  0  0  0  0  0  0
    6.5924  -20.5354   18.1396 O   0  0  0  0  0  0  0  0  0  0  0  0
    8.7528  -20.1933   17.2587 C   0  0  0  0  0  0  0  0  0  0  0  0
    9.5959  -19.4087   18.1790 C   0  0  0  0  0  0  0  0  0  0  0  0
    8.9353  -18.4773   19.1267 C   0  0  2  0  0  0  0  0  0  0  0  0
    8.4446  -17.2654   18.5515 N   0  0  0  0  0  0  0  0  0  0  0  0
    9.9270  -18.2109   20.2248 C   0  0  0  0  0  0  0  0  0  0  0  0
   11.1449  -18.0167   19.9283 O   0  0  0  0  0  0  0  0  0  0  0  0
    8.5645  -17.3932   24.0252 O   0  0  0  0  0  0  0  0  0  0  0  0
    9.7858  -16.8895   23.5755 C   0  0  0  0  0  0  0  0  0  0  0  0
   10.4620  -17.8867   22.6670 C   0  0  2  0  0  0  0  0  0  0  0  0
    9.5626  -18.1687   21.5651 N   0  0  0  0  0  0  0  0  0  0  0  0
   10.8389  -19.0609   23.4326 C   0  0  0  0  0  0  0  0  0  0  0  0
    9.9823  -19.8837   23.8098 O   0  0  0  0  0  0  0  0  0  0  0  0
   14.7965  -19.4759   24.4822 O   0  0  0  0  0  0  0  0  0  0  0  0
   14.1508  -20.6796   24.2373 C   0  0  0  0  0  0  0  0  0  0  0  0
   12.6618  -20.4683   24.4500 C   0  0  2  0  0  0  0  0  0  0  0  0
   12.1943  -19.2823   23.7594 N   0  0  0  0  0  0  0  0  0  0  0  0
   12.4102  -20.3861   25.8973 C   0  0  0  0  0  0  0  0  0  0  0  0
   12.6862  -21.4932   26.6841 O   0  0  0  0  0  0  0  0  0  0  0  0
   11.9527  -19.3030   26.3485 O   0  0  0  0  0  0  0  0  0  0  0  0
  1  2  1  0
  2  3  2  0
  4  2  1  0
  4  5  1  0
  6  5  1  0
  6  8  1  0
  6  7  1  6
  8  9  2  0
  8 13  1  0
 10 11  1  0
 12 11  1  1
 12 14  1  0
 13 12  1  0
 14 19  1  0
 14 15  2  0
 16 17  1  0
 18 17  1  1
 18 20  1  0
 19 18  1  0
 20 21  1  0
 22 20  2  0
M  END
$$$$
