QSS.pdb
     RDKit          3D

 22 21  0  0  1  0  0  0  0  0999 V2000
    9.0149  -12.0408   18.4915 N   0  0  0  0  0  0  0  0  0  0  0  0
    8.0212  -13.0554   18.3996 C   0  0  0  0  0  0  0  0  0  0  0  0
    7.8047  -13.5213   17.2650 O   0  0  0  0  0  0  0  0  0  0  0  0
    7.3039  -13.5126   19.5692 C   0  0  0  0  0  0  0  0  0  0  0  0
    7.9124  -14.5390   20.4351 C   0  0  0  0  0  0  0  0  0  0  0  0
    8.4010  -15.7940   19.8120 C   0  0  2  0  0  0  0  0  0  0  0  0
    7.4229  -16.5354   19.0813 N   0  0  0  0  0  0  0  0  0  0  0  0
    9.0078  -16.6118   20.9179 C   0  0  0  0  0  0  0  0  0  0  0  0
    8.2578  -17.0815   21.8266 O   0  0  0  0  0  0  0  0  0  0  0  0
   13.0609  -16.8972   21.1214 O   0  0  0  0  0  0  0  0  0  0  0  0
   12.3900  -18.0778   21.4430 C   0  0  0  0  0  0  0  0  0  0  0  0
   10.9988  -17.7716   21.9410 C   0  0  2  0  0  0  0  0  0  0  0  0
   10.3700  -16.8773   20.9884 N   0  0  0  0  0  0  0  0  0  0  0  0
   11.0740  -17.2359   23.2880 C   0  0  0  0  0  0  0  0  0  0  0  0
   11.1886  -16.0110   23.4865 O   0  0  0  0  0  0  0  0  0  0  0  0
    9.0851  -16.5105   25.7327 O   0  0  0  0  0  0  0  0  0  0  0  0
    9.7774  -17.4971   26.4205 C   0  0  0  0  0  0  0  0  0  0  0  0
   11.1399  -17.6589   25.7690 C   0  0  2  0  0  0  0  0  0  0  0  0
   11.0172  -18.1086   24.3962 N   0  0  0  0  0  0  0  0  0  0  0  0
   11.9286  -18.6009   26.5785 C   0  0  0  0  0  0  0  0  0  0  0  0
   12.3703  -19.7754   25.9901 O   0  0  0  0  0  0  0  0  0  0  0  0
   12.1628  -18.2864   27.7754 O   0  0  0  0  0  0  0  0  0  0  0  0
  1  2  1  0
  2  3  2  0
  4  2  1  0
  4  5  1  0
  6  5  1  0
  6  8  1  0
  6  7  1  1
  8  9  2  0
  8 13  1  0
 10 11  1  0
 12 11  1  6
 12 14  1  0
 13 12  1  0
 14 19  1  0
 14 15  2  0
 16 17  1  0
 18 17  1  1
 18 20  1  0
 19 18  1  0
 20 21  1  0
 22 20  2  0
M  END
$$$$
