QSS.pdb
     RDKit          3D

 22 21  0  0  1  0  0  0  0  0999 V2000
    9.2247  -14.9194   13.9836 N   0  0  0  0  0  0  0  0  0  0  0  0
    8.1856  -14.5135   14.8673 C   0  0  0  0  0  0  0  0  0  0  0  0
    7.5754  -13.4702   14.5667 O   0  0  0  0  0  0  0  0  0  0  0  0
    7.8650  -15.2787   16.0518 C   0  0  0  0  0  0  0  0  0  0  0  0
    8.6730  -16.4656   16.3864 C   0  0  0  0  0  0  0  0  0  0  0  0
    8.4057  -17.1681   17.6659 C   0  0  2  0  0  0  0  0  0  0  0  0
    7.0281  -17.2780   18.0273 N   0  0  0  0  0  0  0  0  0  0  0  0
    9.2026  -16.4522   18.7206 C   0  0  0  0  0  0  0  0  0  0  0  0
   10.4501  -16.2931   18.5556 O   0  0  0  0  0  0  0  0  0  0  0  0
    7.3959  -15.1946   22.3358 O   0  0  0  0  0  0  0  0  0  0  0  0
    8.3827  -14.4300   21.7122 C   0  0  0  0  0  0  0  0  0  0  0  0
    9.3469  -15.3225   20.9698 C   0  0  2  0  0  0  0  0  0  0  0  0
    8.6249  -15.9526   19.8815 N   0  0  0  0  0  0  0  0  0  0  0  0
    9.9482  -16.2629   21.8978 C   0  0  0  0  0  0  0  0  0  0  0  0
    9.3907  -17.3443   22.1676 O   0  0  0  0  0  0  0  0  0  0  0  0
   13.5301  -15.2252   23.7403 O   0  0  0  0  0  0  0  0  0  0  0  0
   13.3722  -16.5678   23.4269 C   0  0  0  0  0  0  0  0  0  0  0  0
   11.8845  -16.8715   23.3874 C   0  0  2  0  0  0  0  0  0  0  0  0
   11.1833  -15.9560   22.5086 N   0  0  0  0  0  0  0  0  0  0  0  0
   11.3645  -16.8071   24.7622 C   0  0  0  0  0  0  0  0  0  0  0  0
   10.3851  -15.8727   25.0597 O   0  0  0  0  0  0  0  0  0  0  0  0
   11.8420  -17.6129   25.6040 O   0  0  0  0  0  0  0  0  0  0  0  0
  1  2  1  0
  2  3  2  0
  4  2  1  0
  4  5  1  0
  6  5  1  0
  6  8  1  0
  6  7  1  1
  8  9  2  0
  8 13  1  0
 10 11  1  0
 12 11  1  1
 12 14  1  0
 13 12  1  0
 14 19  1  0
 14 15  2  0
 16 17  1  0
 18 17  1  1
 18 20  1  0
 19 18  1  0
 20 21  1  0
 22 20  2  0
M  END
$$$$
