QSS.pdb
     RDKit          3D

 22 21  0  0  1  0  0  0  0  0999 V2000
    9.6527  -17.5239   17.8311 N   0  0  0  0  0  0  0  0  0  0  0  0
    8.2634  -17.3502   17.5764 C   0  0  0  0  0  0  0  0  0  0  0  0
    7.4891  -18.1367   18.1536 O   0  0  0  0  0  0  0  0  0  0  0  0
    7.7862  -16.3126   16.6891 C   0  0  0  0  0  0  0  0  0  0  0  0
    6.9150  -15.2496   17.2223 C   0  0  0  0  0  0  0  0  0  0  0  0
    7.5218  -13.9384   17.5611 C   0  0  2  0  0  0  0  0  0  0  0  0
    8.3245  -13.3524   16.5352 N   0  0  0  0  0  0  0  0  0  0  0  0
    8.3022  -14.1440   18.8295 C   0  0  0  0  0  0  0  0  0  0  0  0
    9.5550  -14.3315   18.7646 O   0  0  0  0  0  0  0  0  0  0  0  0
    6.5553  -15.2752   22.4980 O   0  0  0  0  0  0  0  0  0  0  0  0
    7.3920  -14.1592   22.4563 C   0  0  0  0  0  0  0  0  0  0  0  0
    8.4015  -14.3016   21.3436 C   0  0  2  0  0  0  0  0  0  0  0  0
    7.7033  -14.1382   20.0833 N   0  0  0  0  0  0  0  0  0  0  0  0
    9.0886  -15.5736   21.4736 C   0  0  0  0  0  0  0  0  0  0  0  0
    9.2010  -16.3451   20.5014 O   0  0  0  0  0  0  0  0  0  0  0  0
   13.2125  -16.6134   22.4551 O   0  0  0  0  0  0  0  0  0  0  0  0
   12.0555  -15.8626   22.3020 C   0  0  0  0  0  0  0  0  0  0  0  0
   10.8914  -16.6737   22.8442 C   0  0  2  0  0  0  0  0  0  0  0  0
    9.6412  -15.9508   22.7167 N   0  0  0  0  0  0  0  0  0  0  0  0
   11.1798  -17.0130   24.2465 C   0  0  0  0  0  0  0  0  0  0  0  0
   12.0390  -18.0674   24.5125 O   0  0  0  0  0  0  0  0  0  0  0  0
   10.6247  -16.3198   25.1395 O   0  0  0  0  0  0  0  0  0  0  0  0
  1  2  1  0
  2  3  2  0
  4  2  1  0
  4  5  1  0
  6  5  1  0
  6  8  1  0
  6  7  1  6
  8  9  2  0
  8 13  1  0
 10 11  1  0
 12 11  1  1
 12 14  1  0
 13 12  1  0
 14 19  1  0
 14 15  2  0
 16 17  1  0
 18 17  1  1
 18 20  1  0
 19 18  1  0
 20 21  1  0
 22 20  2  0
M  END
$$$$
