QSS.pdb
     RDKit          3D

 22 21  0  0  1  0  0  0  0  0999 V2000
    9.4425  -13.9769   16.9946 N   0  0  0  0  0  0  0  0  0  0  0  0
    8.0295  -14.0222   17.1577 C   0  0  0  0  0  0  0  0  0  0  0  0
    7.3744  -14.4912   16.2079 O   0  0  0  0  0  0  0  0  0  0  0  0
    7.3970  -13.5432   18.3668 C   0  0  0  0  0  0  0  0  0  0  0  0
    8.2357  -13.0621   19.4797 C   0  0  0  0  0  0  0  0  0  0  0  0
    9.0347  -14.0512   20.2449 C   0  0  2  0  0  0  0  0  0  0  0  0
    9.0425  -15.3759   19.7108 N   0  0  0  0  0  0  0  0  0  0  0  0
    8.5134  -14.0222   21.6547 C   0  0  0  0  0  0  0  0  0  0  0  0
    8.4149  -12.9108   22.2579 O   0  0  0  0  0  0  0  0  0  0  0  0
    7.8009  -17.6150   23.8780 O   0  0  0  0  0  0  0  0  0  0  0  0
    6.9671  -16.4984   23.9504 C   0  0  0  0  0  0  0  0  0  0  0  0
    7.7627  -15.2346   23.7338 C   0  0  2  0  0  0  0  0  0  0  0  0
    8.1316  -15.1735   22.3327 N   0  0  0  0  0  0  0  0  0  0  0  0
    8.8959  -15.2147   24.6407 C   0  0  0  0  0  0  0  0  0  0  0  0
   10.0427  -15.4949   24.2417 O   0  0  0  0  0  0  0  0  0  0  0  0
    8.2428  -13.5634   28.2560 O   0  0  0  0  0  0  0  0  0  0  0  0
    9.5813  -13.5862   27.8903 C   0  0  0  0  0  0  0  0  0  0  0  0
    9.7933  -14.7589   26.9484 C   0  0  2  0  0  0  0  0  0  0  0  0
    8.7051  -14.8738   25.9973 N   0  0  0  0  0  0  0  0  0  0  0  0
    9.9361  -15.9795   27.7573 C   0  0  0  0  0  0  0  0  0  0  0  0
   10.9831  -16.0592   28.6619 O   0  0  0  0  0  0  0  0  0  0  0  0
    9.0904  -16.8963   27.5828 O   0  0  0  0  0  0  0  0  0  0  0  0
  1  2  1  0
  2  3  2  0
  4  2  1  0
  4  5  1  0
  6  5  1  0
  6  8  1  0
  6  7  1  6
  8  9  2  0
  8 13  1  0
 10 11  1  0
 12 11  1  6
 12 14  1  0
 13 12  1  0
 14 19  1  0
 14 15  2  0
 16 17  1  0
 18 17  1  1
 18 20  1  0
 19 18  1  0
 20 21  1  0
 22 20  2  0
M  END
$$$$
