QSS.pdb
     RDKit          3D

 22 21  0  0  1  0  0  0  0  0999 V2000
    8.3564  -12.5643   15.3247 N   0  0  0  0  0  0  0  0  0  0  0  0
    7.8856  -13.8617   14.9777 C   0  0  0  0  0  0  0  0  0  0  0  0
    7.0732  -13.9254   14.0358 O   0  0  0  0  0  0  0  0  0  0  0  0
    8.3317  -15.0383   15.6905 C   0  0  0  0  0  0  0  0  0  0  0  0
    9.2232  -14.8839   16.8544 C   0  0  0  0  0  0  0  0  0  0  0  0
    9.6709  -16.1032   17.5719 C   0  0  2  0  0  0  0  0  0  0  0  0
    9.0321  -17.3170   17.1731 N   0  0  0  0  0  0  0  0  0  0  0  0
    9.4812  -15.8299   19.0380 C   0  0  0  0  0  0  0  0  0  0  0  0
    9.9826  -14.7806   19.5443 O   0  0  0  0  0  0  0  0  0  0  0  0
    7.1941  -17.0049   23.1245 O   0  0  0  0  0  0  0  0  0  0  0  0
    7.3670  -17.1629   21.7488 C   0  0  0  0  0  0  0  0  0  0  0  0
    8.6824  -16.5651   21.3133 C   0  0  2  0  0  0  0  0  0  0  0  0
    8.7731  -16.6873   19.8713 N   0  0  0  0  0  0  0  0  0  0  0  0
    9.7680  -17.2127   22.0270 C   0  0  0  0  0  0  0  0  0  0  0  0
   10.1087  -18.3802   21.7554 O   0  0  0  0  0  0  0  0  0  0  0  0
   13.6064  -16.6633   24.8596 O   0  0  0  0  0  0  0  0  0  0  0  0
   12.5411  -16.0298   24.2356 C   0  0  0  0  0  0  0  0  0  0  0  0
   11.5455  -17.0934   23.8060 C   0  0  2  0  0  0  0  0  0  0  0  0
   10.4540  -16.5167   23.0457 N   0  0  0  0  0  0  0  0  0  0  0  0
   11.0600  -17.7836   25.0112 C   0  0  0  0  0  0  0  0  0  0  0  0
   11.8920  -18.7014   25.6326 O   0  0  0  0  0  0  0  0  0  0  0  0
    9.9022  -17.5006   25.4181 O   0  0  0  0  0  0  0  0  0  0  0  0
  1  2  1  0
  2  3  2  0
  4  2  1  0
  4  5  1  0
  6  5  1  0
  6  8  1  0
  6  7  1  6
  8  9  2  0
  8 13  1  0
 10 11  1  0
 12 11  1  1
 12 14  1  0
 13 12  1  0
 14 19  1  0
 14 15  2  0
 16 17  1  0
 18 17  1  1
 18 20  1  0
 19 18  1  0
 20 21  1  0
 22 20  2  0
M  END
$$$$
