QSS.pdb
     RDKit          3D

 22 21  0  0  1  0  0  0  0  0999 V2000
   12.9902  -19.9409   18.9553 N   0  0  0  0  0  0  0  0  0  0  0  0
   12.4004  -20.3740   17.7347 C   0  0  0  0  0  0  0  0  0  0  0  0
   13.1198  -21.0552   16.9800 O   0  0  0  0  0  0  0  0  0  0  0  0
   11.0363  -20.0327   17.3968 C   0  0  0  0  0  0  0  0  0  0  0  0
   10.2028  -19.3229   18.3842 C   0  0  0  0  0  0  0  0  0  0  0  0
    9.6343  -18.0029   18.0147 C   0  0  2  0  0  0  0  0  0  0  0  0
   10.1783  -17.4115   16.8337 N   0  0  0  0  0  0  0  0  0  0  0  0
    9.8074  -17.1127   19.2137 C   0  0  0  0  0  0  0  0  0  0  0  0
   10.9754  -16.8731   19.6462 O   0  0  0  0  0  0  0  0  0  0  0  0
    6.5599  -16.1207   21.6608 O   0  0  0  0  0  0  0  0  0  0  0  0
    7.4620  -15.1114   21.3219 C   0  0  0  0  0  0  0  0  0  0  0  0
    8.8272  -15.6961   21.0544 C   0  0  2  0  0  0  0  0  0  0  0  0
    8.7307  -16.5355   19.8760 N   0  0  0  0  0  0  0  0  0  0  0  0
    9.2940  -16.3961   22.2373 C   0  0  0  0  0  0  0  0  0  0  0  0
    9.2436  -17.6391   22.3096 O   0  0  0  0  0  0  0  0  0  0  0  0
   12.3054  -16.5900   25.8180 O   0  0  0  0  0  0  0  0  0  0  0  0
   11.8489  -15.9788   24.6588 C   0  0  0  0  0  0  0  0  0  0  0  0
   10.3700  -16.2918   24.5111 C   0  0  2  0  0  0  0  0  0  0  0  0
    9.8148  -15.6655   23.3272 N   0  0  0  0  0  0  0  0  0  0  0  0
    9.6807  -15.8469   25.7324 C   0  0  0  0  0  0  0  0  0  0  0  0
    9.8915  -16.5492   26.9084 O   0  0  0  0  0  0  0  0  0  0  0  0
    8.9281  -14.8410   25.6430 O   0  0  0  0  0  0  0  0  0  0  0  0
  1  2  1  0
  2  3  2  0
  4  2  1  0
  4  5  1  0
  6  5  1  0
  6  8  1  0
  6  7  1  6
  8  9  2  0
  8 13  1  0
 10 11  1  0
 12 11  1  1
 12 14  1  0
 13 12  1  0
 14 19  1  0
 14 15  2  0
 16 17  1  0
 18 17  1  1
 18 20  1  0
 19 18  1  0
 20 21  1  0
 22 20  2  0
M  END
$$$$
