QSS.pdb
     RDKit          3D

 22 21  0  0  1  0  0  0  0  0999 V2000
    8.9468  -14.9766   14.4614 N   0  0  0  0  0  0  0  0  0  0  0  0
    7.8503  -15.8330   14.7605 C   0  0  0  0  0  0  0  0  0  0  0  0
    7.4138  -16.5266   13.8225 O   0  0  0  0  0  0  0  0  0  0  0  0
    7.2781  -15.8855   16.0877 C   0  0  0  0  0  0  0  0  0  0  0  0
    8.0309  -16.5383   17.1742 C   0  0  0  0  0  0  0  0  0  0  0  0
    7.4118  -16.6132   18.5208 C   0  0  2  0  0  0  0  0  0  0  0  0
    6.0470  -16.1973   18.5906 N   0  0  0  0  0  0  0  0  0  0  0  0
    8.2873  -15.8066   19.4388 C   0  0  0  0  0  0  0  0  0  0  0  0
    9.3056  -15.2162   18.9663 O   0  0  0  0  0  0  0  0  0  0  0  0
    7.0459  -14.6934   23.1811 O   0  0  0  0  0  0  0  0  0  0  0  0
    8.1467  -14.0839   22.5777 C   0  0  0  0  0  0  0  0  0  0  0  0
    8.9272  -15.0918   21.7702 C   0  0  2  0  0  0  0  0  0  0  0  0
    8.0263  -15.6794   20.7977 N   0  0  0  0  0  0  0  0  0  0  0  0
    9.5384  -16.0588   22.6638 C   0  0  0  0  0  0  0  0  0  0  0  0
    8.9409  -17.1045   22.9840 O   0  0  0  0  0  0  0  0  0  0  0  0
   13.3157  -15.5859   23.0315 O   0  0  0  0  0  0  0  0  0  0  0  0
   13.0231  -16.4593   24.0693 C   0  0  0  0  0  0  0  0  0  0  0  0
   11.5361  -16.7658   24.0232 C   0  0  2  0  0  0  0  0  0  0  0  0
   10.8292  -15.8192   23.1828 N   0  0  0  0  0  0  0  0  0  0  0  0
   11.0208  -16.7559   25.4013 C   0  0  0  0  0  0  0  0  0  0  0  0
   11.4783  -17.7166   26.2892 O   0  0  0  0  0  0  0  0  0  0  0  0
   10.1828  -15.8657   25.7035 O   0  0  0  0  0  0  0  0  0  0  0  0
  1  2  1  0
  2  3  2  0
  4  2  1  0
  4  5  1  0
  6  5  1  0
  6  8  1  0
  6  7  1  6
  8  9  2  0
  8 13  1  0
 10 11  1  0
 12 11  1  1
 12 14  1  0
 13 12  1  0
 14 19  1  0
 14 15  2  0
 16 17  1  0
 18 17  1  1
 18 20  1  0
 19 18  1  0
 20 21  1  0
 22 20  2  0
M  END
$$$$
