QSS.pdb
     RDKit          3D

 22 21  0  0  1  0  0  0  0  0999 V2000
    7.0135  -15.2080   17.4153 N   0  0  0  0  0  0  0  0  0  0  0  0
    7.7290  -14.0029   17.1685 C   0  0  0  0  0  0  0  0  0  0  0  0
    8.0501  -13.7785   15.9862 O   0  0  0  0  0  0  0  0  0  0  0  0
    8.0633  -13.0941   18.2427 C   0  0  0  0  0  0  0  0  0  0  0  0
    7.7450  -13.4693   19.6325 C   0  0  0  0  0  0  0  0  0  0  0  0
    8.8008  -14.1126   20.4532 C   0  0  2  0  0  0  0  0  0  0  0  0
    9.2590  -15.3790   19.9772 N   0  0  0  0  0  0  0  0  0  0  0  0
    8.2566  -14.2069   21.8514 C   0  0  0  0  0  0  0  0  0  0  0  0
    7.9356  -13.1449   22.4661 O   0  0  0  0  0  0  0  0  0  0  0  0
    8.1138  -17.9185   23.9134 O   0  0  0  0  0  0  0  0  0  0  0  0
    7.1043  -16.9644   24.0479 C   0  0  0  0  0  0  0  0  0  0  0  0
    7.6708  -15.5751   23.8863 C   0  0  2  0  0  0  0  0  0  0  0  0
    8.0891  -15.4209   22.5065 N   0  0  0  0  0  0  0  0  0  0  0  0
    8.7377  -15.3724   24.8495 C   0  0  0  0  0  0  0  0  0  0  0  0
    9.9323  -15.5130   24.5236 O   0  0  0  0  0  0  0  0  0  0  0  0
    8.6348  -12.5945   27.5131 O   0  0  0  0  0  0  0  0  0  0  0  0
    8.9754  -13.7475   28.2061 C   0  0  0  0  0  0  0  0  0  0  0  0
    9.4330  -14.7867   27.1973 C   0  0  2  0  0  0  0  0  0  0  0  0
    8.4265  -15.0102   26.1779 N   0  0  0  0  0  0  0  0  0  0  0  0
    9.7512  -16.0257   27.9242 C   0  0  0  0  0  0  0  0  0  0  0  0
   10.7113  -15.9830   28.9228 O   0  0  0  0  0  0  0  0  0  0  0  0
    9.1275  -17.0698   27.5969 O   0  0  0  0  0  0  0  0  0  0  0  0
  1  2  1  0
  2  3  2  0
  4  2  1  0
  4  5  1  0
  6  5  1  0
  6  8  1  0
  6  7  1  6
  8  9  2  0
  8 13  1  0
 10 11  1  0
 12 11  1  6
 12 14  1  0
 13 12  1  0
 14 19  1  0
 14 15  2  0
 16 17  1  0
 18 17  1  1
 18 20  1  0
 19 18  1  0
 20 21  1  0
 22 20  2  0
M  END
$$$$
