YFS.pdb
     RDKit          3D

 30 31  0  0  1  0  0  0  0  0999 V2000
    8.4587  -14.3507   15.2049 O   0  0  0  0  0  0  0  0  0  0  0  0
    8.3141  -14.2683   16.5926 C   0  0  0  0  0  0  0  0  0  0  0  0
    7.8095  -13.1338   17.1931 C   0  0  0  0  0  0  0  0  0  0  0  0
    7.6689  -13.0581   18.5636 C   0  0  0  0  0  0  0  0  0  0  0  0
    8.0227  -14.1045   19.3977 C   0  0  0  0  0  0  0  0  0  0  0  0
    7.8595  -13.9935   20.8730 C   0  0  0  0  0  0  0  0  0  0  0  0
    7.1449  -15.1897   21.4596 C   0  0  2  0  0  0  0  0  0  0  0  0
    5.7634  -15.2607   21.0925 N   0  0  0  0  0  0  0  0  0  0  0  0
    7.3484  -15.1461   22.9306 C   0  0  0  0  0  0  0  0  0  0  0  0
    6.8303  -14.1923   23.5628 O   0  0  0  0  0  0  0  0  0  0  0  0
    8.5267  -15.2358   18.7881 C   0  0  0  0  0  0  0  0  0  0  0  0
    8.6690  -15.3155   17.4171 C   0  0  0  0  0  0  0  0  0  0  0  0
    8.0874  -16.1111   23.6541 N   0  0  0  0  0  0  0  0  0  0  0  0
    8.8712  -15.7184   24.7779 C   0  0  1  0  0  0  0  0  0  0  0  0
    8.0253  -15.3840   25.9879 C   0  0  0  0  0  0  0  0  0  0  0  0
    8.8121  -14.9018   27.1333 C   0  0  0  0  0  0  0  0  0  0  0  0
    9.3231  -15.7436   28.0936 C   0  0  0  0  0  0  0  0  0  0  0  0
   10.0650  -15.2618   29.1694 C   0  0  0  0  0  0  0  0  0  0  0  0
   10.3150  -13.9134   29.3103 C   0  0  0  0  0  0  0  0  0  0  0  0
    9.8085  -13.0662   28.3562 C   0  0  0  0  0  0  0  0  0  0  0  0
    9.0803  -13.5597   27.3040 C   0  0  0  0  0  0  0  0  0  0  0  0
    9.9353  -16.6901   25.0281 C   0  0  0  0  0  0  0  0  0  0  0  0
    9.7275  -17.9191   25.2889 O   0  0  0  0  0  0  0  0  0  0  0  0
   13.7292  -15.3540   24.6179 O   0  0  0  0  0  0  0  0  0  0  0  0
   13.5470  -16.6806   24.2509 C   0  0  0  0  0  0  0  0  0  0  0  0
   12.3790  -17.2158   25.0758 C   0  0  2  0  0  0  0  0  0  0  0  0
   11.2891  -16.2772   24.9841 N   0  0  0  0  0  0  0  0  0  0  0  0
   12.8506  -17.2579   26.4747 C   0  0  0  0  0  0  0  0  0  0  0  0
   12.3599  -16.5396   27.3777 O   0  0  0  0  0  0  0  0  0  0  0  0
   13.8782  -18.1244   26.8132 O   0  0  0  0  0  0  0  0  0  0  0  0
  2  3  2  0
  2  1  1  0
  4  3  1  0
  5  4  2  0
  6  5  1  0
  7  6  1  0
  7  8  1  1
  9  7  1  0
  9 10  2  0
 11  5  1  0
 11 12  2  0
 12  2  1  0
 13  9  1  0
 14 13  1  0
 14 15  1  1
 16 15  1  0
 16 17  2  0
 18 17  1  0
 19 18  2  0
 20 21  2  0
 20 19  1  0
 21 16  1  0
 22 14  1  0
 23 22  2  0
 25 24  1  0
 26 25  1  6
 26 27  1  0
 27 22  1  0
 28 26  1  0
 28 30  1  0
 29 28  2  0
M  END
$$$$
