YFS.pdb
     RDKit          3D

 30 31  0  0  1  0  0  0  0  0999 V2000
    7.0148  -12.2161   17.6539 O   0  0  0  0  0  0  0  0  0  0  0  0
    7.8238  -13.2063   18.2181 C   0  0  0  0  0  0  0  0  0  0  0  0
    8.8539  -12.8849   19.0770 C   0  0  0  0  0  0  0  0  0  0  0  0
    9.6493  -13.8668   19.6311 C   0  0  0  0  0  0  0  0  0  0  0  0
    9.4573  -15.2098   19.3573 C   0  0  0  0  0  0  0  0  0  0  0  0
   10.3318  -16.2467   19.9703 C   0  0  0  0  0  0  0  0  0  0  0  0
    9.5663  -17.1635   20.8971 C   0  0  2  0  0  0  0  0  0  0  0  0
    8.3264  -17.6194   20.3464 N   0  0  0  0  0  0  0  0  0  0  0  0
    9.3942  -16.4436   22.1852 C   0  0  0  0  0  0  0  0  0  0  0  0
   10.4032  -15.8799   22.6773 O   0  0  0  0  0  0  0  0  0  0  0  0
    8.4241  -15.5222   18.4968 C   0  0  0  0  0  0  0  0  0  0  0  0
    7.6259  -14.5427   17.9402 C   0  0  0  0  0  0  0  0  0  0  0  0
    8.1672  -16.3578   22.8836 N   0  0  0  0  0  0  0  0  0  0  0  0
    8.1026  -15.6845   24.1382 C   0  0  1  0  0  0  0  0  0  0  0  0
    6.9651  -14.6879   24.2049 C   0  0  0  0  0  0  0  0  0  0  0  0
    6.9321  -13.9248   25.4619 C   0  0  0  0  0  0  0  0  0  0  0  0
    6.2272  -14.3403   26.5675 C   0  0  0  0  0  0  0  0  0  0  0  0
    6.2116  -13.5992   27.7467 C   0  0  0  0  0  0  0  0  0  0  0  0
    6.9079  -12.4136   27.8474 C   0  0  0  0  0  0  0  0  0  0  0  0
    7.6142  -11.9916   26.7484 C   0  0  0  0  0  0  0  0  0  0  0  0
    7.6173  -12.7354   25.5961 C   0  0  0  0  0  0  0  0  0  0  0  0
    8.1361  -16.6453   25.2403 C   0  0  0  0  0  0  0  0  0  0  0  0
    7.2306  -17.5154   25.4514 O   0  0  0  0  0  0  0  0  0  0  0  0
   11.2408  -18.4030   26.1002 O   0  0  0  0  0  0  0  0  0  0  0  0
   10.0535  -18.8379   26.6736 C   0  0  0  0  0  0  0  0  0  0  0  0
    9.3386  -17.6012   27.2128 C   0  0  2  0  0  0  0  0  0  0  0  0
    9.2252  -16.6394   26.1454 N   0  0  0  0  0  0  0  0  0  0  0  0
   10.2178  -17.0438   28.2603 C   0  0  0  0  0  0  0  0  0  0  0  0
   10.7397  -15.9070   28.1735 O   0  0  0  0  0  0  0  0  0  0  0  0
   10.4832  -17.8014   29.3903 O   0  0  0  0  0  0  0  0  0  0  0  0
  2  3  2  0
  2  1  1  0
  4  3  1  0
  5  4  2  0
  6  5  1  0
  7  6  1  0
  7  8  1  6
  9  7  1  0
  9 10  2  0
 11  5  1  0
 11 12  2  0
 12  2  1  0
 13  9  1  0
 14 13  1  0
 14 15  1  6
 16 15  1  0
 16 17  2  0
 18 17  1  0
 19 18  2  0
 20 21  2  0
 20 19  1  0
 21 16  1  0
 22 14  1  0
 23 22  2  0
 25 24  1  0
 26 25  1  6
 26 27  1  0
 27 22  1  0
 28 26  1  0
 28 30  1  0
 29 28  2  0
M  END
$$$$
