YFS.pdb
     RDKit          3D

 30 31  0  0  1  0  0  0  0  0999 V2000
    7.1357  -13.4344   15.4138 O   0  0  0  0  0  0  0  0  0  0  0  0
    7.5807  -13.9676   16.6267 C   0  0  0  0  0  0  0  0  0  0  0  0
    8.2193  -13.1810   17.5624 C   0  0  0  0  0  0  0  0  0  0  0  0
    8.6565  -13.7128   18.7582 C   0  0  0  0  0  0  0  0  0  0  0  0
    8.4791  -15.0478   19.0774 C   0  0  0  0  0  0  0  0  0  0  0  0
    8.9617  -15.5930   20.3757 C   0  0  0  0  0  0  0  0  0  0  0  0
    9.5641  -14.5216   21.2559 C   0  0  2  0  0  0  0  0  0  0  0  0
   10.8594  -14.0941   20.8225 N   0  0  0  0  0  0  0  0  0  0  0  0
    9.5656  -15.0440   22.6467 C   0  0  0  0  0  0  0  0  0  0  0  0
   10.6712  -15.3708   23.1455 O   0  0  0  0  0  0  0  0  0  0  0  0
    7.8391  -15.8275   18.1352 C   0  0  0  0  0  0  0  0  0  0  0  0
    7.4001  -15.2992   16.9375 C   0  0  0  0  0  0  0  0  0  0  0  0
    8.4006  -15.1929   23.4351 N   0  0  0  0  0  0  0  0  0  0  0  0
    8.4995  -15.6597   24.7782 C   0  0  1  0  0  0  0  0  0  0  0  0
    7.2699  -15.3332   25.5986 C   0  0  0  0  0  0  0  0  0  0  0  0
    7.2198  -13.9311   26.0404 C   0  0  0  0  0  0  0  0  0  0  0  0
    6.1564  -13.1020   25.7692 C   0  0  0  0  0  0  0  0  0  0  0  0
    6.1332  -11.7772   26.1986 C   0  0  0  0  0  0  0  0  0  0  0  0
    7.1840  -11.2466   26.9161 C   0  0  0  0  0  0  0  0  0  0  0  0
    8.2495  -12.0674   27.1911 C   0  0  0  0  0  0  0  0  0  0  0  0
    8.2539  -13.3693   26.7597 C   0  0  0  0  0  0  0  0  0  0  0  0
    8.8943  -17.0676   24.8061 C   0  0  0  0  0  0  0  0  0  0  0  0
    8.7225  -17.8725   23.8344 O   0  0  0  0  0  0  0  0  0  0  0  0
   12.3428  -19.6532   25.1115 O   0  0  0  0  0  0  0  0  0  0  0  0
   11.5571  -18.5089   25.0800 C   0  0  0  0  0  0  0  0  0  0  0  0
   10.3154  -18.7964   25.9206 C   0  0  2  0  0  0  0  0  0  0  0  0
    9.5089  -17.6026   25.9642 N   0  0  0  0  0  0  0  0  0  0  0  0
   10.8023  -19.0883   27.2840 C   0  0  0  0  0  0  0  0  0  0  0  0
   10.5976  -18.3227   28.2557 O   0  0  0  0  0  0  0  0  0  0  0  0
   11.5163  -20.2549   27.5088 O   0  0  0  0  0  0  0  0  0  0  0  0
  2  3  2  0
  2  1  1  0
  4  3  1  0
  5  4  2  0
  6  5  1  0
  7  6  1  0
  7  8  1  6
  9  7  1  0
  9 10  2  0
 11  5  1  0
 11 12  2  0
 12  2  1  0
 13  9  1  0
 14 13  1  0
 14 15  1  6
 16 15  1  0
 16 17  2  0
 18 17  1  0
 19 18  2  0
 20 21  2  0
 20 19  1  0
 21 16  1  0
 22 14  1  0
 23 22  2  0
 25 24  1  0
 26 25  1  6
 26 27  1  0
 27 22  1  0
 28 26  1  0
 28 30  1  0
 29 28  2  0
M  END
$$$$
