YFS.pdb
     RDKit          3D

 30 31  0  0  1  0  0  0  0  0999 V2000
    7.3436  -13.7761   15.9205 O   0  0  0  0  0  0  0  0  0  0  0  0
    7.7526  -13.8782   17.2531 C   0  0  0  0  0  0  0  0  0  0  0  0
    8.6597  -14.8377   17.6515 C   0  0  0  0  0  0  0  0  0  0  0  0
    9.0598  -14.9337   18.9684 C   0  0  0  0  0  0  0  0  0  0  0  0
    8.5774  -14.0823   19.9472 C   0  0  0  0  0  0  0  0  0  0  0  0
    9.0277  -14.2103   21.3602 C   0  0  0  0  0  0  0  0  0  0  0  0
    9.0605  -15.6500   21.8204 C   0  0  2  0  0  0  0  0  0  0  0  0
    7.9238  -16.4075   21.3933 N   0  0  0  0  0  0  0  0  0  0  0  0
    9.2215  -15.6363   23.2972 C   0  0  0  0  0  0  0  0  0  0  0  0
   10.2655  -15.1174   23.7650 O   0  0  0  0  0  0  0  0  0  0  0  0
    7.6701  -13.1252   19.5396 C   0  0  0  0  0  0  0  0  0  0  0  0
    7.2671  -13.0258   18.2227 C   0  0  0  0  0  0  0  0  0  0  0  0
    8.2724  -16.1709   24.1996 N   0  0  0  0  0  0  0  0  0  0  0  0
    8.5817  -16.2732   25.5872 C   0  0  1  0  0  0  0  0  0  0  0  0
    7.4174  -15.8828   26.4723 C   0  0  0  0  0  0  0  0  0  0  0  0
    7.3160  -14.4325   26.6954 C   0  0  0  0  0  0  0  0  0  0  0  0
    8.2761  -13.7132   27.3682 C   0  0  0  0  0  0  0  0  0  0  0  0
    8.1564  -12.3398   27.5668 C   0  0  0  0  0  0  0  0  0  0  0  0
    7.0626  -11.6479   27.0920 C   0  0  0  0  0  0  0  0  0  0  0  0
    6.0996  -12.3584   26.4192 C   0  0  0  0  0  0  0  0  0  0  0  0
    6.2353  -13.7104   26.2337 C   0  0  0  0  0  0  0  0  0  0  0  0
    9.1655  -17.5797   25.8895 C   0  0  0  0  0  0  0  0  0  0  0  0
    8.5856  -18.6883   25.6526 O   0  0  0  0  0  0  0  0  0  0  0  0
   13.1290  -20.0621   26.5512 O   0  0  0  0  0  0  0  0  0  0  0  0
   12.5283  -18.8500   26.2386 C   0  0  0  0  0  0  0  0  0  0  0  0
   11.0928  -18.9168   26.7543 C   0  0  2  0  0  0  0  0  0  0  0  0
   10.4509  -17.6561   26.4786 N   0  0  0  0  0  0  0  0  0  0  0  0
   11.1908  -19.0875   28.2180 C   0  0  0  0  0  0  0  0  0  0  0  0
   11.7230  -20.0906   28.7497 O   0  0  0  0  0  0  0  0  0  0  0  0
   10.6758  -18.1031   29.0469 O   0  0  0  0  0  0  0  0  0  0  0  0
  2  3  2  0
  2  1  1  0
  4  3  1  0
  5  4  2  0
  6  5  1  0
  7  6  1  0
  7  8  1  1
  9  7  1  0
  9 10  2  0
 11  5  1  0
 11 12  2  0
 12  2  1  0
 13  9  1  0
 14 13  1  0
 14 15  1  1
 16 15  1  0
 16 17  2  0
 18 17  1  0
 19 18  2  0
 20 21  2  0
 20 19  1  0
 21 16  1  0
 22 14  1  0
 23 22  2  0
 25 24  1  0
 26 25  1  6
 26 27  1  0
 27 22  1  0
 28 26  1  0
 28 30  1  0
 29 28  2  0
M  END
$$$$
