YFS.pdb
     RDKit          3D

 30 31  0  0  1  0  0  0  0  0999 V2000
    8.1746  -13.7788   15.5102 O   0  0  0  0  0  0  0  0  0  0  0  0
    8.2485  -13.8713   16.9028 C   0  0  0  0  0  0  0  0  0  0  0  0
    7.7471  -12.8745   17.7135 C   0  0  0  0  0  0  0  0  0  0  0  0
    7.8229  -12.9713   19.0878 C   0  0  0  0  0  0  0  0  0  0  0  0
    8.3991  -14.0609   19.7173 C   0  0  0  0  0  0  0  0  0  0  0  0
    8.4663  -14.1372   21.2023 C   0  0  0  0  0  0  0  0  0  0  0  0
    7.7408  -15.3474   21.7449 C   0  0  2  0  0  0  0  0  0  0  0  0
    6.3655  -15.4065   21.3532 N   0  0  0  0  0  0  0  0  0  0  0  0
    7.9198  -15.3433   23.2197 C   0  0  0  0  0  0  0  0  0  0  0  0
    7.8394  -14.2394   23.8137 O   0  0  0  0  0  0  0  0  0  0  0  0
    8.8982  -15.0536   18.8982 C   0  0  0  0  0  0  0  0  0  0  0  0
    8.8243  -14.9606   17.5226 C   0  0  0  0  0  0  0  0  0  0  0  0
    8.1737  -16.5041   23.9872 N   0  0  0  0  0  0  0  0  0  0  0  0
    8.2475  -16.4214   25.4082 C   0  0  1  0  0  0  0  0  0  0  0  0
    6.9756  -15.8802   26.0254 C   0  0  0  0  0  0  0  0  0  0  0  0
    7.0083  -14.4264   26.2467 C   0  0  0  0  0  0  0  0  0  0  0  0
    7.9821  -13.8085   26.9961 C   0  0  0  0  0  0  0  0  0  0  0  0
    7.9907  -12.4294   27.1912 C   0  0  0  0  0  0  0  0  0  0  0  0
    7.0154  -11.6293   26.6352 C   0  0  0  0  0  0  0  0  0  0  0  0
    6.0396  -12.2381   25.8856 C   0  0  0  0  0  0  0  0  0  0  0  0
    6.0481  -13.5975   25.7050 C   0  0  0  0  0  0  0  0  0  0  0  0
    8.7080  -17.6888   25.9744 C   0  0  0  0  0  0  0  0  0  0  0  0
    8.0323  -18.7677   25.9428 O   0  0  0  0  0  0  0  0  0  0  0  0
   12.4515  -18.4229   25.8945 O   0  0  0  0  0  0  0  0  0  0  0  0
   11.5821  -19.4844   26.1069 C   0  0  0  0  0  0  0  0  0  0  0  0
   10.5194  -19.0012   27.0910 C   0  0  2  0  0  0  0  0  0  0  0  0
    9.9761  -17.7595   26.6007 N   0  0  0  0  0  0  0  0  0  0  0  0
   11.2259  -18.7396   28.3612 C   0  0  0  0  0  0  0  0  0  0  0  0
   11.8152  -19.6383   29.0071 O   0  0  0  0  0  0  0  0  0  0  0  0
   11.2438  -17.4498   28.8686 O   0  0  0  0  0  0  0  0  0  0  0  0
  2  3  2  0
  2  1  1  0
  4  3  1  0
  5  4  2  0
  6  5  1  0
  7  6  1  0
  7  8  1  1
  9  7  1  0
  9 10  2  0
 11  5  1  0
 11 12  2  0
 12  2  1  0
 13  9  1  0
 14 13  1  0
 14 15  1  1
 16 15  1  0
 16 17  2  0
 18 17  1  0
 19 18  2  0
 20 21  2  0
 20 19  1  0
 21 16  1  0
 22 14  1  0
 23 22  2  0
 25 24  1  0
 26 25  1  6
 26 27  1  0
 27 22  1  0
 28 26  1  0
 28 30  1  0
 29 28  2  0
M  END
$$$$
