YFS.pdb
     RDKit          3D

 30 31  0  0  1  0  0  0  0  0999 V2000
    3.7970  -25.6386   25.2171 O   0  0  0  0  0  0  0  0  0  0  0  0
    4.5238  -24.4809   24.9257 C   0  0  0  0  0  0  0  0  0  0  0  0
    5.3859  -24.4293   23.8503 C   0  0  0  0  0  0  0  0  0  0  0  0
    6.1008  -23.2837   23.5674 C   0  0  0  0  0  0  0  0  0  0  0  0
    5.9918  -22.1398   24.3390 C   0  0  0  0  0  0  0  0  0  0  0  0
    6.7762  -20.9186   24.0089 C   0  0  0  0  0  0  0  0  0  0  0  0
    5.9487  -19.8910   23.2708 C   0  0  2  0  0  0  0  0  0  0  0  0
    5.8058  -20.1748   21.8753 N   0  0  0  0  0  0  0  0  0  0  0  0
    6.5635  -18.5633   23.5284 C   0  0  0  0  0  0  0  0  0  0  0  0
    7.4423  -18.1621   22.7256 O   0  0  0  0  0  0  0  0  0  0  0  0
    5.1269  -22.2005   25.4131 C   0  0  0  0  0  0  0  0  0  0  0  0
    4.4095  -23.3449   25.6995 C   0  0  0  0  0  0  0  0  0  0  0  0
    6.2173  -17.7316   24.6189 N   0  0  0  0  0  0  0  0  0  0  0  0
    6.9239  -16.5143   24.8439 C   0  0  1  0  0  0  0  0  0  0  0  0
    6.1590  -15.5536   25.7291 C   0  0  0  0  0  0  0  0  0  0  0  0
    6.9011  -14.3190   26.0265 C   0  0  0  0  0  0  0  0  0  0  0  0
    7.6874  -14.1735   27.1456 C   0  0  0  0  0  0  0  0  0  0  0  0
    8.3802  -12.9934   27.4049 C   0  0  0  0  0  0  0  0  0  0  0  0
    8.3011  -11.9212   26.5419 C   0  0  0  0  0  0  0  0  0  0  0  0
    7.5183  -12.0581   25.4224 C   0  0  0  0  0  0  0  0  0  0  0  0
    6.8438  -13.2282   25.1844 C   0  0  0  0  0  0  0  0  0  0  0  0
    8.2928  -16.7869   25.2808 C   0  0  0  0  0  0  0  0  0  0  0  0
    8.5852  -17.4662   26.3174 O   0  0  0  0  0  0  0  0  0  0  0  0
   11.2645  -15.5154   22.8081 O   0  0  0  0  0  0  0  0  0  0  0  0
   11.4290  -16.7786   23.3604 C   0  0  0  0  0  0  0  0  0  0  0  0
   10.7284  -16.7677   24.7169 C   0  0  2  0  0  0  0  0  0  0  0  0
    9.3835  -16.2839   24.5307 N   0  0  0  0  0  0  0  0  0  0  0  0
   11.4677  -15.7999   25.5522 C   0  0  0  0  0  0  0  0  0  0  0  0
   12.5548  -16.0784   26.1118 O   0  0  0  0  0  0  0  0  0  0  0  0
   10.9463  -14.5282   25.7311 O   0  0  0  0  0  0  0  0  0  0  0  0
  2  3  2  0
  2  1  1  0
  4  3  1  0
  5  4  2  0
  6  5  1  0
  7  6  1  0
  7  8  1  6
  9  7  1  0
  9 10  2  0
 11  5  1  0
 11 12  2  0
 12  2  1  0
 13  9  1  0
 14 13  1  0
 14 15  1  1
 16 15  1  0
 16 17  2  0
 18 17  1  0
 19 18  2  0
 20 21  2  0
 20 19  1  0
 21 16  1  0
 22 14  1  0
 23 22  2  0
 25 24  1  0
 26 25  1  6
 26 27  1  0
 27 22  1  0
 28 26  1  0
 28 30  1  0
 29 28  2  0
M  END
$$$$
