YFS.pdb
     RDKit          3D

 30 31  0  0  1  0  0  0  0  0999 V2000
    3.8003  -25.2577   24.3603 O   0  0  0  0  0  0  0  0  0  0  0  0
    4.5280  -24.0671   24.4391 C   0  0  0  0  0  0  0  0  0  0  0  0
    5.9072  -24.0710   24.4488 C   0  0  0  0  0  0  0  0  0  0  0  0
    6.6204  -22.8925   24.5267 C   0  0  0  0  0  0  0  0  0  0  0  0
    5.9965  -21.6591   24.5983 C   0  0  0  0  0  0  0  0  0  0  0  0
    6.7929  -20.4043   24.6815 C   0  0  0  0  0  0  0  0  0  0  0  0
    6.5192  -19.4767   23.5196 C   0  0  2  0  0  0  0  0  0  0  0  0
    7.0045  -19.9762   22.2692 N   0  0  0  0  0  0  0  0  0  0  0  0
    7.0905  -18.1510   23.8708 C   0  0  0  0  0  0  0  0  0  0  0  0
    8.2542  -17.8940   23.4740 O   0  0  0  0  0  0  0  0  0  0  0  0
    4.6162  -21.6646   24.5880 C   0  0  0  0  0  0  0  0  0  0  0  0
    3.8988  -22.8418   24.5101 C   0  0  0  0  0  0  0  0  0  0  0  0
    6.4026  -17.1690   24.6215 N   0  0  0  0  0  0  0  0  0  0  0  0
    7.0673  -15.9703   25.0123 C   0  0  1  0  0  0  0  0  0  0  0  0
    6.1062  -14.8271   25.2591 C   0  0  0  0  0  0  0  0  0  0  0  0
    6.7713  -13.5924   25.7028 C   0  0  0  0  0  0  0  0  0  0  0  0
    6.6629  -13.1071   26.9852 C   0  0  0  0  0  0  0  0  0  0  0  0
    7.3026  -11.9348   27.3806 C   0  0  0  0  0  0  0  0  0  0  0  0
    8.0729  -11.2141   26.4930 C   0  0  0  0  0  0  0  0  0  0  0  0
    8.1864  -11.6916   25.2109 C   0  0  0  0  0  0  0  0  0  0  0  0
    7.5489  -12.8480   24.8405 C   0  0  0  0  0  0  0  0  0  0  0  0
    7.9975  -16.2319   26.1101 C   0  0  0  0  0  0  0  0  0  0  0  0
    7.6849  -16.8647   27.1700 O   0  0  0  0  0  0  0  0  0  0  0  0
   11.7718  -15.5067   25.2874 O   0  0  0  0  0  0  0  0  0  0  0  0
   11.6367  -16.4004   26.3414 C   0  0  0  0  0  0  0  0  0  0  0  0
   10.3153  -16.0770   27.0346 C   0  0  2  0  0  0  0  0  0  0  0  0
    9.3340  -15.7717   26.0240 N   0  0  0  0  0  0  0  0  0  0  0  0
   10.5605  -14.8623   27.8380 C   0  0  0  0  0  0  0  0  0  0  0  0
    9.9735  -13.7757   27.6211 O   0  0  0  0  0  0  0  0  0  0  0  0
   11.4760  -14.9158   28.8774 O   0  0  0  0  0  0  0  0  0  0  0  0
  2  3  2  0
  2  1  1  0
  4  3  1  0
  5  4  2  0
  6  5  1  0
  7  6  1  0
  7  8  1  6
  9  7  1  0
  9 10  2  0
 11  5  1  0
 11 12  2  0
 12  2  1  0
 13  9  1  0
 14 13  1  0
 14 15  1  1
 16 15  1  0
 16 17  2  0
 18 17  1  0
 19 18  2  0
 20 21  2  0
 20 19  1  0
 21 16  1  0
 22 14  1  0
 23 22  2  0
 25 24  1  0
 26 25  1  6
 26 27  1  0
 27 22  1  0
 28 26  1  0
 28 30  1  0
 29 28  2  0
M  END
$$$$
