YFS.pdb
     RDKit          3D

 30 31  0  0  1  0  0  0  0  0999 V2000
    7.6582  -21.7486   16.4273 O   0  0  0  0  0  0  0  0  0  0  0  0
    7.9764  -20.9408   17.5226 C   0  0  0  0  0  0  0  0  0  0  0  0
    9.2467  -20.4304   17.6900 C   0  0  0  0  0  0  0  0  0  0  0  0
    9.5549  -19.6335   18.7733 C   0  0  0  0  0  0  0  0  0  0  0  0
    8.6166  -19.3085   19.7375 C   0  0  0  0  0  0  0  0  0  0  0  0
    8.9789  -18.4463   20.8955 C   0  0  0  0  0  0  0  0  0  0  0  0
    9.0602  -16.9852   20.5157 C   0  0  2  0  0  0  0  0  0  0  0  0
   10.1180  -16.6968   19.5958 N   0  0  0  0  0  0  0  0  0  0  0  0
    9.1662  -16.2078   21.7773 C   0  0  0  0  0  0  0  0  0  0  0  0
   10.3019  -16.1028   22.3037 O   0  0  0  0  0  0  0  0  0  0  0  0
    7.3481  -19.8237   19.5620 C   0  0  0  0  0  0  0  0  0  0  0  0
    7.0355  -20.6215   18.4793 C   0  0  0  0  0  0  0  0  0  0  0  0
    8.0682  -15.5838   22.4144 N   0  0  0  0  0  0  0  0  0  0  0  0
    8.2591  -14.8666   23.6313 C   0  0  1  0  0  0  0  0  0  0  0  0
    7.1881  -13.8226   23.8645 C   0  0  0  0  0  0  0  0  0  0  0  0
    7.2835  -13.1743   25.1814 C   0  0  0  0  0  0  0  0  0  0  0  0
    6.4107  -13.4439   26.2096 C   0  0  0  0  0  0  0  0  0  0  0  0
    6.5222  -12.8160   27.4479 C   0  0  0  0  0  0  0  0  0  0  0  0
    7.5194  -11.8949   27.6879 C   0  0  0  0  0  0  0  0  0  0  0  0
    8.3949  -11.6199   26.6668 C   0  0  0  0  0  0  0  0  0  0  0  0
    8.2688  -12.2486   25.4544 C   0  0  0  0  0  0  0  0  0  0  0  0
    8.4625  -15.7904   24.7467 C   0  0  0  0  0  0  0  0  0  0  0  0
    7.6167  -16.6745   25.0997 O   0  0  0  0  0  0  0  0  0  0  0  0
   12.0266  -16.7400   25.4918 O   0  0  0  0  0  0  0  0  0  0  0  0
   11.0994  -17.5557   26.1262 C   0  0  0  0  0  0  0  0  0  0  0  0
    9.9426  -16.6604   26.5641 C   0  0  2  0  0  0  0  0  0  0  0  0
    9.6597  -15.7297   25.5006 N   0  0  0  0  0  0  0  0  0  0  0  0
   10.4297  -15.9056   27.7362 C   0  0  0  0  0  0  0  0  0  0  0  0
   10.5243  -14.6553   27.7463 O   0  0  0  0  0  0  0  0  0  0  0  0
   10.8001  -16.5993   28.8776 O   0  0  0  0  0  0  0  0  0  0  0  0
  2  3  2  0
  2  1  1  0
  4  3  1  0
  5  4  2  0
  6  5  1  0
  7  6  1  0
  7  8  1  6
  9  7  1  0
  9 10  2  0
 11  5  1  0
 11 12  2  0
 12  2  1  0
 13  9  1  0
 14 13  1  0
 14 15  1  1
 16 15  1  0
 16 17  2  0
 18 17  1  0
 19 18  2  0
 20 21  2  0
 20 19  1  0
 21 16  1  0
 22 14  1  0
 23 22  2  0
 25 24  1  0
 26 25  1  6
 26 27  1  0
 27 22  1  0
 28 26  1  0
 28 30  1  0
 29 28  2  0
M  END
$$$$
