YFS.pdb
     RDKit          3D

 30 31  0  0  1  0  0  0  0  0999 V2000
    6.8892  -13.1473   15.8349 O   0  0  0  0  0  0  0  0  0  0  0  0
    7.7734  -13.7254   16.7500 C   0  0  0  0  0  0  0  0  0  0  0  0
    8.2167  -13.0284   17.8545 C   0  0  0  0  0  0  0  0  0  0  0  0
    9.0896  -13.6042   18.7545 C   0  0  0  0  0  0  0  0  0  0  0  0
    9.5606  -14.8962   18.5980 C   0  0  0  0  0  0  0  0  0  0  0  0
   10.5020  -15.4906   19.5860 C   0  0  0  0  0  0  0  0  0  0  0  0
    9.8251  -16.5035   20.4813 C   0  0  2  0  0  0  0  0  0  0  0  0
    8.6034  -17.0134   19.9375 N   0  0  0  0  0  0  0  0  0  0  0  0
    9.6415  -15.8636   21.8094 C   0  0  0  0  0  0  0  0  0  0  0  0
   10.6589  -15.3909   22.3744 O   0  0  0  0  0  0  0  0  0  0  0  0
    9.1118  -15.5863   17.4899 C   0  0  0  0  0  0  0  0  0  0  0  0
    8.2383  -15.0137   16.5869 C   0  0  0  0  0  0  0  0  0  0  0  0
    8.3945  -15.7576   22.4688 N   0  0  0  0  0  0  0  0  0  0  0  0
    8.3171  -15.1683   23.7643 C   0  0  1  0  0  0  0  0  0  0  0  0
    7.1947  -14.1587   23.8771 C   0  0  0  0  0  0  0  0  0  0  0  0
    7.1443  -13.4876   25.1849 C   0  0  0  0  0  0  0  0  0  0  0  0
    6.2682  -13.8570   26.1788 C   0  0  0  0  0  0  0  0  0  0  0  0
    6.2398  -13.2049   27.4092 C   0  0  0  0  0  0  0  0  0  0  0  0
    7.0960  -12.1578   27.6758 C   0  0  0  0  0  0  0  0  0  0  0  0
    7.9738  -11.7827   26.6892 C   0  0  0  0  0  0  0  0  0  0  0  0
    7.9866  -12.4371   25.4841 C   0  0  0  0  0  0  0  0  0  0  0  0
    8.3142  -16.2007   24.8001 C   0  0  0  0  0  0  0  0  0  0  0  0
    7.3513  -17.0118   24.9914 O   0  0  0  0  0  0  0  0  0  0  0  0
   11.5635  -17.8854   25.6212 O   0  0  0  0  0  0  0  0  0  0  0  0
   10.4106  -18.4939   26.0991 C   0  0  0  0  0  0  0  0  0  0  0  0
    9.5143  -17.3853   26.6459 C   0  0  2  0  0  0  0  0  0  0  0  0
    9.4318  -16.3383   25.6588 N   0  0  0  0  0  0  0  0  0  0  0  0
   10.2010  -16.8554   27.8412 C   0  0  0  0  0  0  0  0  0  0  0  0
   10.4874  -17.5695   28.8313 O   0  0  0  0  0  0  0  0  0  0  0  0
   10.5473  -15.5138   27.8796 O   0  0  0  0  0  0  0  0  0  0  0  0
  2  3  2  0
  2  1  1  0
  4  3  1  0
  5  4  2  0
  6  5  1  0
  7  6  1  0
  7  8  1  6
  9  7  1  0
  9 10  2  0
 11  5  1  0
 11 12  2  0
 12  2  1  0
 13  9  1  0
 14 13  1  0
 14 15  1  6
 16 15  1  0
 16 17  2  0
 18 17  1  0
 19 18  2  0
 20 21  2  0
 20 19  1  0
 21 16  1  0
 22 14  1  0
 23 22  2  0
 25 24  1  0
 26 25  1  6
 26 27  1  0
 27 22  1  0
 28 26  1  0
 28 30  1  0
 29 28  2  0
M  END
$$$$
