YFS.pdb
     RDKit          3D

 30 31  0  0  1  0  0  0  0  0999 V2000
    8.4151  -22.1665   16.9207 O   0  0  0  0  0  0  0  0  0  0  0  0
    8.6142  -21.2904   17.9913 C   0  0  0  0  0  0  0  0  0  0  0  0
    8.9519  -19.9697   17.7815 C   0  0  0  0  0  0  0  0  0  0  0  0
    9.1473  -19.1093   18.8423 C   0  0  0  0  0  0  0  0  0  0  0  0
    9.0162  -19.5217   20.1570 C   0  0  0  0  0  0  0  0  0  0  0  0
    9.2333  -18.5701   21.2808 C   0  0  0  0  0  0  0  0  0  0  0  0
    9.4527  -17.1551   20.7961 C   0  0  2  0  0  0  0  0  0  0  0  0
   10.6440  -17.0009   20.0180 N   0  0  0  0  0  0  0  0  0  0  0  0
    9.4267  -16.2717   21.9904 C   0  0  0  0  0  0  0  0  0  0  0  0
   10.5169  -15.7825   22.3775 O   0  0  0  0  0  0  0  0  0  0  0  0
    8.6780  -20.8449   20.3575 C   0  0  0  0  0  0  0  0  0  0  0  0
    8.4816  -21.7091   19.2988 C   0  0  0  0  0  0  0  0  0  0  0  0
    8.2518  -15.9530   22.7107 N   0  0  0  0  0  0  0  0  0  0  0  0
    8.2902  -14.9758   23.7477 C   0  0  1  0  0  0  0  0  0  0  0  0
    7.0750  -14.0732   23.7407 C   0  0  0  0  0  0  0  0  0  0  0  0
    7.0551  -13.1145   24.8561 C   0  0  0  0  0  0  0  0  0  0  0  0
    6.2846  -13.2960   25.9809 C   0  0  0  0  0  0  0  0  0  0  0  0
    6.2831  -12.3727   27.0237 C   0  0  0  0  0  0  0  0  0  0  0  0
    7.0602  -11.2355   26.9643 C   0  0  0  0  0  0  0  0  0  0  0  0
    7.8323  -11.0467   25.8449 C   0  0  0  0  0  0  0  0  0  0  0  0
    7.8203  -11.9673   24.8284 C   0  0  0  0  0  0  0  0  0  0  0  0
    8.5747  -15.6045   25.0371 C   0  0  0  0  0  0  0  0  0  0  0  0
    8.6609  -14.9653   26.1351 O   0  0  0  0  0  0  0  0  0  0  0  0
    9.7015  -19.4666   24.9725 O   0  0  0  0  0  0  0  0  0  0  0  0
    8.9776  -19.1798   26.1220 C   0  0  0  0  0  0  0  0  0  0  0  0
    9.0772  -17.6731   26.3482 C   0  0  2  0  0  0  0  0  0  0  0  0
    8.7694  -17.0054   25.1086 N   0  0  0  0  0  0  0  0  0  0  0  0
   10.4875  -17.4030   26.6935 C   0  0  0  0  0  0  0  0  0  0  0  0
   11.2178  -16.6414   26.0159 O   0  0  0  0  0  0  0  0  0  0  0  0
   11.0359  -18.0122   27.8113 O   0  0  0  0  0  0  0  0  0  0  0  0
  2  3  2  0
  2  1  1  0
  4  3  1  0
  5  4  2  0
  6  5  1  0
  7  6  1  0
  7  8  1  1
  9  7  1  0
  9 10  2  0
 11  5  1  0
 11 12  2  0
 12  2  1  0
 13  9  1  0
 14 13  1  0
 14 15  1  1
 16 15  1  0
 16 17  2  0
 18 17  1  0
 19 18  2  0
 20 21  2  0
 20 19  1  0
 21 16  1  0
 22 14  1  0
 23 22  2  0
 25 24  1  0
 26 25  1  6
 26 27  1  0
 27 22  1  0
 28 26  1  0
 28 30  1  0
 29 28  2  0
M  END
$$$$
