YFS.pdb
     RDKit          3D

 30 31  0  0  1  0  0  0  0  0999 V2000
    7.6349  -13.3191   15.8256 O   0  0  0  0  0  0  0  0  0  0  0  0
    7.8137  -13.8634   17.1004 C   0  0  0  0  0  0  0  0  0  0  0  0
    7.1545  -15.0116   17.4868 C   0  0  0  0  0  0  0  0  0  0  0  0
    7.3349  -15.5444   18.7466 C   0  0  0  0  0  0  0  0  0  0  0  0
    8.1769  -14.9615   19.6777 C   0  0  0  0  0  0  0  0  0  0  0  0
    8.3512  -15.5596   21.0295 C   0  0  0  0  0  0  0  0  0  0  0  0
    9.2679  -14.7351   21.9044 C   0  0  2  0  0  0  0  0  0  0  0  0
   10.6197  -14.7015   21.4355 N   0  0  0  0  0  0  0  0  0  0  0  0
    9.1510  -15.2654   23.2872 C   0  0  0  0  0  0  0  0  0  0  0  0
   10.1935  -15.7050   23.8331 O   0  0  0  0  0  0  0  0  0  0  0  0
    8.8324  -13.8128   19.2824 C   0  0  0  0  0  0  0  0  0  0  0  0
    8.6546  -13.2764   18.0226 C   0  0  0  0  0  0  0  0  0  0  0  0
    7.9407  -15.3029   24.0184 N   0  0  0  0  0  0  0  0  0  0  0  0
    7.9320  -15.7673   25.3660 C   0  0  1  0  0  0  0  0  0  0  0  0
    6.7195  -15.2908   26.1368 C   0  0  0  0  0  0  0  0  0  0  0  0
    6.7605  -13.8560   26.4583 C   0  0  0  0  0  0  0  0  0  0  0  0
    5.8033  -12.9679   26.0260 C   0  0  0  0  0  0  0  0  0  0  0  0
    5.8650  -11.6132   26.3438 C   0  0  0  0  0  0  0  0  0  0  0  0
    6.8962  -11.1113   27.1089 C   0  0  0  0  0  0  0  0  0  0  0  0
    7.8559  -11.9911   27.5444 C   0  0  0  0  0  0  0  0  0  0  0  0
    7.7778  -13.3215   27.2211 C   0  0  0  0  0  0  0  0  0  0  0  0
    8.1555  -17.2118   25.4140 C   0  0  0  0  0  0  0  0  0  0  0  0
    7.6399  -18.0377   24.5933 O   0  0  0  0  0  0  0  0  0  0  0  0
   11.2617  -18.7204   25.3545 O   0  0  0  0  0  0  0  0  0  0  0  0
   10.1558  -19.5591   25.3182 C   0  0  0  0  0  0  0  0  0  0  0  0
    9.2642  -19.1740   26.4963 C   0  0  2  0  0  0  0  0  0  0  0  0
    8.9905  -17.7611   26.4172 N   0  0  0  0  0  0  0  0  0  0  0  0
   10.0586  -19.4344   27.7136 C   0  0  0  0  0  0  0  0  0  0  0  0
   10.4410  -18.5206   28.4824 O   0  0  0  0  0  0  0  0  0  0  0  0
   10.4008  -20.7403   28.0280 O   0  0  0  0  0  0  0  0  0  0  0  0
  2  3  2  0
  2  1  1  0
  4  3  1  0
  5  4  2  0
  6  5  1  0
  7  6  1  0
  7  8  1  6
  9  7  1  0
  9 10  2  0
 11  5  1  0
 11 12  2  0
 12  2  1  0
 13  9  1  0
 14 13  1  0
 14 15  1  6
 16 15  1  0
 16 17  2  0
 18 17  1  0
 19 18  2  0
 20 21  2  0
 20 19  1  0
 21 16  1  0
 22 14  1  0
 23 22  2  0
 25 24  1  0
 26 25  1  6
 26 27  1  0
 27 22  1  0
 28 26  1  0
 28 30  1  0
 29 28  2  0
M  END
$$$$
