NDA.pdb
     RDKit          3D

 22 21  0  0  1  0  0  0  0  0999 V2000
   17.5465  -10.4116  -18.5544 N   0  0  0  0  0  0  0  0  0  0  0  0
   17.0860   -9.0840  -18.7852 C   0  0  0  0  0  0  0  0  0  0  0  0
   16.5147   -8.8504  -19.8845 O   0  0  0  0  0  0  0  0  0  0  0  0
   17.2705   -8.0142  -17.7715 C   0  0  0  0  0  0  0  0  0  0  0  0
   18.0831   -8.5816  -16.6380 C   0  0  2  0  0  0  0  0  0  0  0  0
   17.2581   -9.5421  -15.9370 N   0  0  0  0  0  0  0  0  0  0  0  0
   18.5689   -7.5104  -15.7178 C   0  0  0  0  0  0  0  0  0  0  0  0
   17.8030   -7.1329  -14.7963 O   0  0  0  0  0  0  0  0  0  0  0  0
   19.8379   -6.9172  -15.8455 N   0  0  0  0  0  0  0  0  0  0  0  0
   20.3600   -5.8756  -15.0050 C   0  0  1  0  0  0  0  0  0  0  0  0
   21.7892   -6.1756  -14.6627 C   0  0  0  0  0  0  0  0  0  0  0  0
   22.3249   -5.1422  -13.7525 C   0  0  0  0  0  0  0  0  0  0  0  0
   23.1232   -4.2351  -14.0891 O   0  0  0  0  0  0  0  0  0  0  0  0
   20.2236   -4.5329  -15.6399 C   0  0  0  0  0  0  0  0  0  0  0  0
   20.7459   -4.3526  -16.7619 O   0  0  0  0  0  0  0  0  0  0  0  0
   21.9513   -5.1186  -12.3955 O   0  0  0  0  0  0  0  0  0  0  0  0
   17.9224   -1.6458  -15.1902 C   0  0  0  0  0  0  0  0  0  0  0  0
   19.2675   -2.2057  -15.6038 C   0  0  2  0  0  0  0  0  0  0  0  0
   19.5214   -3.4937  -14.9869 N   0  0  0  0  0  0  0  0  0  0  0  0
   20.3442   -1.2371  -15.3419 C   0  0  0  0  0  0  0  0  0  0  0  0
   20.3132   -0.0097  -15.9698 O   0  0  0  0  0  0  0  0  0  0  0  0
   21.2723   -1.5300  -14.5588 O   0  0  0  0  0  0  0  0  0  0  0  0
  1  2  1  0
  2  3  2  0
  2  4  1  0
  5  7  1  0
  5  4  1  0
  5  6  1  1
  7  8  2  0
  9 10  1  0
  9  7  1  0
 10 14  1  0
 11 12  1  0
 10 11  1  6
 12 13  2  0
 12 16  1  0
 14 19  1  0
 14 15  2  0
 18 17  1  1
 18 20  1  0
 19 18  1  0
 20 22  2  0
 20 21  1  0
M  END
$$$$
