NDA.pdb
     RDKit          3D

 22 21  0  0  1  0  0  0  0  0999 V2000
   14.9476  -14.1928  -10.8294 N   0  0  0  0  0  0  0  0  0  0  0  0
   15.9079  -13.4449  -11.5685 C   0  0  0  0  0  0  0  0  0  0  0  0
   16.1821  -13.8423  -12.7331 O   0  0  0  0  0  0  0  0  0  0  0  0
   16.5625  -12.2429  -10.9918 C   0  0  0  0  0  0  0  0  0  0  0  0
   15.8393  -11.0266  -11.5062 C   0  0  2  0  0  0  0  0  0  0  0  0
   16.1415  -10.8928  -12.9153 N   0  0  0  0  0  0  0  0  0  0  0  0
   16.2224   -9.7968  -10.7505 C   0  0  0  0  0  0  0  0  0  0  0  0
   16.2742   -9.8672   -9.4972 O   0  0  0  0  0  0  0  0  0  0  0  0
   16.5233   -8.5781  -11.3852 N   0  0  0  0  0  0  0  0  0  0  0  0
   16.8538   -7.3495  -10.7178 C   0  0  1  0  0  0  0  0  0  0  0  0
   17.4591   -6.3914  -11.7003 C   0  0  0  0  0  0  0  0  0  0  0  0
   18.7538   -6.9096  -12.1887 C   0  0  0  0  0  0  0  0  0  0  0  0
   18.9862   -7.2577  -13.3712 O   0  0  0  0  0  0  0  0  0  0  0  0
   15.6673   -6.7536  -10.0381 C   0  0  0  0  0  0  0  0  0  0  0  0
   14.6207   -6.5956  -10.7041 O   0  0  0  0  0  0  0  0  0  0  0  0
   19.8473   -7.0471  -11.3130 O   0  0  0  0  0  0  0  0  0  0  0  0
   14.8199   -5.8779   -6.4543 C   0  0  0  0  0  0  0  0  0  0  0  0
   14.5863   -5.8564   -7.9506 C   0  0  2  0  0  0  0  0  0  0  0  0
   15.7287   -6.3784   -8.6761 N   0  0  0  0  0  0  0  0  0  0  0  0
   14.2019   -4.5101   -8.4044 C   0  0  0  0  0  0  0  0  0  0  0  0
   12.9060   -4.0794   -8.2127 O   0  0  0  0  0  0  0  0  0  0  0  0
   15.0449   -3.7716   -8.9560 O   0  0  0  0  0  0  0  0  0  0  0  0
  1  2  1  0
  2  3  2  0
  2  4  1  0
  5  7  1  0
  5  4  1  0
  5  6  1  6
  7  8  2  0
  9 10  1  0
  9  7  1  0
 10 14  1  0
 11 12  1  0
 10 11  1  6
 12 13  2  0
 12 16  1  0
 14 19  1  0
 14 15  2  0
 18 17  1  1
 18 20  1  0
 19 18  1  0
 20 22  2  0
 20 21  1  0
M  END
$$$$
