NDA.pdb
     RDKit          3D

 22 21  0  0  1  0  0  0  0  0999 V2000
   17.6012  -14.1187  -15.5451 N   0  0  0  0  0  0  0  0  0  0  0  0
   17.3375  -12.7259  -15.4088 C   0  0  0  0  0  0  0  0  0  0  0  0
   16.2815  -12.3910  -14.8072 O   0  0  0  0  0  0  0  0  0  0  0  0
   18.2692  -11.7055  -15.9536 C   0  0  0  0  0  0  0  0  0  0  0  0
   18.1169  -10.4512  -15.1347 C   0  0  2  0  0  0  0  0  0  0  0  0
   16.7150  -10.0916  -15.1291 N   0  0  0  0  0  0  0  0  0  0  0  0
   18.9596   -9.3393  -15.6674 C   0  0  0  0  0  0  0  0  0  0  0  0
   20.1864   -9.5554  -15.8304 O   0  0  0  0  0  0  0  0  0  0  0  0
   18.4340   -8.0748  -15.9890 N   0  0  0  0  0  0  0  0  0  0  0  0
   19.1980   -6.9431  -16.4359 C   0  0  1  0  0  0  0  0  0  0  0  0
   18.4687   -6.2535  -17.5505 C   0  0  0  0  0  0  0  0  0  0  0  0
   19.2760   -5.1316  -18.0729 C   0  0  0  0  0  0  0  0  0  0  0  0
   18.9507   -3.9221  -18.0046 O   0  0  0  0  0  0  0  0  0  0  0  0
   19.4970   -6.0021  -15.3181 C   0  0  0  0  0  0  0  0  0  0  0  0
   18.5369   -5.5070  -14.6879 O   0  0  0  0  0  0  0  0  0  0  0  0
   20.5110   -5.3703  -18.7049 O   0  0  0  0  0  0  0  0  0  0  0  0
   22.4000   -5.3712  -13.1227 C   0  0  0  0  0  0  0  0  0  0  0  0
   21.1811   -4.8437  -13.8506 C   0  0  2  0  0  0  0  0  0  0  0  0
   20.8326   -5.6807  -14.9829 N   0  0  0  0  0  0  0  0  0  0  0  0
   21.3642   -3.4339  -14.2314 C   0  0  0  0  0  0  0  0  0  0  0  0
   21.4888   -2.4802  -13.2431 O   0  0  0  0  0  0  0  0  0  0  0  0
   21.4052   -3.1120  -15.4376 O   0  0  0  0  0  0  0  0  0  0  0  0
  1  2  1  0
  2  3  2  0
  2  4  1  0
  5  7  1  0
  5  4  1  0
  5  6  1  6
  7  8  2  0
  9 10  1  0
  9  7  1  0
 10 14  1  0
 11 12  1  0
 10 11  1  6
 12 13  2  0
 12 16  1  0
 14 19  1  0
 14 15  2  0
 18 17  1  6
 18 20  1  0
 19 18  1  0
 20 22  2  0
 20 21  1  0
M  END
$$$$
