NDA.pdb
     RDKit          3D

 22 21  0  0  1  0  0  0  0  0999 V2000
   16.5127  -13.1687  -15.4356 N   0  0  0  0  0  0  0  0  0  0  0  0
   17.8321  -12.9396  -14.9511 C   0  0  0  0  0  0  0  0  0  0  0  0
   18.3164  -13.7930  -14.1597 O   0  0  0  0  0  0  0  0  0  0  0  0
   18.6094  -11.7421  -15.3610 C   0  0  0  0  0  0  0  0  0  0  0  0
   17.7157  -10.8733  -16.2056 C   0  0  2  0  0  0  0  0  0  0  0  0
   17.4897  -11.5564  -17.4614 N   0  0  0  0  0  0  0  0  0  0  0  0
   18.3087   -9.5201  -16.4237 C   0  0  0  0  0  0  0  0  0  0  0  0
   19.0824   -9.3662  -17.4015 O   0  0  0  0  0  0  0  0  0  0  0  0
   18.0344   -8.4261  -15.5832 N   0  0  0  0  0  0  0  0  0  0  0  0
   18.5590   -7.0983  -15.7444 C   0  0  1  0  0  0  0  0  0  0  0  0
   17.4597   -6.0969  -15.5487 C   0  0  0  0  0  0  0  0  0  0  0  0
   17.9823   -4.7248  -15.7147 C   0  0  0  0  0  0  0  0  0  0  0  0
   18.7351   -4.3526  -16.6465 O   0  0  0  0  0  0  0  0  0  0  0  0
   19.7007   -6.8394  -14.8202 C   0  0  0  0  0  0  0  0  0  0  0  0
   19.5351   -7.0550  -13.5995 O   0  0  0  0  0  0  0  0  0  0  0  0
   17.6482   -3.7141  -14.7936 O   0  0  0  0  0  0  0  0  0  0  0  0
   23.3328   -5.8458  -15.2597 C   0  0  0  0  0  0  0  0  0  0  0  0
   22.0673   -6.0655  -14.4571 C   0  0  2  0  0  0  0  0  0  0  0  0
   20.9365   -6.3627  -15.3155 N   0  0  0  0  0  0  0  0  0  0  0  0
   21.8070   -4.9267  -13.5618 C   0  0  0  0  0  0  0  0  0  0  0  0
   22.5193   -4.8182  -12.3859 O   0  0  0  0  0  0  0  0  0  0  0  0
   20.9495   -4.0722  -13.8697 O   0  0  0  0  0  0  0  0  0  0  0  0
  1  2  1  0
  2  3  2  0
  2  4  1  0
  5  7  1  0
  5  4  1  0
  5  6  1  6
  7  8  2  0
  9 10  1  0
  9  7  1  0
 10 14  1  0
 11 12  1  0
 10 11  1  1
 12 13  2  0
 12 16  1  0
 14 19  1  0
 14 15  2  0
 18 17  1  6
 18 20  1  0
 19 18  1  0
 20 22  2  0
 20 21  1  0
M  END
$$$$
