NDA.pdb
     RDKit          3D

 22 21  0  0  1  0  0  0  0  0999 V2000
   25.4011  -13.0623  -16.9618 N   0  0  0  0  0  0  0  0  0  0  0  0
   25.8418  -11.9994  -16.1227 C   0  0  0  0  0  0  0  0  0  0  0  0
   26.7902  -12.2418  -15.3283 O   0  0  0  0  0  0  0  0  0  0  0  0
   25.2100  -10.6564  -16.1794 C   0  0  0  0  0  0  0  0  0  0  0  0
   23.9292  -10.7768  -16.9619 C   0  0  2  0  0  0  0  0  0  0  0  0
   24.2725  -11.1106  -18.3277 N   0  0  0  0  0  0  0  0  0  0  0  0
   23.1234   -9.5211  -16.8969 C   0  0  0  0  0  0  0  0  0  0  0  0
   23.3089   -8.6550  -17.7878 O   0  0  0  0  0  0  0  0  0  0  0  0
   22.1762   -9.2779  -15.8858 N   0  0  0  0  0  0  0  0  0  0  0  0
   21.3053   -8.1374  -15.8158 C   0  0  1  0  0  0  0  0  0  0  0  0
   19.9798   -8.5519  -15.2493 C   0  0  0  0  0  0  0  0  0  0  0  0
   19.3013   -9.4890  -16.1684 C   0  0  0  0  0  0  0  0  0  0  0  0
   19.2223   -9.3422  -17.4117 O   0  0  0  0  0  0  0  0  0  0  0  0
   21.9111   -7.0274  -15.0249 C   0  0  0  0  0  0  0  0  0  0  0  0
   22.4012   -7.2962  -13.9062 O   0  0  0  0  0  0  0  0  0  0  0  0
   18.6778  -10.6510  -15.6760 O   0  0  0  0  0  0  0  0  0  0  0  0
   22.6787   -3.3817  -15.7394 C   0  0  0  0  0  0  0  0  0  0  0  0
   22.6208   -4.6185  -14.8671 C   0  0  2  0  0  0  0  0  0  0  0  0
   21.9286   -5.7069  -15.5306 N   0  0  0  0  0  0  0  0  0  0  0  0
   22.0430   -4.3073  -13.5498 C   0  0  0  0  0  0  0  0  0  0  0  0
   22.8408   -3.7316  -12.5835 O   0  0  0  0  0  0  0  0  0  0  0  0
   20.8430   -4.5644  -13.3166 O   0  0  0  0  0  0  0  0  0  0  0  0
  1  2  1  0
  2  3  2  0
  2  4  1  0
  5  7  1  0
  5  4  1  0
  5  6  1  6
  7  8  2  0
  9 10  1  0
  9  7  1  0
 10 14  1  0
 11 12  1  0
 10 11  1  1
 12 13  2  0
 12 16  1  0
 14 19  1  0
 14 15  2  0
 18 17  1  6
 18 20  1  0
 19 18  1  0
 20 22  2  0
 20 21  1  0
M  END
$$$$
