NDA.pdb
     RDKit          3D

 22 21  0  0  1  0  0  0  0  0999 V2000
   18.0700  -13.9066  -15.5362 N   0  0  0  0  0  0  0  0  0  0  0  0
   17.9138  -13.3629  -16.8431 C   0  0  0  0  0  0  0  0  0  0  0  0
   17.5583  -14.1505  -17.7610 O   0  0  0  0  0  0  0  0  0  0  0  0
   18.1597  -11.9238  -17.1164 C   0  0  0  0  0  0  0  0  0  0  0  0
   18.6206  -11.2786  -15.8365 C   0  0  2  0  0  0  0  0  0  0  0  0
   17.5428  -11.3776  -14.8757 N   0  0  0  0  0  0  0  0  0  0  0  0
   19.0271   -9.8576  -16.0507 C   0  0  0  0  0  0  0  0  0  0  0  0
   19.9375   -9.6242  -16.8844 O   0  0  0  0  0  0  0  0  0  0  0  0
   18.4335   -8.7854  -15.3603 N   0  0  0  0  0  0  0  0  0  0  0  0
   18.7536   -7.3967  -15.5424 C   0  0  1  0  0  0  0  0  0  0  0  0
   17.5483   -6.5590  -15.2343 C   0  0  0  0  0  0  0  0  0  0  0  0
   16.5426   -6.6952  -16.3082 C   0  0  0  0  0  0  0  0  0  0  0  0
   16.8073   -6.7771  -17.5316 O   0  0  0  0  0  0  0  0  0  0  0  0
   19.9258   -6.9871  -14.7162 C   0  0  0  0  0  0  0  0  0  0  0  0
   19.8845   -7.1976  -13.4841 O   0  0  0  0  0  0  0  0  0  0  0  0
   15.1693   -6.7427  -16.0025 O   0  0  0  0  0  0  0  0  0  0  0  0
   23.3541   -5.5440  -15.4621 C   0  0  0  0  0  0  0  0  0  0  0  0
   22.2085   -5.9408  -14.5544 C   0  0  2  0  0  0  0  0  0  0  0  0
   21.0525   -6.3769  -15.3144 N   0  0  0  0  0  0  0  0  0  0  0  0
   21.8836   -4.8579  -13.6122 C   0  0  0  0  0  0  0  0  0  0  0  0
   22.5987   -4.7498  -12.4380 O   0  0  0  0  0  0  0  0  0  0  0  0
   20.9695   -4.0496  -13.8794 O   0  0  0  0  0  0  0  0  0  0  0  0
  1  2  1  0
  2  3  2  0
  2  4  1  0
  5  7  1  0
  5  4  1  0
  5  6  1  1
  7  8  2  0
  9 10  1  0
  9  7  1  0
 10 14  1  0
 11 12  1  0
 10 11  1  1
 12 13  2  0
 12 16  1  0
 14 19  1  0
 14 15  2  0
 18 17  1  6
 18 20  1  0
 19 18  1  0
 20 22  2  0
 20 21  1  0
M  END
$$$$
