NDA.pdb
     RDKit          3D

 22 21  0  0  1  0  0  0  0  0999 V2000
   11.9695  -11.7954  -10.3258 N   0  0  0  0  0  0  0  0  0  0  0  0
   12.0011  -10.7682   -9.3401 C   0  0  0  0  0  0  0  0  0  0  0  0
   10.9491  -10.5696   -8.6744 O   0  0  0  0  0  0  0  0  0  0  0  0
   13.2251   -9.9608   -9.1035 C   0  0  0  0  0  0  0  0  0  0  0  0
   14.3043  -10.4710  -10.0212 C   0  0  2  0  0  0  0  0  0  0  0  0
   14.6783  -11.7957   -9.5741 N   0  0  0  0  0  0  0  0  0  0  0  0
   15.4835   -9.5550  -10.0482 C   0  0  0  0  0  0  0  0  0  0  0  0
   16.3008   -9.6180   -9.0962 O   0  0  0  0  0  0  0  0  0  0  0  0
   15.7078   -8.6360  -11.0892 N   0  0  0  0  0  0  0  0  0  0  0  0
   16.8071   -7.7141  -11.1655 C   0  0  1  0  0  0  0  0  0  0  0  0
   17.4933   -7.8596  -12.4913 C   0  0  0  0  0  0  0  0  0  0  0  0
   18.6037   -6.8909  -12.6015 C   0  0  0  0  0  0  0  0  0  0  0  0
   18.6231   -5.9090  -13.3818 O   0  0  0  0  0  0  0  0  0  0  0  0
   16.3664   -6.3083  -10.9331 C   0  0  0  0  0  0  0  0  0  0  0  0
   15.5753   -5.7925  -11.7530 O   0  0  0  0  0  0  0  0  0  0  0  0
   19.7531   -7.0237  -11.7998 O   0  0  0  0  0  0  0  0  0  0  0  0
   16.6715   -3.8297   -8.1053 C   0  0  0  0  0  0  0  0  0  0  0  0
   16.4593   -4.2034   -9.5576 C   0  0  2  0  0  0  0  0  0  0  0  0
   16.8332   -5.5813   -9.8137 N   0  0  0  0  0  0  0  0  0  0  0  0
   17.1511   -3.2599  -10.4507 C   0  0  0  0  0  0  0  0  0  0  0  0
   16.7492   -1.9410  -10.4783 O   0  0  0  0  0  0  0  0  0  0  0  0
   18.0904   -3.6561  -11.1725 O   0  0  0  0  0  0  0  0  0  0  0  0
  1  2  1  0
  2  3  2  0
  2  4  1  0
  5  7  1  0
  5  4  1  0
  5  6  1  1
  7  8  2  0
  9 10  1  0
  9  7  1  0
 10 14  1  0
 11 12  1  0
 10 11  1  6
 12 13  2  0
 12 16  1  0
 14 19  1  0
 14 15  2  0
 18 17  1  1
 18 20  1  0
 19 18  1  0
 20 22  2  0
 20 21  1  0
M  END
$$$$
