NDA.pdb
     RDKit          3D

 22 21  0  0  1  0  0  0  0  0999 V2000
   14.9711  -13.2707  -15.2017 N   0  0  0  0  0  0  0  0  0  0  0  0
   16.3424  -13.5831  -14.9783 C   0  0  0  0  0  0  0  0  0  0  0  0
   16.6585  -14.8022  -14.9220 O   0  0  0  0  0  0  0  0  0  0  0  0
   17.3625  -12.5156  -14.8175 C   0  0  0  0  0  0  0  0  0  0  0  0
   16.6756  -11.1861  -14.9831 C   0  0  2  0  0  0  0  0  0  0  0  0
   16.2731  -11.0632  -16.3678 N   0  0  0  0  0  0  0  0  0  0  0  0
   17.5592  -10.0542  -14.5729 C   0  0  0  0  0  0  0  0  0  0  0  0
   17.9997  -10.0466  -13.3964 O   0  0  0  0  0  0  0  0  0  0  0  0
   17.9109   -9.0097  -15.4471 N   0  0  0  0  0  0  0  0  0  0  0  0
   18.7721   -7.9061  -15.1240 C   0  0  1  0  0  0  0  0  0  0  0  0
   20.1754   -8.2233  -15.5481 C   0  0  0  0  0  0  0  0  0  0  0  0
   21.0741   -7.0952  -15.2272 C   0  0  0  0  0  0  0  0  0  0  0  0
   21.5078   -6.2649  -16.0614 O   0  0  0  0  0  0  0  0  0  0  0  0
   18.2934   -6.6337  -15.7378 C   0  0  0  0  0  0  0  0  0  0  0  0
   18.1888   -6.5795  -16.9828 O   0  0  0  0  0  0  0  0  0  0  0  0
   21.5127   -6.8812  -13.9068 O   0  0  0  0  0  0  0  0  0  0  0  0
   16.4309   -3.6491  -14.5421 C   0  0  0  0  0  0  0  0  0  0  0  0
   17.4482   -4.2788  -15.4707 C   0  0  2  0  0  0  0  0  0  0  0  0
   17.9675   -5.5203  -14.9294 N   0  0  0  0  0  0  0  0  0  0  0  0
   18.5165   -3.3240  -15.8070 C   0  0  0  0  0  0  0  0  0  0  0  0
   18.1863   -2.1308  -16.4145 O   0  0  0  0  0  0  0  0  0  0  0  0
   19.7062   -3.5977  -15.5424 O   0  0  0  0  0  0  0  0  0  0  0  0
  1  2  1  0
  2  3  2  0
  2  4  1  0
  5  7  1  0
  5  4  1  0
  5  6  1  6
  7  8  2  0
  9 10  1  0
  9  7  1  0
 10 14  1  0
 11 12  1  0
 10 11  1  6
 12 13  2  0
 12 16  1  0
 14 19  1  0
 14 15  2  0
 18 17  1  1
 18 20  1  0
 19 18  1  0
 20 22  2  0
 20 21  1  0
M  END
$$$$
