NDA.pdb
     RDKit          3D

 22 21  0  0  1  0  0  0  0  0999 V2000
   19.0653  -11.3446  -16.4085 N   0  0  0  0  0  0  0  0  0  0  0  0
   17.6729  -11.4190  -16.6978 C   0  0  0  0  0  0  0  0  0  0  0  0
   17.3268  -12.0630  -17.7249 O   0  0  0  0  0  0  0  0  0  0  0  0
   16.6656  -10.7641  -15.8247 C   0  0  0  0  0  0  0  0  0  0  0  0
   17.4017   -9.9802  -14.7709 C   0  0  2  0  0  0  0  0  0  0  0  0
   18.2716  -10.8951  -14.0630 N   0  0  0  0  0  0  0  0  0  0  0  0
   16.4605   -9.2942  -13.8360 C   0  0  0  0  0  0  0  0  0  0  0  0
   15.6381   -8.4780  -14.3214 O   0  0  0  0  0  0  0  0  0  0  0  0
   16.4631   -9.5274  -12.4489 N   0  0  0  0  0  0  0  0  0  0  0  0
   15.6146   -8.8733  -11.4916 C   0  0  1  0  0  0  0  0  0  0  0  0
   15.0832   -9.8836  -10.5186 C   0  0  0  0  0  0  0  0  0  0  0  0
   13.8543   -9.3759   -9.8742 C   0  0  0  0  0  0  0  0  0  0  0  0
   13.4055   -8.2118  -10.0042 O   0  0  0  0  0  0  0  0  0  0  0  0
   16.3247   -7.7648  -10.7905 C   0  0  0  0  0  0  0  0  0  0  0  0
   17.4784   -7.9803  -10.3586 O   0  0  0  0  0  0  0  0  0  0  0  0
   13.0848  -10.2097   -9.0410 O   0  0  0  0  0  0  0  0  0  0  0  0
   15.5582   -4.1145  -10.0935 C   0  0  0  0  0  0  0  0  0  0  0  0
   16.3477   -5.3976   -9.9378 C   0  0  2  0  0  0  0  0  0  0  0  0
   15.7060   -6.5047  -10.6208 N   0  0  0  0  0  0  0  0  0  0  0  0
   16.6052   -5.6886   -8.5182 C   0  0  0  0  0  0  0  0  0  0  0  0
   17.3128   -4.7781   -7.7618 O   0  0  0  0  0  0  0  0  0  0  0  0
   16.1848   -6.7498   -8.0110 O   0  0  0  0  0  0  0  0  0  0  0  0
  1  2  1  0
  2  3  2  0
  2  4  1  0
  5  7  1  0
  5  4  1  0
  5  6  1  1
  7  8  2  0
  9 10  1  0
  9  7  1  0
 10 14  1  0
 11 12  1  0
 10 11  1  1
 12 13  2  0
 12 16  1  0
 14 19  1  0
 14 15  2  0
 18 17  1  1
 18 20  1  0
 19 18  1  0
 20 22  2  0
 20 21  1  0
M  END
$$$$
