NDA.pdb
     RDKit          3D

 22 21  0  0  1  0  0  0  0  0999 V2000
   21.5696  -12.1923  -19.7447 N   0  0  0  0  0  0  0  0  0  0  0  0
   20.2714  -11.6094  -19.6923 C   0  0  0  0  0  0  0  0  0  0  0  0
   19.3101  -12.2917  -20.1392 O   0  0  0  0  0  0  0  0  0  0  0  0
   20.0559  -10.2504  -19.1332 C   0  0  0  0  0  0  0  0  0  0  0  0
   19.8991  -10.3798  -17.6414 C   0  0  2  0  0  0  0  0  0  0  0  0
   18.7013  -11.1508  -17.3856 N   0  0  0  0  0  0  0  0  0  0  0  0
   19.8367   -9.0444  -16.9757 C   0  0  0  0  0  0  0  0  0  0  0  0
   18.7117   -8.4986  -16.8539 O   0  0  0  0  0  0  0  0  0  0  0  0
   20.9790   -8.3852  -16.4868 N   0  0  0  0  0  0  0  0  0  0  0  0
   20.9907   -7.0960  -15.8527 C   0  0  1  0  0  0  0  0  0  0  0  0
   21.8894   -7.1349  -14.6525 C   0  0  0  0  0  0  0  0  0  0  0  0
   21.8467   -5.8414  -13.9395 C   0  0  0  0  0  0  0  0  0  0  0  0
   20.8734   -5.4264  -13.2657 O   0  0  0  0  0  0  0  0  0  0  0  0
   21.3961   -6.0180  -16.8004 C   0  0  0  0  0  0  0  0  0  0  0  0
   22.4702   -6.1529  -17.4266 O   0  0  0  0  0  0  0  0  0  0  0  0
   22.9467   -4.9639  -13.9796 O   0  0  0  0  0  0  0  0  0  0  0  0
   19.7934   -2.8467  -18.1120 C   0  0  0  0  0  0  0  0  0  0  0  0
   20.9650   -3.7665  -17.8379 C   0  0  2  0  0  0  0  0  0  0  0  0
   20.5841   -4.8748  -16.9832 N   0  0  0  0  0  0  0  0  0  0  0  0
   22.1112   -3.0143  -17.3026 C   0  0  0  0  0  0  0  0  0  0  0  0
   22.7684   -2.1176  -18.1186 O   0  0  0  0  0  0  0  0  0  0  0  0
   22.4789   -3.1910  -16.1220 O   0  0  0  0  0  0  0  0  0  0  0  0
  1  2  1  0
  2  3  2  0
  2  4  1  0
  5  7  1  0
  5  4  1  0
  5  6  1  6
  7  8  2  0
  9 10  1  0
  9  7  1  0
 10 14  1  0
 11 12  1  0
 10 11  1  1
 12 13  2  0
 12 16  1  0
 14 19  1  0
 14 15  2  0
 18 17  1  1
 18 20  1  0
 19 18  1  0
 20 22  2  0
 20 21  1  0
M  END
$$$$
