NDA.pdb
     RDKit          3D

 22 21  0  0  1  0  0  0  0  0999 V2000
   16.8739  -13.9078  -11.4150 N   0  0  0  0  0  0  0  0  0  0  0  0
   15.5745  -13.3488  -11.5793 C   0  0  0  0  0  0  0  0  0  0  0  0
   14.5868  -14.0977  -11.3490 O   0  0  0  0  0  0  0  0  0  0  0  0
   15.3877  -11.9383  -12.0053 C   0  0  0  0  0  0  0  0  0  0  0  0
   14.9720  -11.1385  -10.7993 C   0  0  2  0  0  0  0  0  0  0  0  0
   13.6527  -11.5834  -10.4041 N   0  0  0  0  0  0  0  0  0  0  0  0
   14.9883   -9.6714  -11.0783 C   0  0  0  0  0  0  0  0  0  0  0  0
   13.9804   -9.1654  -11.6317 O   0  0  0  0  0  0  0  0  0  0  0  0
   16.0791   -8.8474  -10.7471 N   0  0  0  0  0  0  0  0  0  0  0  0
   16.1780   -7.4418  -11.0277 C   0  0  1  0  0  0  0  0  0  0  0  0
   16.9667   -6.7678   -9.9446 C   0  0  0  0  0  0  0  0  0  0  0  0
   16.0756   -6.3693   -8.8353 C   0  0  0  0  0  0  0  0  0  0  0  0
   14.8236   -6.4425   -8.8604 O   0  0  0  0  0  0  0  0  0  0  0  0
   16.7726   -7.1872  -12.3717 C   0  0  0  0  0  0  0  0  0  0  0  0
   17.8585   -7.7401  -12.6531 O   0  0  0  0  0  0  0  0  0  0  0  0
   16.6079   -5.8627   -7.6347 O   0  0  0  0  0  0  0  0  0  0  0  0
   15.6835   -5.2770  -15.4650 C   0  0  0  0  0  0  0  0  0  0  0  0
   16.6757   -6.0315  -14.6047 C   0  0  2  0  0  0  0  0  0  0  0  0
   16.1223   -6.3421  -13.3003 N   0  0  0  0  0  0  0  0  0  0  0  0
   17.9525   -5.3053  -14.5131 C   0  0  0  0  0  0  0  0  0  0  0  0
   18.8729   -5.4303  -15.5325 O   0  0  0  0  0  0  0  0  0  0  0  0
   18.1932   -4.5859  -13.5207 O   0  0  0  0  0  0  0  0  0  0  0  0
  1  2  1  0
  2  3  2  0
  2  4  1  0
  5  7  1  0
  5  4  1  0
  5  6  1  6
  7  8  2  0
  9 10  1  0
  9  7  1  0
 10 14  1  0
 11 12  1  0
 10 11  1  1
 12 13  2  0
 12 16  1  0
 14 19  1  0
 14 15  2  0
 18 17  1  6
 18 20  1  0
 19 18  1  0
 20 22  2  0
 20 21  1  0
M  END
$$$$
