NDA.pdb
     RDKit          3D

 22 21  0  0  1  0  0  0  0  0999 V2000
   18.1144  -14.8924  -17.0278 N   0  0  0  0  0  0  0  0  0  0  0  0
   17.4787  -13.7708  -16.4227 C   0  0  0  0  0  0  0  0  0  0  0  0
   16.6182  -14.0023  -15.5310 O   0  0  0  0  0  0  0  0  0  0  0  0
   17.8150  -12.3812  -16.8251 C   0  0  0  0  0  0  0  0  0  0  0  0
   18.3190  -11.6527  -15.6077 C   0  0  2  0  0  0  0  0  0  0  0  0
   17.2904  -11.7204  -14.5918 N   0  0  0  0  0  0  0  0  0  0  0  0
   18.6786  -10.2376  -15.9215 C   0  0  0  0  0  0  0  0  0  0  0  0
   19.5358  -10.0319  -16.8166 O   0  0  0  0  0  0  0  0  0  0  0  0
   18.0982   -9.1414  -15.2582 N   0  0  0  0  0  0  0  0  0  0  0  0
   18.3779   -7.7586  -15.5300 C   0  0  1  0  0  0  0  0  0  0  0  0
   17.1639   -6.9317  -15.2268 C   0  0  0  0  0  0  0  0  0  0  0  0
   17.3826   -5.5306  -15.6420 C   0  0  0  0  0  0  0  0  0  0  0  0
   18.0884   -5.1736  -16.6156 O   0  0  0  0  0  0  0  0  0  0  0  0
   19.5676   -7.2760  -14.7708 C   0  0  0  0  0  0  0  0  0  0  0  0
   19.5866   -7.4423  -13.5315 O   0  0  0  0  0  0  0  0  0  0  0  0
   16.7832   -4.4713  -14.9347 O   0  0  0  0  0  0  0  0  0  0  0  0
   22.9893   -6.0168  -15.7761 C   0  0  0  0  0  0  0  0  0  0  0  0
   21.8868   -6.3000  -14.7770 C   0  0  2  0  0  0  0  0  0  0  0  0
   20.6437   -6.6473  -15.4388 N   0  0  0  0  0  0  0  0  0  0  0  0
   21.7269   -5.1787  -13.8371 C   0  0  0  0  0  0  0  0  0  0  0  0
   22.7620   -4.8641  -12.9819 O   0  0  0  0  0  0  0  0  0  0  0  0
   20.6633   -4.5240  -13.8198 O   0  0  0  0  0  0  0  0  0  0  0  0
  1  2  1  0
  2  3  2  0
  2  4  1  0
  5  7  1  0
  5  4  1  0
  5  6  1  1
  7  8  2  0
  9 10  1  0
  9  7  1  0
 10 14  1  0
 11 12  1  0
 10 11  1  1
 12 13  2  0
 12 16  1  0
 14 19  1  0
 14 15  2  0
 18 17  1  6
 18 20  1  0
 19 18  1  0
 20 22  2  0
 20 21  1  0
M  END
$$$$
