NDA.pdb
     RDKit          3D

 22 21  0  0  1  0  0  0  0  0999 V2000
   18.4145  -14.5274  -16.0240 N   0  0  0  0  0  0  0  0  0  0  0  0
   17.8674  -13.3748  -15.3915 C   0  0  0  0  0  0  0  0  0  0  0  0
   17.0395  -13.5618  -14.4593 O   0  0  0  0  0  0  0  0  0  0  0  0
   18.2557  -12.0042  -15.8121 C   0  0  0  0  0  0  0  0  0  0  0  0
   17.3171  -11.0304  -15.1505 C   0  0  2  0  0  0  0  0  0  0  0  0
   16.0216  -11.1631  -15.7818 N   0  0  0  0  0  0  0  0  0  0  0  0
   17.8234   -9.6284  -15.2415 C   0  0  0  0  0  0  0  0  0  0  0  0
   18.6670   -9.3630  -16.1337 O   0  0  0  0  0  0  0  0  0  0  0  0
   17.3938   -8.6079  -14.3739 N   0  0  0  0  0  0  0  0  0  0  0  0
   17.8248   -7.2381  -14.4194 C   0  0  1  0  0  0  0  0  0  0  0  0
   16.7368   -6.3515  -13.8905 C   0  0  0  0  0  0  0  0  0  0  0  0
   15.6170   -6.2866  -14.8524 C   0  0  0  0  0  0  0  0  0  0  0  0
   15.7422   -6.0990  -16.0863 O   0  0  0  0  0  0  0  0  0  0  0  0
   19.1011   -7.0355  -13.6746 C   0  0  0  0  0  0  0  0  0  0  0  0
   19.2103   -7.5445  -12.5375 O   0  0  0  0  0  0  0  0  0  0  0  0
   14.2873   -6.4390  -14.4161 O   0  0  0  0  0  0  0  0  0  0  0  0
   22.4895   -7.0442  -14.2650 C   0  0  0  0  0  0  0  0  0  0  0  0
   21.4559   -6.1511  -13.6109 C   0  0  2  0  0  0  0  0  0  0  0  0
   20.1574   -6.2868  -14.2431 N   0  0  0  0  0  0  0  0  0  0  0  0
   21.9164   -4.7538  -13.5713 C   0  0  0  0  0  0  0  0  0  0  0  0
   22.9598   -4.4121  -12.7368 O   0  0  0  0  0  0  0  0  0  0  0  0
   21.3641   -3.8926  -14.2880 O   0  0  0  0  0  0  0  0  0  0  0  0
  1  2  1  0
  2  3  2  0
  2  4  1  0
  5  7  1  0
  5  4  1  0
  5  6  1  6
  7  8  2  0
  9 10  1  0
  9  7  1  0
 10 14  1  0
 11 12  1  0
 10 11  1  1
 12 13  2  0
 12 16  1  0
 14 19  1  0
 14 15  2  0
 18 17  1  6
 18 20  1  0
 19 18  1  0
 20 22  2  0
 20 21  1  0
M  END
$$$$
