NDA.pdb
     RDKit          3D

 22 21  0  0  1  0  0  0  0  0999 V2000
   17.8707  -10.6140  -12.5682 N   0  0  0  0  0  0  0  0  0  0  0  0
   16.7987  -11.2421  -11.8725 C   0  0  0  0  0  0  0  0  0  0  0  0
   16.6196  -12.4740  -12.0721 O   0  0  0  0  0  0  0  0  0  0  0  0
   15.9240  -10.4776  -10.9470 C   0  0  0  0  0  0  0  0  0  0  0  0
   16.4305   -9.0608  -10.8911 C   0  0  2  0  0  0  0  0  0  0  0  0
   17.6744   -9.0623  -10.1512 N   0  0  0  0  0  0  0  0  0  0  0  0
   15.4309   -8.1421  -10.2690 C   0  0  0  0  0  0  0  0  0  0  0  0
   14.3914   -8.6480   -9.7773 O   0  0  0  0  0  0  0  0  0  0  0  0
   15.6106   -6.7480  -10.2153 N   0  0  0  0  0  0  0  0  0  0  0  0
   14.7364   -5.8192   -9.5541 C   0  0  1  0  0  0  0  0  0  0  0  0
   14.6179   -6.1860   -8.1046 C   0  0  0  0  0  0  0  0  0  0  0  0
   13.6651   -5.2839   -7.4250 C   0  0  0  0  0  0  0  0  0  0  0  0
   12.4319   -5.2427   -7.6508 O   0  0  0  0  0  0  0  0  0  0  0  0
   15.1976   -4.4108   -9.7223 C   0  0  0  0  0  0  0  0  0  0  0  0
   16.3647   -4.1245   -9.3759 O   0  0  0  0  0  0  0  0  0  0  0  0
   14.1101   -4.3801   -6.4419 O   0  0  0  0  0  0  0  0  0  0  0  0
   13.7335   -1.3347  -11.3864 C   0  0  0  0  0  0  0  0  0  0  0  0
   14.7746   -2.0837  -10.5809 C   0  0  2  0  0  0  0  0  0  0  0  0
   14.3345   -3.4281  -10.2599 N   0  0  0  0  0  0  0  0  0  0  0  0
   15.1636   -1.3208   -9.3839 C   0  0  0  0  0  0  0  0  0  0  0  0
   15.8460   -0.1320   -9.5354 O   0  0  0  0  0  0  0  0  0  0  0  0
   14.8757   -1.7509   -8.2470 O   0  0  0  0  0  0  0  0  0  0  0  0
  1  2  1  0
  2  3  2  0
  2  4  1  0
  5  7  1  0
  5  4  1  0
  5  6  1  1
  7  8  2  0
  9 10  1  0
  9  7  1  0
 10 14  1  0
 11 12  1  0
 10 11  1  1
 12 13  2  0
 12 16  1  0
 14 19  1  0
 14 15  2  0
 18 17  1  1
 18 20  1  0
 19 18  1  0
 20 22  2  0
 20 21  1  0
M  END
$$$$
