CKS.pdb
     RDKit          3D

 22 21  0  0  1  0  0  0  0  0999 V2000
   24.8975  -10.9972  -17.8597 N   0  0  0  0  0  0  0  0  0  0  0  0
   24.6259  -10.8355  -16.4138 C   0  0  1  0  0  0  0  0  0  0  0  0
   25.9192  -10.4689  -15.7129 C   0  0  0  0  0  0  0  0  0  0  0  0
   26.9856  -11.9181  -15.5955 S   0  0  0  0  0  0  0  0  0  0  0  0
   23.5819   -9.8020  -16.3012 C   0  0  0  0  0  0  0  0  0  0  0  0
   23.6822   -8.7111  -16.9691 O   0  0  0  0  0  0  0  0  0  0  0  0
   22.4255   -9.8831  -15.5013 N   0  0  0  0  0  0  0  0  0  0  0  0
   21.4268   -8.8367  -15.4522 C   0  0  1  0  0  0  0  0  0  0  0  0
   20.0760   -9.3376  -14.9927 C   0  0  0  0  0  0  0  0  0  0  0  0
   19.6330  -10.3899  -15.9841 C   0  0  0  0  0  0  0  0  0  0  0  0
   18.3611  -11.0780  -15.5532 C   0  0  0  0  0  0  0  0  0  0  0  0
   18.0634  -12.2708  -16.4528 C   0  0  0  0  0  0  0  0  0  0  0  0
   16.7981  -12.8949  -16.1226 N   0  0  0  0  0  0  0  0  0  0  0  0
   21.8984   -7.6626  -14.6787 C   0  0  0  0  0  0  0  0  0  0  0  0
   22.3139   -7.8685  -13.5090 O   0  0  0  0  0  0  0  0  0  0  0  0
   22.5738   -4.0025  -16.3895 O   0  0  0  0  0  0  0  0  0  0  0  0
   23.3243   -4.3532  -15.2655 C   0  0  0  0  0  0  0  0  0  0  0  0
   22.4712   -5.2675  -14.4142 C   0  0  2  0  0  0  0  0  0  0  0  0
   21.9053   -6.3489  -15.1776 N   0  0  0  0  0  0  0  0  0  0  0  0
   21.4379   -4.4271  -13.7673 C   0  0  0  0  0  0  0  0  0  0  0  0
   21.8829   -3.3988  -12.9446 O   0  0  0  0  0  0  0  0  0  0  0  0
   20.2060   -4.5733  -13.9056 O   0  0  0  0  0  0  0  0  0  0  0  0
  2  1  1  6
  3  2  1  0
  4  3  1  0
  5  6  2  0
  5  2  1  0
  7  5  1  0
  8  9  1  1
  8  7  1  0
 10 11  1  0
 10  9  1  0
 11 12  1  0
 12 13  1  0
 14  8  1  0
 15 14  2  0
 17 16  1  0
 18 17  1  6
 18 19  1  0
 19 14  1  0
 20 18  1  0
 20 21  1  0
 22 20  2  0
M  END
$$$$
