CKS.pdb
     RDKit          3D

 22 21  0  0  1  0  0  0  0  0999 V2000
   18.6600   -9.4471  -13.6749 N   0  0  0  0  0  0  0  0  0  0  0  0
   18.9157   -8.9896  -12.2908 C   0  0  1  0  0  0  0  0  0  0  0  0
   20.0469   -7.9805  -12.3120 C   0  0  0  0  0  0  0  0  0  0  0  0
   21.6063   -8.8144  -12.6645 S   0  0  0  0  0  0  0  0  0  0  0  0
   17.6431   -8.4369  -11.7952 C   0  0  0  0  0  0  0  0  0  0  0  0
   16.9580   -7.6400  -12.5313 O   0  0  0  0  0  0  0  0  0  0  0  0
   17.0643   -8.7006  -10.5386 N   0  0  0  0  0  0  0  0  0  0  0  0
   15.7895   -8.1521  -10.1278 C   0  0  1  0  0  0  0  0  0  0  0  0
   14.9103   -9.1690   -9.4352 C   0  0  0  0  0  0  0  0  0  0  0  0
   13.5462   -8.5374   -9.2721 C   0  0  0  0  0  0  0  0  0  0  0  0
   12.5329   -9.5072   -8.7156 C   0  0  0  0  0  0  0  0  0  0  0  0
   11.2087   -8.8049   -8.4439 C   0  0  0  0  0  0  0  0  0  0  0  0
   10.2544   -9.6815   -7.7956 N   0  0  0  0  0  0  0  0  0  0  0  0
   15.9551   -6.9052   -9.3424 C   0  0  0  0  0  0  0  0  0  0  0  0
   17.0124   -6.7789   -8.6721 O   0  0  0  0  0  0  0  0  0  0  0  0
   16.6972   -2.6517   -9.3610 O   0  0  0  0  0  0  0  0  0  0  0  0
   16.4780   -3.9680   -9.7717 C   0  0  0  0  0  0  0  0  0  0  0  0
   15.3728   -4.5370   -8.9095 C   0  0  2  0  0  0  0  0  0  0  0  0
   15.0048   -5.8704   -9.3082 N   0  0  0  0  0  0  0  0  0  0  0  0
   14.2356   -3.5908   -8.9728 C   0  0  0  0  0  0  0  0  0  0  0  0
   14.2168   -2.5611   -8.0392 O   0  0  0  0  0  0  0  0  0  0  0  0
   13.2999   -3.6497   -9.7970 O   0  0  0  0  0  0  0  0  0  0  0  0
  2  1  1  6
  3  2  1  0
  4  3  1  0
  5  6  2  0
  5  2  1  0
  7  5  1  0
  8  9  1  1
  8  7  1  0
 10 11  1  0
 10  9  1  0
 11 12  1  0
 12 13  1  0
 14  8  1  0
 15 14  2  0
 17 16  1  0
 18 17  1  6
 18 19  1  0
 19 14  1  0
 20 18  1  0
 20 21  1  0
 22 20  2  0
M  END
$$$$
