CKS.pdb
     RDKit          3D

 22 21  0  0  1  0  0  0  0  0999 V2000
   24.5540  -11.8968  -17.7798 N   0  0  0  0  0  0  0  0  0  0  0  0
   24.3742  -11.2567  -16.4575 C   0  0  1  0  0  0  0  0  0  0  0  0
   25.7344  -10.8578  -15.9201 C   0  0  0  0  0  0  0  0  0  0  0  0
   26.6549  -12.3281  -15.4279 S   0  0  0  0  0  0  0  0  0  0  0  0
   23.4671  -10.1153  -16.6695 C   0  0  0  0  0  0  0  0  0  0  0  0
   23.5585   -9.4110  -17.7382 O   0  0  0  0  0  0  0  0  0  0  0  0
   22.4577   -9.6897  -15.7843 N   0  0  0  0  0  0  0  0  0  0  0  0
   21.5282   -8.6267  -16.1018 C   0  0  1  0  0  0  0  0  0  0  0  0
   20.0879   -9.0149  -15.8539 C   0  0  0  0  0  0  0  0  0  0  0  0
   19.7129  -10.0262  -16.9136 C   0  0  0  0  0  0  0  0  0  0  0  0
   18.2713  -10.4583  -16.8031 C   0  0  0  0  0  0  0  0  0  0  0  0
   17.9561  -11.5461  -17.8219 C   0  0  0  0  0  0  0  0  0  0  0  0
   16.6096  -12.0584  -17.6671 N   0  0  0  0  0  0  0  0  0  0  0  0
   21.9027   -7.3534  -15.4405 C   0  0  0  0  0  0  0  0  0  0  0  0
   22.1832   -7.3978  -14.2147 O   0  0  0  0  0  0  0  0  0  0  0  0
   23.1557   -2.7184  -15.6347 O   0  0  0  0  0  0  0  0  0  0  0  0
   22.5506   -3.7506  -16.3544 C   0  0  0  0  0  0  0  0  0  0  0  0
   22.3782   -4.9228  -15.4137 C   0  0  2  0  0  0  0  0  0  0  0  0
   21.9600   -6.1154  -16.1030 N   0  0  0  0  0  0  0  0  0  0  0  0
   21.4191   -4.5066  -14.3652 C   0  0  0  0  0  0  0  0  0  0  0  0
   21.9474   -3.9164  -13.2229 O   0  0  0  0  0  0  0  0  0  0  0  0
   20.1804   -4.6458  -14.4316 O   0  0  0  0  0  0  0  0  0  0  0  0
  2  1  1  6
  3  2  1  0
  4  3  1  0
  5  6  2  0
  5  2  1  0
  7  5  1  0
  8  9  1  1
  8  7  1  0
 10 11  1  0
 10  9  1  0
 11 12  1  0
 12 13  1  0
 14  8  1  0
 15 14  2  0
 17 16  1  0
 18 17  1  6
 18 19  1  0
 19 14  1  0
 20 18  1  0
 20 21  1  0
 22 20  2  0
M  END
$$$$
