CKS.pdb
     RDKit          3D

 22 21  0  0  1  0  0  0  0  0999 V2000
   21.4520  -18.7165  -14.3068 N   0  0  0  0  0  0  0  0  0  0  0  0
   20.0102  -18.4157  -14.1607 C   0  0  1  0  0  0  0  0  0  0  0  0
   19.6571  -18.4260  -12.6864 C   0  0  0  0  0  0  0  0  0  0  0  0
   19.7675  -20.1059  -12.0409 S   0  0  0  0  0  0  0  0  0  0  0  0
   19.7912  -17.1110  -14.8093 C   0  0  0  0  0  0  0  0  0  0  0  0
   20.6401  -16.1624  -14.6486 O   0  0  0  0  0  0  0  0  0  0  0  0
   18.6977  -16.7722  -15.6296 N   0  0  0  0  0  0  0  0  0  0  0  0
   18.5719  -15.4871  -16.2835 C   0  0  1  0  0  0  0  0  0  0  0  0
   17.8909  -15.5797  -17.6305 C   0  0  0  0  0  0  0  0  0  0  0  0
   17.8648  -14.1836  -18.2107 C   0  0  0  0  0  0  0  0  0  0  0  0
   17.4224  -14.1751  -19.6533 C   0  0  0  0  0  0  0  0  0  0  0  0
   17.4973  -12.7673  -20.2307 C   0  0  0  0  0  0  0  0  0  0  0  0
   16.9227  -12.6962  -21.5589 N   0  0  0  0  0  0  0  0  0  0  0  0
   17.9515  -14.4760  -15.3937 C   0  0  0  0  0  0  0  0  0  0  0  0
   17.0239  -14.8622  -14.6363 O   0  0  0  0  0  0  0  0  0  0  0  0
   19.2836  -10.5738  -15.0633 O   0  0  0  0  0  0  0  0  0  0  0  0
   18.6353  -11.1321  -13.9598 C   0  0  0  0  0  0  0  0  0  0  0  0
   17.6860  -12.1909  -14.4758 C   0  0  2  0  0  0  0  0  0  0  0  0
   18.3405  -13.1262  -15.3529 N   0  0  0  0  0  0  0  0  0  0  0  0
   16.5601  -11.4884  -15.1326 C   0  0  0  0  0  0  0  0  0  0  0  0
   15.7791  -10.6607  -14.3344 O   0  0  0  0  0  0  0  0  0  0  0  0
   16.2634  -11.5843  -16.3413 O   0  0  0  0  0  0  0  0  0  0  0  0
  2  1  1  1
  3  2  1  0
  4  3  1  0
  5  6  2  0
  5  2  1  0
  7  5  1  0
  8  9  1  6
  8  7  1  0
 10 11  1  0
 10  9  1  0
 11 12  1  0
 12 13  1  0
 14  8  1  0
 15 14  2  0
 17 16  1  0
 18 17  1  6
 18 19  1  0
 19 14  1  0
 20 18  1  0
 20 21  1  0
 22 20  2  0
M  END
$$$$
