CKS.pdb
     RDKit          3D

 22 21  0  0  1  0  0  0  0  0999 V2000
   21.9255  -11.3969  -19.7251 N   0  0  0  0  0  0  0  0  0  0  0  0
   22.8012  -10.4991  -18.9392 C   0  0  1  0  0  0  0  0  0  0  0  0
   23.7461   -9.7873  -19.8873 C   0  0  0  0  0  0  0  0  0  0  0  0
   24.9437  -10.9587  -20.5541 S   0  0  0  0  0  0  0  0  0  0  0  0
   21.9073   -9.5873  -18.2042 C   0  0  0  0  0  0  0  0  0  0  0  0
   21.2448   -8.6883  -18.8361 O   0  0  0  0  0  0  0  0  0  0  0  0
   21.6867   -9.5938  -16.8132 N   0  0  0  0  0  0  0  0  0  0  0  0
   20.8110   -8.6513  -16.1502 C   0  0  1  0  0  0  0  0  0  0  0  0
   19.8833   -9.3133  -15.1563 C   0  0  0  0  0  0  0  0  0  0  0  0
   18.7899   -9.9890  -15.9529 C   0  0  0  0  0  0  0  0  0  0  0  0
   17.8432  -10.7677  -15.0730 C   0  0  0  0  0  0  0  0  0  0  0  0
   16.9030  -11.6197  -15.9160 C   0  0  0  0  0  0  0  0  0  0  0  0
   15.9296  -12.3188  -15.1015 N   0  0  0  0  0  0  0  0  0  0  0  0
   21.5663   -7.5173  -15.5648 C   0  0  0  0  0  0  0  0  0  0  0  0
   22.6217   -7.7876  -14.9353 O   0  0  0  0  0  0  0  0  0  0  0  0
   22.3735   -2.7972  -15.0538 O   0  0  0  0  0  0  0  0  0  0  0  0
   21.5006   -3.7472  -15.5877 C   0  0  0  0  0  0  0  0  0  0  0  0
   21.9925   -5.1116  -15.1575 C   0  0  2  0  0  0  0  0  0  0  0  0
   21.1698   -6.1736  -15.6751 N   0  0  0  0  0  0  0  0  0  0  0  0
   22.0535   -5.1097  -13.6781 C   0  0  0  0  0  0  0  0  0  0  0  0
   23.0013   -4.2837  -13.0851 O   0  0  0  0  0  0  0  0  0  0  0  0
   21.3216   -5.7903  -12.9302 O   0  0  0  0  0  0  0  0  0  0  0  0
  2  1  1  6
  3  2  1  0
  4  3  1  0
  5  6  2  0
  5  2  1  0
  7  5  1  0
  8  9  1  1
  8  7  1  0
 10 11  1  0
 10  9  1  0
 11 12  1  0
 12 13  1  0
 14  8  1  0
 15 14  2  0
 17 16  1  0
 18 17  1  1
 18 19  1  0
 19 14  1  0
 20 18  1  0
 20 21  1  0
 22 20  2  0
M  END
$$$$
