CKS.pdb
     RDKit          3D

 22 21  0  0  1  0  0  0  0  0999 V2000
   25.7310  -22.1596  -15.5911 N   0  0  0  0  0  0  0  0  0  0  0  0
   25.2918  -21.0190  -14.7566 C   0  0  1  0  0  0  0  0  0  0  0  0
   26.0984  -19.7944  -15.1412 C   0  0  0  0  0  0  0  0  0  0  0  0
   27.8290  -20.0351  -14.6961 S   0  0  0  0  0  0  0  0  0  0  0  0
   23.8449  -20.8679  -14.9897 C   0  0  0  0  0  0  0  0  0  0  0  0
   23.3654  -21.0109  -16.1712 O   0  0  0  0  0  0  0  0  0  0  0  0
   22.8792  -20.5696  -14.0088 N   0  0  0  0  0  0  0  0  0  0  0  0
   21.4976  -20.2782  -14.3265 C   0  0  1  0  0  0  0  0  0  0  0  0
   20.5336  -20.8113  -13.2906 C   0  0  0  0  0  0  0  0  0  0  0  0
   20.3612  -22.2884  -13.5642 C   0  0  0  0  0  0  0  0  0  0  0  0
   19.3279  -22.9174  -12.6624 C   0  0  0  0  0  0  0  0  0  0  0  0
   19.0967  -24.3742  -13.0432 C   0  0  0  0  0  0  0  0  0  0  0  0
   18.1804  -25.0322  -12.1339 N   0  0  0  0  0  0  0  0  0  0  0  0
   21.2921  -18.8385  -14.6164 C   0  0  0  0  0  0  0  0  0  0  0  0
   22.0937  -18.0220  -14.0931 O   0  0  0  0  0  0  0  0  0  0  0  0
   21.8156  -16.2383  -17.9594 O   0  0  0  0  0  0  0  0  0  0  0  0
   21.6336  -17.4235  -17.2440 C   0  0  0  0  0  0  0  0  0  0  0  0
   20.4754  -17.2101  -16.2945 C   0  0  2  0  0  0  0  0  0  0  0  0
   20.2618  -18.3448  -15.4347 N   0  0  0  0  0  0  0  0  0  0  0  0
   19.2869  -16.8889  -17.1172 C   0  0  0  0  0  0  0  0  0  0  0  0
   18.9006  -15.5549  -17.1767 O   0  0  0  0  0  0  0  0  0  0  0  0
   18.6119  -17.7220  -17.7563 O   0  0  0  0  0  0  0  0  0  0  0  0
  2  1  1  6
  3  2  1  0
  4  3  1  0
  5  6  2  0
  5  2  1  0
  7  5  1  0
  8  9  1  1
  8  7  1  0
 10 11  1  0
 10  9  1  0
 11 12  1  0
 12 13  1  0
 14  8  1  0
 15 14  2  0
 17 16  1  0
 18 17  1  6
 18 19  1  0
 19 14  1  0
 20 18  1  0
 20 21  1  0
 22 20  2  0
M  END
$$$$
