CKS.pdb
     RDKit          3D

 22 21  0  0  1  0  0  0  0  0999 V2000
   25.8221  -10.9570  -17.7575 N   0  0  0  0  0  0  0  0  0  0  0  0
   25.3844  -10.6279  -16.3825 C   0  0  1  0  0  0  0  0  0  0  0  0
   26.5056   -9.8903  -15.6775 C   0  0  0  0  0  0  0  0  0  0  0  0
   27.8225  -11.0439  -15.2457 S   0  0  0  0  0  0  0  0  0  0  0  0
   24.1515   -9.8330  -16.5191 C   0  0  0  0  0  0  0  0  0  0  0  0
   23.9996   -9.0492  -17.5236 O   0  0  0  0  0  0  0  0  0  0  0  0
   23.0642   -9.8388  -15.6240 N   0  0  0  0  0  0  0  0  0  0  0  0
   21.8875   -9.0165  -15.8085 C   0  0  1  0  0  0  0  0  0  0  0  0
   20.6097   -9.8240  -15.8507 C   0  0  0  0  0  0  0  0  0  0  0  0
   19.4898   -8.8641  -16.1840 C   0  0  0  0  0  0  0  0  0  0  0  0
   18.1532   -9.5584  -16.2747 C   0  0  0  0  0  0  0  0  0  0  0  0
   17.0477   -8.5586  -16.5891 C   0  0  0  0  0  0  0  0  0  0  0  0
   15.7314   -9.1527  -16.4714 N   0  0  0  0  0  0  0  0  0  0  0  0
   21.8338   -7.9059  -14.8274 C   0  0  0  0  0  0  0  0  0  0  0  0
   22.5187   -8.0256  -13.7787 O   0  0  0  0  0  0  0  0  0  0  0  0
   23.2979   -3.8898  -14.6537 O   0  0  0  0  0  0  0  0  0  0  0  0
   22.8839   -5.1078  -15.1965 C   0  0  0  0  0  0  0  0  0  0  0  0
   21.5532   -5.4587  -14.5682 C   0  0  2  0  0  0  0  0  0  0  0  0
   21.0676   -6.7413  -15.0055 N   0  0  0  0  0  0  0  0  0  0  0  0
   20.6148   -4.3578  -14.8845 C   0  0  0  0  0  0  0  0  0  0  0  0
   20.4315   -3.3833  -13.9103 O   0  0  0  0  0  0  0  0  0  0  0  0
   19.9812   -4.2418  -15.9537 O   0  0  0  0  0  0  0  0  0  0  0  0
  2  1  1  6
  3  2  1  0
  4  3  1  0
  5  6  2  0
  5  2  1  0
  7  5  1  0
  8  9  1  1
  8  7  1  0
 10 11  1  0
 10  9  1  0
 11 12  1  0
 12 13  1  0
 14  8  1  0
 15 14  2  0
 17 16  1  0
 18 17  1  6
 18 19  1  0
 19 14  1  0
 20 18  1  0
 20 21  1  0
 22 20  2  0
M  END
$$$$
