CKS.pdb
     RDKit          3D

 22 21  0  0  1  0  0  0  0  0999 V2000
   16.1065  -11.2499  -14.2596 N   0  0  0  0  0  0  0  0  0  0  0  0
   17.3391  -11.4548  -15.0528 C   0  0  1  0  0  0  0  0  0  0  0  0
   17.0022  -12.2950  -16.2689 C   0  0  0  0  0  0  0  0  0  0  0  0
   16.1958  -13.8234  -15.7543 S   0  0  0  0  0  0  0  0  0  0  0  0
   17.8450  -10.1120  -15.3869 C   0  0  0  0  0  0  0  0  0  0  0  0
   18.9066   -9.9827  -16.0958 O   0  0  0  0  0  0  0  0  0  0  0  0
   17.2620   -8.8911  -14.9953 N   0  0  0  0  0  0  0  0  0  0  0  0
   17.7610   -7.6044  -15.4311 C   0  0  1  0  0  0  0  0  0  0  0  0
   16.6810   -6.5476  -15.4918 C   0  0  0  0  0  0  0  0  0  0  0  0
   15.8178   -6.8647  -16.6922 C   0  0  0  0  0  0  0  0  0  0  0  0
   14.6514   -5.9162  -16.8208 C   0  0  0  0  0  0  0  0  0  0  0  0
   13.7971   -6.2748  -18.0301 C   0  0  0  0  0  0  0  0  0  0  0  0
   12.5770   -5.4949  -18.0809 N   0  0  0  0  0  0  0  0  0  0  0  0
   18.9408   -7.1761  -14.6415 C   0  0  0  0  0  0  0  0  0  0  0  0
   18.8374   -7.1972  -13.3877 O   0  0  0  0  0  0  0  0  0  0  0  0
   23.5636   -6.7283  -13.9540 O   0  0  0  0  0  0  0  0  0  0  0  0
   22.5662   -7.0236  -14.8854 C   0  0  0  0  0  0  0  0  0  0  0  0
   21.2797   -6.4011  -14.3894 C   0  0  2  0  0  0  0  0  0  0  0  0
   20.1530   -6.7534  -15.2132 N   0  0  0  0  0  0  0  0  0  0  0  0
   21.4981   -4.9382  -14.3208 C   0  0  0  0  0  0  0  0  0  0  0  0
   20.7188   -4.1426  -15.1525 O   0  0  0  0  0  0  0  0  0  0  0  0
   22.3246   -4.3716  -13.5763 O   0  0  0  0  0  0  0  0  0  0  0  0
  2  1  1  1
  3  2  1  0
  4  3  1  0
  5  6  2  0
  5  2  1  0
  7  5  1  0
  8  9  1  1
  8  7  1  0
 10 11  1  0
 10  9  1  0
 11 12  1  0
 12 13  1  0
 14  8  1  0
 15 14  2  0
 17 16  1  0
 18 17  1  6
 18 19  1  0
 19 14  1  0
 20 18  1  0
 20 21  1  0
 22 20  2  0
M  END
$$$$
