CKS.pdb
     RDKit          3D

 22 21  0  0  1  0  0  0  0  0999 V2000
   23.2204  -11.9716  -16.0977 N   0  0  0  0  0  0  0  0  0  0  0  0
   23.5802  -10.8633  -17.0101 C   0  0  1  0  0  0  0  0  0  0  0  0
   23.6103  -11.3916  -18.4307 C   0  0  0  0  0  0  0  0  0  0  0  0
   24.4737  -12.9739  -18.4785 S   0  0  0  0  0  0  0  0  0  0  0  0
   22.5752   -9.8073  -16.7960 C   0  0  0  0  0  0  0  0  0  0  0  0
   22.6930   -8.6771  -17.3919 O   0  0  0  0  0  0  0  0  0  0  0  0
   21.4402   -9.9061  -15.9681 N   0  0  0  0  0  0  0  0  0  0  0  0
   20.4766   -8.8361  -15.8215 C   0  0  1  0  0  0  0  0  0  0  0  0
   19.1188   -9.3283  -15.3732 C   0  0  0  0  0  0  0  0  0  0  0  0
   18.5581  -10.1679  -16.4990 C   0  0  0  0  0  0  0  0  0  0  0  0
   17.1854  -10.7060  -16.1782 C   0  0  0  0  0  0  0  0  0  0  0  0
   16.6878  -11.6123  -17.2970 C   0  0  0  0  0  0  0  0  0  0  0  0
   15.3890  -12.1798  -16.9963 N   0  0  0  0  0  0  0  0  0  0  0  0
   20.9993   -7.7382  -14.9727 C   0  0  0  0  0  0  0  0  0  0  0  0
   21.7977   -8.0484  -14.0511 O   0  0  0  0  0  0  0  0  0  0  0  0
   23.4740   -4.2552  -14.2831 O   0  0  0  0  0  0  0  0  0  0  0  0
   22.8330   -5.2772  -14.9860 C   0  0  0  0  0  0  0  0  0  0  0  0
   21.4035   -5.3418  -14.4950 C   0  0  2  0  0  0  0  0  0  0  0  0
   20.6538   -6.3866  -15.1420 N   0  0  0  0  0  0  0  0  0  0  0  0
   20.8073   -4.0024  -14.7028 C   0  0  0  0  0  0  0  0  0  0  0  0
   20.9987   -3.0619  -13.6973 O   0  0  0  0  0  0  0  0  0  0  0  0
   20.1505   -3.6588  -15.7071 O   0  0  0  0  0  0  0  0  0  0  0  0
  2  1  1  1
  3  2  1  0
  4  3  1  0
  5  6  2  0
  5  2  1  0
  7  5  1  0
  8  9  1  1
  8  7  1  0
 10 11  1  0
 10  9  1  0
 11 12  1  0
 12 13  1  0
 14  8  1  0
 15 14  2  0
 17 16  1  0
 18 17  1  6
 18 19  1  0
 19 14  1  0
 20 18  1  0
 20 21  1  0
 22 20  2  0
M  END
$$$$
