CKS.pdb
     RDKit          3D

 22 21  0  0  1  0  0  0  0  0999 V2000
   34.4931  -11.2333  -18.2996 N   0  0  0  0  0  0  0  0  0  0  0  0
   33.7830  -10.1811  -17.5386 C   0  0  1  0  0  0  0  0  0  0  0  0
   34.6601   -8.9460  -17.4799 C   0  0  0  0  0  0  0  0  0  0  0  0
   36.1136   -9.2733  -16.4644 S   0  0  0  0  0  0  0  0  0  0  0  0
   32.5019   -9.9611  -18.2321 C   0  0  0  0  0  0  0  0  0  0  0  0
   32.4241  -10.1153  -19.5035 O   0  0  0  0  0  0  0  0  0  0  0  0
   31.2900   -9.5816  -17.6231 N   0  0  0  0  0  0  0  0  0  0  0  0
   30.0556   -9.4169  -18.3605 C   0  0  1  0  0  0  0  0  0  0  0  0
   28.9252  -10.2531  -17.8042 C   0  0  0  0  0  0  0  0  0  0  0  0
   27.7593  -10.1120  -18.7567 C   0  0  0  0  0  0  0  0  0  0  0  0
   26.5495  -10.8861  -18.2940 C   0  0  0  0  0  0  0  0  0  0  0  0
   25.3703  -10.6510  -19.2293 C   0  0  0  0  0  0  0  0  0  0  0  0
   24.1994  -11.4014  -18.8228 N   0  0  0  0  0  0  0  0  0  0  0  0
   29.6926   -7.9871  -18.5120 C   0  0  0  0  0  0  0  0  0  0  0  0
   29.7436   -7.2643  -17.4834 O   0  0  0  0  0  0  0  0  0  0  0  0
   28.9542   -4.0901  -21.1721 O   0  0  0  0  0  0  0  0  0  0  0  0
   29.0721   -5.4802  -21.2287 C   0  0  0  0  0  0  0  0  0  0  0  0
   28.9776   -6.0041  -19.8126 C   0  0  2  0  0  0  0  0  0  0  0  0
   29.2995   -7.4048  -19.7291 N   0  0  0  0  0  0  0  0  0  0  0  0
   27.6122   -5.7049  -19.3243 C   0  0  0  0  0  0  0  0  0  0  0  0
   27.4025   -4.4517  -18.7605 O   0  0  0  0  0  0  0  0  0  0  0  0
   26.6431   -6.4896  -19.3814 O   0  0  0  0  0  0  0  0  0  0  0  0
  2  1  1  6
  3  2  1  0
  4  3  1  0
  5  6  2  0
  5  2  1  0
  7  5  1  0
  8  9  1  1
  8  7  1  0
 10 11  1  0
 10  9  1  0
 11 12  1  0
 12 13  1  0
 14  8  1  0
 15 14  2  0
 17 16  1  0
 18 17  1  6
 18 19  1  0
 19 14  1  0
 20 18  1  0
 20 21  1  0
 22 20  2  0
M  END
$$$$
