CKS.pdb
     RDKit          3D

 22 21  0  0  1  0  0  0  0  0999 V2000
   25.0205  -11.8365  -17.7272 N   0  0  0  0  0  0  0  0  0  0  0  0
   24.9543  -11.2507  -16.3697 C   0  0  1  0  0  0  0  0  0  0  0  0
   26.3315  -10.7431  -15.9902 C   0  0  0  0  0  0  0  0  0  0  0  0
   27.4145  -12.1336  -15.6095 S   0  0  0  0  0  0  0  0  0  0  0  0
   23.9312  -10.1920  -16.4245 C   0  0  0  0  0  0  0  0  0  0  0  0
   23.9460   -9.3320  -17.3767 O   0  0  0  0  0  0  0  0  0  0  0  0
   22.8837  -10.0101  -15.5008 N   0  0  0  0  0  0  0  0  0  0  0  0
   21.8816   -8.9751  -15.6399 C   0  0  1  0  0  0  0  0  0  0  0  0
   20.5036   -9.4340  -15.2193 C   0  0  0  0  0  0  0  0  0  0  0  0
   20.0643  -10.4858  -16.2130 C   0  0  0  0  0  0  0  0  0  0  0  0
   18.6616  -10.9724  -15.9438 C   0  0  0  0  0  0  0  0  0  0  0  0
   18.6735  -12.4301  -15.5012 C   0  0  0  0  0  0  0  0  0  0  0  0
   17.3445  -12.9080  -15.1775 N   0  0  0  0  0  0  0  0  0  0  0  0
   22.2961   -7.7158  -14.9754 C   0  0  0  0  0  0  0  0  0  0  0  0
   22.7128   -7.7959  -13.7909 O   0  0  0  0  0  0  0  0  0  0  0  0
   22.1310   -4.0614  -16.8317 O   0  0  0  0  0  0  0  0  0  0  0  0
   23.0959   -4.1669  -15.8281 C   0  0  0  0  0  0  0  0  0  0  0  0
   22.6571   -5.2671  -14.8870 C   0  0  2  0  0  0  0  0  0  0  0  0
   22.2484   -6.4539  -15.5919 N   0  0  0  0  0  0  0  0  0  0  0  0
   21.5799   -4.7125  -14.0357 C   0  0  0  0  0  0  0  0  0  0  0  0
   21.9028   -3.6211  -13.2378 O   0  0  0  0  0  0  0  0  0  0  0  0
   20.4120   -5.1501  -13.9827 O   0  0  0  0  0  0  0  0  0  0  0  0
  2  1  1  6
  3  2  1  0
  4  3  1  0
  5  6  2  0
  5  2  1  0
  7  5  1  0
  8  9  1  1
  8  7  1  0
 10 11  1  0
 10  9  1  0
 11 12  1  0
 12 13  1  0
 14  8  1  0
 15 14  2  0
 17 16  1  0
 18 17  1  6
 18 19  1  0
 19 14  1  0
 20 18  1  0
 20 21  1  0
 22 20  2  0
M  END
$$$$
