CKS.pdb
     RDKit          3D

 22 21  0  0  1  0  0  0  0  0999 V2000
   17.4227  -11.3410  -14.5947 N   0  0  0  0  0  0  0  0  0  0  0  0
   17.5793  -10.3137  -15.6486 C   0  0  1  0  0  0  0  0  0  0  0  0
   16.4330   -9.3273  -15.5419 C   0  0  0  0  0  0  0  0  0  0  0  0
   14.8953  -10.1156  -16.0570 S   0  0  0  0  0  0  0  0  0  0  0  0
   18.9033   -9.7026  -15.4383 C   0  0  0  0  0  0  0  0  0  0  0  0
   19.2056   -9.1998  -14.2971 O   0  0  0  0  0  0  0  0  0  0  0  0
   19.9275   -9.6048  -16.4000 N   0  0  0  0  0  0  0  0  0  0  0  0
   21.2340   -9.0555  -16.1063 C   0  0  1  0  0  0  0  0  0  0  0  0
   22.2854   -9.4782  -17.1074 C   0  0  0  0  0  0  0  0  0  0  0  0
   22.5741  -10.9411  -16.8559 C   0  0  0  0  0  0  0  0  0  0  0  0
   22.6126  -11.7415  -18.1344 C   0  0  0  0  0  0  0  0  0  0  0  0
   22.9757  -13.1933  -17.8495 C   0  0  0  0  0  0  0  0  0  0  0  0
   23.0611  -13.9781  -19.0646 N   0  0  0  0  0  0  0  0  0  0  0  0
   21.1817   -7.5862  -15.9130 C   0  0  0  0  0  0  0  0  0  0  0  0
   20.6702   -6.8986  -16.8342 O   0  0  0  0  0  0  0  0  0  0  0  0
   19.5345   -5.5606  -13.5518 O   0  0  0  0  0  0  0  0  0  0  0  0
   20.1836   -4.9840  -14.6453 C   0  0  0  0  0  0  0  0  0  0  0  0
   21.6070   -5.4964  -14.6533 C   0  0  2  0  0  0  0  0  0  0  0  0
   21.6674   -6.9301  -14.7691 N   0  0  0  0  0  0  0  0  0  0  0  0
   22.2598   -4.9978  -13.4214 C   0  0  0  0  0  0  0  0  0  0  0  0
   22.3570   -3.6194  -13.2705 O   0  0  0  0  0  0  0  0  0  0  0  0
   22.7255   -5.7193  -12.5153 O   0  0  0  0  0  0  0  0  0  0  0  0
  2  1  1  1
  3  2  1  0
  4  3  1  0
  5  6  2  0
  5  2  1  0
  7  5  1  0
  8  9  1  6
  8  7  1  0
 10 11  1  0
 10  9  1  0
 11 12  1  0
 12 13  1  0
 14  8  1  0
 15 14  2  0
 17 16  1  0
 18 17  1  1
 18 19  1  0
 19 14  1  0
 20 18  1  0
 20 21  1  0
 22 20  2  0
M  END
$$$$
