CKS.pdb
     RDKit          3D

 22 21  0  0  1  0  0  0  0  0999 V2000
   22.9035  -10.8735  -16.5305 N   0  0  0  0  0  0  0  0  0  0  0  0
   22.0496  -11.0021  -15.3285 C   0  0  1  0  0  0  0  0  0  0  0  0
   22.7847  -10.4090  -14.1427 C   0  0  0  0  0  0  0  0  0  0  0  0
   22.8466   -8.6134  -14.2949 S   0  0  0  0  0  0  0  0  0  0  0  0
   20.7857  -10.3129  -15.6423 C   0  0  0  0  0  0  0  0  0  0  0  0
   20.7645   -9.3760  -16.5187 O   0  0  0  0  0  0  0  0  0  0  0  0
   19.5331  -10.5830  -15.0578 N   0  0  0  0  0  0  0  0  0  0  0  0
   18.3325   -9.8475  -15.3930 C   0  0  1  0  0  0  0  0  0  0  0  0
   17.0765  -10.5068  -14.8691 C   0  0  0  0  0  0  0  0  0  0  0  0
   16.8885  -11.7868  -15.6518 C   0  0  0  0  0  0  0  0  0  0  0  0
   15.6609  -12.5468  -15.2133 C   0  0  0  0  0  0  0  0  0  0  0  0
   15.5123  -13.8357  -16.0117 C   0  0  0  0  0  0  0  0  0  0  0  0
   14.4740  -14.6899  -15.4717 N   0  0  0  0  0  0  0  0  0  0  0  0
   18.4366   -8.4196  -15.0064 C   0  0  0  0  0  0  0  0  0  0  0  0
   18.9691   -8.1572  -13.8970 O   0  0  0  0  0  0  0  0  0  0  0  0
   19.6813   -4.1665  -15.4295 O   0  0  0  0  0  0  0  0  0  0  0  0
   19.5274   -5.4636  -15.9227 C   0  0  0  0  0  0  0  0  0  0  0  0
   18.2010   -5.9889  -15.4193 C   0  0  2  0  0  0  0  0  0  0  0  0
   17.9775   -7.3579  -15.8044 N   0  0  0  0  0  0  0  0  0  0  0  0
   17.1484   -5.0777  -15.9236 C   0  0  0  0  0  0  0  0  0  0  0  0
   17.0831   -3.8107  -15.3556 O   0  0  0  0  0  0  0  0  0  0  0  0
   16.3217   -5.3620  -16.8148 O   0  0  0  0  0  0  0  0  0  0  0  0
  2  1  1  6
  3  2  1  0
  4  3  1  0
  5  6  2  0
  5  2  1  0
  7  5  1  0
  8  9  1  1
  8  7  1  0
 10 11  1  0
 10  9  1  0
 11 12  1  0
 12 13  1  0
 14  8  1  0
 15 14  2  0
 17 16  1  0
 18 17  1  6
 18 19  1  0
 19 14  1  0
 20 18  1  0
 20 21  1  0
 22 20  2  0
M  END
$$$$
