CKS.pdb
     RDKit          3D

 22 21  0  0  1  0  0  0  0  0999 V2000
   26.0902  -11.5179  -18.0584 N   0  0  0  0  0  0  0  0  0  0  0  0
   25.7078  -11.2244  -16.6591 C   0  0  1  0  0  0  0  0  0  0  0  0
   26.9178  -10.6778  -15.9275 C   0  0  0  0  0  0  0  0  0  0  0  0
   28.0936  -12.0069  -15.6080 S   0  0  0  0  0  0  0  0  0  0  0  0
   24.5828  -10.2755  -16.7272 C   0  0  0  0  0  0  0  0  0  0  0  0
   24.5752   -9.3498  -17.6157 O   0  0  0  0  0  0  0  0  0  0  0  0
   23.4558  -10.2720  -15.8826 N   0  0  0  0  0  0  0  0  0  0  0  0
   22.3404   -9.3671  -16.0611 C   0  0  1  0  0  0  0  0  0  0  0  0
   21.0041  -10.0276  -15.8069 C   0  0  0  0  0  0  0  0  0  0  0  0
   20.7353  -10.9482  -16.9760 C   0  0  0  0  0  0  0  0  0  0  0  0
   19.3868  -11.6176  -16.8749 C   0  0  0  0  0  0  0  0  0  0  0  0
   19.2171  -12.6551  -17.9774 C   0  0  0  0  0  0  0  0  0  0  0  0
   18.0371  -13.4712  -17.7752 N   0  0  0  0  0  0  0  0  0  0  0  0
   22.5194   -8.1148  -15.2874 C   0  0  0  0  0  0  0  0  0  0  0  0
   22.7396   -8.2227  -14.0533 O   0  0  0  0  0  0  0  0  0  0  0  0
   24.4209   -5.0667  -16.5934 O   0  0  0  0  0  0  0  0  0  0  0  0
   23.3298   -4.5410  -15.8985 C   0  0  0  0  0  0  0  0  0  0  0  0
   22.7374   -5.6574  -15.0670 C   0  0  2  0  0  0  0  0  0  0  0  0
   22.4565   -6.8300  -15.8534 N   0  0  0  0  0  0  0  0  0  0  0  0
   21.5300   -5.1163  -14.4024 C   0  0  0  0  0  0  0  0  0  0  0  0
   21.7111   -4.0431  -13.5378 O   0  0  0  0  0  0  0  0  0  0  0  0
   20.3702   -5.5500  -14.5607 O   0  0  0  0  0  0  0  0  0  0  0  0
  2  1  1  6
  3  2  1  0
  4  3  1  0
  5  6  2  0
  5  2  1  0
  7  5  1  0
  8  9  1  1
  8  7  1  0
 10 11  1  0
 10  9  1  0
 11 12  1  0
 12 13  1  0
 14  8  1  0
 15 14  2  0
 17 16  1  0
 18 17  1  6
 18 19  1  0
 19 14  1  0
 20 18  1  0
 20 21  1  0
 22 20  2  0
M  END
$$$$
