CKS.pdb
     RDKit          3D

 22 21  0  0  1  0  0  0  0  0999 V2000
   24.8362  -10.4828  -17.6213 N   0  0  0  0  0  0  0  0  0  0  0  0
   24.4235  -10.4390  -16.2006 C   0  0  1  0  0  0  0  0  0  0  0  0
   25.5538   -9.8460  -15.3827 C   0  0  0  0  0  0  0  0  0  0  0  0
   26.9110  -11.0272  -15.2649 S   0  0  0  0  0  0  0  0  0  0  0  0
   23.1833   -9.6449  -16.1536 C   0  0  0  0  0  0  0  0  0  0  0  0
   23.0762   -8.5773  -16.8573 O   0  0  0  0  0  0  0  0  0  0  0  0
   22.0428   -9.9433  -15.3830 N   0  0  0  0  0  0  0  0  0  0  0  0
   20.8724   -9.0927  -15.3462 C   0  0  1  0  0  0  0  0  0  0  0  0
   19.6298   -9.8259  -14.8936 C   0  0  0  0  0  0  0  0  0  0  0  0
   19.2447  -10.7742  -16.0066 C   0  0  0  0  0  0  0  0  0  0  0  0
   17.9721  -11.5247  -15.7000 C   0  0  0  0  0  0  0  0  0  0  0  0
   17.6126  -12.4643  -16.8440 C   0  0  0  0  0  0  0  0  0  0  0  0
   16.4923  -13.3200  -16.5095 N   0  0  0  0  0  0  0  0  0  0  0  0
   21.1199   -7.8502  -14.5754 C   0  0  0  0  0  0  0  0  0  0  0  0
   21.8143   -7.9455  -13.5304 O   0  0  0  0  0  0  0  0  0  0  0  0
   22.8317   -3.9623  -13.7337 O   0  0  0  0  0  0  0  0  0  0  0  0
   22.5381   -5.1648  -14.3798 C   0  0  0  0  0  0  0  0  0  0  0  0
   21.0476   -5.3945  -14.2611 C   0  0  2  0  0  0  0  0  0  0  0  0
   20.6258   -6.5881  -14.9465 N   0  0  0  0  0  0  0  0  0  0  0  0
   20.3742   -4.1784  -14.7712 C   0  0  0  0  0  0  0  0  0  0  0  0
   19.6030   -4.3167  -15.9194 O   0  0  0  0  0  0  0  0  0  0  0  0
   20.4478   -3.0467  -14.2494 O   0  0  0  0  0  0  0  0  0  0  0  0
  2  1  1  6
  3  2  1  0
  4  3  1  0
  5  6  2  0
  5  2  1  0
  7  5  1  0
  8  9  1  1
  8  7  1  0
 10 11  1  0
 10  9  1  0
 11 12  1  0
 12 13  1  0
 14  8  1  0
 15 14  2  0
 17 16  1  0
 18 17  1  6
 18 19  1  0
 19 14  1  0
 20 18  1  0
 20 21  1  0
 22 20  2  0
M  END
$$$$
