CKS.pdb
     RDKit          3D

 22 21  0  0  1  0  0  0  0  0999 V2000
   14.0970  -12.2097  -11.6126 N   0  0  0  0  0  0  0  0  0  0  0  0
   15.4613  -11.9473  -11.1025 C   0  0  1  0  0  0  0  0  0  0  0  0
   16.4595  -12.6676  -11.9873 C   0  0  0  0  0  0  0  0  0  0  0  0
   16.4593  -14.4296  -11.6043 S   0  0  0  0  0  0  0  0  0  0  0  0
   15.6276  -10.4834  -11.0980 C   0  0  0  0  0  0  0  0  0  0  0  0
   15.2106   -9.7857  -12.0908 O   0  0  0  0  0  0  0  0  0  0  0  0
   16.2232   -9.7252  -10.0714 N   0  0  0  0  0  0  0  0  0  0  0  0
   16.3431   -8.2838  -10.1248 C   0  0  1  0  0  0  0  0  0  0  0  0
   15.7624   -7.6024   -8.9061 C   0  0  0  0  0  0  0  0  0  0  0  0
   15.7429   -6.1184   -9.1954 C   0  0  0  0  0  0  0  0  0  0  0  0
   15.0333   -5.3376   -8.1166 C   0  0  0  0  0  0  0  0  0  0  0  0
   14.8619   -3.8816   -8.5306 C   0  0  0  0  0  0  0  0  0  0  0  0
   16.1344   -3.1979   -8.6438 N   0  0  0  0  0  0  0  0  0  0  0  0
   17.7340   -7.8583  -10.4136 C   0  0  0  0  0  0  0  0  0  0  0  0
   18.6581   -8.4296   -9.7791 O   0  0  0  0  0  0  0  0  0  0  0  0
   21.2052   -7.7733  -12.9502 O   0  0  0  0  0  0  0  0  0  0  0  0
   19.9228   -8.0200  -12.4560 C   0  0  0  0  0  0  0  0  0  0  0  0
   19.4143   -6.7334  -11.8439 C   0  0  2  0  0  0  0  0  0  0  0  0
   18.0694   -6.8628  -11.3471 N   0  0  0  0  0  0  0  0  0  0  0  0
   19.5403   -5.6775  -12.8742 C   0  0  0  0  0  0  0  0  0  0  0  0
   20.7769   -5.0537  -12.9928 O   0  0  0  0  0  0  0  0  0  0  0  0
   18.6243   -5.3093  -13.6382 O   0  0  0  0  0  0  0  0  0  0  0  0
  2  1  1  6
  3  2  1  0
  4  3  1  0
  5  6  2  0
  5  2  1  0
  7  5  1  0
  8  9  1  1
  8  7  1  0
 10 11  1  0
 10  9  1  0
 11 12  1  0
 12 13  1  0
 14  8  1  0
 15 14  2  0
 17 16  1  0
 18 17  1  6
 18 19  1  0
 19 14  1  0
 20 18  1  0
 20 21  1  0
 22 20  2  0
M  END
$$$$
