MLF.pdb
     RDKit          3D

 28 28  0  0  1  0  0  0  0  0999 V2000
   24.7780  -15.4840  -15.0430 C   0  0  0  0  0  0  0  0  0  0  0  0
   26.5355  -15.2080  -15.0847 S   0  0  0  0  0  0  0  0  0  0  0  0
   27.5259  -16.6676  -15.3094 C   0  0  0  0  0  0  0  0  0  0  0  0
   27.0293  -17.8933  -14.6234 C   0  0  0  0  0  0  0  0  0  0  0  0
   28.0030  -19.0166  -14.7079 C   0  0  2  0  0  0  0  0  0  0  0  0
   28.2251  -19.4691  -16.0695 N   0  0  0  0  0  0  0  0  0  0  0  0
   27.5741  -20.1775  -13.8496 C   0  0  0  0  0  0  0  0  0  0  0  0
   27.1118  -21.2330  -14.3380 O   0  0  0  0  0  0  0  0  0  0  0  0
   30.4214  -21.7780  -10.6227 C   0  0  0  0  0  0  0  0  0  0  0  0
   29.3693  -20.8486  -10.0760 C   0  0  2  0  0  0  0  0  0  0  0  0
   29.6130  -20.7876   -8.5567 C   0  0  0  0  0  0  0  0  0  0  0  0
   27.9807  -21.3353  -10.2587 C   0  0  0  0  0  0  0  0  0  0  0  0
   27.3758  -21.2516  -11.6084 C   0  0  2  0  0  0  0  0  0  0  0  0
   27.6776  -20.1247  -12.4134 N   0  0  0  0  0  0  0  0  0  0  0  0
   25.8908  -21.4484  -11.4473 C   0  0  0  0  0  0  0  0  0  0  0  0
   25.4351  -22.4020  -10.7672 O   0  0  0  0  0  0  0  0  0  0  0  0
   24.9631  -20.5686  -12.0549 N   0  0  0  0  0  0  0  0  0  0  0  0
   23.5081  -20.7606  -11.9433 C   0  0  1  0  0  0  0  0  0  0  0  0
   22.9818  -19.4637  -11.3819 C   0  0  0  0  0  0  0  0  0  0  0  0
   21.5057  -19.4681  -11.2478 C   0  0  0  0  0  0  0  0  0  0  0  0
   20.8818  -19.8481  -10.0657 C   0  0  0  0  0  0  0  0  0  0  0  0
   19.5069  -19.8389   -9.9519 C   0  0  0  0  0  0  0  0  0  0  0  0
   18.6839  -19.4583  -10.9888 C   0  0  0  0  0  0  0  0  0  0  0  0
   19.3005  -19.0798  -12.1668 C   0  0  0  0  0  0  0  0  0  0  0  0
   20.6728  -19.0863  -12.2876 C   0  0  0  0  0  0  0  0  0  0  0  0
   22.8976  -20.9777  -13.2704 C   0  0  0  0  0  0  0  0  0  0  0  0
   21.7795  -21.7975  -13.3338 O   0  0  0  0  0  0  0  0  0  0  0  0
   23.3070  -20.4836  -14.3351 O   0  0  0  0  0  0  0  0  0  0  0  0
  2  1  1  0
  3  4  1  0
  3  2  1  0
  5  4  1  0
  5  6  1  6
  7  8  2  0
  7  5  1  0
 10  9  1  6
 10 12  1  0
 11 10  1  0
 13 12  1  1
 13 14  1  0
 14  7  1  0
 15 13  1  0
 16 15  2  0
 17 15  1  0
 18 17  1  0
 18 19  1  6
 20 19  1  0
 20 21  2  0
 22 21  1  0
 23 22  2  0
 24 25  2  0
 24 23  1  0
 25 20  1  0
 26 27  1  0
 26 18  1  0
 28 26  2  0
M  END
$$$$
