MLF.pdb
     RDKit          3D

 28 28  0  0  1  0  0  0  0  0999 V2000
   19.7725  -18.8786  -21.2325 C   0  0  0  0  0  0  0  0  0  0  0  0
   20.9504  -18.3571  -22.4602 S   0  0  0  0  0  0  0  0  0  0  0  0
   22.6325  -18.2425  -21.8950 C   0  0  0  0  0  0  0  0  0  0  0  0
   22.8093  -18.1420  -20.4192 C   0  0  0  0  0  0  0  0  0  0  0  0
   24.2430  -18.0354  -20.0322 C   0  0  2  0  0  0  0  0  0  0  0  0
   25.0672  -19.0698  -20.6311 N   0  0  0  0  0  0  0  0  0  0  0  0
   24.4083  -18.0564  -18.5353 C   0  0  0  0  0  0  0  0  0  0  0  0
   24.5087  -19.1243  -17.8904 O   0  0  0  0  0  0  0  0  0  0  0  0
   27.5040  -15.8944  -15.9917 C   0  0  0  0  0  0  0  0  0  0  0  0
   26.2668  -15.0540  -16.1719 C   0  0  2  0  0  0  0  0  0  0  0  0
   26.5015  -13.7792  -15.3406 C   0  0  0  0  0  0  0  0  0  0  0  0
   25.0309  -15.6786  -15.6417 C   0  0  0  0  0  0  0  0  0  0  0  0
   24.4721  -16.8515  -16.3536 C   0  0  2  0  0  0  0  0  0  0  0  0
   24.4586  -16.8360  -17.7708 N   0  0  0  0  0  0  0  0  0  0  0  0
   23.1043  -17.1148  -15.7792 C   0  0  0  0  0  0  0  0  0  0  0  0
   22.4391  -16.1921  -15.2448 O   0  0  0  0  0  0  0  0  0  0  0  0
   22.5256  -18.4059  -15.8225 N   0  0  0  0  0  0  0  0  0  0  0  0
   21.1021  -18.6398  -15.5307 C   0  0  1  0  0  0  0  0  0  0  0  0
   20.3561  -18.0100  -16.6799 C   0  0  0  0  0  0  0  0  0  0  0  0
   18.8900  -18.1971  -16.5673 C   0  0  0  0  0  0  0  0  0  0  0  0
   18.1146  -17.3991  -15.7349 C   0  0  0  0  0  0  0  0  0  0  0  0
   16.7496  -17.5785  -15.6465 C   0  0  0  0  0  0  0  0  0  0  0  0
   16.0850  -18.5456  -16.3676 C   0  0  0  0  0  0  0  0  0  0  0  0
   16.8526  -19.3420  -17.1968 C   0  0  0  0  0  0  0  0  0  0  0  0
   18.2160  -19.1685  -17.2903 C   0  0  0  0  0  0  0  0  0  0  0  0
   20.7946  -20.0840  -15.5089 C   0  0  0  0  0  0  0  0  0  0  0  0
   19.7322  -20.5000  -14.7185 O   0  0  0  0  0  0  0  0  0  0  0  0
   21.4130  -20.9563  -16.1429 O   0  0  0  0  0  0  0  0  0  0  0  0
  2  1  1  0
  3  4  1  0
  3  2  1  0
  5  4  1  0
  5  6  1  6
  7  8  2  0
  7  5  1  0
 10  9  1  1
 10 12  1  0
 11 10  1  0
 13 12  1  1
 13 14  1  0
 14  7  1  0
 15 13  1  0
 16 15  2  0
 17 15  1  0
 18 17  1  0
 18 19  1  6
 20 19  1  0
 20 21  2  0
 22 21  1  0
 23 22  2  0
 24 25  2  0
 24 23  1  0
 25 20  1  0
 26 27  1  0
 26 18  1  0
 28 26  2  0
M  END
$$$$
