MLF.pdb
     RDKit          3D

 28 28  0  0  1  0  0  0  0  0999 V2000
   28.1207  -40.3185   -9.9020 C   0  0  0  0  0  0  0  0  0  0  0  0
   26.7031  -41.2589   -9.3799 S   0  0  0  0  0  0  0  0  0  0  0  0
   25.7582  -40.5340   -8.0595 C   0  0  0  0  0  0  0  0  0  0  0  0
   26.2617  -39.2273   -7.5509 C   0  0  0  0  0  0  0  0  0  0  0  0
   25.4366  -38.7082   -6.4255 C   0  0  2  0  0  0  0  0  0  0  0  0
   24.0864  -38.3598   -6.8300 N   0  0  0  0  0  0  0  0  0  0  0  0
   26.0926  -37.5223   -5.7683 C   0  0  0  0  0  0  0  0  0  0  0  0
   27.3048  -37.5183   -5.4572 O   0  0  0  0  0  0  0  0  0  0  0  0
   26.2375  -33.1925   -7.3479 C   0  0  0  0  0  0  0  0  0  0  0  0
   25.0288  -33.4526   -6.4871 C   0  0  2  0  0  0  0  0  0  0  0  0
   24.2928  -32.1041   -6.3802 C   0  0  0  0  0  0  0  0  0  0  0  0
   25.3533  -33.8642   -5.1002 C   0  0  0  0  0  0  0  0  0  0  0  0
   25.9698  -35.1940   -4.8851 C   0  0  2  0  0  0  0  0  0  0  0  0
   25.3467  -36.3274   -5.4651 N   0  0  0  0  0  0  0  0  0  0  0  0
   26.1731  -35.3595   -3.4015 C   0  0  0  0  0  0  0  0  0  0  0  0
   25.1991  -35.3266   -2.6079 O   0  0  0  0  0  0  0  0  0  0  0  0
   27.4637  -35.5567   -2.8544 N   0  0  0  0  0  0  0  0  0  0  0  0
   27.6835  -35.7687   -1.4146 C   0  0  1  0  0  0  0  0  0  0  0  0
   28.6157  -36.9509   -1.3286 C   0  0  0  0  0  0  0  0  0  0  0  0
   27.8896  -38.2425   -1.3708 C   0  0  0  0  0  0  0  0  0  0  0  0
   27.0681  -38.6519   -0.3276 C   0  0  0  0  0  0  0  0  0  0  0  0
   26.3911  -39.8526   -0.3840 C   0  0  0  0  0  0  0  0  0  0  0  0
   26.4889  -40.7040   -1.4624 C   0  0  0  0  0  0  0  0  0  0  0  0
   27.3054  -40.3007   -2.5025 C   0  0  0  0  0  0  0  0  0  0  0  0
   27.9843  -39.1030   -2.4531 C   0  0  0  0  0  0  0  0  0  0  0  0
   28.3499  -34.6021   -0.8015 C   0  0  0  0  0  0  0  0  0  0  0  0
   28.6435  -33.5260   -1.6274 O   0  0  0  0  0  0  0  0  0  0  0  0
   28.6686  -34.5086    0.3964 O   0  0  0  0  0  0  0  0  0  0  0  0
  2  1  1  0
  3  4  1  0
  3  2  1  0
  5  4  1  0
  5  6  1  6
  7  8  2  0
  7  5  1  0
 10  9  1  6
 10 12  1  0
 11 10  1  0
 13 12  1  1
 13 14  1  0
 14  7  1  0
 15 13  1  0
 16 15  2  0
 17 15  1  0
 18 17  1  0
 18 19  1  6
 20 19  1  0
 20 21  2  0
 22 21  1  0
 23 22  2  0
 24 25  2  0
 24 23  1  0
 25 20  1  0
 26 27  1  0
 26 18  1  0
 28 26  2  0
M  END
$$$$
