MLF.pdb
     RDKit          3D

 28 28  0  0  1  0  0  0  0  0999 V2000
   21.2875  -24.9976  -17.6205 C   0  0  0  0  0  0  0  0  0  0  0  0
   22.3801  -25.6265  -18.8763 S   0  0  0  0  0  0  0  0  0  0  0  0
   24.1150  -25.4430  -18.5316 C   0  0  0  0  0  0  0  0  0  0  0  0
   24.4507  -24.5789  -17.3654 C   0  0  0  0  0  0  0  0  0  0  0  0
   25.9204  -24.4091  -17.1981 C   0  0  2  0  0  0  0  0  0  0  0  0
   26.6042  -25.6589  -16.9179 N   0  0  0  0  0  0  0  0  0  0  0  0
   26.2356  -23.4042  -16.1213 C   0  0  0  0  0  0  0  0  0  0  0  0
   26.5792  -23.7482  -14.9681 O   0  0  0  0  0  0  0  0  0  0  0  0
   29.0729  -19.4695  -15.7883 C   0  0  0  0  0  0  0  0  0  0  0  0
   27.7678  -19.2880  -16.5186 C   0  0  2  0  0  0  0  0  0  0  0  0
   27.6705  -17.7840  -16.8349 C   0  0  0  0  0  0  0  0  0  0  0  0
   26.5719  -19.6243  -15.7092 C   0  0  0  0  0  0  0  0  0  0  0  0
   26.3481  -21.0405  -15.3364 C   0  0  2  0  0  0  0  0  0  0  0  0
   26.1548  -21.9878  -16.3730 N   0  0  0  0  0  0  0  0  0  0  0  0
   25.2263  -21.0677  -14.3310 C   0  0  0  0  0  0  0  0  0  0  0  0
   24.1735  -21.7166  -14.5545 O   0  0  0  0  0  0  0  0  0  0  0  0
   25.3210  -20.3654  -13.1056 N   0  0  0  0  0  0  0  0  0  0  0  0
   24.2148  -20.3236  -12.1357 C   0  0  1  0  0  0  0  0  0  0  0  0
   24.4360  -21.5126  -11.2348 C   0  0  0  0  0  0  0  0  0  0  0  0
   23.4763  -21.5476  -10.1058 C   0  0  0  0  0  0  0  0  0  0  0  0
   23.8631  -21.2299   -8.8095 C   0  0  0  0  0  0  0  0  0  0  0  0
   22.9571  -21.2580   -7.7694 C   0  0  0  0  0  0  0  0  0  0  0  0
   21.6350  -21.5982   -7.9525 C   0  0  0  0  0  0  0  0  0  0  0  0
   21.2460  -21.9154   -9.2406 C   0  0  0  0  0  0  0  0  0  0  0  0
   22.1450  -21.8893  -10.2840 C   0  0  0  0  0  0  0  0  0  0  0  0
   24.2741  -19.0974  -11.3147 C   0  0  0  0  0  0  0  0  0  0  0  0
   25.5302  -18.6233  -10.9629 O   0  0  0  0  0  0  0  0  0  0  0  0
   23.2869  -18.4568  -10.9141 O   0  0  0  0  0  0  0  0  0  0  0  0
  2  1  1  0
  3  4  1  0
  3  2  1  0
  5  4  1  0
  5  6  1  1
  7  8  2  0
  7  5  1  0
 10  9  1  1
 10 12  1  0
 11 10  1  0
 13 12  1  6
 13 14  1  0
 14  7  1  0
 15 13  1  0
 16 15  2  0
 17 15  1  0
 18 17  1  0
 18 19  1  1
 20 19  1  0
 20 21  2  0
 22 21  1  0
 23 22  2  0
 24 25  2  0
 24 23  1  0
 25 20  1  0
 26 27  1  0
 26 18  1  0
 28 26  2  0
M  END
$$$$
