MLF.pdb
     RDKit          3D

 28 28  0  0  1  0  0  0  0  0999 V2000
   24.0302  -28.5839  -21.9773 C   0  0  0  0  0  0  0  0  0  0  0  0
   25.5350  -29.5195  -22.1416 S   0  0  0  0  0  0  0  0  0  0  0  0
   26.5993  -29.4979  -20.7173 C   0  0  0  0  0  0  0  0  0  0  0  0
   26.3670  -28.3820  -19.7581 C   0  0  0  0  0  0  0  0  0  0  0  0
   27.3864  -28.3536  -18.6733 C   0  0  2  0  0  0  0  0  0  0  0  0
   27.2421  -29.4523  -17.7351 N   0  0  0  0  0  0  0  0  0  0  0  0
   27.3583  -27.0435  -17.9307 C   0  0  0  0  0  0  0  0  0  0  0  0
   26.7594  -26.9078  -16.8403 O   0  0  0  0  0  0  0  0  0  0  0  0
   30.4649  -24.7491  -15.7380 C   0  0  0  0  0  0  0  0  0  0  0  0
   30.4891  -24.4501  -17.2143 C   0  0  2  0  0  0  0  0  0  0  0  0
   31.6079  -23.4107  -17.4128 C   0  0  0  0  0  0  0  0  0  0  0  0
   29.2436  -23.8279  -17.7242 C   0  0  0  0  0  0  0  0  0  0  0  0
   28.0068  -24.6431  -17.7487 C   0  0  2  0  0  0  0  0  0  0  0  0
   28.0262  -25.8761  -18.4476 N   0  0  0  0  0  0  0  0  0  0  0  0
   26.8887  -23.7476  -18.2154 C   0  0  0  0  0  0  0  0  0  0  0  0
   26.9089  -23.2320  -19.3614 O   0  0  0  0  0  0  0  0  0  0  0  0
   25.7823  -23.4585  -17.3811 N   0  0  0  0  0  0  0  0  0  0  0  0
   24.7286  -22.5086  -17.7733 C   0  0  1  0  0  0  0  0  0  0  0  0
   23.5008  -23.3542  -18.0000 C   0  0  0  0  0  0  0  0  0  0  0  0
   23.1155  -24.1200  -16.7907 C   0  0  0  0  0  0  0  0  0  0  0  0
   22.1074  -23.6822  -15.9405 C   0  0  0  0  0  0  0  0  0  0  0  0
   21.7530  -24.4096  -14.8231 C   0  0  0  0  0  0  0  0  0  0  0  0
   22.3693  -25.5954  -14.4894 C   0  0  0  0  0  0  0  0  0  0  0  0
   23.3731  -26.0345  -15.3325 C   0  0  0  0  0  0  0  0  0  0  0  0
   23.7321  -25.3135  -16.4500 C   0  0  0  0  0  0  0  0  0  0  0  0
   24.4435  -21.5523  -16.6847 C   0  0  0  0  0  0  0  0  0  0  0  0
   23.5746  -20.5065  -16.9632 O   0  0  0  0  0  0  0  0  0  0  0  0
   24.9209  -21.6108  -15.5384 O   0  0  0  0  0  0  0  0  0  0  0  0
  2  1  1  0
  3  4  1  0
  3  2  1  0
  5  4  1  0
  5  6  1  1
  7  8  2  0
  7  5  1  0
 10  9  1  1
 10 12  1  0
 11 10  1  0
 13 12  1  6
 13 14  1  0
 14  7  1  0
 15 13  1  0
 16 15  2  0
 17 15  1  0
 18 17  1  0
 18 19  1  1
 20 19  1  0
 20 21  2  0
 22 21  1  0
 23 22  2  0
 24 25  2  0
 24 23  1  0
 25 20  1  0
 26 27  1  0
 26 18  1  0
 28 26  2  0
M  END
$$$$
