MLF.pdb
     RDKit          3D

 28 28  0  0  1  0  0  0  0  0999 V2000
   19.1950  -22.2042  -16.7657 C   0  0  0  0  0  0  0  0  0  0  0  0
   18.6373  -20.5147  -16.8040 S   0  0  0  0  0  0  0  0  0  0  0  0
   19.8712  -19.3204  -17.2654 C   0  0  0  0  0  0  0  0  0  0  0  0
   21.2639  -19.6391  -16.8431 C   0  0  0  0  0  0  0  0  0  0  0  0
   22.2197  -18.5542  -17.1986 C   0  0  2  0  0  0  0  0  0  0  0  0
   22.1555  -18.1833  -18.6009 N   0  0  0  0  0  0  0  0  0  0  0  0
   23.6325  -18.9298  -16.8359 C   0  0  0  0  0  0  0  0  0  0  0  0
   24.3224  -19.6951  -17.5463 O   0  0  0  0  0  0  0  0  0  0  0  0
   27.2356  -16.2391  -16.4361 C   0  0  0  0  0  0  0  0  0  0  0  0
   26.4613  -16.3700  -15.1504 C   0  0  2  0  0  0  0  0  0  0  0  0
   27.2188  -15.5163  -14.1166 C   0  0  0  0  0  0  0  0  0  0  0  0
   26.4224  -17.7492  -14.6075 C   0  0  0  0  0  0  0  0  0  0  0  0
   25.5939  -18.7591  -15.3063 C   0  0  2  0  0  0  0  0  0  0  0  0
   24.2594  -18.4200  -15.6429 N   0  0  0  0  0  0  0  0  0  0  0  0
   25.6671  -20.0322  -14.5039 C   0  0  0  0  0  0  0  0  0  0  0  0
   26.7666  -20.6061  -14.3010 O   0  0  0  0  0  0  0  0  0  0  0  0
   24.5035  -20.6219  -13.9542 N   0  0  0  0  0  0  0  0  0  0  0  0
   24.5061  -21.9754  -13.3758 C   0  0  1  0  0  0  0  0  0  0  0  0
   24.0615  -21.7934  -11.9463 C   0  0  0  0  0  0  0  0  0  0  0  0
   25.1321  -21.2242  -11.0937 C   0  0  0  0  0  0  0  0  0  0  0  0
   24.9061  -20.1231  -10.2768 C   0  0  0  0  0  0  0  0  0  0  0  0
   25.9094  -19.6091   -9.4815 C   0  0  0  0  0  0  0  0  0  0  0  0
   27.1760  -20.1494   -9.4515 C   0  0  0  0  0  0  0  0  0  0  0  0
   27.4054  -21.2448  -10.2631 C   0  0  0  0  0  0  0  0  0  0  0  0
   26.4083  -21.7636  -11.0596 C   0  0  0  0  0  0  0  0  0  0  0  0
   23.5314  -22.8478  -14.0612 C   0  0  0  0  0  0  0  0  0  0  0  0
   23.5064  -24.1874  -13.6989 O   0  0  0  0  0  0  0  0  0  0  0  0
   22.7316  -22.4762  -14.9373 O   0  0  0  0  0  0  0  0  0  0  0  0
  2  1  1  0
  3  4  1  0
  3  2  1  0
  5  4  1  0
  5  6  1  6
  7  8  2  0
  7  5  1  0
 10  9  1  6
 10 12  1  0
 11 10  1  0
 13 12  1  1
 13 14  1  0
 14  7  1  0
 15 13  1  0
 16 15  2  0
 17 15  1  0
 18 17  1  0
 18 19  1  1
 20 19  1  0
 20 21  2  0
 22 21  1  0
 23 22  2  0
 24 25  2  0
 24 23  1  0
 25 20  1  0
 26 27  1  0
 26 18  1  0
 28 26  2  0
M  END
$$$$
