MLF.pdb
     RDKit          3D

 28 28  0  0  1  0  0  0  0  0999 V2000
   28.8369  -28.5037  -15.7476 C   0  0  0  0  0  0  0  0  0  0  0  0
   27.6458  -27.7044  -16.8007 S   0  0  0  0  0  0  0  0  0  0  0  0
   28.2934  -26.4029  -17.8247 C   0  0  0  0  0  0  0  0  0  0  0  0
   27.5664  -25.1046  -17.7505 C   0  0  0  0  0  0  0  0  0  0  0  0
   26.0962  -25.2925  -17.6094 C   0  0  2  0  0  0  0  0  0  0  0  0
   25.4868  -25.8785  -18.7898 N   0  0  0  0  0  0  0  0  0  0  0  0
   25.4090  -23.9951  -17.2730 C   0  0  0  0  0  0  0  0  0  0  0  0
   25.7817  -23.2696  -16.3238 O   0  0  0  0  0  0  0  0  0  0  0  0
   25.2297  -20.1109  -19.3320 C   0  0  0  0  0  0  0  0  0  0  0  0
   24.1529  -21.0169  -19.8698 C   0  0  2  0  0  0  0  0  0  0  0  0
   23.3732  -20.1763  -20.8978 C   0  0  0  0  0  0  0  0  0  0  0  0
   23.1675  -21.4533  -18.8514 C   0  0  0  0  0  0  0  0  0  0  0  0
   23.6393  -22.2997  -17.7308 C   0  0  2  0  0  0  0  0  0  0  0  0
   24.2804  -23.5263  -18.0364 N   0  0  0  0  0  0  0  0  0  0  0  0
   22.4765  -22.4894  -16.7917 C   0  0  0  0  0  0  0  0  0  0  0  0
   21.4251  -23.0630  -17.1724 O   0  0  0  0  0  0  0  0  0  0  0  0
   22.5301  -22.0294  -15.4541 N   0  0  0  0  0  0  0  0  0  0  0  0
   21.3752  -22.1165  -14.5457 C   0  0  1  0  0  0  0  0  0  0  0  0
   21.8441  -22.9692  -13.3937 C   0  0  0  0  0  0  0  0  0  0  0  0
   21.8832  -24.4097  -13.7410 C   0  0  0  0  0  0  0  0  0  0  0  0
   23.0706  -25.0457  -14.0827 C   0  0  0  0  0  0  0  0  0  0  0  0
   23.0938  -26.3892  -14.3951 C   0  0  0  0  0  0  0  0  0  0  0  0
   21.9575  -27.1676  -14.3872 C   0  0  0  0  0  0  0  0  0  0  0  0
   20.7740  -26.5389  -14.0482 C   0  0  0  0  0  0  0  0  0  0  0  0
   20.7432  -25.1977  -13.7348 C   0  0  0  0  0  0  0  0  0  0  0  0
   21.0087  -20.7849  -14.0231 C   0  0  0  0  0  0  0  0  0  0  0  0
   19.7503  -20.6449  -13.4547 O   0  0  0  0  0  0  0  0  0  0  0  0
   21.7392  -19.7794  -14.0526 O   0  0  0  0  0  0  0  0  0  0  0  0
  2  1  1  0
  3  4  1  0
  3  2  1  0
  5  4  1  0
  5  6  1  6
  7  8  2  0
  7  5  1  0
 10  9  1  1
 10 12  1  0
 11 10  1  0
 13 12  1  6
 13 14  1  0
 14  7  1  0
 15 13  1  0
 16 15  2  0
 17 15  1  0
 18 17  1  0
 18 19  1  1
 20 19  1  0
 20 21  2  0
 22 21  1  0
 23 22  2  0
 24 25  2  0
 24 23  1  0
 25 20  1  0
 26 27  1  0
 26 18  1  0
 28 26  2  0
M  END
$$$$
