MLF.pdb
     RDKit          3D

 28 28  0  0  1  0  0  0  0  0999 V2000
   19.9917  -23.0920  -19.6475 C   0  0  0  0  0  0  0  0  0  0  0  0
   20.6080  -22.0208  -20.9277 S   0  0  0  0  0  0  0  0  0  0  0  0
   21.7365  -20.7597  -20.3816 C   0  0  0  0  0  0  0  0  0  0  0  0
   21.1101  -19.5726  -19.7353 C   0  0  0  0  0  0  0  0  0  0  0  0
   22.1231  -18.5747  -19.2938 C   0  0  2  0  0  0  0  0  0  0  0  0
   23.2380  -19.1783  -18.5862 N   0  0  0  0  0  0  0  0  0  0  0  0
   21.4986  -17.5030  -18.4394 C   0  0  0  0  0  0  0  0  0  0  0  0
   21.6946  -17.4355  -17.2052 O   0  0  0  0  0  0  0  0  0  0  0  0
   22.2263  -13.1226  -18.7776 C   0  0  0  0  0  0  0  0  0  0  0  0
   21.0530  -13.5507  -19.6199 C   0  0  2  0  0  0  0  0  0  0  0  0
   20.5217  -12.2658  -20.2819 C   0  0  0  0  0  0  0  0  0  0  0  0
   19.9261  -14.1176  -18.8407 C   0  0  0  0  0  0  0  0  0  0  0  0
   20.0982  -15.4519  -18.2205 C   0  0  2  0  0  0  0  0  0  0  0  0
   20.6388  -16.4975  -19.0102 N   0  0  0  0  0  0  0  0  0  0  0  0
   18.7770  -15.8346  -17.6057 C   0  0  0  0  0  0  0  0  0  0  0  0
   18.2173  -15.0907  -16.7615 O   0  0  0  0  0  0  0  0  0  0  0  0
   18.1249  -17.0407  -17.9578 N   0  0  0  0  0  0  0  0  0  0  0  0
   16.8333  -17.4359  -17.3731 C   0  0  1  0  0  0  0  0  0  0  0  0
   16.2467  -18.4262  -18.3475 C   0  0  0  0  0  0  0  0  0  0  0  0
   14.9265  -18.9343  -17.9050 C   0  0  0  0  0  0  0  0  0  0  0  0
   14.7895  -20.1755  -17.2955 C   0  0  0  0  0  0  0  0  0  0  0  0
   13.5556  -20.6322  -16.8805 C   0  0  0  0  0  0  0  0  0  0  0  0
   12.4036  -19.8951  -17.0441 C   0  0  0  0  0  0  0  0  0  0  0  0
   12.5353  -18.6597  -17.6503 C   0  0  0  0  0  0  0  0  0  0  0  0
   13.7641  -18.1971  -18.0671 C   0  0  0  0  0  0  0  0  0  0  0  0
   17.0231  -18.1137  -16.0748 C   0  0  0  0  0  0  0  0  0  0  0  0
   18.2480  -18.7245  -15.8450 O   0  0  0  0  0  0  0  0  0  0  0  0
   16.1714  -18.1800  -15.1717 O   0  0  0  0  0  0  0  0  0  0  0  0
  2  1  1  0
  3  4  1  0
  3  2  1  0
  5  4  1  0
  5  6  1  1
  7  8  2  0
  7  5  1  0
 10  9  1  1
 10 12  1  0
 11 10  1  0
 13 12  1  6
 13 14  1  0
 14  7  1  0
 15 13  1  0
 16 15  2  0
 17 15  1  0
 18 17  1  0
 18 19  1  6
 20 19  1  0
 20 21  2  0
 22 21  1  0
 23 22  2  0
 24 25  2  0
 24 23  1  0
 25 20  1  0
 26 27  1  0
 26 18  1  0
 28 26  2  0
M  END
$$$$
