MLF.pdb
     RDKit          3D

 28 28  0  0  1  0  0  0  0  0999 V2000
   15.7112  -17.3576   11.5867 C   0  0  0  0  0  0  0  0  0  0  0  0
   14.8418  -15.8346   11.8886 S   0  0  0  0  0  0  0  0  0  0  0  0
   14.3362  -14.9498   10.4314 C   0  0  0  0  0  0  0  0  0  0  0  0
   14.7075  -15.5818    9.1344 C   0  0  0  0  0  0  0  0  0  0  0  0
   14.4063  -14.6990    7.9739 C   0  0  2  0  0  0  0  0  0  0  0  0
   12.9996  -14.7004    7.6145 N   0  0  0  0  0  0  0  0  0  0  0  0
   15.2381  -15.0700    6.7743 C   0  0  0  0  0  0  0  0  0  0  0  0
   14.7326  -15.5499    5.7349 O   0  0  0  0  0  0  0  0  0  0  0  0
   17.3487  -12.2485    4.2893 C   0  0  0  0  0  0  0  0  0  0  0  0
   18.2970  -12.7425    5.3506 C   0  0  2  0  0  0  0  0  0  0  0  0
   19.6431  -12.0517    5.0639 C   0  0  0  0  0  0  0  0  0  0  0  0
   18.5548  -14.2017    5.2973 C   0  0  0  0  0  0  0  0  0  0  0  0
   17.4394  -15.1267    5.6051 C   0  0  2  0  0  0  0  0  0  0  0  0
   16.6674  -14.8875    6.7695 N   0  0  0  0  0  0  0  0  0  0  0  0
   17.9962  -16.5264    5.5751 C   0  0  0  0  0  0  0  0  0  0  0  0
   18.5794  -16.9682    4.5533 O   0  0  0  0  0  0  0  0  0  0  0  0
   17.8810  -17.3868    6.6932 N   0  0  0  0  0  0  0  0  0  0  0  0
   18.4147  -18.7584    6.6882 C   0  0  1  0  0  0  0  0  0  0  0  0
   19.0914  -18.9224    8.0259 C   0  0  0  0  0  0  0  0  0  0  0  0
   20.3375  -18.1259    8.1260 C   0  0  0  0  0  0  0  0  0  0  0  0
   21.3981  -18.3175    7.2488 C   0  0  0  0  0  0  0  0  0  0  0  0
   22.5487  -17.5628    7.3480 C   0  0  0  0  0  0  0  0  0  0  0  0
   22.7112  -16.5893    8.3088 C   0  0  0  0  0  0  0  0  0  0  0  0
   21.6586  -16.3957    9.1837 C   0  0  0  0  0  0  0  0  0  0  0  0
   20.5066  -17.1454    9.0906 C   0  0  0  0  0  0  0  0  0  0  0  0
   17.3263  -19.7517    6.5898 C   0  0  0  0  0  0  0  0  0  0  0  0
   17.6839  -21.0925    6.5679 O   0  0  0  0  0  0  0  0  0  0  0  0
   16.1148  -19.4806    6.5249 O   0  0  0  0  0  0  0  0  0  0  0  0
  2  1  1  0
  3  4  1  0
  3  2  1  0
  5  4  1  0
  5  6  1  6
  7  8  2  0
  7  5  1  0
 10  9  1  6
 10 12  1  0
 11 10  1  0
 13 12  1  1
 13 14  1  0
 14  7  1  0
 15 13  1  0
 16 15  2  0
 17 15  1  0
 18 17  1  0
 18 19  1  1
 20 19  1  0
 20 21  2  0
 22 21  1  0
 23 22  2  0
 24 25  2  0
 24 23  1  0
 25 20  1  0
 26 27  1  0
 26 18  1  0
 28 26  2  0
M  END
$$$$
