MLF.pdb
     RDKit          3D

 28 28  0  0  1  0  0  0  0  0999 V2000
   21.4692  -14.5418  -16.3658 C   0  0  0  0  0  0  0  0  0  0  0  0
   22.6610  -14.0287  -17.5835 S   0  0  0  0  0  0  0  0  0  0  0  0
   23.9123  -15.2310  -17.9719 C   0  0  0  0  0  0  0  0  0  0  0  0
   23.7230  -16.5762  -17.3604 C   0  0  0  0  0  0  0  0  0  0  0  0
   24.8092  -17.5218  -17.7383 C   0  0  2  0  0  0  0  0  0  0  0  0
   24.8271  -17.8216  -19.1588 N   0  0  0  0  0  0  0  0  0  0  0  0
   24.7189  -18.8016  -16.9493 C   0  0  0  0  0  0  0  0  0  0  0  0
   23.9734  -19.7460  -17.2936 O   0  0  0  0  0  0  0  0  0  0  0  0
   27.3710  -22.4144  -16.1273 C   0  0  0  0  0  0  0  0  0  0  0  0
   27.7057  -21.1914  -15.3137 C   0  0  2  0  0  0  0  0  0  0  0  0
   28.8935  -21.5948  -14.4205 C   0  0  0  0  0  0  0  0  0  0  0  0
   26.6211  -20.7599  -14.3993 C   0  0  0  0  0  0  0  0  0  0  0  0
   25.3879  -20.1881  -14.9882 C   0  0  2  0  0  0  0  0  0  0  0  0
   25.4944  -18.9981  -15.7509 N   0  0  0  0  0  0  0  0  0  0  0  0
   24.3790  -20.0575  -13.8768 C   0  0  0  0  0  0  0  0  0  0  0  0
   24.6502  -19.4180  -12.8295 O   0  0  0  0  0  0  0  0  0  0  0  0
   23.0968  -20.6490  -13.9756 N   0  0  0  0  0  0  0  0  0  0  0  0
   22.1187  -20.5941  -12.8771 C   0  0  1  0  0  0  0  0  0  0  0  0
   21.0774  -19.6002  -13.3265 C   0  0  0  0  0  0  0  0  0  0  0  0
   19.9782  -19.4554  -12.3426 C   0  0  0  0  0  0  0  0  0  0  0  0
   20.0683  -18.5731  -11.2729 C   0  0  0  0  0  0  0  0  0  0  0  0
   19.0338  -18.4419  -10.3696 C   0  0  0  0  0  0  0  0  0  0  0  0
   17.8679  -19.1679  -10.4736 C   0  0  0  0  0  0  0  0  0  0  0  0
   17.7742  -20.0471  -11.5363 C   0  0  0  0  0  0  0  0  0  0  0  0
   18.8030  -20.1832  -12.4422 C   0  0  0  0  0  0  0  0  0  0  0  0
   21.4631  -21.9032  -12.6836 C   0  0  0  0  0  0  0  0  0  0  0  0
   21.0298  -22.2186  -11.4034 O   0  0  0  0  0  0  0  0  0  0  0  0
   21.2691  -22.7447  -13.5778 O   0  0  0  0  0  0  0  0  0  0  0  0
  2  1  1  0
  3  4  1  0
  3  2  1  0
  5  4  1  0
  5  6  1  6
  7  8  2  0
  7  5  1  0
 10  9  1  1
 10 12  1  0
 11 10  1  0
 13 12  1  1
 13 14  1  0
 14  7  1  0
 15 13  1  0
 16 15  2  0
 17 15  1  0
 18 17  1  0
 18 19  1  6
 20 19  1  0
 20 21  2  0
 22 21  1  0
 23 22  2  0
 24 25  2  0
 24 23  1  0
 25 20  1  0
 26 27  1  0
 26 18  1  0
 28 26  2  0
M  END
$$$$
