MLF.pdb
     RDKit          3D

 28 28  0  0  1  0  0  0  0  0999 V2000
   22.1168  -11.5096    6.0048 C   0  0  0  0  0  0  0  0  0  0  0  0
   20.6574  -11.3876    7.0157 S   0  0  0  0  0  0  0  0  0  0  0  0
   19.1484  -11.9092    6.2329 C   0  0  0  0  0  0  0  0  0  0  0  0
   18.8345  -13.3612    6.3454 C   0  0  0  0  0  0  0  0  0  0  0  0
   17.6031  -13.7286    5.5933 C   0  0  2  0  0  0  0  0  0  0  0  0
   16.4006  -13.1457    6.1611 N   0  0  0  0  0  0  0  0  0  0  0  0
   17.4470  -15.2235    5.4967 C   0  0  0  0  0  0  0  0  0  0  0  0
   16.6132  -15.8529    6.1858 O   0  0  0  0  0  0  0  0  0  0  0  0
   16.2016  -18.6435    2.2657 C   0  0  0  0  0  0  0  0  0  0  0  0
   17.5024  -17.8998    2.1103 C   0  0  2  0  0  0  0  0  0  0  0  0
   18.1873  -18.5080    0.8724 C   0  0  0  0  0  0  0  0  0  0  0  0
   18.4419  -18.0848    3.2424 C   0  0  0  0  0  0  0  0  0  0  0  0
   18.1378  -17.4145    4.5281 C   0  0  2  0  0  0  0  0  0  0  0  0
   18.2588  -16.0040    4.5978 N   0  0  0  0  0  0  0  0  0  0  0  0
   18.9473  -18.1037    5.5956 C   0  0  0  0  0  0  0  0  0  0  0  0
   20.1741  -18.3242    5.4353 O   0  0  0  0  0  0  0  0  0  0  0  0
   18.3544  -18.5241    6.8103 N   0  0  0  0  0  0  0  0  0  0  0  0
   19.0763  -19.3470    7.7942 C   0  0  1  0  0  0  0  0  0  0  0  0
   19.1893  -18.4815    9.0240 C   0  0  0  0  0  0  0  0  0  0  0  0
   20.2929  -17.4976    8.9185 C   0  0  0  0  0  0  0  0  0  0  0  0
   21.5980  -17.8915    8.6490 C   0  0  0  0  0  0  0  0  0  0  0  0
   22.6140  -16.9641    8.5447 C   0  0  0  0  0  0  0  0  0  0  0  0
   22.3973  -15.6127    8.6998 C   0  0  0  0  0  0  0  0  0  0  0  0
   21.1004  -15.2165    8.9683 C   0  0  0  0  0  0  0  0  0  0  0  0
   20.0808  -16.1369    9.0737 C   0  0  0  0  0  0  0  0  0  0  0  0
   18.3048  -20.5569    8.1431 C   0  0  0  0  0  0  0  0  0  0  0  0
   17.0324  -20.6820    7.6032 O   0  0  0  0  0  0  0  0  0  0  0  0
   18.7059  -21.4720    8.8827 O   0  0  0  0  0  0  0  0  0  0  0  0
  2  1  1  0
  3  4  1  0
  3  2  1  0
  5  4  1  0
  5  6  1  1
  7  8  2  0
  7  5  1  0
 10  9  1  1
 10 12  1  0
 11 10  1  0
 13 12  1  6
 13 14  1  0
 14  7  1  0
 15 13  1  0
 16 15  2  0
 17 15  1  0
 18 17  1  0
 18 19  1  1
 20 19  1  0
 20 21  2  0
 22 21  1  0
 23 22  2  0
 24 25  2  0
 24 23  1  0
 25 20  1  0
 26 27  1  0
 26 18  1  0
 28 26  2  0
M  END
$$$$
