MLF.pdb
     RDKit          3D

 28 28  0  0  1  0  0  0  0  0999 V2000
   19.5087  -24.1165  -12.6902 C   0  0  0  0  0  0  0  0  0  0  0  0
   19.2324  -23.0704  -14.1030 S   0  0  0  0  0  0  0  0  0  0  0  0
   20.6982  -22.3644  -14.8205 C   0  0  0  0  0  0  0  0  0  0  0  0
   21.9398  -22.4973  -14.0079 C   0  0  0  0  0  0  0  0  0  0  0  0
   22.3087  -21.2214  -13.3350 C   0  0  2  0  0  0  0  0  0  0  0  0
   22.4637  -20.1175  -14.2653 N   0  0  0  0  0  0  0  0  0  0  0  0
   23.5639  -21.3776  -12.5173 C   0  0  0  0  0  0  0  0  0  0  0  0
   23.7142  -22.3117  -11.6981 O   0  0  0  0  0  0  0  0  0  0  0  0
   27.9196  -21.5362  -14.0183 C   0  0  0  0  0  0  0  0  0  0  0  0
   27.4836  -20.1272  -13.7113 C   0  0  2  0  0  0  0  0  0  0  0  0
   28.7270  -19.2462  -13.9337 C   0  0  0  0  0  0  0  0  0  0  0  0
   27.0678  -19.9177  -12.3036 C   0  0  0  0  0  0  0  0  0  0  0  0
   25.8180  -20.5600  -11.8344 C   0  0  2  0  0  0  0  0  0  0  0  0
   24.6589  -20.4494  -12.6426 N   0  0  0  0  0  0  0  0  0  0  0  0
   25.5711  -20.0850  -10.4260 C   0  0  0  0  0  0  0  0  0  0  0  0
   24.9329  -19.0253  -10.2038 O   0  0  0  0  0  0  0  0  0  0  0  0
   26.0484  -20.8143   -9.3106 N   0  0  0  0  0  0  0  0  0  0  0  0
   25.9849  -20.2843   -7.9390 C   0  0  1  0  0  0  0  0  0  0  0  0
   26.5743  -21.3673   -7.0708 C   0  0  0  0  0  0  0  0  0  0  0  0
   27.6891  -20.8687   -6.2307 C   0  0  0  0  0  0  0  0  0  0  0  0
   27.4732  -20.3772   -4.9490 C   0  0  0  0  0  0  0  0  0  0  0  0
   28.5214  -19.9245   -4.1746 C   0  0  0  0  0  0  0  0  0  0  0  0
   29.8246  -19.9329   -4.6204 C   0  0  0  0  0  0  0  0  0  0  0  0
   30.0438  -20.4209   -5.8951 C   0  0  0  0  0  0  0  0  0  0  0  0
   29.0021  -20.8747   -6.6740 C   0  0  0  0  0  0  0  0  0  0  0  0
   26.8140  -19.0702   -7.7997 C   0  0  0  0  0  0  0  0  0  0  0  0
   26.4464  -18.1528   -6.8252 O   0  0  0  0  0  0  0  0  0  0  0  0
   27.8154  -18.8055   -8.4871 O   0  0  0  0  0  0  0  0  0  0  0  0
  2  1  1  0
  3  4  1  0
  3  2  1  0
  5  4  1  0
  5  6  1  6
  7  8  2  0
  7  5  1  0
 10  9  1  1
 10 12  1  0
 11 10  1  0
 13 12  1  6
 13 14  1  0
 14  7  1  0
 15 13  1  0
 16 15  2  0
 17 15  1  0
 18 17  1  0
 18 19  1  1
 20 19  1  0
 20 21  2  0
 22 21  1  0
 23 22  2  0
 24 25  2  0
 24 23  1  0
 25 20  1  0
 26 27  1  0
 26 18  1  0
 28 26  2  0
M  END
$$$$
