MLF.pdb
     RDKit          3D

 28 28  0  0  1  0  0  0  0  0999 V2000
   10.4868  -15.1270    0.1612 C   0  0  0  0  0  0  0  0  0  0  0  0
   10.0923  -14.0151    1.4933 S   0  0  0  0  0  0  0  0  0  0  0  0
   10.8362  -14.4144    3.0582 C   0  0  0  0  0  0  0  0  0  0  0  0
   12.2510  -14.8771    2.9980 C   0  0  0  0  0  0  0  0  0  0  0  0
   12.7692  -15.2724    4.3367 C   0  0  2  0  0  0  0  0  0  0  0  0
   12.8602  -14.1544    5.2587 N   0  0  0  0  0  0  0  0  0  0  0  0
   14.1094  -15.9507    4.2258 C   0  0  0  0  0  0  0  0  0  0  0  0
   14.2644  -17.0227    3.5989 O   0  0  0  0  0  0  0  0  0  0  0  0
   18.2852  -14.9833    2.1119 C   0  0  0  0  0  0  0  0  0  0  0  0
   17.8170  -14.2871    3.3631 C   0  0  2  0  0  0  0  0  0  0  0  0
   18.8831  -13.2199    3.6724 C   0  0  0  0  0  0  0  0  0  0  0  0
   17.7481  -15.1682    4.5537 C   0  0  0  0  0  0  0  0  0  0  0  0
   16.5496  -16.0206    4.7319 C   0  0  2  0  0  0  0  0  0  0  0  0
   15.2849  -15.3904    4.8427 N   0  0  0  0  0  0  0  0  0  0  0  0
   16.8237  -16.9430    5.8912 C   0  0  0  0  0  0  0  0  0  0  0  0
   17.2074  -16.4918    6.9996 O   0  0  0  0  0  0  0  0  0  0  0  0
   16.6586  -18.3437    5.7702 N   0  0  0  0  0  0  0  0  0  0  0  0
   16.9476  -19.2682    6.8785 C   0  0  1  0  0  0  0  0  0  0  0  0
   15.6248  -19.9126    7.2085 C   0  0  0  0  0  0  0  0  0  0  0  0
   14.7660  -19.0370    8.0410 C   0  0  0  0  0  0  0  0  0  0  0  0
   15.1347  -18.6639    9.3277 C   0  0  0  0  0  0  0  0  0  0  0  0
   14.3298  -17.8410   10.0882 C   0  0  0  0  0  0  0  0  0  0  0  0
   13.1305  -17.3485    9.6232 C   0  0  0  0  0  0  0  0  0  0  0  0
   12.7596  -17.7175    8.3436 C   0  0  0  0  0  0  0  0  0  0  0  0
   13.5584  -18.5387    7.5784 C   0  0  0  0  0  0  0  0  0  0  0  0
   17.8901  -20.3242    6.4574 C   0  0  0  0  0  0  0  0  0  0  0  0
   18.2616  -20.3541    5.1205 O   0  0  0  0  0  0  0  0  0  0  0  0
   18.3767  -21.1885    7.2068 O   0  0  0  0  0  0  0  0  0  0  0  0
  2  1  1  0
  3  4  1  0
  3  2  1  0
  5  4  1  0
  5  6  1  1
  7  8  2  0
  7  5  1  0
 10  9  1  6
 10 12  1  0
 11 10  1  0
 13 12  1  1
 13 14  1  0
 14  7  1  0
 15 13  1  0
 16 15  2  0
 17 15  1  0
 18 17  1  0
 18 19  1  6
 20 19  1  0
 20 21  2  0
 22 21  1  0
 23 22  2  0
 24 25  2  0
 24 23  1  0
 25 20  1  0
 26 27  1  0
 26 18  1  0
 28 26  2  0
M  END
$$$$
