MLF.pdb
     RDKit          3D

 28 28  0  0  1  0  0  0  0  0999 V2000
   23.4786  -18.1381  -17.7682 C   0  0  0  0  0  0  0  0  0  0  0  0
   23.1995  -18.7958  -16.1384 S   0  0  0  0  0  0  0  0  0  0  0  0
   24.5949  -19.6184  -15.4047 C   0  0  0  0  0  0  0  0  0  0  0  0
   24.3912  -20.1133  -14.0144 C   0  0  0  0  0  0  0  0  0  0  0  0
   25.6542  -20.6174  -13.4080 C   0  0  2  0  0  0  0  0  0  0  0  0
   26.2366  -21.7194  -14.1526 N   0  0  0  0  0  0  0  0  0  0  0  0
   25.4467  -21.0262  -11.9733 C   0  0  0  0  0  0  0  0  0  0  0  0
   25.0048  -22.1540  -11.6585 O   0  0  0  0  0  0  0  0  0  0  0  0
   26.9623  -19.3322   -6.2100 C   0  0  0  0  0  0  0  0  0  0  0  0
   26.4227  -20.2666   -7.2613 C   0  0  2  0  0  0  0  0  0  0  0  0
   27.6253  -21.1041   -7.7342 C   0  0  0  0  0  0  0  0  0  0  0  0
   25.8915  -19.5798   -8.4633 C   0  0  0  0  0  0  0  0  0  0  0  0
   25.3378  -20.4065   -9.5609 C   0  0  2  0  0  0  0  0  0  0  0  0
   25.7504  -20.1283  -10.8881 N   0  0  0  0  0  0  0  0  0  0  0  0
   23.8377  -20.3905   -9.4214 C   0  0  0  0  0  0  0  0  0  0  0  0
   23.1444  -19.5135   -9.9956 O   0  0  0  0  0  0  0  0  0  0  0  0
   23.1622  -21.3596   -8.6414 N   0  0  0  0  0  0  0  0  0  0  0  0
   21.6990  -21.5153   -8.6750 C   0  0  1  0  0  0  0  0  0  0  0  0
   21.3949  -22.0841  -10.0381 C   0  0  0  0  0  0  0  0  0  0  0  0
   19.9527  -22.3774  -10.2149 C   0  0  0  0  0  0  0  0  0  0  0  0
   19.4398  -23.6551  -10.0268 C   0  0  0  0  0  0  0  0  0  0  0  0
   18.0938  -23.9121  -10.1861 C   0  0  0  0  0  0  0  0  0  0  0  0
   17.1924  -22.9312  -10.5361 C   0  0  0  0  0  0  0  0  0  0  0  0
   17.6984  -21.6586  -10.7245 C   0  0  0  0  0  0  0  0  0  0  0  0
   19.0413  -21.3946  -10.5670 C   0  0  0  0  0  0  0  0  0  0  0  0
   21.2439  -22.4798   -7.6536 C   0  0  0  0  0  0  0  0  0  0  0  0
   19.9801  -22.2896   -7.1122 O   0  0  0  0  0  0  0  0  0  0  0  0
   21.9042  -23.4488   -7.2407 O   0  0  0  0  0  0  0  0  0  0  0  0
  2  1  1  0
  3  4  1  0
  3  2  1  0
  5  4  1  0
  5  6  1  6
  7  8  2  0
  7  5  1  0
 10  9  1  1
 10 12  1  0
 11 10  1  0
 13 12  1  1
 13 14  1  0
 14  7  1  0
 15 13  1  0
 16 15  2  0
 17 15  1  0
 18 17  1  0
 18 19  1  6
 20 19  1  0
 20 21  2  0
 22 21  1  0
 23 22  2  0
 24 25  2  0
 24 23  1  0
 25 20  1  0
 26 27  1  0
 26 18  1  0
 28 26  2  0
M  END
$$$$
