KRT.pdb
     RDKit          3D

 28 27  0  0  1  0  0  0  0  0999 V2000
   19.9735  -20.7343  -11.9210 N   0  0  0  0  0  0  0  0  0  0  0  0
   20.4107  -20.9151  -13.2616 C   0  0  1  0  0  0  0  0  0  0  0  0
   19.4909  -20.5054  -14.3445 C   0  0  0  0  0  0  0  0  0  0  0  0
   18.2979  -21.3898  -14.4724 C   0  0  0  0  0  0  0  0  0  0  0  0
   18.5835  -22.7717  -14.9409 C   0  0  0  0  0  0  0  0  0  0  0  0
   17.2945  -23.5612  -15.1699 C   0  0  0  0  0  0  0  0  0  0  0  0
   16.6314  -23.1887  -16.3831 N   0  0  0  0  0  0  0  0  0  0  0  0
   21.7259  -20.1861  -13.4064 C   0  0  0  0  0  0  0  0  0  0  0  0
   21.8594  -19.0034  -13.0021 O   0  0  0  0  0  0  0  0  0  0  0  0
   29.6567  -20.7620  -12.1520 N   0  0  0  0  0  0  0  0  0  0  0  0
   28.6078  -21.3659  -11.3777 C   0  0  0  0  0  0  0  0  0  0  0  0
   28.6030  -21.2850  -10.0845 N   0  0  0  0  0  0  0  0  0  0  0  0
   27.5436  -22.0691  -11.9884 N   0  0  0  0  0  0  0  0  0  0  0  0
   27.3839  -22.0080  -13.4287 C   0  0  0  0  0  0  0  0  0  0  0  0
   26.5884  -20.7468  -13.8183 C   0  0  0  0  0  0  0  0  0  0  0  0
   25.1609  -21.1311  -13.7258 C   0  0  0  0  0  0  0  0  0  0  0  0
   24.1448  -20.0879  -14.0624 C   0  0  2  0  0  0  0  0  0  0  0  0
   22.8483  -20.8062  -13.9994 N   0  0  0  0  0  0  0  0  0  0  0  0
   24.2678  -19.5411  -15.4328 C   0  0  0  0  0  0  0  0  0  0  0  0
   24.0005  -20.2517  -16.4584 O   0  0  0  0  0  0  0  0  0  0  0  0
   27.8171  -21.7120   -9.5243 C   0  0  0  0  0  0  0  0  0  0  0  0
   22.9595  -16.1276  -16.7611 C   0  0  2  0  0  0  0  0  0  0  0  0
   24.4349  -16.2324  -16.9859 O   0  0  0  0  0  0  0  0  0  0  0  0
   25.1147  -15.6938  -15.8756 C   0  0  2  0  0  0  0  0  0  0  0  0
   24.8128  -17.7136  -17.0511 N   0  0  0  0  0  0  0  0  0  0  0  0
   24.6771  -18.2250  -15.6852 C   0  0  0  0  0  0  0  0  0  0  0  0
   26.1882  -17.8915  -17.5484 O   0  0  0  0  0  0  0  0  0  0  0  0
   27.0973  -18.2675  -16.7728 O   0  0  0  0  0  0  0  0  0  0  0  0
  2  1  1  1
  3  2  1  0
  4  3  1  0
  4  5  1  0
  6  5  1  0
  7  6  1  0
  8  2  1  0
  8  9  2  0
 10 11  1  0
 11 12  2  0
 11 13  1  0
 13 14  1  0
 14 15  1  0
 15 16  1  0
 17 16  1  6
 17 18  1  0
 18  8  1  0
 19 17  1  0
 20 19  2  0
 22 21  1  6
 22 23  1  0
 22 24  1  0
 24 26  1  0
 24 25  1  6
 25 19  1  0
 26 28  1  0
 27 26  2  0
M  END
$$$$
