KRT.pdb
     RDKit          3D

 28 27  0  0  1  0  0  0  0  0999 V2000
   18.8171  -24.5758   -9.9315 N   0  0  0  0  0  0  0  0  0  0  0  0
   18.4647  -24.1215  -11.2316 C   0  0  1  0  0  0  0  0  0  0  0  0
   17.0518  -23.7575  -11.4718 C   0  0  0  0  0  0  0  0  0  0  0  0
   16.1190  -24.9163  -11.3774 C   0  0  0  0  0  0  0  0  0  0  0  0
   16.0357  -25.7611  -12.5981 C   0  0  0  0  0  0  0  0  0  0  0  0
   15.0196  -26.8905  -12.4273 C   0  0  0  0  0  0  0  0  0  0  0  0
   14.8981  -27.7011  -13.6012 N   0  0  0  0  0  0  0  0  0  0  0  0
   19.3562  -22.9448  -11.5522 C   0  0  0  0  0  0  0  0  0  0  0  0
   19.5189  -22.0111  -10.7266 O   0  0  0  0  0  0  0  0  0  0  0  0
   26.1718  -24.1695  -15.8675 N   0  0  0  0  0  0  0  0  0  0  0  0
   24.9575  -24.5346  -15.1919 C   0  0  0  0  0  0  0  0  0  0  0  0
   24.6074  -25.7767  -15.0750 N   0  0  0  0  0  0  0  0  0  0  0  0
   24.0985  -23.5620  -14.6294 N   0  0  0  0  0  0  0  0  0  0  0  0
   24.0430  -22.2367  -15.2162 C   0  0  0  0  0  0  0  0  0  0  0  0
   23.0430  -21.3576  -14.4400 C   0  0  0  0  0  0  0  0  0  0  0  0
   22.0454  -22.2940  -13.8726 C   0  0  0  0  0  0  0  0  0  0  0  0
   20.9424  -21.7086  -13.0511 C   0  0  2  0  0  0  0  0  0  0  0  0
   20.0359  -22.8529  -12.7873 N   0  0  0  0  0  0  0  0  0  0  0  0
   20.1432  -20.6794  -13.7539 C   0  0  0  0  0  0  0  0  0  0  0  0
   19.2169  -21.0004  -14.5709 O   0  0  0  0  0  0  0  0  0  0  0  0
   23.7024  -26.0351  -14.5976 C   0  0  0  0  0  0  0  0  0  0  0  0
   18.7846  -15.9611  -13.9568 C   0  0  2  0  0  0  0  0  0  0  0  0
   19.6691  -17.0209  -13.3798 O   0  0  0  0  0  0  0  0  0  0  0  0
   19.2584  -17.3039  -12.0621 C   0  0  1  0  0  0  0  0  0  0  0  0
   19.4729  -18.3082  -14.1829 N   0  0  0  0  0  0  0  0  0  0  0  0
   20.3494  -19.3064  -13.5655 C   0  0  0  0  0  0  0  0  0  0  0  0
   19.8155  -18.1087  -15.6019 O   0  0  0  0  0  0  0  0  0  0  0  0
   20.9891  -18.2905  -16.0006 O   0  0  0  0  0  0  0  0  0  0  0  0
  2  1  1  1
  3  2  1  0
  4  3  1  0
  4  5  1  0
  6  5  1  0
  7  6  1  0
  8  2  1  0
  8  9  2  0
 10 11  1  0
 11 12  2  0
 11 13  1  0
 13 14  1  0
 14 15  1  0
 15 16  1  0
 17 16  1  6
 17 18  1  0
 18  8  1  0
 19 17  1  0
 20 19  2  0
 22 21  1  1
 22 23  1  0
 22 24  1  0
 24 26  1  0
 24 25  1  1
 25 19  1  0
 26 28  1  0
 27 26  2  0
M  END
$$$$
