KRT.pdb
     RDKit          3D

 28 27  0  0  1  0  0  0  0  0999 V2000
   21.2267  -27.8544  -11.4724 N   0  0  0  0  0  0  0  0  0  0  0  0
   20.5963  -26.6438  -11.0746 C   0  0  1  0  0  0  0  0  0  0  0  0
   20.1018  -25.7454  -12.1399 C   0  0  0  0  0  0  0  0  0  0  0  0
   19.9224  -26.4285  -13.4526 C   0  0  0  0  0  0  0  0  0  0  0  0
   20.6297  -25.7943  -14.5964 C   0  0  0  0  0  0  0  0  0  0  0  0
   20.2753  -26.4748  -15.9187 C   0  0  0  0  0  0  0  0  0  0  0  0
   20.9927  -25.9239  -17.0286 N   0  0  0  0  0  0  0  0  0  0  0  0
   19.4599  -27.0130  -10.1504 C   0  0  0  0  0  0  0  0  0  0  0  0
   18.8963  -28.1336  -10.2314 O   0  0  0  0  0  0  0  0  0  0  0  0
   17.9186  -27.4667   -3.0568 N   0  0  0  0  0  0  0  0  0  0  0  0
   17.1098  -26.3251   -2.7297 C   0  0  0  0  0  0  0  0  0  0  0  0
   16.2824  -26.3580   -1.7330 N   0  0  0  0  0  0  0  0  0  0  0  0
   17.1810  -25.1254   -3.4752 N   0  0  0  0  0  0  0  0  0  0  0  0
   18.0192  -25.0709   -4.6577 C   0  0  0  0  0  0  0  0  0  0  0  0
   17.4344  -25.9744   -5.7609 C   0  0  0  0  0  0  0  0  0  0  0  0
   18.3054  -25.7759   -6.9425 C   0  0  0  0  0  0  0  0  0  0  0  0
   17.9844  -26.5613   -8.1730 C   0  0  2  0  0  0  0  0  0  0  0  0
   18.9922  -26.1144   -9.1655 N   0  0  0  0  0  0  0  0  0  0  0  0
   16.6527  -26.2679   -8.7497 C   0  0  0  0  0  0  0  0  0  0  0  0
   16.3674  -25.1122   -9.2094 O   0  0  0  0  0  0  0  0  0  0  0  0
   15.6913  -25.5155   -1.4998 C   0  0  0  0  0  0  0  0  0  0  0  0
   13.6170  -29.2010   -8.8698 C   0  0  2  0  0  0  0  0  0  0  0  0
   13.8732  -28.3015  -10.0375 O   0  0  0  0  0  0  0  0  0  0  0  0
   12.6589  -28.0477  -10.7053 C   0  0  1  0  0  0  0  0  0  0  0  0
   14.3716  -26.9535   -9.5128 N   0  0  0  0  0  0  0  0  0  0  0  0
   15.6370  -27.2299   -8.8285 C   0  0  0  0  0  0  0  0  0  0  0  0
   13.3945  -26.3454   -8.5928 O   0  0  0  0  0  0  0  0  0  0  0  0
   12.3521  -25.8130   -9.0392 O   0  0  0  0  0  0  0  0  0  0  0  0
  2  1  1  6
  3  2  1  0
  4  3  1  0
  4  5  1  0
  6  5  1  0
  7  6  1  0
  8  2  1  0
  8  9  2  0
 10 11  1  0
 11 12  2  0
 11 13  1  0
 13 14  1  0
 14 15  1  0
 15 16  1  0
 17 16  1  1
 17 18  1  0
 18  8  1  0
 19 17  1  0
 20 19  2  0
 22 21  1  6
 22 23  1  0
 22 24  1  0
 24 26  1  0
 24 25  1  6
 25 19  1  0
 26 28  1  0
 27 26  2  0
M  END
$$$$
