KRT.pdb
     RDKit          3D

 28 27  0  0  1  0  0  0  0  0999 V2000
   27.5839  -22.5497  -16.3761 N   0  0  0  0  0  0  0  0  0  0  0  0
   27.3915  -21.3347  -15.6635 C   0  0  1  0  0  0  0  0  0  0  0  0
   26.7837  -20.2006  -16.3923 C   0  0  0  0  0  0  0  0  0  0  0  0
   27.6151  -19.7165  -17.5308 C   0  0  0  0  0  0  0  0  0  0  0  0
   27.5208  -20.5294  -18.7722 C   0  0  0  0  0  0  0  0  0  0  0  0
   28.3116  -19.8951  -19.9164 C   0  0  0  0  0  0  0  0  0  0  0  0
   28.3387  -20.7189  -21.0872 N   0  0  0  0  0  0  0  0  0  0  0  0
   26.5642  -21.6579  -14.4416 C   0  0  0  0  0  0  0  0  0  0  0  0
   25.6834  -22.5541  -14.4736 O   0  0  0  0  0  0  0  0  0  0  0  0
   27.4859  -19.3213   -5.5854 N   0  0  0  0  0  0  0  0  0  0  0  0
   26.6581  -20.2472   -6.3078 C   0  0  0  0  0  0  0  0  0  0  0  0
   25.6299  -20.8005   -5.7459 N   0  0  0  0  0  0  0  0  0  0  0  0
   26.9272  -20.5921   -7.6527 N   0  0  0  0  0  0  0  0  0  0  0  0
   26.6207  -19.6431   -8.7059 C   0  0  0  0  0  0  0  0  0  0  0  0
   25.6574  -20.2804   -9.7263 C   0  0  0  0  0  0  0  0  0  0  0  0
   26.4813  -20.5784  -10.9206 C   0  0  0  0  0  0  0  0  0  0  0  0
   25.7822  -21.1439  -12.1145 C   0  0  2  0  0  0  0  0  0  0  0  0
   26.7510  -20.9664  -13.2238 N   0  0  0  0  0  0  0  0  0  0  0  0
   24.5510  -20.4162  -12.4976 C   0  0  0  0  0  0  0  0  0  0  0  0
   24.5633  -19.1595  -12.7187 O   0  0  0  0  0  0  0  0  0  0  0  0
   25.0524  -21.5122   -6.2690 C   0  0  0  0  0  0  0  0  0  0  0  0
   21.3950  -22.3084  -14.2393 C   0  0  2  0  0  0  0  0  0  0  0  0
   21.6676  -20.8428  -14.3662 O   0  0  0  0  0  0  0  0  0  0  0  0
   20.4724  -20.1735  -14.6956 C   0  0  1  0  0  0  0  0  0  0  0  0
   22.1032  -20.3092  -13.0001 N   0  0  0  0  0  0  0  0  0  0  0  0
   23.3123  -21.0549  -12.6426 C   0  0  0  0  0  0  0  0  0  0  0  0
   21.0463  -20.5003  -11.9914 O   0  0  0  0  0  0  0  0  0  0  0  0
   21.2153  -21.3002  -11.0423 O   0  0  0  0  0  0  0  0  0  0  0  0
  2  1  1  6
  3  2  1  0
  4  3  1  0
  4  5  1  0
  6  5  1  0
  7  6  1  0
  8  2  1  0
  8  9  2  0
 10 11  1  0
 11 12  2  0
 11 13  1  0
 13 14  1  0
 14 15  1  0
 15 16  1  0
 17 16  1  1
 17 18  1  0
 18  8  1  0
 19 17  1  0
 20 19  2  0
 22 21  1  6
 22 23  1  0
 22 24  1  0
 24 26  1  0
 24 25  1  6
 25 19  1  0
 26 28  1  0
 27 26  2  0
M  END
$$$$
