KRT.pdb
     RDKit          3D

 28 27  0  0  1  0  0  0  0  0999 V2000
   27.1619  -22.5210  -16.5606 N   0  0  0  0  0  0  0  0  0  0  0  0
   25.8477  -22.8627  -16.9815 C   0  0  1  0  0  0  0  0  0  0  0  0
   25.4030  -24.2582  -16.7774 C   0  0  0  0  0  0  0  0  0  0  0  0
   26.2485  -25.2579  -17.4898 C   0  0  0  0  0  0  0  0  0  0  0  0
   26.9783  -26.2089  -16.6103 C   0  0  0  0  0  0  0  0  0  0  0  0
   27.7634  -27.2351  -17.4275 C   0  0  0  0  0  0  0  0  0  0  0  0
   28.5143  -28.1337  -16.6036 N   0  0  0  0  0  0  0  0  0  0  0  0
   24.8950  -21.9172  -16.2884 C   0  0  0  0  0  0  0  0  0  0  0  0
   25.1375  -21.4837  -15.1338 O   0  0  0  0  0  0  0  0  0  0  0  0
   19.1027  -17.4576  -18.1390 N   0  0  0  0  0  0  0  0  0  0  0  0
   19.7845  -16.1950  -18.0664 C   0  0  0  0  0  0  0  0  0  0  0  0
   19.1232  -15.0850  -17.9693 N   0  0  0  0  0  0  0  0  0  0  0  0
   21.1959  -16.1095  -18.0973 N   0  0  0  0  0  0  0  0  0  0  0  0
   21.9777  -17.3144  -18.2997 C   0  0  0  0  0  0  0  0  0  0  0  0
   21.8897  -18.2160  -17.0528 C   0  0  0  0  0  0  0  0  0  0  0  0
   22.7883  -19.3616  -17.3247 C   0  0  0  0  0  0  0  0  0  0  0  0
   22.8759  -20.4292  -16.2823 C   0  0  2  0  0  0  0  0  0  0  0  0
   23.7020  -21.4884  -16.9119 N   0  0  0  0  0  0  0  0  0  0  0  0
   21.5756  -21.0466  -15.9355 C   0  0  0  0  0  0  0  0  0  0  0  0
   20.9311  -21.7563  -16.7777 O   0  0  0  0  0  0  0  0  0  0  0  0
   19.6316  -14.1618  -17.9150 C   0  0  0  0  0  0  0  0  0  0  0  0
   20.7835  -22.9917  -12.7354 C   0  0  2  0  0  0  0  0  0  0  0  0
   19.7631  -21.9077  -12.8841 O   0  0  0  0  0  0  0  0  0  0  0  0
   20.1914  -20.7649  -12.1802 C   0  0  2  0  0  0  0  0  0  0  0  0
   19.6894  -21.5084  -14.3592 N   0  0  0  0  0  0  0  0  0  0  0  0
   20.9812  -20.8945  -14.6758 C   0  0  0  0  0  0  0  0  0  0  0  0
   18.5825  -20.5668  -14.6019 O   0  0  0  0  0  0  0  0  0  0  0  0
   18.8195  -19.3591  -14.8358 O   0  0  0  0  0  0  0  0  0  0  0  0
  2  1  1  1
  3  2  1  0
  4  3  1  0
  4  5  1  0
  6  5  1  0
  7  6  1  0
  8  2  1  0
  8  9  2  0
 10 11  1  0
 11 12  2  0
 11 13  1  0
 13 14  1  0
 14 15  1  0
 15 16  1  0
 17 16  1  6
 17 18  1  0
 18  8  1  0
 19 17  1  0
 20 19  2  0
 22 21  1  1
 22 23  1  0
 22 24  1  0
 24 26  1  0
 24 25  1  6
 25 19  1  0
 26 28  1  0
 27 26  2  0
M  END
$$$$
