KRT.pdb
     RDKit          3D

 28 27  0  0  1  0  0  0  0  0999 V2000
   19.4060  -24.8989   -8.2943 N   0  0  0  0  0  0  0  0  0  0  0  0
   18.5268  -25.2903   -9.3407 C   0  0  1  0  0  0  0  0  0  0  0  0
   17.2302  -25.8903   -8.9592 C   0  0  0  0  0  0  0  0  0  0  0  0
   17.3607  -27.0026   -7.9757 C   0  0  0  0  0  0  0  0  0  0  0  0
   17.3122  -28.3697   -8.5583 C   0  0  0  0  0  0  0  0  0  0  0  0
   17.4759  -29.4419   -7.4809 C   0  0  0  0  0  0  0  0  0  0  0  0
   17.4097  -30.7693   -8.0136 N   0  0  0  0  0  0  0  0  0  0  0  0
   18.2914  -24.0749  -10.2065 C   0  0  0  0  0  0  0  0  0  0  0  0
   17.2811  -23.3460  -10.0396 O   0  0  0  0  0  0  0  0  0  0  0  0
   24.4327  -24.4837  -13.2054 N   0  0  0  0  0  0  0  0  0  0  0  0
   23.6602  -24.6652  -14.4032 C   0  0  0  0  0  0  0  0  0  0  0  0
   23.6827  -25.7896  -15.0468 N   0  0  0  0  0  0  0  0  0  0  0  0
   22.8483  -23.6328  -14.9277 N   0  0  0  0  0  0  0  0  0  0  0  0
   22.2097  -22.6988  -14.0200 C   0  0  0  0  0  0  0  0  0  0  0  0
   20.8568  -23.2649  -13.5464 C   0  0  0  0  0  0  0  0  0  0  0  0
   20.2615  -22.2124  -12.6908 C   0  0  0  0  0  0  0  0  0  0  0  0
   18.9419  -22.5086  -12.0543 C   0  0  2  0  0  0  0  0  0  0  0  0
   19.1958  -23.7161  -11.2308 N   0  0  0  0  0  0  0  0  0  0  0  0
   17.8707  -22.8596  -13.0141 C   0  0  0  0  0  0  0  0  0  0  0  0
   17.7406  -24.0483  -13.4596 O   0  0  0  0  0  0  0  0  0  0  0  0
   23.1044  -25.9182  -15.9202 C   0  0  0  0  0  0  0  0  0  0  0  0
   13.5770  -21.6778  -15.0342 C   0  0  2  0  0  0  0  0  0  0  0  0
   14.6921  -21.3764  -14.0833 O   0  0  0  0  0  0  0  0  0  0  0  0
   14.2833  -21.6893  -12.7718 C   0  0  1  0  0  0  0  0  0  0  0  0
   15.8683  -22.3005  -14.4048 N   0  0  0  0  0  0  0  0  0  0  0  0
   16.9428  -21.9209  -13.4844 C   0  0  0  0  0  0  0  0  0  0  0  0
   16.2955  -22.1514  -15.8069 O   0  0  0  0  0  0  0  0  0  0  0  0
   17.1176  -21.2618  -16.1263 O   0  0  0  0  0  0  0  0  0  0  0  0
  2  1  1  1
  3  2  1  0
  4  3  1  0
  4  5  1  0
  6  5  1  0
  7  6  1  0
  8  2  1  0
  8  9  2  0
 10 11  1  0
 11 12  2  0
 11 13  1  0
 13 14  1  0
 14 15  1  0
 15 16  1  0
 17 16  1  6
 17 18  1  0
 18  8  1  0
 19 17  1  0
 20 19  2  0
 22 21  1  1
 22 23  1  0
 22 24  1  0
 24 26  1  0
 24 25  1  6
 25 19  1  0
 26 28  1  0
 27 26  2  0
M  END
$$$$
