KRT.pdb
     RDKit          3D

 28 27  0  0  1  0  0  0  0  0999 V2000
   19.1540  -24.6308  -11.2775 N   0  0  0  0  0  0  0  0  0  0  0  0
   18.4993  -23.5200  -10.6789 C   0  0  1  0  0  0  0  0  0  0  0  0
   18.6179  -23.3616   -9.2134 C   0  0  0  0  0  0  0  0  0  0  0  0
   18.3579  -24.6213   -8.4602 C   0  0  0  0  0  0  0  0  0  0  0  0
   18.5404  -24.5258   -6.9877 C   0  0  0  0  0  0  0  0  0  0  0  0
   18.3556  -25.8851   -6.3128 C   0  0  0  0  0  0  0  0  0  0  0  0
   18.7081  -25.8609   -4.9253 N   0  0  0  0  0  0  0  0  0  0  0  0
   19.0063  -22.2755  -11.3691 C   0  0  0  0  0  0  0  0  0  0  0  0
   18.5282  -21.1446  -11.1000 O   0  0  0  0  0  0  0  0  0  0  0  0
   26.2223  -22.7961  -11.7472 N   0  0  0  0  0  0  0  0  0  0  0  0
   26.0676  -21.4814  -12.3060 C   0  0  0  0  0  0  0  0  0  0  0  0
   26.9452  -20.9993  -13.1284 N   0  0  0  0  0  0  0  0  0  0  0  0
   24.9597  -20.6631  -11.9852 N   0  0  0  0  0  0  0  0  0  0  0  0
   24.0109  -21.1101  -10.9834 C   0  0  0  0  0  0  0  0  0  0  0  0
   22.6164  -20.5240  -11.2787 C   0  0  0  0  0  0  0  0  0  0  0  0
   22.1173  -21.2595  -12.4637 C   0  0  0  0  0  0  0  0  0  0  0  0
   20.6754  -21.0919  -12.8197 C   0  0  2  0  0  0  0  0  0  0  0  0
   20.0324  -22.3391  -12.3382 N   0  0  0  0  0  0  0  0  0  0  0  0
   20.4157  -21.0079  -14.2749 C   0  0  0  0  0  0  0  0  0  0  0  0
   20.6526  -21.9933  -15.0504 O   0  0  0  0  0  0  0  0  0  0  0  0
   26.8411  -20.0207  -13.5094 C   0  0  0  0  0  0  0  0  0  0  0  0
   17.1915  -19.7189  -15.9272 C   0  0  2  0  0  0  0  0  0  0  0  0
   18.3558  -18.9545  -16.4737 O   0  0  0  0  0  0  0  0  0  0  0  0
   18.5597  -17.7974  -15.6962 C   0  0  2  0  0  0  0  0  0  0  0  0
   19.6147  -19.8102  -16.3193 N   0  0  0  0  0  0  0  0  0  0  0  0
   19.8970  -19.8569  -14.8827 C   0  0  0  0  0  0  0  0  0  0  0  0
   20.7474  -19.2309  -17.0625 O   0  0  0  0  0  0  0  0  0  0  0  0
   21.7057  -18.7081  -16.4479 O   0  0  0  0  0  0  0  0  0  0  0  0
  2  1  1  6
  3  2  1  0
  4  3  1  0
  4  5  1  0
  6  5  1  0
  7  6  1  0
  8  2  1  0
  8  9  2  0
 10 11  1  0
 11 12  2  0
 11 13  1  0
 13 14  1  0
 14 15  1  0
 15 16  1  0
 17 16  1  6
 17 18  1  0
 18  8  1  0
 19 17  1  0
 20 19  2  0
 22 21  1  6
 22 23  1  0
 22 24  1  0
 24 26  1  0
 24 25  1  6
 25 19  1  0
 26 28  1  0
 27 26  2  0
M  END
$$$$
