KRT.pdb
     RDKit          3D

 28 27  0  0  1  0  0  0  0  0999 V2000
   25.3653  -29.1979  -16.8083 N   0  0  0  0  0  0  0  0  0  0  0  0
   25.6315  -27.8143  -16.6193 C   0  0  1  0  0  0  0  0  0  0  0  0
   26.5474  -27.1549  -17.5747 C   0  0  0  0  0  0  0  0  0  0  0  0
   27.9411  -27.6804  -17.5157 C   0  0  0  0  0  0  0  0  0  0  0  0
   28.9053  -27.0177  -18.4332 C   0  0  0  0  0  0  0  0  0  0  0  0
   30.2765  -27.6918  -18.3838 C   0  0  0  0  0  0  0  0  0  0  0  0
   31.2111  -27.1013  -19.2937 N   0  0  0  0  0  0  0  0  0  0  0  0
   24.3011  -27.0988  -16.6114 C   0  0  0  0  0  0  0  0  0  0  0  0
   23.3213  -27.5450  -17.2602 O   0  0  0  0  0  0  0  0  0  0  0  0
   19.7755  -28.3255  -10.7950 N   0  0  0  0  0  0  0  0  0  0  0  0
   19.4242  -26.9426  -10.9647 C   0  0  0  0  0  0  0  0  0  0  0  0
   19.0671  -26.2167   -9.9526 N   0  0  0  0  0  0  0  0  0  0  0  0
   19.4527  -26.3188  -12.2336 N   0  0  0  0  0  0  0  0  0  0  0  0
   20.3642  -26.8114  -13.2486 C   0  0  0  0  0  0  0  0  0  0  0  0
   21.1733  -25.6422  -13.8433 C   0  0  0  0  0  0  0  0  0  0  0  0
   21.9822  -26.2316  -14.9353 C   0  0  0  0  0  0  0  0  0  0  0  0
   22.7644  -25.2922  -15.7955 C   0  0  2  0  0  0  0  0  0  0  0  0
   24.1120  -25.9069  -15.8769 N   0  0  0  0  0  0  0  0  0  0  0  0
   22.9414  -23.9421  -15.2141 C   0  0  0  0  0  0  0  0  0  0  0  0
   23.5382  -23.7716  -14.0991 O   0  0  0  0  0  0  0  0  0  0  0  0
   18.9617  -25.1715  -10.0540 C   0  0  0  0  0  0  0  0  0  0  0  0
   22.1728  -20.4882  -17.4611 C   0  0  2  0  0  0  0  0  0  0  0  0
   23.2146  -20.5743  -16.3908 O   0  0  0  0  0  0  0  0  0  0  0  0
   23.4218  -19.2950  -15.8383 C   0  0  1  0  0  0  0  0  0  0  0  0
   22.6788  -21.4552  -15.2604 N   0  0  0  0  0  0  0  0  0  0  0  0
   22.4736  -22.7822  -15.8458 C   0  0  0  0  0  0  0  0  0  0  0  0
   21.4200  -20.9168  -14.7160 O   0  0  0  0  0  0  0  0  0  0  0  0
   20.3285  -21.4726  -14.9790 O   0  0  0  0  0  0  0  0  0  0  0  0
  2  1  1  6
  3  2  1  0
  4  3  1  0
  4  5  1  0
  6  5  1  0
  7  6  1  0
  8  2  1  0
  8  9  2  0
 10 11  1  0
 11 12  2  0
 11 13  1  0
 13 14  1  0
 14 15  1  0
 15 16  1  0
 17 16  1  1
 17 18  1  0
 18  8  1  0
 19 17  1  0
 20 19  2  0
 22 21  1  6
 22 23  1  0
 22 24  1  0
 24 26  1  0
 24 25  1  6
 25 19  1  0
 26 28  1  0
 27 26  2  0
M  END
$$$$
