KRT.pdb
     RDKit          3D

 28 27  0  0  1  0  0  0  0  0999 V2000
   27.8025  -22.4120  -16.0370 N   0  0  0  0  0  0  0  0  0  0  0  0
   27.6981  -21.2757  -15.1892 C   0  0  1  0  0  0  0  0  0  0  0  0
   27.8179  -19.9405  -15.8134 C   0  0  0  0  0  0  0  0  0  0  0  0
   28.3049  -19.9882  -17.2214 C   0  0  0  0  0  0  0  0  0  0  0  0
   27.4334  -19.3064  -18.2146 C   0  0  0  0  0  0  0  0  0  0  0  0
   28.0488  -19.3402  -19.6136 C   0  0  0  0  0  0  0  0  0  0  0  0
   29.3409  -18.7250  -19.6593 N   0  0  0  0  0  0  0  0  0  0  0  0
   26.3799  -21.3809  -14.4589 C   0  0  0  0  0  0  0  0  0  0  0  0
   25.4127  -22.0121  -14.9548 O   0  0  0  0  0  0  0  0  0  0  0  0
   22.6241  -21.4487   -7.2689 N   0  0  0  0  0  0  0  0  0  0  0  0
   21.5956  -21.2909   -8.2596 C   0  0  0  0  0  0  0  0  0  0  0  0
   20.3561  -21.1366   -7.9148 N   0  0  0  0  0  0  0  0  0  0  0  0
   21.8889  -21.2970   -9.6431 N   0  0  0  0  0  0  0  0  0  0  0  0
   23.2503  -21.5395  -10.0810 C   0  0  0  0  0  0  0  0  0  0  0  0
   24.0043  -20.2030  -10.2243 C   0  0  0  0  0  0  0  0  0  0  0  0
   25.1638  -20.4910  -11.1000 C   0  0  0  0  0  0  0  0  0  0  0  0
   24.8770  -20.8858  -12.5128 C   0  0  2  0  0  0  0  0  0  0  0  0
   26.1887  -20.7753  -13.1969 N   0  0  0  0  0  0  0  0  0  0  0  0
   23.9453  -19.9775  -13.2192 C   0  0  0  0  0  0  0  0  0  0  0  0
   24.1645  -18.7223  -13.2876 O   0  0  0  0  0  0  0  0  0  0  0  0
   19.6114  -20.9865   -8.6473 C   0  0  0  0  0  0  0  0  0  0  0  0
   22.8535  -19.8144  -16.6726 C   0  0  2  0  0  0  0  0  0  0  0  0
   21.5966  -20.0165  -15.8866 O   0  0  0  0  0  0  0  0  0  0  0  0
   21.3301  -21.3959  -15.7807 C   0  0  2  0  0  0  0  0  0  0  0  0
   21.8266  -19.5069  -14.4624 N   0  0  0  0  0  0  0  0  0  0  0  0
   22.7813  -20.4347  -13.8513 C   0  0  0  0  0  0  0  0  0  0  0  0
   20.5662  -19.4667  -13.7005 O   0  0  0  0  0  0  0  0  0  0  0  0
   20.3765  -20.2601  -12.7498 O   0  0  0  0  0  0  0  0  0  0  0  0
  2  1  1  6
  3  2  1  0
  4  3  1  0
  4  5  1  0
  6  5  1  0
  7  6  1  0
  8  2  1  0
  8  9  2  0
 10 11  1  0
 11 12  2  0
 11 13  1  0
 13 14  1  0
 14 15  1  0
 15 16  1  0
 17 16  1  1
 17 18  1  0
 18  8  1  0
 19 17  1  0
 20 19  2  0
 22 21  1  6
 22 23  1  0
 22 24  1  0
 24 26  1  0
 24 25  1  1
 25 19  1  0
 26 28  1  0
 27 26  2  0
M  END
$$$$
