KRT.pdb
     RDKit          3D

 28 27  0  0  1  0  0  0  0  0999 V2000
   27.0839  -21.8695  -13.9461 N   0  0  0  0  0  0  0  0  0  0  0  0
   26.4568  -20.7786  -13.2846 C   0  0  1  0  0  0  0  0  0  0  0  0
   26.5727  -19.4414  -13.9051 C   0  0  0  0  0  0  0  0  0  0  0  0
   26.5645  -19.4789  -15.3951 C   0  0  0  0  0  0  0  0  0  0  0  0
   26.6505  -18.1522  -16.0608 C   0  0  0  0  0  0  0  0  0  0  0  0
   26.5212  -18.2797  -17.5788 C   0  0  0  0  0  0  0  0  0  0  0  0
   26.6124  -17.0156  -18.2451 N   0  0  0  0  0  0  0  0  0  0  0  0
   24.9992  -21.1366  -13.1128 C   0  0  0  0  0  0  0  0  0  0  0  0
   24.4342  -21.9451  -13.8919 O   0  0  0  0  0  0  0  0  0  0  0  0
   20.4268  -23.6836   -8.0682 N   0  0  0  0  0  0  0  0  0  0  0  0
   19.5711  -22.5359   -7.9458 C   0  0  0  0  0  0  0  0  0  0  0  0
   18.2851  -22.6483   -8.0578 N   0  0  0  0  0  0  0  0  0  0  0  0
   20.0911  -21.2439   -7.6998 N   0  0  0  0  0  0  0  0  0  0  0  0
   21.3223  -20.8366   -8.3494 C   0  0  0  0  0  0  0  0  0  0  0  0
   21.3020  -21.2599   -9.8312 C   0  0  0  0  0  0  0  0  0  0  0  0
   22.5863  -20.7879  -10.3986 C   0  0  0  0  0  0  0  0  0  0  0  0
   22.8343  -21.0490  -11.8492 C   0  0  2  0  0  0  0  0  0  0  0  0
   24.2226  -20.5769  -12.0737 N   0  0  0  0  0  0  0  0  0  0  0  0
   21.9634  -20.2746  -12.7625 C   0  0  0  0  0  0  0  0  0  0  0  0
   21.9541  -18.9987  -12.7494 O   0  0  0  0  0  0  0  0  0  0  0  0
   17.6634  -21.8008   -7.9636 C   0  0  0  0  0  0  0  0  0  0  0  0
   21.5151  -20.8476  -16.5442 C   0  0  2  0  0  0  0  0  0  0  0  0
   20.1706  -20.8814  -15.8887 O   0  0  0  0  0  0  0  0  0  0  0  0
   19.8532  -22.2104  -15.5450 C   0  0  2  0  0  0  0  0  0  0  0  0
   20.2499  -20.0993  -14.5761 N   0  0  0  0  0  0  0  0  0  0  0  0
   21.1085  -20.8871  -13.6884 C   0  0  0  0  0  0  0  0  0  0  0  0
   18.9128  -19.9093  -13.9872 O   0  0  0  0  0  0  0  0  0  0  0  0
   18.0860  -19.1409  -14.5306 O   0  0  0  0  0  0  0  0  0  0  0  0
  2  1  1  6
  3  2  1  0
  4  3  1  0
  4  5  1  0
  6  5  1  0
  7  6  1  0
  8  2  1  0
  8  9  2  0
 10 11  1  0
 11 12  2  0
 11 13  1  0
 13 14  1  0
 14 15  1  0
 15 16  1  0
 17 16  1  1
 17 18  1  0
 18  8  1  0
 19 17  1  0
 20 19  2  0
 22 21  1  6
 22 23  1  0
 22 24  1  0
 24 26  1  0
 24 25  1  6
 25 19  1  0
 26 28  1  0
 27 26  2  0
M  END
$$$$
