KRT.pdb
     RDKit          3D

 28 27  0  0  1  0  0  0  0  0999 V2000
   26.2255  -20.9495  -10.0897 N   0  0  0  0  0  0  0  0  0  0  0  0
   26.8437  -21.2338  -11.3379 C   0  0  1  0  0  0  0  0  0  0  0  0
   27.6373  -22.4770  -11.4433 C   0  0  0  0  0  0  0  0  0  0  0  0
   29.1090  -22.2430  -11.4101 C   0  0  0  0  0  0  0  0  0  0  0  0
   29.6790  -21.9963  -10.0592 C   0  0  0  0  0  0  0  0  0  0  0  0
   31.1616  -21.6316  -10.1368 C   0  0  0  0  0  0  0  0  0  0  0  0
   31.7369  -21.3970   -8.8468 N   0  0  0  0  0  0  0  0  0  0  0  0
   25.7568  -21.2319  -12.3871 C   0  0  0  0  0  0  0  0  0  0  0  0
   25.9719  -21.6739  -13.5439 O   0  0  0  0  0  0  0  0  0  0  0  0
   18.4101  -23.4023   -9.9247 N   0  0  0  0  0  0  0  0  0  0  0  0
   19.5577  -23.1575   -9.0955 C   0  0  0  0  0  0  0  0  0  0  0  0
   19.5640  -23.5042   -7.8470 N   0  0  0  0  0  0  0  0  0  0  0  0
   20.7209  -22.5324   -9.6018 N   0  0  0  0  0  0  0  0  0  0  0  0
   20.5901  -21.4798  -10.5911 C   0  0  0  0  0  0  0  0  0  0  0  0
   21.9825  -20.9479  -10.9828 C   0  0  0  0  0  0  0  0  0  0  0  0
   22.2485  -21.4856  -12.3371 C   0  0  0  0  0  0  0  0  0  0  0  0
   23.3794  -20.8827  -13.1062 C   0  0  2  0  0  0  0  0  0  0  0  0
   24.4646  -20.7350  -12.1056 N   0  0  0  0  0  0  0  0  0  0  0  0
   23.0980  -19.5302  -13.6389 C   0  0  0  0  0  0  0  0  0  0  0  0
   22.6427  -18.6025  -12.8903 O   0  0  0  0  0  0  0  0  0  0  0  0
   20.4481  -23.4308   -7.2754 C   0  0  0  0  0  0  0  0  0  0  0  0
   25.4711  -17.2852  -15.0406 C   0  0  2  0  0  0  0  0  0  0  0  0
   24.4334  -17.4028  -16.1120 O   0  0  0  0  0  0  0  0  0  0  0  0
   24.7924  -18.4392  -16.9964 C   0  0  2  0  0  0  0  0  0  0  0  0
   23.1116  -17.8210  -15.4648 N   0  0  0  0  0  0  0  0  0  0  0  0
   23.3145  -19.1884  -14.9803 C   0  0  0  0  0  0  0  0  0  0  0  0
   22.0021  -17.7617  -16.4324 O   0  0  0  0  0  0  0  0  0  0  0  0
   21.4358  -18.8134  -16.8102 O   0  0  0  0  0  0  0  0  0  0  0  0
  2  1  1  1
  3  2  1  0
  4  3  1  0
  4  5  1  0
  6  5  1  0
  7  6  1  0
  8  2  1  0
  8  9  2  0
 10 11  1  0
 11 12  2  0
 11 13  1  0
 13 14  1  0
 14 15  1  0
 15 16  1  0
 17 16  1  1
 17 18  1  0
 18  8  1  0
 19 17  1  0
 20 19  2  0
 22 21  1  6
 22 23  1  0
 22 24  1  0
 24 26  1  0
 24 25  1  6
 25 19  1  0
 26 28  1  0
 27 26  2  0
M  END
$$$$
