KRT.pdb
     RDKit          3D

 28 27  0  0  1  0  0  0  0  0999 V2000
   28.7645  -23.2556  -16.5342 N   0  0  0  0  0  0  0  0  0  0  0  0
   28.0206  -22.0540  -16.6885 C   0  0  1  0  0  0  0  0  0  0  0  0
   27.5728  -21.6942  -18.0511 C   0  0  0  0  0  0  0  0  0  0  0  0
   28.5741  -20.8914  -18.8092 C   0  0  0  0  0  0  0  0  0  0  0  0
   29.8695  -21.5754  -19.0643 C   0  0  0  0  0  0  0  0  0  0  0  0
   30.8155  -20.6934  -19.8794 C   0  0  0  0  0  0  0  0  0  0  0  0
   30.1167  -19.7386  -20.6858 N   0  0  0  0  0  0  0  0  0  0  0  0
   26.8272  -22.1441  -15.7666 C   0  0  0  0  0  0  0  0  0  0  0  0
   26.1601  -23.2052  -15.6718 O   0  0  0  0  0  0  0  0  0  0  0  0
   24.9762  -21.4796   -8.0071 N   0  0  0  0  0  0  0  0  0  0  0  0
   23.7112  -21.0691   -8.5508 C   0  0  0  0  0  0  0  0  0  0  0  0
   22.6138  -21.2309   -7.8810 N   0  0  0  0  0  0  0  0  0  0  0  0
   23.6096  -20.4753   -9.8303 N   0  0  0  0  0  0  0  0  0  0  0  0
   24.6945  -20.6386  -10.7790 C   0  0  0  0  0  0  0  0  0  0  0  0
   24.3801  -19.8701  -12.0774 C   0  0  0  0  0  0  0  0  0  0  0  0
   25.4978  -20.1732  -13.0010 C   0  0  0  0  0  0  0  0  0  0  0  0
   25.2394  -21.1621  -14.0917 C   0  0  2  0  0  0  0  0  0  0  0  0
   26.4205  -21.0424  -14.9812 N   0  0  0  0  0  0  0  0  0  0  0  0
   24.0474  -20.8586  -14.9157 C   0  0  0  0  0  0  0  0  0  0  0  0
   23.9895  -19.8096  -15.6400 O   0  0  0  0  0  0  0  0  0  0  0  0
   21.6883  -20.9293   -8.2888 C   0  0  0  0  0  0  0  0  0  0  0  0
   22.3352  -23.0416  -17.4381 C   0  0  2  0  0  0  0  0  0  0  0  0
   21.3031  -22.6582  -16.4252 O   0  0  0  0  0  0  0  0  0  0  0  0
   21.2564  -23.6380  -15.4138 C   0  0  2  0  0  0  0  0  0  0  0  0
   21.7431  -21.3572  -15.7510 N   0  0  0  0  0  0  0  0  0  0  0  0
   22.9244  -21.6957  -14.9535 C   0  0  0  0  0  0  0  0  0  0  0  0
   20.6715  -20.8076  -14.9022 O   0  0  0  0  0  0  0  0  0  0  0  0
   20.7968  -20.7932  -13.6559 O   0  0  0  0  0  0  0  0  0  0  0  0
  2  1  1  6
  3  2  1  0
  4  3  1  0
  4  5  1  0
  6  5  1  0
  7  6  1  0
  8  2  1  0
  8  9  2  0
 10 11  1  0
 11 12  2  0
 11 13  1  0
 13 14  1  0
 14 15  1  0
 15 16  1  0
 17 16  1  1
 17 18  1  0
 18  8  1  0
 19 17  1  0
 20 19  2  0
 22 21  1  6
 22 23  1  0
 22 24  1  0
 24 26  1  0
 24 25  1  6
 25 19  1  0
 26 28  1  0
 27 26  2  0
M  END
$$$$
