KRT.pdb
     RDKit          3D

 28 27  0  0  1  0  0  0  0  0999 V2000
   16.9828  -22.2558  -10.8858 N   0  0  0  0  0  0  0  0  0  0  0  0
   16.9417  -21.9440  -12.2722 C   0  0  1  0  0  0  0  0  0  0  0  0
   15.7049  -21.3295  -12.8010 C   0  0  0  0  0  0  0  0  0  0  0  0
   14.9251  -22.2399  -13.6869 C   0  0  0  0  0  0  0  0  0  0  0  0
   15.1536  -23.6914  -13.4592 C   0  0  0  0  0  0  0  0  0  0  0  0
   14.4558  -24.5400  -14.5222 C   0  0  0  0  0  0  0  0  0  0  0  0
   14.7927  -25.9281  -14.4239 N   0  0  0  0  0  0  0  0  0  0  0  0
   18.1220  -21.0480  -12.5654 C   0  0  0  0  0  0  0  0  0  0  0  0
   18.4781  -20.1581  -11.7522 O   0  0  0  0  0  0  0  0  0  0  0  0
   25.5227  -23.2229  -15.1063 N   0  0  0  0  0  0  0  0  0  0  0  0
   24.2268  -23.8033  -14.8869 C   0  0  0  0  0  0  0  0  0  0  0  0
   24.1014  -25.0533  -14.5697 N   0  0  0  0  0  0  0  0  0  0  0  0
   23.0413  -23.0415  -15.0067 N   0  0  0  0  0  0  0  0  0  0  0  0
   23.0307  -21.8712  -15.8635 C   0  0  0  0  0  0  0  0  0  0  0  0
   22.3010  -20.7097  -15.1609 C   0  0  0  0  0  0  0  0  0  0  0  0
   21.0473  -21.2907  -14.6272 C   0  0  0  0  0  0  0  0  0  0  0  0
   20.0827  -20.3577  -13.9691 C   0  0  2  0  0  0  0  0  0  0  0  0
   18.8647  -21.1784  -13.7602 N   0  0  0  0  0  0  0  0  0  0  0  0
   19.6859  -19.2043  -14.8083 C   0  0  0  0  0  0  0  0  0  0  0  0
   18.9966  -19.3611  -15.8707 O   0  0  0  0  0  0  0  0  0  0  0  0
   23.1470  -25.4680  -14.3941 C   0  0  0  0  0  0  0  0  0  0  0  0
   18.3233  -15.8033  -13.4415 C   0  0  2  0  0  0  0  0  0  0  0  0
   19.4764  -15.5630  -14.3640 O   0  0  0  0  0  0  0  0  0  0  0  0
   20.6704  -15.5240  -13.6170 C   0  0  2  0  0  0  0  0  0  0  0  0
   19.5960  -16.7564  -15.3139 N   0  0  0  0  0  0  0  0  0  0  0  0
   20.0353  -17.8852  -14.4901 C   0  0  0  0  0  0  0  0  0  0  0  0
   20.5598  -16.4833  -16.3943 O   0  0  0  0  0  0  0  0  0  0  0  0
   21.6444  -17.1080  -16.4469 O   0  0  0  0  0  0  0  0  0  0  0  0
  2  1  1  1
  3  2  1  0
  4  3  1  0
  4  5  1  0
  6  5  1  0
  7  6  1  0
  8  2  1  0
  8  9  2  0
 10 11  1  0
 11 12  2  0
 11 13  1  0
 13 14  1  0
 14 15  1  0
 15 16  1  0
 17 16  1  6
 17 18  1  0
 18  8  1  0
 19 17  1  0
 20 19  2  0
 22 21  1  1
 22 23  1  0
 22 24  1  0
 24 26  1  0
 24 25  1  6
 25 19  1  0
 26 28  1  0
 27 26  2  0
M  END
$$$$
