KRT.pdb
     RDKit          3D

 28 27  0  0  1  0  0  0  0  0999 V2000
   24.0765  -24.7673  -14.1352 N   0  0  0  0  0  0  0  0  0  0  0  0
   23.5284  -23.4674  -14.3103 C   0  0  1  0  0  0  0  0  0  0  0  0
   23.7729  -22.7876  -15.6006 C   0  0  0  0  0  0  0  0  0  0  0  0
   25.1903  -22.3653  -15.7865 C   0  0  0  0  0  0  0  0  0  0  0  0
   26.0734  -23.3794  -16.4207 C   0  0  0  0  0  0  0  0  0  0  0  0
   27.4786  -22.8259  -16.6579 C   0  0  0  0  0  0  0  0  0  0  0  0
   28.3428  -23.7761  -17.2907 N   0  0  0  0  0  0  0  0  0  0  0  0
   22.0420  -23.5704  -14.0617 C   0  0  0  0  0  0  0  0  0  0  0  0
   21.3962  -24.5918  -14.4076 O   0  0  0  0  0  0  0  0  0  0  0  0
   18.7880  -26.5900   -8.7901 N   0  0  0  0  0  0  0  0  0  0  0  0
   18.2908  -25.2441   -8.8676 C   0  0  0  0  0  0  0  0  0  0  0  0
   18.0816  -24.5481   -7.7949 N   0  0  0  0  0  0  0  0  0  0  0  0
   18.0105  -24.6256  -10.1081 N   0  0  0  0  0  0  0  0  0  0  0  0
   19.0278  -24.6103  -11.1419 C   0  0  0  0  0  0  0  0  0  0  0  0
   20.0103  -23.4481  -10.8981 C   0  0  0  0  0  0  0  0  0  0  0  0
   19.6052  -22.3791  -11.8400 C   0  0  0  0  0  0  0  0  0  0  0  0
   19.8535  -22.6143  -13.2950 C   0  0  2  0  0  0  0  0  0  0  0  0
   21.3279  -22.5257  -13.4335 N   0  0  0  0  0  0  0  0  0  0  0  0
   19.2748  -21.5814  -14.1839 C   0  0  0  0  0  0  0  0  0  0  0  0
   19.5517  -20.3447  -14.0343 O   0  0  0  0  0  0  0  0  0  0  0  0
   17.6222  -23.5998   -7.8531 C   0  0  0  0  0  0  0  0  0  0  0  0
   16.8728  -20.6046  -18.3599 C   0  0  2  0  0  0  0  0  0  0  0  0
   17.2830  -21.6079  -17.3286 O   0  0  0  0  0  0  0  0  0  0  0  0
   18.3034  -22.4252  -17.8537 C   0  0  1  0  0  0  0  0  0  0  0  0
   17.8914  -20.8618  -16.1395 N   0  0  0  0  0  0  0  0  0  0  0  0
   18.4008  -21.8941  -15.2335 C   0  0  0  0  0  0  0  0  0  0  0  0
   16.8867  -20.0183  -15.4688 O   0  0  0  0  0  0  0  0  0  0  0  0
   16.1018  -20.5164  -14.6291 O   0  0  0  0  0  0  0  0  0  0  0  0
  2  1  1  6
  3  2  1  0
  4  3  1  0
  4  5  1  0
  6  5  1  0
  7  6  1  0
  8  2  1  0
  8  9  2  0
 10 11  1  0
 11 12  2  0
 11 13  1  0
 13 14  1  0
 14 15  1  0
 15 16  1  0
 17 16  1  1
 17 18  1  0
 18  8  1  0
 19 17  1  0
 20 19  2  0
 22 21  1  6
 22 23  1  0
 22 24  1  0
 24 26  1  0
 24 25  1  1
 25 19  1  0
 26 28  1  0
 27 26  2  0
M  END
$$$$
