KRT.pdb
     RDKit          3D

 28 27  0  0  1  0  0  0  0  0999 V2000
   19.2616  -16.7987  -15.5828 N   0  0  0  0  0  0  0  0  0  0  0  0
   20.0447  -17.8050  -16.2114 C   0  0  1  0  0  0  0  0  0  0  0  0
   20.7157  -17.4582  -17.4827 C   0  0  0  0  0  0  0  0  0  0  0  0
   19.8036  -17.4947  -18.6611 C   0  0  0  0  0  0  0  0  0  0  0  0
   19.4514  -18.8558  -19.1451 C   0  0  0  0  0  0  0  0  0  0  0  0
   18.5929  -18.7942  -20.4086 C   0  0  0  0  0  0  0  0  0  0  0  0
   18.2066  -20.0924  -20.8730 N   0  0  0  0  0  0  0  0  0  0  0  0
   21.0699  -18.2698  -15.2039 C   0  0  0  0  0  0  0  0  0  0  0  0
   21.8250  -17.4504  -14.6223 O   0  0  0  0  0  0  0  0  0  0  0  0
   19.2830  -24.9639  -10.8078 N   0  0  0  0  0  0  0  0  0  0  0  0
   19.6247  -23.7131  -10.1888 C   0  0  0  0  0  0  0  0  0  0  0  0
   19.7329  -23.6141   -8.9014 N   0  0  0  0  0  0  0  0  0  0  0  0
   19.8558  -22.5449  -10.9517 N   0  0  0  0  0  0  0  0  0  0  0  0
   19.8329  -22.6243  -12.3998 C   0  0  0  0  0  0  0  0  0  0  0  0
   20.1692  -21.2491  -13.0089 C   0  0  0  0  0  0  0  0  0  0  0  0
   21.6339  -21.2579  -13.2296 C   0  0  0  0  0  0  0  0  0  0  0  0
   22.2365  -20.0612  -13.8921 C   0  0  2  0  0  0  0  0  0  0  0  0
   21.2153  -19.6375  -14.8811 N   0  0  0  0  0  0  0  0  0  0  0  0
   23.4764  -20.3470  -14.6492 C   0  0  0  0  0  0  0  0  0  0  0  0
   23.4561  -21.0394  -15.7209 O   0  0  0  0  0  0  0  0  0  0  0  0
   19.9497  -22.6841   -8.4522 C   0  0  0  0  0  0  0  0  0  0  0  0
   27.1067  -18.5947  -13.5235 C   0  0  2  0  0  0  0  0  0  0  0  0
   26.7860  -18.8808  -14.9566 O   0  0  0  0  0  0  0  0  0  0  0  0
   27.9786  -19.1536  -15.6553 C   0  0  1  0  0  0  0  0  0  0  0  0
   25.9423  -20.1555  -15.0208 N   0  0  0  0  0  0  0  0  0  0  0  0
   24.7326  -19.8782  -14.2427 C   0  0  0  0  0  0  0  0  0  0  0  0
   26.6747  -21.3080  -14.4675 O   0  0  0  0  0  0  0  0  0  0  0  0
   26.3688  -21.7715  -13.3446 O   0  0  0  0  0  0  0  0  0  0  0  0
  2  1  1  1
  3  2  1  0
  4  3  1  0
  4  5  1  0
  6  5  1  0
  7  6  1  0
  8  2  1  0
  8  9  2  0
 10 11  1  0
 11 12  2  0
 11 13  1  0
 13 14  1  0
 14 15  1  0
 15 16  1  0
 17 16  1  6
 17 18  1  0
 18  8  1  0
 19 17  1  0
 20 19  2  0
 22 21  1  6
 22 23  1  0
 22 24  1  0
 24 26  1  0
 24 25  1  6
 25 19  1  0
 26 28  1  0
 27 26  2  0
M  END
$$$$
