KRT.pdb
     RDKit          3D

 28 27  0  0  1  0  0  0  0  0999 V2000
   27.8290  -21.2349  -15.8579 N   0  0  0  0  0  0  0  0  0  0  0  0
   26.6685  -21.5355  -16.6220 C   0  0  1  0  0  0  0  0  0  0  0  0
   26.6055  -22.8568  -17.2831 C   0  0  0  0  0  0  0  0  0  0  0  0
   27.6686  -23.7968  -16.8270 C   0  0  0  0  0  0  0  0  0  0  0  0
   27.6540  -25.1320  -17.4809 C   0  0  0  0  0  0  0  0  0  0  0  0
   28.7901  -26.0173  -16.9682 C   0  0  0  0  0  0  0  0  0  0  0  0
   28.7362  -27.3439  -17.5042 N   0  0  0  0  0  0  0  0  0  0  0  0
   25.4754  -21.3633  -15.7116 C   0  0  0  0  0  0  0  0  0  0  0  0
   25.5891  -21.4784  -14.4651 O   0  0  0  0  0  0  0  0  0  0  0  0
   20.2470  -15.9006  -13.6109 N   0  0  0  0  0  0  0  0  0  0  0  0
   21.4862  -15.7465  -14.3215 C   0  0  0  0  0  0  0  0  0  0  0  0
   22.2865  -14.7616  -14.0599 N   0  0  0  0  0  0  0  0  0  0  0  0
   21.8832  -16.6559  -15.3292 N   0  0  0  0  0  0  0  0  0  0  0  0
   20.9492  -17.6690  -15.7819 C   0  0  0  0  0  0  0  0  0  0  0  0
   21.2697  -19.0193  -15.1115 C   0  0  0  0  0  0  0  0  0  0  0  0
   22.5427  -19.4734  -15.7177 C   0  0  0  0  0  0  0  0  0  0  0  0
   23.0630  -20.8116  -15.3025 C   0  0  2  0  0  0  0  0  0  0  0  0
   24.1939  -21.0676  -16.2278 N   0  0  0  0  0  0  0  0  0  0  0  0
   22.0988  -21.9204  -15.4841 C   0  0  0  0  0  0  0  0  0  0  0  0
   21.6309  -22.2126  -16.6348 O   0  0  0  0  0  0  0  0  0  0  0  0
   23.1394  -14.5915  -14.6576 C   0  0  0  0  0  0  0  0  0  0  0  0
   22.5616  -25.3583  -13.9632 C   0  0  2  0  0  0  0  0  0  0  0  0
   21.1724  -24.9164  -13.6268 O   0  0  0  0  0  0  0  0  0  0  0  0
   21.1734  -24.3005  -12.3597 C   0  0  2  0  0  0  0  0  0  0  0  0
   20.7466  -23.8441  -14.6317 N   0  0  0  0  0  0  0  0  0  0  0  0
   21.6484  -22.7098  -14.4177 C   0  0  0  0  0  0  0  0  0  0  0  0
   19.3420  -23.4492  -14.4269 O   0  0  0  0  0  0  0  0  0  0  0  0
   18.4137  -24.2317  -14.7357 O   0  0  0  0  0  0  0  0  0  0  0  0
  2  1  1  1
  3  2  1  0
  4  3  1  0
  4  5  1  0
  6  5  1  0
  7  6  1  0
  8  2  1  0
  8  9  2  0
 10 11  1  0
 11 12  2  0
 11 13  1  0
 13 14  1  0
 14 15  1  0
 15 16  1  0
 17 16  1  6
 17 18  1  0
 18  8  1  0
 19 17  1  0
 20 19  2  0
 22 21  1  1
 22 23  1  0
 22 24  1  0
 24 26  1  0
 24 25  1  6
 25 19  1  0
 26 28  1  0
 27 26  2  0
M  END
$$$$
