KRT.pdb
     RDKit          3D

 28 27  0  0  1  0  0  0  0  0999 V2000
   27.2914  -25.0837  -16.6374 N   0  0  0  0  0  0  0  0  0  0  0  0
   26.8772  -23.7401  -16.8476 C   0  0  1  0  0  0  0  0  0  0  0  0
   26.3867  -23.3759  -18.1943 C   0  0  0  0  0  0  0  0  0  0  0  0
   27.3736  -22.5927  -18.9906 C   0  0  0  0  0  0  0  0  0  0  0  0
   28.5381  -23.3688  -19.4929 C   0  0  0  0  0  0  0  0  0  0  0  0
   29.5070  -22.4800  -20.2729 C   0  0  0  0  0  0  0  0  0  0  0  0
   30.7023  -23.1715  -20.6511 N   0  0  0  0  0  0  0  0  0  0  0  0
   25.8161  -23.4318  -15.8176 C   0  0  0  0  0  0  0  0  0  0  0  0
   24.9578  -24.2911  -15.4939 O   0  0  0  0  0  0  0  0  0  0  0  0
   23.8545  -20.2507   -9.3111 N   0  0  0  0  0  0  0  0  0  0  0  0
   25.1815  -20.4792   -8.8099 C   0  0  0  0  0  0  0  0  0  0  0  0
   25.3857  -20.7335   -7.5558 N   0  0  0  0  0  0  0  0  0  0  0  0
   26.3135  -20.4369   -9.6566 N   0  0  0  0  0  0  0  0  0  0  0  0
   26.1378  -20.1403  -11.0655 C   0  0  0  0  0  0  0  0  0  0  0  0
   25.4494  -21.3244  -11.7721 C   0  0  0  0  0  0  0  0  0  0  0  0
   25.3895  -20.9538  -13.2050 C   0  0  0  0  0  0  0  0  0  0  0  0
   24.7307  -21.9183  -14.1376 C   0  0  2  0  0  0  0  0  0  0  0  0
   25.7516  -22.1707  -15.1839 N   0  0  0  0  0  0  0  0  0  0  0  0
   23.5353  -21.3780  -14.8240 C   0  0  0  0  0  0  0  0  0  0  0  0
   23.6382  -20.5124  -15.7558 O   0  0  0  0  0  0  0  0  0  0  0  0
   26.3566  -20.9526   -7.2051 C   0  0  0  0  0  0  0  0  0  0  0  0
   18.7866  -21.7338  -15.8689 C   0  0  2  0  0  0  0  0  0  0  0  0
   20.0801  -22.3160  -15.3932 O   0  0  0  0  0  0  0  0  0  0  0  0
   20.6425  -23.1017  -16.4185 C   0  0  1  0  0  0  0  0  0  0  0  0
   21.0619  -21.1716  -15.1334 N   0  0  0  0  0  0  0  0  0  0  0  0
   22.2332  -21.7812  -14.4992 C   0  0  0  0  0  0  0  0  0  0  0  0
   20.4643  -20.1437  -14.2634 O   0  0  0  0  0  0  0  0  0  0  0  0
   20.5191  -20.2602  -13.0173 O   0  0  0  0  0  0  0  0  0  0  0  0
  2  1  1  6
  3  2  1  0
  4  3  1  0
  4  5  1  0
  6  5  1  0
  7  6  1  0
  8  2  1  0
  8  9  2  0
 10 11  1  0
 11 12  2  0
 11 13  1  0
 13 14  1  0
 14 15  1  0
 15 16  1  0
 17 16  1  1
 17 18  1  0
 18  8  1  0
 19 17  1  0
 20 19  2  0
 22 21  1  1
 22 23  1  0
 22 24  1  0
 24 26  1  0
 24 25  1  1
 25 19  1  0
 26 28  1  0
 27 26  2  0
M  END
$$$$
