CHY.pdb
     RDKit          3D

 29 30  0  0  1  0  0  0  0  0999 V2000
    7.7419  -13.0692   18.6239 N   0  0  0  0  0  0  0  0  0  0  0  0
    8.7387  -13.9552   19.1750 C   0  0  1  0  0  0  0  0  0  0  0  0
    9.9035  -13.2053   19.7765 C   0  0  0  0  0  0  0  0  0  0  0  0
   11.0251  -12.6743   18.4564 S   0  0  0  0  0  0  0  0  0  0  0  0
    8.1035  -14.7454   20.2602 C   0  0  0  0  0  0  0  0  0  0  0  0
    7.1875  -14.2636   20.9544 O   0  0  0  0  0  0  0  0  0  0  0  0
    8.5198  -16.0774   20.5423 N   0  0  0  0  0  0  0  0  0  0  0  0
    7.8431  -16.8468   21.5558 C   0  0  1  0  0  0  0  0  0  0  0  0
    7.8377  -18.3381   21.1948 C   0  0  0  0  0  0  0  0  0  0  0  0
    7.1145  -19.1352   22.2086 C   0  0  0  0  0  0  0  0  0  0  0  0
    5.8807  -18.8011   22.7123 C   0  0  0  0  0  0  0  0  0  0  0  0
    5.5780  -19.7775   23.6019 N   0  0  0  0  0  0  0  0  0  0  0  0
    6.5932  -20.6660   23.6316 C   0  0  0  0  0  0  0  0  0  0  0  0
    7.5370  -20.2641   22.7704 N   0  0  0  0  0  0  0  0  0  0  0  0
    8.6055  -16.7522   22.8197 C   0  0  0  0  0  0  0  0  0  0  0  0
    9.6892  -16.1134   22.8120 O   0  0  0  0  0  0  0  0  0  0  0  0
   10.7107  -14.1264   30.4242 O   0  0  0  0  0  0  0  0  0  0  0  0
   10.1867  -14.4501   29.1705 C   0  0  0  0  0  0  0  0  0  0  0  0
    9.9938  -15.8055   28.9153 C   0  0  0  0  0  0  0  0  0  0  0  0
    9.4719  -16.1735   27.6744 C   0  0  0  0  0  0  0  0  0  0  0  0
    9.1591  -15.2226   26.7352 C   0  0  0  0  0  0  0  0  0  0  0  0
    8.6095  -15.6157   25.4299 C   0  0  0  0  0  0  0  0  0  0  0  0
    8.7098  -17.0913   25.2488 C   0  0  2  0  0  0  0  0  0  0  0  0
    8.0682  -17.3881   23.9652 N   0  0  0  0  0  0  0  0  0  0  0  0
    8.1577  -17.9160   26.3223 C   0  0  0  0  0  0  0  0  0  0  0  0
    7.0278  -18.6903   26.1328 O   0  0  0  0  0  0  0  0  0  0  0  0
    9.3660  -13.8725   27.0261 C   0  0  0  0  0  0  0  0  0  0  0  0
    9.8797  -13.4852   28.2434 C   0  0  0  0  0  0  0  0  0  0  0  0
    8.7017  -17.9384   27.4453 O   0  0  0  0  0  0  0  0  0  0  0  0
  2  1  1  1
  2  3  1  0
  3  4  1  0
  5  2  1  0
  6  5  2  0
  7  5  1  0
  8 15  1  0
  8  7  1  0
  9 10  1  0
  8  9  1  6
 10 11  2  0
 12 11  1  0
 13 12  1  0
 14 13  2  0
 14 10  1  0
 15 16  2  0
 18 28  2  0
 18 17  1  0
 19 18  1  0
 20 21  1  0
 20 19  2  0
 21 27  2  0
 22 21  1  0
 23 22  1  1
 24 23  1  0
 24 15  1  0
 25 26  1  0
 25 23  1  0
 27 28  1  0
 29 25  2  0
M  END
$$$$
