CHY.pdb
     RDKit          3D

 29 30  0  0  1  0  0  0  0  0999 V2000
    7.6416  -14.9441   19.3822 N   0  0  0  0  0  0  0  0  0  0  0  0
    8.5004  -14.4509   20.4317 C   0  0  1  0  0  0  0  0  0  0  0  0
    7.8948  -13.2777   21.1651 C   0  0  0  0  0  0  0  0  0  0  0  0
    7.9590  -11.8077   20.1080 S   0  0  0  0  0  0  0  0  0  0  0  0
    8.6983  -15.5442   21.4172 C   0  0  0  0  0  0  0  0  0  0  0  0
    7.7722  -16.3277   21.7025 O   0  0  0  0  0  0  0  0  0  0  0  0
    9.9510  -15.7324   22.0672 N   0  0  0  0  0  0  0  0  0  0  0  0
   10.1281  -16.8222   22.9934 C   0  0  1  0  0  0  0  0  0  0  0  0
   11.4476  -17.5573   22.7238 C   0  0  0  0  0  0  0  0  0  0  0  0
   11.3449  -18.4298   21.5345 C   0  0  0  0  0  0  0  0  0  0  0  0
   10.1929  -19.0713   21.1487 C   0  0  0  0  0  0  0  0  0  0  0  0
   10.5206  -19.7579   20.0274 N   0  0  0  0  0  0  0  0  0  0  0  0
   11.8225  -19.5370   19.7495 C   0  0  0  0  0  0  0  0  0  0  0  0
   12.3246  -18.7176   20.6824 N   0  0  0  0  0  0  0  0  0  0  0  0
   10.2571  -16.2740   24.3612 C   0  0  0  0  0  0  0  0  0  0  0  0
   11.0787  -15.3403   24.5506 O   0  0  0  0  0  0  0  0  0  0  0  0
    6.0921  -11.3001   25.2312 O   0  0  0  0  0  0  0  0  0  0  0  0
    6.5889  -12.5122   25.7159 C   0  0  0  0  0  0  0  0  0  0  0  0
    7.7666  -12.4430   26.4558 C   0  0  0  0  0  0  0  0  0  0  0  0
    8.2981  -13.6312   26.9592 C   0  0  0  0  0  0  0  0  0  0  0  0
    7.6739  -14.8317   26.7289 C   0  0  0  0  0  0  0  0  0  0  0  0
    8.2377  -16.0802   27.2616 C   0  0  0  0  0  0  0  0  0  0  0  0
    9.6130  -16.2956   26.7299 C   0  0  2  0  0  0  0  0  0  0  0  0
    9.4462  -16.8348   25.3775 N   0  0  0  0  0  0  0  0  0  0  0  0
   10.4947  -17.1402   27.5338 C   0  0  0  0  0  0  0  0  0  0  0  0
   10.9769  -16.7228   28.7607 O   0  0  0  0  0  0  0  0  0  0  0  0
    6.4940  -14.8629   25.9823 C   0  0  0  0  0  0  0  0  0  0  0  0
    5.9508  -13.7037   25.4754 C   0  0  0  0  0  0  0  0  0  0  0  0
   10.8343  -18.2691   27.1242 O   0  0  0  0  0  0  0  0  0  0  0  0
  2  1  1  6
  2  3  1  0
  3  4  1  0
  5  2  1  0
  6  5  2  0
  7  5  1  0
  8 15  1  0
  8  7  1  0
  9 10  1  0
  8  9  1  6
 10 11  2  0
 12 11  1  0
 13 12  1  0
 14 13  2  0
 14 10  1  0
 15 16  2  0
 18 28  2  0
 18 17  1  0
 19 18  1  0
 20 21  1  0
 20 19  2  0
 21 27  2  0
 22 21  1  0
 23 22  1  1
 24 23  1  0
 24 15  1  0
 25 26  1  0
 25 23  1  0
 27 28  1  0
 29 25  2  0
M  END
$$$$
