CHY.pdb
     RDKit          3D

 29 30  0  0  1  0  0  0  0  0999 V2000
    7.3356  -20.1661   17.4033 N   0  0  0  0  0  0  0  0  0  0  0  0
    7.3708  -19.1483   18.4257 C   0  0  1  0  0  0  0  0  0  0  0  0
    6.6097  -19.5537   19.6656 C   0  0  0  0  0  0  0  0  0  0  0  0
    6.3775  -18.1064   20.7306 S   0  0  0  0  0  0  0  0  0  0  0  0
    8.7878  -18.9365   18.8166 C   0  0  0  0  0  0  0  0  0  0  0  0
    9.6764  -19.7399   18.4728 O   0  0  0  0  0  0  0  0  0  0  0  0
    9.1768  -17.8101   19.5958 N   0  0  0  0  0  0  0  0  0  0  0  0
   10.5438  -17.3544   19.5752 C   0  0  1  0  0  0  0  0  0  0  0  0
   10.7784  -16.3880   18.4067 C   0  0  0  0  0  0  0  0  0  0  0  0
   10.9760  -17.1174   17.1358 C   0  0  0  0  0  0  0  0  0  0  0  0
   11.8292  -18.1838   16.9860 C   0  0  0  0  0  0  0  0  0  0  0  0
   11.7162  -18.5566   15.6881 N   0  0  0  0  0  0  0  0  0  0  0  0
   10.8272  -17.7435   15.0801 C   0  0  0  0  0  0  0  0  0  0  0  0
   10.3749  -16.8588   15.9781 N   0  0  0  0  0  0  0  0  0  0  0  0
   10.8047  -16.5627   20.7971 C   0  0  0  0  0  0  0  0  0  0  0  0
   11.9761  -16.1501   20.9973 O   0  0  0  0  0  0  0  0  0  0  0  0
    7.7925  -11.9818   17.9388 O   0  0  0  0  0  0  0  0  0  0  0  0
    7.9810  -12.6293   19.1621 C   0  0  0  0  0  0  0  0  0  0  0  0
    9.2567  -12.5432   19.7140 C   0  0  0  0  0  0  0  0  0  0  0  0
    9.4889  -13.1761   20.9359 C   0  0  0  0  0  0  0  0  0  0  0  0
    8.4849  -13.8628   21.5720 C   0  0  0  0  0  0  0  0  0  0  0  0
    8.7348  -14.5273   22.8590 C   0  0  0  0  0  0  0  0  0  0  0  0
    9.9532  -15.3809   22.7731 C   0  0  2  0  0  0  0  0  0  0  0  0
    9.7173  -16.3164   21.6700 N   0  0  0  0  0  0  0  0  0  0  0  0
   10.3393  -16.0857   23.9943 C   0  0  0  0  0  0  0  0  0  0  0  0
   10.7030  -15.4030   25.1405 O   0  0  0  0  0  0  0  0  0  0  0  0
    7.2177  -13.9279   20.9886 C   0  0  0  0  0  0  0  0  0  0  0  0
    6.9648  -13.3116   19.7838 C   0  0  0  0  0  0  0  0  0  0  0  0
   10.3484  -17.3332   24.0278 O   0  0  0  0  0  0  0  0  0  0  0  0
  2  1  1  6
  2  3  1  0
  3  4  1  0
  5  2  1  0
  6  5  2  0
  7  5  1  0
  8 15  1  0
  8  7  1  0
  9 10  1  0
  8  9  1  6
 10 11  2  0
 12 11  1  0
 13 12  1  0
 14 13  2  0
 14 10  1  0
 15 16  2  0
 18 28  2  0
 18 17  1  0
 19 18  1  0
 20 21  1  0
 20 19  2  0
 21 27  2  0
 22 21  1  0
 23 22  1  1
 24 23  1  0
 24 15  1  0
 25 26  1  0
 25 23  1  0
 27 28  1  0
 29 25  2  0
M  END
$$$$
