CHY.pdb
     RDKit          3D

 29 30  0  0  1  0  0  0  0  0999 V2000
    7.8645  -15.2070   16.2755 N   0  0  0  0  0  0  0  0  0  0  0  0
    8.5536  -14.5931   17.3849 C   0  0  1  0  0  0  0  0  0  0  0  0
    7.8915  -13.3120   17.8338 C   0  0  0  0  0  0  0  0  0  0  0  0
    8.7531  -12.6667   19.2911 S   0  0  0  0  0  0  0  0  0  0  0  0
    8.5221  -15.5405   18.5281 C   0  0  0  0  0  0  0  0  0  0  0  0
    7.4499  -16.0424   18.9176 O   0  0  0  0  0  0  0  0  0  0  0  0
    9.7143  -15.9058   19.2154 N   0  0  0  0  0  0  0  0  0  0  0  0
    9.6505  -16.7823   20.3576 C   0  0  1  0  0  0  0  0  0  0  0  0
   10.9134  -17.6485   20.4509 C   0  0  0  0  0  0  0  0  0  0  0  0
   10.8228  -18.8301   19.5667 C   0  0  0  0  0  0  0  0  0  0  0  0
    9.6438  -19.4502   19.2306 C   0  0  0  0  0  0  0  0  0  0  0  0
    9.9945  -20.4745   18.4156 N   0  0  0  0  0  0  0  0  0  0  0  0
   11.3358  -20.4700   18.2675 C   0  0  0  0  0  0  0  0  0  0  0  0
   11.8401  -19.4538   18.9797 N   0  0  0  0  0  0  0  0  0  0  0  0
    9.6437  -15.9650   21.5904 C   0  0  0  0  0  0  0  0  0  0  0  0
   10.4837  -15.0336   21.6889 O   0  0  0  0  0  0  0  0  0  0  0  0
    6.4866  -11.3622   28.0950 O   0  0  0  0  0  0  0  0  0  0  0  0
    6.6576  -12.2339   27.0170 C   0  0  0  0  0  0  0  0  0  0  0  0
    7.3595  -11.7313   25.9242 C   0  0  0  0  0  0  0  0  0  0  0  0
    7.5533  -12.5691   24.8251 C   0  0  0  0  0  0  0  0  0  0  0  0
    7.0640  -13.8515   24.8258 C   0  0  0  0  0  0  0  0  0  0  0  0
    7.2712  -14.7298   23.6655 C   0  0  0  0  0  0  0  0  0  0  0  0
    8.6114  -15.3769   23.7387 C   0  0  2  0  0  0  0  0  0  0  0  0
    8.6897  -16.2810   22.5880 N   0  0  0  0  0  0  0  0  0  0  0  0
    8.9289  -16.0732   24.9843 C   0  0  0  0  0  0  0  0  0  0  0  0
    9.6016  -15.4432   26.0152 O   0  0  0  0  0  0  0  0  0  0  0  0
    6.3647  -14.3216   25.9395 C   0  0  0  0  0  0  0  0  0  0  0  0
    6.1610  -13.5136   27.0355 C   0  0  0  0  0  0  0  0  0  0  0  0
    8.5947  -17.2649   25.1448 O   0  0  0  0  0  0  0  0  0  0  0  0
  2  1  1  6
  2  3  1  0
  3  4  1  0
  5  2  1  0
  6  5  2  0
  7  5  1  0
  8 15  1  0
  8  7  1  0
  9 10  1  0
  8  9  1  1
 10 11  2  0
 12 11  1  0
 13 12  1  0
 14 13  2  0
 14 10  1  0
 15 16  2  0
 18 28  2  0
 18 17  1  0
 19 18  1  0
 20 21  1  0
 20 19  2  0
 21 27  2  0
 22 21  1  0
 23 22  1  1
 24 23  1  0
 24 15  1  0
 25 26  1  0
 25 23  1  0
 27 28  1  0
 29 25  2  0
M  END
$$$$
