CHY.pdb
     RDKit          3D

 29 30  0  0  1  0  0  0  0  0999 V2000
   12.6410  -14.4954   17.6134 N   0  0  0  0  0  0  0  0  0  0  0  0
   13.1896  -15.0574   18.8240 C   0  0  1  0  0  0  0  0  0  0  0  0
   13.9916  -14.0495   19.6126 C   0  0  0  0  0  0  0  0  0  0  0  0
   15.5869  -13.7781   18.7977 S   0  0  0  0  0  0  0  0  0  0  0  0
   12.0596  -15.5016   19.6792 C   0  0  0  0  0  0  0  0  0  0  0  0
   11.0030  -14.8436   19.7409 O   0  0  0  0  0  0  0  0  0  0  0  0
   12.1465  -16.6920   20.4553 N   0  0  0  0  0  0  0  0  0  0  0  0
   11.0694  -17.0583   21.3399 C   0  0  1  0  0  0  0  0  0  0  0  0
   10.8816  -18.5809   21.3684 C   0  0  0  0  0  0  0  0  0  0  0  0
    9.8881  -19.0200   20.3652 C   0  0  0  0  0  0  0  0  0  0  0  0
    9.2165  -18.1667   19.5236 C   0  0  0  0  0  0  0  0  0  0  0  0
    8.4123  -18.9585   18.7736 N   0  0  0  0  0  0  0  0  0  0  0  0
    8.5942  -20.2413   19.1510 C   0  0  0  0  0  0  0  0  0  0  0  0
    9.5051  -20.2721   20.1324 N   0  0  0  0  0  0  0  0  0  0  0  0
   11.4348  -16.6825   22.7230 C   0  0  0  0  0  0  0  0  0  0  0  0
   12.6554  -16.6498   23.0257 O   0  0  0  0  0  0  0  0  0  0  0  0
   10.4262  -14.8180   31.1625 O   0  0  0  0  0  0  0  0  0  0  0  0
   10.1991  -15.0449   29.8030 C   0  0  0  0  0  0  0  0  0  0  0  0
   10.2308  -13.9233   28.9781 C   0  0  0  0  0  0  0  0  0  0  0  0
   10.0089  -14.1048   27.6123 C   0  0  0  0  0  0  0  0  0  0  0  0
    9.7665  -15.3555   27.1013 C   0  0  0  0  0  0  0  0  0  0  0  0
    9.5337  -15.5411   25.6619 C   0  0  0  0  0  0  0  0  0  0  0  0
   10.7713  -16.0375   24.9968 C   0  0  2  0  0  0  0  0  0  0  0  0
   10.3859  -16.3815   23.6255 N   0  0  0  0  0  0  0  0  0  0  0  0
   11.4580  -17.1499   25.6510 C   0  0  0  0  0  0  0  0  0  0  0  0
   11.0055  -18.4511   25.5321 O   0  0  0  0  0  0  0  0  0  0  0  0
    9.7421  -16.4575   27.9588 C   0  0  0  0  0  0  0  0  0  0  0  0
    9.9583  -16.3032   29.3098 C   0  0  0  0  0  0  0  0  0  0  0  0
   12.4795  -16.9454   26.3383 O   0  0  0  0  0  0  0  0  0  0  0  0
  2  1  1  6
  2  3  1  0
  3  4  1  0
  5  2  1  0
  6  5  2  0
  7  5  1  0
  8 15  1  0
  8  7  1  0
  9 10  1  0
  8  9  1  1
 10 11  2  0
 12 11  1  0
 13 12  1  0
 14 13  2  0
 14 10  1  0
 15 16  2  0
 18 28  2  0
 18 17  1  0
 19 18  1  0
 20 21  1  0
 20 19  2  0
 21 27  2  0
 22 21  1  0
 23 22  1  1
 24 23  1  0
 24 15  1  0
 25 26  1  0
 25 23  1  0
 27 28  1  0
 29 25  2  0
M  END
$$$$
