CHY.pdb
     RDKit          3D

 29 30  0  0  1  0  0  0  0  0999 V2000
    7.5301  -14.6242   18.4707 N   0  0  0  0  0  0  0  0  0  0  0  0
    8.3748  -14.1760   19.5514 C   0  0  1  0  0  0  0  0  0  0  0  0
    8.0297  -12.7784   20.0080 C   0  0  0  0  0  0  0  0  0  0  0  0
    8.8841  -11.5733   18.9591 S   0  0  0  0  0  0  0  0  0  0  0  0
    8.1713  -15.0894   20.7047 C   0  0  0  0  0  0  0  0  0  0  0  0
    7.0259  -15.4159   21.0716 O   0  0  0  0  0  0  0  0  0  0  0  0
    9.2767  -15.6210   21.4276 N   0  0  0  0  0  0  0  0  0  0  0  0
    9.0734  -16.6815   22.3820 C   0  0  1  0  0  0  0  0  0  0  0  0
    9.8794  -17.9274   21.9921 C   0  0  0  0  0  0  0  0  0  0  0  0
    9.2776  -18.6167   20.8306 C   0  0  0  0  0  0  0  0  0  0  0  0
    8.1018  -19.3255   20.8818 C   0  0  0  0  0  0  0  0  0  0  0  0
    7.9064  -19.7913   19.6243 N   0  0  0  0  0  0  0  0  0  0  0  0
    8.9280  -19.3773   18.8458 C   0  0  0  0  0  0  0  0  0  0  0  0
    9.7695  -18.6538   19.5956 N   0  0  0  0  0  0  0  0  0  0  0  0
    9.6143  -16.2588   23.6922 C   0  0  0  0  0  0  0  0  0  0  0  0
   10.7260  -15.6702   23.7126 O   0  0  0  0  0  0  0  0  0  0  0  0
    5.9119  -11.0327   25.9973 O   0  0  0  0  0  0  0  0  0  0  0  0
    6.5501  -12.2408   26.2875 C   0  0  0  0  0  0  0  0  0  0  0  0
    5.8788  -13.3992   25.9040 C   0  0  0  0  0  0  0  0  0  0  0  0
    6.4810  -14.6287   26.1748 C   0  0  0  0  0  0  0  0  0  0  0  0
    7.7005  -14.6894   26.8018 C   0  0  0  0  0  0  0  0  0  0  0  0
    8.3304  -15.9870   27.0844 C   0  0  0  0  0  0  0  0  0  0  0  0
    9.4585  -16.2313   26.1420 C   0  0  2  0  0  0  0  0  0  0  0  0
    8.8464  -16.5431   24.8475 N   0  0  0  0  0  0  0  0  0  0  0  0
   10.4221  -17.2578   26.5353 C   0  0  0  0  0  0  0  0  0  0  0  0
   11.3198  -17.0515   27.5667 O   0  0  0  0  0  0  0  0  0  0  0  0
    8.3446  -13.5068   27.1720 C   0  0  0  0  0  0  0  0  0  0  0  0
    7.7702  -12.2821   26.9153 C   0  0  0  0  0  0  0  0  0  0  0  0
   10.4545  -18.3548   25.9412 O   0  0  0  0  0  0  0  0  0  0  0  0
  2  1  1  6
  2  3  1  0
  3  4  1  0
  5  2  1  0
  6  5  2  0
  7  5  1  0
  8 15  1  0
  8  7  1  0
  9 10  1  0
  8  9  1  6
 10 11  2  0
 12 11  1  0
 13 12  1  0
 14 13  2  0
 14 10  1  0
 15 16  2  0
 18 28  2  0
 18 17  1  0
 19 18  1  0
 20 21  1  0
 20 19  2  0
 21 27  2  0
 22 21  1  0
 23 22  1  1
 24 23  1  0
 24 15  1  0
 25 26  1  0
 25 23  1  0
 27 28  1  0
 29 25  2  0
M  END
$$$$
