CHY.pdb
     RDKit          3D

 29 30  0  0  1  0  0  0  0  0999 V2000
    8.2217  -14.2970   16.6870 N   0  0  0  0  0  0  0  0  0  0  0  0
    8.7428  -14.0913   18.0169 C   0  0  1  0  0  0  0  0  0  0  0  0
    8.3715  -12.7384   18.5760 C   0  0  0  0  0  0  0  0  0  0  0  0
    8.9765  -12.6029   20.2784 S   0  0  0  0  0  0  0  0  0  0  0  0
    8.1537  -15.1235   18.9075 C   0  0  0  0  0  0  0  0  0  0  0  0
    6.9197  -15.2164   19.0553 O   0  0  0  0  0  0  0  0  0  0  0  0
    8.9785  -16.0393   19.6204 N   0  0  0  0  0  0  0  0  0  0  0  0
    8.3958  -16.9343   20.5881 C   0  0  1  0  0  0  0  0  0  0  0  0
    9.0994  -18.2976   20.5622 C   0  0  0  0  0  0  0  0  0  0  0  0
    8.5897  -19.1461   19.4638 C   0  0  0  0  0  0  0  0  0  0  0  0
    7.5918  -18.7669   18.5989 C   0  0  0  0  0  0  0  0  0  0  0  0
    7.4272  -19.8152   17.7563 N   0  0  0  0  0  0  0  0  0  0  0  0
    8.2948  -20.7892   18.1024 C   0  0  0  0  0  0  0  0  0  0  0  0
    9.0083  -20.3701   19.1556 N   0  0  0  0  0  0  0  0  0  0  0  0
    8.6341  -16.3959   21.9450 C   0  0  0  0  0  0  0  0  0  0  0  0
    9.7379  -15.8385   22.1762 O   0  0  0  0  0  0  0  0  0  0  0  0
    7.5365  -12.1818   29.2523 O   0  0  0  0  0  0  0  0  0  0  0  0
    7.4262  -12.7658   27.9882 C   0  0  0  0  0  0  0  0  0  0  0  0
    8.5913  -13.3175   27.4612 C   0  0  0  0  0  0  0  0  0  0  0  0
    8.5259  -13.9114   26.2000 C   0  0  0  0  0  0  0  0  0  0  0  0
    7.3442  -13.9484   25.5026 C   0  0  0  0  0  0  0  0  0  0  0  0
    7.2809  -14.5755   24.1747 C   0  0  0  0  0  0  0  0  0  0  0  0
    7.8417  -15.9550   24.2262 C   0  0  2  0  0  0  0  0  0  0  0  0
    7.6027  -16.5407   22.9044 N   0  0  0  0  0  0  0  0  0  0  0  0
    7.3376  -16.8213   25.2905 C   0  0  0  0  0  0  0  0  0  0  0  0
    6.0860  -17.4047   25.2178 O   0  0  0  0  0  0  0  0  0  0  0  0
    6.1956  -13.3849   26.0626 C   0  0  0  0  0  0  0  0  0  0  0  0
    6.2356  -12.7934   27.3053 C   0  0  0  0  0  0  0  0  0  0  0  0
    8.0352  -17.0550   26.2986 O   0  0  0  0  0  0  0  0  0  0  0  0
  2  1  1  6
  2  3  1  0
  3  4  1  0
  5  2  1  0
  6  5  2  0
  7  5  1  0
  8 15  1  0
  8  7  1  0
  9 10  1  0
  8  9  1  1
 10 11  2  0
 12 11  1  0
 13 12  1  0
 14 13  2  0
 14 10  1  0
 15 16  2  0
 18 28  2  0
 18 17  1  0
 19 18  1  0
 20 21  1  0
 20 19  2  0
 21 27  2  0
 22 21  1  0
 23 22  1  6
 24 23  1  0
 24 15  1  0
 25 26  1  0
 25 23  1  0
 27 28  1  0
 29 25  2  0
M  END
$$$$
