CHY.pdb
     RDKit          3D

 29 30  0  0  1  0  0  0  0  0999 V2000
    9.1060  -17.4299   14.9673 N   0  0  0  0  0  0  0  0  0  0  0  0
   10.1619  -16.9690   15.8361 C   0  0  1  0  0  0  0  0  0  0  0  0
   10.3594  -15.4738   15.7562 C   0  0  0  0  0  0  0  0  0  0  0  0
    8.7602  -14.6435   15.9461 S   0  0  0  0  0  0  0  0  0  0  0  0
    9.7854  -17.2991   17.2343 C   0  0  0  0  0  0  0  0  0  0  0  0
    8.5916  -17.4442   17.5612 O   0  0  0  0  0  0  0  0  0  0  0  0
   10.7748  -17.4605   18.2453 N   0  0  0  0  0  0  0  0  0  0  0  0
   10.3997  -17.9297   19.5553 C   0  0  1  0  0  0  0  0  0  0  0  0
   11.2516  -19.1381   19.9657 C   0  0  0  0  0  0  0  0  0  0  0  0
   10.7926  -19.7095   21.2499 C   0  0  0  0  0  0  0  0  0  0  0  0
   11.5671  -19.7749   22.3828 C   0  0  0  0  0  0  0  0  0  0  0  0
   10.7840  -20.3592   23.3218 N   0  0  0  0  0  0  0  0  0  0  0  0
    9.5824  -20.6349   22.7729 C   0  0  0  0  0  0  0  0  0  0  0  0
    9.5946  -20.2318   21.4956 N   0  0  0  0  0  0  0  0  0  0  0  0
   10.7072  -16.8777   20.5486 C   0  0  0  0  0  0  0  0  0  0  0  0
   11.8088  -16.2774   20.4547 O   0  0  0  0  0  0  0  0  0  0  0  0
    7.7282  -12.6532   17.4312 O   0  0  0  0  0  0  0  0  0  0  0  0
    8.0518  -13.1259   18.7052 C   0  0  0  0  0  0  0  0  0  0  0  0
    7.1461  -14.0136   19.2808 C   0  0  0  0  0  0  0  0  0  0  0  0
    7.4306  -14.5107   20.5533 C   0  0  0  0  0  0  0  0  0  0  0  0
    8.5722  -14.1325   21.2150 C   0  0  0  0  0  0  0  0  0  0  0  0
    8.8671  -14.6593   22.5552 C   0  0  0  0  0  0  0  0  0  0  0  0
   10.0601  -15.5509   22.5100 C   0  0  2  0  0  0  0  0  0  0  0  0
    9.7407  -16.6092   21.5480 N   0  0  0  0  0  0  0  0  0  0  0  0
   10.5020  -16.1090   23.7869 C   0  0  0  0  0  0  0  0  0  0  0  0
   10.5048  -17.4720   24.0196 O   0  0  0  0  0  0  0  0  0  0  0  0
    9.4577  -13.2402   20.6067 C   0  0  0  0  0  0  0  0  0  0  0  0
    9.1984  -12.7364   19.3519 C   0  0  0  0  0  0  0  0  0  0  0  0
   10.8908  -15.3573   24.7042 O   0  0  0  0  0  0  0  0  0  0  0  0
  2  1  1  6
  2  3  1  0
  3  4  1  0
  5  2  1  0
  6  5  2  0
  7  5  1  0
  8 15  1  0
  8  7  1  0
  9 10  1  0
  8  9  1  1
 10 11  2  0
 12 11  1  0
 13 12  1  0
 14 13  2  0
 14 10  1  0
 15 16  2  0
 18 28  2  0
 18 17  1  0
 19 18  1  0
 20 21  1  0
 20 19  2  0
 21 27  2  0
 22 21  1  0
 23 22  1  1
 24 23  1  0
 24 15  1  0
 25 26  1  0
 25 23  1  0
 27 28  1  0
 29 25  2  0
M  END
$$$$
