CHY.pdb
     RDKit          3D

 29 30  0  0  1  0  0  0  0  0999 V2000
   11.8603  -19.6962   16.5130 N   0  0  0  0  0  0  0  0  0  0  0  0
   12.0962  -18.7510   17.5776 C   0  0  1  0  0  0  0  0  0  0  0  0
   11.1799  -18.9745   18.7571 C   0  0  0  0  0  0  0  0  0  0  0  0
   11.5054  -17.7170   20.0202 S   0  0  0  0  0  0  0  0  0  0  0  0
   13.4921  -18.9299   18.0518 C   0  0  0  0  0  0  0  0  0  0  0  0
   13.8891  -20.0307   18.4807 O   0  0  0  0  0  0  0  0  0  0  0  0
   14.4211  -17.8511   18.0319 N   0  0  0  0  0  0  0  0  0  0  0  0
   15.7599  -18.0410   18.5305 C   0  0  1  0  0  0  0  0  0  0  0  0
   16.7835  -17.3511   17.6192 C   0  0  0  0  0  0  0  0  0  0  0  0
   16.9983  -18.1176   16.3731 C   0  0  0  0  0  0  0  0  0  0  0  0
   16.7100  -19.4535   16.2329 C   0  0  0  0  0  0  0  0  0  0  0  0
   17.0483  -19.7636   14.9579 N   0  0  0  0  0  0  0  0  0  0  0  0
   17.5229  -18.6540   14.3539 C   0  0  0  0  0  0  0  0  0  0  0  0
   17.4892  -17.6431   15.2319 N   0  0  0  0  0  0  0  0  0  0  0  0
   15.8845  -17.3666   19.8410 C   0  0  0  0  0  0  0  0  0  0  0  0
   15.6906  -16.1246   19.8895 O   0  0  0  0  0  0  0  0  0  0  0  0
   10.0738  -17.6533   22.7520 O   0  0  0  0  0  0  0  0  0  0  0  0
   11.4580  -17.7738   22.8953 C   0  0  0  0  0  0  0  0  0  0  0  0
   12.0217  -18.9660   22.4478 C   0  0  0  0  0  0  0  0  0  0  0  0
   13.4022  -19.1283   22.5720 C   0  0  0  0  0  0  0  0  0  0  0  0
   14.1782  -18.1379   23.1205 C   0  0  0  0  0  0  0  0  0  0  0  0
   15.6319  -18.3139   23.2488 C   0  0  0  0  0  0  0  0  0  0  0  0
   16.3459  -17.4695   22.2500 C   0  0  2  0  0  0  0  0  0  0  0  0
   16.2156  -18.1618   20.9650 N   0  0  0  0  0  0  0  0  0  0  0  0
   17.7428  -17.1558   22.5455 C   0  0  0  0  0  0  0  0  0  0  0  0
   18.7696  -17.5737   21.7190 O   0  0  0  0  0  0  0  0  0  0  0  0
   13.5783  -16.9553   23.5586 C   0  0  0  0  0  0  0  0  0  0  0  0
   12.2183  -16.7723   23.4464 C   0  0  0  0  0  0  0  0  0  0  0  0
   18.0407  -16.4961   23.5621 O   0  0  0  0  0  0  0  0  0  0  0  0
  2  1  1  6
  2  3  1  0
  3  4  1  0
  5  2  1  0
  6  5  2  0
  7  5  1  0
  8 15  1  0
  8  7  1  0
  9 10  1  0
  8  9  1  6
 10 11  2  0
 12 11  1  0
 13 12  1  0
 14 13  2  0
 14 10  1  0
 15 16  2  0
 18 28  2  0
 18 17  1  0
 19 18  1  0
 20 21  1  0
 20 19  2  0
 21 27  2  0
 22 21  1  0
 23 22  1  1
 24 23  1  0
 24 15  1  0
 25 26  1  0
 25 23  1  0
 27 28  1  0
 29 25  2  0
M  END
$$$$
