CHY.pdb
     RDKit          3D

 29 30  0  0  1  0  0  0  0  0999 V2000
    5.7906  -19.1645   20.7596 N   0  0  0  0  0  0  0  0  0  0  0  0
    6.0418  -18.0685   21.6641 C   0  0  1  0  0  0  0  0  0  0  0  0
    6.0588  -18.5089   23.1087 C   0  0  0  0  0  0  0  0  0  0  0  0
    4.3583  -18.7508   23.6851 S   0  0  0  0  0  0  0  0  0  0  0  0
    7.3805  -17.5082   21.3487 C   0  0  0  0  0  0  0  0  0  0  0  0
    8.2961  -18.2352   20.9170 O   0  0  0  0  0  0  0  0  0  0  0  0
    7.6611  -16.1240   21.5289 N   0  0  0  0  0  0  0  0  0  0  0  0
    8.9782  -15.6110   21.2480 C   0  0  1  0  0  0  0  0  0  0  0  0
    8.8981  -14.1942   20.6647 C   0  0  0  0  0  0  0  0  0  0  0  0
    8.5910  -14.2235   19.2186 C   0  0  0  0  0  0  0  0  0  0  0  0
    8.4837  -15.3761   18.4786 C   0  0  0  0  0  0  0  0  0  0  0  0
    8.1971  -14.9701   17.2180 N   0  0  0  0  0  0  0  0  0  0  0  0
    8.1345  -13.6222   17.2011 C   0  0  0  0  0  0  0  0  0  0  0  0
    8.3782  -13.1684   18.4375 N   0  0  0  0  0  0  0  0  0  0  0  0
    9.7201  -15.4699   22.5199 C   0  0  0  0  0  0  0  0  0  0  0  0
   10.8081  -14.8386   22.5047 O   0  0  0  0  0  0  0  0  0  0  0  0
    5.2152  -12.1192   26.9630 O   0  0  0  0  0  0  0  0  0  0  0  0
    6.3960  -12.6633   26.4523 C   0  0  0  0  0  0  0  0  0  0  0  0
    7.2499  -13.2589   27.3774 C   0  0  0  0  0  0  0  0  0  0  0  0
    8.4413  -13.8152   26.9099 C   0  0  0  0  0  0  0  0  0  0  0  0
    8.7582  -13.7741   25.5750 C   0  0  0  0  0  0  0  0  0  0  0  0
   10.0143  -14.3619   25.0879 C   0  0  0  0  0  0  0  0  0  0  0  0
    9.8730  -15.8381   24.9422 C   0  0  2  0  0  0  0  0  0  0  0  0
    9.1594  -16.0556   23.6808 N   0  0  0  0  0  0  0  0  0  0  0  0
    9.2240  -16.5403   26.0479 C   0  0  0  0  0  0  0  0  0  0  0  0
    8.0528  -17.2524   25.8660 O   0  0  0  0  0  0  0  0  0  0  0  0
    7.8776  -13.1684   24.6761 C   0  0  0  0  0  0  0  0  0  0  0  0
    6.6964  -12.6128   25.1137 C   0  0  0  0  0  0  0  0  0  0  0  0
    9.7201  -16.5112   27.1928 O   0  0  0  0  0  0  0  0  0  0  0  0
  2  1  1  6
  2  3  1  0
  3  4  1  0
  5  2  1  0
  6  5  2  0
  7  5  1  0
  8 15  1  0
  8  7  1  0
  9 10  1  0
  8  9  1  1
 10 11  2  0
 12 11  1  0
 13 12  1  0
 14 13  2  0
 14 10  1  0
 15 16  2  0
 18 28  2  0
 18 17  1  0
 19 18  1  0
 20 21  1  0
 20 19  2  0
 21 27  2  0
 22 21  1  0
 23 22  1  1
 24 23  1  0
 24 15  1  0
 25 26  1  0
 25 23  1  0
 27 28  1  0
 29 25  2  0
M  END
$$$$
