CHY.pdb
     RDKit          3D

 29 30  0  0  1  0  0  0  0  0999 V2000
    5.7980  -15.5804   20.6658 N   0  0  0  0  0  0  0  0  0  0  0  0
    7.1746  -15.2461   20.3908 C   0  0  1  0  0  0  0  0  0  0  0  0
    7.5101  -13.8269   20.7834 C   0  0  0  0  0  0  0  0  0  0  0  0
    7.1224  -13.5785   22.5357 S   0  0  0  0  0  0  0  0  0  0  0  0
    8.0375  -16.1508   21.1923 C   0  0  0  0  0  0  0  0  0  0  0  0
    7.6042  -16.7104   22.2181 O   0  0  0  0  0  0  0  0  0  0  0  0
    9.3862  -16.4079   20.8154 N   0  0  0  0  0  0  0  0  0  0  0  0
   10.1998  -17.2985   21.6040 C   0  0  1  0  0  0  0  0  0  0  0  0
   11.3261  -17.9028   20.7552 C   0  0  0  0  0  0  0  0  0  0  0  0
   10.7959  -18.8540   19.7551 C   0  0  0  0  0  0  0  0  0  0  0  0
    9.8509  -19.8124   20.0310 C   0  0  0  0  0  0  0  0  0  0  0  0
    9.6444  -20.4628   18.8603 N   0  0  0  0  0  0  0  0  0  0  0  0
   10.4367  -19.9150   17.9151 C   0  0  0  0  0  0  0  0  0  0  0  0
   11.1438  -18.9240   18.4735 N   0  0  0  0  0  0  0  0  0  0  0  0
   10.8804  -16.5184   22.6605 C   0  0  0  0  0  0  0  0  0  0  0  0
   10.7160  -15.2713   22.6757 O   0  0  0  0  0  0  0  0  0  0  0  0
   10.4861  -14.3038   30.6249 O   0  0  0  0  0  0  0  0  0  0  0  0
   10.4592  -14.7905   29.3159 C   0  0  0  0  0  0  0  0  0  0  0  0
   10.6793  -16.1571   29.1626 C   0  0  0  0  0  0  0  0  0  0  0  0
   10.6610  -16.6856   27.8712 C   0  0  0  0  0  0  0  0  0  0  0  0
   10.4322  -15.8772   26.7857 C   0  0  0  0  0  0  0  0  0  0  0  0
   10.4138  -16.4390   25.4276 C   0  0  0  0  0  0  0  0  0  0  0  0
   11.8044  -16.6404   24.9316 C   0  0  2  0  0  0  0  0  0  0  0  0
   11.6782  -17.2243   23.5934 N   0  0  0  0  0  0  0  0  0  0  0  0
   12.6866  -17.4403   25.7795 C   0  0  0  0  0  0  0  0  0  0  0  0
   12.4124  -18.7655   26.0635 O   0  0  0  0  0  0  0  0  0  0  0  0
   10.2155  -14.5110   26.9775 C   0  0  0  0  0  0  0  0  0  0  0  0
   10.2288  -13.9667   28.2421 C   0  0  0  0  0  0  0  0  0  0  0  0
   13.7179  -16.9372   26.2703 O   0  0  0  0  0  0  0  0  0  0  0  0
  2  1  1  1
  2  3  1  0
  3  4  1  0
  5  2  1  0
  6  5  2  0
  7  5  1  0
  8 15  1  0
  8  7  1  0
  9 10  1  0
  8  9  1  6
 10 11  2  0
 12 11  1  0
 13 12  1  0
 14 13  2  0
 14 10  1  0
 15 16  2  0
 18 28  2  0
 18 17  1  0
 19 18  1  0
 20 21  1  0
 20 19  2  0
 21 27  2  0
 22 21  1  0
 23 22  1  1
 24 23  1  0
 24 15  1  0
 25 26  1  0
 25 23  1  0
 27 28  1  0
 29 25  2  0
M  END
$$$$
