CHY.pdb
     RDKit          3D

 29 30  0  0  1  0  0  0  0  0999 V2000
    7.7106  -15.1070   17.2905 N   0  0  0  0  0  0  0  0  0  0  0  0
    8.3696  -14.4545   18.3961 C   0  0  1  0  0  0  0  0  0  0  0  0
    7.5713  -13.2909   18.9343 C   0  0  0  0  0  0  0  0  0  0  0  0
    8.7028  -11.9964   19.5056 S   0  0  0  0  0  0  0  0  0  0  0  0
    8.5180  -15.4444   19.4932 C   0  0  0  0  0  0  0  0  0  0  0  0
    7.5313  -16.0593   19.9419 O   0  0  0  0  0  0  0  0  0  0  0  0
    9.7909  -15.7225   20.0674 N   0  0  0  0  0  0  0  0  0  0  0  0
    9.9293  -16.7739   21.0434 C   0  0  1  0  0  0  0  0  0  0  0  0
   11.0196  -17.7680   20.6223 C   0  0  0  0  0  0  0  0  0  0  0  0
   10.4920  -18.7801   19.6824 C   0  0  0  0  0  0  0  0  0  0  0  0
   10.8210  -18.8371   18.3497 C   0  0  0  0  0  0  0  0  0  0  0  0
   10.1338  -19.8942   17.8534 N   0  0  0  0  0  0  0  0  0  0  0  0
    9.4177  -20.4523   18.8518 C   0  0  0  0  0  0  0  0  0  0  0  0
    9.6431  -19.7606   19.9764 N   0  0  0  0  0  0  0  0  0  0  0  0
   10.4030  -16.1883   22.3163 C   0  0  0  0  0  0  0  0  0  0  0  0
   11.3782  -15.3944   22.2771 O   0  0  0  0  0  0  0  0  0  0  0  0
   10.7159  -14.5030   30.8525 O   0  0  0  0  0  0  0  0  0  0  0  0
   10.3051  -14.7618   29.5428 C   0  0  0  0  0  0  0  0  0  0  0  0
   10.2016  -16.1034   29.1839 C   0  0  0  0  0  0  0  0  0  0  0  0
    9.7942  -16.4071   27.8841 C   0  0  0  0  0  0  0  0  0  0  0  0
    9.5048  -15.4081   26.9884 C   0  0  0  0  0  0  0  0  0  0  0  0
    9.0759  -15.7335   25.6207 C   0  0  0  0  0  0  0  0  0  0  0  0
   10.2590  -16.0195   24.7612 C   0  0  2  0  0  0  0  0  0  0  0  0
    9.7288  -16.5577   23.5055 N   0  0  0  0  0  0  0  0  0  0  0  0
   11.2764  -16.9018   25.3300 C   0  0  0  0  0  0  0  0  0  0  0  0
   12.3960  -16.3998   25.9676 O   0  0  0  0  0  0  0  0  0  0  0  0
    9.6197  -14.0736   27.3837 C   0  0  0  0  0  0  0  0  0  0  0  0
   10.0197  -13.7494   28.6606 C   0  0  0  0  0  0  0  0  0  0  0  0
   11.1535  -18.1412   25.2511 O   0  0  0  0  0  0  0  0  0  0  0  0
  2  1  1  6
  2  3  1  0
  3  4  1  0
  5  2  1  0
  6  5  2  0
  7  5  1  0
  8 15  1  0
  8  7  1  0
  9 10  1  0
  8  9  1  6
 10 11  2  0
 12 11  1  0
 13 12  1  0
 14 13  2  0
 14 10  1  0
 15 16  2  0
 18 28  2  0
 18 17  1  0
 19 18  1  0
 20 21  1  0
 20 19  2  0
 21 27  2  0
 22 21  1  0
 23 22  1  1
 24 23  1  0
 24 15  1  0
 25 26  1  0
 25 23  1  0
 27 28  1  0
 29 25  2  0
M  END
$$$$
