TRH.pdb
     RDKit          3D

 29 29  0  0  1  0  0  0  0  0999 V2000
    9.3676  -21.4006   16.0674 C   0  0  0  0  0  0  0  0  0  0  0  0
    9.9165  -20.5478   17.1806 C   0  0  1  0  0  0  0  0  0  0  0  0
   11.1405  -21.0259   17.6388 O   0  0  0  0  0  0  0  0  0  0  0  0
   10.0478  -19.1308   16.6366 C   0  0  2  0  0  0  0  0  0  0  0  0
   10.9619  -19.0548   15.5394 N   0  0  0  0  0  0  0  0  0  0  0  0
   10.4652  -18.1954   17.7403 C   0  0  0  0  0  0  0  0  0  0  0  0
   11.6645  -17.9052   17.9356 O   0  0  0  0  0  0  0  0  0  0  0  0
    6.7072  -14.3735   24.2908 N   0  0  0  0  0  0  0  0  0  0  0  0
    7.2483  -13.1741   23.7112 C   0  0  0  0  0  0  0  0  0  0  0  0
    7.3222  -12.1105   24.4289 N   0  0  0  0  0  0  0  0  0  0  0  0
    7.7014  -13.1370   22.3720 N   0  0  0  0  0  0  0  0  0  0  0  0
    7.4651  -14.2200   21.4560 C   0  0  0  0  0  0  0  0  0  0  0  0
    8.7316  -14.9771   21.1231 C   0  0  0  0  0  0  0  0  0  0  0  0
    8.5719  -15.9462   20.0228 C   0  0  0  0  0  0  0  0  0  0  0  0
    9.8061  -16.7384   19.6953 C   0  0  2  0  0  0  0  0  0  0  0  0
    9.4762  -17.6454   18.5593 N   0  0  0  0  0  0  0  0  0  0  0  0
   10.2308  -17.6106   20.8038 C   0  0  0  0  0  0  0  0  0  0  0  0
   10.0395  -18.8732   20.6822 O   0  0  0  0  0  0  0  0  0  0  0  0
    7.6451  -11.2086   24.0606 N   0  0  0  0  0  0  0  0  0  0  0  0
   10.8316  -17.1824   21.9829 C   0  0  2  0  0  0  0  0  0  0  0  0
   12.1075  -17.7453   22.4715 C   0  0  0  0  0  0  0  0  0  0  0  0
   13.1589  -17.6468   21.3880 C   0  0  0  0  0  0  0  0  0  0  0  0
   14.4015  -18.3135   21.8181 C   0  0  0  0  0  0  0  0  0  0  0  0
   14.6991  -18.8455   23.0783 N   0  0  0  0  0  0  0  0  0  0  0  0
   15.9329  -19.3468   23.0027 C   0  0  0  0  0  0  0  0  0  0  0  0
   16.4493  -19.1715   21.7741 N   0  0  0  0  0  0  0  0  0  0  0  0
   15.5123  -18.5450   21.0672 C   0  0  0  0  0  0  0  0  0  0  0  0
   12.4841  -17.1083   23.7324 O   0  0  0  0  0  0  0  0  0  0  0  0
   12.8440  -17.7869   24.7264 O   0  0  0  0  0  0  0  0  0  0  0  0
  2  1  1  6
  2  4  1  0
  3  2  1  0
  4  6  1  0
  4  5  1  6
  6  7  2  0
  9  8  1  0
 10  9  2  0
 11  9  1  0
 12 13  1  0
 12 11  1  0
 13 14  1  0
 15 14  1  1
 16 15  1  0
 16  6  1  0
 17 15  1  0
 18 17  2  0
 19 17  1  0
 20 27  1  0
 20 19  1  0
 20 21  1  6
 22 21  1  0
 23 22  2  0
 24 23  1  0
 25 24  1  0
 25 26  2  0
 26 22  1  0
 27 29  1  0
 28 27  2  0
M  END
$$$$
