TRH.pdb
     RDKit          3D

 29 29  0  0  1  0  0  0  0  0999 V2000
   12.0683  -21.0603   23.6909 C   0  0  0  0  0  0  0  0  0  0  0  0
   12.9948  -20.6544   22.5752 C   0  0  1  0  0  0  0  0  0  0  0  0
   13.4542  -21.7573   21.8616 O   0  0  0  0  0  0  0  0  0  0  0  0
   12.2209  -19.6997   21.6750 C   0  0  2  0  0  0  0  0  0  0  0  0
   12.9004  -19.4476   20.4421 N   0  0  0  0  0  0  0  0  0  0  0  0
   11.9530  -18.4108   22.4059 C   0  0  0  0  0  0  0  0  0  0  0  0
   12.8760  -17.6267   22.7128 O   0  0  0  0  0  0  0  0  0  0  0  0
    7.7058  -11.8691   21.0460 N   0  0  0  0  0  0  0  0  0  0  0  0
    8.0948  -12.8641   20.0837 C   0  0  0  0  0  0  0  0  0  0  0  0
    8.2804  -12.5135   18.8613 N   0  0  0  0  0  0  0  0  0  0  0  0
    8.2787  -14.2177   20.4500 N   0  0  0  0  0  0  0  0  0  0  0  0
    8.4282  -14.6238   21.8213 C   0  0  0  0  0  0  0  0  0  0  0  0
    8.5782  -16.1223   21.9632 C   0  0  0  0  0  0  0  0  0  0  0  0
    8.8635  -16.5623   23.3417 C   0  0  0  0  0  0  0  0  0  0  0  0
   10.2975  -16.9264   23.6041 C   0  0  2  0  0  0  0  0  0  0  0  0
   10.6346  -18.0960   22.7436 N   0  0  0  0  0  0  0  0  0  0  0  0
   10.5271  -17.3618   24.9925 C   0  0  0  0  0  0  0  0  0  0  0  0
   10.0636  -18.5035   25.3487 O   0  0  0  0  0  0  0  0  0  0  0  0
    8.5333  -13.1780   18.1211 N   0  0  0  0  0  0  0  0  0  0  0  0
   11.2135  -16.6381   25.9620 C   0  0  2  0  0  0  0  0  0  0  0  0
   10.8904  -16.7368   27.4006 C   0  0  0  0  0  0  0  0  0  0  0  0
    9.4166  -16.4691   27.6140 C   0  0  0  0  0  0  0  0  0  0  0  0
    9.1444  -15.0217   27.5488 C   0  0  0  0  0  0  0  0  0  0  0  0
   10.0613  -13.9833   27.3462 N   0  0  0  0  0  0  0  0  0  0  0  0
    9.3642  -12.8461   27.3618 C   0  0  0  0  0  0  0  0  0  0  0  0
    8.0567  -13.0855   27.5615 N   0  0  0  0  0  0  0  0  0  0  0  0
    7.9374  -14.4060   27.6731 C   0  0  0  0  0  0  0  0  0  0  0  0
   11.3495  -18.0204   27.9287 O   0  0  0  0  0  0  0  0  0  0  0  0
   11.3329  -18.2647   29.1608 O   0  0  0  0  0  0  0  0  0  0  0  0
  2  1  1  1
  2  4  1  0
  3  2  1  0
  4  6  1  0
  4  5  1  6
  6  7  2  0
  9  8  1  0
 10  9  2  0
 11  9  1  0
 12 13  1  0
 12 11  1  0
 13 14  1  0
 15 14  1  1
 16 15  1  0
 16  6  1  0
 17 15  1  0
 18 17  2  0
 19 17  1  0
 20 27  1  0
 20 19  1  0
 20 21  1  1
 22 21  1  0
 23 22  2  0
 24 23  1  0
 25 24  1  0
 25 26  2  0
 26 22  1  0
 27 29  1  0
 28 27  2  0
M  END
$$$$
