TRH.pdb
     RDKit          3D

 29 29  0  0  1  0  0  0  0  0999 V2000
    5.3110  -19.6332   21.6128 C   0  0  0  0  0  0  0  0  0  0  0  0
    6.6355  -18.9165   21.6217 C   0  0  1  0  0  0  0  0  0  0  0  0
    7.6749  -19.7617   21.9985 O   0  0  0  0  0  0  0  0  0  0  0  0
    6.8558  -18.3647   20.2189 C   0  0  2  0  0  0  0  0  0  0  0  0
    6.8987  -19.3980   19.2312 N   0  0  0  0  0  0  0  0  0  0  0  0
    8.1184  -17.5450   20.1838 C   0  0  0  0  0  0  0  0  0  0  0  0
    9.1972  -18.0195   19.7692 O   0  0  0  0  0  0  0  0  0  0  0  0
    9.2958  -14.7969   17.1202 N   0  0  0  0  0  0  0  0  0  0  0  0
    8.2501  -13.9846   16.5599 C   0  0  0  0  0  0  0  0  0  0  0  0
    7.9353  -14.1353   15.3230 N   0  0  0  0  0  0  0  0  0  0  0  0
    7.5598  -13.0253   17.3367 N   0  0  0  0  0  0  0  0  0  0  0  0
    8.0242  -12.6171   18.6350 C   0  0  0  0  0  0  0  0  0  0  0  0
    7.6748  -13.6207   19.7114 C   0  0  0  0  0  0  0  0  0  0  0  0
    8.7878  -13.9134   20.6339 C   0  0  0  0  0  0  0  0  0  0  0  0
    9.2679  -15.3371   20.6123 C   0  0  2  0  0  0  0  0  0  0  0  0
    8.0683  -16.2219   20.6291 N   0  0  0  0  0  0  0  0  0  0  0  0
   10.0516  -15.6894   21.8087 C   0  0  0  0  0  0  0  0  0  0  0  0
    9.5165  -15.4911   22.9575 O   0  0  0  0  0  0  0  0  0  0  0  0
    7.2457  -13.5441   14.8453 N   0  0  0  0  0  0  0  0  0  0  0  0
   11.3339  -16.2283   21.8036 C   0  0  1  0  0  0  0  0  0  0  0  0
   12.0980  -16.4662   23.0458 C   0  0  0  0  0  0  0  0  0  0  0  0
   12.1321  -17.9478   23.3503 C   0  0  0  0  0  0  0  0  0  0  0  0
   10.8916  -18.3590   24.0326 C   0  0  0  0  0  0  0  0  0  0  0  0
   10.3006  -17.7812   25.1625 N   0  0  0  0  0  0  0  0  0  0  0  0
    9.1956  -18.4827   25.4199 C   0  0  0  0  0  0  0  0  0  0  0  0
    9.0370  -19.4757   24.5279 N   0  0  0  0  0  0  0  0  0  0  0  0
   10.0702  -19.3896   23.6940 C   0  0  0  0  0  0  0  0  0  0  0  0
   13.4171  -15.8435   22.9477 O   0  0  0  0  0  0  0  0  0  0  0  0
   13.7925  -15.2681   21.8960 O   0  0  0  0  0  0  0  0  0  0  0  0
  2  1  1  6
  2  4  1  0
  3  2  1  0
  4  6  1  0
  4  5  1  6
  6  7  2  0
  9  8  1  0
 10  9  2  0
 11  9  1  0
 12 13  1  0
 12 11  1  0
 13 14  1  0
 15 14  1  1
 16 15  1  0
 16  6  1  0
 17 15  1  0
 18 17  2  0
 19 17  1  0
 20 27  1  0
 20 19  1  0
 20 21  1  1
 22 21  1  0
 23 22  2  0
 24 23  1  0
 25 24  1  0
 25 26  2  0
 26 22  1  0
 27 29  1  0
 28 27  2  0
M  END
$$$$
