TRH.pdb
     RDKit          3D

 29 29  0  0  1  0  0  0  0  0999 V2000
    6.3378  -20.3062   24.1534 C   0  0  0  0  0  0  0  0  0  0  0  0
    5.6908  -19.2518   23.2947 C   0  0  1  0  0  0  0  0  0  0  0  0
    5.8403  -17.9807   23.8412 O   0  0  0  0  0  0  0  0  0  0  0  0
    6.3357  -19.3379   21.9172 C   0  0  2  0  0  0  0  0  0  0  0  0
    6.1369  -20.6151   21.3053 N   0  0  0  0  0  0  0  0  0  0  0  0
    7.8044  -19.0216   22.0189 C   0  0  0  0  0  0  0  0  0  0  0  0
    8.6564  -19.9156   22.2076 O   0  0  0  0  0  0  0  0  0  0  0  0
    7.4798  -11.2081   19.4827 N   0  0  0  0  0  0  0  0  0  0  0  0
    7.8369  -12.5953   19.3581 C   0  0  0  0  0  0  0  0  0  0  0  0
    6.9245  -13.4526   19.0677 N   0  0  0  0  0  0  0  0  0  0  0  0
    9.1667  -13.0383   19.5464 N   0  0  0  0  0  0  0  0  0  0  0  0
    9.5347  -14.4229   19.4226 C   0  0  0  0  0  0  0  0  0  0  0  0
    9.1956  -15.2202   20.6624 C   0  0  0  0  0  0  0  0  0  0  0  0
    9.9821  -16.4598   20.8045 C   0  0  0  0  0  0  0  0  0  0  0  0
    9.6417  -17.2885   22.0109 C   0  0  2  0  0  0  0  0  0  0  0  0
    8.2108  -17.6906   21.8975 N   0  0  0  0  0  0  0  0  0  0  0  0
    9.7541  -16.5310   23.2693 C   0  0  0  0  0  0  0  0  0  0  0  0
    9.1451  -15.4049   23.3493 O   0  0  0  0  0  0  0  0  0  0  0  0
    7.1069  -14.4599   18.9930 N   0  0  0  0  0  0  0  0  0  0  0  0
   10.4671  -16.9348   24.3933 C   0  0  1  0  0  0  0  0  0  0  0  0
    9.9773  -16.7016   25.7678 C   0  0  0  0  0  0  0  0  0  0  0  0
    8.4902  -16.9722   25.8344 C   0  0  0  0  0  0  0  0  0  0  0  0
    7.7356  -15.7082   25.7547 C   0  0  0  0  0  0  0  0  0  0  0  0
    8.2454  -14.4080   25.6576 N   0  0  0  0  0  0  0  0  0  0  0  0
    7.1960  -13.5858   25.6115 C   0  0  0  0  0  0  0  0  0  0  0  0
    6.0426  -14.2733   25.6727 N   0  0  0  0  0  0  0  0  0  0  0  0
    6.3834  -15.5565   25.7591 C   0  0  0  0  0  0  0  0  0  0  0  0
   10.7713  -17.4773   26.7193 O   0  0  0  0  0  0  0  0  0  0  0  0
   11.5125  -18.4177   26.3395 O   0  0  0  0  0  0  0  0  0  0  0  0
  2  1  1  1
  2  4  1  0
  3  2  1  0
  4  6  1  0
  4  5  1  1
  6  7  2  0
  9  8  1  0
 10  9  2  0
 11  9  1  0
 12 13  1  0
 12 11  1  0
 13 14  1  0
 15 14  1  6
 16 15  1  0
 16  6  1  0
 17 15  1  0
 18 17  2  0
 19 17  1  0
 20 27  1  0
 20 19  1  0
 20 21  1  1
 22 21  1  0
 23 22  2  0
 24 23  1  0
 25 24  1  0
 25 26  2  0
 26 22  1  0
 27 29  1  0
 28 27  2  0
M  END
$$$$
