TRH.pdb
     RDKit          3D

 29 29  0  0  1  0  0  0  0  0999 V2000
   10.9754  -20.5736   19.6169 C   0  0  0  0  0  0  0  0  0  0  0  0
   10.9252  -19.4147   20.5772 C   0  0  1  0  0  0  0  0  0  0  0  0
   11.8637  -19.5500   21.5958 O   0  0  0  0  0  0  0  0  0  0  0  0
   11.1723  -18.1493   19.7657 C   0  0  2  0  0  0  0  0  0  0  0  0
   12.4534  -18.1552   19.1302 N   0  0  0  0  0  0  0  0  0  0  0  0
   11.0237  -16.9382   20.6480 C   0  0  0  0  0  0  0  0  0  0  0  0
   12.0055  -16.4189   21.2200 O   0  0  0  0  0  0  0  0  0  0  0  0
    6.7264  -13.2875   16.7631 N   0  0  0  0  0  0  0  0  0  0  0  0
    7.9528  -13.8818   17.2215 C   0  0  0  0  0  0  0  0  0  0  0  0
    8.7096  -14.4857   16.3764 N   0  0  0  0  0  0  0  0  0  0  0  0
    8.3460  -13.8172   18.5785 N   0  0  0  0  0  0  0  0  0  0  0  0
    7.5674  -13.1204   19.5665 C   0  0  0  0  0  0  0  0  0  0  0  0
    8.1241  -13.2925   20.9623 C   0  0  0  0  0  0  0  0  0  0  0  0
    8.1393  -14.6922   21.4268 C   0  0  0  0  0  0  0  0  0  0  0  0
    9.5040  -15.2397   21.7367 C   0  0  2  0  0  0  0  0  0  0  0  0
    9.7501  -16.3915   20.8230 N   0  0  0  0  0  0  0  0  0  0  0  0
    9.6024  -15.7762   23.1050 C   0  0  0  0  0  0  0  0  0  0  0  0
    8.6309  -16.4908   23.5417 O   0  0  0  0  0  0  0  0  0  0  0  0
    9.5709  -14.9744   16.6464 N   0  0  0  0  0  0  0  0  0  0  0  0
   10.6697  -15.5777   23.9747 C   0  0  2  0  0  0  0  0  0  0  0  0
   10.6275  -16.0011   25.3899 C   0  0  0  0  0  0  0  0  0  0  0  0
    9.2538  -15.7321   25.9641 C   0  0  0  0  0  0  0  0  0  0  0  0
    9.3550  -14.8548   27.1446 C   0  0  0  0  0  0  0  0  0  0  0  0
    9.7458  -13.5111   27.1854 N   0  0  0  0  0  0  0  0  0  0  0  0
    9.6863  -13.1318   28.4628 C   0  0  0  0  0  0  0  0  0  0  0  0
    9.2822  -14.1454   29.2477 N   0  0  0  0  0  0  0  0  0  0  0  0
    9.0852  -15.1821   28.4374 C   0  0  0  0  0  0  0  0  0  0  0  0
   11.0656  -17.3908   25.5087 O   0  0  0  0  0  0  0  0  0  0  0  0
   10.5610  -18.2987   24.8021 O   0  0  0  0  0  0  0  0  0  0  0  0
  2  1  1  6
  2  4  1  0
  3  2  1  0
  4  6  1  0
  4  5  1  1
  6  7  2  0
  9  8  1  0
 10  9  2  0
 11  9  1  0
 12 13  1  0
 12 11  1  0
 13 14  1  0
 15 14  1  6
 16 15  1  0
 16  6  1  0
 17 15  1  0
 18 17  2  0
 19 17  1  0
 20 27  1  0
 20 19  1  0
 20 21  1  1
 22 21  1  0
 23 22  2  0
 24 23  1  0
 25 24  1  0
 25 26  2  0
 26 22  1  0
 27 29  1  0
 28 27  2  0
M  END
$$$$
