TRH.pdb
     RDKit          3D

 29 29  0  0  1  0  0  0  0  0999 V2000
    6.8299  -14.4467   19.3431 C   0  0  0  0  0  0  0  0  0  0  0  0
    7.4934  -13.0970   19.2646 C   0  0  1  0  0  0  0  0  0  0  0  0
    8.1802  -12.7928   20.4361 O   0  0  0  0  0  0  0  0  0  0  0  0
    8.4347  -13.1295   18.0673 C   0  0  2  0  0  0  0  0  0  0  0  0
    7.7508  -13.4350   16.8490 N   0  0  0  0  0  0  0  0  0  0  0  0
    9.5438  -14.1174   18.3148 C   0  0  0  0  0  0  0  0  0  0  0  0
    9.4679  -15.3008   17.9217 O   0  0  0  0  0  0  0  0  0  0  0  0
   17.4475  -13.9500   17.5462 N   0  0  0  0  0  0  0  0  0  0  0  0
   17.2484  -15.3462   17.8260 C   0  0  0  0  0  0  0  0  0  0  0  0
   18.2731  -16.1112   17.9534 N   0  0  0  0  0  0  0  0  0  0  0  0
   15.9532  -15.8970   17.9650 N   0  0  0  0  0  0  0  0  0  0  0  0
   14.7662  -15.0917   17.8626 C   0  0  0  0  0  0  0  0  0  0  0  0
   14.3589  -14.4977   19.1926 C   0  0  0  0  0  0  0  0  0  0  0  0
   13.0942  -13.7405   19.1421 C   0  0  0  0  0  0  0  0  0  0  0  0
   11.8515  -14.5806   19.2311 C   0  0  2  0  0  0  0  0  0  0  0  0
   10.6808  -13.6866   19.0026 N   0  0  0  0  0  0  0  0  0  0  0  0
   11.6600  -15.1702   20.5674 C   0  0  0  0  0  0  0  0  0  0  0  0
   11.5172  -14.3722   21.5614 O   0  0  0  0  0  0  0  0  0  0  0  0
   18.2012  -17.1091   18.1825 N   0  0  0  0  0  0  0  0  0  0  0  0
   11.6158  -16.5314   20.8500 C   0  0  2  0  0  0  0  0  0  0  0  0
   11.5459  -17.0516   22.2314 C   0  0  0  0  0  0  0  0  0  0  0  0
   10.6137  -18.2421   22.2837 C   0  0  0  0  0  0  0  0  0  0  0  0
    9.2299  -17.8219   21.9972 C   0  0  0  0  0  0  0  0  0  0  0  0
    8.7472  -16.5202   21.8171 N   0  0  0  0  0  0  0  0  0  0  0  0
    7.4387  -16.6246   21.5800 C   0  0  0  0  0  0  0  0  0  0  0  0
    7.0475  -17.9104   21.5958 N   0  0  0  0  0  0  0  0  0  0  0  0
    8.1412  -18.6245   21.8494 C   0  0  0  0  0  0  0  0  0  0  0  0
   12.8927  -17.3218   22.7321 O   0  0  0  0  0  0  0  0  0  0  0  0
   13.0866  -17.7132   23.9099 O   0  0  0  0  0  0  0  0  0  0  0  0
  2  1  1  1
  2  4  1  0
  3  2  1  0
  4  6  1  0
  4  5  1  6
  6  7  2  0
  9  8  1  0
 10  9  2  0
 11  9  1  0
 12 13  1  0
 12 11  1  0
 13 14  1  0
 15 14  1  1
 16 15  1  0
 16  6  1  0
 17 15  1  0
 18 17  2  0
 19 17  1  0
 20 27  1  0
 20 19  1  0
 20 21  1  6
 22 21  1  0
 23 22  2  0
 24 23  1  0
 25 24  1  0
 25 26  2  0
 26 22  1  0
 27 29  1  0
 28 27  2  0
M  END
$$$$
