TRH.pdb
     RDKit          3D

 29 29  0  0  1  0  0  0  0  0999 V2000
   11.6757  -16.6514   13.7401 C   0  0  0  0  0  0  0  0  0  0  0  0
   12.0468  -16.6841   15.1992 C   0  0  1  0  0  0  0  0  0  0  0  0
   13.1645  -15.8980   15.4631 O   0  0  0  0  0  0  0  0  0  0  0  0
   10.8338  -16.1964   15.9812 C   0  0  2  0  0  0  0  0  0  0  0  0
   10.3852  -14.9124   15.5393 N   0  0  0  0  0  0  0  0  0  0  0  0
   11.1506  -16.1696   17.4531 C   0  0  0  0  0  0  0  0  0  0  0  0
   11.5206  -15.1226   18.0255 O   0  0  0  0  0  0  0  0  0  0  0  0
   10.4438  -22.9859   23.3686 N   0  0  0  0  0  0  0  0  0  0  0  0
   10.5128  -21.7596   24.1161 C   0  0  0  0  0  0  0  0  0  0  0  0
   10.3997  -21.7995   25.3956 N   0  0  0  0  0  0  0  0  0  0  0  0
   10.7028  -20.5120   23.4777 N   0  0  0  0  0  0  0  0  0  0  0  0
   10.6298  -20.3667   22.0489 C   0  0  0  0  0  0  0  0  0  0  0  0
   11.0051  -18.9740   21.5935 C   0  0  0  0  0  0  0  0  0  0  0  0
   10.8720  -18.7691   20.1390 C   0  0  0  0  0  0  0  0  0  0  0  0
   11.2593  -17.3998   19.6563 C   0  0  2  0  0  0  0  0  0  0  0  0
   11.0235  -17.3525   18.1852 N   0  0  0  0  0  0  0  0  0  0  0  0
   12.6915  -17.1146   19.8493 C   0  0  0  0  0  0  0  0  0  0  0  0
   13.4126  -16.9253   18.8054 O   0  0  0  0  0  0  0  0  0  0  0  0
   10.4599  -20.9641   25.9888 N   0  0  0  0  0  0  0  0  0  0  0  0
   13.3386  -17.0274   21.0775 C   0  0  2  0  0  0  0  0  0  0  0  0
   14.4553  -16.0903   21.3196 C   0  0  0  0  0  0  0  0  0  0  0  0
   14.0635  -14.6998   20.8700 C   0  0  0  0  0  0  0  0  0  0  0  0
   14.6813  -14.3897   19.5678 C   0  0  0  0  0  0  0  0  0  0  0  0
   15.4855  -15.2206   18.7788 N   0  0  0  0  0  0  0  0  0  0  0  0
   15.8133  -14.5197   17.6922 C   0  0  0  0  0  0  0  0  0  0  0  0
   15.2716  -13.2902   17.7308 N   0  0  0  0  0  0  0  0  0  0  0  0
   14.5890  -13.2246   18.8711 C   0  0  0  0  0  0  0  0  0  0  0  0
   14.8816  -16.1715   22.7157 O   0  0  0  0  0  0  0  0  0  0  0  0
   15.8856  -15.5409   23.1310 O   0  0  0  0  0  0  0  0  0  0  0  0
  2  1  1  6
  2  4  1  0
  3  2  1  0
  4  6  1  0
  4  5  1  6
  6  7  2  0
  9  8  1  0
 10  9  2  0
 11  9  1  0
 12 13  1  0
 12 11  1  0
 13 14  1  0
 15 14  1  6
 16 15  1  0
 16  6  1  0
 17 15  1  0
 18 17  2  0
 19 17  1  0
 20 27  1  0
 20 19  1  0
 20 21  1  6
 22 21  1  0
 23 22  2  0
 24 23  1  0
 25 24  1  0
 25 26  2  0
 26 22  1  0
 27 29  1  0
 28 27  2  0
M  END
$$$$
