TRH.pdb
     RDKit          3D

 29 29  0  0  1  0  0  0  0  0999 V2000
   11.3411  -13.4472   17.8818 C   0  0  0  0  0  0  0  0  0  0  0  0
   10.4775  -13.9727   18.9980 C   0  0  1  0  0  0  0  0  0  0  0  0
   10.5886  -13.1923   20.1449 O   0  0  0  0  0  0  0  0  0  0  0  0
    9.0438  -13.9939   18.4834 C   0  0  2  0  0  0  0  0  0  0  0  0
    8.5818  -12.6918   18.1144 N   0  0  0  0  0  0  0  0  0  0  0  0
    8.1372  -14.6045   19.5191 C   0  0  0  0  0  0  0  0  0  0  0  0
    7.3308  -13.9117   20.1753 O   0  0  0  0  0  0  0  0  0  0  0  0
    6.9892  -20.3464   17.9582 N   0  0  0  0  0  0  0  0  0  0  0  0
    7.9804  -20.8250   18.8833 C   0  0  0  0  0  0  0  0  0  0  0  0
    9.0723  -21.3260   18.4267 N   0  0  0  0  0  0  0  0  0  0  0  0
    7.7831  -20.7570   20.2821 N   0  0  0  0  0  0  0  0  0  0  0  0
    6.5144  -20.4004   20.8576 C   0  0  0  0  0  0  0  0  0  0  0  0
    6.4058  -18.9172   21.1339 C   0  0  0  0  0  0  0  0  0  0  0  0
    7.5458  -18.1332   20.6230 C   0  0  0  0  0  0  0  0  0  0  0  0
    7.4317  -16.6485   20.8243 C   0  0  2  0  0  0  0  0  0  0  0  0
    8.2100  -15.9816   19.7420 N   0  0  0  0  0  0  0  0  0  0  0  0
    8.0311  -16.2006   22.0932 C   0  0  0  0  0  0  0  0  0  0  0  0
    9.2400  -15.7724   22.0686 O   0  0  0  0  0  0  0  0  0  0  0  0
    9.8146  -21.6947   19.0321 N   0  0  0  0  0  0  0  0  0  0  0  0
    7.3941  -16.1969   23.3297 C   0  0  2  0  0  0  0  0  0  0  0  0
    7.7205  -15.2163   24.3859 C   0  0  0  0  0  0  0  0  0  0  0  0
    6.4792  -14.4380   24.7633 C   0  0  0  0  0  0  0  0  0  0  0  0
    6.7572  -13.5560   25.9114 C   0  0  0  0  0  0  0  0  0  0  0  0
    7.9712  -13.3810   26.5861 N   0  0  0  0  0  0  0  0  0  0  0  0
    7.7492  -12.4885   27.5523 C   0  0  0  0  0  0  0  0  0  0  0  0
    6.4695  -12.0774   27.5433 N   0  0  0  0  0  0  0  0  0  0  0  0
    5.8802  -12.7311   26.5454 C   0  0  0  0  0  0  0  0  0  0  0  0
    8.3708  -15.8897   25.5089 O   0  0  0  0  0  0  0  0  0  0  0  0
    8.2181  -17.1200   25.7114 O   0  0  0  0  0  0  0  0  0  0  0  0
  2  1  1  6
  2  4  1  0
  3  2  1  0
  4  6  1  0
  4  5  1  1
  6  7  2  0
  9  8  1  0
 10  9  2  0
 11  9  1  0
 12 13  1  0
 12 11  1  0
 13 14  1  0
 15 14  1  6
 16 15  1  0
 16  6  1  0
 17 15  1  0
 18 17  2  0
 19 17  1  0
 20 27  1  0
 20 19  1  0
 20 21  1  1
 22 21  1  0
 23 22  2  0
 24 23  1  0
 25 24  1  0
 25 26  2  0
 26 22  1  0
 27 29  1  0
 28 27  2  0
M  END
$$$$
