TRH.pdb
     RDKit          3D

 29 29  0  0  1  0  0  0  0  0999 V2000
   14.8068  -20.3827   14.8501 C   0  0  0  0  0  0  0  0  0  0  0  0
   14.5822  -19.4692   16.0261 C   0  0  1  0  0  0  0  0  0  0  0  0
   15.7286  -19.3424   16.8049 O   0  0  0  0  0  0  0  0  0  0  0  0
   14.1435  -18.1209   15.4689 C   0  0  2  0  0  0  0  0  0  0  0  0
   15.1638  -17.5034   14.6798 N   0  0  0  0  0  0  0  0  0  0  0  0
   13.7224  -17.2142   16.5949 C   0  0  0  0  0  0  0  0  0  0  0  0
   14.4951  -16.3541   17.0684 O   0  0  0  0  0  0  0  0  0  0  0  0
    7.3441  -13.1589   15.1461 N   0  0  0  0  0  0  0  0  0  0  0  0
    7.7729  -13.8792   16.3143 C   0  0  0  0  0  0  0  0  0  0  0  0
    8.4060  -13.2507   17.2395 N   0  0  0  0  0  0  0  0  0  0  0  0
    7.5144  -15.2609   16.4698 N   0  0  0  0  0  0  0  0  0  0  0  0
    8.2146  -16.0646   17.4351 C   0  0  0  0  0  0  0  0  0  0  0  0
    9.7153  -15.9039   17.3355 C   0  0  0  0  0  0  0  0  0  0  0  0
   10.4632  -16.6761   18.3454 C   0  0  0  0  0  0  0  0  0  0  0  0
   11.9573  -16.5348   18.2689 C   0  0  2  0  0  0  0  0  0  0  0  0
   12.4325  -17.3488   17.1141 N   0  0  0  0  0  0  0  0  0  0  0  0
   12.6395  -17.0753   19.4573 C   0  0  0  0  0  0  0  0  0  0  0  0
   12.7341  -18.3497   19.5683 O   0  0  0  0  0  0  0  0  0  0  0  0
    8.7764  -13.7135   18.0774 N   0  0  0  0  0  0  0  0  0  0  0  0
   13.2006  -16.3177   20.4800 C   0  0  2  0  0  0  0  0  0  0  0  0
   13.8641  -16.9324   21.6485 C   0  0  0  0  0  0  0  0  0  0  0  0
   15.0504  -16.0908   22.0652 C   0  0  0  0  0  0  0  0  0  0  0  0
   15.7479  -16.7169   23.2032 C   0  0  0  0  0  0  0  0  0  0  0  0
   15.6513  -18.0412   23.6468 N   0  0  0  0  0  0  0  0  0  0  0  0
   16.4594  -18.1533   24.7021 C   0  0  0  0  0  0  0  0  0  0  0  0
   17.0705  -16.9857   24.9668 N   0  0  0  0  0  0  0  0  0  0  0  0
   16.6311  -16.1250   24.0523 C   0  0  0  0  0  0  0  0  0  0  0  0
   12.8886  -17.1627   22.7129 O   0  0  0  0  0  0  0  0  0  0  0  0
   11.7861  -16.5609   22.7314 O   0  0  0  0  0  0  0  0  0  0  0  0
  2  1  1  6
  2  4  1  0
  3  2  1  0
  4  6  1  0
  4  5  1  1
  6  7  2  0
  9  8  1  0
 10  9  2  0
 11  9  1  0
 12 13  1  0
 12 11  1  0
 13 14  1  0
 15 14  1  1
 16 15  1  0
 16  6  1  0
 17 15  1  0
 18 17  2  0
 19 17  1  0
 20 27  1  0
 20 19  1  0
 20 21  1  6
 22 21  1  0
 23 22  2  0
 24 23  1  0
 25 24  1  0
 25 26  2  0
 26 22  1  0
 27 29  1  0
 28 27  2  0
M  END
$$$$
