TRH.pdb
     RDKit          3D

 29 29  0  0  1  0  0  0  0  0999 V2000
    7.8107  -12.1344   20.6470 C   0  0  0  0  0  0  0  0  0  0  0  0
    8.6239  -12.6903   19.5079 C   0  0  1  0  0  0  0  0  0  0  0  0
    9.9802  -12.7314   19.8166 O   0  0  0  0  0  0  0  0  0  0  0  0
    8.0846  -14.0836   19.2104 C   0  0  2  0  0  0  0  0  0  0  0  0
    6.6920  -14.0672   18.8857 N   0  0  0  0  0  0  0  0  0  0  0  0
    8.3454  -14.9941   20.3810 C   0  0  0  0  0  0  0  0  0  0  0  0
    7.4781  -15.2029   21.2556 O   0  0  0  0  0  0  0  0  0  0  0  0
   14.4756  -18.5319   18.8594 N   0  0  0  0  0  0  0  0  0  0  0  0
   13.7549  -19.7755   18.8928 C   0  0  0  0  0  0  0  0  0  0  0  0
   14.4122  -20.8799   18.8921 N   0  0  0  0  0  0  0  0  0  0  0  0
   12.3415  -19.8126   18.9273 N   0  0  0  0  0  0  0  0  0  0  0  0
   11.5470  -18.6144   18.9584 C   0  0  0  0  0  0  0  0  0  0  0  0
   10.6831  -18.5303   20.1972 C   0  0  0  0  0  0  0  0  0  0  0  0
   11.0576  -17.4330   21.1087 C   0  0  0  0  0  0  0  0  0  0  0  0
    9.9118  -16.5780   21.5715 C   0  0  2  0  0  0  0  0  0  0  0  0
    9.5931  -15.6147   20.4794 N   0  0  0  0  0  0  0  0  0  0  0  0
   10.2532  -15.7614   22.7490 C   0  0  0  0  0  0  0  0  0  0  0  0
   10.2465  -14.4854   22.6179 O   0  0  0  0  0  0  0  0  0  0  0  0
   13.9590  -21.8006   18.9087 N   0  0  0  0  0  0  0  0  0  0  0  0
   10.5822  -16.2566   24.0065 C   0  0  2  0  0  0  0  0  0  0  0  0
    9.7599  -15.9863   25.2041 C   0  0  0  0  0  0  0  0  0  0  0  0
    8.2947  -15.9729   24.8269 C   0  0  0  0  0  0  0  0  0  0  0  0
    7.7361  -14.6184   24.9906 C   0  0  0  0  0  0  0  0  0  0  0  0
    8.4035  -13.4576   25.3992 N   0  0  0  0  0  0  0  0  0  0  0  0
    7.5010  -12.4753   25.4004 C   0  0  0  0  0  0  0  0  0  0  0  0
    6.2948  -12.9292   25.0187 N   0  0  0  0  0  0  0  0  0  0  0  0
    6.4510  -14.2276   24.7737 C   0  0  0  0  0  0  0  0  0  0  0  0
   10.0973  -16.9331   26.2658 O   0  0  0  0  0  0  0  0  0  0  0  0
    9.6104  -16.8243   27.4186 O   0  0  0  0  0  0  0  0  0  0  0  0
  2  1  1  1
  2  4  1  0
  3  2  1  0
  4  6  1  0
  4  5  1  1
  6  7  2  0
  9  8  1  0
 10  9  2  0
 11  9  1  0
 12 13  1  0
 12 11  1  0
 13 14  1  0
 15 14  1  6
 16 15  1  0
 16  6  1  0
 17 15  1  0
 18 17  2  0
 19 17  1  0
 20 27  1  0
 20 19  1  0
 20 21  1  6
 22 21  1  0
 23 22  2  0
 24 23  1  0
 25 24  1  0
 25 26  2  0
 26 22  1  0
 27 29  1  0
 28 27  2  0
M  END
$$$$
