TRH.pdb
     RDKit          3D

 29 29  0  0  1  0  0  0  0  0999 V2000
   10.1473  -12.1461   17.1080 C   0  0  0  0  0  0  0  0  0  0  0  0
   10.0653  -13.3156   18.0532 C   0  0  1  0  0  0  0  0  0  0  0  0
    9.7132  -12.9143   19.3383 O   0  0  0  0  0  0  0  0  0  0  0  0
    9.0399  -14.2849   17.4789 C   0  0  2  0  0  0  0  0  0  0  0  0
    7.7359  -13.7043   17.3914 N   0  0  0  0  0  0  0  0  0  0  0  0
    9.0058  -15.5430   18.3054 C   0  0  0  0  0  0  0  0  0  0  0  0
    8.0819  -15.7713   19.1148 O   0  0  0  0  0  0  0  0  0  0  0  0
    9.4651  -22.6173   18.3734 N   0  0  0  0  0  0  0  0  0  0  0  0
   10.8106  -23.0911   18.1928 C   0  0  0  0  0  0  0  0  0  0  0  0
   11.0009  -24.2548   17.6817 N   0  0  0  0  0  0  0  0  0  0  0  0
   11.9284  -22.3078   18.5631 N   0  0  0  0  0  0  0  0  0  0  0  0
   12.0783  -20.9424   18.1375 C   0  0  0  0  0  0  0  0  0  0  0  0
   11.1445  -20.0062   18.8720 C   0  0  0  0  0  0  0  0  0  0  0  0
   11.0340  -18.6720   18.2532 C   0  0  0  0  0  0  0  0  0  0  0  0
   10.0952  -17.7285   18.9508 C   0  0  2  0  0  0  0  0  0  0  0  0
   10.0398  -16.4701   18.1537 N   0  0  0  0  0  0  0  0  0  0  0  0
   10.5711  -17.3423   20.2903 C   0  0  0  0  0  0  0  0  0  0  0  0
   11.6553  -16.6613   20.3697 O   0  0  0  0  0  0  0  0  0  0  0  0
   11.9347  -24.6425   17.5054 N   0  0  0  0  0  0  0  0  0  0  0  0
    9.9399  -17.6505   21.4908 C   0  0  2  0  0  0  0  0  0  0  0  0
   10.4006  -17.1143   22.7884 C   0  0  0  0  0  0  0  0  0  0  0  0
    9.2259  -16.5454   23.5536 C   0  0  0  0  0  0  0  0  0  0  0  0
    8.6885  -15.3605   22.8602 C   0  0  0  0  0  0  0  0  0  0  0  0
    9.2017  -14.7239   21.7238 N   0  0  0  0  0  0  0  0  0  0  0  0
    8.3887  -13.7009   21.4559 C   0  0  0  0  0  0  0  0  0  0  0  0
    7.3845  -13.6377   22.3472 N   0  0  0  0  0  0  0  0  0  0  0  0
    7.5779  -14.6477   23.1914 C   0  0  0  0  0  0  0  0  0  0  0  0
   11.1500  -18.1384   23.5143 O   0  0  0  0  0  0  0  0  0  0  0  0
   11.2381  -19.3146   23.0819 O   0  0  0  0  0  0  0  0  0  0  0  0
  2  1  1  6
  2  4  1  0
  3  2  1  0
  4  6  1  0
  4  5  1  1
  6  7  2  0
  9  8  1  0
 10  9  2  0
 11  9  1  0
 12 13  1  0
 12 11  1  0
 13 14  1  0
 15 14  1  6
 16 15  1  0
 16  6  1  0
 17 15  1  0
 18 17  2  0
 19 17  1  0
 20 27  1  0
 20 19  1  0
 20 21  1  6
 22 21  1  0
 23 22  2  0
 24 23  1  0
 25 24  1  0
 25 26  2  0
 26 22  1  0
 27 29  1  0
 28 27  2  0
M  END
$$$$
