TRH.pdb
     RDKit          3D

 29 29  0  0  1  0  0  0  0  0999 V2000
   14.5886  -16.3257   15.9140 C   0  0  0  0  0  0  0  0  0  0  0  0
   13.9846  -16.1248   17.2789 C   0  0  1  0  0  0  0  0  0  0  0  0
   14.7213  -16.7709   18.2671 O   0  0  0  0  0  0  0  0  0  0  0  0
   13.9285  -14.6229   17.5275 C   0  0  2  0  0  0  0  0  0  0  0  0
   15.2080  -14.0014   17.3789 N   0  0  0  0  0  0  0  0  0  0  0  0
   13.3630  -14.3514   18.8963 C   0  0  0  0  0  0  0  0  0  0  0  0
   14.1018  -14.1766   19.8885 O   0  0  0  0  0  0  0  0  0  0  0  0
    8.7042  -15.7159   15.8525 N   0  0  0  0  0  0  0  0  0  0  0  0
    8.0171  -14.5137   16.2400 C   0  0  0  0  0  0  0  0  0  0  0  0
    8.0314  -13.5018   15.4478 N   0  0  0  0  0  0  0  0  0  0  0  0
    7.3262  -14.4185   17.4703 N   0  0  0  0  0  0  0  0  0  0  0  0
    7.8977  -13.7680   18.6184 C   0  0  0  0  0  0  0  0  0  0  0  0
    9.2956  -14.2606   18.9207 C   0  0  0  0  0  0  0  0  0  0  0  0
    9.9064  -13.6243   20.1028 C   0  0  0  0  0  0  0  0  0  0  0  0
   11.3342  -14.0143   20.3626 C   0  0  2  0  0  0  0  0  0  0  0  0
   11.9752  -14.2964   19.0467 N   0  0  0  0  0  0  0  0  0  0  0  0
   11.4490  -15.2560   21.1468 C   0  0  0  0  0  0  0  0  0  0  0  0
   11.6582  -16.3507   20.5118 O   0  0  0  0  0  0  0  0  0  0  0  0
    7.6804  -12.5757   15.7170 N   0  0  0  0  0  0  0  0  0  0  0  0
   11.3536  -15.3475   22.5315 C   0  0  1  0  0  0  0  0  0  0  0  0
   11.4439  -16.6367   23.2481 C   0  0  0  0  0  0  0  0  0  0  0  0
   12.7725  -16.7318   23.9655 C   0  0  0  0  0  0  0  0  0  0  0  0
   13.8440  -17.0809   23.0150 C   0  0  0  0  0  0  0  0  0  0  0  0
   14.0186  -16.6124   21.7073 N   0  0  0  0  0  0  0  0  0  0  0  0
   15.1189  -17.1982   21.2325 C   0  0  0  0  0  0  0  0  0  0  0  0
   15.6644  -18.0143   22.1508 N   0  0  0  0  0  0  0  0  0  0  0  0
   14.8830  -17.9340   23.2247 C   0  0  0  0  0  0  0  0  0  0  0  0
   10.2799  -16.8084   24.1159 O   0  0  0  0  0  0  0  0  0  0  0  0
    9.5374  -15.8399   24.4138 O   0  0  0  0  0  0  0  0  0  0  0  0
  2  1  1  6
  2  4  1  0
  3  2  1  0
  4  6  1  0
  4  5  1  1
  6  7  2  0
  9  8  1  0
 10  9  2  0
 11  9  1  0
 12 13  1  0
 12 11  1  0
 13 14  1  0
 15 14  1  6
 16 15  1  0
 16  6  1  0
 17 15  1  0
 18 17  2  0
 19 17  1  0
 20 27  1  0
 20 19  1  0
 20 21  1  6
 22 21  1  0
 23 22  2  0
 24 23  1  0
 25 24  1  0
 25 26  2  0
 26 22  1  0
 27 29  1  0
 28 27  2  0
M  END
$$$$
