TRH.pdb
     RDKit          3D

 29 29  0  0  1  0  0  0  0  0999 V2000
    9.2790  -11.9023   19.1328 C   0  0  0  0  0  0  0  0  0  0  0  0
    9.1519  -13.0790   20.0641 C   0  0  1  0  0  0  0  0  0  0  0  0
    8.6718  -12.6966   21.3131 O   0  0  0  0  0  0  0  0  0  0  0  0
    8.2161  -14.0792   19.3973 C   0  0  2  0  0  0  0  0  0  0  0  0
    6.9453  -13.5043   19.0815 N   0  0  0  0  0  0  0  0  0  0  0  0
    8.0469  -15.2881   20.2789 C   0  0  0  0  0  0  0  0  0  0  0  0
    7.0415  -15.4341   21.0060 O   0  0  0  0  0  0  0  0  0  0  0  0
   12.6844  -20.0681   18.5977 N   0  0  0  0  0  0  0  0  0  0  0  0
   13.2649  -20.0368   19.9128 C   0  0  0  0  0  0  0  0  0  0  0  0
   14.5288  -19.8379   20.0343 N   0  0  0  0  0  0  0  0  0  0  0  0
   12.4791  -20.2185   21.0745 N   0  0  0  0  0  0  0  0  0  0  0  0
   11.1128  -20.6622   21.0101 C   0  0  0  0  0  0  0  0  0  0  0  0
   10.1490  -19.6350   21.5615 C   0  0  0  0  0  0  0  0  0  0  0  0
    9.9756  -18.4567   20.6916 C   0  0  0  0  0  0  0  0  0  0  0  0
    9.0321  -17.4141   21.2216 C   0  0  2  0  0  0  0  0  0  0  0  0
    9.0468  -16.2636   20.2740 N   0  0  0  0  0  0  0  0  0  0  0  0
    9.4570  -16.8748   22.5248 C   0  0  0  0  0  0  0  0  0  0  0  0
   10.5092  -16.1418   22.5577 O   0  0  0  0  0  0  0  0  0  0  0  0
   15.0223  -19.9080   20.9315 N   0  0  0  0  0  0  0  0  0  0  0  0
    8.8090  -17.0890   23.7369 C   0  0  1  0  0  0  0  0  0  0  0  0
    9.3208  -16.5509   25.0145 C   0  0  0  0  0  0  0  0  0  0  0  0
    8.1706  -16.0298   25.8480 C   0  0  0  0  0  0  0  0  0  0  0  0
    7.7417  -14.7069   25.3585 C   0  0  0  0  0  0  0  0  0  0  0  0
    8.3201  -13.9383   24.3414 N   0  0  0  0  0  0  0  0  0  0  0  0
    7.5977  -12.8210   24.2455 C   0  0  0  0  0  0  0  0  0  0  0  0
    6.5908  -12.8207   25.1359 N   0  0  0  0  0  0  0  0  0  0  0  0
    6.6895  -13.9677   25.8031 C   0  0  0  0  0  0  0  0  0  0  0  0
   10.1415  -17.5567   25.6870 O   0  0  0  0  0  0  0  0  0  0  0  0
   10.2809  -18.7114   25.2124 O   0  0  0  0  0  0  0  0  0  0  0  0
  2  1  1  6
  2  4  1  0
  3  2  1  0
  4  6  1  0
  4  5  1  1
  6  7  2  0
  9  8  1  0
 10  9  2  0
 11  9  1  0
 12 13  1  0
 12 11  1  0
 13 14  1  0
 15 14  1  6
 16 15  1  0
 16  6  1  0
 17 15  1  0
 18 17  2  0
 19 17  1  0
 20 27  1  0
 20 19  1  0
 20 21  1  1
 22 21  1  0
 23 22  2  0
 24 23  1  0
 25 24  1  0
 25 26  2  0
 26 22  1  0
 27 29  1  0
 28 27  2  0
M  END
$$$$
