TRH.pdb
     RDKit          3D

 29 29  0  0  1  0  0  0  0  0999 V2000
    6.7136  -11.0124   27.4395 C   0  0  0  0  0  0  0  0  0  0  0  0
    7.2171  -12.2096   26.6772 C   0  0  1  0  0  0  0  0  0  0  0  0
    7.6839  -13.2039   27.5317 O   0  0  0  0  0  0  0  0  0  0  0  0
    6.0614  -12.7156   25.8233 C   0  0  2  0  0  0  0  0  0  0  0  0
    4.9576  -13.1616   26.6157 N   0  0  0  0  0  0  0  0  0  0  0  0
    6.5404  -13.8163   24.9141 C   0  0  0  0  0  0  0  0  0  0  0  0
    6.3272  -15.0198   25.1725 O   0  0  0  0  0  0  0  0  0  0  0  0
    8.6615  -13.4428   16.2145 N   0  0  0  0  0  0  0  0  0  0  0  0
    8.8732  -14.7948   16.6556 C   0  0  0  0  0  0  0  0  0  0  0  0
    9.1574  -15.6990   15.7876 N   0  0  0  0  0  0  0  0  0  0  0  0
    8.7770  -15.1530   18.0204 N   0  0  0  0  0  0  0  0  0  0  0  0
    8.2436  -14.2555   19.0093 C   0  0  0  0  0  0  0  0  0  0  0  0
    8.2358  -14.8654   20.3935 C   0  0  0  0  0  0  0  0  0  0  0  0
    7.7140  -13.9629   21.4368 C   0  0  0  0  0  0  0  0  0  0  0  0
    7.8078  -14.4970   22.8382 C   0  0  2  0  0  0  0  0  0  0  0  0
    7.2397  -13.4688   23.7558 N   0  0  0  0  0  0  0  0  0  0  0  0
    9.1995  -14.7074   23.2728 C   0  0  0  0  0  0  0  0  0  0  0  0
    9.7797  -13.7582   23.9114 O   0  0  0  0  0  0  0  0  0  0  0  0
    9.2761  -16.6892   16.0299 N   0  0  0  0  0  0  0  0  0  0  0  0
    9.9482  -15.8589   23.0532 C   0  0  2  0  0  0  0  0  0  0  0  0
   10.6093  -16.5951   24.1508 C   0  0  0  0  0  0  0  0  0  0  0  0
    9.5979  -16.9297   25.2250 C   0  0  0  0  0  0  0  0  0  0  0  0
    9.8224  -16.0933   26.4182 C   0  0  0  0  0  0  0  0  0  0  0  0
   10.7511  -15.0583   26.5794 N   0  0  0  0  0  0  0  0  0  0  0  0
   10.5935  -14.5895   27.8182 C   0  0  0  0  0  0  0  0  0  0  0  0
    9.6224  -15.2565   28.4655 N   0  0  0  0  0  0  0  0  0  0  0  0
    9.1641  -16.1637   27.6069 C   0  0  0  0  0  0  0  0  0  0  0  0
   11.3224  -17.7540   23.6163 O   0  0  0  0  0  0  0  0  0  0  0  0
   12.3768  -18.1777   24.1519 O   0  0  0  0  0  0  0  0  0  0  0  0
  2  1  1  1
  2  4  1  0
  3  2  1  0
  4  6  1  0
  4  5  1  1
  6  7  2  0
  9  8  1  0
 10  9  2  0
 11  9  1  0
 12 13  1  0
 12 11  1  0
 13 14  1  0
 15 14  1  6
 16 15  1  0
 16  6  1  0
 17 15  1  0
 18 17  2  0
 19 17  1  0
 20 27  1  0
 20 19  1  0
 20 21  1  6
 22 21  1  0
 23 22  2  0
 24 23  1  0
 25 24  1  0
 25 26  2  0
 26 22  1  0
 27 29  1  0
 28 27  2  0
M  END
$$$$
