TRH.pdb
     RDKit          3D

 29 29  0  0  1  0  0  0  0  0999 V2000
   10.1078  -12.2909   18.5852 C   0  0  0  0  0  0  0  0  0  0  0  0
    9.7408  -13.2901   19.6505 C   0  0  1  0  0  0  0  0  0  0  0  0
    9.5002  -12.6722   20.8740 O   0  0  0  0  0  0  0  0  0  0  0  0
    8.5072  -14.0366   19.1588 C   0  0  2  0  0  0  0  0  0  0  0  0
    7.4163  -13.1550   18.8800 N   0  0  0  0  0  0  0  0  0  0  0  0
    8.1027  -15.0779   20.1685 C   0  0  0  0  0  0  0  0  0  0  0  0
    7.0852  -14.9410   20.8803 O   0  0  0  0  0  0  0  0  0  0  0  0
    8.8532  -23.4342   19.0038 N   0  0  0  0  0  0  0  0  0  0  0  0
    8.5467  -22.2308   19.7285 C   0  0  0  0  0  0  0  0  0  0  0  0
    7.3393  -22.0254   20.1182 N   0  0  0  0  0  0  0  0  0  0  0  0
    9.5409  -21.2691   20.0230 N   0  0  0  0  0  0  0  0  0  0  0  0
    9.8838  -20.9148   21.3739 C   0  0  0  0  0  0  0  0  0  0  0  0
    9.1798  -19.6576   21.8341 C   0  0  0  0  0  0  0  0  0  0  0  0
    9.2875  -18.5352   20.8834 C   0  0  0  0  0  0  0  0  0  0  0  0
    8.5973  -17.2726   21.3165 C   0  0  2  0  0  0  0  0  0  0  0  0
    8.8943  -16.2211   20.3026 N   0  0  0  0  0  0  0  0  0  0  0  0
    9.1079  -16.7586   22.5990 C   0  0  0  0  0  0  0  0  0  0  0  0
   10.2702  -16.2159   22.6090 O   0  0  0  0  0  0  0  0  0  0  0  0
    7.0713  -21.2354   20.7161 N   0  0  0  0  0  0  0  0  0  0  0  0
    8.4323  -16.8061   23.8140 C   0  0  2  0  0  0  0  0  0  0  0  0
    9.0688  -16.4179   25.0899 C   0  0  0  0  0  0  0  0  0  0  0  0
    8.0240  -15.8716   26.0379 C   0  0  0  0  0  0  0  0  0  0  0  0
    7.5923  -14.5297   25.6061 C   0  0  0  0  0  0  0  0  0  0  0  0
    8.1462  -13.7323   24.5975 N   0  0  0  0  0  0  0  0  0  0  0  0
    7.4315  -12.6066   24.5610 C   0  0  0  0  0  0  0  0  0  0  0  0
    6.4524  -12.6278   25.4818 N   0  0  0  0  0  0  0  0  0  0  0  0
    6.5610  -13.7971   26.1073 C   0  0  0  0  0  0  0  0  0  0  0  0
    9.8374  -17.5400   25.6262 O   0  0  0  0  0  0  0  0  0  0  0  0
    9.8327  -18.6639   25.0653 O   0  0  0  0  0  0  0  0  0  0  0  0
  2  1  1  6
  2  4  1  0
  3  2  1  0
  4  6  1  0
  4  5  1  1
  6  7  2  0
  9  8  1  0
 10  9  2  0
 11  9  1  0
 12 13  1  0
 12 11  1  0
 13 14  1  0
 15 14  1  6
 16 15  1  0
 16  6  1  0
 17 15  1  0
 18 17  2  0
 19 17  1  0
 20 27  1  0
 20 19  1  0
 20 21  1  6
 22 21  1  0
 23 22  2  0
 24 23  1  0
 25 24  1  0
 25 26  2  0
 26 22  1  0
 27 29  1  0
 28 27  2  0
M  END
$$$$
