TRH.pdb
     RDKit          3D

 29 29  0  0  1  0  0  0  0  0999 V2000
    9.1113  -20.9449   20.7712 C   0  0  0  0  0  0  0  0  0  0  0  0
    9.9121  -19.8170   20.1758 C   0  0  1  0  0  0  0  0  0  0  0  0
   10.9477  -20.2887   19.3747 O   0  0  0  0  0  0  0  0  0  0  0  0
    8.9449  -18.9552   19.3741 C   0  0  2  0  0  0  0  0  0  0  0  0
    8.3525  -19.6731   18.2884 N   0  0  0  0  0  0  0  0  0  0  0  0
    9.6515  -17.7237   18.8727 C   0  0  0  0  0  0  0  0  0  0  0  0
   10.4708  -17.7753   17.9309 O   0  0  0  0  0  0  0  0  0  0  0  0
    7.7195  -12.2895   14.4968 N   0  0  0  0  0  0  0  0  0  0  0  0
    7.1804  -13.5488   14.9336 C   0  0  0  0  0  0  0  0  0  0  0  0
    6.6790  -14.3505   14.0633 N   0  0  0  0  0  0  0  0  0  0  0  0
    7.1894  -13.9262   16.2966 N   0  0  0  0  0  0  0  0  0  0  0  0
    8.2858  -13.6058   17.1701 C   0  0  0  0  0  0  0  0  0  0  0  0
    8.0110  -13.9992   18.6045 C   0  0  0  0  0  0  0  0  0  0  0  0
    9.2240  -14.0861   19.4390 C   0  0  0  0  0  0  0  0  0  0  0  0
   10.1176  -15.2551   19.1341 C   0  0  2  0  0  0  0  0  0  0  0  0
    9.3749  -16.4990   19.4851 N   0  0  0  0  0  0  0  0  0  0  0  0
   11.3399  -15.2641   19.9562 C   0  0  0  0  0  0  0  0  0  0  0  0
   11.2652  -15.7553   21.1388 O   0  0  0  0  0  0  0  0  0  0  0  0
    6.2917  -15.2692   14.3068 N   0  0  0  0  0  0  0  0  0  0  0  0
   12.5837  -14.7853   19.5581 C   0  0  2  0  0  0  0  0  0  0  0  0
   13.8312  -15.1338   20.2693 C   0  0  0  0  0  0  0  0  0  0  0  0
   14.0510  -16.6298   20.2146 C   0  0  0  0  0  0  0  0  0  0  0  0
   13.5492  -17.2664   21.4460 C   0  0  0  0  0  0  0  0  0  0  0  0
   12.9068  -16.6547   22.5290 N   0  0  0  0  0  0  0  0  0  0  0  0
   12.6343  -17.6190   23.4094 C   0  0  0  0  0  0  0  0  0  0  0  0
   13.0603  -18.8131   22.9627 N   0  0  0  0  0  0  0  0  0  0  0  0
   13.6119  -18.5856   21.7735 C   0  0  0  0  0  0  0  0  0  0  0  0
   14.9435  -14.3445   19.7427 O   0  0  0  0  0  0  0  0  0  0  0  0
   14.8655  -13.7639   18.6315 O   0  0  0  0  0  0  0  0  0  0  0  0
  2  1  1  6
  2  4  1  0
  3  2  1  0
  4  6  1  0
  4  5  1  6
  6  7  2  0
  9  8  1  0
 10  9  2  0
 11  9  1  0
 12 13  1  0
 12 11  1  0
 13 14  1  0
 15 14  1  1
 16 15  1  0
 16  6  1  0
 17 15  1  0
 18 17  2  0
 19 17  1  0
 20 27  1  0
 20 19  1  0
 20 21  1  1
 22 21  1  0
 23 22  2  0
 24 23  1  0
 25 24  1  0
 25 26  2  0
 26 22  1  0
 27 29  1  0
 28 27  2  0
M  END
$$$$
