TRH.pdb
     RDKit          3D

 29 29  0  0  1  0  0  0  0  0999 V2000
    7.6917  -11.3383   19.7631 C   0  0  0  0  0  0  0  0  0  0  0  0
    8.0468  -12.5319   20.6100 C   0  0  1  0  0  0  0  0  0  0  0  0
    7.0517  -12.8165   21.5403 O   0  0  0  0  0  0  0  0  0  0  0  0
    8.2661  -13.7044   19.6625 C   0  0  2  0  0  0  0  0  0  0  0  0
    7.1695  -13.8857   18.7627 N   0  0  0  0  0  0  0  0  0  0  0  0
    8.5168  -14.9613   20.4529 C   0  0  0  0  0  0  0  0  0  0  0  0
    7.7293  -15.9302   20.4115 O   0  0  0  0  0  0  0  0  0  0  0  0
   15.2772  -14.2033   20.2259 N   0  0  0  0  0  0  0  0  0  0  0  0
   14.9485  -15.3373   19.4054 C   0  0  0  0  0  0  0  0  0  0  0  0
   15.1837  -15.2854   18.1430 N   0  0  0  0  0  0  0  0  0  0  0  0
   14.3739  -16.5075   19.9538 N   0  0  0  0  0  0  0  0  0  0  0  0
   13.5659  -16.4760   21.1429 C   0  0  0  0  0  0  0  0  0  0  0  0
   12.1393  -16.0626   20.8569 C   0  0  0  0  0  0  0  0  0  0  0  0
   11.1307  -16.9399   21.4802 C   0  0  0  0  0  0  0  0  0  0  0  0
    9.9632  -16.2216   22.0958 C   0  0  2  0  0  0  0  0  0  0  0  0
    9.6628  -15.0324   21.2486 N   0  0  0  0  0  0  0  0  0  0  0  0
   10.2635  -15.6994   23.4401 C   0  0  0  0  0  0  0  0  0  0  0  0
   10.4319  -14.4344   23.5697 O   0  0  0  0  0  0  0  0  0  0  0  0
   14.9687  -16.0575   17.5018 N   0  0  0  0  0  0  0  0  0  0  0  0
   10.3779  -16.4646   24.5960 C   0  0  1  0  0  0  0  0  0  0  0  0
    9.4876  -16.2783   25.7606 C   0  0  0  0  0  0  0  0  0  0  0  0
    8.0432  -16.3140   25.3118 C   0  0  0  0  0  0  0  0  0  0  0  0
    7.3963  -15.0134   25.5639 C   0  0  0  0  0  0  0  0  0  0  0  0
    7.9427  -13.8906   26.1969 N   0  0  0  0  0  0  0  0  0  0  0  0
    6.9960  -12.9509   26.1977 C   0  0  0  0  0  0  0  0  0  0  0  0
    5.8746  -13.3965   25.6057 N   0  0  0  0  0  0  0  0  0  0  0  0
    6.1304  -14.6460   25.2267 C   0  0  0  0  0  0  0  0  0  0  0  0
    9.8165  -17.2510   26.8014 O   0  0  0  0  0  0  0  0  0  0  0  0
   10.3713  -18.3434   26.5242 O   0  0  0  0  0  0  0  0  0  0  0  0
  2  1  1  6
  2  4  1  0
  3  2  1  0
  4  6  1  0
  4  5  1  1
  6  7  2  0
  9  8  1  0
 10  9  2  0
 11  9  1  0
 12 13  1  0
 12 11  1  0
 13 14  1  0
 15 14  1  6
 16 15  1  0
 16  6  1  0
 17 15  1  0
 18 17  2  0
 19 17  1  0
 20 27  1  0
 20 19  1  0
 20 21  1  1
 22 21  1  0
 23 22  2  0
 24 23  1  0
 25 24  1  0
 25 26  2  0
 26 22  1  0
 27 29  1  0
 28 27  2  0
M  END
$$$$
