QDG.pdb
     RDKit          3D

 22 21  0  0  1  0  0  0  0  0999 V2000
   19.0968  -14.6007  -17.5490 N   0  0  0  0  0  0  0  0  0  0  0  0
   17.9529  -13.7797  -17.3284 C   0  0  0  0  0  0  0  0  0  0  0  0
   16.8530  -14.3684  -17.2310 O   0  0  0  0  0  0  0  0  0  0  0  0
   18.0823  -12.3333  -17.2270 C   0  0  0  0  0  0  0  0  0  0  0  0
   19.4187  -11.7450  -17.4279 C   0  0  0  0  0  0  0  0  0  0  0  0
   20.0184  -10.9845  -16.2957 C   0  0  2  0  0  0  0  0  0  0  0  0
   19.5499  -11.2801  -14.9975 N   0  0  0  0  0  0  0  0  0  0  0  0
   19.9076   -9.5187  -16.5816 C   0  0  0  0  0  0  0  0  0  0  0  0
   20.2853   -9.0660  -17.7153 O   0  0  0  0  0  0  0  0  0  0  0  0
   19.3928   -8.6074  -15.6308 N   0  0  0  0  0  0  0  0  0  0  0  0
   19.4234   -7.1445  -15.8756 C   0  0  1  0  0  0  0  0  0  0  0  0
   18.0178   -6.6084  -15.6251 C   0  0  0  0  0  0  0  0  0  0  0  0
   17.0400   -7.1882  -16.5666 C   0  0  0  0  0  0  0  0  0  0  0  0
   17.2092   -7.0877  -17.8351 O   0  0  0  0  0  0  0  0  0  0  0  0
   20.4456   -6.5602  -15.0038 C   0  0  0  0  0  0  0  0  0  0  0  0
   20.3642   -6.7684  -13.7370 O   0  0  0  0  0  0  0  0  0  0  0  0
   15.8998   -7.8656  -16.1654 O   0  0  0  0  0  0  0  0  0  0  0  0
   21.5369   -5.7737  -15.4224 N   0  0  0  0  0  0  0  0  0  0  0  0
   22.4648   -5.2397  -14.4564 C   0  0  0  0  0  0  0  0  0  0  0  0
   21.9429   -3.9748  -13.9062 C   0  0  0  0  0  0  0  0  0  0  0  0
   22.6901   -3.2651  -12.9909 O   0  0  0  0  0  0  0  0  0  0  0  0
   20.8214   -3.5024  -14.2438 O   0  0  0  0  0  0  0  0  0  0  0  0
  2  1  1  0
  2  3  2  0
  4  2  1  0
  5  4  1  0
  6  5  1  0
  6  7  1  1
  8  6  1  0
  8 10  1  0
  9  8  2  0
 11 10  1  0
 11 15  1  0
 12 13  1  0
 11 12  1  1
 13 14  2  0
 15 18  1  0
 16 15  2  0
 17 13  1  0
 18 19  1  0
 19 20  1  0
 20 21  1  0
 22 20  2  0
M  END
$$$$
