QDG.pdb
     RDKit          3D

 22 21  0  0  1  0  0  0  0  0999 V2000
   16.9022  -12.3931  -16.3994 N   0  0  0  0  0  0  0  0  0  0  0  0
   17.9221  -12.6782  -17.3532 C   0  0  0  0  0  0  0  0  0  0  0  0
   17.6493  -13.5345  -18.2240 O   0  0  0  0  0  0  0  0  0  0  0  0
   19.2072  -11.9968  -17.2959 C   0  0  0  0  0  0  0  0  0  0  0  0
   19.4165  -11.0092  -16.2221 C   0  0  0  0  0  0  0  0  0  0  0  0
   20.7482  -10.3460  -16.1405 C   0  0  2  0  0  0  0  0  0  0  0  0
   21.8494  -11.1487  -15.7725 N   0  0  0  0  0  0  0  0  0  0  0  0
   20.6408   -9.1474  -15.2492 C   0  0  0  0  0  0  0  0  0  0  0  0
   20.2014   -9.2841  -14.0571 O   0  0  0  0  0  0  0  0  0  0  0  0
   21.0137   -7.8548  -15.6847 N   0  0  0  0  0  0  0  0  0  0  0  0
   20.8922   -6.6787  -14.7887 C   0  0  1  0  0  0  0  0  0  0  0  0
   22.3044   -6.2206  -14.4395 C   0  0  0  0  0  0  0  0  0  0  0  0
   22.2886   -5.0425  -13.5504 C   0  0  0  0  0  0  0  0  0  0  0  0
   22.2099   -3.8556  -14.0329 O   0  0  0  0  0  0  0  0  0  0  0  0
   20.0925   -5.6635  -15.4788 C   0  0  0  0  0  0  0  0  0  0  0  0
   20.3549   -5.4093  -16.7122 O   0  0  0  0  0  0  0  0  0  0  0  0
   22.3544   -5.1251  -12.1689 O   0  0  0  0  0  0  0  0  0  0  0  0
   19.0381   -4.9186  -14.9148 N   0  0  0  0  0  0  0  0  0  0  0  0
   18.4074   -3.8619  -15.6666 C   0  0  0  0  0  0  0  0  0  0  0  0
   17.3861   -3.1968  -14.8363 C   0  0  0  0  0  0  0  0  0  0  0  0
   16.7508   -2.0669  -15.3048 O   0  0  0  0  0  0  0  0  0  0  0  0
   17.0595   -3.6252  -13.6939 O   0  0  0  0  0  0  0  0  0  0  0  0
  2  1  1  0
  2  3  2  0
  4  2  1  0
  5  4  1  0
  6  5  1  0
  6  7  1  1
  8  6  1  0
  8 10  1  0
  9  8  2  0
 11 10  1  0
 11 15  1  0
 12 13  1  0
 11 12  1  6
 13 14  2  0
 15 18  1  0
 16 15  2  0
 17 13  1  0
 18 19  1  0
 19 20  1  0
 20 21  1  0
 22 20  2  0
M  END
$$$$
