QDG.pdb
     RDKit          3D

 22 21  0  0  1  0  0  0  0  0999 V2000
   15.9760  -14.4593  -16.6768 N   0  0  0  0  0  0  0  0  0  0  0  0
   17.2277  -13.9119  -17.0828 C   0  0  0  0  0  0  0  0  0  0  0  0
   17.2555  -13.3494  -18.2003 O   0  0  0  0  0  0  0  0  0  0  0  0
   18.3996  -14.0158  -16.2256 C   0  0  0  0  0  0  0  0  0  0  0  0
   19.3591  -12.8970  -16.2310 C   0  0  0  0  0  0  0  0  0  0  0  0
   18.9402  -11.6217  -15.5843 C   0  0  2  0  0  0  0  0  0  0  0  0
   17.7554  -11.0161  -16.0553 N   0  0  0  0  0  0  0  0  0  0  0  0
   20.0847  -10.6568  -15.6252 C   0  0  0  0  0  0  0  0  0  0  0  0
   21.2089  -10.9885  -15.1165 O   0  0  0  0  0  0  0  0  0  0  0  0
   19.9643   -9.3771  -16.2147 N   0  0  0  0  0  0  0  0  0  0  0  0
   21.1216   -8.4515  -16.2815 C   0  0  1  0  0  0  0  0  0  0  0  0
   21.5086   -8.3067  -17.7497 C   0  0  0  0  0  0  0  0  0  0  0  0
   22.1914   -9.5147  -18.2526 C   0  0  0  0  0  0  0  0  0  0  0  0
   21.5867  -10.3350  -19.0331 O   0  0  0  0  0  0  0  0  0  0  0  0
   20.7320   -7.1916  -15.6433 C   0  0  0  0  0  0  0  0  0  0  0  0
   19.5500   -6.7330  -15.8608 O   0  0  0  0  0  0  0  0  0  0  0  0
   23.4981   -9.8453  -17.9313 O   0  0  0  0  0  0  0  0  0  0  0  0
   21.5408   -6.4114  -14.7936 N   0  0  0  0  0  0  0  0  0  0  0  0
   21.0380   -5.1806  -14.2351 C   0  0  0  0  0  0  0  0  0  0  0  0
   22.0387   -4.5995  -13.3209 C   0  0  0  0  0  0  0  0  0  0  0  0
   21.8416   -3.3384  -12.8006 O   0  0  0  0  0  0  0  0  0  0  0  0
   23.0875   -5.2178  -12.9851 O   0  0  0  0  0  0  0  0  0  0  0  0
  2  1  1  0
  2  3  2  0
  4  2  1  0
  5  4  1  0
  6  5  1  0
  6  7  1  6
  8  6  1  0
  8 10  1  0
  9  8  2  0
 11 10  1  0
 11 15  1  0
 12 13  1  0
 11 12  1  6
 13 14  2  0
 15 18  1  0
 16 15  2  0
 17 13  1  0
 18 19  1  0
 19 20  1  0
 20 21  1  0
 22 20  2  0
M  END
$$$$
