QDG.pdb
     RDKit          3D

 22 21  0  0  1  0  0  0  0  0999 V2000
   28.8748  -21.4818  -16.3534 N   0  0  0  0  0  0  0  0  0  0  0  0
   27.9461  -20.7615  -17.1596 C   0  0  0  0  0  0  0  0  0  0  0  0
   27.9882  -20.9799  -18.3910 O   0  0  0  0  0  0  0  0  0  0  0  0
   27.0081  -19.8243  -16.5589 C   0  0  0  0  0  0  0  0  0  0  0  0
   26.9689  -19.7355  -15.0882 C   0  0  0  0  0  0  0  0  0  0  0  0
   25.8438  -20.4111  -14.3828 C   0  0  2  0  0  0  0  0  0  0  0  0
   25.7049  -21.8031  -14.5709 N   0  0  0  0  0  0  0  0  0  0  0  0
   24.5675  -19.6990  -14.7094 C   0  0  0  0  0  0  0  0  0  0  0  0
   24.4936  -18.4326  -14.5558 O   0  0  0  0  0  0  0  0  0  0  0  0
   23.4282  -20.3863  -15.1882 N   0  0  0  0  0  0  0  0  0  0  0  0
   22.1413  -19.6807  -15.4044 C   0  0  1  0  0  0  0  0  0  0  0  0
   21.9768  -19.4774  -16.9069 C   0  0  0  0  0  0  0  0  0  0  0  0
   20.7309  -18.7520  -17.2232 C   0  0  0  0  0  0  0  0  0  0  0  0
   20.4869  -17.6052  -16.7006 O   0  0  0  0  0  0  0  0  0  0  0  0
   21.0771  -20.4811  -14.7936 C   0  0  0  0  0  0  0  0  0  0  0  0
   21.2294  -21.7567  -14.7274 O   0  0  0  0  0  0  0  0  0  0  0  0
   19.7591  -19.2381  -18.0831 O   0  0  0  0  0  0  0  0  0  0  0  0
   19.8732  -19.9832  -14.2574 N   0  0  0  0  0  0  0  0  0  0  0  0
   18.8880  -20.8854  -13.7143 C   0  0  0  0  0  0  0  0  0  0  0  0
   17.7456  -20.1189  -13.1829 C   0  0  0  0  0  0  0  0  0  0  0  0
   16.6616  -20.7838  -12.6511 O   0  0  0  0  0  0  0  0  0  0  0  0
   17.7158  -18.8563  -13.1915 O   0  0  0  0  0  0  0  0  0  0  0  0
  2  1  1  0
  2  3  2  0
  4  2  1  0
  5  4  1  0
  6  5  1  0
  6  7  1  6
  8  6  1  0
  8 10  1  0
  9  8  2  0
 11 10  1  0
 11 15  1  0
 12 13  1  0
 11 12  1  6
 13 14  2  0
 15 18  1  0
 16 15  2  0
 17 13  1  0
 18 19  1  0
 19 20  1  0
 20 21  1  0
 22 20  2  0
M  END
$$$$
