QDG.pdb
     RDKit          3D

 22 21  0  0  1  0  0  0  0  0999 V2000
   18.6453  -14.8191  -15.6764 N   0  0  0  0  0  0  0  0  0  0  0  0
   17.7258  -13.9146  -16.2826 C   0  0  0  0  0  0  0  0  0  0  0  0
   16.5887  -14.3661  -16.5455 O   0  0  0  0  0  0  0  0  0  0  0  0
   18.1130  -12.5417  -16.5729 C   0  0  0  0  0  0  0  0  0  0  0  0
   19.4990  -12.1387  -16.2750 C   0  0  0  0  0  0  0  0  0  0  0  0
   19.7063  -10.8564  -15.5450 C   0  0  2  0  0  0  0  0  0  0  0  0
   18.6114   -9.9686  -15.4730 N   0  0  0  0  0  0  0  0  0  0  0  0
   20.9142  -10.1691  -16.1027 C   0  0  0  0  0  0  0  0  0  0  0  0
   22.0256  -10.7966  -16.1649 O   0  0  0  0  0  0  0  0  0  0  0  0
   20.8677   -8.8351  -16.5694 N   0  0  0  0  0  0  0  0  0  0  0  0
   22.0624   -8.1892  -17.1663 C   0  0  1  0  0  0  0  0  0  0  0  0
   21.6531   -7.6379  -18.5282 C   0  0  0  0  0  0  0  0  0  0  0  0
   22.4983   -8.1806  -19.6097 C   0  0  0  0  0  0  0  0  0  0  0  0
   22.9034   -9.3983  -19.5795 O   0  0  0  0  0  0  0  0  0  0  0  0
   22.5402   -7.1673  -16.2315 C   0  0  0  0  0  0  0  0  0  0  0  0
   23.5771   -6.4775  -16.5532 O   0  0  0  0  0  0  0  0  0  0  0  0
   22.9060   -7.4400  -20.7075 O   0  0  0  0  0  0  0  0  0  0  0  0
   21.9644   -6.8550  -14.9842 N   0  0  0  0  0  0  0  0  0  0  0  0
   22.4999   -5.7838  -14.1809 C   0  0  0  0  0  0  0  0  0  0  0  0
   21.7513   -4.5400  -14.4409 C   0  0  0  0  0  0  0  0  0  0  0  0
   22.0461   -3.3998  -13.7249 O   0  0  0  0  0  0  0  0  0  0  0  0
   20.8358   -4.4706  -15.3082 O   0  0  0  0  0  0  0  0  0  0  0  0
  2  1  1  0
  2  3  2  0
  4  2  1  0
  5  4  1  0
  6  5  1  0
  6  7  1  6
  8  6  1  0
  8 10  1  0
  9  8  2  0
 11 10  1  0
 11 15  1  0
 12 13  1  0
 11 12  1  6
 13 14  2  0
 15 18  1  0
 16 15  2  0
 17 13  1  0
 18 19  1  0
 19 20  1  0
 20 21  1  0
 22 20  2  0
M  END
$$$$
