QDG.pdb
     RDKit          3D

 22 21  0  0  1  0  0  0  0  0999 V2000
   20.8007  -12.7078  -19.0835 N   0  0  0  0  0  0  0  0  0  0  0  0
   19.7257  -13.4604  -18.5273 C   0  0  0  0  0  0  0  0  0  0  0  0
   19.6902  -14.6784  -18.8122 O   0  0  0  0  0  0  0  0  0  0  0  0
   18.7317  -12.8226  -17.6764 C   0  0  0  0  0  0  0  0  0  0  0  0
   18.8809  -11.3820  -17.4026 C   0  0  0  0  0  0  0  0  0  0  0  0
   18.8187  -10.9364  -15.9822 C   0  0  2  0  0  0  0  0  0  0  0  0
   17.7194  -11.3761  -15.2138 N   0  0  0  0  0  0  0  0  0  0  0  0
   18.9397   -9.4446  -15.9348 C   0  0  0  0  0  0  0  0  0  0  0  0
   19.9093   -8.8701  -16.5371 O   0  0  0  0  0  0  0  0  0  0  0  0
   18.0076   -8.6397  -15.2399 N   0  0  0  0  0  0  0  0  0  0  0  0
   18.1389   -7.1622  -15.2146 C   0  0  1  0  0  0  0  0  0  0  0  0
   16.7605   -6.5848  -14.9100 C   0  0  0  0  0  0  0  0  0  0  0  0
   15.8618   -6.6809  -16.0769 C   0  0  0  0  0  0  0  0  0  0  0  0
   16.1947   -6.1712  -17.2070 O   0  0  0  0  0  0  0  0  0  0  0  0
   19.1602   -6.8146  -14.2235 C   0  0  0  0  0  0  0  0  0  0  0  0
   19.0292   -7.2611  -13.0243 O   0  0  0  0  0  0  0  0  0  0  0  0
   14.6280   -7.3104  -16.0432 O   0  0  0  0  0  0  0  0  0  0  0  0
   20.3008   -6.0210  -14.4562 N   0  0  0  0  0  0  0  0  0  0  0  0
   21.2603   -5.7957  -13.4035 C   0  0  0  0  0  0  0  0  0  0  0  0
   22.4475   -5.1093  -13.9460 C   0  0  0  0  0  0  0  0  0  0  0  0
   23.4507   -4.6984  -13.0948 O   0  0  0  0  0  0  0  0  0  0  0  0
   22.5903   -4.8783  -15.1794 O   0  0  0  0  0  0  0  0  0  0  0  0
  2  1  1  0
  2  3  2  0
  4  2  1  0
  5  4  1  0
  6  5  1  0
  6  7  1  6
  8  6  1  0
  8 10  1  0
  9  8  2  0
 11 10  1  0
 11 15  1  0
 12 13  1  0
 11 12  1  1
 13 14  2  0
 15 18  1  0
 16 15  2  0
 17 13  1  0
 18 19  1  0
 19 20  1  0
 20 21  1  0
 22 20  2  0
M  END
$$$$
