QDG.pdb
     RDKit          3D

 22 21  0  0  1  0  0  0  0  0999 V2000
   17.3611  -12.8890  -16.5273 N   0  0  0  0  0  0  0  0  0  0  0  0
   18.5598  -13.6355  -16.3344 C   0  0  0  0  0  0  0  0  0  0  0  0
   18.6074  -14.7648  -16.8712 O   0  0  0  0  0  0  0  0  0  0  0  0
   19.6576  -13.0919  -15.5479 C   0  0  0  0  0  0  0  0  0  0  0  0
   19.4789  -11.7594  -14.9437 C   0  0  0  0  0  0  0  0  0  0  0  0
   19.3281  -10.5963  -15.8625 C   0  0  2  0  0  0  0  0  0  0  0  0
   20.0950  -10.6041  -17.0475 N   0  0  0  0  0  0  0  0  0  0  0  0
   19.5537   -9.3336  -15.0898 C   0  0  0  0  0  0  0  0  0  0  0  0
   18.9861   -9.1771  -13.9557 O   0  0  0  0  0  0  0  0  0  0  0  0
   20.3832   -8.2966  -15.5758 N   0  0  0  0  0  0  0  0  0  0  0  0
   20.5536   -7.0322  -14.8188 C   0  0  1  0  0  0  0  0  0  0  0  0
   22.0000   -6.9771  -14.3382 C   0  0  0  0  0  0  0  0  0  0  0  0
   22.2650   -5.7553  -13.5536 C   0  0  0  0  0  0  0  0  0  0  0  0
   22.0151   -5.7148  -12.2951 O   0  0  0  0  0  0  0  0  0  0  0  0
   20.1779   -5.9227  -15.6987 C   0  0  0  0  0  0  0  0  0  0  0  0
   20.6154   -5.9231  -16.9083 O   0  0  0  0  0  0  0  0  0  0  0  0
   22.7888   -4.5941  -14.0986 O   0  0  0  0  0  0  0  0  0  0  0  0
   19.3649   -4.8275  -15.3460 N   0  0  0  0  0  0  0  0  0  0  0  0
   19.0786   -3.7915  -16.3074 C   0  0  0  0  0  0  0  0  0  0  0  0
   20.2263   -2.8710  -16.4090 C   0  0  0  0  0  0  0  0  0  0  0  0
   20.6961   -2.2336  -15.2809 O   0  0  0  0  0  0  0  0  0  0  0  0
   20.8106   -2.6372  -17.5040 O   0  0  0  0  0  0  0  0  0  0  0  0
  2  1  1  0
  2  3  2  0
  4  2  1  0
  5  4  1  0
  6  5  1  0
  6  7  1  6
  8  6  1  0
  8 10  1  0
  9  8  2  0
 11 10  1  0
 11 15  1  0
 12 13  1  0
 11 12  1  6
 13 14  2  0
 15 18  1  0
 16 15  2  0
 17 13  1  0
 18 19  1  0
 19 20  1  0
 20 21  1  0
 22 20  2  0
M  END
$$$$
