QDG.pdb
     RDKit          3D

 22 21  0  0  1  0  0  0  0  0999 V2000
   27.2071  -22.9594  -15.7886 N   0  0  0  0  0  0  0  0  0  0  0  0
   28.4349  -22.2368  -15.8278 C   0  0  0  0  0  0  0  0  0  0  0  0
   29.4423  -22.8675  -16.2193 O   0  0  0  0  0  0  0  0  0  0  0  0
   28.4897  -20.8386  -15.4264 C   0  0  0  0  0  0  0  0  0  0  0  0
   27.2248  -20.1765  -15.0602 C   0  0  0  0  0  0  0  0  0  0  0  0
   26.1858  -20.0335  -16.1185 C   0  0  2  0  0  0  0  0  0  0  0  0
   26.5407  -19.3157  -17.2809 N   0  0  0  0  0  0  0  0  0  0  0  0
   24.9405  -19.4722  -15.5047 C   0  0  0  0  0  0  0  0  0  0  0  0
   24.9386  -18.2725  -15.0646 O   0  0  0  0  0  0  0  0  0  0  0  0
   23.7525  -20.2312  -15.3946 N   0  0  0  0  0  0  0  0  0  0  0  0
   22.5298  -19.6573  -14.7810 C   0  0  1  0  0  0  0  0  0  0  0  0
   21.4895  -19.5074  -15.8861 C   0  0  0  0  0  0  0  0  0  0  0  0
   21.7970  -18.3657  -16.7697 C   0  0  0  0  0  0  0  0  0  0  0  0
   22.2643  -17.2704  -16.2904 O   0  0  0  0  0  0  0  0  0  0  0  0
   22.1129  -20.5408  -13.6892 C   0  0  0  0  0  0  0  0  0  0  0  0
   22.2963  -21.8072  -13.8201 O   0  0  0  0  0  0  0  0  0  0  0  0
   21.6113  -18.3885  -18.1426 O   0  0  0  0  0  0  0  0  0  0  0  0
   21.5165  -20.1340  -12.4794 N   0  0  0  0  0  0  0  0  0  0  0  0
   21.1871  -21.1050  -11.4654 C   0  0  0  0  0  0  0  0  0  0  0  0
   19.9520  -21.8195  -11.8381 C   0  0  0  0  0  0  0  0  0  0  0  0
   19.4171  -22.7572  -10.9812 O   0  0  0  0  0  0  0  0  0  0  0  0
   19.3494  -21.6053  -12.9272 O   0  0  0  0  0  0  0  0  0  0  0  0
  2  1  1  0
  2  3  2  0
  4  2  1  0
  5  4  1  0
  6  5  1  0
  6  7  1  6
  8  6  1  0
  8 10  1  0
  9  8  2  0
 11 10  1  0
 11 15  1  0
 12 13  1  0
 11 12  1  6
 13 14  2  0
 15 18  1  0
 16 15  2  0
 17 13  1  0
 18 19  1  0
 19 20  1  0
 20 21  1  0
 22 20  2  0
M  END
$$$$
