QDG.pdb
     RDKit          3D

 22 21  0  0  1  0  0  0  0  0999 V2000
   12.6886  -13.4185  -10.6274 N   0  0  0  0  0  0  0  0  0  0  0  0
   12.7774  -13.6222  -12.0353 C   0  0  0  0  0  0  0  0  0  0  0  0
   12.0677  -14.5349  -12.5137 O   0  0  0  0  0  0  0  0  0  0  0  0
   13.6570  -12.7995  -12.8530 C   0  0  0  0  0  0  0  0  0  0  0  0
   14.4626  -11.7678  -12.1757 C   0  0  0  0  0  0  0  0  0  0  0  0
   15.3609  -10.9272  -13.0163 C   0  0  2  0  0  0  0  0  0  0  0  0
   16.2056  -11.5954  -13.9285 N   0  0  0  0  0  0  0  0  0  0  0  0
   16.1506  -10.0185  -12.1258 C   0  0  0  0  0  0  0  0  0  0  0  0
   17.4183   -9.9416  -12.2663 O   0  0  0  0  0  0  0  0  0  0  0  0
   15.5357   -9.2324  -11.1239 N   0  0  0  0  0  0  0  0  0  0  0  0
   16.3103   -8.2289  -10.3533 C   0  0  1  0  0  0  0  0  0  0  0  0
   17.0115   -7.3208  -11.3583 C   0  0  0  0  0  0  0  0  0  0  0  0
   17.7094   -6.2064  -10.6879 C   0  0  0  0  0  0  0  0  0  0  0  0
   18.4840   -6.4224   -9.6873 O   0  0  0  0  0  0  0  0  0  0  0  0
   15.3827   -7.5254   -9.4640 C   0  0  0  0  0  0  0  0  0  0  0  0
   14.2903   -7.0608   -9.9596 O   0  0  0  0  0  0  0  0  0  0  0  0
   17.5865   -4.8820  -11.0761 O   0  0  0  0  0  0  0  0  0  0  0  0
   15.5698   -7.3006   -8.0859 N   0  0  0  0  0  0  0  0  0  0  0  0
   14.5257   -6.6950   -7.2968 C   0  0  0  0  0  0  0  0  0  0  0  0
   14.5130   -5.2368   -7.5169 C   0  0  0  0  0  0  0  0  0  0  0  0
   13.5552   -4.4589   -6.9026 O   0  0  0  0  0  0  0  0  0  0  0  0
   15.3574   -4.6571   -8.2558 O   0  0  0  0  0  0  0  0  0  0  0  0
  2  1  1  0
  2  3  2  0
  4  2  1  0
  5  4  1  0
  6  5  1  0
  6  7  1  1
  8  6  1  0
  8 10  1  0
  9  8  2  0
 11 10  1  0
 11 15  1  0
 12 13  1  0
 11 12  1  6
 13 14  2  0
 15 18  1  0
 16 15  2  0
 17 13  1  0
 18 19  1  0
 19 20  1  0
 20 21  1  0
 22 20  2  0
M  END
$$$$
