QDG.pdb
     RDKit          3D

 22 21  0  0  1  0  0  0  0  0999 V2000
   18.6631  -16.2537  -13.8758 N   0  0  0  0  0  0  0  0  0  0  0  0
   18.1801  -16.3605  -15.2125 C   0  0  0  0  0  0  0  0  0  0  0  0
   17.7601  -17.4847  -15.5667 O   0  0  0  0  0  0  0  0  0  0  0  0
   18.1869  -15.2077  -16.1014 C   0  0  0  0  0  0  0  0  0  0  0  0
   18.7434  -13.9437  -15.5868 C   0  0  0  0  0  0  0  0  0  0  0  0
   18.7419  -12.7643  -16.4972 C   0  0  2  0  0  0  0  0  0  0  0  0
   19.6623  -12.7718  -17.5673 N   0  0  0  0  0  0  0  0  0  0  0  0
   18.8856  -11.5182  -15.6792 C   0  0  0  0  0  0  0  0  0  0  0  0
   18.2282  -11.3984  -14.5900 O   0  0  0  0  0  0  0  0  0  0  0  0
   19.7337  -10.4576  -16.0734 N   0  0  0  0  0  0  0  0  0  0  0  0
   19.9426   -9.2772  -15.1994 C   0  0  1  0  0  0  0  0  0  0  0  0
   21.4084   -8.8728  -15.3178 C   0  0  0  0  0  0  0  0  0  0  0  0
   21.7260   -7.7228  -14.4488 C   0  0  0  0  0  0  0  0  0  0  0  0
   21.4838   -7.7638  -13.1889 O   0  0  0  0  0  0  0  0  0  0  0  0
   19.0033   -8.2328  -15.6157 C   0  0  0  0  0  0  0  0  0  0  0  0
   18.8502   -8.0106  -16.8735 O   0  0  0  0  0  0  0  0  0  0  0  0
   22.2936   -6.5468  -14.9123 O   0  0  0  0  0  0  0  0  0  0  0  0
   18.2306   -7.4266  -14.7568 N   0  0  0  0  0  0  0  0  0  0  0  0
   17.2935   -6.4732  -15.2976 C   0  0  0  0  0  0  0  0  0  0  0  0
   17.8878   -5.1235  -15.2842 C   0  0  0  0  0  0  0  0  0  0  0  0
   17.1580   -4.0483  -15.7436 O   0  0  0  0  0  0  0  0  0  0  0  0
   19.0572   -4.9038  -14.8608 O   0  0  0  0  0  0  0  0  0  0  0  0
  2  1  1  0
  2  3  2  0
  4  2  1  0
  5  4  1  0
  6  5  1  0
  6  7  1  6
  8  6  1  0
  8 10  1  0
  9  8  2  0
 11 10  1  0
 11 15  1  0
 12 13  1  0
 11 12  1  6
 13 14  2  0
 15 18  1  0
 16 15  2  0
 17 13  1  0
 18 19  1  0
 19 20  1  0
 20 21  1  0
 22 20  2  0
M  END
$$$$
