QDG.pdb
     RDKit          3D

 22 21  0  0  1  0  0  0  0  0999 V2000
   18.5001  -14.4224  -18.9427 N   0  0  0  0  0  0  0  0  0  0  0  0
   18.1924  -14.9380  -17.6501 C   0  0  0  0  0  0  0  0  0  0  0  0
   17.4560  -15.9490  -17.6126 O   0  0  0  0  0  0  0  0  0  0  0  0
   18.7178  -14.3030  -16.4502 C   0  0  0  0  0  0  0  0  0  0  0  0
   19.5510  -13.0985  -16.6162 C   0  0  0  0  0  0  0  0  0  0  0  0
   19.4617  -12.0442  -15.5672 C   0  0  2  0  0  0  0  0  0  0  0  0
   18.1783  -11.7360  -15.0672 N   0  0  0  0  0  0  0  0  0  0  0  0
   20.1531  -10.8099  -16.0582 C   0  0  0  0  0  0  0  0  0  0  0  0
   21.3516  -10.8885  -16.4944 O   0  0  0  0  0  0  0  0  0  0  0  0
   19.5190   -9.5461  -16.0573 N   0  0  0  0  0  0  0  0  0  0  0  0
   20.1911   -8.3502  -16.6222 C   0  0  1  0  0  0  0  0  0  0  0  0
   19.1709   -7.6166  -17.4867 C   0  0  0  0  0  0  0  0  0  0  0  0
   18.7341   -8.4424  -18.6295 C   0  0  0  0  0  0  0  0  0  0  0  0
   19.5893   -8.9304  -19.4530 O   0  0  0  0  0  0  0  0  0  0  0  0
   20.7083   -7.5520  -15.5080 C   0  0  0  0  0  0  0  0  0  0  0  0
   19.9329   -7.3175  -14.5088 O   0  0  0  0  0  0  0  0  0  0  0  0
   17.4079   -8.7455  -18.8923 O   0  0  0  0  0  0  0  0  0  0  0  0
   22.0019   -7.0013  -15.4169 N   0  0  0  0  0  0  0  0  0  0  0  0
   22.4372   -6.3577  -14.2021 C   0  0  0  0  0  0  0  0  0  0  0  0
   21.8771   -4.9954  -14.1282 C   0  0  0  0  0  0  0  0  0  0  0  0
   22.1762   -4.1885  -13.0516 O   0  0  0  0  0  0  0  0  0  0  0  0
   21.1227   -4.5249  -15.0252 O   0  0  0  0  0  0  0  0  0  0  0  0
  2  1  1  0
  2  3  2  0
  4  2  1  0
  5  4  1  0
  6  5  1  0
  6  7  1  6
  8  6  1  0
  8 10  1  0
  9  8  2  0
 11 10  1  0
 11 15  1  0
 12 13  1  0
 11 12  1  1
 13 14  2  0
 15 18  1  0
 16 15  2  0
 17 13  1  0
 18 19  1  0
 19 20  1  0
 20 21  1  0
 22 20  2  0
M  END
$$$$
