LYN.pdb
     RDKit          3D

 29 29  0  0  1  0  0  0  0  0999 V2000
   28.4862  -20.4194  -18.9493 C   0  0  0  0  0  0  0  0  0  0  0  0
   27.9733  -21.8060  -19.2817 C   0  0  2  0  0  0  0  0  0  0  0  0
   27.4889  -21.9338  -20.6881 C   0  0  0  0  0  0  0  0  0  0  0  0
   26.9105  -22.1372  -18.2498 C   0  0  0  0  0  0  0  0  0  0  0  0
   27.6189  -22.2339  -16.9168 C   0  0  2  0  0  0  0  0  0  0  0  0
   28.5244  -23.3787  -17.0213 N   0  0  0  0  0  0  0  0  0  0  0  0
   26.7005  -22.3972  -15.7887 C   0  0  0  0  0  0  0  0  0  0  0  0
   26.2051  -23.5272  -15.5652 O   0  0  0  0  0  0  0  0  0  0  0  0
   23.2636  -20.1830   -7.8059 O   0  0  0  0  0  0  0  0  0  0  0  0
   23.9185  -20.2429   -9.0271 C   0  0  0  0  0  0  0  0  0  0  0  0
   23.3102  -19.7841  -10.1808 C   0  0  0  0  0  0  0  0  0  0  0  0
   23.9868  -19.8569  -11.3807 C   0  0  0  0  0  0  0  0  0  0  0  0
   25.2496  -20.3658  -11.5026 C   0  0  0  0  0  0  0  0  0  0  0  0
   25.9763  -20.4526  -12.7507 C   0  0  0  0  0  0  0  0  0  0  0  0
   25.5391  -21.4302  -13.7704 C   0  0  2  0  0  0  0  0  0  0  0  0
   26.3907  -21.2842  -14.9766 N   0  0  0  0  0  0  0  0  0  0  0  0
   24.1550  -21.3810  -14.2493 C   0  0  0  0  0  0  0  0  0  0  0  0
   23.8194  -20.5957  -15.2187 O   0  0  0  0  0  0  0  0  0  0  0  0
   25.8446  -20.8240  -10.3201 C   0  0  0  0  0  0  0  0  0  0  0  0
   25.1994  -20.7662   -9.1101 C   0  0  0  0  0  0  0  0  0  0  0  0
   18.9850  -24.2998  -14.9141 N   0  0  0  0  0  0  0  0  0  0  0  0
   19.5195  -23.1832  -14.2013 C   0  0  0  0  0  0  0  0  0  0  0  0
   18.7462  -22.2439  -13.9769 O   0  0  0  0  0  0  0  0  0  0  0  0
   20.9202  -23.1794  -13.7697 C   0  0  0  0  0  0  0  0  0  0  0  0
   21.7171  -22.0223  -14.2898 C   0  0  2  0  0  0  0  0  0  0  0  0
   23.0757  -22.1507  -13.7438 N   0  0  0  0  0  0  0  0  0  0  0  0
   21.1612  -20.6985  -14.0264 C   0  0  0  0  0  0  0  0  0  0  0  0
   21.3386  -20.0208  -12.9679 O   0  0  0  0  0  0  0  0  0  0  0  0
   20.3614  -20.0999  -15.0050 O   0  0  0  0  0  0  0  0  0  0  0  0
  2  1  1  1
  2  3  1  0
  2  4  1  0
  5  4  1  0
  5  7  1  0
  5  6  1  6
  7  8  2  0
  9 10  1  0
 10 11  2  0
 10 20  1  0
 11 12  1  0
 12 13  2  0
 13 14  1  0
 15 14  1  1
 15 17  1  0
 16 15  1  0
 16  7  1  0
 17 18  2  0
 17 26  1  0
 19 13  1  0
 20 19  2  0
 21 22  1  0
 22 24  1  0
 23 22  2  0
 25 24  1  1
 25 27  1  0
 26 25  1  0
 27 28  2  0
 27 29  1  0
M  END
$$$$
