LYN.pdb
     RDKit          3D

 29 29  0  0  1  0  0  0  0  0999 V2000
   27.3907  -18.5206   -5.2816 C   0  0  0  0  0  0  0  0  0  0  0  0
   27.8934  -19.9403   -5.4484 C   0  0  2  0  0  0  0  0  0  0  0  0
   29.2146  -20.1783   -4.7952 C   0  0  0  0  0  0  0  0  0  0  0  0
   27.9017  -20.2281   -6.9387 C   0  0  0  0  0  0  0  0  0  0  0  0
   26.5002  -19.9554   -7.4385 C   0  0  2  0  0  0  0  0  0  0  0  0
   25.6699  -21.0492   -6.9329 N   0  0  0  0  0  0  0  0  0  0  0  0
   26.4171  -19.8694   -8.8974 C   0  0  0  0  0  0  0  0  0  0  0  0
   27.0444  -18.9603   -9.4907 O   0  0  0  0  0  0  0  0  0  0  0  0
   26.6271  -23.1383  -17.0863 O   0  0  0  0  0  0  0  0  0  0  0  0
   26.5815  -22.8458  -15.7313 C   0  0  0  0  0  0  0  0  0  0  0  0
   27.3260  -21.8064  -15.2051 C   0  0  0  0  0  0  0  0  0  0  0  0
   27.2598  -21.5396  -13.8533 C   0  0  0  0  0  0  0  0  0  0  0  0
   26.4866  -22.2551  -12.9822 C   0  0  0  0  0  0  0  0  0  0  0  0
   26.4037  -21.9932  -11.5618 C   0  0  0  0  0  0  0  0  0  0  0  0
   25.6237  -20.8288  -11.0900 C   0  0  2  0  0  0  0  0  0  0  0  0
   25.6355  -20.8079   -9.6065 N   0  0  0  0  0  0  0  0  0  0  0  0
   24.2158  -20.7158  -11.4807 C   0  0  0  0  0  0  0  0  0  0  0  0
   23.2881  -21.2720  -10.7743 O   0  0  0  0  0  0  0  0  0  0  0  0
   25.7418  -23.3027  -13.5392 C   0  0  0  0  0  0  0  0  0  0  0  0
   25.7847  -23.5948  -14.8795 C   0  0  0  0  0  0  0  0  0  0  0  0
   19.6459  -19.4143  -13.6885 N   0  0  0  0  0  0  0  0  0  0  0  0
   20.6541  -18.4786  -14.0737 C   0  0  0  0  0  0  0  0  0  0  0  0
   20.2784  -17.4844  -14.7069 O   0  0  0  0  0  0  0  0  0  0  0  0
   22.0575  -18.7122  -13.7212 C   0  0  0  0  0  0  0  0  0  0  0  0
   22.2864  -19.9527  -12.9130 C   0  0  2  0  0  0  0  0  0  0  0  0
   23.7238  -20.0155  -12.6122 N   0  0  0  0  0  0  0  0  0  0  0  0
   21.8136  -21.1973  -13.5115 C   0  0  0  0  0  0  0  0  0  0  0  0
   20.6885  -21.7418  -13.2904 O   0  0  0  0  0  0  0  0  0  0  0  0
   22.6489  -21.8697  -14.4092 O   0  0  0  0  0  0  0  0  0  0  0  0
  2  1  1  6
  2  3  1  0
  2  4  1  0
  5  4  1  0
  5  7  1  0
  5  6  1  6
  7  8  2  0
  9 10  1  0
 10 11  2  0
 10 20  1  0
 11 12  1  0
 12 13  2  0
 13 14  1  0
 15 14  1  1
 15 17  1  0
 16 15  1  0
 16  7  1  0
 17 18  2  0
 17 26  1  0
 19 13  1  0
 20 19  2  0
 21 22  1  0
 22 24  1  0
 23 22  2  0
 25 24  1  6
 25 27  1  0
 26 25  1  0
 27 28  2  0
 27 29  1  0
M  END
$$$$
