LYN.pdb
     RDKit          3D

 29 29  0  0  1  0  0  0  0  0999 V2000
   28.7495  -12.7221  -18.1951 C   0  0  0  0  0  0  0  0  0  0  0  0
   27.9177  -12.8457  -19.4557 C   0  0  2  0  0  0  0  0  0  0  0  0
   28.4907  -12.1004  -20.6154 C   0  0  0  0  0  0  0  0  0  0  0  0
   26.5111  -12.4033  -19.0955 C   0  0  0  0  0  0  0  0  0  0  0  0
   26.0490  -13.3062  -17.9733 C   0  0  2  0  0  0  0  0  0  0  0  0
   26.0248  -14.6605  -18.5269 N   0  0  0  0  0  0  0  0  0  0  0  0
   24.7358  -12.9367  -17.4424 C   0  0  0  0  0  0  0  0  0  0  0  0
   23.7188  -13.1169  -18.1532 O   0  0  0  0  0  0  0  0  0  0  0  0
   21.7006  -18.2920  -14.4429 O   0  0  0  0  0  0  0  0  0  0  0  0
   22.0845  -16.9600  -14.3967 C   0  0  0  0  0  0  0  0  0  0  0  0
   23.4088  -16.6102  -14.2086 C   0  0  0  0  0  0  0  0  0  0  0  0
   23.7600  -15.2768  -14.1671 C   0  0  0  0  0  0  0  0  0  0  0  0
   22.8598  -14.2571  -14.3034 C   0  0  0  0  0  0  0  0  0  0  0  0
   23.2064  -12.8531  -14.2617 C   0  0  0  0  0  0  0  0  0  0  0  0
   23.3188  -12.1026  -15.5309 C   0  0  2  0  0  0  0  0  0  0  0  0
   24.6392  -12.3867  -16.1453 N   0  0  0  0  0  0  0  0  0  0  0  0
   23.1966  -10.6425  -15.5020 C   0  0  0  0  0  0  0  0  0  0  0  0
   24.2110   -9.9011  -15.2015 O   0  0  0  0  0  0  0  0  0  0  0  0
   21.5248  -14.6369  -14.4928 C   0  0  0  0  0  0  0  0  0  0  0  0
   21.1416  -15.9539  -14.5390 C   0  0  0  0  0  0  0  0  0  0  0  0
   21.7089   -5.7054  -17.9945 N   0  0  0  0  0  0  0  0  0  0  0  0
   21.0961   -6.4862  -16.9671 C   0  0  0  0  0  0  0  0  0  0  0  0
   20.4196   -5.8743  -16.1314 O   0  0  0  0  0  0  0  0  0  0  0  0
   21.2783   -7.9401  -16.9311 C   0  0  0  0  0  0  0  0  0  0  0  0
   21.9945   -8.4364  -15.7124 C   0  0  2  0  0  0  0  0  0  0  0  0
   22.0205   -9.9039  -15.7918 N   0  0  0  0  0  0  0  0  0  0  0  0
   21.4596   -7.9827  -14.4322 C   0  0  0  0  0  0  0  0  0  0  0  0
   20.7069   -8.6587  -13.6656 O   0  0  0  0  0  0  0  0  0  0  0  0
   21.7872   -6.6987  -13.9854 O   0  0  0  0  0  0  0  0  0  0  0  0
  2  1  1  1
  2  3  1  0
  2  4  1  0
  5  4  1  0
  5  7  1  0
  5  6  1  6
  7  8  2  0
  9 10  1  0
 10 11  2  0
 10 20  1  0
 11 12  1  0
 12 13  2  0
 13 14  1  0
 15 14  1  1
 15 17  1  0
 16 15  1  0
 16  7  1  0
 17 18  2  0
 17 26  1  0
 19 13  1  0
 20 19  2  0
 21 22  1  0
 22 24  1  0
 23 22  2  0
 25 24  1  6
 25 27  1  0
 26 25  1  0
 27 28  2  0
 27 29  1  0
M  END
$$$$
