LYN.pdb
     RDKit          3D

 29 29  0  0  1  0  0  0  0  0999 V2000
   28.5780  -17.9578  -14.9317 C   0  0  0  0  0  0  0  0  0  0  0  0
   28.2872  -19.0820  -15.9053 C   0  0  2  0  0  0  0  0  0  0  0  0
   28.3311  -18.6506  -17.3339 C   0  0  0  0  0  0  0  0  0  0  0  0
   26.9503  -19.6756  -15.4998 C   0  0  0  0  0  0  0  0  0  0  0  0
   27.1582  -20.3240  -14.1491 C   0  0  2  0  0  0  0  0  0  0  0  0
   28.1466  -21.3831  -14.3559 N   0  0  0  0  0  0  0  0  0  0  0  0
   25.9251  -20.8666  -13.5765 C   0  0  0  0  0  0  0  0  0  0  0  0
   25.4949  -21.9692  -13.9905 O   0  0  0  0  0  0  0  0  0  0  0  0
   18.7850  -20.8644   -8.0885 O   0  0  0  0  0  0  0  0  0  0  0  0
   19.9808  -20.6302   -8.7511 C   0  0  0  0  0  0  0  0  0  0  0  0
   20.0252  -19.8134   -9.8657 C   0  0  0  0  0  0  0  0  0  0  0  0
   21.2295  -19.5995  -10.5036 C   0  0  0  0  0  0  0  0  0  0  0  0
   22.4079  -20.1573  -10.0929 C   0  0  0  0  0  0  0  0  0  0  0  0
   23.6808  -19.9472  -10.7477 C   0  0  0  0  0  0  0  0  0  0  0  0
   23.9373  -20.6036  -12.0477 C   0  0  2  0  0  0  0  0  0  0  0  0
   25.2459  -20.1416  -12.5728 N   0  0  0  0  0  0  0  0  0  0  0  0
   22.9778  -20.4109  -13.1385 C   0  0  0  0  0  0  0  0  0  0  0  0
   23.0726  -19.3935  -13.9290 O   0  0  0  0  0  0  0  0  0  0  0  0
   22.3370  -20.9806   -8.9618 C   0  0  0  0  0  0  0  0  0  0  0  0
   21.1555  -21.2144   -8.3038 C   0  0  0  0  0  0  0  0  0  0  0  0
   19.7042  -22.7644  -17.3686 N   0  0  0  0  0  0  0  0  0  0  0  0
   20.3963  -21.6286  -16.8477 C   0  0  0  0  0  0  0  0  0  0  0  0
   20.1817  -20.5434  -17.4016 O   0  0  0  0  0  0  0  0  0  0  0  0
   21.3102  -21.7732  -15.7108 C   0  0  0  0  0  0  0  0  0  0  0  0
   20.9367  -20.9481  -14.5174 C   0  0  2  0  0  0  0  0  0  0  0  0
   21.8936  -21.2714  -13.4496 N   0  0  0  0  0  0  0  0  0  0  0  0
   19.5586  -21.0857  -14.0560 C   0  0  0  0  0  0  0  0  0  0  0  0
   19.1621  -21.8689  -13.1392 O   0  0  0  0  0  0  0  0  0  0  0  0
   18.5688  -20.3007  -14.6557 O   0  0  0  0  0  0  0  0  0  0  0  0
  2  1  1  1
  2  3  1  0
  2  4  1  0
  5  4  1  0
  5  7  1  0
  5  6  1  6
  7  8  2  0
  9 10  1  0
 10 11  2  0
 10 20  1  0
 11 12  1  0
 12 13  2  0
 13 14  1  0
 15 14  1  1
 15 17  1  0
 16 15  1  0
 16  7  1  0
 17 18  2  0
 17 26  1  0
 19 13  1  0
 20 19  2  0
 21 22  1  0
 22 24  1  0
 23 22  2  0
 25 24  1  6
 25 27  1  0
 26 25  1  0
 27 28  2  0
 27 29  1  0
M  END
$$$$
