LYN.pdb
     RDKit          3D

 29 29  0  0  1  0  0  0  0  0999 V2000
   27.7433  -39.2429   -6.7409 C   0  0  0  0  0  0  0  0  0  0  0  0
   29.0226  -39.7315   -6.0919 C   0  0  2  0  0  0  0  0  0  0  0  0
   28.9030  -41.1017   -5.5114 C   0  0  0  0  0  0  0  0  0  0  0  0
   29.4226  -38.6816   -5.0712 C   0  0  0  0  0  0  0  0  0  0  0  0
   29.4984  -37.3656   -5.8132 C   0  0  2  0  0  0  0  0  0  0  0  0
   30.7332  -37.4129   -6.5970 N   0  0  0  0  0  0  0  0  0  0  0  0
   29.4901  -36.2032   -4.9235 C   0  0  0  0  0  0  0  0  0  0  0  0
   30.4098  -36.0745   -4.0810 O   0  0  0  0  0  0  0  0  0  0  0  0
   24.6361  -32.0355   -9.0808 O   0  0  0  0  0  0  0  0  0  0  0  0
   25.5882  -32.2299   -8.0910 C   0  0  0  0  0  0  0  0  0  0  0  0
   25.2957  -31.9690   -6.7652 C   0  0  0  0  0  0  0  0  0  0  0  0
   26.2635  -32.1719   -5.8033 C   0  0  0  0  0  0  0  0  0  0  0  0
   27.5218  -32.6250   -6.0860 C   0  0  0  0  0  0  0  0  0  0  0  0
   28.5514  -32.8433   -5.0934 C   0  0  0  0  0  0  0  0  0  0  0  0
   28.4538  -34.0203   -4.2035 C   0  0  2  0  0  0  0  0  0  0  0  0
   28.4513  -35.2525   -5.0300 N   0  0  0  0  0  0  0  0  0  0  0  0
   27.2989  -34.1362   -3.3087 C   0  0  0  0  0  0  0  0  0  0  0  0
   27.1137  -33.2834   -2.3562 O   0  0  0  0  0  0  0  0  0  0  0  0
   27.7938  -32.8821   -7.4359 C   0  0  0  0  0  0  0  0  0  0  0  0
   26.8540  -32.6909   -8.4177 C   0  0  0  0  0  0  0  0  0  0  0  0
   21.9617  -36.4785   -2.4308 N   0  0  0  0  0  0  0  0  0  0  0  0
   22.6836  -35.2461   -2.4508 C   0  0  0  0  0  0  0  0  0  0  0  0
   22.2211  -34.3188   -1.7748 O   0  0  0  0  0  0  0  0  0  0  0  0
   23.9098  -35.1166   -3.2433 C   0  0  0  0  0  0  0  0  0  0  0  0
   25.1691  -35.1623   -2.4330 C   0  0  2  0  0  0  0  0  0  0  0  0
   26.2944  -35.1357   -3.3781 N   0  0  0  0  0  0  0  0  0  0  0  0
   25.2843  -36.2794   -1.5004 C   0  0  0  0  0  0  0  0  0  0  0  0
   25.8298  -37.3976   -1.7521 O   0  0  0  0  0  0  0  0  0  0  0  0
   24.7588  -36.1351   -0.2126 O   0  0  0  0  0  0  0  0  0  0  0  0
  2  1  1  1
  2  3  1  0
  2  4  1  0
  5  4  1  0
  5  7  1  0
  5  6  1  1
  7  8  2  0
  9 10  1  0
 10 11  2  0
 10 20  1  0
 11 12  1  0
 12 13  2  0
 13 14  1  0
 15 14  1  6
 15 17  1  0
 16 15  1  0
 16  7  1  0
 17 18  2  0
 17 26  1  0
 19 13  1  0
 20 19  2  0
 21 22  1  0
 22 24  1  0
 23 22  2  0
 25 24  1  6
 25 27  1  0
 26 25  1  0
 27 28  2  0
 27 29  1  0
M  END
$$$$
