LYN.pdb
     RDKit          3D

 29 29  0  0  1  0  0  0  0  0999 V2000
   21.2428  -15.4122  -23.0632 C   0  0  0  0  0  0  0  0  0  0  0  0
   21.3095  -16.6095  -22.1367 C   0  0  2  0  0  0  0  0  0  0  0  0
   20.9346  -17.8919  -22.8028 C   0  0  0  0  0  0  0  0  0  0  0  0
   20.4398  -16.2816  -20.9366 C   0  0  0  0  0  0  0  0  0  0  0  0
   20.9528  -14.9734  -20.3767 C   0  0  2  0  0  0  0  0  0  0  0  0
   22.3371  -15.2210  -19.9721 N   0  0  0  0  0  0  0  0  0  0  0  0
   20.1603  -14.4811  -19.2488 C   0  0  0  0  0  0  0  0  0  0  0  0
   18.9100  -14.4690  -19.3420 O   0  0  0  0  0  0  0  0  0  0  0  0
   19.6532  -19.7865  -14.9063 O   0  0  0  0  0  0  0  0  0  0  0  0
   19.9039  -18.4368  -15.1040 C   0  0  0  0  0  0  0  0  0  0  0  0
   21.1226  -18.0067  -15.5951 C   0  0  0  0  0  0  0  0  0  0  0  0
   21.3424  -16.6576  -15.7812 C   0  0  0  0  0  0  0  0  0  0  0  0
   20.4091  -15.6981  -15.5040 C   0  0  0  0  0  0  0  0  0  0  0  0
   20.6192  -14.2789  -15.6904 C   0  0  0  0  0  0  0  0  0  0  0  0
   20.0456  -13.6180  -16.8824 C   0  0  2  0  0  0  0  0  0  0  0  0
   20.8157  -14.0308  -18.0816 N   0  0  0  0  0  0  0  0  0  0  0  0
   19.9953  -12.1540  -16.9235 C   0  0  0  0  0  0  0  0  0  0  0  0
   21.0387  -11.4666  -17.2519 O   0  0  0  0  0  0  0  0  0  0  0  0
   19.1827  -16.1587  -15.0077 C   0  0  0  0  0  0  0  0  0  0  0  0
   18.9314  -17.4935  -14.8109 C   0  0  0  0  0  0  0  0  0  0  0  0
   15.6540   -8.4822  -17.8421 N   0  0  0  0  0  0  0  0  0  0  0  0
   16.5582   -9.4856  -17.3772 C   0  0  0  0  0  0  0  0  0  0  0  0
   16.0872  -10.3620  -16.6419 O   0  0  0  0  0  0  0  0  0  0  0  0
   17.9701   -9.4520  -17.7693 C   0  0  0  0  0  0  0  0  0  0  0  0
   18.9145   -9.8881  -16.6912 C   0  0  2  0  0  0  0  0  0  0  0  0
   18.8589  -11.3557  -16.6332 N   0  0  0  0  0  0  0  0  0  0  0  0
   18.6942   -9.2953  -15.3756 C   0  0  0  0  0  0  0  0  0  0  0  0
   18.1705   -9.8828  -14.3797 O   0  0  0  0  0  0  0  0  0  0  0  0
   19.0833   -7.9689  -15.1637 O   0  0  0  0  0  0  0  0  0  0  0  0
  2  1  1  6
  2  3  1  0
  2  4  1  0
  5  4  1  0
  5  7  1  0
  5  6  1  1
  7  8  2  0
  9 10  1  0
 10 11  2  0
 10 20  1  0
 11 12  1  0
 12 13  2  0
 13 14  1  0
 15 14  1  1
 15 17  1  0
 16 15  1  0
 16  7  1  0
 17 18  2  0
 17 26  1  0
 19 13  1  0
 20 19  2  0
 21 22  1  0
 22 24  1  0
 23 22  2  0
 25 24  1  6
 25 27  1  0
 26 25  1  0
 27 28  2  0
 27 29  1  0
M  END
$$$$
