LYN.pdb
     RDKit          3D

 29 29  0  0  1  0  0  0  0  0999 V2000
   27.8609  -20.4636   -4.0664 C   0  0  0  0  0  0  0  0  0  0  0  0
   28.1154  -20.4903   -5.5600 C   0  0  2  0  0  0  0  0  0  0  0  0
   29.0770  -19.4420   -6.0129 C   0  0  0  0  0  0  0  0  0  0  0  0
   26.7596  -20.3913   -6.2355 C   0  0  0  0  0  0  0  0  0  0  0  0
   26.8929  -21.0839   -7.5737 C   0  0  2  0  0  0  0  0  0  0  0  0
   28.3293  -21.2123   -7.8221 N   0  0  0  0  0  0  0  0  0  0  0  0
   26.2383  -20.3585   -8.6637 C   0  0  0  0  0  0  0  0  0  0  0  0
   25.9221  -19.1574   -8.4924 O   0  0  0  0  0  0  0  0  0  0  0  0
   28.0110  -18.2062  -16.9749 O   0  0  0  0  0  0  0  0  0  0  0  0
   27.8272  -18.7234  -15.7011 C   0  0  0  0  0  0  0  0  0  0  0  0
   27.6621  -17.8863  -14.6133 C   0  0  0  0  0  0  0  0  0  0  0  0
   27.4812  -18.4304  -13.3586 C   0  0  0  0  0  0  0  0  0  0  0  0
   27.4545  -19.7758  -13.1188 C   0  0  0  0  0  0  0  0  0  0  0  0
   27.2675  -20.3670  -11.8116 C   0  0  0  0  0  0  0  0  0  0  0  0
   25.9401  -20.2787  -11.1661 C   0  0  2  0  0  0  0  0  0  0  0  0
   25.9762  -21.0220   -9.8825 N   0  0  0  0  0  0  0  0  0  0  0  0
   24.7682  -20.7827  -11.8876 C   0  0  0  0  0  0  0  0  0  0  0  0
   24.4658  -22.0384  -11.8601 O   0  0  0  0  0  0  0  0  0  0  0  0
   27.6239  -20.6030  -14.2366 C   0  0  0  0  0  0  0  0  0  0  0  0
   27.8060  -20.0945  -15.4982 C   0  0  0  0  0  0  0  0  0  0  0  0
   21.3957  -22.9382  -12.7394 N   0  0  0  0  0  0  0  0  0  0  0  0
   20.8448  -21.6825  -12.3393 C   0  0  0  0  0  0  0  0  0  0  0  0
   19.7910  -21.7176  -11.6921 O   0  0  0  0  0  0  0  0  0  0  0  0
   21.5183  -20.4297  -12.6933 C   0  0  0  0  0  0  0  0  0  0  0  0
   22.7973  -20.6161  -13.4509 C   0  0  2  0  0  0  0  0  0  0  0  0
   23.8674  -19.9993  -12.6542 N   0  0  0  0  0  0  0  0  0  0  0  0
   22.8014  -20.1179  -14.8229 C   0  0  0  0  0  0  0  0  0  0  0  0
   23.2568  -18.9943  -15.1988 O   0  0  0  0  0  0  0  0  0  0  0  0
   22.2650  -20.9249  -15.8313 O   0  0  0  0  0  0  0  0  0  0  0  0
  2  1  1  1
  2  3  1  0
  2  4  1  0
  5  4  1  0
  5  7  1  0
  5  6  1  6
  7  8  2  0
  9 10  1  0
 10 11  2  0
 10 20  1  0
 11 12  1  0
 12 13  2  0
 13 14  1  0
 15 14  1  6
 15 17  1  0
 16 15  1  0
 16  7  1  0
 17 18  2  0
 17 26  1  0
 19 13  1  0
 20 19  2  0
 21 22  1  0
 22 24  1  0
 23 22  2  0
 25 24  1  1
 25 27  1  0
 26 25  1  0
 27 28  2  0
 27 29  1  0
M  END
$$$$
