LYN.pdb
     RDKit          3D

 29 29  0  0  1  0  0  0  0  0999 V2000
   28.2714  -20.9767  -20.1480 C   0  0  0  0  0  0  0  0  0  0  0  0
   29.3718  -21.2030  -19.1310 C   0  0  2  0  0  0  0  0  0  0  0  0
   30.5544  -21.9210  -19.6922 C   0  0  0  0  0  0  0  0  0  0  0  0
   28.7375  -21.9223  -17.9545 C   0  0  0  0  0  0  0  0  0  0  0  0
   27.5088  -21.1264  -17.5739 C   0  0  2  0  0  0  0  0  0  0  0  0
   27.9440  -19.7328  -17.4731 N   0  0  0  0  0  0  0  0  0  0  0  0
   26.8998  -21.5741  -16.3203 C   0  0  0  0  0  0  0  0  0  0  0  0
   26.5847  -22.7810  -16.1932 O   0  0  0  0  0  0  0  0  0  0  0  0
   24.1779  -20.7422   -7.7915 O   0  0  0  0  0  0  0  0  0  0  0  0
   24.7401  -20.6139   -9.0530 C   0  0  0  0  0  0  0  0  0  0  0  0
   24.0481  -19.9954  -10.0778 C   0  0  0  0  0  0  0  0  0  0  0  0
   24.6336  -19.8829  -11.3218 C   0  0  0  0  0  0  0  0  0  0  0  0
   25.8833  -20.3554  -11.6107 C   0  0  0  0  0  0  0  0  0  0  0  0
   26.5150  -20.2491  -12.9079 C   0  0  0  0  0  0  0  0  0  0  0  0
   25.9752  -21.0367  -14.0369 C   0  0  2  0  0  0  0  0  0  0  0  0
   26.6795  -20.6426  -15.2819 N   0  0  0  0  0  0  0  0  0  0  0  0
   24.5444  -20.9473  -14.3411 C   0  0  0  0  0  0  0  0  0  0  0  0
   24.0868  -19.9996  -15.0904 O   0  0  0  0  0  0  0  0  0  0  0  0
   26.5641  -20.9778  -10.5563 C   0  0  0  0  0  0  0  0  0  0  0  0
   26.0107  -21.1063   -9.3070 C   0  0  0  0  0  0  0  0  0  0  0  0
   19.4700  -23.7417  -15.6001 N   0  0  0  0  0  0  0  0  0  0  0  0
   20.0458  -22.9545  -14.5564 C   0  0  0  0  0  0  0  0  0  0  0  0
   19.2688  -22.2613  -13.8884 O   0  0  0  0  0  0  0  0  0  0  0  0
   21.4908  -22.9874  -14.3126 C   0  0  0  0  0  0  0  0  0  0  0  0
   22.1226  -21.6337  -14.1995 C   0  0  2  0  0  0  0  0  0  0  0  0
   23.5430  -21.8427  -13.8846 N   0  0  0  0  0  0  0  0  0  0  0  0
   21.4969  -20.7178  -13.2505 C   0  0  0  0  0  0  0  0  0  0  0  0
   21.6245  -20.7621  -11.9884 O   0  0  0  0  0  0  0  0  0  0  0  0
   20.6822  -19.6938  -13.7440 O   0  0  0  0  0  0  0  0  0  0  0  0
  2  1  1  6
  2  3  1  0
  2  4  1  0
  5  4  1  0
  5  7  1  0
  5  6  1  1
  7  8  2  0
  9 10  1  0
 10 11  2  0
 10 20  1  0
 11 12  1  0
 12 13  2  0
 13 14  1  0
 15 14  1  1
 15 17  1  0
 16 15  1  0
 16  7  1  0
 17 18  2  0
 17 26  1  0
 19 13  1  0
 20 19  2  0
 21 22  1  0
 22 24  1  0
 23 22  2  0
 25 24  1  1
 25 27  1  0
 26 25  1  0
 27 28  2  0
 27 29  1  0
M  END
$$$$
