LYN.pdb
     RDKit          3D

 29 29  0  0  1  0  0  0  0  0999 V2000
   30.0360  -21.1184  -18.6415 C   0  0  0  0  0  0  0  0  0  0  0  0
   28.7491  -20.6919  -19.3185 C   0  0  2  0  0  0  0  0  0  0  0  0
   28.9721  -19.9580  -20.5993 C   0  0  0  0  0  0  0  0  0  0  0  0
   27.9641  -19.8890  -18.2971 C   0  0  0  0  0  0  0  0  0  0  0  0
   27.9208  -20.7216  -17.0350 C   0  0  2  0  0  0  0  0  0  0  0  0
   27.5577  -22.0755  -17.4550 N   0  0  0  0  0  0  0  0  0  0  0  0
   26.9728  -20.2119  -16.0428 C   0  0  0  0  0  0  0  0  0  0  0  0
   27.0527  -19.0133  -15.6835 O   0  0  0  0  0  0  0  0  0  0  0  0
   19.9504  -16.8753  -16.5143 O   0  0  0  0  0  0  0  0  0  0  0  0
   20.8445  -17.8749  -16.1606 C   0  0  0  0  0  0  0  0  0  0  0  0
   20.8863  -18.3635  -14.8679 C   0  0  0  0  0  0  0  0  0  0  0  0
   21.7866  -19.3579  -14.5463 C   0  0  0  0  0  0  0  0  0  0  0  0
   22.6595  -19.9023  -15.4463 C   0  0  0  0  0  0  0  0  0  0  0  0
   23.6121  -20.9443  -15.1299 C   0  0  0  0  0  0  0  0  0  0  0  0
   24.9386  -20.5674  -14.5961 C   0  0  2  0  0  0  0  0  0  0  0  0
   25.9903  -21.0757  -15.5111 N   0  0  0  0  0  0  0  0  0  0  0  0
   25.3178  -21.0255  -13.2567 C   0  0  0  0  0  0  0  0  0  0  0  0
   25.6013  -22.2671  -13.0394 O   0  0  0  0  0  0  0  0  0  0  0  0
   22.5980  -19.3909  -16.7490 C   0  0  0  0  0  0  0  0  0  0  0  0
   21.7144  -18.4019  -17.1024 C   0  0  0  0  0  0  0  0  0  0  0  0
   28.0909  -20.2827   -8.0770 N   0  0  0  0  0  0  0  0  0  0  0  0
   26.7731  -20.2297   -8.6258 C   0  0  0  0  0  0  0  0  0  0  0  0
   25.8396  -20.4977   -7.8595 O   0  0  0  0  0  0  0  0  0  0  0  0
   26.5684  -19.8717  -10.0323 C   0  0  0  0  0  0  0  0  0  0  0  0
   25.6387  -20.7882  -10.7673 C   0  0  2  0  0  0  0  0  0  0  0  0
   25.4232  -20.2093  -12.1011 N   0  0  0  0  0  0  0  0  0  0  0  0
   24.3719  -21.0757  -10.1015 C   0  0  0  0  0  0  0  0  0  0  0  0
   23.2663  -20.4986  -10.3379 O   0  0  0  0  0  0  0  0  0  0  0  0
   24.3422  -22.0664   -9.1150 O   0  0  0  0  0  0  0  0  0  0  0  0
  2  1  1  1
  2  3  1  0
  2  4  1  0
  5  4  1  0
  5  7  1  0
  5  6  1  6
  7  8  2  0
  9 10  1  0
 10 11  2  0
 10 20  1  0
 11 12  1  0
 12 13  2  0
 13 14  1  0
 15 14  1  6
 15 17  1  0
 16 15  1  0
 16  7  1  0
 17 18  2  0
 17 26  1  0
 19 13  1  0
 20 19  2  0
 21 22  1  0
 22 24  1  0
 23 22  2  0
 25 24  1  1
 25 27  1  0
 26 25  1  0
 27 28  2  0
 27 29  1  0
M  END
$$$$
