HAR.pdb
     RDKit          3D

 27 27  0  0  1  0  0  0  0  0999 V2000
   19.9668  -13.2716  -17.3634 N   0  0  0  0  0  0  0  0  0  0  0  0
   20.8790  -12.2000  -17.7024 C   0  0  1  0  0  0  0  0  0  0  0  0
   20.3382  -11.4097  -18.8643 C   0  0  0  0  0  0  0  0  0  0  0  0
   20.2373  -12.2884  -20.0492 C   0  0  0  0  0  0  0  0  0  0  0  0
   19.1370  -12.9355  -20.5624 C   0  0  0  0  0  0  0  0  0  0  0  0
   19.4904  -13.6401  -21.6674 N   0  0  0  0  0  0  0  0  0  0  0  0
   20.8031  -13.4288  -21.8354 C   0  0  0  0  0  0  0  0  0  0  0  0
   21.2589  -12.6096  -20.8560 N   0  0  0  0  0  0  0  0  0  0  0  0
   21.1898  -11.3446  -16.5312 C   0  0  0  0  0  0  0  0  0  0  0  0
   20.2692  -10.8613  -15.8217 O   0  0  0  0  0  0  0  0  0  0  0  0
   24.3170  -10.1841  -14.6966 C   0  0  0  0  0  0  0  0  0  0  0  0
   22.8791  -10.1098  -15.0964 C   0  0  2  0  0  0  0  0  0  0  0  0
   22.5184  -11.0201  -16.1395 N   0  0  0  0  0  0  0  0  0  0  0  0
   22.4231   -8.7131  -15.3760 C   0  0  0  0  0  0  0  0  0  0  0  0
   22.5272   -8.2484  -16.5339 O   0  0  0  0  0  0  0  0  0  0  0  0
   15.1786   -4.3850  -15.0916 N   0  0  0  0  0  0  0  0  0  0  0  0
   16.1149   -3.3648  -15.3547 C   0  0  0  0  0  0  0  0  0  0  0  0
   15.6889   -2.1596  -15.6477 N   0  0  0  0  0  0  0  0  0  0  0  0
   17.5253   -3.6194  -15.3084 N   0  0  0  0  0  0  0  0  0  0  0  0
   17.9297   -4.9532  -14.9441 C   0  0  0  0  0  0  0  0  0  0  0  0
   19.4485   -5.0628  -14.9115 C   0  0  0  0  0  0  0  0  0  0  0  0
   19.9123   -6.4410  -14.5977 C   0  0  0  0  0  0  0  0  0  0  0  0
   21.3917   -6.5349  -14.5891 C   0  0  2  0  0  0  0  0  0  0  0  0
   21.8719   -7.8869  -14.3686 N   0  0  0  0  0  0  0  0  0  0  0  0
   21.9874   -5.5633  -13.6833 C   0  0  0  0  0  0  0  0  0  0  0  0
   22.2789   -5.9778  -12.5071 O   0  0  0  0  0  0  0  0  0  0  0  0
   22.2814   -4.2442  -13.9308 O   0  0  0  0  0  0  0  0  0  0  0  0
  2  1  1  1
  2  9  1  0
  3  2  1  0
  3  4  1  0
  4  5  2  0
  4  8  1  0
  5  6  1  0
  6  7  1  0
  8  7  2  0
  9 10  2  0
 12 11  1  6
 12 14  1  0
 13 12  1  0
 13  9  1  0
 14 15  2  0
 17 18  2  0
 17 16  1  0
 19 20  1  0
 19 17  1  0
 20 21  1  0
 21 22  1  0
 23 22  1  1
 23 25  1  0
 24 23  1  0
 24 14  1  0
 25 26  2  0
 25 27  1  0
M  END
$$$$
