HAR.pdb
     RDKit          3D

 27 27  0  0  1  0  0  0  0  0999 V2000
   22.5308  -14.9996  -20.2859 N   0  0  0  0  0  0  0  0  0  0  0  0
   21.8665  -15.1922  -19.0144 C   0  0  1  0  0  0  0  0  0  0  0  0
   20.3863  -14.9617  -19.1649 C   0  0  0  0  0  0  0  0  0  0  0  0
   20.1462  -13.5518  -19.5403 C   0  0  0  0  0  0  0  0  0  0  0  0
   19.7182  -13.0305  -20.7394 C   0  0  0  0  0  0  0  0  0  0  0  0
   19.6303  -11.6791  -20.6493 N   0  0  0  0  0  0  0  0  0  0  0  0
   20.0025  -11.3676  -19.4002 C   0  0  0  0  0  0  0  0  0  0  0  0
   20.3158  -12.5008  -18.7251 N   0  0  0  0  0  0  0  0  0  0  0  0
   22.1762  -16.5161  -18.4214 C   0  0  0  0  0  0  0  0  0  0  0  0
   21.8831  -17.5798  -19.0272 O   0  0  0  0  0  0  0  0  0  0  0  0
   24.1587  -17.7973  -15.4466 C   0  0  0  0  0  0  0  0  0  0  0  0
   23.1516  -17.9164  -16.5440 C   0  0  2  0  0  0  0  0  0  0  0  0
   22.8108  -16.6697  -17.1575 N   0  0  0  0  0  0  0  0  0  0  0  0
   21.9444  -18.7038  -16.1445 C   0  0  0  0  0  0  0  0  0  0  0  0
   20.9803  -18.1227  -15.5964 O   0  0  0  0  0  0  0  0  0  0  0  0
   16.7635  -23.3326  -13.1550 N   0  0  0  0  0  0  0  0  0  0  0  0
   17.8727  -24.0119  -12.6119 C   0  0  0  0  0  0  0  0  0  0  0  0
   17.7938  -25.3026  -12.3933 N   0  0  0  0  0  0  0  0  0  0  0  0
   19.0867  -23.3185  -12.2932 N   0  0  0  0  0  0  0  0  0  0  0  0
   19.1519  -21.9271  -12.6606 C   0  0  0  0  0  0  0  0  0  0  0  0
   19.3122  -21.7776  -14.1678 C   0  0  0  0  0  0  0  0  0  0  0  0
   20.6136  -21.1620  -14.5427 C   0  0  0  0  0  0  0  0  0  0  0  0
   20.7031  -20.9096  -16.0007 C   0  0  2  0  0  0  0  0  0  0  0  0
   21.8498  -20.0979  -16.3654 N   0  0  0  0  0  0  0  0  0  0  0  0
   19.4493  -20.3991  -16.5365 C   0  0  0  0  0  0  0  0  0  0  0  0
   19.1248  -19.2064  -16.2013 O   0  0  0  0  0  0  0  0  0  0  0  0
   18.5599  -21.0389  -17.3654 O   0  0  0  0  0  0  0  0  0  0  0  0
  2  1  1  6
  2  9  1  0
  3  2  1  0
  3  4  1  0
  4  5  2  0
  4  8  1  0
  5  6  1  0
  6  7  1  0
  8  7  2  0
  9 10  2  0
 12 11  1  1
 12 14  1  0
 13 12  1  0
 13  9  1  0
 14 15  2  0
 17 18  2  0
 17 16  1  0
 19 20  1  0
 19 17  1  0
 20 21  1  0
 21 22  1  0
 23 22  1  1
 23 25  1  0
 24 23  1  0
 24 14  1  0
 25 26  2  0
 25 27  1  0
M  END
$$$$
