HAR.pdb
     RDKit          3D

 27 27  0  0  1  0  0  0  0  0999 V2000
   29.5256  -19.5938  -18.9052 N   0  0  0  0  0  0  0  0  0  0  0  0
   28.7584  -18.3764  -19.0620 C   0  0  1  0  0  0  0  0  0  0  0  0
   28.0798  -18.3631  -20.4059 C   0  0  0  0  0  0  0  0  0  0  0  0
   29.1042  -18.3144  -21.4710 C   0  0  0  0  0  0  0  0  0  0  0  0
   29.5154  -19.3073  -22.3300 C   0  0  0  0  0  0  0  0  0  0  0  0
   30.4827  -18.8317  -23.1549 N   0  0  0  0  0  0  0  0  0  0  0  0
   30.6677  -17.5509  -22.8066 C   0  0  0  0  0  0  0  0  0  0  0  0
   29.8334  -17.2341  -21.7861 N   0  0  0  0  0  0  0  0  0  0  0  0
   27.8050  -18.1734  -17.9440 C   0  0  0  0  0  0  0  0  0  0  0  0
   27.2970  -19.1552  -17.3417 O   0  0  0  0  0  0  0  0  0  0  0  0
   26.6464  -15.1991  -15.8780 C   0  0  0  0  0  0  0  0  0  0  0  0
   26.6100  -16.6229  -16.3300 C   0  0  2  0  0  0  0  0  0  0  0  0
   27.4094  -16.8856  -17.4870 N   0  0  0  0  0  0  0  0  0  0  0  0
   25.2193  -17.1564  -16.4650 C   0  0  0  0  0  0  0  0  0  0  0  0
   24.6412  -17.1030  -17.5742 O   0  0  0  0  0  0  0  0  0  0  0  0
   19.0026  -21.9467  -14.4034 N   0  0  0  0  0  0  0  0  0  0  0  0
   20.1870  -22.5725  -13.9651 C   0  0  0  0  0  0  0  0  0  0  0  0
   20.3540  -23.8559  -14.1772 N   0  0  0  0  0  0  0  0  0  0  0  0
   21.2139  -21.8325  -13.2910 N   0  0  0  0  0  0  0  0  0  0  0  0
   21.0071  -20.4130  -13.1594 C   0  0  0  0  0  0  0  0  0  0  0  0
   21.4625  -19.6859  -14.4178 C   0  0  0  0  0  0  0  0  0  0  0  0
   22.7911  -19.0380  -14.2506 C   0  0  0  0  0  0  0  0  0  0  0  0
   23.1692  -18.2425  -15.4430 C   0  0  2  0  0  0  0  0  0  0  0  0
   24.5239  -17.7261  -15.3727 N   0  0  0  0  0  0  0  0  0  0  0  0
   22.1816  -17.2148  -15.7397 C   0  0  0  0  0  0  0  0  0  0  0  0
   21.0756  -17.6111  -16.2495 O   0  0  0  0  0  0  0  0  0  0  0  0
   22.2841  -15.8594  -15.5399 O   0  0  0  0  0  0  0  0  0  0  0  0
  2  1  1  1
  2  9  1  0
  3  2  1  0
  3  4  1  0
  4  5  2  0
  4  8  1  0
  5  6  1  0
  6  7  1  0
  8  7  2  0
  9 10  2  0
 12 11  1  6
 12 14  1  0
 13 12  1  0
 13  9  1  0
 14 15  2  0
 17 18  2  0
 17 16  1  0
 19 20  1  0
 19 17  1  0
 20 21  1  0
 21 22  1  0
 23 22  1  1
 23 25  1  0
 24 23  1  0
 24 14  1  0
 25 26  2  0
 25 27  1  0
M  END
$$$$
