HAR.pdb
     RDKit          3D

 27 27  0  0  1  0  0  0  0  0999 V2000
   22.0573  -32.6373   -3.9291 N   0  0  0  0  0  0  0  0  0  0  0  0
   20.6322  -32.3857   -3.9618 C   0  0  1  0  0  0  0  0  0  0  0  0
   19.9034  -33.4397   -3.1714 C   0  0  0  0  0  0  0  0  0  0  0  0
   20.0030  -34.7359   -3.8758 C   0  0  0  0  0  0  0  0  0  0  0  0
   20.4090  -35.9594   -3.3951 C   0  0  0  0  0  0  0  0  0  0  0  0
   20.3466  -36.8869   -4.3841 N   0  0  0  0  0  0  0  0  0  0  0  0
   19.9040  -36.2388   -5.4703 C   0  0  0  0  0  0  0  0  0  0  0  0
   19.6947  -34.9345   -5.1655 N   0  0  0  0  0  0  0  0  0  0  0  0
   20.3010  -31.0112   -3.5133 C   0  0  0  0  0  0  0  0  0  0  0  0
   20.7963  -30.5395   -2.4565 O   0  0  0  0  0  0  0  0  0  0  0  0
   18.7954  -27.9369   -5.0747 C   0  0  0  0  0  0  0  0  0  0  0  0
   19.1324  -28.7921   -3.8965 C   0  0  2  0  0  0  0  0  0  0  0  0
   19.4219  -30.1528   -4.2303 N   0  0  0  0  0  0  0  0  0  0  0  0
   18.1348  -28.6770   -2.7882 C   0  0  0  0  0  0  0  0  0  0  0  0
   17.2765  -29.5751   -2.6325 O   0  0  0  0  0  0  0  0  0  0  0  0
   17.3249  -23.4274    4.4060 N   0  0  0  0  0  0  0  0  0  0  0  0
   16.2015  -24.2783    4.4265 C   0  0  0  0  0  0  0  0  0  0  0  0
   15.3568  -24.2060    5.4271 N   0  0  0  0  0  0  0  0  0  0  0  0
   15.9642  -25.2227    3.3738 N   0  0  0  0  0  0  0  0  0  0  0  0
   16.9680  -25.3087    2.3443 C   0  0  0  0  0  0  0  0  0  0  0  0
   16.5359  -26.2806    1.2541 C   0  0  0  0  0  0  0  0  0  0  0  0
   17.5520  -26.4134    0.1756 C   0  0  0  0  0  0  0  0  0  0  0  0
   17.1128  -27.3560   -0.8809 C   0  0  2  0  0  0  0  0  0  0  0  0
   18.1244  -27.5775   -1.8980 N   0  0  0  0  0  0  0  0  0  0  0  0
   15.8201  -26.9795   -1.4346 C   0  0  0  0  0  0  0  0  0  0  0  0
   15.8239  -26.0675   -2.3337 O   0  0  0  0  0  0  0  0  0  0  0  0
   14.5827  -27.4830   -1.1140 O   0  0  0  0  0  0  0  0  0  0  0  0
  2  1  1  1
  2  9  1  0
  3  2  1  0
  3  4  1  0
  4  5  2  0
  4  8  1  0
  5  6  1  0
  6  7  1  0
  8  7  2  0
  9 10  2  0
 12 11  1  6
 12 14  1  0
 13 12  1  0
 13  9  1  0
 14 15  2  0
 17 18  2  0
 17 16  1  0
 19 20  1  0
 19 17  1  0
 20 21  1  0
 21 22  1  0
 23 22  1  1
 23 25  1  0
 24 23  1  0
 24 14  1  0
 25 26  2  0
 25 27  1  0
M  END
$$$$
