HAR.pdb
     RDKit          3D

 27 27  0  0  1  0  0  0  0  0999 V2000
   21.6658  -10.3646  -15.4474 N   0  0  0  0  0  0  0  0  0  0  0  0
   21.1801   -9.0491  -15.8067 C   0  0  1  0  0  0  0  0  0  0  0  0
   19.9896   -9.1700  -16.7204 C   0  0  0  0  0  0  0  0  0  0  0  0
   20.4119   -9.7888  -17.9951 C   0  0  0  0  0  0  0  0  0  0  0  0
   21.6637   -9.8459  -18.5629 C   0  0  0  0  0  0  0  0  0  0  0  0
   21.6045  -10.5132  -19.7434 N   0  0  0  0  0  0  0  0  0  0  0  0
   20.3217  -10.8664  -19.9035 C   0  0  0  0  0  0  0  0  0  0  0  0
   19.5960  -10.4288  -18.8453 N   0  0  0  0  0  0  0  0  0  0  0  0
   20.8951   -8.2175  -14.6120 C   0  0  0  0  0  0  0  0  0  0  0  0
   20.2117   -8.6711  -13.6571 O   0  0  0  0  0  0  0  0  0  0  0  0
   21.7915   -4.7040  -13.4244 C   0  0  0  0  0  0  0  0  0  0  0  0
   21.0707   -6.0117  -13.3707 C   0  0  2  0  0  0  0  0  0  0  0  0
   21.3640   -6.8822  -14.4675 N   0  0  0  0  0  0  0  0  0  0  0  0
   19.6006   -5.8582  -13.1423 C   0  0  0  0  0  0  0  0  0  0  0  0
   18.8250   -5.7978  -14.1234 O   0  0  0  0  0  0  0  0  0  0  0  0
   13.8006   -8.8380   -7.2879 N   0  0  0  0  0  0  0  0  0  0  0  0
   13.0616   -7.9596   -8.1058 C   0  0  0  0  0  0  0  0  0  0  0  0
   11.7550   -7.9251   -7.9982 N   0  0  0  0  0  0  0  0  0  0  0  0
   13.7112   -7.1025   -9.0544 N   0  0  0  0  0  0  0  0  0  0  0  0
   15.1363   -7.2579   -9.1960 C   0  0  0  0  0  0  0  0  0  0  0  0
   15.6747   -6.3157  -10.2646 C   0  0  0  0  0  0  0  0  0  0  0  0
   17.1223   -6.5288  -10.5333 C   0  0  0  0  0  0  0  0  0  0  0  0
   17.6337   -5.5947  -11.5645 C   0  0  2  0  0  0  0  0  0  0  0  0
   19.0465   -5.7775  -11.8432 N   0  0  0  0  0  0  0  0  0  0  0  0
   17.2864   -4.2141  -11.2599 C   0  0  0  0  0  0  0  0  0  0  0  0
   18.2082   -3.4905  -10.7433 O   0  0  0  0  0  0  0  0  0  0  0  0
   16.0839   -3.5801  -11.4583 O   0  0  0  0  0  0  0  0  0  0  0  0
  2  1  1  1
  2  9  1  0
  3  2  1  0
  3  4  1  0
  4  5  2  0
  4  8  1  0
  5  6  1  0
  6  7  1  0
  8  7  2  0
  9 10  2  0
 12 11  1  6
 12 14  1  0
 13 12  1  0
 13  9  1  0
 14 15  2  0
 17 18  2  0
 17 16  1  0
 19 20  1  0
 19 17  1  0
 20 21  1  0
 21 22  1  0
 23 22  1  1
 23 25  1  0
 24 23  1  0
 24 14  1  0
 25 26  2  0
 25 27  1  0
M  END
$$$$
