HAR.pdb
     RDKit          3D

 27 27  0  0  1  0  0  0  0  0999 V2000
   29.2016  -25.0118  -18.7067 N   0  0  0  0  0  0  0  0  0  0  0  0
   28.5586  -25.0124  -17.4098 C   0  0  1  0  0  0  0  0  0  0  0  0
   29.0613  -23.8585  -16.5836 C   0  0  0  0  0  0  0  0  0  0  0  0
   30.4932  -24.0634  -16.2768 C   0  0  0  0  0  0  0  0  0  0  0  0
   31.6022  -23.5860  -16.9363 C   0  0  0  0  0  0  0  0  0  0  0  0
   32.7292  -24.0156  -16.3138 N   0  0  0  0  0  0  0  0  0  0  0  0
   32.3176  -24.7550  -15.2746 C   0  0  0  0  0  0  0  0  0  0  0  0
   30.9625  -24.7859  -15.2494 N   0  0  0  0  0  0  0  0  0  0  0  0
   27.0797  -25.0256  -17.5237 C   0  0  0  0  0  0  0  0  0  0  0  0
   26.4917  -24.3194  -18.3839 O   0  0  0  0  0  0  0  0  0  0  0  0
   24.3367  -27.3372  -16.4268 C   0  0  0  0  0  0  0  0  0  0  0  0
   24.8338  -25.9918  -16.8459 C   0  0  2  0  0  0  0  0  0  0  0  0
   26.2453  -25.8190  -16.6883 N   0  0  0  0  0  0  0  0  0  0  0  0
   24.0515  -24.8678  -16.2445 C   0  0  0  0  0  0  0  0  0  0  0  0
   24.4204  -24.3697  -15.1567 O   0  0  0  0  0  0  0  0  0  0  0  0
   15.8367  -21.6784  -17.7798 N   0  0  0  0  0  0  0  0  0  0  0  0
   16.5100  -20.6391  -17.1066 C   0  0  0  0  0  0  0  0  0  0  0  0
   15.8800  -19.5147  -16.8639 N   0  0  0  0  0  0  0  0  0  0  0  0
   17.8715  -20.7873  -16.6816 N   0  0  0  0  0  0  0  0  0  0  0  0
   18.5311  -22.0162  -17.0424 C   0  0  0  0  0  0  0  0  0  0  0  0
   19.9415  -22.0559  -16.4689 C   0  0  0  0  0  0  0  0  0  0  0  0
   20.7150  -23.2346  -16.9436 C   0  0  0  0  0  0  0  0  0  0  0  0
   22.0345  -23.3322  -16.2749 C   0  0  2  0  0  0  0  0  0  0  0  0
   22.8957  -24.3399  -16.8664 N   0  0  0  0  0  0  0  0  0  0  0  0
   21.8977  -23.4743  -14.8325 C   0  0  0  0  0  0  0  0  0  0  0  0
   21.6609  -24.6530  -14.3913 O   0  0  0  0  0  0  0  0  0  0  0  0
   21.9919  -22.4958  -13.8727 O   0  0  0  0  0  0  0  0  0  0  0  0
  2  1  1  6
  2  9  1  0
  3  2  1  0
  3  4  1  0
  4  5  2  0
  4  8  1  0
  5  6  1  0
  6  7  1  0
  8  7  2  0
  9 10  2  0
 12 11  1  1
 12 14  1  0
 13 12  1  0
 13  9  1  0
 14 15  2  0
 17 18  2  0
 17 16  1  0
 19 20  1  0
 19 17  1  0
 20 21  1  0
 21 22  1  0
 23 22  1  6
 23 25  1  0
 24 23  1  0
 24 14  1  0
 25 26  2  0
 25 27  1  0
M  END
$$$$
