HAR.pdb
     RDKit          3D

 27 27  0  0  1  0  0  0  0  0999 V2000
   22.0639  -24.4663  -15.7358 N   0  0  0  0  0  0  0  0  0  0  0  0
   21.0652  -25.2143  -15.0020 C   0  0  1  0  0  0  0  0  0  0  0  0
   21.6108  -26.5633  -14.6158 C   0  0  0  0  0  0  0  0  0  0  0  0
   21.8625  -27.3574  -15.8375 C   0  0  0  0  0  0  0  0  0  0  0  0
   23.0588  -27.7713  -16.3762 C   0  0  0  0  0  0  0  0  0  0  0  0
   22.8324  -28.4828  -17.5096 N   0  0  0  0  0  0  0  0  0  0  0  0
   21.5021  -28.5080  -17.6698 C   0  0  0  0  0  0  0  0  0  0  0  0
   20.9111  -27.8267  -16.6576 N   0  0  0  0  0  0  0  0  0  0  0  0
   20.5505  -24.4563  -13.8354 C   0  0  0  0  0  0  0  0  0  0  0  0
   21.3395  -23.9372  -13.0032 O   0  0  0  0  0  0  0  0  0  0  0  0
   17.6007  -22.5483  -12.8002 C   0  0  0  0  0  0  0  0  0  0  0  0
   18.6063  -23.5967  -12.4504 C   0  0  2  0  0  0  0  0  0  0  0  0
   19.1629  -24.2690  -13.5840 N   0  0  0  0  0  0  0  0  0  0  0  0
   18.1164  -24.5494  -11.4067 C   0  0  0  0  0  0  0  0  0  0  0  0
   17.5465  -25.6086  -11.7544 O   0  0  0  0  0  0  0  0  0  0  0  0
   15.5920  -25.0564   -4.2188 N   0  0  0  0  0  0  0  0  0  0  0  0
   16.3839  -26.1384   -3.7841 C   0  0  0  0  0  0  0  0  0  0  0  0
   15.8681  -27.0279   -2.9701 N   0  0  0  0  0  0  0  0  0  0  0  0
   17.7437  -26.2854   -4.2148 N   0  0  0  0  0  0  0  0  0  0  0  0
   18.2202  -25.3350   -5.1869 C   0  0  0  0  0  0  0  0  0  0  0  0
   17.7043  -25.6851   -6.5764 C   0  0  0  0  0  0  0  0  0  0  0  0
   18.2272  -24.7681   -7.6246 C   0  0  0  0  0  0  0  0  0  0  0  0
   17.7126  -25.1197   -8.9697 C   0  0  2  0  0  0  0  0  0  0  0  0
   18.2745  -24.2954  -10.0240 N   0  0  0  0  0  0  0  0  0  0  0  0
   16.2577  -25.1642   -8.9946 C   0  0  0  0  0  0  0  0  0  0  0  0
   15.7163  -26.3191   -8.8795 O   0  0  0  0  0  0  0  0  0  0  0  0
   15.3807  -24.1149   -9.1262 O   0  0  0  0  0  0  0  0  0  0  0  0
  2  1  1  1
  2  9  1  0
  3  2  1  0
  3  4  1  0
  4  5  2  0
  4  8  1  0
  5  6  1  0
  6  7  1  0
  8  7  2  0
  9 10  2  0
 12 11  1  6
 12 14  1  0
 13 12  1  0
 13  9  1  0
 14 15  2  0
 17 18  2  0
 17 16  1  0
 19 20  1  0
 19 17  1  0
 20 21  1  0
 21 22  1  0
 23 22  1  1
 23 25  1  0
 24 23  1  0
 24 14  1  0
 25 26  2  0
 25 27  1  0
M  END
$$$$
