HAR.pdb
     RDKit          3D

 27 27  0  0  1  0  0  0  0  0999 V2000
   19.4860  -23.7976  -13.7944 N   0  0  0  0  0  0  0  0  0  0  0  0
   19.6082  -24.7756  -12.7343 C   0  0  1  0  0  0  0  0  0  0  0  0
   21.0337  -25.2489  -12.6302 C   0  0  0  0  0  0  0  0  0  0  0  0
   21.3916  -25.9971  -13.8542 C   0  0  0  0  0  0  0  0  0  0  0  0
   20.5965  -26.3604  -14.9167 C   0  0  0  0  0  0  0  0  0  0  0  0
   21.3330  -27.0396  -15.8324 N   0  0  0  0  0  0  0  0  0  0  0  0
   22.5771  -27.0953  -15.3374 C   0  0  0  0  0  0  0  0  0  0  0  0
   22.6160  -26.4641  -14.1382 N   0  0  0  0  0  0  0  0  0  0  0  0
   19.0857  -24.2636  -11.4439 C   0  0  0  0  0  0  0  0  0  0  0  0
   18.9802  -23.0268  -11.2348 O   0  0  0  0  0  0  0  0  0  0  0  0
   16.5051  -24.1596   -9.7626 C   0  0  0  0  0  0  0  0  0  0  0  0
   17.8016  -24.7490   -9.3103 C   0  0  2  0  0  0  0  0  0  0  0  0
   18.6777  -25.1156  -10.3803 N   0  0  0  0  0  0  0  0  0  0  0  0
   17.6252  -25.8514   -8.3151 C   0  0  0  0  0  0  0  0  0  0  0  0
   17.4868  -27.0297   -8.7149 O   0  0  0  0  0  0  0  0  0  0  0  0
   14.8798  -22.9043   -2.6561 N   0  0  0  0  0  0  0  0  0  0  0  0
   14.1576  -24.0100   -2.1637 C   0  0  0  0  0  0  0  0  0  0  0  0
   12.9018  -23.8569   -1.8180 N   0  0  0  0  0  0  0  0  0  0  0  0
   14.7698  -25.3001   -2.0330 N   0  0  0  0  0  0  0  0  0  0  0  0
   16.1131  -25.4321   -2.5364 C   0  0  0  0  0  0  0  0  0  0  0  0
   16.1026  -26.0021   -3.9488 C   0  0  0  0  0  0  0  0  0  0  0  0
   17.4681  -26.1053   -4.5302 C   0  0  0  0  0  0  0  0  0  0  0  0
   17.4383  -26.6395   -5.9127 C   0  0  2  0  0  0  0  0  0  0  0  0
   17.6085  -25.6096   -6.9213 N   0  0  0  0  0  0  0  0  0  0  0  0
   16.2681  -27.4746   -6.1420 C   0  0  0  0  0  0  0  0  0  0  0  0
   16.2971  -28.6536   -5.6426 O   0  0  0  0  0  0  0  0  0  0  0  0
   15.1233  -27.1569   -6.8319 O   0  0  0  0  0  0  0  0  0  0  0  0
  2  1  1  6
  2  9  1  0
  3  2  1  0
  3  4  1  0
  4  5  2  0
  4  8  1  0
  5  6  1  0
  6  7  1  0
  8  7  2  0
  9 10  2  0
 12 11  1  6
 12 14  1  0
 13 12  1  0
 13  9  1  0
 14 15  2  0
 17 18  2  0
 17 16  1  0
 19 20  1  0
 19 17  1  0
 20 21  1  0
 21 22  1  0
 23 22  1  1
 23 25  1  0
 24 23  1  0
 24 14  1  0
 25 26  2  0
 25 27  1  0
M  END
$$$$
