HAR.pdb
     RDKit          3D

 27 27  0  0  1  0  0  0  0  0999 V2000
   24.9535  -15.7917  -16.0523 N   0  0  0  0  0  0  0  0  0  0  0  0
   25.2635  -14.5946  -16.8048 C   0  0  1  0  0  0  0  0  0  0  0  0
   24.5613  -14.6253  -18.1363 C   0  0  0  0  0  0  0  0  0  0  0  0
   24.9096  -15.8757  -18.8445 C   0  0  0  0  0  0  0  0  0  0  0  0
   26.0598  -16.6270  -18.7708 C   0  0  0  0  0  0  0  0  0  0  0  0
   25.9601  -17.7041  -19.5907 N   0  0  0  0  0  0  0  0  0  0  0  0
   24.7537  -17.6180  -20.1679 C   0  0  0  0  0  0  0  0  0  0  0  0
   24.1142  -16.5107  -19.7175 N   0  0  0  0  0  0  0  0  0  0  0  0
   24.9645  -13.3623  -16.0351 C   0  0  0  0  0  0  0  0  0  0  0  0
   23.8339  -13.1867  -15.5105 O   0  0  0  0  0  0  0  0  0  0  0  0
   26.9103  -10.3090  -14.8534 C   0  0  0  0  0  0  0  0  0  0  0  0
   25.6732  -11.0963  -15.1407 C   0  0  2  0  0  0  0  0  0  0  0  0
   25.9133  -12.3200  -15.8420 N   0  0  0  0  0  0  0  0  0  0  0  0
   24.5954  -10.2772  -15.7765 C   0  0  0  0  0  0  0  0  0  0  0  0
   24.5372  -10.1923  -17.0242 O   0  0  0  0  0  0  0  0  0  0  0  0
   16.2563   -8.2469  -13.8098 N   0  0  0  0  0  0  0  0  0  0  0  0
   16.4984   -7.7027  -15.0872 C   0  0  0  0  0  0  0  0  0  0  0  0
   15.4943   -7.2331  -15.7882 N   0  0  0  0  0  0  0  0  0  0  0  0
   17.8223   -7.6526  -15.6359 N   0  0  0  0  0  0  0  0  0  0  0  0
   18.8740   -8.2327  -14.8405 C   0  0  0  0  0  0  0  0  0  0  0  0
   20.2155   -8.1048  -15.5501 C   0  0  0  0  0  0  0  0  0  0  0  0
   21.2992   -8.8509  -14.8558 C   0  0  0  0  0  0  0  0  0  0  0  0
   22.5918   -8.7372  -15.5725 C   0  0  2  0  0  0  0  0  0  0  0  0
   23.6269   -9.5859  -15.0112 N   0  0  0  0  0  0  0  0  0  0  0  0
   23.0076   -7.3494  -15.7156 C   0  0  0  0  0  0  0  0  0  0  0  0
   22.3254   -6.6257  -16.5226 O   0  0  0  0  0  0  0  0  0  0  0  0
   24.0485   -6.7084  -15.0887 O   0  0  0  0  0  0  0  0  0  0  0  0
  2  1  1  1
  2  9  1  0
  3  2  1  0
  3  4  1  0
  4  5  2  0
  4  8  1  0
  5  6  1  0
  6  7  1  0
  8  7  2  0
  9 10  2  0
 12 11  1  6
 12 14  1  0
 13 12  1  0
 13  9  1  0
 14 15  2  0
 17 18  2  0
 17 16  1  0
 19 20  1  0
 19 17  1  0
 20 21  1  0
 21 22  1  0
 23 22  1  1
 23 25  1  0
 24 23  1  0
 24 14  1  0
 25 26  2  0
 25 27  1  0
M  END
$$$$
