HAR.pdb
     RDKit          3D

 27 27  0  0  1  0  0  0  0  0999 V2000
   41.1962   -8.4924   -8.7104 N   0  0  0  0  0  0  0  0  0  0  0  0
   42.2945   -9.1824   -9.3529 C   0  0  1  0  0  0  0  0  0  0  0  0
   43.6044   -8.7260   -8.7673 C   0  0  0  0  0  0  0  0  0  0  0  0
   43.8523   -7.3217   -9.1582 C   0  0  0  0  0  0  0  0  0  0  0  0
   43.1175   -6.5057   -9.9870 C   0  0  0  0  0  0  0  0  0  0  0  0
   43.7046   -5.2847  -10.0704 N   0  0  0  0  0  0  0  0  0  0  0  0
   44.7969   -5.3469   -9.2966 C   0  0  0  0  0  0  0  0  0  0  0  0
   44.8893   -6.5806   -8.7420 N   0  0  0  0  0  0  0  0  0  0  0  0
   42.1323  -10.6558   -9.2980 C   0  0  0  0  0  0  0  0  0  0  0  0
   41.7420  -11.2240   -8.2447 O   0  0  0  0  0  0  0  0  0  0  0  0
   42.0073  -13.5071  -11.7698 C   0  0  0  0  0  0  0  0  0  0  0  0
   42.2598  -12.9305  -10.4146 C   0  0  2  0  0  0  0  0  0  0  0  0
   42.4003  -11.5067  -10.4061 N   0  0  0  0  0  0  0  0  0  0  0  0
   43.3713  -13.6172   -9.6866 C   0  0  0  0  0  0  0  0  0  0  0  0
   44.5091  -13.0954   -9.6605 O   0  0  0  0  0  0  0  0  0  0  0  0
   42.8015  -21.9207   -8.9509 N   0  0  0  0  0  0  0  0  0  0  0  0
   43.8405  -21.4533   -8.1211 C   0  0  0  0  0  0  0  0  0  0  0  0
   44.7156  -22.3052   -7.6430 N   0  0  0  0  0  0  0  0  0  0  0  0
   43.9594  -20.0634   -7.7891 N   0  0  0  0  0  0  0  0  0  0  0  0
   42.8897  -19.2015   -8.2228 C   0  0  0  0  0  0  0  0  0  0  0  0
   43.4464  -17.9244   -8.8383 C   0  0  0  0  0  0  0  0  0  0  0  0
   43.7732  -16.8956   -7.8147 C   0  0  0  0  0  0  0  0  0  0  0  0
   44.2531  -15.6369   -8.4334 C   0  0  2  0  0  0  0  0  0  0  0  0
   43.1829  -14.8496   -9.0181 N   0  0  0  0  0  0  0  0  0  0  0  0
   45.3543  -15.8760   -9.3551 C   0  0  0  0  0  0  0  0  0  0  0  0
   46.5103  -16.0569   -8.8342 O   0  0  0  0  0  0  0  0  0  0  0  0
   45.3127  -15.9342  -10.7271 O   0  0  0  0  0  0  0  0  0  0  0  0
  2  1  1  1
  2  9  1  0
  3  2  1  0
  3  4  1  0
  4  5  2  0
  4  8  1  0
  5  6  1  0
  6  7  1  0
  8  7  2  0
  9 10  2  0
 12 11  1  6
 12 14  1  0
 13 12  1  0
 13  9  1  0
 14 15  2  0
 17 18  2  0
 17 16  1  0
 19 20  1  0
 19 17  1  0
 20 21  1  0
 21 22  1  0
 23 22  1  6
 23 25  1  0
 24 23  1  0
 24 14  1  0
 25 26  2  0
 25 27  1  0
M  END
$$$$
