HAR.pdb
     RDKit          3D

 27 27  0  0  1  0  0  0  0  0999 V2000
   29.4136  -22.5707  -16.0974 N   0  0  0  0  0  0  0  0  0  0  0  0
   28.4644  -21.7720  -16.8433 C   0  0  1  0  0  0  0  0  0  0  0  0
   27.9378  -22.5566  -18.0155 C   0  0  0  0  0  0  0  0  0  0  0  0
   29.0384  -22.8075  -18.9705 C   0  0  0  0  0  0  0  0  0  0  0  0
   29.4416  -22.0578  -20.0513 C   0  0  0  0  0  0  0  0  0  0  0  0
   30.4993  -22.6547  -20.6575 N   0  0  0  0  0  0  0  0  0  0  0  0
   30.7477  -23.7679  -19.9540 C   0  0  0  0  0  0  0  0  0  0  0  0
   29.8638  -23.8635  -18.9305 N   0  0  0  0  0  0  0  0  0  0  0  0
   27.3789  -21.2486  -15.9784 C   0  0  0  0  0  0  0  0  0  0  0  0
   26.7813  -22.0010  -15.1651 O   0  0  0  0  0  0  0  0  0  0  0  0
   25.8294  -17.8426  -15.2619 C   0  0  0  0  0  0  0  0  0  0  0  0
   25.9009  -19.3343  -15.2117 C   0  0  2  0  0  0  0  0  0  0  0  0
   26.9497  -19.8926  -16.0086 N   0  0  0  0  0  0  0  0  0  0  0  0
   24.5811  -19.9902  -15.4660 C   0  0  0  0  0  0  0  0  0  0  0  0
   24.3056  -20.4007  -16.6162 O   0  0  0  0  0  0  0  0  0  0  0  0
   18.7159  -23.5394   -9.9948 N   0  0  0  0  0  0  0  0  0  0  0  0
   18.8438  -24.3125  -11.1664 C   0  0  0  0  0  0  0  0  0  0  0  0
   18.4527  -25.5643  -11.1580 N   0  0  0  0  0  0  0  0  0  0  0  0
   19.3940  -23.7565  -12.3682 N   0  0  0  0  0  0  0  0  0  0  0  0
   19.7057  -22.3503  -12.3462 C   0  0  0  0  0  0  0  0  0  0  0  0
   20.4023  -21.9353  -13.6355 C   0  0  0  0  0  0  0  0  0  0  0  0
   21.6907  -21.2349  -13.3855 C   0  0  0  0  0  0  0  0  0  0  0  0
   22.3065  -20.7501  -14.6437 C   0  0  2  0  0  0  0  0  0  0  0  0
   23.6201  -20.1662  -14.4428 N   0  0  0  0  0  0  0  0  0  0  0  0
   21.4035  -19.8814  -15.3850 C   0  0  0  0  0  0  0  0  0  0  0  0
   21.4325  -18.6358  -15.0887 O   0  0  0  0  0  0  0  0  0  0  0  0
   20.5149  -20.2295  -16.3734 O   0  0  0  0  0  0  0  0  0  0  0  0
  2  1  1  1
  2  9  1  0
  3  2  1  0
  3  4  1  0
  4  5  2  0
  4  8  1  0
  5  6  1  0
  6  7  1  0
  8  7  2  0
  9 10  2  0
 12 11  1  6
 12 14  1  0
 13 12  1  0
 13  9  1  0
 14 15  2  0
 17 18  2  0
 17 16  1  0
 19 20  1  0
 19 17  1  0
 20 21  1  0
 21 22  1  0
 23 22  1  1
 23 25  1  0
 24 23  1  0
 24 14  1  0
 25 26  2  0
 25 27  1  0
M  END
$$$$
