CPL.pdb
     RDKit          3D

 22 22  0  0  1  0  0  0  0  0999 V2000
   18.9983  -13.2931  -16.6853 N   0  0  0  0  0  0  0  0  0  0  0  0
   20.1221  -12.4963  -17.0486 C   0  0  1  0  0  0  0  0  0  0  0  0
   19.7774  -11.7282  -18.3231 C   0  0  0  0  0  0  0  0  0  0  0  0
   20.0165  -12.8666  -19.7334 S   0  0  0  0  0  0  0  0  0  0  0  0
   20.6082  -11.5656  -16.0264 C   0  0  0  0  0  0  0  0  0  0  0  0
   19.7582  -10.7717  -15.4911 O   0  0  0  0  0  0  0  0  0  0  0  0
   21.9505  -11.4591  -15.5678 N   0  0  0  0  0  0  0  0  0  0  0  0
   23.0149  -12.3598  -15.9735 C   0  0  0  0  0  0  0  0  0  0  0  0
   24.1326  -12.0327  -15.0070 C   0  0  0  0  0  0  0  0  0  0  0  0
   23.9683  -10.5696  -14.7812 C   0  0  0  0  0  0  0  0  0  0  0  0
   22.4421  -10.4471  -14.6513 C   0  0  1  0  0  0  0  0  0  0  0  0
   22.1552   -9.0651  -15.1734 C   0  0  0  0  0  0  0  0  0  0  0  0
   21.7385   -8.9681  -16.3501 O   0  0  0  0  0  0  0  0  0  0  0  0
   20.1571   -4.0636  -14.8860 C   0  0  0  0  0  0  0  0  0  0  0  0
   19.9426   -5.2740  -15.7570 C   0  0  2  0  0  0  0  0  0  0  0  0
   18.5231   -5.3744  -16.2740 C   0  0  0  0  0  0  0  0  0  0  0  0
   20.5049   -6.5311  -15.2211 C   0  0  0  0  0  0  0  0  0  0  0  0
   21.9266   -6.5758  -14.8321 C   0  0  2  0  0  0  0  0  0  0  0  0
   22.3301   -7.9061  -14.4165 N   0  0  0  0  0  0  0  0  0  0  0  0
   22.3745   -5.5830  -13.8628 C   0  0  0  0  0  0  0  0  0  0  0  0
   22.9902   -4.3850  -14.1901 O   0  0  0  0  0  0  0  0  0  0  0  0
   22.2102   -5.7885  -12.6352 O   0  0  0  0  0  0  0  0  0  0  0  0
  2  1  1  1
  3  4  1  0
  3  2  1  0
  5  6  2  0
  5  2  1  0
  7  5  1  0
  8  7  1  0
  9 10  1  0
  9  8  1  0
 10 11  1  0
 11  7  1  0
 11 12  1  6
 12 19  1  0
 13 12  2  0
 15 14  1  1
 16 15  1  0
 17 15  1  0
 18 20  1  0
 18 17  1  1
 19 18  1  0
 20 21  1  0
 22 20  2  0
M  END
$$$$
