CPL.pdb
     RDKit          3D

 22 22  0  0  1  0  0  0  0  0999 V2000
   22.4669  -21.7998  -12.7863 N   0  0  0  0  0  0  0  0  0  0  0  0
   23.4839  -20.8529  -12.4714 C   0  0  1  0  0  0  0  0  0  0  0  0
   22.8150  -19.5772  -11.9628 C   0  0  0  0  0  0  0  0  0  0  0  0
   21.9171  -18.8287  -13.3683 S   0  0  0  0  0  0  0  0  0  0  0  0
   24.4997  -21.2949  -11.5122 C   0  0  0  0  0  0  0  0  0  0  0  0
   24.0957  -21.7972  -10.4059 O   0  0  0  0  0  0  0  0  0  0  0  0
   25.9081  -21.2174  -11.6957 N   0  0  0  0  0  0  0  0  0  0  0  0
   26.5373  -20.7396  -12.9143 C   0  0  0  0  0  0  0  0  0  0  0  0
   27.9872  -21.1334  -12.7328 C   0  0  0  0  0  0  0  0  0  0  0  0
   28.1978  -20.9851  -11.2658 C   0  0  0  0  0  0  0  0  0  0  0  0
   26.9011  -21.5900  -10.7054 C   0  0  1  0  0  0  0  0  0  0  0  0
   26.6880  -20.8351   -9.4211 C   0  0  0  0  0  0  0  0  0  0  0  0
   26.0433  -19.7635   -9.4821 O   0  0  0  0  0  0  0  0  0  0  0  0
   28.7139  -19.1528   -4.6918 C   0  0  0  0  0  0  0  0  0  0  0  0
   28.0261  -20.4876   -4.5697 C   0  0  2  0  0  0  0  0  0  0  0  0
   28.6012  -21.3385   -3.4574 C   0  0  0  0  0  0  0  0  0  0  0  0
   27.8090  -21.1927   -5.8500 C   0  0  0  0  0  0  0  0  0  0  0  0
   27.1971  -20.4658   -6.9778 C   0  0  2  0  0  0  0  0  0  0  0  0
   27.1693  -21.2694   -8.1855 N   0  0  0  0  0  0  0  0  0  0  0  0
   27.7210  -19.1357   -7.2644 C   0  0  0  0  0  0  0  0  0  0  0  0
   27.1711  -17.9542   -6.7924 O   0  0  0  0  0  0  0  0  0  0  0  0
   28.7406  -19.0071   -7.9857 O   0  0  0  0  0  0  0  0  0  0  0  0
  2  1  1  1
  3  4  1  0
  3  2  1  0
  5  6  2  0
  5  2  1  0
  7  5  1  0
  8  7  1  0
  9 10  1  0
  9  8  1  0
 10 11  1  0
 11  7  1  0
 11 12  1  1
 12 19  1  0
 13 12  2  0
 15 14  1  6
 16 15  1  0
 17 15  1  0
 18 20  1  0
 18 17  1  1
 19 18  1  0
 20 21  1  0
 22 20  2  0
M  END
$$$$
