CPL.pdb
     RDKit          3D

 22 22  0  0  1  0  0  0  0  0999 V2000
   17.3248  -16.4320    3.2061 N   0  0  0  0  0  0  0  0  0  0  0  0
   17.1597  -15.5060    4.2762 C   0  0  1  0  0  0  0  0  0  0  0  0
   16.1797  -16.1030    5.2844 C   0  0  0  0  0  0  0  0  0  0  0  0
   14.5723  -16.3036    4.4369 S   0  0  0  0  0  0  0  0  0  0  0  0
   18.3858  -15.0922    4.9638 C   0  0  0  0  0  0  0  0  0  0  0  0
   19.2971  -15.9744    5.1390 O   0  0  0  0  0  0  0  0  0  0  0  0
   18.6623  -13.7885    5.4611 N   0  0  0  0  0  0  0  0  0  0  0  0
   17.7413  -12.6712    5.3503 C   0  0  0  0  0  0  0  0  0  0  0  0
   18.5934  -11.4807    5.7334 C   0  0  0  0  0  0  0  0  0  0  0  0
   19.5122  -12.0390    6.7643 C   0  0  0  0  0  0  0  0  0  0  0  0
   19.8800  -13.3970    6.1465 C   0  0  1  0  0  0  0  0  0  0  0  0
   20.1265  -14.2727    7.3453 C   0  0  0  0  0  0  0  0  0  0  0  0
   19.1494  -14.9031    7.8098 O   0  0  0  0  0  0  0  0  0  0  0  0
   24.9927  -16.6854   10.3252 C   0  0  0  0  0  0  0  0  0  0  0  0
   23.5096  -16.7374   10.0655 C   0  0  2  0  0  0  0  0  0  0  0  0
   22.9819  -18.1543    9.9886 C   0  0  0  0  0  0  0  0  0  0  0  0
   23.0351  -15.8331    8.9974 C   0  0  0  0  0  0  0  0  0  0  0  0
   21.6628  -15.2973    9.0644 C   0  0  2  0  0  0  0  0  0  0  0  0
   21.3753  -14.4111    7.9521 N   0  0  0  0  0  0  0  0  0  0  0  0
   21.2582  -14.6813   10.3225 C   0  0  0  0  0  0  0  0  0  0  0  0
   21.2583  -13.3170   10.5671 O   0  0  0  0  0  0  0  0  0  0  0  0
   20.8762  -15.4016   11.2773 O   0  0  0  0  0  0  0  0  0  0  0  0
  2  1  1  6
  3  4  1  0
  3  2  1  0
  5  6  2  0
  5  2  1  0
  7  5  1  0
  8  7  1  0
  9 10  1  0
  9  8  1  0
 10 11  1  0
 11  7  1  0
 11 12  1  1
 12 19  1  0
 13 12  2  0
 15 14  1  6
 16 15  1  0
 17 15  1  0
 18 20  1  0
 18 17  1  1
 19 18  1  0
 20 21  1  0
 22 20  2  0
M  END
$$$$
