CPL.pdb
     RDKit          3D

 22 22  0  0  1  0  0  0  0  0999 V2000
   19.3268  -13.5859  -16.3547 N   0  0  0  0  0  0  0  0  0  0  0  0
   19.3744  -12.2120  -16.7292 C   0  0  1  0  0  0  0  0  0  0  0  0
   18.0346  -11.8367  -17.3595 C   0  0  0  0  0  0  0  0  0  0  0  0
   17.9781  -12.5925  -19.0231 S   0  0  0  0  0  0  0  0  0  0  0  0
   19.7006  -11.2647  -15.6599 C   0  0  0  0  0  0  0  0  0  0  0  0
   19.1230  -11.4220  -14.5281 O   0  0  0  0  0  0  0  0  0  0  0  0
   20.6081  -10.1741  -15.7617 N   0  0  0  0  0  0  0  0  0  0  0  0
   21.3812   -9.8771  -16.9546 C   0  0  0  0  0  0  0  0  0  0  0  0
   22.3857   -8.8540  -16.4706 C   0  0  0  0  0  0  0  0  0  0  0  0
   21.6227   -8.0877  -15.4463 C   0  0  0  0  0  0  0  0  0  0  0  0
   20.8805   -9.2132  -14.7089 C   0  0  1  0  0  0  0  0  0  0  0  0
   19.6111   -8.5513  -14.2448 C   0  0  0  0  0  0  0  0  0  0  0  0
   18.6198   -8.6062  -15.0075 O   0  0  0  0  0  0  0  0  0  0  0  0
   16.5461   -5.8195  -10.4708 C   0  0  0  0  0  0  0  0  0  0  0  0
   16.5719   -7.3138  -10.6611 C   0  0  2  0  0  0  0  0  0  0  0  0
   16.1034   -8.0647   -9.4328 C   0  0  0  0  0  0  0  0  0  0  0  0
   17.8049   -7.8384  -11.2840 C   0  0  0  0  0  0  0  0  0  0  0  0
   18.2852   -7.2417  -12.5442 C   0  0  2  0  0  0  0  0  0  0  0  0
   19.4921   -7.8899  -13.0220 N   0  0  0  0  0  0  0  0  0  0  0  0
   18.4438   -5.7924  -12.5668 C   0  0  0  0  0  0  0  0  0  0  0  0
   17.4572   -4.8983  -12.9516 O   0  0  0  0  0  0  0  0  0  0  0  0
   19.5352   -5.2771  -12.2210 O   0  0  0  0  0  0  0  0  0  0  0  0
  2  1  1  1
  3  4  1  0
  3  2  1  0
  5  6  2  0
  5  2  1  0
  7  5  1  0
  8  7  1  0
  9 10  1  0
  9  8  1  0
 10 11  1  0
 11  7  1  0
 11 12  1  6
 12 19  1  0
 13 12  2  0
 15 14  1  1
 16 15  1  0
 17 15  1  0
 18 20  1  0
 18 17  1  1
 19 18  1  0
 20 21  1  0
 22 20  2  0
M  END
$$$$
