CPL.pdb
     RDKit          3D

 22 22  0  0  1  0  0  0  0  0999 V2000
   22.9151  -14.1663  -20.0850 N   0  0  0  0  0  0  0  0  0  0  0  0
   23.7882  -13.3160  -19.3470 C   0  0  1  0  0  0  0  0  0  0  0  0
   24.5412  -12.4246  -20.3327 C   0  0  0  0  0  0  0  0  0  0  0  0
   26.0311  -13.3366  -20.8719 S   0  0  0  0  0  0  0  0  0  0  0  0
   23.1592  -12.4892  -18.3135 C   0  0  0  0  0  0  0  0  0  0  0  0
   22.1255  -11.8090  -18.6422 O   0  0  0  0  0  0  0  0  0  0  0  0
   23.5937  -12.3690  -16.9644 N   0  0  0  0  0  0  0  0  0  0  0  0
   24.7028  -13.1209  -16.4045 C   0  0  0  0  0  0  0  0  0  0  0  0
   24.5688  -12.8795  -14.9165 C   0  0  0  0  0  0  0  0  0  0  0  0
   24.0492  -11.4855  -14.8446 C   0  0  0  0  0  0  0  0  0  0  0  0
   23.0066  -11.4864  -15.9734 C   0  0  1  0  0  0  0  0  0  0  0  0
   23.0097  -10.0607  -16.4552 C   0  0  0  0  0  0  0  0  0  0  0  0
   23.7195   -9.7898  -17.4504 O   0  0  0  0  0  0  0  0  0  0  0  0
   20.4725   -5.5229  -17.7680 C   0  0  0  0  0  0  0  0  0  0  0  0
   21.2607   -6.5517  -18.5363 C   0  0  2  0  0  0  0  0  0  0  0  0
   20.7511   -6.7383  -19.9496 C   0  0  0  0  0  0  0  0  0  0  0  0
   21.5331   -7.8023  -17.7979 C   0  0  0  0  0  0  0  0  0  0  0  0
   22.0529   -7.7265  -16.4199 C   0  0  2  0  0  0  0  0  0  0  0  0
   22.2686   -9.0440  -15.8519 N   0  0  0  0  0  0  0  0  0  0  0  0
   21.3162   -6.8844  -15.4849 C   0  0  0  0  0  0  0  0  0  0  0  0
   21.6176   -5.5591  -15.2132 O   0  0  0  0  0  0  0  0  0  0  0  0
   20.3331   -7.3540  -14.8611 O   0  0  0  0  0  0  0  0  0  0  0  0
  2  1  1  6
  3  4  1  0
  3  2  1  0
  5  6  2  0
  5  2  1  0
  7  5  1  0
  8  7  1  0
  9 10  1  0
  9  8  1  0
 10 11  1  0
 11  7  1  0
 11 12  1  6
 12 19  1  0
 13 12  2  0
 15 14  1  1
 16 15  1  0
 17 15  1  0
 18 20  1  0
 18 17  1  6
 19 18  1  0
 20 21  1  0
 22 20  2  0
M  END
$$$$
