CPL.pdb
     RDKit          3D

 22 22  0  0  1  0  0  0  0  0999 V2000
   16.5404  -17.6065    2.1336 N   0  0  0  0  0  0  0  0  0  0  0  0
   16.3605  -16.4141    2.8923 C   0  0  1  0  0  0  0  0  0  0  0  0
   15.0787  -16.5520    3.7116 C   0  0  0  0  0  0  0  0  0  0  0  0
   13.6688  -16.3774    2.5611 S   0  0  0  0  0  0  0  0  0  0  0  0
   17.4709  -16.0370    3.7710 C   0  0  0  0  0  0  0  0  0  0  0  0
   18.2194  -16.9736    4.2204 O   0  0  0  0  0  0  0  0  0  0  0  0
   17.7994  -14.7139    4.1770 N   0  0  0  0  0  0  0  0  0  0  0  0
   17.1164  -13.5283    3.6903 C   0  0  0  0  0  0  0  0  0  0  0  0
   18.0068  -12.3983    4.1601 C   0  0  0  0  0  0  0  0  0  0  0  0
   18.5311  -12.8983    5.4615 C   0  0  0  0  0  0  0  0  0  0  0  0
   18.8405  -14.3656    5.1259 C   0  0  1  0  0  0  0  0  0  0  0  0
   18.6325  -15.0766    6.4359 C   0  0  0  0  0  0  0  0  0  0  0  0
   17.4681  -15.4428    6.7148 O   0  0  0  0  0  0  0  0  0  0  0  0
   19.0286  -19.1829    7.9822 C   0  0  0  0  0  0  0  0  0  0  0  0
   20.2353  -18.3100    7.7552 C   0  0  2  0  0  0  0  0  0  0  0  0
   21.4934  -19.1121    7.4985 C   0  0  0  0  0  0  0  0  0  0  0  0
   20.3860  -17.1982    8.7168 C   0  0  0  0  0  0  0  0  0  0  0  0
   19.4982  -16.0259    8.6073 C   0  0  2  0  0  0  0  0  0  0  0  0
   19.6630  -15.3415    7.3385 N   0  0  0  0  0  0  0  0  0  0  0  0
   19.5320  -15.0704    9.7081 C   0  0  0  0  0  0  0  0  0  0  0  0
   19.0555  -15.3230   10.9849 O   0  0  0  0  0  0  0  0  0  0  0  0
   20.0185  -13.9269    9.5292 O   0  0  0  0  0  0  0  0  0  0  0  0
  2  1  1  1
  3  4  1  0
  3  2  1  0
  5  6  2  0
  5  2  1  0
  7  5  1  0
  8  7  1  0
  9 10  1  0
  9  8  1  0
 10 11  1  0
 11  7  1  0
 11 12  1  1
 12 19  1  0
 13 12  2  0
 15 14  1  1
 16 15  1  0
 17 15  1  0
 18 20  1  0
 18 17  1  1
 19 18  1  0
 20 21  1  0
 22 20  2  0
M  END
$$$$
