CPL.pdb
     RDKit          3D

 22 22  0  0  1  0  0  0  0  0999 V2000
   24.8597  -21.7640  -17.7203 N   0  0  0  0  0  0  0  0  0  0  0  0
   24.6207  -20.9753  -16.5580 C   0  0  1  0  0  0  0  0  0  0  0  0
   23.3259  -21.4566  -15.9059 C   0  0  0  0  0  0  0  0  0  0  0  0
   23.0811  -20.4785  -14.3810 S   0  0  0  0  0  0  0  0  0  0  0  0
   25.6966  -20.9527  -15.5635 C   0  0  0  0  0  0  0  0  0  0  0  0
   26.1991  -22.0742  -15.2040 O   0  0  0  0  0  0  0  0  0  0  0  0
   26.2414  -19.7896  -14.9522 N   0  0  0  0  0  0  0  0  0  0  0  0
   25.7406  -18.4465  -15.1853 C   0  0  0  0  0  0  0  0  0  0  0  0
   26.8114  -17.5671  -14.5768 C   0  0  0  0  0  0  0  0  0  0  0  0
   27.2872  -18.3674  -13.4142 C   0  0  0  0  0  0  0  0  0  0  0  0
   27.3512  -19.7793  -14.0174 C   0  0  1  0  0  0  0  0  0  0  0  0
   27.0712  -20.6762  -12.8418 C   0  0  0  0  0  0  0  0  0  0  0  0
   27.9372  -21.5321  -12.5502 O   0  0  0  0  0  0  0  0  0  0  0  0
   26.9694  -19.0134   -7.6373 C   0  0  0  0  0  0  0  0  0  0  0  0
   26.8022  -20.3046   -8.3953 C   0  0  2  0  0  0  0  0  0  0  0  0
   27.6782  -21.4145   -7.8539 C   0  0  0  0  0  0  0  0  0  0  0  0
   26.8050  -20.1649   -9.8664 C   0  0  0  0  0  0  0  0  0  0  0  0
   25.8222  -20.9222  -10.6635 C   0  0  2  0  0  0  0  0  0  0  0  0
   25.9081  -20.5975  -12.0751 N   0  0  0  0  0  0  0  0  0  0  0  0
   24.4357  -20.8754  -10.2149 C   0  0  0  0  0  0  0  0  0  0  0  0
   23.4533  -20.0745  -10.7758 O   0  0  0  0  0  0  0  0  0  0  0  0
   24.0639  -21.5954   -9.2559 O   0  0  0  0  0  0  0  0  0  0  0  0
  2  1  1  6
  3  4  1  0
  3  2  1  0
  5  6  2  0
  5  2  1  0
  7  5  1  0
  8  7  1  0
  9 10  1  0
  9  8  1  0
 10 11  1  0
 11  7  1  0
 11 12  1  1
 12 19  1  0
 13 12  2  0
 15 14  1  1
 16 15  1  0
 17 15  1  0
 18 20  1  0
 18 17  1  1
 19 18  1  0
 20 21  1  0
 22 20  2  0
M  END
$$$$
