CPL.pdb
     RDKit          3D

 22 22  0  0  1  0  0  0  0  0999 V2000
   17.2349   -9.5825  -19.6304 N   0  0  0  0  0  0  0  0  0  0  0  0
   17.2075   -8.2387  -19.1578 C   0  0  1  0  0  0  0  0  0  0  0  0
   16.1613   -8.1379  -18.0494 C   0  0  0  0  0  0  0  0  0  0  0  0
   14.5161   -8.1145  -18.8461 S   0  0  0  0  0  0  0  0  0  0  0  0
   18.4840   -7.6974  -18.6836 C   0  0  0  0  0  0  0  0  0  0  0  0
   19.3029   -8.5067  -18.1233 O   0  0  0  0  0  0  0  0  0  0  0  0
   18.9042   -6.3424  -18.7876 N   0  0  0  0  0  0  0  0  0  0  0  0
   18.1372   -5.3100  -19.4621 C   0  0  0  0  0  0  0  0  0  0  0  0
   19.1179   -4.1621  -19.5659 C   0  0  0  0  0  0  0  0  0  0  0  0
   19.9179   -4.2854  -18.3155 C   0  0  0  0  0  0  0  0  0  0  0  0
   20.1342   -5.8047  -18.2365 C   0  0  1  0  0  0  0  0  0  0  0  0
   20.2211   -6.0704  -16.7578 C   0  0  0  0  0  0  0  0  0  0  0  0
   19.1679   -6.4048  -16.1690 O   0  0  0  0  0  0  0  0  0  0  0  0
   23.2420   -9.6077  -13.2910 C   0  0  0  0  0  0  0  0  0  0  0  0
   22.3003   -8.4318  -13.2813 C   0  0  2  0  0  0  0  0  0  0  0  0
   21.0399   -8.7025  -12.4874 C   0  0  0  0  0  0  0  0  0  0  0  0
   22.0871   -7.7973  -14.5987 C   0  0  0  0  0  0  0  0  0  0  0  0
   21.5769   -6.4150  -14.6582 C   0  0  2  0  0  0  0  0  0  0  0  0
   21.4041   -5.9625  -16.0259 N   0  0  0  0  0  0  0  0  0  0  0  0
   22.2966   -5.4145  -13.8791 C   0  0  0  0  0  0  0  0  0  0  0  0
   22.0450   -5.1227  -12.5477 O   0  0  0  0  0  0  0  0  0  0  0  0
   23.2163   -4.7479  -14.4140 O   0  0  0  0  0  0  0  0  0  0  0  0
  2  1  1  1
  3  4  1  0
  3  2  1  0
  5  6  2  0
  5  2  1  0
  7  5  1  0
  8  7  1  0
  9 10  1  0
  9  8  1  0
 10 11  1  0
 11  7  1  0
 11 12  1  1
 12 19  1  0
 13 12  2  0
 15 14  1  6
 16 15  1  0
 17 15  1  0
 18 20  1  0
 18 17  1  6
 19 18  1  0
 20 21  1  0
 22 20  2  0
M  END
$$$$
