CPL.pdb
     RDKit          3D

 22 22  0  0  1  0  0  0  0  0999 V2000
   25.1194  -21.9645  -12.6919 N   0  0  0  0  0  0  0  0  0  0  0  0
   25.7282  -20.9155  -11.9443 C   0  0  1  0  0  0  0  0  0  0  0  0
   24.6267  -20.0052  -11.4046 C   0  0  0  0  0  0  0  0  0  0  0  0
   23.8475  -19.1763  -12.8356 S   0  0  0  0  0  0  0  0  0  0  0  0
   26.6065  -21.3327  -10.8481 C   0  0  0  0  0  0  0  0  0  0  0  0
   26.0562  -21.7513   -9.7704 O   0  0  0  0  0  0  0  0  0  0  0  0
   28.0287  -21.3158  -10.8678 N   0  0  0  0  0  0  0  0  0  0  0  0
   28.8151  -21.0272  -12.0540 C   0  0  0  0  0  0  0  0  0  0  0  0
   30.2165  -21.4275  -11.6463 C   0  0  0  0  0  0  0  0  0  0  0  0
   30.2599  -21.0824  -10.1981 C   0  0  0  0  0  0  0  0  0  0  0  0
   28.8829  -21.5718   -9.7231 C   0  0  1  0  0  0  0  0  0  0  0  0
   28.5521  -20.6410   -8.5877 C   0  0  0  0  0  0  0  0  0  0  0  0
   27.3680  -20.2455   -8.4924 O   0  0  0  0  0  0  0  0  0  0  0  0
   27.6723  -21.1919   -3.2709 C   0  0  0  0  0  0  0  0  0  0  0  0
   27.7821  -20.0627   -4.2620 C   0  0  2  0  0  0  0  0  0  0  0  0
   26.5972  -19.1220   -4.2055 C   0  0  0  0  0  0  0  0  0  0  0  0
   28.1958  -20.4687   -5.6213 C   0  0  0  0  0  0  0  0  0  0  0  0
   29.1688  -19.6391   -6.3558 C   0  0  2  0  0  0  0  0  0  0  0  0
   29.4912  -20.2065   -7.6517 N   0  0  0  0  0  0  0  0  0  0  0  0
   30.3874  -19.2705   -5.6452 C   0  0  0  0  0  0  0  0  0  0  0  0
   31.4047  -20.1527   -5.3166 O   0  0  0  0  0  0  0  0  0  0  0  0
   30.5674  -18.0806   -5.2875 O   0  0  0  0  0  0  0  0  0  0  0  0
  2  1  1  1
  3  4  1  0
  3  2  1  0
  5  6  2  0
  5  2  1  0
  7  5  1  0
  8  7  1  0
  9 10  1  0
  9  8  1  0
 10 11  1  0
 11  7  1  0
 11 12  1  1
 12 19  1  0
 13 12  2  0
 15 14  1  1
 16 15  1  0
 17 15  1  0
 18 20  1  0
 18 17  1  1
 19 18  1  0
 20 21  1  0
 22 20  2  0
M  END
$$$$
