CPL.pdb
     RDKit          3D

 22 22  0  0  1  0  0  0  0  0999 V2000
   13.2803  -25.9195    0.4434 N   0  0  0  0  0  0  0  0  0  0  0  0
   14.5401  -25.5469    0.9948 C   0  0  1  0  0  0  0  0  0  0  0  0
   15.4510  -25.0943   -0.1449 C   0  0  0  0  0  0  0  0  0  0  0  0
   17.1585  -25.5827    0.2885 S   0  0  0  0  0  0  0  0  0  0  0  0
   14.5067  -24.5194    2.0390 C   0  0  0  0  0  0  0  0  0  0  0  0
   13.9967  -23.3834    1.7408 O   0  0  0  0  0  0  0  0  0  0  0  0
   14.9933  -24.6660    3.3676 N   0  0  0  0  0  0  0  0  0  0  0  0
   15.5292  -25.9074    3.8974 C   0  0  0  0  0  0  0  0  0  0  0  0
   15.6141  -25.6410    5.3848 C   0  0  0  0  0  0  0  0  0  0  0  0
   15.9501  -24.1914    5.4510 C   0  0  0  0  0  0  0  0  0  0  0  0
   15.0312  -23.6120    4.3642 C   0  0  1  0  0  0  0  0  0  0  0  0
   15.7968  -22.4201    3.8561 C   0  0  0  0  0  0  0  0  0  0  0  0
   16.7606  -22.6387    3.0873 O   0  0  0  0  0  0  0  0  0  0  0  0
   13.1821  -19.2199    1.6153 C   0  0  0  0  0  0  0  0  0  0  0  0
   14.1397  -18.8082    2.7031 C   0  0  2  0  0  0  0  0  0  0  0  0
   14.0450  -17.3339    3.0340 C   0  0  0  0  0  0  0  0  0  0  0  0
   15.5139  -19.3291    2.5492 C   0  0  0  0  0  0  0  0  0  0  0  0
   16.1900  -19.9321    3.7128 C   0  0  2  0  0  0  0  0  0  0  0  0
   15.4853  -21.1038    4.1983 N   0  0  0  0  0  0  0  0  0  0  0  0
   16.5152  -19.0401    4.8194 C   0  0  0  0  0  0  0  0  0  0  0  0
   16.0913  -19.2203    6.1267 O   0  0  0  0  0  0  0  0  0  0  0  0
   17.2266  -18.0256    4.6168 O   0  0  0  0  0  0  0  0  0  0  0  0
  2  1  1  6
  3  4  1  0
  3  2  1  0
  5  6  2  0
  5  2  1  0
  7  5  1  0
  8  7  1  0
  9 10  1  0
  9  8  1  0
 10 11  1  0
 11  7  1  0
 11 12  1  6
 12 19  1  0
 13 12  2  0
 15 14  1  6
 16 15  1  0
 17 15  1  0
 18 20  1  0
 18 17  1  6
 19 18  1  0
 20 21  1  0
 22 20  2  0
M  END
$$$$
