CPL.pdb
     RDKit          3D

 22 22  0  0  1  0  0  0  0  0999 V2000
   17.5050  -12.5408  -14.5916 N   0  0  0  0  0  0  0  0  0  0  0  0
   17.7497  -11.1492  -14.7749 C   0  0  1  0  0  0  0  0  0  0  0  0
   16.5676  -10.5468  -15.5321 C   0  0  0  0  0  0  0  0  0  0  0  0
   15.0437  -11.3078  -14.8685 S   0  0  0  0  0  0  0  0  0  0  0  0
   18.0033  -10.3747  -13.5571 C   0  0  0  0  0  0  0  0  0  0  0  0
   17.4197  -10.7492  -12.4807 O   0  0  0  0  0  0  0  0  0  0  0  0
   18.8457   -9.2330  -13.4565 N   0  0  0  0  0  0  0  0  0  0  0  0
   19.7003   -8.7643  -14.5330 C   0  0  0  0  0  0  0  0  0  0  0  0
   20.5920   -7.7496  -13.8506 C   0  0  0  0  0  0  0  0  0  0  0  0
   19.6950   -7.1439  -12.8273 C   0  0  0  0  0  0  0  0  0  0  0  0
   18.9633   -8.3823  -12.2868 C   0  0  1  0  0  0  0  0  0  0  0  0
   17.6189   -7.8446  -11.8767 C   0  0  0  0  0  0  0  0  0  0  0  0
   16.7368   -7.7613  -12.7614 O   0  0  0  0  0  0  0  0  0  0  0  0
   14.3939   -6.7843   -6.7263 C   0  0  0  0  0  0  0  0  0  0  0  0
   14.3794   -6.8979   -8.2284 C   0  0  2  0  0  0  0  0  0  0  0  0
   13.1257   -7.5682   -8.7490 C   0  0  0  0  0  0  0  0  0  0  0  0
   15.6420   -7.3797   -8.8261 C   0  0  0  0  0  0  0  0  0  0  0  0
   16.0455   -6.8831  -10.1548 C   0  0  2  0  0  0  0  0  0  0  0  0
   17.3169   -7.4412  -10.5756 N   0  0  0  0  0  0  0  0  0  0  0  0
   16.0365   -5.4378  -10.3470 C   0  0  0  0  0  0  0  0  0  0  0  0
   14.9507   -4.7120  -10.8112 O   0  0  0  0  0  0  0  0  0  0  0  0
   17.0641   -4.7656  -10.0857 O   0  0  0  0  0  0  0  0  0  0  0  0
  2  1  1  1
  3  4  1  0
  3  2  1  0
  5  6  2  0
  5  2  1  0
  7  5  1  0
  8  7  1  0
  9 10  1  0
  9  8  1  0
 10 11  1  0
 11  7  1  0
 11 12  1  6
 12 19  1  0
 13 12  2  0
 15 14  1  1
 16 15  1  0
 17 15  1  0
 18 20  1  0
 18 17  1  1
 19 18  1  0
 20 21  1  0
 22 20  2  0
M  END
$$$$
