CPL.pdb
     RDKit          3D

 22 22  0  0  1  0  0  0  0  0999 V2000
   25.1530  -21.2614  -10.7741 N   0  0  0  0  0  0  0  0  0  0  0  0
   25.4494  -21.3307  -12.1660 C   0  0  1  0  0  0  0  0  0  0  0  0
   24.2735  -21.9975  -12.8773 C   0  0  0  0  0  0  0  0  0  0  0  0
   24.6774  -23.7705  -13.0646 S   0  0  0  0  0  0  0  0  0  0  0  0
   25.7663  -20.0585  -12.8203 C   0  0  0  0  0  0  0  0  0  0  0  0
   25.0729  -19.0324  -12.4951 O   0  0  0  0  0  0  0  0  0  0  0  0
   26.7826  -19.8533  -13.7942 N   0  0  0  0  0  0  0  0  0  0  0  0
   27.7199  -20.8815  -14.2103 C   0  0  0  0  0  0  0  0  0  0  0  0
   28.7544  -20.1084  -14.9991 C   0  0  0  0  0  0  0  0  0  0  0  0
   27.9523  -19.0355  -15.6502 C   0  0  0  0  0  0  0  0  0  0  0  0
   27.0188  -18.6108  -14.5057 C   0  0  1  0  0  0  0  0  0  0  0  0
   25.7742  -18.1554  -15.2186 C   0  0  0  0  0  0  0  0  0  0  0  0
   24.7084  -18.7603  -14.9619 O   0  0  0  0  0  0  0  0  0  0  0  0
   22.8270  -13.6681  -14.3165 C   0  0  0  0  0  0  0  0  0  0  0  0
   22.8312  -14.8485  -15.2527 C   0  0  2  0  0  0  0  0  0  0  0  0
   21.5143  -15.5954  -15.2529 C   0  0  0  0  0  0  0  0  0  0  0  0
   24.0353  -15.7011  -15.1701 C   0  0  0  0  0  0  0  0  0  0  0  0
   24.6074  -16.2612  -16.4085 C   0  0  2  0  0  0  0  0  0  0  0  0
   25.7556  -17.1060  -16.1379 N   0  0  0  0  0  0  0  0  0  0  0  0
   24.9116  -15.3176  -17.4776 C   0  0  0  0  0  0  0  0  0  0  0  0
   24.1085  -15.0974  -18.5856 O   0  0  0  0  0  0  0  0  0  0  0  0
   25.9654  -14.6366  -17.4300 O   0  0  0  0  0  0  0  0  0  0  0  0
  2  1  1  1
  3  4  1  0
  3  2  1  0
  5  6  2  0
  5  2  1  0
  7  5  1  0
  8  7  1  0
  9 10  1  0
  9  8  1  0
 10 11  1  0
 11  7  1  0
 11 12  1  6
 12 19  1  0
 13 12  2  0
 15 14  1  1
 16 15  1  0
 17 15  1  0
 18 20  1  0
 18 17  1  1
 19 18  1  0
 20 21  1  0
 22 20  2  0
M  END
$$$$
