LRF.pdb
     RDKit          3D

 31 31  0  0  1  0  0  0  0  0999 V2000
   28.9847  -21.4565  -17.1041 C   0  0  0  0  0  0  0  0  0  0  0  0
   29.0739  -19.9695  -16.9428 C   0  0  2  0  0  0  0  0  0  0  0  0
   30.5002  -19.5193  -16.8490 C   0  0  0  0  0  0  0  0  0  0  0  0
   28.2484  -19.4192  -15.8100 C   0  0  0  0  0  0  0  0  0  0  0  0
   26.8289  -19.9454  -15.7989 C   0  0  2  0  0  0  0  0  0  0  0  0
   26.0292  -19.4522  -16.8801 N   0  0  0  0  0  0  0  0  0  0  0  0
   26.2506  -19.6618  -14.4753 C   0  0  0  0  0  0  0  0  0  0  0  0
   25.8239  -18.4785  -14.2691 O   0  0  0  0  0  0  0  0  0  0  0  0
   19.4519  -21.6202   -9.6158 N   0  0  0  0  0  0  0  0  0  0  0  0
   19.5609  -20.3860  -10.3097 C   0  0  0  0  0  0  0  0  0  0  0  0
   18.6394  -19.4798  -10.1219 N   0  0  0  0  0  0  0  0  0  0  0  0
   20.6180  -20.1057  -11.1869 N   0  0  0  0  0  0  0  0  0  0  0  0
   21.6465  -21.0799  -11.4364 C   0  0  0  0  0  0  0  0  0  0  0  0
   23.0386  -20.4980  -11.3257 C   0  0  0  0  0  0  0  0  0  0  0  0
   23.8855  -20.8781  -12.5317 C   0  0  0  0  0  0  0  0  0  0  0  0
   25.2673  -20.2996  -12.3000 C   0  0  2  0  0  0  0  0  0  0  0  0
   26.1248  -20.5828  -13.4103 N   0  0  0  0  0  0  0  0  0  0  0  0
   25.8645  -20.8447  -11.0380 C   0  0  0  0  0  0  0  0  0  0  0  0
   25.9664  -22.0840  -10.9110 O   0  0  0  0  0  0  0  0  0  0  0  0
   18.7189  -18.5426  -10.5561 N   0  0  0  0  0  0  0  0  0  0  0  0
   26.3072  -19.9993  -10.0072 C   0  0  2  0  0  0  0  0  0  0  0  0
   26.7374  -20.4010   -8.6869 C   0  0  0  0  0  0  0  0  0  0  0  0
   27.6818  -19.3869   -8.1580 C   0  0  0  0  0  0  0  0  0  0  0  0
   28.1734  -19.6209   -6.7935 C   0  0  0  0  0  0  0  0  0  0  0  0
   27.6683  -18.9069   -5.7381 C   0  0  0  0  0  0  0  0  0  0  0  0
   28.1375  -19.1332   -4.4411 C   0  0  0  0  0  0  0  0  0  0  0  0
   29.1167  -20.0914   -4.2694 C   0  0  0  0  0  0  0  0  0  0  0  0
   29.6512  -20.8325   -5.3105 C   0  0  0  0  0  0  0  0  0  0  0  0
   29.1486  -20.5683   -6.5847 C   0  0  0  0  0  0  0  0  0  0  0  0
   25.6389  -20.7840   -7.7779 O   0  0  0  0  0  0  0  0  0  0  0  0
   24.3647  -20.2408   -7.8647 O   0  0  0  0  0  0  0  0  0  0  0  0
  2  1  1  1
  3  2  1  0
  4  5  1  0
  4  2  1  0
  5  6  1  6
  7  5  1  0
  7  8  2  0
  9 10  1  0
 10 12  1  0
 11 10  2  0
 12 13  1  0
 13 14  1  0
 14 15  1  0
 16 15  1  6
 16 17  1  0
 17  7  1  0
 18 16  1  0
 19 18  2  0
 20 18  1  0
 21 20  1  0
 21 22  1  1
 22 23  1  0
 23 28  2  0
 24 25  2  0
 24 23  1  0
 25 26  1  0
 26 27  2  0
 28 27  1  0
 29 21  1  0
 30 29  1  0
 31 29  2  0
M  END
$$$$
