LRF.pdb
     RDKit          3D

 31 31  0  0  1  0  0  0  0  0999 V2000
   20.5854  -17.8029  -13.9078 C   0  0  0  0  0  0  0  0  0  0  0  0
   19.9015  -18.3724  -12.7023 C   0  0  2  0  0  0  0  0  0  0  0  0
   19.4210  -17.2863  -11.7883 C   0  0  0  0  0  0  0  0  0  0  0  0
   20.7135  -19.3985  -11.9572 C   0  0  0  0  0  0  0  0  0  0  0  0
   21.3350  -20.4382  -12.8653 C   0  0  2  0  0  0  0  0  0  0  0  0
   20.4103  -21.4422  -13.2996 N   0  0  0  0  0  0  0  0  0  0  0  0
   22.5124  -20.9942  -12.1786 C   0  0  0  0  0  0  0  0  0  0  0  0
   22.2967  -21.8187  -11.2307 O   0  0  0  0  0  0  0  0  0  0  0  0
   27.5085  -20.9283  -16.5777 N   0  0  0  0  0  0  0  0  0  0  0  0
   27.9879  -21.8781  -15.6370 C   0  0  0  0  0  0  0  0  0  0  0  0
   28.2535  -23.0881  -16.0505 N   0  0  0  0  0  0  0  0  0  0  0  0
   28.1853  -21.5656  -14.2847 N   0  0  0  0  0  0  0  0  0  0  0  0
   27.9449  -20.2353  -13.7931 C   0  0  0  0  0  0  0  0  0  0  0  0
   26.7248  -20.1555  -12.9023 C   0  0  0  0  0  0  0  0  0  0  0  0
   26.1276  -21.5362  -12.6713 C   0  0  0  0  0  0  0  0  0  0  0  0
   24.9232  -21.3504  -11.7699 C   0  0  2  0  0  0  0  0  0  0  0  0
   23.8624  -20.6973  -12.4746 N   0  0  0  0  0  0  0  0  0  0  0  0
   25.2916  -20.5610  -10.5502 C   0  0  0  0  0  0  0  0  0  0  0  0
   25.0837  -19.3285  -10.5501 O   0  0  0  0  0  0  0  0  0  0  0  0
   28.5708  -23.8187  -15.3881 N   0  0  0  0  0  0  0  0  0  0  0  0
   25.8591  -21.1727   -9.4202 C   0  0  2  0  0  0  0  0  0  0  0  0
   26.4128  -20.5045   -8.2642 C   0  0  0  0  0  0  0  0  0  0  0  0
   27.2092  -21.4789   -7.4792 C   0  0  0  0  0  0  0  0  0  0  0  0
   27.8755  -20.9448   -6.2837 C   0  0  0  0  0  0  0  0  0  0  0  0
   27.3695  -21.1921   -5.0341 C   0  0  0  0  0  0  0  0  0  0  0  0
   28.0068  -20.6833   -3.8990 C   0  0  0  0  0  0  0  0  0  0  0  0
   29.1501  -19.9321   -4.0856 C   0  0  0  0  0  0  0  0  0  0  0  0
   29.6912  -19.6611   -5.3316 C   0  0  0  0  0  0  0  0  0  0  0  0
   29.0173  -20.1920   -6.4317 C   0  0  0  0  0  0  0  0  0  0  0  0
   27.0865  -19.2254   -8.5638 O   0  0  0  0  0  0  0  0  0  0  0  0
   26.7817  -18.0411   -7.9075 O   0  0  0  0  0  0  0  0  0  0  0  0
  2  1  1  6
  3  2  1  0
  4  5  1  0
  4  2  1  0
  5  6  1  1
  7  5  1  0
  7  8  2  0
  9 10  1  0
 10 12  1  0
 11 10  2  0
 12 13  1  0
 13 14  1  0
 14 15  1  0
 16 15  1  6
 16 17  1  0
 17  7  1  0
 18 16  1  0
 19 18  2  0
 20 18  1  0
 21 20  1  0
 21 22  1  1
 22 23  1  0
 23 28  2  0
 24 25  2  0
 24 23  1  0
 25 26  1  0
 26 27  2  0
 28 27  1  0
 29 21  1  0
 30 29  1  0
 31 29  2  0
M  END
$$$$
