LRF.pdb
     RDKit          3D

 31 31  0  0  1  0  0  0  0  0999 V2000
   26.3770  -14.3700  -17.6861 C   0  0  0  0  0  0  0  0  0  0  0  0
   25.7504  -14.0527  -16.3625 C   0  0  2  0  0  0  0  0  0  0  0  0
   26.6795  -13.2524  -15.5011 C   0  0  0  0  0  0  0  0  0  0  0  0
   25.2164  -15.2533  -15.6270 C   0  0  0  0  0  0  0  0  0  0  0  0
   24.3311  -16.1311  -16.4858 C   0  0  2  0  0  0  0  0  0  0  0  0
   23.1003  -15.5035  -16.8640 N   0  0  0  0  0  0  0  0  0  0  0  0
   24.1364  -17.4078  -15.7795 C   0  0  0  0  0  0  0  0  0  0  0  0
   23.2957  -17.4195  -14.8214 O   0  0  0  0  0  0  0  0  0  0  0  0
   28.8512  -22.0532  -17.7068 N   0  0  0  0  0  0  0  0  0  0  0  0
   28.6618  -23.1408  -16.8136 C   0  0  0  0  0  0  0  0  0  0  0  0
   29.7148  -23.7399  -16.3258 N   0  0  0  0  0  0  0  0  0  0  0  0
   27.3895  -23.5942  -16.4377 N   0  0  0  0  0  0  0  0  0  0  0  0
   26.2070  -22.8671  -16.8148 C   0  0  0  0  0  0  0  0  0  0  0  0
   25.9305  -21.6921  -15.9029 C   0  0  0  0  0  0  0  0  0  0  0  0
   24.6037  -21.0327  -16.2509 C   0  0  0  0  0  0  0  0  0  0  0  0
   24.4655  -19.8194  -15.3530 C   0  0  2  0  0  0  0  0  0  0  0  0
   24.7973  -18.6240  -16.0667 N   0  0  0  0  0  0  0  0  0  0  0  0
   25.3395  -19.9540  -14.1429 C   0  0  0  0  0  0  0  0  0  0  0  0
   26.5415  -19.6236  -14.2334 O   0  0  0  0  0  0  0  0  0  0  0  0
   29.6183  -24.5664  -15.7088 N   0  0  0  0  0  0  0  0  0  0  0  0
   24.8393  -20.4386  -12.9229 C   0  0  1  0  0  0  0  0  0  0  0  0
   25.6145  -20.8311  -11.7677 C   0  0  0  0  0  0  0  0  0  0  0  0
   26.0718  -19.6121  -11.0568 C   0  0  0  0  0  0  0  0  0  0  0  0
   26.7066  -19.8337   -9.7507 C   0  0  0  0  0  0  0  0  0  0  0  0
   25.9644  -19.7947   -8.5989 C   0  0  0  0  0  0  0  0  0  0  0  0
   26.5716  -20.0072   -7.3581 C   0  0  0  0  0  0  0  0  0  0  0  0
   27.9300  -20.2542   -7.3405 C   0  0  0  0  0  0  0  0  0  0  0  0
   28.7126  -20.3015   -8.4825 C   0  0  0  0  0  0  0  0  0  0  0  0
   28.0583  -20.0829   -9.6950 C   0  0  0  0  0  0  0  0  0  0  0  0
   24.9730  -21.8582  -10.9232 O   0  0  0  0  0  0  0  0  0  0  0  0
   23.6014  -21.9176  -10.7197 O   0  0  0  0  0  0  0  0  0  0  0  0
  2  1  1  6
  3  2  1  0
  4  5  1  0
  4  2  1  0
  5  6  1  1
  7  5  1  0
  7  8  2  0
  9 10  1  0
 10 12  1  0
 11 10  2  0
 12 13  1  0
 13 14  1  0
 14 15  1  0
 16 15  1  6
 16 17  1  0
 17  7  1  0
 18 16  1  0
 19 18  2  0
 20 18  1  0
 21 20  1  0
 21 22  1  1
 22 23  1  0
 23 28  2  0
 24 25  2  0
 24 23  1  0
 25 26  1  0
 26 27  2  0
 28 27  1  0
 29 21  1  0
 30 29  1  0
 31 29  2  0
M  END
$$$$
