LRF.pdb
     RDKit          3D

 31 31  0  0  1  0  0  0  0  0999 V2000
   29.0220  -19.7246  -17.0361 C   0  0  0  0  0  0  0  0  0  0  0  0
   27.7786  -18.8918  -16.9640 C   0  0  2  0  0  0  0  0  0  0  0  0
   27.9836  -17.5549  -17.6093 C   0  0  0  0  0  0  0  0  0  0  0  0
   27.2075  -18.7510  -15.5777 C   0  0  0  0  0  0  0  0  0  0  0  0
   27.4244  -19.9782  -14.7182 C   0  0  2  0  0  0  0  0  0  0  0  0
   27.0437  -21.1999  -15.3617 N   0  0  0  0  0  0  0  0  0  0  0  0
   26.7356  -19.7608  -13.4355 C   0  0  0  0  0  0  0  0  0  0  0  0
   26.8323  -18.6020  -12.9132 O   0  0  0  0  0  0  0  0  0  0  0  0
   19.5580  -19.3214  -11.9666 N   0  0  0  0  0  0  0  0  0  0  0  0
   19.9918  -20.5925  -12.4277 C   0  0  0  0  0  0  0  0  0  0  0  0
   19.3350  -21.1613  -13.4028 N   0  0  0  0  0  0  0  0  0  0  0  0
   21.0958  -21.2576  -11.8760 N   0  0  0  0  0  0  0  0  0  0  0  0
   21.5681  -20.9324  -10.5567 C   0  0  0  0  0  0  0  0  0  0  0  0
   22.9657  -20.3535  -10.5650 C   0  0  0  0  0  0  0  0  0  0  0  0
   23.7557  -20.8544  -11.7655 C   0  0  0  0  0  0  0  0  0  0  0  0
   25.1705  -20.3327  -11.6109 C   0  0  2  0  0  0  0  0  0  0  0  0
   25.9756  -20.7206  -12.7289 N   0  0  0  0  0  0  0  0  0  0  0  0
   25.7835  -20.8340  -10.3384 C   0  0  0  0  0  0  0  0  0  0  0  0
   25.9356  -22.0660  -10.1924 O   0  0  0  0  0  0  0  0  0  0  0  0
   19.6178  -22.0903  -13.7636 N   0  0  0  0  0  0  0  0  0  0  0  0
   26.1861  -19.9559   -9.3185 C   0  0  1  0  0  0  0  0  0  0  0  0
   26.6931  -20.3220   -8.0153 C   0  0  0  0  0  0  0  0  0  0  0  0
   27.6748  -19.3008   -7.5753 C   0  0  0  0  0  0  0  0  0  0  0  0
   28.2066  -19.4687   -6.2161 C   0  0  0  0  0  0  0  0  0  0  0  0
   27.8204  -18.6254   -5.2070 C   0  0  0  0  0  0  0  0  0  0  0  0
   28.3275  -18.7890   -3.9148 C   0  0  0  0  0  0  0  0  0  0  0  0
   29.2207  -19.8198   -3.7001 C   0  0  0  0  0  0  0  0  0  0  0  0
   29.6343  -20.6916   -4.6939 C   0  0  0  0  0  0  0  0  0  0  0  0
   29.0986  -20.4854   -5.9653 C   0  0  0  0  0  0  0  0  0  0  0  0
   25.6493  -20.6685   -7.0303 O   0  0  0  0  0  0  0  0  0  0  0  0
   25.8716  -21.5363   -5.9702 O   0  0  0  0  0  0  0  0  0  0  0  0
  2  1  1  1
  3  2  1  0
  4  5  1  0
  4  2  1  0
  5  6  1  6
  7  5  1  0
  7  8  2  0
  9 10  1  0
 10 12  1  0
 11 10  2  0
 12 13  1  0
 13 14  1  0
 14 15  1  0
 16 15  1  6
 16 17  1  0
 17  7  1  0
 18 16  1  0
 19 18  2  0
 20 18  1  0
 21 20  1  0
 21 22  1  1
 22 23  1  0
 23 28  2  0
 24 25  2  0
 24 23  1  0
 25 26  1  0
 26 27  2  0
 28 27  1  0
 29 21  1  0
 30 29  1  0
 31 29  2  0
M  END
$$$$
