LRF.pdb
     RDKit          3D

 31 31  0  0  1  0  0  0  0  0999 V2000
   24.0934  -23.3190  -18.5901 C   0  0  0  0  0  0  0  0  0  0  0  0
   23.8577  -24.3204  -17.5008 C   0  0  2  0  0  0  0  0  0  0  0  0
   22.3928  -24.5503  -17.2837 C   0  0  0  0  0  0  0  0  0  0  0  0
   24.5620  -24.0054  -16.2076 C   0  0  0  0  0  0  0  0  0  0  0  0
   26.0330  -23.6981  -16.3916 C   0  0  2  0  0  0  0  0  0  0  0  0
   26.8298  -24.8590  -16.6546 N   0  0  0  0  0  0  0  0  0  0  0  0
   26.4879  -22.9382  -15.2158 C   0  0  0  0  0  0  0  0  0  0  0  0
   26.6777  -23.5931  -14.1387 O   0  0  0  0  0  0  0  0  0  0  0  0
   27.7563  -14.9975  -16.9369 N   0  0  0  0  0  0  0  0  0  0  0  0
   26.5094  -15.6495  -17.1288 C   0  0  0  0  0  0  0  0  0  0  0  0
   25.6172  -15.0797  -17.8936 N   0  0  0  0  0  0  0  0  0  0  0  0
   26.2017  -16.8785  -16.5286 N   0  0  0  0  0  0  0  0  0  0  0  0
   27.1287  -17.5122  -15.6296 C   0  0  0  0  0  0  0  0  0  0  0  0
   26.6330  -18.8517  -15.1311 C   0  0  0  0  0  0  0  0  0  0  0  0
   27.6676  -19.5162  -14.2343 C   0  0  0  0  0  0  0  0  0  0  0  0
   27.1753  -20.9235  -13.9611 C   0  0  2  0  0  0  0  0  0  0  0  0
   26.7340  -21.5470  -15.1715 N   0  0  0  0  0  0  0  0  0  0  0  0
   26.0635  -20.9096  -12.9560 C   0  0  0  0  0  0  0  0  0  0  0  0
   24.9270  -20.5441  -13.3261 O   0  0  0  0  0  0  0  0  0  0  0  0
   24.7455  -15.5752  -18.1539 N   0  0  0  0  0  0  0  0  0  0  0  0
   26.2718  -21.2953  -11.6214 C   0  0  2  0  0  0  0  0  0  0  0  0
   25.2812  -21.3316  -10.5693 C   0  0  0  0  0  0  0  0  0  0  0  0
   25.9234  -21.8032   -9.3181 C   0  0  0  0  0  0  0  0  0  0  0  0
   26.8097  -20.8396   -8.6516 C   0  0  0  0  0  0  0  0  0  0  0  0
   28.1714  -20.9754   -8.7287 C   0  0  0  0  0  0  0  0  0  0  0  0
   29.0116  -20.0560   -8.0943 C   0  0  0  0  0  0  0  0  0  0  0  0
   28.4218  -19.0206   -7.3968 C   0  0  0  0  0  0  0  0  0  0  0  0
   27.0508  -18.8505   -7.2965 C   0  0  0  0  0  0  0  0  0  0  0  0
   26.2571  -19.7950   -7.9476 C   0  0  0  0  0  0  0  0  0  0  0  0
   24.4762  -20.1000  -10.4471 O   0  0  0  0  0  0  0  0  0  0  0  0
   23.1481  -20.1045  -10.0442 O   0  0  0  0  0  0  0  0  0  0  0  0
  2  1  1  6
  3  2  1  0
  4  5  1  0
  4  2  1  0
  5  6  1  1
  7  5  1  0
  7  8  2  0
  9 10  1  0
 10 12  1  0
 11 10  2  0
 12 13  1  0
 13 14  1  0
 14 15  1  0
 16 15  1  6
 16 17  1  0
 17  7  1  0
 18 16  1  0
 19 18  2  0
 20 18  1  0
 21 20  1  0
 21 22  1  6
 22 23  1  0
 23 28  2  0
 24 25  2  0
 24 23  1  0
 25 26  1  0
 26 27  2  0
 28 27  1  0
 29 21  1  0
 30 29  1  0
 31 29  2  0
M  END
$$$$
