LRF.pdb
     RDKit          3D

 31 31  0  0  1  0  0  0  0  0999 V2000
   18.3571  -21.1300  -12.3304 C   0  0  0  0  0  0  0  0  0  0  0  0
   19.6315  -21.3661  -13.0822 C   0  0  2  0  0  0  0  0  0  0  0  0
   19.4907  -22.5082  -14.0421 C   0  0  0  0  0  0  0  0  0  0  0  0
   20.8453  -21.5309  -12.2063 C   0  0  0  0  0  0  0  0  0  0  0  0
   21.7020  -20.2846  -12.1373 C   0  0  2  0  0  0  0  0  0  0  0  0
   21.5634  -19.4331  -13.2808 N   0  0  0  0  0  0  0  0  0  0  0  0
   23.0920  -20.7030  -11.8925 C   0  0  0  0  0  0  0  0  0  0  0  0
   23.2969  -21.4937  -10.9140 O   0  0  0  0  0  0  0  0  0  0  0  0
   30.1817  -23.3196  -14.9979 N   0  0  0  0  0  0  0  0  0  0  0  0
   29.1382  -22.7133  -15.7462 C   0  0  0  0  0  0  0  0  0  0  0  0
   28.7436  -23.2899  -16.8496 N   0  0  0  0  0  0  0  0  0  0  0  0
   28.5181  -21.5214  -15.3455 N   0  0  0  0  0  0  0  0  0  0  0  0
   28.8819  -20.8807  -14.1100 C   0  0  0  0  0  0  0  0  0  0  0  0
   27.8461  -21.0777  -13.0252 C   0  0  0  0  0  0  0  0  0  0  0  0
   26.4809  -20.5809  -13.4787 C   0  0  0  0  0  0  0  0  0  0  0  0
   25.5212  -20.8191  -12.3298 C   0  0  2  0  0  0  0  0  0  0  0  0
   24.2219  -20.3078  -12.6443 N   0  0  0  0  0  0  0  0  0  0  0  0
   26.0325  -20.1835  -11.0724 C   0  0  0  0  0  0  0  0  0  0  0  0
   25.8926  -18.9502  -10.9260 O   0  0  0  0  0  0  0  0  0  0  0  0
   27.9192  -22.9374  -17.3684 N   0  0  0  0  0  0  0  0  0  0  0  0
   26.6584  -20.9388  -10.0668 C   0  0  1  0  0  0  0  0  0  0  0  0
   27.5042  -20.4337   -9.0090 C   0  0  0  0  0  0  0  0  0  0  0  0
   26.7952  -20.5780   -7.7141 C   0  0  0  0  0  0  0  0  0  0  0  0
   27.5488  -20.1640   -6.5229 C   0  0  0  0  0  0  0  0  0  0  0  0
   28.0673  -21.0995   -5.6657 C   0  0  0  0  0  0  0  0  0  0  0  0
   28.7847  -20.7019   -4.5339 C   0  0  0  0  0  0  0  0  0  0  0  0
   28.9469  -19.3479   -4.3180 C   0  0  0  0  0  0  0  0  0  0  0  0
   28.4381  -18.3736   -5.1611 C   0  0  0  0  0  0  0  0  0  0  0  0
   27.7303  -18.8230   -6.2760 C   0  0  0  0  0  0  0  0  0  0  0  0
   28.8885  -20.9463   -9.0380 O   0  0  0  0  0  0  0  0  0  0  0  0
   29.9823  -20.1851   -8.6503 O   0  0  0  0  0  0  0  0  0  0  0  0
  2  1  1  1
  3  2  1  0
  4  5  1  0
  4  2  1  0
  5  6  1  6
  7  5  1  0
  7  8  2  0
  9 10  1  0
 10 12  1  0
 11 10  2  0
 12 13  1  0
 13 14  1  0
 14 15  1  0
 16 15  1  6
 16 17  1  0
 17  7  1  0
 18 16  1  0
 19 18  2  0
 20 18  1  0
 21 20  1  0
 21 22  1  1
 22 23  1  0
 23 28  2  0
 24 25  2  0
 24 23  1  0
 25 26  1  0
 26 27  2  0
 28 27  1  0
 29 21  1  0
 30 29  1  0
 31 29  2  0
M  END
$$$$
