LRF.pdb
     RDKit          3D

 31 31  0  0  1  0  0  0  0  0999 V2000
   25.8560  -16.1018  -14.4959 C   0  0  0  0  0  0  0  0  0  0  0  0
   26.5263  -15.7242  -15.7817 C   0  0  2  0  0  0  0  0  0  0  0  0
   27.9598  -15.3503  -15.5560 C   0  0  0  0  0  0  0  0  0  0  0  0
   25.8004  -14.6669  -16.5708 C   0  0  0  0  0  0  0  0  0  0  0  0
   24.3577  -15.0253  -16.8579 C   0  0  2  0  0  0  0  0  0  0  0  0
   24.2120  -16.1818  -17.6902 N   0  0  0  0  0  0  0  0  0  0  0  0
   23.6942  -13.8309  -17.4056 C   0  0  0  0  0  0  0  0  0  0  0  0
   23.8718  -13.5838  -18.6435 O   0  0  0  0  0  0  0  0  0  0  0  0
   16.1013  -14.4095  -18.1404 N   0  0  0  0  0  0  0  0  0  0  0  0
   16.5894  -14.3963  -16.8069 C   0  0  0  0  0  0  0  0  0  0  0  0
   15.8157  -14.8414  -15.8535 N   0  0  0  0  0  0  0  0  0  0  0  0
   17.8674  -13.9237  -16.4770 N   0  0  0  0  0  0  0  0  0  0  0  0
   18.7584  -13.4363  -17.4958 C   0  0  0  0  0  0  0  0  0  0  0  0
   20.0848  -12.9721  -16.9355 C   0  0  0  0  0  0  0  0  0  0  0  0
   20.9442  -12.3413  -18.0217 C   0  0  0  0  0  0  0  0  0  0  0  0
   22.2134  -11.8535  -17.3517 C   0  0  2  0  0  0  0  0  0  0  0  0
   22.8769  -12.9314  -16.6837 N   0  0  0  0  0  0  0  0  0  0  0  0
   21.9096  -10.7554  -16.3779 C   0  0  0  0  0  0  0  0  0  0  0  0
   21.6182  -11.0625  -15.2019 O   0  0  0  0  0  0  0  0  0  0  0  0
   16.1429  -14.8659  -14.8709 N   0  0  0  0  0  0  0  0  0  0  0  0
   21.9458   -9.4033  -16.7572 C   0  0  2  0  0  0  0  0  0  0  0  0
   21.5700   -8.2689  -15.9439 C   0  0  0  0  0  0  0  0  0  0  0  0
   22.7722   -7.4379  -15.6901 C   0  0  0  0  0  0  0  0  0  0  0  0
   22.5256   -6.1288  -15.0706 C   0  0  0  0  0  0  0  0  0  0  0  0
   22.1348   -6.0401  -13.7598 C   0  0  0  0  0  0  0  0  0  0  0  0
   21.9022   -4.7928  -13.1734 C   0  0  0  0  0  0  0  0  0  0  0  0
   22.0795   -3.6703  -13.9575 C   0  0  0  0  0  0  0  0  0  0  0  0
   22.4734   -3.7200  -15.2846 C   0  0  0  0  0  0  0  0  0  0  0  0
   22.6925   -4.9887  -15.8218 C   0  0  0  0  0  0  0  0  0  0  0  0
   20.3814   -7.5389  -16.4277 O   0  0  0  0  0  0  0  0  0  0  0  0
   20.1632   -7.2591  -17.7694 O   0  0  0  0  0  0  0  0  0  0  0  0
  2  1  1  1
  3  2  1  0
  4  5  1  0
  4  2  1  0
  5  6  1  6
  7  5  1  0
  7  8  2  0
  9 10  1  0
 10 12  1  0
 11 10  2  0
 12 13  1  0
 13 14  1  0
 14 15  1  0
 16 15  1  1
 16 17  1  0
 17  7  1  0
 18 16  1  0
 19 18  2  0
 20 18  1  0
 21 20  1  0
 21 22  1  6
 22 23  1  0
 23 28  2  0
 24 25  2  0
 24 23  1  0
 25 26  1  0
 26 27  2  0
 28 27  1  0
 29 21  1  0
 30 29  1  0
 31 29  2  0
M  END
$$$$
