LRF.pdb
     RDKit          3D

 31 31  0  0  1  0  0  0  0  0999 V2000
   29.0308  -16.4221  -15.7518 C   0  0  0  0  0  0  0  0  0  0  0  0
   27.5327  -16.4316  -15.7803 C   0  0  2  0  0  0  0  0  0  0  0  0
   26.9862  -15.0538  -16.0010 C   0  0  0  0  0  0  0  0  0  0  0  0
   26.8953  -17.0909  -14.5859 C   0  0  0  0  0  0  0  0  0  0  0  0
   27.4781  -18.4538  -14.2778 C   0  0  2  0  0  0  0  0  0  0  0  0
   27.5838  -19.3020  -15.4271 N   0  0  0  0  0  0  0  0  0  0  0  0
   26.6862  -19.0500  -13.1895 C   0  0  0  0  0  0  0  0  0  0  0  0
   25.8498  -18.2921  -12.5970 O   0  0  0  0  0  0  0  0  0  0  0  0
   24.0294  -23.6997  -16.3066 N   0  0  0  0  0  0  0  0  0  0  0  0
   24.2996  -24.5990  -15.2412 C   0  0  0  0  0  0  0  0  0  0  0  0
   24.9058  -25.7238  -15.5112 N   0  0  0  0  0  0  0  0  0  0  0  0
   23.9401  -24.3246  -13.9142 N   0  0  0  0  0  0  0  0  0  0  0  0
   23.4418  -23.0285  -13.5386 C   0  0  0  0  0  0  0  0  0  0  0  0
   24.5432  -22.0023  -13.3893 C   0  0  0  0  0  0  0  0  0  0  0  0
   25.3058  -22.2070  -12.0882 C   0  0  0  0  0  0  0  0  0  0  0  0
   25.8985  -20.8645  -11.7087 C   0  0  2  0  0  0  0  0  0  0  0  0
   26.7682  -20.3879  -12.7406 N   0  0  0  0  0  0  0  0  0  0  0  0
   26.6452  -20.9627  -10.4128 C   0  0  0  0  0  0  0  0  0  0  0  0
   27.8901  -21.0680  -10.4463 O   0  0  0  0  0  0  0  0  0  0  0  0
   25.1620  -26.3845  -14.7555 N   0  0  0  0  0  0  0  0  0  0  0  0
   25.9802  -20.9386   -9.1757 C   0  0  1  0  0  0  0  0  0  0  0  0
   26.5915  -20.9886   -7.8667 C   0  0  0  0  0  0  0  0  0  0  0  0
   27.5303  -19.8485   -7.7289 C   0  0  0  0  0  0  0  0  0  0  0  0
   28.1573  -19.6923   -6.4095 C   0  0  0  0  0  0  0  0  0  0  0  0
   29.0588  -20.6178   -5.9518 C   0  0  0  0  0  0  0  0  0  0  0  0
   29.6542  -20.4653   -4.6965 C   0  0  0  0  0  0  0  0  0  0  0  0
   29.3019  -19.3602   -3.9474 C   0  0  0  0  0  0  0  0  0  0  0  0
   28.3956  -18.4042   -4.3760 C   0  0  0  0  0  0  0  0  0  0  0  0
   27.8302  -18.6031   -5.6357 C   0  0  0  0  0  0  0  0  0  0  0  0
   25.6370  -21.1660   -6.7544 O   0  0  0  0  0  0  0  0  0  0  0  0
   24.2613  -21.1820   -6.9371 O   0  0  0  0  0  0  0  0  0  0  0  0
  2  1  1  1
  3  2  1  0
  4  5  1  0
  4  2  1  0
  5  6  1  6
  7  5  1  0
  7  8  2  0
  9 10  1  0
 10 12  1  0
 11 10  2  0
 12 13  1  0
 13 14  1  0
 14 15  1  0
 16 15  1  6
 16 17  1  0
 17  7  1  0
 18 16  1  0
 19 18  2  0
 20 18  1  0
 21 20  1  0
 21 22  1  1
 22 23  1  0
 23 28  2  0
 24 25  2  0
 24 23  1  0
 25 26  1  0
 26 27  2  0
 28 27  1  0
 29 21  1  0
 30 29  1  0
 31 29  2  0
M  END
$$$$
