LRF.pdb
     RDKit          3D

 31 31  0  0  1  0  0  0  0  0999 V2000
   21.6053  -25.2856  -14.6289 C   0  0  0  0  0  0  0  0  0  0  0  0
   21.6920  -23.8678  -14.1519 C   0  0  2  0  0  0  0  0  0  0  0  0
   21.4511  -22.9032  -15.2732 C   0  0  0  0  0  0  0  0  0  0  0  0
   22.9605  -23.5413  -13.4091 C   0  0  0  0  0  0  0  0  0  0  0  0
   24.1664  -23.4209  -14.3166 C   0  0  2  0  0  0  0  0  0  0  0  0
   24.4760  -24.6311  -15.0174 N   0  0  0  0  0  0  0  0  0  0  0  0
   25.2903  -22.9142  -13.5123 C   0  0  0  0  0  0  0  0  0  0  0  0
   25.9860  -23.7745  -12.8792 O   0  0  0  0  0  0  0  0  0  0  0  0
   28.6803  -17.1555  -15.9395 N   0  0  0  0  0  0  0  0  0  0  0  0
   27.4486  -17.8073  -16.2130 C   0  0  0  0  0  0  0  0  0  0  0  0
   27.1709  -18.1261  -17.4487 N   0  0  0  0  0  0  0  0  0  0  0  0
   26.5222  -18.1196  -15.2082 N   0  0  0  0  0  0  0  0  0  0  0  0
   26.7200  -17.6673  -13.8570 C   0  0  0  0  0  0  0  0  0  0  0  0
   26.5814  -18.7820  -12.8438 C   0  0  0  0  0  0  0  0  0  0  0  0
   27.4798  -19.9575  -13.2007 C   0  0  0  0  0  0  0  0  0  0  0  0
   26.8311  -21.1995  -12.6226 C   0  0  2  0  0  0  0  0  0  0  0  0
   25.6695  -21.5592  -13.3774 N   0  0  0  0  0  0  0  0  0  0  0  0
   26.4633  -20.9847  -11.1856 C   0  0  0  0  0  0  0  0  0  0  0  0
   25.3297  -20.5302  -10.9198 O   0  0  0  0  0  0  0  0  0  0  0  0
   26.2529  -18.5360  -17.6986 N   0  0  0  0  0  0  0  0  0  0  0  0
   27.3577  -21.2811  -10.1438 C   0  0  2  0  0  0  0  0  0  0  0  0
   27.1325  -21.0802   -8.7301 C   0  0  0  0  0  0  0  0  0  0  0  0
   28.4190  -20.7267   -8.0821 C   0  0  0  0  0  0  0  0  0  0  0  0
   28.3500  -20.4241   -6.6462 C   0  0  0  0  0  0  0  0  0  0  0  0
   28.7463  -21.3517   -5.7181 C   0  0  0  0  0  0  0  0  0  0  0  0
   28.6803  -21.0598   -4.3528 C   0  0  0  0  0  0  0  0  0  0  0  0
   28.2061  -19.8169   -3.9829 C   0  0  0  0  0  0  0  0  0  0  0  0
   27.7968  -18.8543   -4.8910 C   0  0  0  0  0  0  0  0  0  0  0  0
   27.8828  -19.1954   -6.2409 C   0  0  0  0  0  0  0  0  0  0  0  0
   25.9951  -20.1937   -8.4138 O   0  0  0  0  0  0  0  0  0  0  0  0
   25.8382  -18.9371   -8.9819 O   0  0  0  0  0  0  0  0  0  0  0  0
  2  1  1  6
  3  2  1  0
  4  5  1  0
  4  2  1  0
  5  6  1  1
  7  5  1  0
  7  8  2  0
  9 10  1  0
 10 12  1  0
 11 10  2  0
 12 13  1  0
 13 14  1  0
 14 15  1  0
 16 15  1  6
 16 17  1  0
 17  7  1  0
 18 16  1  0
 19 18  2  0
 20 18  1  0
 21 20  1  0
 21 22  1  6
 22 23  1  0
 23 28  2  0
 24 25  2  0
 24 23  1  0
 25 26  1  0
 26 27  2  0
 28 27  1  0
 29 21  1  0
 30 29  1  0
 31 29  2  0
M  END
$$$$
