LRF.pdb
     RDKit          3D

 31 31  0  0  1  0  0  0  0  0999 V2000
   32.4530  -35.0348  -16.8049 C   0  0  0  0  0  0  0  0  0  0  0  0
   32.8949  -33.6610  -16.4016 C   0  0  2  0  0  0  0  0  0  0  0  0
   33.8927  -33.7188  -15.2849 C   0  0  0  0  0  0  0  0  0  0  0  0
   31.7663  -32.7169  -16.0817 C   0  0  0  0  0  0  0  0  0  0  0  0
   30.7218  -32.6471  -17.1755 C   0  0  2  0  0  0  0  0  0  0  0  0
   31.1493  -31.9091  -18.3262 N   0  0  0  0  0  0  0  0  0  0  0  0
   29.4790  -32.1264  -16.5829 C   0  0  0  0  0  0  0  0  0  0  0  0
   29.0726  -30.9893  -16.9912 O   0  0  0  0  0  0  0  0  0  0  0  0
   23.8127  -29.2092  -19.3165 N   0  0  0  0  0  0  0  0  0  0  0  0
   23.2343  -30.4529  -18.9490 C   0  0  0  0  0  0  0  0  0  0  0  0
   22.1379  -30.8338  -19.5479 N   0  0  0  0  0  0  0  0  0  0  0  0
   23.7949  -31.2844  -17.9693 N   0  0  0  0  0  0  0  0  0  0  0  0
   24.5991  -30.7364  -16.9100 C   0  0  0  0  0  0  0  0  0  0  0  0
   25.1165  -31.7972  -15.9636 C   0  0  0  0  0  0  0  0  0  0  0  0
   26.4592  -32.3384  -16.4333 C   0  0  0  0  0  0  0  0  0  0  0  0
   27.4031  -32.2635  -15.2496 C   0  0  2  0  0  0  0  0  0  0  0  0
   28.6936  -32.7727  -15.6012 N   0  0  0  0  0  0  0  0  0  0  0  0
   26.8509  -33.0256  -14.0831 C   0  0  0  0  0  0  0  0  0  0  0  0
   26.5964  -34.2406  -14.2288 O   0  0  0  0  0  0  0  0  0  0  0  0
   21.6710  -31.7214  -19.2884 N   0  0  0  0  0  0  0  0  0  0  0  0
   26.6168  -32.4077  -12.8435 C   0  0  2  0  0  0  0  0  0  0  0  0
   26.0992  -33.0376  -11.6498 C   0  0  0  0  0  0  0  0  0  0  0  0
   26.4415  -32.1992  -10.4749 C   0  0  0  0  0  0  0  0  0  0  0  0
   25.9593  -32.6899   -9.1769 C   0  0  0  0  0  0  0  0  0  0  0  0
   26.6484  -33.6617   -8.4989 C   0  0  0  0  0  0  0  0  0  0  0  0
   26.1872  -34.1253   -7.2636 C   0  0  0  0  0  0  0  0  0  0  0  0
   25.0259  -33.5723   -6.7618 C   0  0  0  0  0  0  0  0  0  0  0  0
   24.3027  -32.5893   -7.4172 C   0  0  0  0  0  0  0  0  0  0  0  0
   24.8055  -32.1615   -8.6461 C   0  0  0  0  0  0  0  0  0  0  0  0
   24.6864  -33.4553  -11.7444 O   0  0  0  0  0  0  0  0  0  0  0  0
   23.7508  -32.7801  -12.5160 O   0  0  0  0  0  0  0  0  0  0  0  0
  2  1  1  1
  3  2  1  0
  4  5  1  0
  4  2  1  0
  5  6  1  6
  7  5  1  0
  7  8  2  0
  9 10  1  0
 10 12  1  0
 11 10  2  0
 12 13  1  0
 13 14  1  0
 14 15  1  0
 16 15  1  6
 16 17  1  0
 17  7  1  0
 18 16  1  0
 19 18  2  0
 20 18  1  0
 21 20  1  0
 21 22  1  1
 22 23  1  0
 23 28  2  0
 24 25  2  0
 24 23  1  0
 25 26  1  0
 26 27  2  0
 28 27  1  0
 29 21  1  0
 30 29  1  0
 31 29  2  0
M  END
$$$$
