LRF.pdb
     RDKit          3D

 31 31  0  0  1  0  0  0  0  0999 V2000
   25.1461  -21.2216   -9.9414 C   0  0  0  0  0  0  0  0  0  0  0  0
   26.1679  -21.0793  -11.0280 C   0  0  2  0  0  0  0  0  0  0  0  0
   27.2023  -20.0563  -10.6684 C   0  0  0  0  0  0  0  0  0  0  0  0
   25.5877  -20.8180  -12.3927 C   0  0  0  0  0  0  0  0  0  0  0  0
   24.5076  -21.8062  -12.7785 C   0  0  2  0  0  0  0  0  0  0  0  0
   24.9824  -23.1523  -12.8983 N   0  0  0  0  0  0  0  0  0  0  0  0
   23.8564  -21.3113  -14.0024 C   0  0  0  0  0  0  0  0  0  0  0  0
   24.3692  -21.6615  -15.1156 O   0  0  0  0  0  0  0  0  0  0  0  0
   16.2568  -21.3621  -15.9541 N   0  0  0  0  0  0  0  0  0  0  0  0
   17.2850  -22.3122  -15.7163 C   0  0  0  0  0  0  0  0  0  0  0  0
   17.1456  -23.5181  -16.1981 N   0  0  0  0  0  0  0  0  0  0  0  0
   18.4408  -22.0044  -14.9848 N   0  0  0  0  0  0  0  0  0  0  0  0
   18.5575  -20.7542  -14.2831 C   0  0  0  0  0  0  0  0  0  0  0  0
   19.9837  -20.2540  -14.2182 C   0  0  0  0  0  0  0  0  0  0  0  0
   20.7532  -20.6374  -15.4740 C   0  0  0  0  0  0  0  0  0  0  0  0
   22.1573  -20.0887  -15.3154 C   0  0  2  0  0  0  0  0  0  0  0  0
   22.7128  -20.4821  -14.0565 N   0  0  0  0  0  0  0  0  0  0  0  0
   22.1581  -18.5945  -15.4324 C   0  0  0  0  0  0  0  0  0  0  0  0
   21.8201  -17.9165  -14.4384 O   0  0  0  0  0  0  0  0  0  0  0  0
   17.8804  -24.2348  -16.0584 N   0  0  0  0  0  0  0  0  0  0  0  0
   22.5275  -17.9489  -16.6241 C   0  0  1  0  0  0  0  0  0  0  0  0
   22.6600  -16.5240  -16.8279 C   0  0  0  0  0  0  0  0  0  0  0  0
   24.0029  -16.2399  -17.3901 C   0  0  0  0  0  0  0  0  0  0  0  0
   25.1173  -16.2756  -16.4336 C   0  0  0  0  0  0  0  0  0  0  0  0
   26.1663  -17.1385  -16.6168 C   0  0  0  0  0  0  0  0  0  0  0  0
   27.2254  -17.1689  -15.7052 C   0  0  0  0  0  0  0  0  0  0  0  0
   27.1721  -16.3065  -14.6283 C   0  0  0  0  0  0  0  0  0  0  0  0
   26.1296  -15.4208  -14.4098 C   0  0  0  0  0  0  0  0  0  0  0  0
   25.0978  -15.4301  -15.3486 C   0  0  0  0  0  0  0  0  0  0  0  0
   21.5264  -15.9019  -17.5404 O   0  0  0  0  0  0  0  0  0  0  0  0
   21.2887  -14.5346  -17.5304 O   0  0  0  0  0  0  0  0  0  0  0  0
  2  1  1  1
  3  2  1  0
  4  5  1  0
  4  2  1  0
  5  6  1  6
  7  5  1  0
  7  8  2  0
  9 10  1  0
 10 12  1  0
 11 10  2  0
 12 13  1  0
 13 14  1  0
 14 15  1  0
 16 15  1  1
 16 17  1  0
 17  7  1  0
 18 16  1  0
 19 18  2  0
 20 18  1  0
 21 20  1  0
 21 22  1  1
 22 23  1  0
 23 28  2  0
 24 25  2  0
 24 23  1  0
 25 26  1  0
 26 27  2  0
 28 27  1  0
 29 21  1  0
 30 29  1  0
 31 29  2  0
M  END
$$$$
