LRF.pdb
     RDKit          3D

 31 31  0  0  1  0  0  0  0  0999 V2000
   29.1366  -16.9033  -16.5202 C   0  0  0  0  0  0  0  0  0  0  0  0
   27.7022  -16.5304  -16.3000 C   0  0  2  0  0  0  0  0  0  0  0  0
   27.4741  -15.0733  -16.5659 C   0  0  0  0  0  0  0  0  0  0  0  0
   27.1567  -16.9357  -14.9562 C   0  0  0  0  0  0  0  0  0  0  0  0
   27.5201  -18.3539  -14.5705 C   0  0  2  0  0  0  0  0  0  0  0  0
   27.3878  -19.2895  -15.6469 N   0  0  0  0  0  0  0  0  0  0  0  0
   26.7264  -18.7189  -13.3857 C   0  0  0  0  0  0  0  0  0  0  0  0
   26.6474  -17.8559  -12.4508 O   0  0  0  0  0  0  0  0  0  0  0  0
   24.3824  -23.6509  -16.0645 N   0  0  0  0  0  0  0  0  0  0  0  0
   24.5764  -24.7123  -15.1413 C   0  0  0  0  0  0  0  0  0  0  0  0
   25.0915  -25.8315  -15.5747 N   0  0  0  0  0  0  0  0  0  0  0  0
   24.2358  -24.6036  -13.7857 N   0  0  0  0  0  0  0  0  0  0  0  0
   23.6608  -23.3920  -13.2653 C   0  0  0  0  0  0  0  0  0  0  0  0
   24.7063  -22.3604  -12.9029 C   0  0  0  0  0  0  0  0  0  0  0  0
   24.0564  -21.0807  -12.3967 C   0  0  0  0  0  0  0  0  0  0  0  0
   25.1791  -20.1187  -12.0620 C   0  0  2  0  0  0  0  0  0  0  0  0
   26.0427  -19.9405  -13.1893 N   0  0  0  0  0  0  0  0  0  0  0  0
   25.9658  -20.6119  -10.8855 C   0  0  0  0  0  0  0  0  0  0  0  0
   26.7565  -21.5655  -11.0520 O   0  0  0  0  0  0  0  0  0  0  0  0
   25.1489  -26.6636  -14.9603 N   0  0  0  0  0  0  0  0  0  0  0  0
   25.8333  -20.0296   -9.6141 C   0  0  1  0  0  0  0  0  0  0  0  0
   26.4605  -20.4767   -8.3908 C   0  0  0  0  0  0  0  0  0  0  0  0
   27.3382  -19.3973   -7.8763 C   0  0  0  0  0  0  0  0  0  0  0  0
   27.9366  -19.6347   -6.5557 C   0  0  0  0  0  0  0  0  0  0  0  0
   27.3084  -19.2012   -5.4172 C   0  0  0  0  0  0  0  0  0  0  0  0
   27.8801  -19.4298   -4.1625 C   0  0  0  0  0  0  0  0  0  0  0  0
   29.0863  -20.1003   -4.1178 C   0  0  0  0  0  0  0  0  0  0  0  0
   29.7507  -20.5533   -5.2457 C   0  0  0  0  0  0  0  0  0  0  0  0
   29.1378  -20.2998   -6.4730 C   0  0  0  0  0  0  0  0  0  0  0  0
   25.5290  -21.0637   -7.4073 O   0  0  0  0  0  0  0  0  0  0  0  0
   25.9363  -21.9472   -6.4174 O   0  0  0  0  0  0  0  0  0  0  0  0
  2  1  1  1
  3  2  1  0
  4  5  1  0
  4  2  1  0
  5  6  1  6
  7  5  1  0
  7  8  2  0
  9 10  1  0
 10 12  1  0
 11 10  2  0
 12 13  1  0
 13 14  1  0
 14 15  1  0
 16 15  1  6
 16 17  1  0
 17  7  1  0
 18 16  1  0
 19 18  2  0
 20 18  1  0
 21 20  1  0
 21 22  1  1
 22 23  1  0
 23 28  2  0
 24 25  2  0
 24 23  1  0
 25 26  1  0
 26 27  2  0
 28 27  1  0
 29 21  1  0
 30 29  1  0
 31 29  2  0
M  END
$$$$
