LRF.pdb
     RDKit          3D

 31 31  0  0  1  0  0  0  0  0999 V2000
   20.2942  -18.4090  -13.8244 C   0  0  0  0  0  0  0  0  0  0  0  0
   20.1453  -19.1253  -12.5168 C   0  0  2  0  0  0  0  0  0  0  0  0
   19.5244  -18.2383  -11.4806 C   0  0  0  0  0  0  0  0  0  0  0  0
   21.4142  -19.7579  -12.0097 C   0  0  0  0  0  0  0  0  0  0  0  0
   22.1313  -20.5773  -13.0615 C   0  0  2  0  0  0  0  0  0  0  0  0
   21.3999  -21.7362  -13.4783 N   0  0  0  0  0  0  0  0  0  0  0  0
   23.4752  -20.8939  -12.5511 C   0  0  0  0  0  0  0  0  0  0  0  0
   23.5428  -21.5664  -11.4703 O   0  0  0  0  0  0  0  0  0  0  0  0
   30.1689  -23.0589  -15.0461 N   0  0  0  0  0  0  0  0  0  0  0  0
   29.2055  -23.7411  -15.8355 C   0  0  0  0  0  0  0  0  0  0  0  0
   29.4831  -24.9452  -16.2583 N   0  0  0  0  0  0  0  0  0  0  0  0
   27.9712  -23.1709  -16.1771 N   0  0  0  0  0  0  0  0  0  0  0  0
   27.5518  -21.9215  -15.6005 C   0  0  0  0  0  0  0  0  0  0  0  0
   27.5775  -21.9407  -14.0881 C   0  0  0  0  0  0  0  0  0  0  0  0
   27.0933  -20.6153  -13.5181 C   0  0  0  0  0  0  0  0  0  0  0  0
   25.9458  -20.9319  -12.5797 C   0  0  2  0  0  0  0  0  0  0  0  0
   24.6996  -20.5202  -13.1506 N   0  0  0  0  0  0  0  0  0  0  0  0
   26.1477  -20.2651  -11.2526 C   0  0  0  0  0  0  0  0  0  0  0  0
   25.9833  -19.0286  -11.1734 O   0  0  0  0  0  0  0  0  0  0  0  0
   28.8185  -25.4637  -16.8605 N   0  0  0  0  0  0  0  0  0  0  0  0
   26.5135  -20.9947  -10.1094 C   0  0  2  0  0  0  0  0  0  0  0  0
   27.4393  -20.5786   -9.0802 C   0  0  0  0  0  0  0  0  0  0  0  0
   26.8090  -20.7830   -7.7531 C   0  0  0  0  0  0  0  0  0  0  0  0
   27.5933  -20.3309   -6.5961 C   0  0  0  0  0  0  0  0  0  0  0  0
   28.0247  -19.0328   -6.5102 C   0  0  0  0  0  0  0  0  0  0  0  0
   28.7698  -18.6059   -5.4074 C   0  0  0  0  0  0  0  0  0  0  0  0
   29.0494  -19.5324   -4.4225 C   0  0  0  0  0  0  0  0  0  0  0  0
   28.6308  -20.8518   -4.4740 C   0  0  0  0  0  0  0  0  0  0  0  0
   27.8906  -21.2267   -5.5954 C   0  0  0  0  0  0  0  0  0  0  0  0
   28.8026  -21.1254   -9.2290 O   0  0  0  0  0  0  0  0  0  0  0  0
   29.9453  -20.3843   -8.9619 O   0  0  0  0  0  0  0  0  0  0  0  0
  2  1  1  6
  3  2  1  0
  4  5  1  0
  4  2  1  0
  5  6  1  1
  7  5  1  0
  7  8  2  0
  9 10  1  0
 10 12  1  0
 11 10  2  0
 12 13  1  0
 13 14  1  0
 14 15  1  0
 16 15  1  6
 16 17  1  0
 17  7  1  0
 18 16  1  0
 19 18  2  0
 20 18  1  0
 21 20  1  0
 21 22  1  1
 22 23  1  0
 23 28  2  0
 24 25  2  0
 24 23  1  0
 25 26  1  0
 26 27  2  0
 28 27  1  0
 29 21  1  0
 30 29  1  0
 31 29  2  0
M  END
$$$$
