TKG.pdb
     RDKit          3D

 21 20  0  0  1  0  0  0  0  0999 V2000
   14.7725  -22.1228   13.6684 C   0  0  0  0  0  0  0  0  0  0  0  0
   14.3858  -20.8337   12.9880 C   0  0  1  0  0  0  0  0  0  0  0  0
   14.8728  -20.7907   11.6847 O   0  0  0  0  0  0  0  0  0  0  0  0
   12.8765  -20.7110   13.0231 C   0  0  2  0  0  0  0  0  0  0  0  0
   12.4104  -19.5995   12.2335 N   0  0  0  0  0  0  0  0  0  0  0  0
   12.4510  -20.5001   14.4130 C   0  0  0  0  0  0  0  0  0  0  0  0
   12.4604  -19.3608   14.9514 O   0  0  0  0  0  0  0  0  0  0  0  0
   11.9945  -21.5775   15.2557 N   0  0  0  0  0  0  0  0  0  0  0  0
   11.5972  -21.3528   16.6312 C   0  0  1  0  0  0  0  0  0  0  0  0
   10.4321  -22.2277   17.0278 C   0  0  0  0  0  0  0  0  0  0  0  0
    9.1617  -21.8824   16.3262 C   0  0  0  0  0  0  0  0  0  0  0  0
    8.0419  -22.6700   16.9628 C   0  0  0  0  0  0  0  0  0  0  0  0
    6.6979  -22.3486   16.3786 C   0  0  0  0  0  0  0  0  0  0  0  0
    5.7078  -23.1246   17.1043 N   0  0  0  0  0  0  0  0  0  0  0  0
   12.7554  -21.5299   17.5597 C   0  0  0  0  0  0  0  0  0  0  0  0
   13.5103  -22.5354   17.5141 O   0  0  0  0  0  0  0  0  0  0  0  0
   13.0522  -20.5513   18.5465 N   0  0  0  0  0  0  0  0  0  0  0  0
   14.2431  -20.6702   19.3535 C   0  0  0  0  0  0  0  0  0  0  0  0
   13.9533  -21.0276   20.7520 C   0  0  0  0  0  0  0  0  0  0  0  0
   12.9445  -21.7009   21.0249 O   0  0  0  0  0  0  0  0  0  0  0  0
   14.7973  -20.6173   21.7544 O   0  0  0  0  0  0  0  0  0  0  0  0
  2  1  1  6
  3  2  1  0
  4  5  1  6
  4  2  1  0
  6  4  1  0
  7  6  2  0
  8  6  1  0
  9 10  1  1
  9  8  1  0
 10 11  1  0
 11 12  1  0
 12 13  1  0
 13 14  1  0
 15  9  1  0
 16 15  2  0
 17 15  1  0
 18 17  1  0
 19 21  1  0
 19 18  1  0
 20 19  2  0
M  END
$$$$
