TKG.pdb
     RDKit          3D

 21 20  0  0  1  0  0  0  0  0999 V2000
   -5.5917  -23.2704   31.7321 C   0  0  0  0  0  0  0  0  0  0  0  0
   -5.6390  -21.8205   31.3201 C   0  0  1  0  0  0  0  0  0  0  0  0
   -6.4514  -21.6443   30.2036 O   0  0  0  0  0  0  0  0  0  0  0  0
   -6.1290  -21.0062   32.4996 C   0  0  2  0  0  0  0  0  0  0  0  0
   -6.2188  -19.6035   32.1825 N   0  0  0  0  0  0  0  0  0  0  0  0
   -5.1835  -21.1681   33.6119 C   0  0  0  0  0  0  0  0  0  0  0  0
   -4.1447  -20.4626   33.7168 O   0  0  0  0  0  0  0  0  0  0  0  0
   -5.3768  -22.1419   34.6577 N   0  0  0  0  0  0  0  0  0  0  0  0
   -4.3741  -22.3727   35.6783 C   0  0  1  0  0  0  0  0  0  0  0  0
   -4.9975  -22.6018   37.0344 C   0  0  0  0  0  0  0  0  0  0  0  0
   -4.0030  -22.9076   38.1035 C   0  0  0  0  0  0  0  0  0  0  0  0
   -4.7569  -23.2236   39.3730 C   0  0  0  0  0  0  0  0  0  0  0  0
   -3.8531  -23.4163   40.5548 C   0  0  0  0  0  0  0  0  0  0  0  0
   -4.6914  -23.7057   41.7049 N   0  0  0  0  0  0  0  0  0  0  0  0
   -3.4683  -23.4986   35.2954 C   0  0  0  0  0  0  0  0  0  0  0  0
   -3.9033  -24.6189   34.9229 O   0  0  0  0  0  0  0  0  0  0  0  0
   -2.0565  -23.3426   35.3385 N   0  0  0  0  0  0  0  0  0  0  0  0
   -1.1924  -24.4253   34.9326 C   0  0  0  0  0  0  0  0  0  0  0  0
   -1.0574  -25.4672   35.9640 C   0  0  0  0  0  0  0  0  0  0  0  0
   -1.7063  -25.3828   37.0209 O   0  0  0  0  0  0  0  0  0  0  0  0
   -0.2149  -26.5317   35.7581 O   0  0  0  0  0  0  0  0  0  0  0  0
  2  1  1  1
  3  2  1  0
  4  5  1  6
  4  2  1  0
  6  4  1  0
  7  6  2  0
  8  6  1  0
  9 10  1  1
  9  8  1  0
 10 11  1  0
 11 12  1  0
 12 13  1  0
 13 14  1  0
 15  9  1  0
 16 15  2  0
 17 15  1  0
 18 17  1  0
 19 21  1  0
 19 18  1  0
 20 19  2  0
M  END
$$$$
