TKG.pdb
     RDKit          3D

 21 20  0  0  1  0  0  0  0  0999 V2000
    6.6487  -19.4144   27.5173 C   0  0  0  0  0  0  0  0  0  0  0  0
    7.4326  -18.8351   26.3666 C   0  0  1  0  0  0  0  0  0  0  0  0
    8.6394  -19.5074   26.1951 O   0  0  0  0  0  0  0  0  0  0  0  0
    6.5733  -18.9066   25.1213 C   0  0  2  0  0  0  0  0  0  0  0  0
    6.4606  -20.2544   24.6242 N   0  0  0  0  0  0  0  0  0  0  0  0
    7.1868  -18.0787   24.0747 C   0  0  0  0  0  0  0  0  0  0  0  0
    7.8937  -18.5739   23.1565 O   0  0  0  0  0  0  0  0  0  0  0  0
    7.0240  -16.6468   24.0245 N   0  0  0  0  0  0  0  0  0  0  0  0
    7.7958  -15.8239   23.1148 C   0  0  1  0  0  0  0  0  0  0  0  0
    7.0879  -14.5296   22.7927 C   0  0  0  0  0  0  0  0  0  0  0  0
    7.8939  -13.6048   21.9437 C   0  0  0  0  0  0  0  0  0  0  0  0
    7.5398  -13.8617   20.4986 C   0  0  0  0  0  0  0  0  0  0  0  0
    8.3408  -13.0253   19.5448 C   0  0  0  0  0  0  0  0  0  0  0  0
    8.0587  -13.5008   18.2018 N   0  0  0  0  0  0  0  0  0  0  0  0
    9.1701  -15.5775   23.6491 C   0  0  0  0  0  0  0  0  0  0  0  0
    9.3740  -15.1095   24.7991 O   0  0  0  0  0  0  0  0  0  0  0  0
   10.3182  -15.8682   22.8639 N   0  0  0  0  0  0  0  0  0  0  0  0
   11.6397  -15.6096   23.3841 C   0  0  0  0  0  0  0  0  0  0  0  0
   12.7029  -15.8656   22.3984 C   0  0  0  0  0  0  0  0  0  0  0  0
   12.4160  -16.3305   21.2818 O   0  0  0  0  0  0  0  0  0  0  0  0
   14.0110  -15.5907   22.7128 O   0  0  0  0  0  0  0  0  0  0  0  0
  2  1  1  1
  3  2  1  0
  4  5  1  6
  4  2  1  0
  6  4  1  0
  7  6  2  0
  8  6  1  0
  9 10  1  1
  9  8  1  0
 10 11  1  0
 11 12  1  0
 12 13  1  0
 13 14  1  0
 15  9  1  0
 16 15  2  0
 17 15  1  0
 18 17  1  0
 19 21  1  0
 19 18  1  0
 20 19  2  0
M  END
$$$$
