TKG.pdb
     RDKit          3D

 21 20  0  0  1  0  0  0  0  0999 V2000
   10.8838  -15.0954   19.5379 C   0  0  0  0  0  0  0  0  0  0  0  0
   10.2880  -13.7683   19.1402 C   0  0  1  0  0  0  0  0  0  0  0  0
   10.8407  -13.3095   17.9478 O   0  0  0  0  0  0  0  0  0  0  0  0
    8.7864  -13.9342   19.0308 C   0  0  2  0  0  0  0  0  0  0  0  0
    8.1587  -12.7706   18.4580 N   0  0  0  0  0  0  0  0  0  0  0  0
    8.2340  -14.1415   20.3759 C   0  0  0  0  0  0  0  0  0  0  0  0
    7.9551  -13.1801   21.1414 O   0  0  0  0  0  0  0  0  0  0  0  0
    7.9729  -15.4541   20.9126 N   0  0  0  0  0  0  0  0  0  0  0  0
    7.3377  -15.6371   22.2023 C   0  0  1  0  0  0  0  0  0  0  0  0
    6.5293  -16.9115   22.2527 C   0  0  0  0  0  0  0  0  0  0  0  0
    5.6265  -17.0914   21.0789 C   0  0  0  0  0  0  0  0  0  0  0  0
    4.9289  -18.4230   21.2197 C   0  0  0  0  0  0  0  0  0  0  0  0
    3.9049  -18.6605   20.1492 C   0  0  0  0  0  0  0  0  0  0  0  0
    3.3838  -20.0038   20.3316 N   0  0  0  0  0  0  0  0  0  0  0  0
    8.3427  -15.5826   23.3077 C   0  0  0  0  0  0  0  0  0  0  0  0
    8.0191  -15.6741   24.5201 O   0  0  0  0  0  0  0  0  0  0  0  0
    9.7261  -15.4224   23.0252 N   0  0  0  0  0  0  0  0  0  0  0  0
   10.6900  -15.4008   24.0994 C   0  0  0  0  0  0  0  0  0  0  0  0
   11.4545  -16.6543   24.2076 C   0  0  0  0  0  0  0  0  0  0  0  0
   10.9140  -17.6737   24.6703 O   0  0  0  0  0  0  0  0  0  0  0  0
   12.7642  -16.6971   23.7974 O   0  0  0  0  0  0  0  0  0  0  0  0
  2  1  1  6
  3  2  1  0
  4  5  1  1
  4  2  1  0
  6  4  1  0
  7  6  2  0
  8  6  1  0
  9 10  1  6
  9  8  1  0
 10 11  1  0
 11 12  1  0
 12 13  1  0
 13 14  1  0
 15  9  1  0
 16 15  2  0
 17 15  1  0
 18 17  1  0
 19 21  1  0
 19 18  1  0
 20 19  2  0
M  END
$$$$
