TKG.pdb
     RDKit          3D

 21 20  0  0  1  0  0  0  0  0999 V2000
    6.9500  -14.1857   18.7414 C   0  0  0  0  0  0  0  0  0  0  0  0
    8.1435  -13.3137   18.4419 C   0  0  1  0  0  0  0  0  0  0  0  0
    7.8863  -11.9852   18.7680 O   0  0  0  0  0  0  0  0  0  0  0  0
    9.3329  -13.8553   19.2077 C   0  0  2  0  0  0  0  0  0  0  0  0
    9.8056  -15.0990   18.6546 N   0  0  0  0  0  0  0  0  0  0  0  0
    8.9308  -14.0928   20.6003 C   0  0  0  0  0  0  0  0  0  0  0  0
    8.5154  -13.1654   21.3456 O   0  0  0  0  0  0  0  0  0  0  0  0
    8.9828  -15.3986   21.2099 N   0  0  0  0  0  0  0  0  0  0  0  0
    8.5926  -15.6112   22.5893 C   0  0  1  0  0  0  0  0  0  0  0  0
    7.7478  -16.8528   22.7474 C   0  0  0  0  0  0  0  0  0  0  0  0
    6.4178  -16.7577   22.0784 C   0  0  0  0  0  0  0  0  0  0  0  0
    5.6865  -18.0608   22.2947 C   0  0  0  0  0  0  0  0  0  0  0  0
    4.3104  -18.0629   21.6970 C   0  0  0  0  0  0  0  0  0  0  0  0
    3.7642  -19.3987   21.8595 N   0  0  0  0  0  0  0  0  0  0  0  0
    9.7885  -15.6454   23.4858 C   0  0  0  0  0  0  0  0  0  0  0  0
    9.6920  -15.6881   24.7395 O   0  0  0  0  0  0  0  0  0  0  0  0
   11.1027  -15.6308   22.9454 N   0  0  0  0  0  0  0  0  0  0  0  0
   12.2495  -15.6811   23.8207 C   0  0  0  0  0  0  0  0  0  0  0  0
   13.5264  -15.7214   23.0890 C   0  0  0  0  0  0  0  0  0  0  0  0
   13.5317  -15.6877   21.8463 O   0  0  0  0  0  0  0  0  0  0  0  0
   14.7110  -15.7964   23.7793 O   0  0  0  0  0  0  0  0  0  0  0  0
  2  1  1  1
  3  2  1  0
  4  5  1  6
  4  2  1  0
  6  4  1  0
  7  6  2  0
  8  6  1  0
  9 10  1  6
  9  8  1  0
 10 11  1  0
 11 12  1  0
 12 13  1  0
 13 14  1  0
 15  9  1  0
 16 15  2  0
 17 15  1  0
 18 17  1  0
 19 21  1  0
 19 18  1  0
 20 19  2  0
M  END
$$$$
