TKG.pdb
     RDKit          3D

 21 20  0  0  1  0  0  0  0  0999 V2000
    9.1562  -16.1185   19.0677 C   0  0  0  0  0  0  0  0  0  0  0  0
    8.9519  -15.1569   20.2114 C   0  0  1  0  0  0  0  0  0  0  0  0
    9.6758  -13.9844   20.0141 O   0  0  0  0  0  0  0  0  0  0  0  0
    7.4683  -14.8804   20.3416 C   0  0  2  0  0  0  0  0  0  0  0  0
    7.1978  -13.4756   20.5136 N   0  0  0  0  0  0  0  0  0  0  0  0
    6.9549  -15.5964   21.5169 C   0  0  0  0  0  0  0  0  0  0  0  0
    6.5815  -14.9937   22.5587 O   0  0  0  0  0  0  0  0  0  0  0  0
    6.8424  -17.0333   21.5608 N   0  0  0  0  0  0  0  0  0  0  0  0
    6.2548  -17.7169   22.6956 C   0  0  1  0  0  0  0  0  0  0  0  0
    5.3459  -18.8422   22.2624 C   0  0  0  0  0  0  0  0  0  0  0  0
    4.7454  -19.5954   23.4016 C   0  0  0  0  0  0  0  0  0  0  0  0
    4.6133  -21.0429   22.9929 C   0  0  0  0  0  0  0  0  0  0  0  0
    3.9802  -21.8927   24.0549 C   0  0  0  0  0  0  0  0  0  0  0  0
    3.8340  -23.2327   23.5144 N   0  0  0  0  0  0  0  0  0  0  0  0
    7.3112  -18.1986   23.6374 C   0  0  0  0  0  0  0  0  0  0  0  0
    7.0379  -18.7882   24.7148 O   0  0  0  0  0  0  0  0  0  0  0  0
    8.6884  -18.0050   23.3455 N   0  0  0  0  0  0  0  0  0  0  0  0
    9.7002  -18.5240   24.2347 C   0  0  0  0  0  0  0  0  0  0  0  0
   10.3058  -17.4833   25.0820 C   0  0  0  0  0  0  0  0  0  0  0  0
    9.9136  -16.3067   24.9966 O   0  0  0  0  0  0  0  0  0  0  0  0
   11.3034  -17.8126   25.9661 O   0  0  0  0  0  0  0  0  0  0  0  0
  2  1  1  6
  3  2  1  0
  4  5  1  1
  4  2  1  0
  6  4  1  0
  7  6  2  0
  8  6  1  0
  9 10  1  6
  9  8  1  0
 10 11  1  0
 11 12  1  0
 12 13  1  0
 13 14  1  0
 15  9  1  0
 16 15  2  0
 17 15  1  0
 18 17  1  0
 19 21  1  0
 19 18  1  0
 20 19  2  0
M  END
$$$$
