TKG.pdb
     RDKit          3D

 21 20  0  0  1  0  0  0  0  0999 V2000
    9.0080  -16.6456   20.8470 C   0  0  0  0  0  0  0  0  0  0  0  0
    8.6023  -15.2475   21.2411 C   0  0  1  0  0  0  0  0  0  0  0  0
    8.4804  -14.4283   20.1223 O   0  0  0  0  0  0  0  0  0  0  0  0
    7.3033  -15.3293   22.0159 C   0  0  2  0  0  0  0  0  0  0  0  0
    6.7585  -14.0235   22.2887 N   0  0  0  0  0  0  0  0  0  0  0  0
    7.5581  -15.9999   23.2976 C   0  0  0  0  0  0  0  0  0  0  0  0
    8.0063  -15.3817   24.3001 O   0  0  0  0  0  0  0  0  0  0  0  0
    7.3143  -17.4069   23.4979 N   0  0  0  0  0  0  0  0  0  0  0  0
    7.4606  -18.0275   24.7994 C   0  0  1  0  0  0  0  0  0  0  0  0
    6.6940  -19.3253   24.8904 C   0  0  0  0  0  0  0  0  0  0  0  0
    6.9025  -20.0516   26.1768 C   0  0  0  0  0  0  0  0  0  0  0  0
    6.0906  -21.3240   26.1373 C   0  0  0  0  0  0  0  0  0  0  0  0
    6.0742  -22.0457   27.4524 C   0  0  0  0  0  0  0  0  0  0  0  0
    5.3391  -23.2839   27.2635 N   0  0  0  0  0  0  0  0  0  0  0  0
    8.9028  -18.2187   25.1434 C   0  0  0  0  0  0  0  0  0  0  0  0
    9.7837  -18.4280   24.2698 O   0  0  0  0  0  0  0  0  0  0  0  0
    9.3404  -18.1702   26.4945 N   0  0  0  0  0  0  0  0  0  0  0  0
   10.7301  -18.3900   26.8172 C   0  0  0  0  0  0  0  0  0  0  0  0
   10.9807  -18.4350   28.2673 C   0  0  0  0  0  0  0  0  0  0  0  0
   10.0337  -18.3252   29.0650 O   0  0  0  0  0  0  0  0  0  0  0  0
   12.2602  -18.5984   28.7380 O   0  0  0  0  0  0  0  0  0  0  0  0
  2  1  1  6
  3  2  1  0
  4  5  1  1
  4  2  1  0
  6  4  1  0
  7  6  2  0
  8  6  1  0
  9 10  1  6
  9  8  1  0
 10 11  1  0
 11 12  1  0
 12 13  1  0
 13 14  1  0
 15  9  1  0
 16 15  2  0
 17 15  1  0
 18 17  1  0
 19 21  1  0
 19 18  1  0
 20 19  2  0
M  END
$$$$
