TKG.pdb
     RDKit          3D

 21 20  0  0  1  0  0  0  0  0999 V2000
   10.3257  -22.6743   19.9862 C   0  0  0  0  0  0  0  0  0  0  0  0
    9.5981  -22.2117   21.2236 C   0  0  1  0  0  0  0  0  0  0  0  0
   10.3579  -21.2867   21.9338 O   0  0  0  0  0  0  0  0  0  0  0  0
    8.2641  -21.6309   20.8022 C   0  0  2  0  0  0  0  0  0  0  0  0
    8.4252  -20.4491   19.9937 N   0  0  0  0  0  0  0  0  0  0  0  0
    7.5052  -21.2665   22.0058 C   0  0  0  0  0  0  0  0  0  0  0  0
    7.6180  -20.1370   22.5531 O   0  0  0  0  0  0  0  0  0  0  0  0
    6.5816  -22.1721   22.6432 N   0  0  0  0  0  0  0  0  0  0  0  0
    5.8991  -21.8231   23.8732 C   0  0  1  0  0  0  0  0  0  0  0  0
    4.4913  -22.3681   23.9066 C   0  0  0  0  0  0  0  0  0  0  0  0
    3.8239  -22.3772   22.5725 C   0  0  0  0  0  0  0  0  0  0  0  0
    2.4552  -22.9938   22.7336 C   0  0  0  0  0  0  0  0  0  0  0  0
    1.7035  -23.0906   21.4388 C   0  0  0  0  0  0  0  0  0  0  0  0
    0.4581  -23.7882   21.7063 N   0  0  0  0  0  0  0  0  0  0  0  0
    6.6849  -22.2638   25.0662 C   0  0  0  0  0  0  0  0  0  0  0  0
    6.6621  -23.4481   25.4903 O   0  0  0  0  0  0  0  0  0  0  0  0
    7.5017  -21.3448   25.7785 N   0  0  0  0  0  0  0  0  0  0  0  0
    8.2336  -21.7755   26.9458 C   0  0  0  0  0  0  0  0  0  0  0  0
    9.1331  -20.7360   27.4731 C   0  0  0  0  0  0  0  0  0  0  0  0
    9.1741  -19.6174   26.9324 O   0  0  0  0  0  0  0  0  0  0  0  0
    9.9262  -21.0024   28.5618 O   0  0  0  0  0  0  0  0  0  0  0  0
  2  1  1  6
  3  2  1  0
  4  5  1  6
  4  2  1  0
  6  4  1  0
  7  6  2  0
  8  6  1  0
  9 10  1  6
  9  8  1  0
 10 11  1  0
 11 12  1  0
 12 13  1  0
 13 14  1  0
 15  9  1  0
 16 15  2  0
 17 15  1  0
 18 17  1  0
 19 21  1  0
 19 18  1  0
 20 19  2  0
M  END
$$$$
