TKG.pdb
     RDKit          3D

 21 20  0  0  1  0  0  0  0  0999 V2000
    4.1159  -20.2490   22.5193 C   0  0  0  0  0  0  0  0  0  0  0  0
    5.4111  -19.4842   22.6284 C   0  0  1  0  0  0  0  0  0  0  0  0
    6.4204  -20.2832   23.1579 O   0  0  0  0  0  0  0  0  0  0  0  0
    5.7750  -18.9656   21.2525 C   0  0  2  0  0  0  0  0  0  0  0  0
    6.0583  -20.0382   20.3329 N   0  0  0  0  0  0  0  0  0  0  0  0
    6.9746  -18.1257   21.3653 C   0  0  0  0  0  0  0  0  0  0  0  0
    8.1355  -18.5903   21.2087 O   0  0  0  0  0  0  0  0  0  0  0  0
    6.9085  -16.7161   21.6620 N   0  0  0  0  0  0  0  0  0  0  0  0
    8.1015  -15.8967   21.7370 C   0  0  1  0  0  0  0  0  0  0  0  0
    7.8986  -14.5507   21.0834 C   0  0  0  0  0  0  0  0  0  0  0  0
    7.7885  -14.6204   19.5973 C   0  0  0  0  0  0  0  0  0  0  0  0
    7.5805  -13.2197   19.0733 C   0  0  0  0  0  0  0  0  0  0  0  0
    7.4434  -13.1705   17.5801 C   0  0  0  0  0  0  0  0  0  0  0  0
    7.2774  -11.7785   17.2010 N   0  0  0  0  0  0  0  0  0  0  0  0
    8.5662  -15.7540   23.1507 C   0  0  0  0  0  0  0  0  0  0  0  0
    7.7831  -15.4714   24.0940 O   0  0  0  0  0  0  0  0  0  0  0  0
    9.9347  -15.9355   23.4879 N   0  0  0  0  0  0  0  0  0  0  0  0
   10.3649  -15.8332   24.8620 C   0  0  0  0  0  0  0  0  0  0  0  0
   11.8258  -15.9355   25.0134 C   0  0  0  0  0  0  0  0  0  0  0  0
   12.5359  -16.1957   24.0267 O   0  0  0  0  0  0  0  0  0  0  0  0
   12.4034  -15.7436   26.2442 O   0  0  0  0  0  0  0  0  0  0  0  0
  2  1  1  6
  3  2  1  0
  4  5  1  6
  4  2  1  0
  6  4  1  0
  7  6  2  0
  8  6  1  0
  9 10  1  1
  9  8  1  0
 10 11  1  0
 11 12  1  0
 12 13  1  0
 13 14  1  0
 15  9  1  0
 16 15  2  0
 17 15  1  0
 18 17  1  0
 19 21  1  0
 19 18  1  0
 20 19  2  0
M  END
$$$$
