TKG.pdb
     RDKit          3D

 21 20  0  0  1  0  0  0  0  0999 V2000
   15.6491  -19.7025   17.6187 C   0  0  0  0  0  0  0  0  0  0  0  0
   14.7561  -19.4208   18.8008 C   0  0  1  0  0  0  0  0  0  0  0  0
   15.2073  -18.3151   19.5159 O   0  0  0  0  0  0  0  0  0  0  0  0
   13.3437  -19.2171   18.2927 C   0  0  2  0  0  0  0  0  0  0  0  0
   13.2147  -17.9931   17.5435 N   0  0  0  0  0  0  0  0  0  0  0  0
   12.4318  -19.1527   19.4423 C   0  0  0  0  0  0  0  0  0  0  0  0
   12.1036  -18.0599   19.9772 O   0  0  0  0  0  0  0  0  0  0  0  0
   11.8504  -20.3306   20.0371 N   0  0  0  0  0  0  0  0  0  0  0  0
   11.0234  -20.2550   21.2249 C   0  0  1  0  0  0  0  0  0  0  0  0
    9.9308  -21.2972   21.2139 C   0  0  0  0  0  0  0  0  0  0  0  0
    9.1547  -21.3603   22.4864 C   0  0  0  0  0  0  0  0  0  0  0  0
    8.1697  -22.4999   22.3825 C   0  0  0  0  0  0  0  0  0  0  0  0
    7.3453  -22.6726   23.6240 C   0  0  0  0  0  0  0  0  0  0  0  0
    6.4435  -23.7886   23.3993 N   0  0  0  0  0  0  0  0  0  0  0  0
   11.8547  -20.3468   22.4640 C   0  0  0  0  0  0  0  0  0  0  0  0
   12.8094  -21.1584   22.5784 O   0  0  0  0  0  0  0  0  0  0  0  0
   11.5929  -19.5057   23.5790 N   0  0  0  0  0  0  0  0  0  0  0  0
   12.4748  -19.5174   24.7217 C   0  0  0  0  0  0  0  0  0  0  0  0
   12.0039  -20.4036   25.7990 C   0  0  0  0  0  0  0  0  0  0  0  0
   10.9934  -21.1072   25.6275 O   0  0  0  0  0  0  0  0  0  0  0  0
   12.6807  -20.4526   26.9926 O   0  0  0  0  0  0  0  0  0  0  0  0
  2  1  1  6
  3  2  1  0
  4  5  1  1
  4  2  1  0
  6  4  1  0
  7  6  2  0
  8  6  1  0
  9 10  1  6
  9  8  1  0
 10 11  1  0
 11 12  1  0
 12 13  1  0
 13 14  1  0
 15  9  1  0
 16 15  2  0
 17 15  1  0
 18 17  1  0
 19 21  1  0
 19 18  1  0
 20 19  2  0
M  END
$$$$
