TKG.pdb
     RDKit          3D

 21 20  0  0  1  0  0  0  0  0999 V2000
   15.8563  -20.6358   19.1933 C   0  0  0  0  0  0  0  0  0  0  0  0
   15.5498  -19.5521   18.1902 C   0  0  1  0  0  0  0  0  0  0  0  0
   16.2185  -19.7779   16.9904 O   0  0  0  0  0  0  0  0  0  0  0  0
   14.0493  -19.4990   17.9903 C   0  0  2  0  0  0  0  0  0  0  0  0
   13.6871  -18.6744   16.8655 N   0  0  0  0  0  0  0  0  0  0  0  0
   13.4310  -18.9320   19.1960 C   0  0  0  0  0  0  0  0  0  0  0  0
   13.4921  -17.7026   19.4659 O   0  0  0  0  0  0  0  0  0  0  0  0
   12.7135  -19.7391   20.1516 N   0  0  0  0  0  0  0  0  0  0  0  0
   12.0798  -19.1563   21.3174 C   0  0  1  0  0  0  0  0  0  0  0  0
   10.7199  -19.7594   21.5760 C   0  0  0  0  0  0  0  0  0  0  0  0
    9.8990  -19.9296   20.3420 C   0  0  0  0  0  0  0  0  0  0  0  0
    8.6371  -20.6709   20.7131 C   0  0  0  0  0  0  0  0  0  0  0  0
    7.7936  -21.0182   19.5220 C   0  0  0  0  0  0  0  0  0  0  0  0
    6.6792  -21.8213   19.9935 N   0  0  0  0  0  0  0  0  0  0  0  0
   12.9635  -19.2641   22.5184 C   0  0  0  0  0  0  0  0  0  0  0  0
   12.6761  -18.7267   23.6191 O   0  0  0  0  0  0  0  0  0  0  0  0
   14.1832  -19.9909   22.4605 N   0  0  0  0  0  0  0  0  0  0  0  0
   15.0262  -20.0913   23.6280 C   0  0  0  0  0  0  0  0  0  0  0  0
   16.1221  -19.1081   23.6287 C   0  0  0  0  0  0  0  0  0  0  0  0
   17.2923  -19.4820   23.4381 O   0  0  0  0  0  0  0  0  0  0  0  0
   15.8514  -17.7786   23.8400 O   0  0  0  0  0  0  0  0  0  0  0  0
  2  1  1  1
  3  2  1  0
  4  5  1  6
  4  2  1  0
  6  4  1  0
  7  6  2  0
  8  6  1  0
  9 10  1  1
  9  8  1  0
 10 11  1  0
 11 12  1  0
 12 13  1  0
 13 14  1  0
 15  9  1  0
 16 15  2  0
 17 15  1  0
 18 17  1  0
 19 21  1  0
 19 18  1  0
 20 19  2  0
M  END
$$$$
