TIT.pdb
     RDKit          3D

 23 22  0  0  1  0  0  0  0  0999 V2000
    6.5488  -16.5729   21.3010 C   0  0  0  0  0  0  0  0  0  0  0  0
    7.3241  -15.5890   20.4728 C   0  0  1  0  0  0  0  0  0  0  0  0
    6.8458  -15.5358   19.1473 O   0  0  0  0  0  0  0  0  0  0  0  0
    7.2182  -14.1719   21.0212 C   0  0  2  0  0  0  0  0  0  0  0  0
    7.7505  -13.2926   20.0068 N   0  0  0  0  0  0  0  0  0  0  0  0
    8.0710  -14.0639   22.2802 C   0  0  0  0  0  0  0  0  0  0  0  0
    9.2948  -13.9918   22.1145 O   0  0  0  0  0  0  0  0  0  0  0  0
    6.0784  -11.3367   26.4870 C   0  0  0  0  0  0  0  0  0  0  0  0
    6.9725  -12.0571   25.5441 C   0  0  0  0  0  0  0  0  0  0  0  0
    7.2501  -13.5055   25.9287 C   0  0  2  0  0  0  0  0  0  0  0  0
    7.8609  -13.4791   27.2992 C   0  0  0  0  0  0  0  0  0  0  0  0
    8.0606  -14.1603   24.8531 C   0  0  2  0  0  0  0  0  0  0  0  0
    7.4596  -14.0509   23.5316 N   0  0  0  0  0  0  0  0  0  0  0  0
    8.4285  -15.5350   25.1622 C   0  0  0  0  0  0  0  0  0  0  0  0
    7.4679  -16.3549   25.4687 O   0  0  0  0  0  0  0  0  0  0  0  0
   10.1559  -18.1098   22.9674 C   0  0  0  0  0  0  0  0  0  0  0  0
   10.7791  -18.1604   24.3227 C   0  0  1  0  0  0  0  0  0  0  0  0
   11.9991  -17.4586   24.2672 O   0  0  0  0  0  0  0  0  0  0  0  0
    9.8972  -17.5653   25.4081 C   0  0  2  0  0  0  0  0  0  0  0  0
    9.6923  -16.1405   25.1787 N   0  0  0  0  0  0  0  0  0  0  0  0
   10.5971  -17.7137   26.7056 C   0  0  0  0  0  0  0  0  0  0  0  0
   10.8067  -18.9845   27.2759 O   0  0  0  0  0  0  0  0  0  0  0  0
   11.0480  -16.7578   27.3857 O   0  0  0  0  0  0  0  0  0  0  0  0
  2  1  1  1
  2  4  1  0
  3  2  1  0
  4  5  1  6
  6  4  1  0
  6  7  2  0
  8  9  1  0
  9 10  1  0
 10 11  1  1
 12 13  1  6
 12 10  1  0
 13  6  1  0
 14 12  1  0
 15 14  2  0
 17 16  1  6
 18 17  1  0
 19 17  1  0
 19 20  1  6
 20 14  1  0
 21 22  1  0
 21 19  1  0
 23 21  2  0
M  END
$$$$
