TIT.pdb
     RDKit          3D

 23 22  0  0  1  0  0  0  0  0999 V2000
   10.9237  -18.5636   18.1523 C   0  0  0  0  0  0  0  0  0  0  0  0
   12.1292  -17.8280   17.6417 C   0  0  1  0  0  0  0  0  0  0  0  0
   12.6184  -18.3986   16.4485 O   0  0  0  0  0  0  0  0  0  0  0  0
   11.8167  -16.3722   17.3208 C   0  0  2  0  0  0  0  0  0  0  0  0
   12.9592  -15.8487   16.6094 N   0  0  0  0  0  0  0  0  0  0  0  0
   11.6407  -15.6050   18.6264 C   0  0  0  0  0  0  0  0  0  0  0  0
   12.6640  -15.4040   19.2918 O   0  0  0  0  0  0  0  0  0  0  0  0
    7.2465  -12.1882   19.0464 C   0  0  0  0  0  0  0  0  0  0  0  0
    8.5795  -12.8076   19.2637 C   0  0  0  0  0  0  0  0  0  0  0  0
    8.5678  -13.9990   20.2142 C   0  0  2  0  0  0  0  0  0  0  0  0
    7.9969  -13.5099   21.5129 C   0  0  0  0  0  0  0  0  0  0  0  0
    9.9377  -14.6008   20.2759 C   0  0  2  0  0  0  0  0  0  0  0  0
   10.3735  -15.1722   19.0097 N   0  0  0  0  0  0  0  0  0  0  0  0
   10.1071  -15.5413   21.3747 C   0  0  0  0  0  0  0  0  0  0  0  0
    9.9665  -15.0800   22.5815 O   0  0  0  0  0  0  0  0  0  0  0  0
    8.8234  -19.4979   21.5939 C   0  0  0  0  0  0  0  0  0  0  0  0
   10.1872  -19.2183   22.1322 C   0  0  1  0  0  0  0  0  0  0  0  0
   11.1263  -19.5756   21.1450 O   0  0  0  0  0  0  0  0  0  0  0  0
   10.3877  -17.7637   22.5243 C   0  0  2  0  0  0  0  0  0  0  0  0
   10.4019  -16.9109   21.3422 N   0  0  0  0  0  0  0  0  0  0  0  0
   11.7101  -17.6400   23.1813 C   0  0  0  0  0  0  0  0  0  0  0  0
   11.9828  -18.3029   24.3939 O   0  0  0  0  0  0  0  0  0  0  0  0
   12.6676  -16.9603   22.7336 O   0  0  0  0  0  0  0  0  0  0  0  0
  2  1  1  6
  2  4  1  0
  3  2  1  0
  4  5  1  1
  6  4  1  0
  6  7  2  0
  8  9  1  0
  9 10  1  0
 10 11  1  1
 12 13  1  6
 12 10  1  0
 13  6  1  0
 14 12  1  0
 15 14  2  0
 17 16  1  6
 18 17  1  0
 19 17  1  0
 19 20  1  6
 20 14  1  0
 21 22  1  0
 21 19  1  0
 23 21  2  0
M  END
$$$$
