TIT.pdb
     RDKit          3D

 23 22  0  0  1  0  0  0  0  0999 V2000
    6.7332  -16.9950   19.6473 C   0  0  0  0  0  0  0  0  0  0  0  0
    7.4093  -16.6387   20.9399 C   0  0  1  0  0  0  0  0  0  0  0  0
    8.5277  -17.4619   21.1847 O   0  0  0  0  0  0  0  0  0  0  0  0
    7.9270  -15.2062   20.9378 C   0  0  2  0  0  0  0  0  0  0  0  0
    8.8914  -15.1141   19.8668 N   0  0  0  0  0  0  0  0  0  0  0  0
    8.6213  -14.9295   22.2666 C   0  0  0  0  0  0  0  0  0  0  0  0
    9.8361  -15.1582   22.3139 O   0  0  0  0  0  0  0  0  0  0  0  0
    7.2268  -11.8038   27.5180 C   0  0  0  0  0  0  0  0  0  0  0  0
    8.0125  -12.8097   26.7574 C   0  0  0  0  0  0  0  0  0  0  0  0
    7.3950  -13.2054   25.4214 C   0  0  2  0  0  0  0  0  0  0  0  0
    6.0267  -13.7440   25.7206 C   0  0  0  0  0  0  0  0  0  0  0  0
    8.3265  -14.1257   24.6948 C   0  0  2  0  0  0  0  0  0  0  0  0
    7.8848  -14.4444   23.3447 N   0  0  0  0  0  0  0  0  0  0  0  0
    8.6564  -15.3274   25.4483 C   0  0  0  0  0  0  0  0  0  0  0  0
    7.7332  -16.2357   25.5565 O   0  0  0  0  0  0  0  0  0  0  0  0
   11.7734  -18.8920   26.6581 C   0  0  0  0  0  0  0  0  0  0  0  0
   11.4020  -17.5722   26.0682 C   0  0  1  0  0  0  0  0  0  0  0  0
   11.2760  -17.7381   24.6751 O   0  0  0  0  0  0  0  0  0  0  0  0
   10.1091  -17.0079   26.6338 C   0  0  2  0  0  0  0  0  0  0  0  0
    9.8497  -15.6791   26.0935 N   0  0  0  0  0  0  0  0  0  0  0  0
   10.2667  -16.8717   28.1008 C   0  0  0  0  0  0  0  0  0  0  0  0
   10.4409  -15.6078   28.6977 O   0  0  0  0  0  0  0  0  0  0  0  0
   10.2594  -17.8327   28.9107 O   0  0  0  0  0  0  0  0  0  0  0  0
  2  1  1  6
  2  4  1  0
  3  2  1  0
  4  5  1  6
  6  4  1  0
  6  7  2  0
  8  9  1  0
  9 10  1  0
 10 11  1  1
 12 13  1  6
 12 10  1  0
 13  6  1  0
 14 12  1  0
 15 14  2  0
 17 16  1  1
 18 17  1  0
 19 17  1  0
 19 20  1  6
 20 14  1  0
 21 22  1  0
 21 19  1  0
 23 21  2  0
M  END
$$$$
