TIT.pdb
     RDKit          3D

 23 22  0  0  1  0  0  0  0  0999 V2000
    6.8143  -16.2272   20.6660 C   0  0  0  0  0  0  0  0  0  0  0  0
    7.4551  -15.1099   19.8940 C   0  0  1  0  0  0  0  0  0  0  0  0
    6.9376  -15.0199   18.5854 O   0  0  0  0  0  0  0  0  0  0  0  0
    7.2110  -13.7536   20.5429 C   0  0  2  0  0  0  0  0  0  0  0  0
    7.7054  -12.7571   19.6221 N   0  0  0  0  0  0  0  0  0  0  0  0
    8.0046  -13.6773   21.8424 C   0  0  0  0  0  0  0  0  0  0  0  0
    9.2371  -13.6663   21.7377 O   0  0  0  0  0  0  0  0  0  0  0  0
    7.6925  -11.8399   27.5172 C   0  0  0  0  0  0  0  0  0  0  0  0
    7.6266  -13.1440   26.8083 C   0  0  0  0  0  0  0  0  0  0  0  0
    6.9612  -13.0782   25.4387 C   0  0  2  0  0  0  0  0  0  0  0  0
    5.6083  -13.7109   25.5849 C   0  0  0  0  0  0  0  0  0  0  0  0
    7.8698  -13.6833   24.4136 C   0  0  2  0  0  0  0  0  0  0  0  0
    7.3331  -13.6244   23.0616 N   0  0  0  0  0  0  0  0  0  0  0  0
    8.3138  -15.0273   24.7558 C   0  0  0  0  0  0  0  0  0  0  0  0
    7.4168  -15.9678   24.7634 O   0  0  0  0  0  0  0  0  0  0  0  0
   11.6216  -18.6881   24.9949 C   0  0  0  0  0  0  0  0  0  0  0  0
   11.2145  -17.2839   24.6945 C   0  0  1  0  0  0  0  0  0  0  0  0
   11.1042  -17.1524   23.2963 O   0  0  0  0  0  0  0  0  0  0  0  0
    9.9007  -16.8899   25.3491 C   0  0  2  0  0  0  0  0  0  0  0  0
    9.5953  -15.4894   25.0844 N   0  0  0  0  0  0  0  0  0  0  0  0
   10.0493  -17.0464   26.8150 C   0  0  0  0  0  0  0  0  0  0  0  0
    9.8650  -18.2983   27.4336 O   0  0  0  0  0  0  0  0  0  0  0  0
   10.3413  -16.1138   27.6054 O   0  0  0  0  0  0  0  0  0  0  0  0
  2  1  1  1
  2  4  1  0
  3  2  1  0
  4  5  1  6
  6  4  1  0
  6  7  2  0
  8  9  1  0
  9 10  1  0
 10 11  1  1
 12 13  1  6
 12 10  1  0
 13  6  1  0
 14 12  1  0
 15 14  2  0
 17 16  1  6
 18 17  1  0
 19 17  1  0
 19 20  1  1
 20 14  1  0
 21 22  1  0
 21 19  1  0
 23 21  2  0
M  END
$$$$
