TIT.pdb
     RDKit          3D

 23 22  0  0  1  0  0  0  0  0999 V2000
    6.6427  -17.2074   21.4386 C   0  0  0  0  0  0  0  0  0  0  0  0
    7.4551  -16.4370   20.4379 C   0  0  1  0  0  0  0  0  0  0  0  0
    6.9384  -16.5754   19.1332 O   0  0  0  0  0  0  0  0  0  0  0  0
    7.4629  -14.9434   20.7368 C   0  0  2  0  0  0  0  0  0  0  0  0
    8.1463  -14.3029   19.6375 N   0  0  0  0  0  0  0  0  0  0  0  0
    8.2418  -14.7010   22.0247 C   0  0  0  0  0  0  0  0  0  0  0  0
    9.4715  -14.8178   21.9574 O   0  0  0  0  0  0  0  0  0  0  0  0
    7.2188  -11.9281   27.5301 C   0  0  0  0  0  0  0  0  0  0  0  0
    7.9237  -12.9170   26.6740 C   0  0  0  0  0  0  0  0  0  0  0  0
    7.2582  -13.1632   25.3252 C   0  0  2  0  0  0  0  0  0  0  0  0
    5.8451  -13.5799   25.6105 C   0  0  0  0  0  0  0  0  0  0  0  0
    8.0860  -14.1243   24.5292 C   0  0  2  0  0  0  0  0  0  0  0  0
    7.5610  -14.3674   23.1931 N   0  0  0  0  0  0  0  0  0  0  0  0
    8.3611  -15.3700   25.2315 C   0  0  0  0  0  0  0  0  0  0  0  0
    7.3474  -16.1342   25.5096 O   0  0  0  0  0  0  0  0  0  0  0  0
   10.1329  -18.3736   24.0362 C   0  0  0  0  0  0  0  0  0  0  0  0
   10.6644  -18.0804   25.3998 C   0  0  1  0  0  0  0  0  0  0  0  0
   11.8957  -17.4122   25.2524 O   0  0  0  0  0  0  0  0  0  0  0  0
    9.7217  -17.2337   26.2389 C   0  0  2  0  0  0  0  0  0  0  0  0
    9.5831  -15.9002   25.6668 N   0  0  0  0  0  0  0  0  0  0  0  0
   10.3138  -17.0823   27.5888 C   0  0  0  0  0  0  0  0  0  0  0  0
   10.4167  -18.1816   28.4635 O   0  0  0  0  0  0  0  0  0  0  0  0
   10.7589  -16.0034   28.0549 O   0  0  0  0  0  0  0  0  0  0  0  0
  2  1  1  1
  2  4  1  0
  3  2  1  0
  4  5  1  6
  6  4  1  0
  6  7  2  0
  8  9  1  0
  9 10  1  0
 10 11  1  1
 12 13  1  6
 12 10  1  0
 13  6  1  0
 14 12  1  0
 15 14  2  0
 17 16  1  6
 18 17  1  0
 19 17  1  0
 19 20  1  6
 20 14  1  0
 21 22  1  0
 21 19  1  0
 23 21  2  0
M  END
$$$$
