TIT.pdb
     RDKit          3D

 23 22  0  0  1  0  0  0  0  0999 V2000
    5.8715  -16.6116   19.7631 C   0  0  0  0  0  0  0  0  0  0  0  0
    6.7289  -16.2923   20.9538 C   0  0  1  0  0  0  0  0  0  0  0  0
    7.9690  -16.9610   20.8947 O   0  0  0  0  0  0  0  0  0  0  0  0
    7.0502  -14.8061   21.0444 C   0  0  2  0  0  0  0  0  0  0  0  0
    7.7602  -14.4598   19.8355 N   0  0  0  0  0  0  0  0  0  0  0  0
    7.9564  -14.5686   22.2471 C   0  0  0  0  0  0  0  0  0  0  0  0
    9.1737  -14.5514   22.0273 O   0  0  0  0  0  0  0  0  0  0  0  0
    5.8459  -11.4946   26.2295 C   0  0  0  0  0  0  0  0  0  0  0  0
    6.8233  -12.1934   25.3554 C   0  0  0  0  0  0  0  0  0  0  0  0
    7.2073  -13.5876   25.8366 C   0  0  2  0  0  0  0  0  0  0  0  0
    7.8217  -13.4215   27.1957 C   0  0  0  0  0  0  0  0  0  0  0  0
    8.0577  -14.2557   24.8007 C   0  0  2  0  0  0  0  0  0  0  0  0
    7.3975  -14.3854   23.5096 N   0  0  0  0  0  0  0  0  0  0  0  0
    8.6204  -15.5234   25.2444 C   0  0  0  0  0  0  0  0  0  0  0  0
    7.7859  -16.4693   25.5575 O   0  0  0  0  0  0  0  0  0  0  0  0
   12.2183  -18.9448   25.2938 C   0  0  0  0  0  0  0  0  0  0  0  0
   11.6920  -17.5856   24.9724 C   0  0  1  0  0  0  0  0  0  0  0  0
   11.5127  -17.5070   23.5774 O   0  0  0  0  0  0  0  0  0  0  0  0
   10.3808  -17.2717   25.6737 C   0  0  2  0  0  0  0  0  0  0  0  0
    9.9610  -15.9051   25.3890 N   0  0  0  0  0  0  0  0  0  0  0  0
   10.6014  -17.3769   27.1352 C   0  0  0  0  0  0  0  0  0  0  0  0
   10.3719  -18.5872   27.8184 O   0  0  0  0  0  0  0  0  0  0  0  0
   10.9968  -16.4341   27.8660 O   0  0  0  0  0  0  0  0  0  0  0  0
  2  1  1  6
  2  4  1  0
  3  2  1  0
  4  5  1  6
  6  4  1  0
  6  7  2  0
  8  9  1  0
  9 10  1  0
 10 11  1  1
 12 13  1  6
 12 10  1  0
 13  6  1  0
 14 12  1  0
 15 14  2  0
 17 16  1  6
 18 17  1  0
 19 17  1  0
 19 20  1  1
 20 14  1  0
 21 22  1  0
 21 19  1  0
 23 21  2  0
M  END
$$$$
