TIT.pdb
     RDKit          3D

 23 22  0  0  1  0  0  0  0  0999 V2000
    6.4701  -17.1383   21.4711 C   0  0  0  0  0  0  0  0  0  0  0  0
    7.5151  -16.5881   20.5437 C   0  0  1  0  0  0  0  0  0  0  0  0
    7.1567  -16.7695   19.1920 O   0  0  0  0  0  0  0  0  0  0  0  0
    7.7162  -15.0903   20.7338 C   0  0  2  0  0  0  0  0  0  0  0  0
    8.5603  -14.6433   19.6507 N   0  0  0  0  0  0  0  0  0  0  0  0
    8.4289  -14.8515   22.0602 C   0  0  0  0  0  0  0  0  0  0  0  0
    9.6340  -15.1283   22.0979 O   0  0  0  0  0  0  0  0  0  0  0  0
    7.1843  -11.8781   27.4475 C   0  0  0  0  0  0  0  0  0  0  0  0
    7.8989  -12.9048   26.6456 C   0  0  0  0  0  0  0  0  0  0  0  0
    7.3204  -13.1244   25.2528 C   0  0  2  0  0  0  0  0  0  0  0  0
    5.8757  -13.4859   25.4371 C   0  0  0  0  0  0  0  0  0  0  0  0
    8.1640  -14.1166   24.5135 C   0  0  2  0  0  0  0  0  0  0  0  0
    7.7186  -14.3463   23.1466 N   0  0  0  0  0  0  0  0  0  0  0  0
    8.3494  -15.3684   25.2341 C   0  0  0  0  0  0  0  0  0  0  0  0
    7.2979  -16.1080   25.4251 O   0  0  0  0  0  0  0  0  0  0  0  0
    9.9132  -18.4360   24.1488 C   0  0  0  0  0  0  0  0  0  0  0  0
   10.4635  -18.1713   25.5108 C   0  0  1  0  0  0  0  0  0  0  0  0
   11.7336  -17.5812   25.3599 O   0  0  0  0  0  0  0  0  0  0  0  0
    9.5760  -17.2646   26.3475 C   0  0  2  0  0  0  0  0  0  0  0  0
    9.5177  -15.9279   25.7690 N   0  0  0  0  0  0  0  0  0  0  0  0
   10.1793  -17.1430   27.6955 C   0  0  0  0  0  0  0  0  0  0  0  0
   10.2369  -18.2481   28.5670 O   0  0  0  0  0  0  0  0  0  0  0  0
   10.6733  -16.0860   28.1625 O   0  0  0  0  0  0  0  0  0  0  0  0
  2  1  1  1
  2  4  1  0
  3  2  1  0
  4  5  1  6
  6  4  1  0
  6  7  2  0
  8  9  1  0
  9 10  1  0
 10 11  1  1
 12 13  1  6
 12 10  1  0
 13  6  1  0
 14 12  1  0
 15 14  2  0
 17 16  1  6
 18 17  1  0
 19 17  1  0
 19 20  1  6
 20 14  1  0
 21 22  1  0
 21 19  1  0
 23 21  2  0
M  END
$$$$
