TIT.pdb
     RDKit          3D

 23 22  0  0  1  0  0  0  0  0999 V2000
    9.1727  -19.3551   18.8231 C   0  0  0  0  0  0  0  0  0  0  0  0
   10.2259  -18.9432   17.8351 C   0  0  1  0  0  0  0  0  0  0  0  0
   10.1628  -19.7157   16.6571 O   0  0  0  0  0  0  0  0  0  0  0  0
   10.0664  -17.4916   17.4019 C   0  0  2  0  0  0  0  0  0  0  0  0
   11.0695  -17.2465   16.3922 N   0  0  0  0  0  0  0  0  0  0  0  0
   10.3259  -16.5864   18.6008 C   0  0  0  0  0  0  0  0  0  0  0  0
   11.5091  -16.4159   18.9190 O   0  0  0  0  0  0  0  0  0  0  0  0
    7.0237  -12.3192   19.3821 C   0  0  0  0  0  0  0  0  0  0  0  0
    8.1844  -13.2435   19.4602 C   0  0  0  0  0  0  0  0  0  0  0  0
    8.0946  -14.2663   20.5865 C   0  0  2  0  0  0  0  0  0  0  0  0
    7.9686  -13.4909   21.8651 C   0  0  0  0  0  0  0  0  0  0  0  0
    9.2522  -15.2118   20.4947 C   0  0  2  0  0  0  0  0  0  0  0  0
    9.2543  -16.0030   19.2726 N   0  0  0  0  0  0  0  0  0  0  0  0
    9.4098  -16.0493   21.6755 C   0  0  0  0  0  0  0  0  0  0  0  0
    8.3783  -16.7414   22.0576 O   0  0  0  0  0  0  0  0  0  0  0  0
   11.0996  -19.1562   22.0267 C   0  0  0  0  0  0  0  0  0  0  0  0
   11.5484  -18.3531   23.2020 C   0  0  1  0  0  0  0  0  0  0  0  0
   12.8144  -17.8131   22.9023 O   0  0  0  0  0  0  0  0  0  0  0  0
   10.5875  -17.2316   23.5609 C   0  0  2  0  0  0  0  0  0  0  0  0
   10.5321  -16.2418   22.4923 N   0  0  0  0  0  0  0  0  0  0  0  0
   11.1015  -16.5527   24.7736 C   0  0  0  0  0  0  0  0  0  0  0  0
   11.0696  -17.1889   26.0299 O   0  0  0  0  0  0  0  0  0  0  0  0
   11.5918  -15.3956   24.7890 O   0  0  0  0  0  0  0  0  0  0  0  0
  2  1  1  1
  2  4  1  0
  3  2  1  0
  4  5  1  6
  6  4  1  0
  6  7  2  0
  8  9  1  0
  9 10  1  0
 10 11  1  1
 12 13  1  6
 12 10  1  0
 13  6  1  0
 14 12  1  0
 15 14  2  0
 17 16  1  6
 18 17  1  0
 19 17  1  0
 19 20  1  6
 20 14  1  0
 21 22  1  0
 21 19  1  0
 23 21  2  0
M  END
$$$$
