TIT.pdb
     RDKit          3D

 23 22  0  0  1  0  0  0  0  0999 V2000
    5.9913  -14.4203   19.1079 C   0  0  0  0  0  0  0  0  0  0  0  0
    6.8356  -14.5588   20.3419 C   0  0  1  0  0  0  0  0  0  0  0  0
    8.0026  -15.3094   20.0907 O   0  0  0  0  0  0  0  0  0  0  0  0
    7.3028  -13.2083   20.8691 C   0  0  2  0  0  0  0  0  0  0  0  0
    8.0631  -12.5887   19.8092 N   0  0  0  0  0  0  0  0  0  0  0  0
    8.2090  -13.4345   22.0740 C   0  0  0  0  0  0  0  0  0  0  0  0
    9.4092  -13.6176   21.8365 O   0  0  0  0  0  0  0  0  0  0  0  0
    5.5049  -12.6751   27.0172 C   0  0  0  0  0  0  0  0  0  0  0  0
    6.2212  -13.2917   25.8706 C   0  0  0  0  0  0  0  0  0  0  0  0
    7.6907  -12.9010   25.7683 C   0  0  2  0  0  0  0  0  0  0  0  0
    7.7348  -11.4033   25.6851 C   0  0  0  0  0  0  0  0  0  0  0  0
    8.3274  -13.6478   24.6371 C   0  0  2  0  0  0  0  0  0  0  0  0
    7.6687  -13.4268   23.3578 N   0  0  0  0  0  0  0  0  0  0  0  0
    8.5064  -15.0671   24.9095 C   0  0  0  0  0  0  0  0  0  0  0  0
    7.5455  -15.8679   24.5567 O   0  0  0  0  0  0  0  0  0  0  0  0
   11.0020  -19.2233   25.1447 C   0  0  0  0  0  0  0  0  0  0  0  0
   10.7675  -17.7776   24.8570 C   0  0  1  0  0  0  0  0  0  0  0  0
   10.4729  -17.6490   23.4855 O   0  0  0  0  0  0  0  0  0  0  0  0
    9.6376  -17.1807   25.6796 C   0  0  2  0  0  0  0  0  0  0  0  0
    9.5850  -15.7344   25.5056 N   0  0  0  0  0  0  0  0  0  0  0  0
    9.9149  -17.4497   27.1101 C   0  0  0  0  0  0  0  0  0  0  0  0
    9.7576  -18.7413   27.6494 O   0  0  0  0  0  0  0  0  0  0  0  0
   10.2997  -16.5845   27.9364 O   0  0  0  0  0  0  0  0  0  0  0  0
  2  1  1  6
  2  4  1  0
  3  2  1  0
  4  5  1  6
  6  4  1  0
  6  7  2  0
  8  9  1  0
  9 10  1  0
 10 11  1  6
 12 13  1  6
 12 10  1  0
 13  6  1  0
 14 12  1  0
 15 14  2  0
 17 16  1  1
 18 17  1  0
 19 17  1  0
 19 20  1  1
 20 14  1  0
 21 22  1  0
 21 19  1  0
 23 21  2  0
M  END
$$$$
