TIT.pdb
     RDKit          3D

 23 22  0  0  1  0  0  0  0  0999 V2000
    5.9575  -16.4141   19.9288 C   0  0  0  0  0  0  0  0  0  0  0  0
    6.7651  -16.1424   21.1652 C   0  0  1  0  0  0  0  0  0  0  0  0
    7.9894  -16.8419   21.1496 O   0  0  0  0  0  0  0  0  0  0  0  0
    7.1189  -14.6673   21.3038 C   0  0  2  0  0  0  0  0  0  0  0  0
    7.8526  -14.3023   20.1147 N   0  0  0  0  0  0  0  0  0  0  0  0
    8.0143  -14.4862   22.5243 C   0  0  0  0  0  0  0  0  0  0  0  0
    9.2346  -14.5275   22.3258 O   0  0  0  0  0  0  0  0  0  0  0  0
    6.0051  -11.2941   26.3954 C   0  0  0  0  0  0  0  0  0  0  0  0
    7.0033  -12.0472   25.5929 C   0  0  0  0  0  0  0  0  0  0  0  0
    7.2735  -13.4599   26.0971 C   0  0  2  0  0  0  0  0  0  0  0  0
    7.8794  -13.3225   27.4631 C   0  0  0  0  0  0  0  0  0  0  0  0
    8.0852  -14.2045   25.0826 C   0  0  2  0  0  0  0  0  0  0  0  0
    7.4427  -14.2869   23.7788 N   0  0  0  0  0  0  0  0  0  0  0  0
    8.5297  -15.5120   25.5444 C   0  0  0  0  0  0  0  0  0  0  0  0
    7.6154  -16.4084   25.7672 O   0  0  0  0  0  0  0  0  0  0  0  0
   11.7837  -19.2227   25.8117 C   0  0  0  0  0  0  0  0  0  0  0  0
   11.3750  -17.8407   25.4233 C   0  0  1  0  0  0  0  0  0  0  0  0
   11.1466  -17.8289   24.0334 O   0  0  0  0  0  0  0  0  0  0  0  0
   10.1293  -17.3602   26.1492 C   0  0  2  0  0  0  0  0  0  0  0  0
    9.8275  -15.9796   25.7914 N   0  0  0  0  0  0  0  0  0  0  0  0
   10.3998  -17.3963   27.6056 C   0  0  0  0  0  0  0  0  0  0  0  0
   10.3183  -18.6020   28.3291 O   0  0  0  0  0  0  0  0  0  0  0  0
   10.7133  -16.3949   28.2973 O   0  0  0  0  0  0  0  0  0  0  0  0
  2  1  1  6
  2  4  1  0
  3  2  1  0
  4  5  1  6
  6  4  1  0
  6  7  2  0
  8  9  1  0
  9 10  1  0
 10 11  1  1
 12 13  1  6
 12 10  1  0
 13  6  1  0
 14 12  1  0
 15 14  2  0
 17 16  1  1
 18 17  1  0
 19 17  1  0
 19 20  1  6
 20 14  1  0
 21 22  1  0
 21 19  1  0
 23 21  2  0
M  END
$$$$
