TIT.pdb
     RDKit          3D

 23 22  0  0  1  0  0  0  0  0999 V2000
    6.8570  -16.2285   20.5513 C   0  0  0  0  0  0  0  0  0  0  0  0
    7.5489  -15.1829   19.7249 C   0  0  1  0  0  0  0  0  0  0  0  0
    7.0198  -15.1193   18.4194 O   0  0  0  0  0  0  0  0  0  0  0  0
    7.3898  -13.7888   20.3175 C   0  0  2  0  0  0  0  0  0  0  0  0
    7.9399  -12.8628   19.3555 N   0  0  0  0  0  0  0  0  0  0  0  0
    8.1915  -13.7071   21.6116 C   0  0  0  0  0  0  0  0  0  0  0  0
    9.4210  -13.7945   21.5067 O   0  0  0  0  0  0  0  0  0  0  0  0
    7.3202  -11.7992   27.4830 C   0  0  0  0  0  0  0  0  0  0  0  0
    7.9455  -12.7210   26.4997 C   0  0  0  0  0  0  0  0  0  0  0  0
    7.2358  -12.7725   25.1519 C   0  0  2  0  0  0  0  0  0  0  0  0
    5.8549  -13.3000   25.4107 C   0  0  0  0  0  0  0  0  0  0  0  0
    8.0703  -13.5460   24.1784 C   0  0  2  0  0  0  0  0  0  0  0  0
    7.5303  -13.5422   22.8264 N   0  0  0  0  0  0  0  0  0  0  0  0
    8.3806  -14.8960   24.6276 C   0  0  0  0  0  0  0  0  0  0  0  0
    7.3861  -15.7204   24.7703 O   0  0  0  0  0  0  0  0  0  0  0  0
   11.3276  -18.8528   25.0367 C   0  0  0  0  0  0  0  0  0  0  0  0
   11.0730  -17.4263   24.6785 C   0  0  1  0  0  0  0  0  0  0  0  0
   11.0165  -17.3338   23.2740 O   0  0  0  0  0  0  0  0  0  0  0  0
    9.7875  -16.8804   25.2778 C   0  0  2  0  0  0  0  0  0  0  0  0
    9.6197  -15.4731   24.9368 N   0  0  0  0  0  0  0  0  0  0  0  0
    9.8886  -16.9746   26.7531 C   0  0  0  0  0  0  0  0  0  0  0  0
    9.4466  -18.1227   27.4389 O   0  0  0  0  0  0  0  0  0  0  0  0
   10.3586  -16.0749   27.4941 O   0  0  0  0  0  0  0  0  0  0  0  0
  2  1  1  1
  2  4  1  0
  3  2  1  0
  4  5  1  6
  6  4  1  0
  6  7  2  0
  8  9  1  0
  9 10  1  0
 10 11  1  1
 12 13  1  6
 12 10  1  0
 13  6  1  0
 14 12  1  0
 15 14  2  0
 17 16  1  6
 18 17  1  0
 19 17  1  0
 19 20  1  1
 20 14  1  0
 21 22  1  0
 21 19  1  0
 23 21  2  0
M  END
$$$$
