TIT.pdb
     RDKit          3D

 23 22  0  0  1  0  0  0  0  0999 V2000
    8.4395  -17.1399   20.4962 C   0  0  0  0  0  0  0  0  0  0  0  0
    7.1633  -16.3487   20.5138 C   0  0  1  0  0  0  0  0  0  0  0  0
    6.2909  -16.7935   21.5283 O   0  0  0  0  0  0  0  0  0  0  0  0
    7.4115  -14.8702   20.7832 C   0  0  2  0  0  0  0  0  0  0  0  0
    8.2297  -14.3814   19.6982 N   0  0  0  0  0  0  0  0  0  0  0  0
    8.1756  -14.7281   22.0947 C   0  0  0  0  0  0  0  0  0  0  0  0
    9.3476  -15.1239   22.0974 O   0  0  0  0  0  0  0  0  0  0  0  0
    7.2374  -11.8261   27.5892 C   0  0  0  0  0  0  0  0  0  0  0  0
    7.9023  -12.8421   26.7328 C   0  0  0  0  0  0  0  0  0  0  0  0
    7.2213  -13.0686   25.3882 C   0  0  2  0  0  0  0  0  0  0  0  0
    5.8162  -13.5046   25.6837 C   0  0  0  0  0  0  0  0  0  0  0  0
    8.0476  -14.0058   24.5628 C   0  0  2  0  0  0  0  0  0  0  0  0
    7.5453  -14.1749   23.2068 N   0  0  0  0  0  0  0  0  0  0  0  0
    8.2867  -15.2885   25.2094 C   0  0  0  0  0  0  0  0  0  0  0  0
    7.3040  -16.1388   25.2289 O   0  0  0  0  0  0  0  0  0  0  0  0
    9.7633  -18.1729   24.0646 C   0  0  0  0  0  0  0  0  0  0  0  0
   10.4003  -17.9876   25.4017 C   0  0  1  0  0  0  0  0  0  0  0  0
   11.6595  -17.3878   25.2045 O   0  0  0  0  0  0  0  0  0  0  0  0
    9.5703  -17.1329   26.3453 C   0  0  2  0  0  0  0  0  0  0  0  0
    9.4448  -15.7747   25.8309 N   0  0  0  0  0  0  0  0  0  0  0  0
   10.2794  -17.0559   27.6440 C   0  0  0  0  0  0  0  0  0  0  0  0
   10.8014  -15.8351   28.1146 O   0  0  0  0  0  0  0  0  0  0  0  0
   10.4708  -18.0332   28.4107 O   0  0  0  0  0  0  0  0  0  0  0  0
  2  1  1  1
  2  4  1  0
  3  2  1  0
  4  5  1  6
  6  4  1  0
  6  7  2  0
  8  9  1  0
  9 10  1  0
 10 11  1  1
 12 13  1  6
 12 10  1  0
 13  6  1  0
 14 12  1  0
 15 14  2  0
 17 16  1  6
 18 17  1  0
 19 17  1  0
 19 20  1  6
 20 14  1  0
 21 22  1  0
 21 19  1  0
 23 21  2  0
M  END
$$$$
