TIT.pdb
     RDKit          3D

 23 22  0  0  1  0  0  0  0  0999 V2000
    5.8537  -16.5314   20.3220 C   0  0  0  0  0  0  0  0  0  0  0  0
    7.3083  -16.4458   20.6852 C   0  0  1  0  0  0  0  0  0  0  0  0
    8.1202  -17.0932   19.7313 O   0  0  0  0  0  0  0  0  0  0  0  0
    7.7965  -15.0045   20.7524 C   0  0  2  0  0  0  0  0  0  0  0  0
    8.7462  -14.8367   19.6774 N   0  0  0  0  0  0  0  0  0  0  0  0
    8.5004  -14.7826   22.0864 C   0  0  0  0  0  0  0  0  0  0  0  0
    9.7071  -15.0519   22.1262 O   0  0  0  0  0  0  0  0  0  0  0  0
    7.3132  -11.7502   27.4317 C   0  0  0  0  0  0  0  0  0  0  0  0
    7.9683  -12.8442   26.6690 C   0  0  0  0  0  0  0  0  0  0  0  0
    7.3777  -13.0816   25.2842 C   0  0  2  0  0  0  0  0  0  0  0  0
    5.9378  -13.4526   25.4865 C   0  0  0  0  0  0  0  0  0  0  0  0
    8.2217  -14.0742   24.5460 C   0  0  2  0  0  0  0  0  0  0  0  0
    7.7809  -14.2998   23.1769 N   0  0  0  0  0  0  0  0  0  0  0  0
    8.4014  -15.3280   25.2644 C   0  0  0  0  0  0  0  0  0  0  0  0
    7.3357  -16.0255   25.5227 O   0  0  0  0  0  0  0  0  0  0  0  0
    9.7930  -18.5541   24.2273 C   0  0  0  0  0  0  0  0  0  0  0  0
   10.4321  -18.2141   25.5326 C   0  0  1  0  0  0  0  0  0  0  0  0
   11.6971  -17.6552   25.2653 O   0  0  0  0  0  0  0  0  0  0  0  0
    9.6108  -17.2429   26.3646 C   0  0  2  0  0  0  0  0  0  0  0  0
    9.5770  -15.9289   25.7345 N   0  0  0  0  0  0  0  0  0  0  0  0
   10.2705  -17.0905   27.6826 C   0  0  0  0  0  0  0  0  0  0  0  0
   10.3152  -18.1587   28.5996 O   0  0  0  0  0  0  0  0  0  0  0  0
   10.8266  -16.0372   28.0837 O   0  0  0  0  0  0  0  0  0  0  0  0
  2  1  1  6
  2  4  1  0
  3  2  1  0
  4  5  1  6
  6  4  1  0
  6  7  2  0
  8  9  1  0
  9 10  1  0
 10 11  1  1
 12 13  1  6
 12 10  1  0
 13  6  1  0
 14 12  1  0
 15 14  2  0
 17 16  1  6
 18 17  1  0
 19 17  1  0
 19 20  1  6
 20 14  1  0
 21 22  1  0
 21 19  1  0
 23 21  2  0
M  END
$$$$
