TIT.pdb
     RDKit          3D

 23 22  0  0  1  0  0  0  0  0999 V2000
    7.5684  -20.0028   16.7385 C   0  0  0  0  0  0  0  0  0  0  0  0
    8.2707  -19.1548   17.7595 C   0  0  1  0  0  0  0  0  0  0  0  0
    9.5093  -19.7142   18.1355 O   0  0  0  0  0  0  0  0  0  0  0  0
    8.5764  -17.7595   17.2305 C   0  0  2  0  0  0  0  0  0  0  0  0
    9.4769  -17.9263   16.1138 N   0  0  0  0  0  0  0  0  0  0  0  0
    9.2726  -16.9575   18.3243 C   0  0  0  0  0  0  0  0  0  0  0  0
   10.5039  -17.0594   18.3858 O   0  0  0  0  0  0  0  0  0  0  0  0
    6.8480  -12.2429   19.8726 C   0  0  0  0  0  0  0  0  0  0  0  0
    7.9028  -13.2668   19.6563 C   0  0  0  0  0  0  0  0  0  0  0  0
    7.9739  -14.3309   20.7450 C   0  0  2  0  0  0  0  0  0  0  0  0
    8.2620  -13.6141   22.0315 C   0  0  0  0  0  0  0  0  0  0  0  0
    8.9517  -15.3913   20.3424 C   0  0  2  0  0  0  0  0  0  0  0  0
    8.5197  -16.1645   19.1870 N   0  0  0  0  0  0  0  0  0  0  0  0
    9.3551  -16.2540   21.4440 C   0  0  0  0  0  0  0  0  0  0  0  0
    8.4740  -17.0958   21.8958 O   0  0  0  0  0  0  0  0  0  0  0  0
   12.6071  -19.0289   23.8298 C   0  0  0  0  0  0  0  0  0  0  0  0
   12.1344  -18.1166   22.7473 C   0  0  1  0  0  0  0  0  0  0  0  0
   11.8796  -18.8958   21.6018 O   0  0  0  0  0  0  0  0  0  0  0  0
   10.8835  -17.3401   23.1246 C   0  0  2  0  0  0  0  0  0  0  0  0
   10.5823  -16.3313   22.1163 N   0  0  0  0  0  0  0  0  0  0  0  0
   11.1451  -16.6336   24.4005 C   0  0  0  0  0  0  0  0  0  0  0  0
   10.9927  -17.2895   25.6376 O   0  0  0  0  0  0  0  0  0  0  0  0
   11.5114  -15.4347   24.4892 O   0  0  0  0  0  0  0  0  0  0  0  0
  2  1  1  6
  2  4  1  0
  3  2  1  0
  4  5  1  6
  6  4  1  0
  6  7  2  0
  8  9  1  0
  9 10  1  0
 10 11  1  1
 12 13  1  6
 12 10  1  0
 13  6  1  0
 14 12  1  0
 15 14  2  0
 17 16  1  1
 18 17  1  0
 19 17  1  0
 19 20  1  6
 20 14  1  0
 21 22  1  0
 21 19  1  0
 23 21  2  0
M  END
$$$$
