TIT.pdb
     RDKit          3D

 23 22  0  0  1  0  0  0  0  0999 V2000
    6.7806  -16.0530   20.7360 C   0  0  0  0  0  0  0  0  0  0  0  0
    7.5040  -14.9275   20.0540 C   0  0  1  0  0  0  0  0  0  0  0  0
    7.0183  -14.7148   18.7474 O   0  0  0  0  0  0  0  0  0  0  0  0
    7.3317  -13.6068   20.7929 C   0  0  2  0  0  0  0  0  0  0  0  0
    7.8714  -12.5774   19.9358 N   0  0  0  0  0  0  0  0  0  0  0  0
    8.1344  -13.6565   22.0881 C   0  0  0  0  0  0  0  0  0  0  0  0
    9.3660  -13.6257   21.9768 O   0  0  0  0  0  0  0  0  0  0  0  0
    6.0122  -11.2725   26.4822 C   0  0  0  0  0  0  0  0  0  0  0  0
    6.9672  -11.9027   25.5343 C   0  0  0  0  0  0  0  0  0  0  0  0
    7.1488  -13.4027   25.7345 C   0  0  2  0  0  0  0  0  0  0  0  0
    7.6446  -13.5942   27.1379 C   0  0  0  0  0  0  0  0  0  0  0  0
    8.0163  -13.9497   24.6433 C   0  0  2  0  0  0  0  0  0  0  0  0
    7.4716  -13.7324   23.3108 N   0  0  0  0  0  0  0  0  0  0  0  0
    8.3936  -15.3413   24.8475 C   0  0  0  0  0  0  0  0  0  0  0  0
    7.4395  -16.2237   24.8502 O   0  0  0  0  0  0  0  0  0  0  0  0
   12.1893  -16.9152   24.1688 C   0  0  0  0  0  0  0  0  0  0  0  0
   10.9598  -17.7594   24.1109 C   0  0  1  0  0  0  0  0  0  0  0  0
   11.3374  -19.0952   24.3504 O   0  0  0  0  0  0  0  0  0  0  0  0
    9.9000  -17.3408   25.1166 C   0  0  2  0  0  0  0  0  0  0  0  0
    9.6618  -15.9046   25.0431 N   0  0  0  0  0  0  0  0  0  0  0  0
   10.4080  -17.6414   26.4757 C   0  0  0  0  0  0  0  0  0  0  0  0
   10.5898  -18.9705   26.9050 O   0  0  0  0  0  0  0  0  0  0  0  0
   10.7097  -16.7725   27.3321 O   0  0  0  0  0  0  0  0  0  0  0  0
  2  1  1  1
  2  4  1  0
  3  2  1  0
  4  5  1  6
  6  4  1  0
  6  7  2  0
  8  9  1  0
  9 10  1  0
 10 11  1  1
 12 13  1  6
 12 10  1  0
 13  6  1  0
 14 12  1  0
 15 14  2  0
 17 16  1  1
 18 17  1  0
 19 17  1  0
 19 20  1  1
 20 14  1  0
 21 22  1  0
 21 19  1  0
 23 21  2  0
M  END
$$$$
