TIT.pdb
     RDKit          3D

 23 22  0  0  1  0  0  0  0  0999 V2000
    6.2769  -14.2730   18.7334 C   0  0  0  0  0  0  0  0  0  0  0  0
    6.9210  -14.4639   20.0763 C   0  0  1  0  0  0  0  0  0  0  0  0
    8.1074  -15.2200   19.9800 O   0  0  0  0  0  0  0  0  0  0  0  0
    7.3115  -13.1380   20.7164 C   0  0  2  0  0  0  0  0  0  0  0  0
    8.2128  -12.4824   19.7980 N   0  0  0  0  0  0  0  0  0  0  0  0
    8.0407  -13.4169   22.0258 C   0  0  0  0  0  0  0  0  0  0  0  0
    9.2688  -13.5482   21.9576 O   0  0  0  0  0  0  0  0  0  0  0  0
    5.6966  -11.2495   26.4494 C   0  0  0  0  0  0  0  0  0  0  0  0
    6.7078  -11.8239   25.5246 C   0  0  0  0  0  0  0  0  0  0  0  0
    6.8665  -13.3359   25.6327 C   0  0  2  0  0  0  0  0  0  0  0  0
    7.2817  -13.6267   27.0452 C   0  0  0  0  0  0  0  0  0  0  0  0
    7.7895  -13.8183   24.5566 C   0  0  2  0  0  0  0  0  0  0  0  0
    7.3193  -13.5105   23.2136 N   0  0  0  0  0  0  0  0  0  0  0  0
    8.1484  -15.2233   24.6898 C   0  0  0  0  0  0  0  0  0  0  0  0
    7.1827  -16.0920   24.6486 O   0  0  0  0  0  0  0  0  0  0  0  0
    9.9023  -17.5918   22.4529 C   0  0  0  0  0  0  0  0  0  0  0  0
   10.5278  -17.7185   23.8021 C   0  0  1  0  0  0  0  0  0  0  0  0
   11.7128  -16.9570   23.8057 O   0  0  0  0  0  0  0  0  0  0  0  0
    9.6190  -17.2532   24.9278 C   0  0  2  0  0  0  0  0  0  0  0  0
    9.4091  -15.8125   24.8554 N   0  0  0  0  0  0  0  0  0  0  0  0
   10.2922  -17.5434   26.2155 C   0  0  0  0  0  0  0  0  0  0  0  0
   10.4151  -18.8644   26.6886 O   0  0  0  0  0  0  0  0  0  0  0  0
   10.7932  -16.6721   26.9700 O   0  0  0  0  0  0  0  0  0  0  0  0
  2  1  1  6
  2  4  1  0
  3  2  1  0
  4  5  1  6
  6  4  1  0
  6  7  2  0
  8  9  1  0
  9 10  1  0
 10 11  1  1
 12 13  1  6
 12 10  1  0
 13  6  1  0
 14 12  1  0
 15 14  2  0
 17 16  1  6
 18 17  1  0
 19 17  1  0
 19 20  1  6
 20 14  1  0
 21 22  1  0
 21 19  1  0
 23 21  2  0
M  END
$$$$
