TIT.pdb
     RDKit          3D

 23 22  0  0  1  0  0  0  0  0999 V2000
    6.6089  -16.6310   21.0439 C   0  0  0  0  0  0  0  0  0  0  0  0
    7.3576  -15.5718   20.2873 C   0  0  1  0  0  0  0  0  0  0  0  0
    6.8684  -15.4295   18.9725 O   0  0  0  0  0  0  0  0  0  0  0  0
    7.2269  -14.2024   20.9412 C   0  0  2  0  0  0  0  0  0  0  0  0
    7.7566  -13.2412   20.0026 N   0  0  0  0  0  0  0  0  0  0  0  0
    8.0661  -14.1799   22.2138 C   0  0  0  0  0  0  0  0  0  0  0  0
    9.2940  -14.2110   22.0668 O   0  0  0  0  0  0  0  0  0  0  0  0
    5.7866  -11.5251   26.3646 C   0  0  0  0  0  0  0  0  0  0  0  0
    6.8182  -12.1479   25.4954 C   0  0  0  0  0  0  0  0  0  0  0  0
    7.1411  -13.5953   25.8470 C   0  0  2  0  0  0  0  0  0  0  0  0
    7.6917  -13.5882   27.2430 C   0  0  0  0  0  0  0  0  0  0  0  0
    8.0237  -14.1804   24.7881 C   0  0  2  0  0  0  0  0  0  0  0  0
    7.4386  -14.1268   23.4561 N   0  0  0  0  0  0  0  0  0  0  0  0
    8.5034  -15.5174   25.1091 C   0  0  0  0  0  0  0  0  0  0  0  0
    7.6179  -16.4650   25.1912 O   0  0  0  0  0  0  0  0  0  0  0  0
   11.8532  -19.1432   25.0811 C   0  0  0  0  0  0  0  0  0  0  0  0
   11.4010  -17.7469   24.8093 C   0  0  1  0  0  0  0  0  0  0  0  0
   11.1589  -17.6292   23.4267 O   0  0  0  0  0  0  0  0  0  0  0  0
   10.1488  -17.3639   25.5808 C   0  0  2  0  0  0  0  0  0  0  0  0
    9.8097  -15.9657   25.3469 N   0  0  0  0  0  0  0  0  0  0  0  0
   10.4309  -17.5202   27.0271 C   0  0  0  0  0  0  0  0  0  0  0  0
   10.4555  -18.7939   27.6281 O   0  0  0  0  0  0  0  0  0  0  0  0
   10.6639  -16.5690   27.8147 O   0  0  0  0  0  0  0  0  0  0  0  0
  2  1  1  1
  2  4  1  0
  3  2  1  0
  4  5  1  6
  6  4  1  0
  6  7  2  0
  8  9  1  0
  9 10  1  0
 10 11  1  1
 12 13  1  6
 12 10  1  0
 13  6  1  0
 14 12  1  0
 15 14  2  0
 17 16  1  6
 18 17  1  0
 19 17  1  0
 19 20  1  1
 20 14  1  0
 21 22  1  0
 21 19  1  0
 23 21  2  0
M  END
$$$$
