TIT.pdb
     RDKit          3D

 23 22  0  0  1  0  0  0  0  0999 V2000
    9.1684  -19.4159   16.3227 C   0  0  0  0  0  0  0  0  0  0  0  0
    9.4964  -18.5245   17.4857 C   0  0  1  0  0  0  0  0  0  0  0  0
   10.5667  -19.0374   18.2471 O   0  0  0  0  0  0  0  0  0  0  0  0
    9.9216  -17.1325   17.0366 C   0  0  2  0  0  0  0  0  0  0  0  0
   11.1127  -17.2993   16.2372 N   0  0  0  0  0  0  0  0  0  0  0  0
   10.2532  -16.2957   18.2671 C   0  0  0  0  0  0  0  0  0  0  0  0
   11.4535  -16.1337   18.5184 O   0  0  0  0  0  0  0  0  0  0  0  0
    7.0627  -12.0768   19.4607 C   0  0  0  0  0  0  0  0  0  0  0  0
    8.2259  -13.0013   19.4521 C   0  0  0  0  0  0  0  0  0  0  0  0
    8.1657  -14.0917   20.5151 C   0  0  2  0  0  0  0  0  0  0  0  0
    8.1179  -13.3970   21.8444 C   0  0  0  0  0  0  0  0  0  0  0  0
    9.2958  -15.0523   20.3083 C   0  0  2  0  0  0  0  0  0  0  0  0
    9.2241  -15.7613   19.0387 N   0  0  0  0  0  0  0  0  0  0  0  0
    9.4871  -15.9688   21.4236 C   0  0  0  0  0  0  0  0  0  0  0  0
    8.4261  -16.5264   21.9261 O   0  0  0  0  0  0  0  0  0  0  0  0
   11.2613  -19.2847   21.5684 C   0  0  0  0  0  0  0  0  0  0  0  0
   11.6952  -18.4802   22.7484 C   0  0  1  0  0  0  0  0  0  0  0  0
   12.9525  -17.9180   22.4533 O   0  0  0  0  0  0  0  0  0  0  0  0
   10.7154  -17.3766   23.1116 C   0  0  2  0  0  0  0  0  0  0  0  0
   10.6696  -16.3656   22.0625 N   0  0  0  0  0  0  0  0  0  0  0  0
   11.1987  -16.7176   24.3476 C   0  0  0  0  0  0  0  0  0  0  0  0
   11.1377  -17.3748   25.5919 O   0  0  0  0  0  0  0  0  0  0  0  0
   11.6864  -15.5602   24.3942 O   0  0  0  0  0  0  0  0  0  0  0  0
  2  1  1  6
  2  4  1  0
  3  2  1  0
  4  5  1  6
  6  4  1  0
  6  7  2  0
  8  9  1  0
  9 10  1  0
 10 11  1  1
 12 13  1  6
 12 10  1  0
 13  6  1  0
 14 12  1  0
 15 14  2  0
 17 16  1  6
 18 17  1  0
 19 17  1  0
 19 20  1  6
 20 14  1  0
 21 22  1  0
 21 19  1  0
 23 21  2  0
M  END
$$$$
