HDC.pdb
     RDKit          3D

 25 25  0  0  1  0  0  0  0  0999 V2000
   26.9734  -12.6869  -20.5151 N   0  0  0  0  0  0  0  0  0  0  0  0
   28.0600  -12.6914  -19.5280 C   0  0  1  0  0  0  0  0  0  0  0  0
   28.9456  -13.8732  -19.7091 C   0  0  0  0  0  0  0  0  0  0  0  0
   28.2663  -15.1186  -19.3447 C   0  0  0  0  0  0  0  0  0  0  0  0
   26.9609  -15.4815  -19.5560 C   0  0  0  0  0  0  0  0  0  0  0  0
   26.8049  -16.7184  -19.0172 N   0  0  0  0  0  0  0  0  0  0  0  0
   27.9735  -17.1163  -18.4861 C   0  0  0  0  0  0  0  0  0  0  0  0
   28.8625  -16.1464  -18.6837 N   0  0  0  0  0  0  0  0  0  0  0  0
   28.8498  -11.4457  -19.6694 C   0  0  0  0  0  0  0  0  0  0  0  0
   29.2647  -10.9873  -20.7607 O   0  0  0  0  0  0  0  0  0  0  0  0
   29.1722  -10.7020  -18.5020 N   0  0  0  0  0  0  0  0  0  0  0  0
   29.8707   -9.4490  -18.6367 C   0  0  1  0  0  0  0  0  0  0  0  0
   28.8384   -8.3744  -18.8615 C   0  0  0  0  0  0  0  0  0  0  0  0
   28.4935   -8.3442  -20.3018 C   0  0  0  0  0  0  0  0  0  0  0  0
   29.3066   -8.0942  -21.2287 O   0  0  0  0  0  0  0  0  0  0  0  0
   30.5795   -9.0806  -17.3749 C   0  0  0  0  0  0  0  0  0  0  0  0
   30.0378   -9.0896  -16.2432 O   0  0  0  0  0  0  0  0  0  0  0  0
   27.1759   -8.6100  -20.6730 O   0  0  0  0  0  0  0  0  0  0  0  0
   31.9336   -8.7027  -17.4712 N   0  0  0  0  0  0  0  0  0  0  0  0
   32.7029   -8.3662  -16.2919 C   0  0  1  0  0  0  0  0  0  0  0  0
   33.9826   -9.1717  -16.3461 C   0  0  0  0  0  0  0  0  0  0  0  0
   35.0699   -8.7010  -14.9527 S   0  0  0  0  0  0  0  0  0  0  0  0
   32.9445   -6.9193  -16.2786 C   0  0  0  0  0  0  0  0  0  0  0  0
   33.0311   -6.2879  -17.3530 O   0  0  0  0  0  0  0  0  0  0  0  0
   33.0772   -6.2484  -15.0846 O   0  0  0  0  0  0  0  0  0  0  0  0
  2  1  1  6
  2  9  1  0
  2  3  1  0
  4  3  1  0
  4  8  1  0
  5  6  1  0
  5  4  2  0
  6  7  1  0
  7  8  2  0
  9 10  2  0
 11 12  1  0
 11  9  1  0
 12 13  1  1
 13 14  1  0
 14 15  2  0
 14 18  1  0
 16 17  2  0
 16 12  1  0
 19 16  1  0
 20 19  1  0
 20 21  1  6
 21 22  1  0
 23 25  1  0
 23 20  1  0
 24 23  2  0
M  END
$$$$
