HDC.pdb
     RDKit          3D

 25 25  0  0  1  0  0  0  0  0999 V2000
   25.8890  -11.2426  -16.3992 N   0  0  0  0  0  0  0  0  0  0  0  0
   25.2612  -10.1492  -17.1510 C   0  0  1  0  0  0  0  0  0  0  0  0
   24.6262  -10.6508  -18.3995 C   0  0  0  0  0  0  0  0  0  0  0  0
   25.6143  -11.2243  -19.3159 C   0  0  0  0  0  0  0  0  0  0  0  0
   26.0412  -10.7494  -20.5295 C   0  0  0  0  0  0  0  0  0  0  0  0
   26.9460  -11.6438  -21.0050 N   0  0  0  0  0  0  0  0  0  0  0  0
   27.0808  -12.6450  -20.1189 C   0  0  0  0  0  0  0  0  0  0  0  0
   26.2731  -12.3926  -19.0922 N   0  0  0  0  0  0  0  0  0  0  0  0
   24.2420   -9.4953  -16.2970 C   0  0  0  0  0  0  0  0  0  0  0  0
   23.5893  -10.0767  -15.3976 O   0  0  0  0  0  0  0  0  0  0  0  0
   23.9675   -8.1145  -16.4922 N   0  0  0  0  0  0  0  0  0  0  0  0
   22.9883   -7.4669  -15.6569 C   0  0  1  0  0  0  0  0  0  0  0  0
   23.4087   -6.0291  -15.4935 C   0  0  0  0  0  0  0  0  0  0  0  0
   22.5780   -5.4111  -14.4340 C   0  0  0  0  0  0  0  0  0  0  0  0
   21.6777   -6.0081  -13.7893 O   0  0  0  0  0  0  0  0  0  0  0  0
   21.6477   -7.4311  -16.3141 C   0  0  0  0  0  0  0  0  0  0  0  0
   21.4694   -7.1204  -17.5166 O   0  0  0  0  0  0  0  0  0  0  0  0
   22.7982   -4.0711  -14.1169 O   0  0  0  0  0  0  0  0  0  0  0  0
   20.5256   -7.7670  -15.5310 N   0  0  0  0  0  0  0  0  0  0  0  0
   19.2026   -7.8466  -16.1133 C   0  0  1  0  0  0  0  0  0  0  0  0
   18.6368   -9.2041  -15.7579 C   0  0  0  0  0  0  0  0  0  0  0  0
   19.5586  -10.5108  -16.6456 S   0  0  0  0  0  0  0  0  0  0  0  0
   18.3885   -6.7408  -15.5970 C   0  0  0  0  0  0  0  0  0  0  0  0
   18.8735   -5.9357  -14.7741 O   0  0  0  0  0  0  0  0  0  0  0  0
   17.0869   -6.5827  -16.0146 O   0  0  0  0  0  0  0  0  0  0  0  0
  2  1  1  1
  2  9  1  0
  2  3  1  0
  4  3  1  0
  4  8  1  0
  5  6  1  0
  5  4  2  0
  6  7  1  0
  7  8  2  0
  9 10  2  0
 11 12  1  0
 11  9  1  0
 12 13  1  6
 13 14  1  0
 14 15  2  0
 14 18  1  0
 16 17  2  0
 16 12  1  0
 19 16  1  0
 20 19  1  0
 20 21  1  1
 21 22  1  0
 23 25  1  0
 23 20  1  0
 24 23  2  0
M  END
$$$$
