HDC.pdb
     RDKit          3D

 25 25  0  0  1  0  0  0  0  0999 V2000
   16.7188  -14.0248  -18.5602 N   0  0  0  0  0  0  0  0  0  0  0  0
   16.9008  -13.3009  -17.2962 C   0  0  1  0  0  0  0  0  0  0  0  0
   17.4602  -14.1907  -16.2431 C   0  0  0  0  0  0  0  0  0  0  0  0
   17.0730  -15.5873  -16.4538 C   0  0  0  0  0  0  0  0  0  0  0  0
   15.8688  -16.1944  -16.2049 C   0  0  0  0  0  0  0  0  0  0  0  0
   16.0113  -17.5025  -16.5414 N   0  0  0  0  0  0  0  0  0  0  0  0
   17.2628  -17.7074  -16.9858 C   0  0  0  0  0  0  0  0  0  0  0  0
   17.9096  -16.5459  -16.9335 N   0  0  0  0  0  0  0  0  0  0  0  0
   17.8118  -12.1539  -17.5203 C   0  0  0  0  0  0  0  0  0  0  0  0
   18.8516  -12.1983  -18.2202 O   0  0  0  0  0  0  0  0  0  0  0  0
   17.5072  -10.9070  -16.9100 N   0  0  0  0  0  0  0  0  0  0  0  0
   18.3400   -9.7649  -17.1894 C   0  0  1  0  0  0  0  0  0  0  0  0
   17.4308   -8.5955  -17.4666 C   0  0  0  0  0  0  0  0  0  0  0  0
   18.2612   -7.4352  -17.8648 C   0  0  0  0  0  0  0  0  0  0  0  0
   18.5188   -6.4504  -17.1254 O   0  0  0  0  0  0  0  0  0  0  0  0
   19.1549   -9.3789  -15.9989 C   0  0  0  0  0  0  0  0  0  0  0  0
   18.7339   -9.4356  -14.8183 O   0  0  0  0  0  0  0  0  0  0  0  0
   18.8037   -7.4187  -19.1493 O   0  0  0  0  0  0  0  0  0  0  0  0
   20.4701   -8.9264  -16.2248 N   0  0  0  0  0  0  0  0  0  0  0  0
   21.3501   -8.6018  -15.1221 C   0  0  1  0  0  0  0  0  0  0  0  0
   22.7412   -9.0527  -15.5105 C   0  0  0  0  0  0  0  0  0  0  0  0
   22.8567  -10.8743  -15.3942 S   0  0  0  0  0  0  0  0  0  0  0  0
   21.2741   -7.1601  -14.8615 C   0  0  0  0  0  0  0  0  0  0  0  0
   20.8707   -6.3822  -15.7518 O   0  0  0  0  0  0  0  0  0  0  0  0
   21.6459   -6.6553  -13.6366 O   0  0  0  0  0  0  0  0  0  0  0  0
  2  1  1  6
  2  9  1  0
  2  3  1  0
  4  3  1  0
  4  8  1  0
  5  6  1  0
  5  4  2  0
  6  7  1  0
  7  8  2  0
  9 10  2  0
 11 12  1  0
 11  9  1  0
 12 13  1  1
 13 14  1  0
 14 15  2  0
 14 18  1  0
 16 17  2  0
 16 12  1  0
 19 16  1  0
 20 19  1  0
 20 21  1  6
 21 22  1  0
 23 25  1  0
 23 20  1  0
 24 23  2  0
M  END
$$$$
