HDC.pdb
     RDKit          3D

 25 25  0  0  1  0  0  0  0  0999 V2000
   18.4207  -13.5865  -17.7546 N   0  0  0  0  0  0  0  0  0  0  0  0
   18.0100  -12.6364  -16.7137 C   0  0  1  0  0  0  0  0  0  0  0  0
   18.2938  -13.1721  -15.3550 C   0  0  0  0  0  0  0  0  0  0  0  0
   17.5916  -14.4346  -15.1142 C   0  0  0  0  0  0  0  0  0  0  0  0
   16.2544  -14.7134  -15.2356 C   0  0  0  0  0  0  0  0  0  0  0  0
   16.0903  -16.0137  -14.8791 N   0  0  0  0  0  0  0  0  0  0  0  0
   17.2847  -16.5313  -14.5455 C   0  0  0  0  0  0  0  0  0  0  0  0
   18.1980  -15.5744  -14.6875 N   0  0  0  0  0  0  0  0  0  0  0  0
   18.7330  -11.3580  -16.9105 C   0  0  0  0  0  0  0  0  0  0  0  0
   19.9730  -11.2602  -17.0714 O   0  0  0  0  0  0  0  0  0  0  0  0
   17.9915  -10.1455  -16.9210 N   0  0  0  0  0  0  0  0  0  0  0  0
   18.6651   -8.9116  -17.2366 C   0  0  1  0  0  0  0  0  0  0  0  0
   17.7900   -8.1480  -18.1968 C   0  0  0  0  0  0  0  0  0  0  0  0
   18.5110   -6.9265  -18.6243 C   0  0  0  0  0  0  0  0  0  0  0  0
   19.7264   -6.8872  -18.9467 O   0  0  0  0  0  0  0  0  0  0  0  0
   18.8073   -8.0429  -16.0302 C   0  0  0  0  0  0  0  0  0  0  0  0
   17.9536   -7.9791  -15.1130 O   0  0  0  0  0  0  0  0  0  0  0  0
   17.8047   -5.7254  -18.6784 O   0  0  0  0  0  0  0  0  0  0  0  0
   19.9699   -7.2538  -15.9251 N   0  0  0  0  0  0  0  0  0  0  0  0
   20.2187   -6.4389  -14.7548 C   0  0  1  0  0  0  0  0  0  0  0  0
   21.7038   -6.5016  -14.4717 C   0  0  0  0  0  0  0  0  0  0  0  0
   22.1483   -8.1683  -13.8638 S   0  0  0  0  0  0  0  0  0  0  0  0
   19.7493   -5.0740  -15.0171 C   0  0  0  0  0  0  0  0  0  0  0  0
   19.3611   -4.7530  -16.1603 O   0  0  0  0  0  0  0  0  0  0  0  0
   19.7332   -4.1390  -14.0077 O   0  0  0  0  0  0  0  0  0  0  0  0
  2  1  1  6
  2  9  1  0
  2  3  1  0
  4  3  1  0
  4  8  1  0
  5  6  1  0
  5  4  2  0
  6  7  1  0
  7  8  2  0
  9 10  2  0
 11 12  1  0
 11  9  1  0
 12 13  1  6
 13 14  1  0
 14 15  2  0
 14 18  1  0
 16 17  2  0
 16 12  1  0
 19 16  1  0
 20 19  1  0
 20 21  1  6
 21 22  1  0
 23 25  1  0
 23 20  1  0
 24 23  2  0
M  END
$$$$
