HDC.pdb
     RDKit          3D

 25 25  0  0  1  0  0  0  0  0999 V2000
   25.1307  -15.7804  -17.9882 N   0  0  0  0  0  0  0  0  0  0  0  0
   24.9673  -17.1191  -17.4084 C   0  0  1  0  0  0  0  0  0  0  0  0
   26.2160  -17.5700  -16.7369 C   0  0  0  0  0  0  0  0  0  0  0  0
   27.2713  -17.8742  -17.7059 C   0  0  0  0  0  0  0  0  0  0  0  0
   27.2138  -17.8570  -19.0759 C   0  0  0  0  0  0  0  0  0  0  0  0
   28.4381  -18.2361  -19.5253 N   0  0  0  0  0  0  0  0  0  0  0  0
   29.2352  -18.4825  -18.4718 C   0  0  0  0  0  0  0  0  0  0  0  0
   28.5289  -18.2635  -17.3658 N   0  0  0  0  0  0  0  0  0  0  0  0
   23.8533  -17.0926  -16.4316 C   0  0  0  0  0  0  0  0  0  0  0  0
   23.7742  -16.2970  -15.4653 O   0  0  0  0  0  0  0  0  0  0  0  0
   22.7898  -18.0238  -16.5790 N   0  0  0  0  0  0  0  0  0  0  0  0
   21.6829  -17.9792  -15.6577 C   0  0  1  0  0  0  0  0  0  0  0  0
   20.4220  -17.8239  -16.4682 C   0  0  0  0  0  0  0  0  0  0  0  0
   20.3508  -16.4317  -16.9695 C   0  0  0  0  0  0  0  0  0  0  0  0
   20.2532  -16.1103  -18.1819 O   0  0  0  0  0  0  0  0  0  0  0  0
   21.5383  -19.2669  -14.9152 C   0  0  0  0  0  0  0  0  0  0  0  0
   21.7659  -20.3923  -15.4211 O   0  0  0  0  0  0  0  0  0  0  0  0
   20.3940  -15.3910  -16.0424 O   0  0  0  0  0  0  0  0  0  0  0  0
   21.1220  -19.2039  -13.5705 N   0  0  0  0  0  0  0  0  0  0  0  0
   21.0542  -20.3953  -12.7509 C   0  0  1  0  0  0  0  0  0  0  0  0
   21.4511  -19.9968  -11.3463 C   0  0  0  0  0  0  0  0  0  0  0  0
   20.1372  -18.9659  -10.6005 S   0  0  0  0  0  0  0  0  0  0  0  0
   19.6956  -20.9443  -12.8214 C   0  0  0  0  0  0  0  0  0  0  0  0
   18.7511  -20.2318  -13.2224 O   0  0  0  0  0  0  0  0  0  0  0  0
   19.4523  -22.2459  -12.4470 O   0  0  0  0  0  0  0  0  0  0  0  0
  2  1  1  1
  2  9  1  0
  2  3  1  0
  4  3  1  0
  4  8  1  0
  5  6  1  0
  5  4  2  0
  6  7  1  0
  7  8  2  0
  9 10  2  0
 11 12  1  0
 11  9  1  0
 12 13  1  6
 13 14  1  0
 14 15  2  0
 14 18  1  0
 16 17  2  0
 16 12  1  0
 19 16  1  0
 20 19  1  0
 20 21  1  1
 21 22  1  0
 23 25  1  0
 23 20  1  0
 24 23  2  0
M  END
$$$$
