HDC.pdb
     RDKit          3D

 25 25  0  0  1  0  0  0  0  0999 V2000
   23.8222  -11.2571  -17.9546 N   0  0  0  0  0  0  0  0  0  0  0  0
   23.5689  -10.8604  -16.5641 C   0  0  1  0  0  0  0  0  0  0  0  0
   24.8102  -10.3613  -15.9132 C   0  0  0  0  0  0  0  0  0  0  0  0
   25.8440  -11.3971  -15.8549 C   0  0  0  0  0  0  0  0  0  0  0  0
   25.7776  -12.7044  -16.2637 C   0  0  0  0  0  0  0  0  0  0  0  0
   26.9807  -13.2666  -15.9788 N   0  0  0  0  0  0  0  0  0  0  0  0
   27.7734  -12.3424  -15.4104 C   0  0  0  0  0  0  0  0  0  0  0  0
   27.0854  -11.2062  -15.3340 N   0  0  0  0  0  0  0  0  0  0  0  0
   22.5305   -9.8035  -16.5421 C   0  0  0  0  0  0  0  0  0  0  0  0
   22.3033   -9.0106  -17.4869 O   0  0  0  0  0  0  0  0  0  0  0  0
   21.7242   -9.6587  -15.3807 N   0  0  0  0  0  0  0  0  0  0  0  0
   20.7209   -8.6252  -15.3452 C   0  0  1  0  0  0  0  0  0  0  0  0
   19.5390   -9.1642  -14.5814 C   0  0  0  0  0  0  0  0  0  0  0  0
   18.8980  -10.2269  -15.3904 C   0  0  0  0  0  0  0  0  0  0  0  0
   18.5486  -10.1005  -16.5924 O   0  0  0  0  0  0  0  0  0  0  0  0
   21.1934   -7.4313  -14.5826 C   0  0  0  0  0  0  0  0  0  0  0  0
   21.8102   -7.5004  -13.4922 O   0  0  0  0  0  0  0  0  0  0  0  0
   18.6581  -11.4624  -14.7901 O   0  0  0  0  0  0  0  0  0  0  0  0
   20.9266   -6.1593  -15.1268 N   0  0  0  0  0  0  0  0  0  0  0  0
   21.4351   -4.9561  -14.5028 C   0  0  1  0  0  0  0  0  0  0  0  0
   22.6788   -4.5481  -15.2618 C   0  0  0  0  0  0  0  0  0  0  0  0
   23.2339   -2.8985  -14.6999 S   0  0  0  0  0  0  0  0  0  0  0  0
   20.3902   -3.9268  -14.5326 C   0  0  0  0  0  0  0  0  0  0  0  0
   20.2945   -3.1028  -13.5986 O   0  0  0  0  0  0  0  0  0  0  0  0
   19.5095   -3.8616  -15.5879 O   0  0  0  0  0  0  0  0  0  0  0  0
  2  1  1  6
  2  9  1  0
  2  3  1  0
  4  3  1  0
  4  8  1  0
  5  6  1  0
  5  4  2  0
  6  7  1  0
  7  8  2  0
  9 10  2  0
 11 12  1  0
 11  9  1  0
 12 13  1  1
 13 14  1  0
 14 15  2  0
 14 18  1  0
 16 17  2  0
 16 12  1  0
 19 16  1  0
 20 19  1  0
 20 21  1  6
 21 22  1  0
 23 25  1  0
 23 20  1  0
 24 23  2  0
M  END
$$$$
