HDC.pdb
     RDKit          3D

 25 25  0  0  1  0  0  0  0  0999 V2000
   12.8035  -10.5839  -10.7774 N   0  0  0  0  0  0  0  0  0  0  0  0
   14.2262  -10.7243  -10.4440 C   0  0  1  0  0  0  0  0  0  0  0  0
   14.8303  -11.8886  -11.1462 C   0  0  0  0  0  0  0  0  0  0  0  0
   14.1766  -13.1445  -10.7713 C   0  0  0  0  0  0  0  0  0  0  0  0
   13.2080  -13.8453  -11.4430 C   0  0  0  0  0  0  0  0  0  0  0  0
   12.9085  -14.9296  -10.6817 N   0  0  0  0  0  0  0  0  0  0  0  0
   13.6643  -14.9080   -9.5708 C   0  0  0  0  0  0  0  0  0  0  0  0
   14.4352  -13.8249   -9.6228 N   0  0  0  0  0  0  0  0  0  0  0  0
   14.9393   -9.4826  -10.8255 C   0  0  0  0  0  0  0  0  0  0  0  0
   14.8828   -8.9506  -11.9599 O   0  0  0  0  0  0  0  0  0  0  0  0
   15.7495   -8.8318   -9.8560 N   0  0  0  0  0  0  0  0  0  0  0  0
   16.4110   -7.6001  -10.2044 C   0  0  1  0  0  0  0  0  0  0  0  0
   16.4394   -6.7342   -8.9714 C   0  0  0  0  0  0  0  0  0  0  0  0
   17.0085   -5.4152   -9.3331 C   0  0  0  0  0  0  0  0  0  0  0  0
   17.6974   -4.6963   -8.5641 O   0  0  0  0  0  0  0  0  0  0  0  0
   17.8386   -7.8331  -10.5760 C   0  0  0  0  0  0  0  0  0  0  0  0
   18.6932   -8.3128   -9.7925 O   0  0  0  0  0  0  0  0  0  0  0  0
   16.7722   -4.9211  -10.6155 O   0  0  0  0  0  0  0  0  0  0  0  0
   18.2389   -7.4915  -11.8830 N   0  0  0  0  0  0  0  0  0  0  0  0
   19.5957   -7.7179  -12.3340 C   0  0  1  0  0  0  0  0  0  0  0  0
   19.5199   -8.6052  -13.5572 C   0  0  0  0  0  0  0  0  0  0  0  0
   18.7873  -10.2193  -13.1068 S   0  0  0  0  0  0  0  0  0  0  0  0
   20.2269   -6.4230  -12.6118 C   0  0  0  0  0  0  0  0  0  0  0  0
   19.5414   -5.3787  -12.6139 O   0  0  0  0  0  0  0  0  0  0  0  0
   21.5761   -6.3496  -12.8717 O   0  0  0  0  0  0  0  0  0  0  0  0
  2  1  1  6
  2  9  1  0
  2  3  1  0
  4  3  1  0
  4  8  1  0
  5  6  1  0
  5  4  2  0
  6  7  1  0
  7  8  2  0
  9 10  2  0
 11 12  1  0
 11  9  1  0
 12 13  1  1
 13 14  1  0
 14 15  2  0
 14 18  1  0
 16 17  2  0
 16 12  1  0
 19 16  1  0
 20 19  1  0
 20 21  1  6
 21 22  1  0
 23 25  1  0
 23 20  1  0
 24 23  2  0
M  END
$$$$
