HDC.pdb
     RDKit          3D

 25 25  0  0  1  0  0  0  0  0999 V2000
   24.0607  -12.4009  -16.6655 N   0  0  0  0  0  0  0  0  0  0  0  0
   24.1761  -10.9533  -16.4507 C   0  0  1  0  0  0  0  0  0  0  0  0
   25.1702  -10.3500  -17.3788 C   0  0  0  0  0  0  0  0  0  0  0  0
   26.5237  -10.8444  -17.1169 C   0  0  0  0  0  0  0  0  0  0  0  0
   27.1584  -11.9390  -17.6458 C   0  0  0  0  0  0  0  0  0  0  0  0
   28.3897  -11.9929  -17.0752 N   0  0  0  0  0  0  0  0  0  0  0  0
   28.5213  -10.9666  -16.2177 C   0  0  0  0  0  0  0  0  0  0  0  0
   27.3894  -10.2677  -16.2412 N   0  0  0  0  0  0  0  0  0  0  0  0
   22.8503  -10.3246  -16.6571 C   0  0  0  0  0  0  0  0  0  0  0  0
   21.9747  -10.7547  -17.4454 O   0  0  0  0  0  0  0  0  0  0  0  0
   22.5257   -9.1520  -15.9226 N   0  0  0  0  0  0  0  0  0  0  0  0
   21.2291   -8.5486  -16.0975 C   0  0  1  0  0  0  0  0  0  0  0  0
   20.4359   -8.8017  -14.8414 C   0  0  0  0  0  0  0  0  0  0  0  0
   19.0448   -8.3421  -15.0601 C   0  0  0  0  0  0  0  0  0  0  0  0
   18.4572   -8.3389  -16.1726 O   0  0  0  0  0  0  0  0  0  0  0  0
   21.3304   -7.0643  -16.2275 C   0  0  0  0  0  0  0  0  0  0  0  0
   22.0535   -6.3483  -15.4934 O   0  0  0  0  0  0  0  0  0  0  0  0
   18.3210   -7.8763  -13.9630 O   0  0  0  0  0  0  0  0  0  0  0  0
   20.5668   -6.4417  -17.2348 N   0  0  0  0  0  0  0  0  0  0  0  0
   20.6692   -5.0188  -17.4806 C   0  0  1  0  0  0  0  0  0  0  0  0
   20.1283   -4.7634  -18.8704 C   0  0  0  0  0  0  0  0  0  0  0  0
   21.1395   -5.6601  -20.1027 S   0  0  0  0  0  0  0  0  0  0  0  0
   19.9221   -4.3016  -16.4415 C   0  0  0  0  0  0  0  0  0  0  0  0
   18.9836   -4.8665  -15.8409 O   0  0  0  0  0  0  0  0  0  0  0  0
   20.2492   -3.0040  -16.1214 O   0  0  0  0  0  0  0  0  0  0  0  0
  2  1  1  6
  2  9  1  0
  2  3  1  0
  4  3  1  0
  4  8  1  0
  5  6  1  0
  5  4  2  0
  6  7  1  0
  7  8  2  0
  9 10  2  0
 11 12  1  0
 11  9  1  0
 12 13  1  1
 13 14  1  0
 14 15  2  0
 14 18  1  0
 16 17  2  0
 16 12  1  0
 19 16  1  0
 20 19  1  0
 20 21  1  6
 21 22  1  0
 23 25  1  0
 23 20  1  0
 24 23  2  0
M  END
$$$$
