HDC.pdb
     RDKit          3D

 25 25  0  0  1  0  0  0  0  0999 V2000
   18.7612  -14.8293  -19.5674 N   0  0  0  0  0  0  0  0  0  0  0  0
   19.0997  -14.4026  -18.2041 C   0  0  1  0  0  0  0  0  0  0  0  0
   20.1644  -15.2626  -17.6207 C   0  0  0  0  0  0  0  0  0  0  0  0
   19.7146  -16.6474  -17.4625 C   0  0  0  0  0  0  0  0  0  0  0  0
   19.9874  -17.7370  -18.2492 C   0  0  0  0  0  0  0  0  0  0  0  0
   19.3235  -18.7900  -17.7059 N   0  0  0  0  0  0  0  0  0  0  0  0
   18.6573  -18.3733  -16.6158 C   0  0  0  0  0  0  0  0  0  0  0  0
   18.8931  -17.0725  -16.4659 N   0  0  0  0  0  0  0  0  0  0  0  0
   19.5540  -12.9925  -18.2353 C   0  0  0  0  0  0  0  0  0  0  0  0
   20.3383  -12.5174  -19.0909 O   0  0  0  0  0  0  0  0  0  0  0  0
   19.0821  -12.0980  -17.2368 N   0  0  0  0  0  0  0  0  0  0  0  0
   19.4559  -10.7081  -17.3041 C   0  0  1  0  0  0  0  0  0  0  0  0
   18.2106   -9.9161  -17.6089 C   0  0  0  0  0  0  0  0  0  0  0  0
   18.5844   -8.4921  -17.7730 C   0  0  0  0  0  0  0  0  0  0  0  0
   17.9955   -7.5278  -17.2197 O   0  0  0  0  0  0  0  0  0  0  0  0
   19.9470  -10.2102  -15.9846 C   0  0  0  0  0  0  0  0  0  0  0  0
   19.4325  -10.5269  -14.8849 O   0  0  0  0  0  0  0  0  0  0  0  0
   19.6653   -8.1819  -18.5976 O   0  0  0  0  0  0  0  0  0  0  0  0
   21.0516   -9.3353  -15.9849 N   0  0  0  0  0  0  0  0  0  0  0  0
   21.6548   -8.8902  -14.7466 C   0  0  1  0  0  0  0  0  0  0  0  0
   23.1468   -9.1092  -14.8700 C   0  0  0  0  0  0  0  0  0  0  0  0
   23.5279  -10.8895  -14.6954 S   0  0  0  0  0  0  0  0  0  0  0  0
   21.3053   -7.4825  -14.5263 C   0  0  0  0  0  0  0  0  0  0  0  0
   20.8064   -6.8079  -15.4518 O   0  0  0  0  0  0  0  0  0  0  0  0
   21.5241   -6.8961  -13.3009 O   0  0  0  0  0  0  0  0  0  0  0  0
  2  1  1  6
  2  9  1  0
  2  3  1  0
  4  3  1  0
  4  8  1  0
  5  6  1  0
  5  4  2  0
  6  7  1  0
  7  8  2  0
  9 10  2  0
 11 12  1  0
 11  9  1  0
 12 13  1  1
 13 14  1  0
 14 15  2  0
 14 18  1  0
 16 17  2  0
 16 12  1  0
 19 16  1  0
 20 19  1  0
 20 21  1  6
 21 22  1  0
 23 25  1  0
 23 20  1  0
 24 23  2  0
M  END
$$$$
