HDC.pdb
     RDKit          3D

 25 25  0  0  1  0  0  0  0  0999 V2000
   34.4846  -26.0962  -18.6117 N   0  0  0  0  0  0  0  0  0  0  0  0
   34.0123  -27.3141  -17.9417 C   0  0  1  0  0  0  0  0  0  0  0  0
   33.6456  -27.0407  -16.5259 C   0  0  0  0  0  0  0  0  0  0  0  0
   32.4860  -26.1512  -16.4299 C   0  0  0  0  0  0  0  0  0  0  0  0
   32.3876  -24.8250  -16.7645 C   0  0  0  0  0  0  0  0  0  0  0  0
   31.1188  -24.4391  -16.4717 N   0  0  0  0  0  0  0  0  0  0  0  0
   30.4456  -25.4885  -15.9705 C   0  0  0  0  0  0  0  0  0  0  0  0
   31.2737  -26.5295  -15.9440 N   0  0  0  0  0  0  0  0  0  0  0  0
   32.8369  -27.8450  -18.6713 C   0  0  0  0  0  0  0  0  0  0  0  0
   32.1877  -27.2064  -19.5336 O   0  0  0  0  0  0  0  0  0  0  0  0
   32.3958  -29.1667  -18.3912 N   0  0  0  0  0  0  0  0  0  0  0  0
   31.3229  -29.7303  -19.1705 C   0  0  1  0  0  0  0  0  0  0  0  0
   31.6847  -31.1610  -19.4755 C   0  0  0  0  0  0  0  0  0  0  0  0
   32.8656  -31.1697  -20.3699 C   0  0  0  0  0  0  0  0  0  0  0  0
   33.8593  -31.9298  -20.2379 O   0  0  0  0  0  0  0  0  0  0  0  0
   30.0512  -29.7853  -18.3896 C   0  0  0  0  0  0  0  0  0  0  0  0
   29.9916  -30.0993  -17.1762 O   0  0  0  0  0  0  0  0  0  0  0  0
   32.8924  -30.2761  -21.4401 O   0  0  0  0  0  0  0  0  0  0  0  0
   28.8554  -29.4647  -19.0624 N   0  0  0  0  0  0  0  0  0  0  0  0
   27.5919  -29.4080  -18.3582 C   0  0  1  0  0  0  0  0  0  0  0  0
   26.7309  -28.3827  -19.0631 C   0  0  0  0  0  0  0  0  0  0  0  0
   25.1830  -28.1231  -18.1241 S   0  0  0  0  0  0  0  0  0  0  0  0
   26.9898  -30.7458  -18.3531 C   0  0  0  0  0  0  0  0  0  0  0  0
   27.1419  -31.5058  -19.3327 O   0  0  0  0  0  0  0  0  0  0  0  0
   26.2545  -31.1722  -17.2711 O   0  0  0  0  0  0  0  0  0  0  0  0
  2  1  1  6
  2  9  1  0
  2  3  1  0
  4  3  1  0
  4  8  1  0
  5  6  1  0
  5  4  2  0
  6  7  1  0
  7  8  2  0
  9 10  2  0
 11 12  1  0
 11  9  1  0
 12 13  1  1
 13 14  1  0
 14 15  2  0
 14 18  1  0
 16 17  2  0
 16 12  1  0
 19 16  1  0
 20 19  1  0
 20 21  1  6
 21 22  1  0
 23 25  1  0
 23 20  1  0
 24 23  2  0
M  END
$$$$
