MFC.pdb
     RDKit          3D

 26 26  0  0  1  0  0  0  0  0999 V2000
   28.4079  -17.3029  -16.1320 C   0  0  0  0  0  0  0  0  0  0  0  0
   27.8800  -18.0910  -14.6357 S   0  0  0  0  0  0  0  0  0  0  0  0
   26.2544  -18.7891  -14.5928 C   0  0  0  0  0  0  0  0  0  0  0  0
   25.9399  -19.4878  -13.3118 C   0  0  0  0  0  0  0  0  0  0  0  0
   27.0429  -20.3664  -12.8531 C   0  0  2  0  0  0  0  0  0  0  0  0
   27.1555  -21.5156  -13.6939 N   0  0  0  0  0  0  0  0  0  0  0  0
   26.8213  -20.8409  -11.4410 C   0  0  0  0  0  0  0  0  0  0  0  0
   26.1473  -21.8701  -11.2616 O   0  0  0  0  0  0  0  0  0  0  0  0
   27.3852  -20.1014  -10.3851 N   0  0  0  0  0  0  0  0  0  0  0  0
   27.1211  -20.4569   -8.9755 C   0  0  1  0  0  0  0  0  0  0  0  0
   28.0197  -19.6172   -8.0947 C   0  0  0  0  0  0  0  0  0  0  0  0
   27.8720  -19.8249   -6.6542 C   0  0  0  0  0  0  0  0  0  0  0  0
   28.1772  -21.0100   -6.0107 C   0  0  0  0  0  0  0  0  0  0  0  0
   28.0607  -21.1781   -4.6422 C   0  0  0  0  0  0  0  0  0  0  0  0
   27.6213  -20.1179   -3.8884 C   0  0  0  0  0  0  0  0  0  0  0  0
   27.3052  -18.9236   -4.4685 C   0  0  0  0  0  0  0  0  0  0  0  0
   27.4296  -18.7841   -5.8265 C   0  0  0  0  0  0  0  0  0  0  0  0
   25.7002  -20.1652   -8.6928 C   0  0  0  0  0  0  0  0  0  0  0  0
   25.1924  -19.1193   -9.1749 O   0  0  0  0  0  0  0  0  0  0  0  0
   24.8712  -21.0035   -7.9086 N   0  0  0  0  0  0  0  0  0  0  0  0
   23.4412  -20.8873   -7.7894 C   0  0  1  0  0  0  0  0  0  0  0  0
   22.7941  -20.9312   -9.1341 C   0  0  0  0  0  0  0  0  0  0  0  0
   20.9757  -21.0196   -9.0009 S   0  0  0  0  0  0  0  0  0  0  0  0
   22.8641  -21.9008   -6.8426 C   0  0  0  0  0  0  0  0  0  0  0  0
   21.5844  -21.7223   -6.3731 O   0  0  0  0  0  0  0  0  0  0  0  0
   23.5478  -22.8994   -6.4886 O   0  0  0  0  0  0  0  0  0  0  0  0
  2  1  1  0
  3  2  1  0
  3  4  1  0
  4  5  1  0
  5  7  1  0
  5  6  1  6
  7  8  2  0
  9  7  1  0
  9 10  1  0
 10 11  1  1
 11 12  1  0
 12 17  2  0
 13 12  1  0
 13 14  2  0
 14 15  1  0
 15 16  2  0
 17 16  1  0
 18 20  1  0
 18 10  1  0
 19 18  2  0
 21 22  1  6
 21 20  1  0
 23 22  1  0
 24 21  1  0
 24 25  1  0
 26 24  2  0
M  END
$$$$
