MFC.pdb
     RDKit          3D

 26 26  0  0  1  0  0  0  0  0999 V2000
   27.1168  -16.4844  -14.7692 C   0  0  0  0  0  0  0  0  0  0  0  0
   28.5221  -17.4393  -15.2712 S   0  0  0  0  0  0  0  0  0  0  0  0
   29.1010  -18.7045  -14.1775 C   0  0  0  0  0  0  0  0  0  0  0  0
   28.0254  -19.2948  -13.3274 C   0  0  0  0  0  0  0  0  0  0  0  0
   28.5520  -20.2346  -12.3084 C   0  0  2  0  0  0  0  0  0  0  0  0
   29.1889  -21.3505  -12.9325 N   0  0  0  0  0  0  0  0  0  0  0  0
   27.4546  -20.7597  -11.4207 C   0  0  0  0  0  0  0  0  0  0  0  0
   26.9683  -21.8748  -11.6776 O   0  0  0  0  0  0  0  0  0  0  0  0
   27.0257  -19.9684  -10.3392 N   0  0  0  0  0  0  0  0  0  0  0  0
   25.8502  -20.3510   -9.5298 C   0  0  1  0  0  0  0  0  0  0  0  0
   25.8125  -19.4739   -8.2979 C   0  0  0  0  0  0  0  0  0  0  0  0
   26.7564  -19.8264   -7.2374 C   0  0  0  0  0  0  0  0  0  0  0  0
   27.0319  -21.1249   -6.8504 C   0  0  0  0  0  0  0  0  0  0  0  0
   27.9515  -21.4407   -5.8660 C   0  0  0  0  0  0  0  0  0  0  0  0
   28.6217  -20.4160   -5.2446 C   0  0  0  0  0  0  0  0  0  0  0  0
   28.3913  -19.1144   -5.5848 C   0  0  0  0  0  0  0  0  0  0  0  0
   27.4748  -18.8295   -6.5634 C   0  0  0  0  0  0  0  0  0  0  0  0
   24.6427  -20.1372  -10.3546 C   0  0  0  0  0  0  0  0  0  0  0  0
   24.5681  -19.0938  -11.0544 O   0  0  0  0  0  0  0  0  0  0  0  0
   23.5597  -21.0480  -10.4055 N   0  0  0  0  0  0  0  0  0  0  0  0
   22.4049  -20.9244  -11.2561 C   0  0  1  0  0  0  0  0  0  0  0  0
   22.6444  -21.5891  -12.5713 C   0  0  0  0  0  0  0  0  0  0  0  0
   23.2429  -23.3005  -12.3587 S   0  0  0  0  0  0  0  0  0  0  0  0
   21.1505  -21.4113  -10.5882 C   0  0  0  0  0  0  0  0  0  0  0  0
   21.2437  -22.0309   -9.3644 O   0  0  0  0  0  0  0  0  0  0  0  0
   20.0313  -21.2498  -11.1459 O   0  0  0  0  0  0  0  0  0  0  0  0
  2  1  1  0
  3  2  1  0
  3  4  1  0
  4  5  1  0
  5  7  1  0
  5  6  1  6
  7  8  2  0
  9  7  1  0
  9 10  1  0
 10 11  1  1
 11 12  1  0
 12 17  2  0
 13 12  1  0
 13 14  2  0
 14 15  1  0
 15 16  2  0
 17 16  1  0
 18 20  1  0
 18 10  1  0
 19 18  2  0
 21 22  1  6
 21 20  1  0
 23 22  1  0
 24 21  1  0
 24 25  1  0
 26 24  2  0
M  END
$$$$
