MFC.pdb
     RDKit          3D

 26 26  0  0  1  0  0  0  0  0999 V2000
   28.6557  -15.4390  -27.5455 C   0  0  0  0  0  0  0  0  0  0  0  0
   30.2473  -14.8852  -26.9989 S   0  0  0  0  0  0  0  0  0  0  0  0
   31.0507  -15.8017  -25.7157 C   0  0  0  0  0  0  0  0  0  0  0  0
   30.2223  -15.9523  -24.4832 C   0  0  0  0  0  0  0  0  0  0  0  0
   31.0126  -15.7906  -23.2389 C   0  0  2  0  0  0  0  0  0  0  0  0
   31.9287  -16.8747  -23.0786 N   0  0  0  0  0  0  0  0  0  0  0  0
   30.1258  -15.7449  -22.0225 C   0  0  0  0  0  0  0  0  0  0  0  0
   29.8280  -16.8164  -21.4667 O   0  0  0  0  0  0  0  0  0  0  0  0
   29.6718  -14.4938  -21.5660 N   0  0  0  0  0  0  0  0  0  0  0  0
   28.8399  -14.3787  -20.3503 C   0  0  1  0  0  0  0  0  0  0  0  0
   29.4396  -13.3125  -19.4602 C   0  0  0  0  0  0  0  0  0  0  0  0
   28.6534  -12.9536  -18.2800 C   0  0  0  0  0  0  0  0  0  0  0  0
   27.5853  -12.0759  -18.3026 C   0  0  0  0  0  0  0  0  0  0  0  0
   26.8334  -11.7722  -17.1815 C   0  0  0  0  0  0  0  0  0  0  0  0
   27.1639  -12.3709  -15.9909 C   0  0  0  0  0  0  0  0  0  0  0  0
   28.2082  -13.2458  -15.9078 C   0  0  0  0  0  0  0  0  0  0  0  0
   28.9367  -13.5289  -17.0339 C   0  0  0  0  0  0  0  0  0  0  0  0
   27.4753  -13.9960  -20.7690 C   0  0  0  0  0  0  0  0  0  0  0  0
   27.3409  -13.0692  -21.6099 O   0  0  0  0  0  0  0  0  0  0  0  0
   26.3031  -14.6199  -20.2775 N   0  0  0  0  0  0  0  0  0  0  0  0
   24.9545  -14.2438  -20.6129 C   0  0  1  0  0  0  0  0  0  0  0  0
   24.1524  -15.4427  -20.9979 C   0  0  0  0  0  0  0  0  0  0  0  0
   22.4261  -14.9971  -21.3900 S   0  0  0  0  0  0  0  0  0  0  0  0
   24.2994  -13.4416  -19.5248 C   0  0  0  0  0  0  0  0  0  0  0  0
   23.5430  -12.3458  -19.8670 O   0  0  0  0  0  0  0  0  0  0  0  0
   24.4435  -13.7744  -18.3172 O   0  0  0  0  0  0  0  0  0  0  0  0
  2  1  1  0
  3  2  1  0
  3  4  1  0
  4  5  1  0
  5  7  1  0
  5  6  1  1
  7  8  2  0
  9  7  1  0
  9 10  1  0
 10 11  1  1
 11 12  1  0
 12 17  2  0
 13 12  1  0
 13 14  2  0
 14 15  1  0
 15 16  2  0
 17 16  1  0
 18 20  1  0
 18 10  1  0
 19 18  2  0
 21 22  1  1
 21 20  1  0
 23 22  1  0
 24 21  1  0
 24 25  1  0
 26 24  2  0
M  END
$$$$
