MFC.pdb
     RDKit          3D

 26 26  0  0  1  0  0  0  0  0999 V2000
   30.1200  -22.9252  -20.6112 C   0  0  0  0  0  0  0  0  0  0  0  0
   28.9417  -21.6174  -20.8113 S   0  0  0  0  0  0  0  0  0  0  0  0
   28.4884  -20.6807  -19.3798 C   0  0  0  0  0  0  0  0  0  0  0  0
   27.6950  -21.4605  -18.3845 C   0  0  0  0  0  0  0  0  0  0  0  0
   28.4959  -21.8641  -17.2036 C   0  0  2  0  0  0  0  0  0  0  0  0
   29.2295  -23.0591  -17.4760 N   0  0  0  0  0  0  0  0  0  0  0  0
   27.6225  -22.1159  -16.0028 C   0  0  0  0  0  0  0  0  0  0  0  0
   27.0000  -23.1903  -15.9388 O   0  0  0  0  0  0  0  0  0  0  0  0
   27.5471  -21.1270  -15.0048 N   0  0  0  0  0  0  0  0  0  0  0  0
   26.7315  -21.3272  -13.7891 C   0  0  1  0  0  0  0  0  0  0  0  0
   27.2935  -20.4554  -12.6879 C   0  0  0  0  0  0  0  0  0  0  0  0
   26.5624  -20.4813  -11.4211 C   0  0  0  0  0  0  0  0  0  0  0  0
   26.8670  -21.3292  -10.3722 C   0  0  0  0  0  0  0  0  0  0  0  0
   26.1838  -21.3178   -9.1690 C   0  0  0  0  0  0  0  0  0  0  0  0
   25.1552  -20.4223   -9.0098 C   0  0  0  0  0  0  0  0  0  0  0  0
   24.8093  -19.5609  -10.0104 C   0  0  0  0  0  0  0  0  0  0  0  0
   25.5027  -19.5933  -11.1924 C   0  0  0  0  0  0  0  0  0  0  0  0
   25.3429  -20.9320  -14.1045 C   0  0  0  0  0  0  0  0  0  0  0  0
   25.1469  -19.8350  -14.6895 O   0  0  0  0  0  0  0  0  0  0  0  0
   24.2134  -21.7248  -13.7872 N   0  0  0  0  0  0  0  0  0  0  0  0
   22.8411  -21.3446  -13.9991 C   0  0  1  0  0  0  0  0  0  0  0  0
   22.1488  -22.3339  -14.8771 C   0  0  0  0  0  0  0  0  0  0  0  0
   22.4417  -24.0469  -14.3185 S   0  0  0  0  0  0  0  0  0  0  0  0
   22.1083  -21.1130  -12.7083 C   0  0  0  0  0  0  0  0  0  0  0  0
   20.8920  -20.4727  -12.7373 O   0  0  0  0  0  0  0  0  0  0  0  0
   22.6059  -21.5037  -11.6176 O   0  0  0  0  0  0  0  0  0  0  0  0
  2  1  1  0
  3  2  1  0
  3  4  1  0
  4  5  1  0
  5  7  1  0
  5  6  1  6
  7  8  2  0
  9  7  1  0
  9 10  1  0
 10 11  1  1
 11 12  1  0
 12 17  2  0
 13 12  1  0
 13 14  2  0
 14 15  1  0
 15 16  2  0
 17 16  1  0
 18 20  1  0
 18 10  1  0
 19 18  2  0
 21 22  1  1
 21 20  1  0
 23 22  1  0
 24 21  1  0
 24 25  1  0
 26 24  2  0
M  END
$$$$
