MFC.pdb
     RDKit          3D

 26 26  0  0  1  0  0  0  0  0999 V2000
   27.3762  -16.1560  -14.2600 C   0  0  0  0  0  0  0  0  0  0  0  0
   28.4912  -17.2886  -15.0429 S   0  0  0  0  0  0  0  0  0  0  0  0
   28.9664  -18.7395  -14.1481 C   0  0  0  0  0  0  0  0  0  0  0  0
   27.8688  -19.3106  -13.3132 C   0  0  0  0  0  0  0  0  0  0  0  0
   28.3511  -20.3365  -12.3572 C   0  0  2  0  0  0  0  0  0  0  0  0
   28.9150  -21.4492  -13.0531 N   0  0  0  0  0  0  0  0  0  0  0  0
   27.2348  -20.8482  -11.4853 C   0  0  0  0  0  0  0  0  0  0  0  0
   26.7487  -21.9637  -11.7402 O   0  0  0  0  0  0  0  0  0  0  0  0
   26.7890  -20.0443  -10.4200 N   0  0  0  0  0  0  0  0  0  0  0  0
   25.6114  -20.4266   -9.6137 C   0  0  1  0  0  0  0  0  0  0  0  0
   25.5577  -19.5340   -8.3935 C   0  0  0  0  0  0  0  0  0  0  0  0
   26.5742  -19.7903   -7.3732 C   0  0  0  0  0  0  0  0  0  0  0  0
   27.4953  -18.8504   -6.9491 C   0  0  0  0  0  0  0  0  0  0  0  0
   28.4297  -19.1014   -5.9599 C   0  0  0  0  0  0  0  0  0  0  0  0
   28.4424  -20.3423   -5.3723 C   0  0  0  0  0  0  0  0  0  0  0  0
   27.5572  -21.3101   -5.7500 C   0  0  0  0  0  0  0  0  0  0  0  0
   26.6419  -21.0349   -6.7326 C   0  0  0  0  0  0  0  0  0  0  0  0
   24.4077  -20.2339  -10.4492 C   0  0  0  0  0  0  0  0  0  0  0  0
   24.3241  -19.1950  -11.1548 O   0  0  0  0  0  0  0  0  0  0  0  0
   23.3380  -21.1601  -10.5043 N   0  0  0  0  0  0  0  0  0  0  0  0
   22.1870  -21.0552  -11.3625 C   0  0  1  0  0  0  0  0  0  0  0  0
   22.3677  -21.8832  -12.5916 C   0  0  0  0  0  0  0  0  0  0  0  0
   22.9882  -23.5525  -12.1905 S   0  0  0  0  0  0  0  0  0  0  0  0
   20.9078  -21.3721  -10.6413 C   0  0  0  0  0  0  0  0  0  0  0  0
   20.9684  -21.8413   -9.3505 O   0  0  0  0  0  0  0  0  0  0  0  0
   19.7979  -21.2066  -11.2163 O   0  0  0  0  0  0  0  0  0  0  0  0
  2  1  1  0
  3  2  1  0
  3  4  1  0
  4  5  1  0
  5  7  1  0
  5  6  1  6
  7  8  2  0
  9  7  1  0
  9 10  1  0
 10 11  1  1
 11 12  1  0
 12 17  2  0
 13 12  1  0
 13 14  2  0
 14 15  1  0
 15 16  2  0
 17 16  1  0
 18 20  1  0
 18 10  1  0
 19 18  2  0
 21 22  1  6
 21 20  1  0
 23 22  1  0
 24 21  1  0
 24 25  1  0
 26 24  2  0
M  END
$$$$
