MFC.pdb
     RDKit          3D

 26 26  0  0  1  0  0  0  0  0999 V2000
   20.3323  -15.7496  -19.6395 C   0  0  0  0  0  0  0  0  0  0  0  0
   21.5584  -14.7723  -20.4642 S   0  0  0  0  0  0  0  0  0  0  0  0
   21.4576  -13.0119  -20.3137 C   0  0  0  0  0  0  0  0  0  0  0  0
   21.5025  -12.5314  -18.9012 C   0  0  0  0  0  0  0  0  0  0  0  0
   22.7774  -11.8513  -18.5681 C   0  0  2  0  0  0  0  0  0  0  0  0
   23.8064  -12.8073  -18.3083 N   0  0  0  0  0  0  0  0  0  0  0  0
   22.6356  -10.9755  -17.3511 C   0  0  0  0  0  0  0  0  0  0  0  0
   22.3935  -11.5161  -16.2580 O   0  0  0  0  0  0  0  0  0  0  0  0
   22.7827   -9.5842  -17.5010 N   0  0  0  0  0  0  0  0  0  0  0  0
   22.7313   -8.6792  -16.3342 C   0  0  1  0  0  0  0  0  0  0  0  0
   24.0590   -7.9622  -16.2268 C   0  0  0  0  0  0  0  0  0  0  0  0
   25.2199   -8.8109  -15.9584 C   0  0  0  0  0  0  0  0  0  0  0  0
   25.3499   -9.6071  -14.8355 C   0  0  0  0  0  0  0  0  0  0  0  0
   26.4419  -10.4275  -14.6136 C   0  0  0  0  0  0  0  0  0  0  0  0
   27.4430  -10.4516  -15.5529 C   0  0  0  0  0  0  0  0  0  0  0  0
   27.3695   -9.6870  -16.6812 C   0  0  0  0  0  0  0  0  0  0  0  0
   26.2765   -8.8831  -16.8762 C   0  0  0  0  0  0  0  0  0  0  0  0
   21.6372   -7.7115  -16.5587 C   0  0  0  0  0  0  0  0  0  0  0  0
   21.6616   -7.0056  -17.6004 O   0  0  0  0  0  0  0  0  0  0  0  0
   20.5537   -7.5354  -15.6642 N   0  0  0  0  0  0  0  0  0  0  0  0
   19.4230   -6.6716  -15.8832 C   0  0  1  0  0  0  0  0  0  0  0  0
   18.1619   -7.3264  -15.4252 C   0  0  0  0  0  0  0  0  0  0  0  0
   18.0076   -9.0209  -16.0865 S   0  0  0  0  0  0  0  0  0  0  0  0
   19.6173   -5.3129  -15.2725 C   0  0  0  0  0  0  0  0  0  0  0  0
   18.6327   -4.3657  -15.4256 O   0  0  0  0  0  0  0  0  0  0  0  0
   20.6695   -5.0515  -14.6288 O   0  0  0  0  0  0  0  0  0  0  0  0
  2  1  1  0
  3  2  1  0
  3  4  1  0
  4  5  1  0
  5  7  1  0
  5  6  1  1
  7  8  2  0
  9  7  1  0
  9 10  1  0
 10 11  1  6
 11 12  1  0
 12 17  2  0
 13 12  1  0
 13 14  2  0
 14 15  1  0
 15 16  2  0
 17 16  1  0
 18 20  1  0
 18 10  1  0
 19 18  2  0
 21 22  1  1
 21 20  1  0
 23 22  1  0
 24 21  1  0
 24 25  1  0
 26 24  2  0
M  END
$$$$
