MFC.pdb
     RDKit          3D

 26 26  0  0  1  0  0  0  0  0999 V2000
   22.3926  -13.1341    8.5242 C   0  0  0  0  0  0  0  0  0  0  0  0
   21.8663  -11.4437    8.4600 S   0  0  0  0  0  0  0  0  0  0  0  0
   20.5312  -11.0294    7.3746 C   0  0  0  0  0  0  0  0  0  0  0  0
   19.5968  -12.1652    7.1194 C   0  0  0  0  0  0  0  0  0  0  0  0
   18.4316  -11.7727    6.2905 C   0  0  2  0  0  0  0  0  0  0  0  0
   17.5495  -10.9258    7.0288 N   0  0  0  0  0  0  0  0  0  0  0  0
   17.6493  -12.9750    5.8315 C   0  0  0  0  0  0  0  0  0  0  0  0
   16.6560  -13.3226    6.4935 O   0  0  0  0  0  0  0  0  0  0  0  0
   18.0739  -13.6539    4.6745 N   0  0  0  0  0  0  0  0  0  0  0  0
   17.3967  -14.8852    4.2179 C   0  0  1  0  0  0  0  0  0  0  0  0
   17.7945  -15.1447    2.7817 C   0  0  0  0  0  0  0  0  0  0  0  0
   17.3118  -16.3994    2.2051 C   0  0  0  0  0  0  0  0  0  0  0  0
   18.1305  -17.3363    1.6020 C   0  0  0  0  0  0  0  0  0  0  0  0
   17.6600  -18.5324    1.0898 C   0  0  0  0  0  0  0  0  0  0  0  0
   16.3169  -18.8011    1.1850 C   0  0  0  0  0  0  0  0  0  0  0  0
   15.4603  -17.9138    1.7698 C   0  0  0  0  0  0  0  0  0  0  0  0
   15.9529  -16.7361    2.2692 C   0  0  0  0  0  0  0  0  0  0  0  0
   17.8401  -15.9955    5.0865 C   0  0  0  0  0  0  0  0  0  0  0  0
   19.0740  -16.1569    5.2752 O   0  0  0  0  0  0  0  0  0  0  0  0
   16.9493  -16.8914    5.7260 N   0  0  0  0  0  0  0  0  0  0  0  0
   17.3343  -18.0654    6.4649 C   0  0  1  0  0  0  0  0  0  0  0  0
   17.2459  -17.8169    7.9344 C   0  0  0  0  0  0  0  0  0  0  0  0
   17.8680  -19.2397    8.8939 S   0  0  0  0  0  0  0  0  0  0  0  0
   16.5624  -19.2830    6.0424 C   0  0  0  0  0  0  0  0  0  0  0  0
   16.8700  -20.4975    6.6084 O   0  0  0  0  0  0  0  0  0  0  0  0
   15.6458  -19.1858    5.1821 O   0  0  0  0  0  0  0  0  0  0  0  0
  2  1  1  0
  3  2  1  0
  3  4  1  0
  4  5  1  0
  5  7  1  0
  5  6  1  1
  7  8  2  0
  9  7  1  0
  9 10  1  0
 10 11  1  6
 11 12  1  0
 12 17  2  0
 13 12  1  0
 13 14  2  0
 14 15  1  0
 15 16  2  0
 17 16  1  0
 18 20  1  0
 18 10  1  0
 19 18  2  0
 21 22  1  1
 21 20  1  0
 23 22  1  0
 24 21  1  0
 24 25  1  0
 26 24  2  0
M  END
$$$$
