MFC.pdb
     RDKit          3D

 26 26  0  0  1  0  0  0  0  0999 V2000
   13.8212  -11.2631  -19.0797 C   0  0  0  0  0  0  0  0  0  0  0  0
   14.8771  -12.6358  -19.4530 S   0  0  0  0  0  0  0  0  0  0  0  0
   16.2776  -12.9155  -18.4078 C   0  0  0  0  0  0  0  0  0  0  0  0
   16.5961  -11.7608  -17.5172 C   0  0  0  0  0  0  0  0  0  0  0  0
   17.7933  -12.0002  -16.6755 C   0  0  2  0  0  0  0  0  0  0  0  0
   17.5946  -13.1308  -15.8255 N   0  0  0  0  0  0  0  0  0  0  0  0
   18.1044  -10.8109  -15.8054 C   0  0  0  0  0  0  0  0  0  0  0  0
   17.4589  -10.6625  -14.7532 O   0  0  0  0  0  0  0  0  0  0  0  0
   19.1109   -9.9186  -16.2182 N   0  0  0  0  0  0  0  0  0  0  0  0
   19.4454   -8.7204  -15.4209 C   0  0  1  0  0  0  0  0  0  0  0  0
   20.9510   -8.5797  -15.3787 C   0  0  0  0  0  0  0  0  0  0  0  0
   21.4566   -7.3135  -14.8486 C   0  0  0  0  0  0  0  0  0  0  0  0
   21.4487   -6.9813  -13.5065 C   0  0  0  0  0  0  0  0  0  0  0  0
   21.9600   -5.7911  -13.0200 C   0  0  0  0  0  0  0  0  0  0  0  0
   22.5005   -4.8985  -13.9123 C   0  0  0  0  0  0  0  0  0  0  0  0
   22.5359   -5.1721  -15.2491 C   0  0  0  0  0  0  0  0  0  0  0  0
   22.0223   -6.3586  -15.7044 C   0  0  0  0  0  0  0  0  0  0  0  0
   18.8345   -7.5494  -16.0839 C   0  0  0  0  0  0  0  0  0  0  0  0
   18.9521   -7.4343  -17.3318 O   0  0  0  0  0  0  0  0  0  0  0  0
   18.1162   -6.5452  -15.3907 N   0  0  0  0  0  0  0  0  0  0  0  0
   17.6571   -5.3048  -15.9592 C   0  0  1  0  0  0  0  0  0  0  0  0
   16.1763   -5.1764  -15.8198 C   0  0  0  0  0  0  0  0  0  0  0  0
   15.5704   -3.6034  -16.5207 S   0  0  0  0  0  0  0  0  0  0  0  0
   18.3899   -4.1173  -15.4027 C   0  0  0  0  0  0  0  0  0  0  0  0
   18.8940   -3.1777  -16.2706 O   0  0  0  0  0  0  0  0  0  0  0  0
   18.5360   -3.9889  -14.1569 O   0  0  0  0  0  0  0  0  0  0  0  0
  2  1  1  0
  3  2  1  0
  3  4  1  0
  4  5  1  0
  5  7  1  0
  5  6  1  1
  7  8  2  0
  9  7  1  0
  9 10  1  0
 10 11  1  6
 11 12  1  0
 12 17  2  0
 13 12  1  0
 13 14  2  0
 14 15  1  0
 15 16  2  0
 17 16  1  0
 18 20  1  0
 18 10  1  0
 19 18  2  0
 21 22  1  1
 21 20  1  0
 23 22  1  0
 24 21  1  0
 24 25  1  0
 26 24  2  0
M  END
$$$$
