MFC.pdb
     RDKit          3D

 26 26  0  0  1  0  0  0  0  0999 V2000
   21.0101  -20.9037  -13.1844 C   0  0  0  0  0  0  0  0  0  0  0  0
   22.1517  -19.8807  -14.0727 S   0  0  0  0  0  0  0  0  0  0  0  0
   23.8820  -20.1716  -13.8418 C   0  0  0  0  0  0  0  0  0  0  0  0
   24.2317  -20.6194  -12.4615 C   0  0  0  0  0  0  0  0  0  0  0  0
   25.6957  -20.6891  -12.2359 C   0  0  2  0  0  0  0  0  0  0  0  0
   26.2925  -21.6632  -13.0933 N   0  0  0  0  0  0  0  0  0  0  0  0
   26.0189  -21.0595  -10.8123 C   0  0  0  0  0  0  0  0  0  0  0  0
   25.8789  -22.2444  -10.4628 O   0  0  0  0  0  0  0  0  0  0  0  0
   26.4651  -20.0512   -9.9382 N   0  0  0  0  0  0  0  0  0  0  0  0
   26.8120  -20.3540   -8.5343 C   0  0  1  0  0  0  0  0  0  0  0  0
   27.6630  -19.2241   -7.9980 C   0  0  0  0  0  0  0  0  0  0  0  0
   28.1426  -19.3856   -6.6255 C   0  0  0  0  0  0  0  0  0  0  0  0
   28.9538  -20.4251   -6.2094 C   0  0  0  0  0  0  0  0  0  0  0  0
   29.4235  -20.5444   -4.9134 C   0  0  0  0  0  0  0  0  0  0  0  0
   29.0669  -19.5852   -3.9979 C   0  0  0  0  0  0  0  0  0  0  0  0
   28.2684  -18.5360   -4.3510 C   0  0  0  0  0  0  0  0  0  0  0  0
   27.8169  -18.4420   -5.6419 C   0  0  0  0  0  0  0  0  0  0  0  0
   25.5523  -20.4615   -7.7690 C   0  0  0  0  0  0  0  0  0  0  0  0
   24.5806  -19.7346   -8.1029 O   0  0  0  0  0  0  0  0  0  0  0  0
   25.3743  -21.3448   -6.6767 N   0  0  0  0  0  0  0  0  0  0  0  0
   24.1923  -21.4338   -5.8597 C   0  0  1  0  0  0  0  0  0  0  0  0
   23.3749  -22.6233   -6.2416 C   0  0  0  0  0  0  0  0  0  0  0  0
   21.9363  -22.8312   -5.1372 S   0  0  0  0  0  0  0  0  0  0  0  0
   24.5108  -21.4049   -4.3919 C   0  0  0  0  0  0  0  0  0  0  0  0
   23.5633  -20.9362   -3.5128 O   0  0  0  0  0  0  0  0  0  0  0  0
   25.6318  -21.8074   -3.9781 O   0  0  0  0  0  0  0  0  0  0  0  0
  2  1  1  0
  3  2  1  0
  3  4  1  0
  4  5  1  0
  5  7  1  0
  5  6  1  6
  7  8  2  0
  9  7  1  0
  9 10  1  0
 10 11  1  1
 11 12  1  0
 12 17  2  0
 13 12  1  0
 13 14  2  0
 14 15  1  0
 15 16  2  0
 17 16  1  0
 18 20  1  0
 18 10  1  0
 19 18  2  0
 21 22  1  1
 21 20  1  0
 23 22  1  0
 24 21  1  0
 24 25  1  0
 26 24  2  0
M  END
$$$$
