MFC.pdb
     RDKit          3D

 26 26  0  0  1  0  0  0  0  0999 V2000
   31.3223  -24.0603  -16.8929 C   0  0  0  0  0  0  0  0  0  0  0  0
   30.5337  -23.0675  -18.1304 S   0  0  0  0  0  0  0  0  0  0  0  0
   28.7664  -22.9755  -18.1204 C   0  0  0  0  0  0  0  0  0  0  0  0
   28.1775  -22.9808  -16.7488 C   0  0  0  0  0  0  0  0  0  0  0  0
   27.3045  -21.8092  -16.4960 C   0  0  2  0  0  0  0  0  0  0  0  0
   28.0727  -20.6054  -16.4623 N   0  0  0  0  0  0  0  0  0  0  0  0
   26.5760  -21.9351  -15.1839 C   0  0  0  0  0  0  0  0  0  0  0  0
   26.4602  -23.0646  -14.6774 O   0  0  0  0  0  0  0  0  0  0  0  0
   26.0574  -20.7715  -14.5865 N   0  0  0  0  0  0  0  0  0  0  0  0
   25.2719  -20.8379  -13.3368 C   0  0  1  0  0  0  0  0  0  0  0  0
   25.8823  -19.8803  -12.3374 C   0  0  0  0  0  0  0  0  0  0  0  0
   27.0621  -20.3711  -11.6253 C   0  0  0  0  0  0  0  0  0  0  0  0
   28.3435  -20.3420  -12.1441 C   0  0  0  0  0  0  0  0  0  0  0  0
   29.4522  -20.7823  -11.4431 C   0  0  0  0  0  0  0  0  0  0  0  0
   29.2710  -21.2710  -10.1729 C   0  0  0  0  0  0  0  0  0  0  0  0
   28.0293  -21.3242   -9.6086 C   0  0  0  0  0  0  0  0  0  0  0  0
   26.9478  -20.8815  -10.3251 C   0  0  0  0  0  0  0  0  0  0  0  0
   23.8836  -20.4415  -13.6522 C   0  0  0  0  0  0  0  0  0  0  0  0
   23.6872  -19.3362  -14.2212 O   0  0  0  0  0  0  0  0  0  0  0  0
   22.7548  -21.2420  -13.3521 N   0  0  0  0  0  0  0  0  0  0  0  0
   21.3863  -20.8927  -13.6309 C   0  0  1  0  0  0  0  0  0  0  0  0
   20.7087  -21.9818  -14.3949 C   0  0  0  0  0  0  0  0  0  0  0  0
   20.6594  -23.5385  -13.4428 S   0  0  0  0  0  0  0  0  0  0  0  0
   20.6321  -20.5089  -12.3898 C   0  0  0  0  0  0  0  0  0  0  0  0
   21.2504  -20.6331  -11.1681 O   0  0  0  0  0  0  0  0  0  0  0  0
   19.4501  -20.0782  -12.4737 O   0  0  0  0  0  0  0  0  0  0  0  0
  2  1  1  0
  3  2  1  0
  3  4  1  0
  4  5  1  0
  5  7  1  0
  5  6  1  1
  7  8  2  0
  9  7  1  0
  9 10  1  0
 10 11  1  1
 11 12  1  0
 12 17  2  0
 13 12  1  0
 13 14  2  0
 14 15  1  0
 15 16  2  0
 17 16  1  0
 18 20  1  0
 18 10  1  0
 19 18  2  0
 21 22  1  1
 21 20  1  0
 23 22  1  0
 24 21  1  0
 24 25  1  0
 26 24  2  0
M  END
$$$$
