MFC.pdb
     RDKit          3D

 26 26  0  0  1  0  0  0  0  0999 V2000
   23.5905  -16.6719  -18.0207 C   0  0  0  0  0  0  0  0  0  0  0  0
   25.1403  -16.9004  -18.8483 S   0  0  0  0  0  0  0  0  0  0  0  0
   26.4029  -17.8150  -18.0108 C   0  0  0  0  0  0  0  0  0  0  0  0
   25.8691  -18.8143  -17.0388 C   0  0  0  0  0  0  0  0  0  0  0  0
   26.9343  -19.4427  -16.2207 C   0  0  2  0  0  0  0  0  0  0  0  0
   27.8031  -20.2269  -17.0396 N   0  0  0  0  0  0  0  0  0  0  0  0
   26.3582  -20.3405  -15.1577 C   0  0  0  0  0  0  0  0  0  0  0  0
   26.1931  -21.5435  -15.4249 O   0  0  0  0  0  0  0  0  0  0  0  0
   26.0311  -19.7820  -13.9083 N   0  0  0  0  0  0  0  0  0  0  0  0
   25.4933  -20.6168  -12.8142 C   0  0  1  0  0  0  0  0  0  0  0  0
   26.1647  -20.2031  -11.5233 C   0  0  0  0  0  0  0  0  0  0  0  0
   27.5846  -20.5364  -11.4100 C   0  0  0  0  0  0  0  0  0  0  0  0
   28.0687  -21.6144  -10.6921 C   0  0  0  0  0  0  0  0  0  0  0  0
   29.4136  -21.9324  -10.6220 C   0  0  0  0  0  0  0  0  0  0  0  0
   30.3088  -21.1400  -11.2971 C   0  0  0  0  0  0  0  0  0  0  0  0
   29.8892  -20.0625  -12.0223 C   0  0  0  0  0  0  0  0  0  0  0  0
   28.5511  -19.7698  -12.0749 C   0  0  0  0  0  0  0  0  0  0  0  0
   24.0363  -20.3813  -12.7384 C   0  0  0  0  0  0  0  0  0  0  0  0
   23.6273  -19.2404  -12.3990 O   0  0  0  0  0  0  0  0  0  0  0  0
   23.0681  -21.3720  -13.0318 N   0  0  0  0  0  0  0  0  0  0  0  0
   21.6578  -21.1366  -13.1994 C   0  0  1  0  0  0  0  0  0  0  0  0
   21.4197  -20.0174  -14.1584 C   0  0  0  0  0  0  0  0  0  0  0  0
   20.1937  -20.4743  -15.4314 S   0  0  0  0  0  0  0  0  0  0  0  0
   20.9130  -22.3847  -13.5793 C   0  0  0  0  0  0  0  0  0  0  0  0
   19.5825  -22.4937  -13.2506 O   0  0  0  0  0  0  0  0  0  0  0  0
   21.5045  -23.3145  -14.1920 O   0  0  0  0  0  0  0  0  0  0  0  0
  2  1  1  0
  3  2  1  0
  3  4  1  0
  4  5  1  0
  5  7  1  0
  5  6  1  6
  7  8  2  0
  9  7  1  0
  9 10  1  0
 10 11  1  1
 11 12  1  0
 12 17  2  0
 13 12  1  0
 13 14  2  0
 14 15  1  0
 15 16  2  0
 17 16  1  0
 18 20  1  0
 18 10  1  0
 19 18  2  0
 21 22  1  6
 21 20  1  0
 23 22  1  0
 24 21  1  0
 24 25  1  0
 26 24  2  0
M  END
$$$$
