MFC.pdb
     RDKit          3D

 26 26  0  0  1  0  0  0  0  0999 V2000
   25.1849  -17.3641  -16.2938 C   0  0  0  0  0  0  0  0  0  0  0  0
   25.1665  -18.1698  -17.8716 S   0  0  0  0  0  0  0  0  0  0  0  0
   25.4229  -19.9203  -17.9140 C   0  0  0  0  0  0  0  0  0  0  0  0
   25.3796  -20.5614  -16.5667 C   0  0  0  0  0  0  0  0  0  0  0  0
   26.7281  -20.8956  -16.0481 C   0  0  2  0  0  0  0  0  0  0  0  0
   27.2977  -21.9790  -16.7844 N   0  0  0  0  0  0  0  0  0  0  0  0
   26.6796  -21.2923  -14.5961 C   0  0  0  0  0  0  0  0  0  0  0  0
   26.1648  -22.3840  -14.2978 O   0  0  0  0  0  0  0  0  0  0  0  0
   27.2179  -20.4129  -13.6387 N   0  0  0  0  0  0  0  0  0  0  0  0
   27.0800  -20.6792  -12.1919 C   0  0  1  0  0  0  0  0  0  0  0  0
   28.0732  -19.8125  -11.4498 C   0  0  0  0  0  0  0  0  0  0  0  0
   28.0092  -19.8796   -9.9899 C   0  0  0  0  0  0  0  0  0  0  0  0
   27.2383  -19.0353   -9.2122 C   0  0  0  0  0  0  0  0  0  0  0  0
   27.1661  -19.1339   -7.8339 C   0  0  0  0  0  0  0  0  0  0  0  0
   27.8943  -20.1164   -7.2098 C   0  0  0  0  0  0  0  0  0  0  0  0
   28.6731  -20.9789   -7.9255 C   0  0  0  0  0  0  0  0  0  0  0  0
   28.7267  -20.8591   -9.2900 C   0  0  0  0  0  0  0  0  0  0  0  0
   25.6977  -20.3363  -11.7974 C   0  0  0  0  0  0  0  0  0  0  0  0
   25.0553  -19.5164  -12.5041 O   0  0  0  0  0  0  0  0  0  0  0  0
   25.0494  -20.8847  -10.6643 N   0  0  0  0  0  0  0  0  0  0  0  0
   23.6411  -20.7891  -10.3811 C   0  0  1  0  0  0  0  0  0  0  0  0
   22.8391  -21.4116  -11.4758 C   0  0  0  0  0  0  0  0  0  0  0  0
   21.0676  -21.4979  -11.0436 S   0  0  0  0  0  0  0  0  0  0  0  0
   23.2929  -21.3438   -9.0292 C   0  0  0  0  0  0  0  0  0  0  0  0
   22.2650  -20.7715   -8.3178 O   0  0  0  0  0  0  0  0  0  0  0  0
   23.9364  -22.3213   -8.5599 O   0  0  0  0  0  0  0  0  0  0  0  0
  2  1  1  0
  3  2  1  0
  3  4  1  0
  4  5  1  0
  5  7  1  0
  5  6  1  6
  7  8  2  0
  9  7  1  0
  9 10  1  0
 10 11  1  1
 11 12  1  0
 12 17  2  0
 13 12  1  0
 13 14  2  0
 14 15  1  0
 15 16  2  0
 17 16  1  0
 18 20  1  0
 18 10  1  0
 19 18  2  0
 21 22  1  6
 21 20  1  0
 23 22  1  0
 24 21  1  0
 24 25  1  0
 26 24  2  0
M  END
$$$$
