MFC.pdb
     RDKit          3D

 26 26  0  0  1  0  0  0  0  0999 V2000
   28.9182  -21.9946   -8.7357 C   0  0  0  0  0  0  0  0  0  0  0  0
   30.2995  -21.8686   -9.8380 S   0  0  0  0  0  0  0  0  0  0  0  0
   29.9803  -21.4383  -11.5247 C   0  0  0  0  0  0  0  0  0  0  0  0
   28.6684  -20.7558  -11.7272 C   0  0  0  0  0  0  0  0  0  0  0  0
   28.2896  -20.6562  -13.1574 C   0  0  2  0  0  0  0  0  0  0  0  0
   29.2748  -19.9267  -13.8907 N   0  0  0  0  0  0  0  0  0  0  0  0
   26.9663  -19.9586  -13.3319 C   0  0  0  0  0  0  0  0  0  0  0  0
   26.9044  -18.7395  -13.0958 O   0  0  0  0  0  0  0  0  0  0  0  0
   25.8567  -20.7139  -13.7540 N   0  0  0  0  0  0  0  0  0  0  0  0
   24.5506  -20.0744  -14.0152 C   0  0  1  0  0  0  0  0  0  0  0  0
   24.1698  -20.3367  -15.4556 C   0  0  0  0  0  0  0  0  0  0  0  0
   22.8410  -19.8746  -15.8562 C   0  0  0  0  0  0  0  0  0  0  0  0
   22.5266  -18.5508  -16.1021 C   0  0  0  0  0  0  0  0  0  0  0  0
   21.2714  -18.1359  -16.5107 C   0  0  0  0  0  0  0  0  0  0  0  0
   20.2925  -19.0837  -16.6796 C   0  0  0  0  0  0  0  0  0  0  0  0
   20.5444  -20.4057  -16.4518 C   0  0  0  0  0  0  0  0  0  0  0  0
   21.7968  -20.7895  -16.0476 C   0  0  0  0  0  0  0  0  0  0  0  0
   23.5593  -20.6773  -13.0998 C   0  0  0  0  0  0  0  0  0  0  0  0
   23.5756  -21.9244  -12.9310 O   0  0  0  0  0  0  0  0  0  0  0  0
   22.5886  -19.9258  -12.3942 N   0  0  0  0  0  0  0  0  0  0  0  0
   21.5525  -20.4757  -11.5596 C   0  0  1  0  0  0  0  0  0  0  0  0
   21.4812  -19.7480  -10.2580 C   0  0  0  0  0  0  0  0  0  0  0  0
   20.1120  -20.3637   -9.2194 S   0  0  0  0  0  0  0  0  0  0  0  0
   20.2246  -20.5282  -12.2600 C   0  0  0  0  0  0  0  0  0  0  0  0
   19.4557  -21.6624  -12.1480 O   0  0  0  0  0  0  0  0  0  0  0  0
   19.8258  -19.5427  -12.9379 O   0  0  0  0  0  0  0  0  0  0  0  0
  2  1  1  0
  3  2  1  0
  3  4  1  0
  4  5  1  0
  5  7  1  0
  5  6  1  6
  7  8  2  0
  9  7  1  0
  9 10  1  0
 10 11  1  6
 11 12  1  0
 12 17  2  0
 13 12  1  0
 13 14  2  0
 14 15  1  0
 15 16  2  0
 17 16  1  0
 18 20  1  0
 18 10  1  0
 19 18  2  0
 21 22  1  1
 21 20  1  0
 23 22  1  0
 24 21  1  0
 24 25  1  0
 26 24  2  0
M  END
$$$$
