IHN.pdb
     RDKit          3D

 27 27  0  0  1  0  0  0  0  0999 V2000
    6.2624  -11.7310   27.4189 C   0  0  0  0  0  0  0  0  0  0  0  0
    5.7623  -12.7700   26.4544 C   0  0  0  0  0  0  0  0  0  0  0  0
    6.9118  -13.5774   25.8925 C   0  0  2  0  0  0  0  0  0  0  0  0
    7.8062  -12.6141   25.1114 C   0  0  0  0  0  0  0  0  0  0  0  0
    6.3432  -14.6119   24.9653 C   0  0  2  0  0  0  0  0  0  0  0  0
    5.4079  -15.4533   25.6637 N   0  0  0  0  0  0  0  0  0  0  0  0
    7.4232  -15.3832   24.3121 C   0  0  0  0  0  0  0  0  0  0  0  0
    7.7131  -16.5560   24.6788 O   0  0  0  0  0  0  0  0  0  0  0  0
    8.1591  -14.8288   23.2634 N   0  0  0  0  0  0  0  0  0  0  0  0
    9.0825  -15.6685   22.4042 C   0  0  1  0  0  0  0  0  0  0  0  0
    9.3701  -14.7563   21.2693 C   0  0  0  0  0  0  0  0  0  0  0  0
    8.3415  -14.5008   20.2737 C   0  0  0  0  0  0  0  0  0  0  0  0
    7.0822  -14.9295   20.0304 C   0  0  0  0  0  0  0  0  0  0  0  0
    6.5593  -14.2826   18.9561 N   0  0  0  0  0  0  0  0  0  0  0  0
    7.5026  -13.4463   18.5327 C   0  0  0  0  0  0  0  0  0  0  0  0
    8.5735  -13.5555   19.2990 N   0  0  0  0  0  0  0  0  0  0  0  0
   10.2979  -15.7297   23.2916 C   0  0  0  0  0  0  0  0  0  0  0  0
   10.2363  -15.1178   24.4218 O   0  0  0  0  0  0  0  0  0  0  0  0
   11.7394  -18.0745   26.9025 N   0  0  0  0  0  0  0  0  0  0  0  0
   10.8139  -18.2473   25.8338 C   0  0  0  0  0  0  0  0  0  0  0  0
    9.5986  -18.3564   26.1310 O   0  0  0  0  0  0  0  0  0  0  0  0
   11.2246  -18.2991   24.4305 C   0  0  0  0  0  0  0  0  0  0  0  0
   12.1827  -17.1938   24.0361 C   0  0  2  0  0  0  0  0  0  0  0  0
   11.4940  -16.3925   23.0110 N   0  0  0  0  0  0  0  0  0  0  0  0
   13.4370  -17.7253   23.4865 C   0  0  0  0  0  0  0  0  0  0  0  0
   13.4493  -18.2287   22.3472 O   0  0  0  0  0  0  0  0  0  0  0  0
   14.6007  -17.6742   24.2172 O   0  0  0  0  0  0  0  0  0  0  0  0
  2  1  1  0
  3  2  1  0
  3  4  1  6
  5  6  1  1
  5  3  1  0
  7  5  1  0
  8  7  2  0
  9  7  1  0
 10  9  1  0
 11 12  1  0
 10 11  1  6
 12 16  1  0
 13 14  1  0
 13 12  2  0
 14 15  1  0
 15 16  2  0
 17 10  1  0
 17 18  2  0
 20 22  1  0
 20 19  1  0
 21 20  2  0
 23 22  1  6
 23 24  1  0
 24 17  1  0
 25 23  1  0
 26 25  2  0
 27 25  1  0
M  END
$$$$
