IHN.pdb
     RDKit          3D

 27 27  0  0  1  0  0  0  0  0999 V2000
    7.3813  -11.4205   19.7429 C   0  0  0  0  0  0  0  0  0  0  0  0
    7.7246  -12.4210   18.6747 C   0  0  0  0  0  0  0  0  0  0  0  0
    8.4766  -13.5953   19.2616 C   0  0  2  0  0  0  0  0  0  0  0  0
    9.7725  -13.0513   19.8641 C   0  0  0  0  0  0  0  0  0  0  0  0
    8.7929  -14.5486   18.1461 C   0  0  2  0  0  0  0  0  0  0  0  0
    7.5847  -14.9732   17.4899 N   0  0  0  0  0  0  0  0  0  0  0  0
    9.6012  -15.6852   18.6389 C   0  0  0  0  0  0  0  0  0  0  0  0
    9.0629  -16.7112   19.1404 O   0  0  0  0  0  0  0  0  0  0  0  0
   10.9947  -15.6526   18.5633 N   0  0  0  0  0  0  0  0  0  0  0  0
   11.8454  -16.8331   18.9863 C   0  0  1  0  0  0  0  0  0  0  0  0
   12.9545  -16.7889   18.0011 C   0  0  0  0  0  0  0  0  0  0  0  0
   12.8421  -17.5346   16.7578 C   0  0  0  0  0  0  0  0  0  0  0  0
   12.2374  -18.6719   16.3461 C   0  0  0  0  0  0  0  0  0  0  0  0
   12.4307  -18.8574   15.0141 N   0  0  0  0  0  0  0  0  0  0  0  0
   13.1599  -17.8257   14.5989 C   0  0  0  0  0  0  0  0  0  0  0  0
   13.4186  -17.0231   15.6161 N   0  0  0  0  0  0  0  0  0  0  0  0
   12.3596  -16.3361   20.3118 C   0  0  0  0  0  0  0  0  0  0  0  0
   12.7581  -15.1141   20.3708 O   0  0  0  0  0  0  0  0  0  0  0  0
   13.6263  -15.9153   25.4521 N   0  0  0  0  0  0  0  0  0  0  0  0
   12.5187  -16.7752   25.2023 C   0  0  0  0  0  0  0  0  0  0  0  0
   11.9372  -17.2756   26.1965 O   0  0  0  0  0  0  0  0  0  0  0  0
   12.0456  -17.0864   23.8531 C   0  0  0  0  0  0  0  0  0  0  0  0
   12.8718  -16.4462   22.7564 C   0  0  2  0  0  0  0  0  0  0  0  0
   12.4446  -17.0727   21.4945 N   0  0  0  0  0  0  0  0  0  0  0  0
   14.3106  -16.6662   22.9541 C   0  0  0  0  0  0  0  0  0  0  0  0
   14.8757  -17.6173   22.3820 O   0  0  0  0  0  0  0  0  0  0  0  0
   15.0428  -15.8325   23.7663 O   0  0  0  0  0  0  0  0  0  0  0  0
  2  1  1  0
  3  2  1  0
  3  4  1  6
  5  6  1  1
  5  3  1  0
  7  5  1  0
  8  7  2  0
  9  7  1  0
 10  9  1  0
 11 12  1  0
 10 11  1  6
 12 16  1  0
 13 14  1  0
 13 12  2  0
 14 15  1  0
 15 16  2  0
 17 10  1  0
 17 18  2  0
 20 22  1  0
 20 19  1  0
 21 20  2  0
 23 22  1  1
 23 24  1  0
 24 17  1  0
 25 23  1  0
 26 25  2  0
 27 25  1  0
M  END
$$$$
