IHN.pdb
     RDKit          3D

 27 27  0  0  1  0  0  0  0  0999 V2000
    8.3494  -15.2323   16.6331 C   0  0  0  0  0  0  0  0  0  0  0  0
    7.7660  -14.3560   17.7063 C   0  0  0  0  0  0  0  0  0  0  0  0
    8.4941  -14.5569   19.0172 C   0  0  2  0  0  0  0  0  0  0  0  0
    8.3914  -16.0405   19.3728 C   0  0  0  0  0  0  0  0  0  0  0  0
    7.8027  -13.7319   20.0635 C   0  0  2  0  0  0  0  0  0  0  0  0
    7.7670  -12.3482   19.6703 N   0  0  0  0  0  0  0  0  0  0  0  0
    8.4297  -13.9300   21.3885 C   0  0  0  0  0  0  0  0  0  0  0  0
    9.5263  -13.3816   21.6898 O   0  0  0  0  0  0  0  0  0  0  0  0
    7.8205  -14.7379   22.3501 N   0  0  0  0  0  0  0  0  0  0  0  0
    8.4409  -14.9622   23.7143 C   0  0  1  0  0  0  0  0  0  0  0  0
    7.2681  -14.8401   24.6157 C   0  0  0  0  0  0  0  0  0  0  0  0
    6.9360  -13.5472   25.1923 C   0  0  0  0  0  0  0  0  0  0  0  0
    7.4239  -12.2878   25.1257 C   0  0  0  0  0  0  0  0  0  0  0  0
    6.6504  -11.4396   25.8526 N   0  0  0  0  0  0  0  0  0  0  0  0
    5.6758  -12.1806   26.3716 C   0  0  0  0  0  0  0  0  0  0  0  0
    5.8215  -13.4385   25.9945 N   0  0  0  0  0  0  0  0  0  0  0  0
    8.8148  -16.4173   23.6064 C   0  0  0  0  0  0  0  0  0  0  0  0
    8.6315  -16.9923   22.4701 O   0  0  0  0  0  0  0  0  0  0  0  0
   13.3764  -18.0340   22.4298 N   0  0  0  0  0  0  0  0  0  0  0  0
   12.9469  -17.5834   23.7109 C   0  0  0  0  0  0  0  0  0  0  0  0
   13.7480  -17.7119   24.6694 O   0  0  0  0  0  0  0  0  0  0  0  0
   11.6308  -16.9869   23.9408 C   0  0  0  0  0  0  0  0  0  0  0  0
   10.5901  -17.9769   24.4226 C   0  0  2  0  0  0  0  0  0  0  0  0
    9.3488  -17.2111   24.6228 N   0  0  0  0  0  0  0  0  0  0  0  0
   10.9845  -18.6164   25.6849 C   0  0  0  0  0  0  0  0  0  0  0  0
   11.0224  -17.9451   26.7334 O   0  0  0  0  0  0  0  0  0  0  0  0
   11.3138  -19.9508   25.7226 O   0  0  0  0  0  0  0  0  0  0  0  0
  2  1  1  0
  3  2  1  0
  3  4  1  1
  5  6  1  6
  5  3  1  0
  7  5  1  0
  8  7  2  0
  9  7  1  0
 10  9  1  0
 11 12  1  0
 10 11  1  1
 12 16  1  0
 13 14  1  0
 13 12  2  0
 14 15  1  0
 15 16  2  0
 17 10  1  0
 17 18  2  0
 20 22  1  0
 20 19  1  0
 21 20  2  0
 23 22  1  1
 23 24  1  0
 24 17  1  0
 25 23  1  0
 26 25  2  0
 27 25  1  0
M  END
$$$$
