IHN.pdb
     RDKit          3D

 27 27  0  0  1  0  0  0  0  0999 V2000
    7.2481  -11.6736   27.9019 C   0  0  0  0  0  0  0  0  0  0  0  0
    6.3462  -12.5972   27.1316 C   0  0  0  0  0  0  0  0  0  0  0  0
    7.1465  -13.4531   26.1745 C   0  0  2  0  0  0  0  0  0  0  0  0
    7.8335  -12.5104   25.1858 C   0  0  0  0  0  0  0  0  0  0  0  0
    6.1906  -14.3508   25.4439 C   0  0  2  0  0  0  0  0  0  0  0  0
    5.5482  -15.2541   26.3615 N   0  0  0  0  0  0  0  0  0  0  0  0
    6.8728  -15.0556   24.3368 C   0  0  0  0  0  0  0  0  0  0  0  0
    7.3465  -16.2166   24.4843 O   0  0  0  0  0  0  0  0  0  0  0  0
    7.0138  -14.4493   23.0874 N   0  0  0  0  0  0  0  0  0  0  0  0
    7.5317  -15.2107   21.8839 C   0  0  1  0  0  0  0  0  0  0  0  0
    7.4642  -14.1861   20.8123 C   0  0  0  0  0  0  0  0  0  0  0  0
    7.9867  -14.4927   19.4904 C   0  0  0  0  0  0  0  0  0  0  0  0
    8.6255  -15.5300   18.9033 C   0  0  0  0  0  0  0  0  0  0  0  0
    8.8243  -15.2795   17.5827 N   0  0  0  0  0  0  0  0  0  0  0  0
    8.3030  -14.0782   17.3515 C   0  0  0  0  0  0  0  0  0  0  0  0
    7.7976  -13.5875   18.4695 N   0  0  0  0  0  0  0  0  0  0  0  0
    8.9727  -15.3974   22.2804 C   0  0  0  0  0  0  0  0  0  0  0  0
    9.5510  -14.4200   22.8851 O   0  0  0  0  0  0  0  0  0  0  0  0
   11.4621  -16.9944   25.5735 N   0  0  0  0  0  0  0  0  0  0  0  0
   10.8853  -17.8248   24.5703 C   0  0  0  0  0  0  0  0  0  0  0  0
    9.9094  -18.5423   24.9019 O   0  0  0  0  0  0  0  0  0  0  0  0
   11.3818  -17.8667   23.1946 C   0  0  0  0  0  0  0  0  0  0  0  0
   11.1735  -16.5736   22.4333 C   0  0  2  0  0  0  0  0  0  0  0  0
    9.7500  -16.5356   22.0597 N   0  0  0  0  0  0  0  0  0  0  0  0
   12.0032  -16.5101   21.2227 C   0  0  0  0  0  0  0  0  0  0  0  0
   11.6173  -17.0675   20.1779 O   0  0  0  0  0  0  0  0  0  0  0  0
   13.2045  -15.8411   21.2298 O   0  0  0  0  0  0  0  0  0  0  0  0
  2  1  1  0
  3  2  1  0
  3  4  1  6
  5  6  1  1
  5  3  1  0
  7  5  1  0
  8  7  2  0
  9  7  1  0
 10  9  1  0
 11 12  1  0
 10 11  1  6
 12 16  1  0
 13 14  1  0
 13 12  2  0
 14 15  1  0
 15 16  2  0
 17 10  1  0
 17 18  2  0
 20 22  1  0
 20 19  1  0
 21 20  2  0
 23 22  1  6
 23 24  1  0
 24 17  1  0
 25 23  1  0
 26 25  2  0
 27 25  1  0
M  END
$$$$
