IHN.pdb
     RDKit          3D

 27 27  0  0  1  0  0  0  0  0999 V2000
    7.0631  -11.1859   27.8248 C   0  0  0  0  0  0  0  0  0  0  0  0
    6.3236  -12.0036   26.8028 C   0  0  0  0  0  0  0  0  0  0  0  0
    7.1540  -13.1889   26.3618 C   0  0  2  0  0  0  0  0  0  0  0  0
    8.4562  -12.6408   25.7771 C   0  0  0  0  0  0  0  0  0  0  0  0
    6.3874  -13.9240   25.3010 C   0  0  2  0  0  0  0  0  0  0  0  0
    5.1381  -14.4068   25.8269 N   0  0  0  0  0  0  0  0  0  0  0  0
    7.2095  -15.0022   24.7098 C   0  0  0  0  0  0  0  0  0  0  0  0
    7.1501  -16.1888   25.1369 O   0  0  0  0  0  0  0  0  0  0  0  0
    8.0828  -14.7336   23.6544 N   0  0  0  0  0  0  0  0  0  0  0  0
    8.7290  -15.8433   22.8501 C   0  0  1  0  0  0  0  0  0  0  0  0
    9.2808  -15.1061   21.6861 C   0  0  0  0  0  0  0  0  0  0  0  0
    8.3842  -14.6347   20.6428 C   0  0  0  0  0  0  0  0  0  0  0  0
    7.0547  -14.6741   20.3990 C   0  0  0  0  0  0  0  0  0  0  0  0
    6.7603  -13.9948   19.2597 N   0  0  0  0  0  0  0  0  0  0  0  0
    7.9172  -13.5308   18.7963 C   0  0  0  0  0  0  0  0  0  0  0  0
    8.8998  -13.8968   19.6002 N   0  0  0  0  0  0  0  0  0  0  0  0
    9.8654  -16.2158   23.7658 C   0  0  0  0  0  0  0  0  0  0  0  0
   10.4867  -15.2570   24.3575 O   0  0  0  0  0  0  0  0  0  0  0  0
   11.2475  -19.2741   28.1471 N   0  0  0  0  0  0  0  0  0  0  0  0
   10.5557  -18.9761   26.9383 C   0  0  0  0  0  0  0  0  0  0  0  0
    9.3594  -18.6054   27.0310 O   0  0  0  0  0  0  0  0  0  0  0  0
   11.1813  -19.0841   25.6201 C   0  0  0  0  0  0  0  0  0  0  0  0
   11.4417  -17.7461   24.9591 C   0  0  2  0  0  0  0  0  0  0  0  0
   10.3141  -17.5083   24.0429 N   0  0  0  0  0  0  0  0  0  0  0  0
   12.7010  -17.7439   24.2026 C   0  0  0  0  0  0  0  0  0  0  0  0
   12.6912  -17.9998   22.9837 O   0  0  0  0  0  0  0  0  0  0  0  0
   13.8937  -17.4626   24.8263 O   0  0  0  0  0  0  0  0  0  0  0  0
  2  1  1  0
  3  2  1  0
  3  4  1  6
  5  6  1  1
  5  3  1  0
  7  5  1  0
  8  7  2  0
  9  7  1  0
 10  9  1  0
 11 12  1  0
 10 11  1  6
 12 16  1  0
 13 14  1  0
 13 12  2  0
 14 15  1  0
 15 16  2  0
 17 10  1  0
 17 18  2  0
 20 22  1  0
 20 19  1  0
 21 20  2  0
 23 22  1  6
 23 24  1  0
 24 17  1  0
 25 23  1  0
 26 25  2  0
 27 25  1  0
M  END
$$$$
