IHN.pdb
     RDKit          3D

 27 27  0  0  1  0  0  0  0  0999 V2000
    6.9869  -11.7402   27.5739 C   0  0  0  0  0  0  0  0  0  0  0  0
    6.3547  -13.0742   27.2897 C   0  0  0  0  0  0  0  0  0  0  0  0
    7.1742  -13.8525   26.2839 C   0  0  2  0  0  0  0  0  0  0  0  0
    7.8050  -12.8390   25.3283 C   0  0  0  0  0  0  0  0  0  0  0  0
    6.2449  -14.7571   25.5281 C   0  0  2  0  0  0  0  0  0  0  0  0
    5.6345  -15.7083   26.4187 N   0  0  0  0  0  0  0  0  0  0  0  0
    6.9453  -15.4053   24.3980 C   0  0  0  0  0  0  0  0  0  0  0  0
    7.3919  -16.5831   24.4848 O   0  0  0  0  0  0  0  0  0  0  0  0
    7.1346  -14.7248   23.1940 N   0  0  0  0  0  0  0  0  0  0  0  0
    7.7131  -15.4092   21.9720 C   0  0  1  0  0  0  0  0  0  0  0  0
    7.5578  -14.3672   20.9265 C   0  0  0  0  0  0  0  0  0  0  0  0
    8.1048  -14.5941   19.5985 C   0  0  0  0  0  0  0  0  0  0  0  0
    8.7732  -15.5863   18.9681 C   0  0  0  0  0  0  0  0  0  0  0  0
    8.9849  -15.2635   17.6654 N   0  0  0  0  0  0  0  0  0  0  0  0
    8.4419  -14.0625   17.4889 C   0  0  0  0  0  0  0  0  0  0  0  0
    7.9110  -13.6409   18.6231 N   0  0  0  0  0  0  0  0  0  0  0  0
    9.1653  -15.4835   22.3646 C   0  0  0  0  0  0  0  0  0  0  0  0
    9.6685  -14.4630   22.9653 O   0  0  0  0  0  0  0  0  0  0  0  0
   10.3097  -19.0675   24.7181 N   0  0  0  0  0  0  0  0  0  0  0  0
   11.2329  -18.0191   24.4402 C   0  0  0  0  0  0  0  0  0  0  0  0
   11.5437  -17.2541   25.3864 O   0  0  0  0  0  0  0  0  0  0  0  0
   11.8196  -17.8103   23.1162 C   0  0  0  0  0  0  0  0  0  0  0  0
   11.4553  -16.4785   22.4928 C   0  0  2  0  0  0  0  0  0  0  0  0
   10.0272  -16.5592   22.1443 N   0  0  0  0  0  0  0  0  0  0  0  0
   12.2436  -16.2049   21.2838 C   0  0  0  0  0  0  0  0  0  0  0  0
   12.6424  -17.1503   20.5778 O   0  0  0  0  0  0  0  0  0  0  0  0
   12.5477  -14.9137   20.9218 O   0  0  0  0  0  0  0  0  0  0  0  0
  2  1  1  0
  3  2  1  0
  3  4  1  6
  5  6  1  1
  5  3  1  0
  7  5  1  0
  8  7  2  0
  9  7  1  0
 10  9  1  0
 11 12  1  0
 10 11  1  6
 12 16  1  0
 13 14  1  0
 13 12  2  0
 14 15  1  0
 15 16  2  0
 17 10  1  0
 17 18  2  0
 20 22  1  0
 20 19  1  0
 21 20  2  0
 23 22  1  6
 23 24  1  0
 24 17  1  0
 25 23  1  0
 26 25  2  0
 27 25  1  0
M  END
$$$$
