IHN.pdb
     RDKit          3D

 27 27  0  0  1  0  0  0  0  0999 V2000
    6.2313  -11.5918   27.2609 C   0  0  0  0  0  0  0  0  0  0  0  0
    5.7464  -12.6748   26.3380 C   0  0  0  0  0  0  0  0  0  0  0  0
    6.8676  -13.6328   25.9998 C   0  0  2  0  0  0  0  0  0  0  0  0
    7.9735  -12.8201   25.3256 C   0  0  0  0  0  0  0  0  0  0  0  0
    6.3306  -14.6569   25.0427 C   0  0  2  0  0  0  0  0  0  0  0  0
    5.2308  -15.3709   25.6353 N   0  0  0  0  0  0  0  0  0  0  0  0
    7.4076  -15.5574   24.5771 C   0  0  0  0  0  0  0  0  0  0  0  0
    7.4968  -16.7485   24.9863 O   0  0  0  0  0  0  0  0  0  0  0  0
    8.3647  -15.1095   23.6650 N   0  0  0  0  0  0  0  0  0  0  0  0
    9.3820  -16.0484   23.0487 C   0  0  1  0  0  0  0  0  0  0  0  0
    9.9136  -15.2395   21.9236 C   0  0  0  0  0  0  0  0  0  0  0  0
    9.0050  -14.7436   20.9023 C   0  0  0  0  0  0  0  0  0  0  0  0
    7.6778  -14.8115   20.6519 C   0  0  0  0  0  0  0  0  0  0  0  0
    7.3650  -14.0846   19.5475 N   0  0  0  0  0  0  0  0  0  0  0  0
    8.5079  -13.5622   19.1124 C   0  0  0  0  0  0  0  0  0  0  0  0
    9.4997  -13.9382   19.9003 N   0  0  0  0  0  0  0  0  0  0  0  0
   10.4151  -16.0860   24.1440 C   0  0  0  0  0  0  0  0  0  0  0  0
   11.6489  -15.9708   23.7974 O   0  0  0  0  0  0  0  0  0  0  0  0
   11.1909  -13.7861   26.9917 N   0  0  0  0  0  0  0  0  0  0  0  0
   10.7702  -14.6933   28.0060 C   0  0  0  0  0  0  0  0  0  0  0  0
   10.3816  -14.2051   29.0958 O   0  0  0  0  0  0  0  0  0  0  0  0
   10.7748  -16.1448   27.8222 C   0  0  0  0  0  0  0  0  0  0  0  0
   11.2440  -16.5826   26.4498 C   0  0  2  0  0  0  0  0  0  0  0  0
   10.1669  -16.2303   25.5101 N   0  0  0  0  0  0  0  0  0  0  0  0
   11.4962  -18.0286   26.3918 C   0  0  0  0  0  0  0  0  0  0  0  0
   10.6339  -18.7884   25.9116 O   0  0  0  0  0  0  0  0  0  0  0  0
   12.6758  -18.5546   26.8634 O   0  0  0  0  0  0  0  0  0  0  0  0
  2  1  1  0
  3  2  1  0
  3  4  1  6
  5  6  1  1
  5  3  1  0
  7  5  1  0
  8  7  2  0
  9  7  1  0
 10  9  1  0
 11 12  1  0
 10 11  1  6
 12 16  1  0
 13 14  1  0
 13 12  2  0
 14 15  1  0
 15 16  2  0
 17 10  1  0
 17 18  2  0
 20 22  1  0
 20 19  1  0
 21 20  2  0
 23 22  1  1
 23 24  1  0
 24 17  1  0
 25 23  1  0
 26 25  2  0
 27 25  1  0
M  END
$$$$
