IHN.pdb
     RDKit          3D

 27 27  0  0  1  0  0  0  0  0999 V2000
    6.7341  -11.3942   27.7670 C   0  0  0  0  0  0  0  0  0  0  0  0
    6.0945  -12.2630   26.7201 C   0  0  0  0  0  0  0  0  0  0  0  0
    7.0813  -13.2810   26.1922 C   0  0  2  0  0  0  0  0  0  0  0  0
    8.2591  -12.5082   25.5976 C   0  0  0  0  0  0  0  0  0  0  0  0
    6.3981  -14.0765   25.1181 C   0  0  2  0  0  0  0  0  0  0  0  0
    5.2407  -14.7472   25.6484 N   0  0  0  0  0  0  0  0  0  0  0  0
    7.3467  -15.0076   24.4692 C   0  0  0  0  0  0  0  0  0  0  0  0
    7.4245  -16.2195   24.8147 O   0  0  0  0  0  0  0  0  0  0  0  0
    8.1907  -14.5666   23.4486 N   0  0  0  0  0  0  0  0  0  0  0  0
    9.0086  -15.5323   22.6151 C   0  0  1  0  0  0  0  0  0  0  0  0
    9.3876  -14.6962   21.4489 C   0  0  0  0  0  0  0  0  0  0  0  0
    8.3857  -14.3577   20.4509 C   0  0  0  0  0  0  0  0  0  0  0  0
    7.8870  -13.2257   19.9046 C   0  0  0  0  0  0  0  0  0  0  0  0
    6.9771  -13.5241   18.9408 N   0  0  0  0  0  0  0  0  0  0  0  0
    6.9137  -14.8514   18.8900 C   0  0  0  0  0  0  0  0  0  0  0  0
    7.7419  -15.3727   19.7779 N   0  0  0  0  0  0  0  0  0  0  0  0
   10.2161  -15.6989   23.4998 C   0  0  0  0  0  0  0  0  0  0  0  0
   10.3808  -14.8400   24.4435 O   0  0  0  0  0  0  0  0  0  0  0  0
   11.7888  -18.5098   27.4119 N   0  0  0  0  0  0  0  0  0  0  0  0
   10.9107  -18.9335   26.3736 C   0  0  0  0  0  0  0  0  0  0  0  0
   10.4511  -20.1001   26.4428 O   0  0  0  0  0  0  0  0  0  0  0  0
   10.5338  -18.0709   25.2535 C   0  0  0  0  0  0  0  0  0  0  0  0
   11.7099  -17.3755   24.5990 C   0  0  2  0  0  0  0  0  0  0  0  0
   11.1811  -16.7026   23.4010 N   0  0  0  0  0  0  0  0  0  0  0  0
   12.7604  -18.3251   24.2083 C   0  0  0  0  0  0  0  0  0  0  0  0
   12.5853  -19.0729   23.2277 O   0  0  0  0  0  0  0  0  0  0  0  0
   13.9378  -18.3987   24.9147 O   0  0  0  0  0  0  0  0  0  0  0  0
  2  1  1  0
  3  2  1  0
  3  4  1  6
  5  6  1  1
  5  3  1  0
  7  5  1  0
  8  7  2  0
  9  7  1  0
 10  9  1  0
 11 12  1  0
 10 11  1  6
 12 16  1  0
 13 14  1  0
 13 12  2  0
 14 15  1  0
 15 16  2  0
 17 10  1  0
 17 18  2  0
 20 22  1  0
 20 19  1  0
 21 20  2  0
 23 22  1  6
 23 24  1  0
 24 17  1  0
 25 23  1  0
 26 25  2  0
 27 25  1  0
M  END
$$$$
