IHN.pdb
     RDKit          3D

 27 27  0  0  1  0  0  0  0  0999 V2000
    6.9879  -11.2042   27.6958 C   0  0  0  0  0  0  0  0  0  0  0  0
    6.2383  -11.9981   26.6626 C   0  0  0  0  0  0  0  0  0  0  0  0
    7.0473  -13.1961   26.2161 C   0  0  2  0  0  0  0  0  0  0  0  0
    8.3360  -12.6665   25.5862 C   0  0  0  0  0  0  0  0  0  0  0  0
    6.2455  -13.9412   25.1889 C   0  0  2  0  0  0  0  0  0  0  0  0
    5.0099  -14.4098   25.7585 N   0  0  0  0  0  0  0  0  0  0  0  0
    7.0439  -15.0320   24.5883 C   0  0  0  0  0  0  0  0  0  0  0  0
    6.9086  -16.2315   24.9584 O   0  0  0  0  0  0  0  0  0  0  0  0
    7.9787  -14.7614   23.5876 N   0  0  0  0  0  0  0  0  0  0  0  0
    8.6542  -15.8691   22.8048 C   0  0  1  0  0  0  0  0  0  0  0  0
    9.2700  -15.1255   21.6775 C   0  0  0  0  0  0  0  0  0  0  0  0
    8.4366  -14.6687   20.5769 C   0  0  0  0  0  0  0  0  0  0  0  0
    7.1260  -14.7246   20.2487 C   0  0  0  0  0  0  0  0  0  0  0  0
    6.8974  -14.0532   19.0898 N   0  0  0  0  0  0  0  0  0  0  0  0
    8.0761  -13.5774   18.6992 C   0  0  0  0  0  0  0  0  0  0  0  0
    9.0094  -13.9288   19.5661 N   0  0  0  0  0  0  0  0  0  0  0  0
    9.7401  -16.2616   23.7719 C   0  0  0  0  0  0  0  0  0  0  0  0
   10.5748  -15.3488   24.1261 O   0  0  0  0  0  0  0  0  0  0  0  0
    8.2601  -19.3390   26.6479 N   0  0  0  0  0  0  0  0  0  0  0  0
    9.5484  -18.7917   26.9110 C   0  0  0  0  0  0  0  0  0  0  0  0
    9.6802  -18.0892   27.9435 O   0  0  0  0  0  0  0  0  0  0  0  0
   10.6992  -19.0182   26.0362 C   0  0  0  0  0  0  0  0  0  0  0  0
   11.0804  -17.8087   25.2074 C   0  0  2  0  0  0  0  0  0  0  0  0
    9.9316  -17.5262   24.3311 N   0  0  0  0  0  0  0  0  0  0  0  0
   12.2750  -18.0584   24.3898 C   0  0  0  0  0  0  0  0  0  0  0  0
   12.1694  -18.1532   23.1524 O   0  0  0  0  0  0  0  0  0  0  0  0
   13.5117  -18.1899   24.9763 O   0  0  0  0  0  0  0  0  0  0  0  0
  2  1  1  0
  3  2  1  0
  3  4  1  6
  5  6  1  1
  5  3  1  0
  7  5  1  0
  8  7  2  0
  9  7  1  0
 10  9  1  0
 11 12  1  0
 10 11  1  6
 12 16  1  0
 13 14  1  0
 13 12  2  0
 14 15  1  0
 15 16  2  0
 17 10  1  0
 17 18  2  0
 20 22  1  0
 20 19  1  0
 21 20  2  0
 23 22  1  6
 23 24  1  0
 24 17  1  0
 25 23  1  0
 26 25  2  0
 27 25  1  0
M  END
$$$$
