IHN.pdb
     RDKit          3D

 27 27  0  0  1  0  0  0  0  0999 V2000
    7.4424  -11.6948   20.2520 C   0  0  0  0  0  0  0  0  0  0  0  0
    8.0401  -12.8437   19.4887 C   0  0  0  0  0  0  0  0  0  0  0  0
    8.0377  -14.1033   20.3268 C   0  0  2  0  0  0  0  0  0  0  0  0
    8.8874  -13.8266   21.5676 C   0  0  0  0  0  0  0  0  0  0  0  0
    8.6609  -15.2020   19.5158 C   0  0  2  0  0  0  0  0  0  0  0  0
    7.8808  -15.4591   18.3342 N   0  0  0  0  0  0  0  0  0  0  0  0
    8.8617  -16.4144   20.3389 C   0  0  0  0  0  0  0  0  0  0  0  0
    7.9616  -17.2923   20.4536 O   0  0  0  0  0  0  0  0  0  0  0  0
   10.0630  -16.6215   21.0190 N   0  0  0  0  0  0  0  0  0  0  0  0
   10.3136  -17.8739   21.8344 C   0  0  1  0  0  0  0  0  0  0  0  0
   11.6291  -18.3264   21.3171 C   0  0  0  0  0  0  0  0  0  0  0  0
   11.7055  -18.9809   20.0208 C   0  0  0  0  0  0  0  0  0  0  0  0
   10.8291  -19.4696   19.1144 C   0  0  0  0  0  0  0  0  0  0  0  0
   11.4867  -19.9319   18.0190 N   0  0  0  0  0  0  0  0  0  0  0  0
   12.7801  -19.7261   18.2498 C   0  0  0  0  0  0  0  0  0  0  0  0
   12.9385  -19.1612   19.4338 N   0  0  0  0  0  0  0  0  0  0  0  0
   10.5153  -17.2725   23.2005 C   0  0  0  0  0  0  0  0  0  0  0  0
   10.5813  -15.9899   23.2781 O   0  0  0  0  0  0  0  0  0  0  0  0
    6.4651  -16.5793   25.5095 N   0  0  0  0  0  0  0  0  0  0  0  0
    7.1397  -17.8252   25.6554 C   0  0  0  0  0  0  0  0  0  0  0  0
    6.7081  -18.6199   26.5267 O   0  0  0  0  0  0  0  0  0  0  0  0
    8.2940  -18.2015   24.8389 C   0  0  0  0  0  0  0  0  0  0  0  0
    9.6255  -17.8427   25.4663 C   0  0  2  0  0  0  0  0  0  0  0  0
   10.6349  -17.9723   24.4024 N   0  0  0  0  0  0  0  0  0  0  0  0
    9.9656  -18.7374   26.5806 C   0  0  0  0  0  0  0  0  0  0  0  0
   10.1901  -19.9425   26.3605 O   0  0  0  0  0  0  0  0  0  0  0  0
   10.0385  -18.2587   27.8676 O   0  0  0  0  0  0  0  0  0  0  0  0
  2  1  1  0
  3  2  1  0
  3  4  1  1
  5  6  1  6
  5  3  1  0
  7  5  1  0
  8  7  2  0
  9  7  1  0
 10  9  1  0
 11 12  1  0
 10 11  1  6
 12 16  1  0
 13 14  1  0
 13 12  2  0
 14 15  1  0
 15 16  2  0
 17 10  1  0
 17 18  2  0
 20 22  1  0
 20 19  1  0
 21 20  2  0
 23 22  1  6
 23 24  1  0
 24 17  1  0
 25 23  1  0
 26 25  2  0
 27 25  1  0
M  END
$$$$
