IHN.pdb
     RDKit          3D

 27 27  0  0  1  0  0  0  0  0999 V2000
    6.9632  -11.2374   27.8429 C   0  0  0  0  0  0  0  0  0  0  0  0
    6.2219  -12.0013   26.7814 C   0  0  0  0  0  0  0  0  0  0  0  0
    7.0463  -13.1698   26.2874 C   0  0  2  0  0  0  0  0  0  0  0  0
    8.3185  -12.5976   25.6613 C   0  0  0  0  0  0  0  0  0  0  0  0
    6.2458  -13.8952   25.2450 C   0  0  2  0  0  0  0  0  0  0  0  0
    5.0298  -14.4123   25.8147 N   0  0  0  0  0  0  0  0  0  0  0  0
    7.0592  -14.9447   24.5933 C   0  0  0  0  0  0  0  0  0  0  0  0
    6.9817  -16.1549   24.9447 O   0  0  0  0  0  0  0  0  0  0  0  0
    7.9442  -14.6217   23.5632 N   0  0  0  0  0  0  0  0  0  0  0  0
    8.6543  -15.6896   22.7560 C   0  0  1  0  0  0  0  0  0  0  0  0
    9.3049  -14.8927   21.6862 C   0  0  0  0  0  0  0  0  0  0  0  0
    8.5127  -14.4100   20.5664 C   0  0  0  0  0  0  0  0  0  0  0  0
    8.2278  -13.2111   20.0095 C   0  0  0  0  0  0  0  0  0  0  0  0
    7.4534  -13.3724   18.9049 N   0  0  0  0  0  0  0  0  0  0  0  0
    7.2592  -14.6817   18.7772 C   0  0  0  0  0  0  0  0  0  0  0  0
    7.8787  -15.3227   19.7526 N   0  0  0  0  0  0  0  0  0  0  0  0
    9.7076  -16.1201   23.7428 C   0  0  0  0  0  0  0  0  0  0  0  0
   10.4888  -15.2101   24.2087 O   0  0  0  0  0  0  0  0  0  0  0  0
    8.0666  -19.2361   26.2260 N   0  0  0  0  0  0  0  0  0  0  0  0
    9.3356  -18.7850   26.6892 C   0  0  0  0  0  0  0  0  0  0  0  0
    9.3760  -18.2162   27.8080 O   0  0  0  0  0  0  0  0  0  0  0  0
   10.5680  -18.9608   25.9203 C   0  0  0  0  0  0  0  0  0  0  0  0
   10.9981  -17.7179   25.1683 C   0  0  2  0  0  0  0  0  0  0  0  0
    9.9213  -17.4180   24.2102 N   0  0  0  0  0  0  0  0  0  0  0  0
   12.2595  -17.9239   24.4443 C   0  0  0  0  0  0  0  0  0  0  0  0
   13.3226  -18.0590   25.0791 O   0  0  0  0  0  0  0  0  0  0  0  0
   12.2806  -17.9688   23.0702 O   0  0  0  0  0  0  0  0  0  0  0  0
  2  1  1  0
  3  2  1  0
  3  4  1  6
  5  6  1  1
  5  3  1  0
  7  5  1  0
  8  7  2  0
  9  7  1  0
 10  9  1  0
 11 12  1  0
 10 11  1  6
 12 16  1  0
 13 14  1  0
 13 12  2  0
 14 15  1  0
 15 16  2  0
 17 10  1  0
 17 18  2  0
 20 22  1  0
 20 19  1  0
 21 20  2  0
 23 22  1  6
 23 24  1  0
 24 17  1  0
 25 23  1  0
 26 25  2  0
 27 25  1  0
M  END
$$$$
