IHN.pdb
     RDKit          3D

 27 27  0  0  1  0  0  0  0  0999 V2000
    6.7656  -11.0393   28.0574 C   0  0  0  0  0  0  0  0  0  0  0  0
    6.1091  -11.6394   26.8455 C   0  0  0  0  0  0  0  0  0  0  0  0
    6.8795  -12.8483   26.3618 C   0  0  2  0  0  0  0  0  0  0  0  0
    8.2927  -12.3789   26.0145 C   0  0  0  0  0  0  0  0  0  0  0  0
    6.1981  -13.3711   25.1307 C   0  0  2  0  0  0  0  0  0  0  0  0
    4.8169  -13.6651   25.4070 N   0  0  0  0  0  0  0  0  0  0  0  0
    6.9273  -14.5341   24.5797 C   0  0  0  0  0  0  0  0  0  0  0  0
    6.7136  -15.7066   24.9965 O   0  0  0  0  0  0  0  0  0  0  0  0
    7.8818  -14.3646   23.5753 N   0  0  0  0  0  0  0  0  0  0  0  0
    8.5240  -15.5456   22.8761 C   0  0  1  0  0  0  0  0  0  0  0  0
    9.1204  -14.9115   21.6740 C   0  0  0  0  0  0  0  0  0  0  0  0
    8.2644  -14.5338   20.5608 C   0  0  0  0  0  0  0  0  0  0  0  0
    6.9503  -14.6287   20.2564 C   0  0  0  0  0  0  0  0  0  0  0  0
    6.6947  -14.0313   19.0632 N   0  0  0  0  0  0  0  0  0  0  0  0
    7.8601  -13.5621   18.6272 C   0  0  0  0  0  0  0  0  0  0  0  0
    8.8111  -13.8471   19.4992 N   0  0  0  0  0  0  0  0  0  0  0  0
    9.6289  -15.8682   23.8476 C   0  0  0  0  0  0  0  0  0  0  0  0
    9.9004  -14.9895   24.7474 O   0  0  0  0  0  0  0  0  0  0  0  0
   10.3481  -19.5746   27.3443 N   0  0  0  0  0  0  0  0  0  0  0  0
    9.1599  -19.1787   26.6660 C   0  0  0  0  0  0  0  0  0  0  0  0
    8.0673  -19.6085   27.1115 O   0  0  0  0  0  0  0  0  0  0  0  0
    9.1711  -18.3048   25.4926 C   0  0  0  0  0  0  0  0  0  0  0  0
   10.5538  -17.8175   25.1106 C   0  0  2  0  0  0  0  0  0  0  0  0
   10.3923  -17.0365   23.8731 N   0  0  0  0  0  0  0  0  0  0  0  0
   11.4818  -18.9313   24.8735 C   0  0  0  0  0  0  0  0  0  0  0  0
   11.2929  -19.7004   23.9123 O   0  0  0  0  0  0  0  0  0  0  0  0
   12.5591  -19.1356   25.7032 O   0  0  0  0  0  0  0  0  0  0  0  0
  2  1  1  0
  3  2  1  0
  3  4  1  6
  5  6  1  1
  5  3  1  0
  7  5  1  0
  8  7  2  0
  9  7  1  0
 10  9  1  0
 11 12  1  0
 10 11  1  6
 12 16  1  0
 13 14  1  0
 13 12  2  0
 14 15  1  0
 15 16  2  0
 17 10  1  0
 17 18  2  0
 20 22  1  0
 20 19  1  0
 21 20  2  0
 23 22  1  6
 23 24  1  0
 24 17  1  0
 25 23  1  0
 26 25  2  0
 27 25  1  0
M  END
$$$$
