IHN.pdb
     RDKit          3D

 27 27  0  0  1  0  0  0  0  0999 V2000
    6.2176  -12.7026   19.6616 C   0  0  0  0  0  0  0  0  0  0  0  0
    7.5549  -12.5469   18.9929 C   0  0  0  0  0  0  0  0  0  0  0  0
    8.4725  -13.6938   19.3557 C   0  0  2  0  0  0  0  0  0  0  0  0
    8.6261  -13.6907   20.8771 C   0  0  0  0  0  0  0  0  0  0  0  0
    9.8037  -13.4463   18.7076 C   0  0  2  0  0  0  0  0  0  0  0  0
    9.6319  -13.1062   17.3200 N   0  0  0  0  0  0  0  0  0  0  0  0
   10.7061  -14.6021   18.9017 C   0  0  0  0  0  0  0  0  0  0  0  0
   10.3282  -15.6410   19.5115 O   0  0  0  0  0  0  0  0  0  0  0  0
   12.0132  -14.5741   18.4124 N   0  0  0  0  0  0  0  0  0  0  0  0
   12.8957  -15.8059   18.4204 C   0  0  1  0  0  0  0  0  0  0  0  0
   13.7853  -15.5614   17.2578 C   0  0  0  0  0  0  0  0  0  0  0  0
   13.4006  -16.0489   15.9430 C   0  0  0  0  0  0  0  0  0  0  0  0
   13.6835  -17.1237   15.1727 C   0  0  0  0  0  0  0  0  0  0  0  0
   12.9641  -17.0853   14.0208 N   0  0  0  0  0  0  0  0  0  0  0  0
   12.2297  -15.9783   14.0800 C   0  0  0  0  0  0  0  0  0  0  0  0
   12.4697  -15.3428   15.2134 N   0  0  0  0  0  0  0  0  0  0  0  0
   13.6802  -15.5694   19.6842 C   0  0  0  0  0  0  0  0  0  0  0  0
   14.2286  -14.4148   19.8325 O   0  0  0  0  0  0  0  0  0  0  0  0
   14.0687  -16.4966   25.5643 N   0  0  0  0  0  0  0  0  0  0  0  0
   14.4392  -15.8458   24.3527 C   0  0  0  0  0  0  0  0  0  0  0  0
   15.3911  -15.0282   24.4012 O   0  0  0  0  0  0  0  0  0  0  0  0
   13.7616  -16.0952   23.0801 C   0  0  0  0  0  0  0  0  0  0  0  0
   14.7000  -16.1492   21.8919 C   0  0  2  0  0  0  0  0  0  0  0  0
   13.8709  -16.4831   20.7221 N   0  0  0  0  0  0  0  0  0  0  0  0
   15.7442  -17.1680   22.0636 C   0  0  0  0  0  0  0  0  0  0  0  0
   16.6770  -16.9694   22.8648 O   0  0  0  0  0  0  0  0  0  0  0  0
   15.7042  -18.3413   21.3477 O   0  0  0  0  0  0  0  0  0  0  0  0
  2  1  1  0
  3  2  1  0
  3  4  1  1
  5  6  1  6
  5  3  1  0
  7  5  1  0
  8  7  2  0
  9  7  1  0
 10  9  1  0
 11 12  1  0
 10 11  1  6
 12 16  1  0
 13 14  1  0
 13 12  2  0
 14 15  1  0
 15 16  2  0
 17 10  1  0
 17 18  2  0
 20 22  1  0
 20 19  1  0
 21 20  2  0
 23 22  1  1
 23 24  1  0
 24 17  1  0
 25 23  1  0
 26 25  2  0
 27 25  1  0
M  END
$$$$
