IHN.pdb
     RDKit          3D

 27 27  0  0  1  0  0  0  0  0999 V2000
    7.4284  -11.6024   20.2962 C   0  0  0  0  0  0  0  0  0  0  0  0
    7.5575  -12.5580   19.1430 C   0  0  0  0  0  0  0  0  0  0  0  0
    8.6933  -13.5299   19.3765 C   0  0  2  0  0  0  0  0  0  0  0  0
    9.9906  -12.7205   19.3871 C   0  0  0  0  0  0  0  0  0  0  0  0
    8.7102  -14.5068   18.2369 C   0  0  2  0  0  0  0  0  0  0  0  0
    7.4240  -15.1360   18.0950 N   0  0  0  0  0  0  0  0  0  0  0  0
    9.8068  -15.4860   18.3999 C   0  0  0  0  0  0  0  0  0  0  0  0
    9.6687  -16.5215   19.1090 O   0  0  0  0  0  0  0  0  0  0  0  0
   11.0364  -15.2886   17.7692 N   0  0  0  0  0  0  0  0  0  0  0  0
   12.1587  -16.3015   17.8722 C   0  0  1  0  0  0  0  0  0  0  0  0
   12.9958  -15.9622   16.6945 C   0  0  0  0  0  0  0  0  0  0  0  0
   14.2312  -16.6913   16.4564 C   0  0  0  0  0  0  0  0  0  0  0  0
   14.9046  -17.7026   17.0501 C   0  0  0  0  0  0  0  0  0  0  0  0
   16.0120  -18.0227   16.3309 N   0  0  0  0  0  0  0  0  0  0  0  0
   16.0224  -17.2035   15.2834 C   0  0  0  0  0  0  0  0  0  0  0  0
   14.9739  -16.4009   15.3332 N   0  0  0  0  0  0  0  0  0  0  0  0
   12.8546  -15.8101   19.1142 C   0  0  0  0  0  0  0  0  0  0  0  0
   13.0444  -14.5422   19.2234 O   0  0  0  0  0  0  0  0  0  0  0  0
   15.3241  -15.4295   23.7849 N   0  0  0  0  0  0  0  0  0  0  0  0
   14.2953  -16.4142   23.7613 C   0  0  0  0  0  0  0  0  0  0  0  0
   14.0155  -16.9866   24.8435 O   0  0  0  0  0  0  0  0  0  0  0  0
   13.5682  -16.7715   22.5429 C   0  0  0  0  0  0  0  0  0  0  0  0
   14.0196  -16.0027   21.3179 C   0  0  2  0  0  0  0  0  0  0  0  0
   13.3152  -16.5981   20.1704 N   0  0  0  0  0  0  0  0  0  0  0  0
   15.4706  -16.1023   21.1119 C   0  0  0  0  0  0  0  0  0  0  0  0
   16.2102  -15.1596   21.4521 O   0  0  0  0  0  0  0  0  0  0  0  0
   16.0234  -17.2267   20.5456 O   0  0  0  0  0  0  0  0  0  0  0  0
  2  1  1  0
  3  2  1  0
  3  4  1  6
  5  6  1  1
  5  3  1  0
  7  5  1  0
  8  7  2  0
  9  7  1  0
 10  9  1  0
 11 12  1  0
 10 11  1  6
 12 16  1  0
 13 14  1  0
 13 12  2  0
 14 15  1  0
 15 16  2  0
 17 10  1  0
 17 18  2  0
 20 22  1  0
 20 19  1  0
 21 20  2  0
 23 22  1  1
 23 24  1  0
 24 17  1  0
 25 23  1  0
 26 25  2  0
 27 25  1  0
M  END
$$$$
