IHN.pdb
     RDKit          3D

 27 27  0  0  1  0  0  0  0  0999 V2000
    6.5200  -11.4853   27.5720 C   0  0  0  0  0  0  0  0  0  0  0  0
    5.9588  -12.4662   26.5806 C   0  0  0  0  0  0  0  0  0  0  0  0
    7.0237  -13.4419   26.1302 C   0  0  2  0  0  0  0  0  0  0  0  0
    8.1349  -12.6287   25.4652 C   0  0  0  0  0  0  0  0  0  0  0  0
    6.4055  -14.3751   25.1301 C   0  0  2  0  0  0  0  0  0  0  0  0
    5.3111  -15.0959   25.7246 N   0  0  0  0  0  0  0  0  0  0  0  0
    7.4265  -15.2723   24.5467 C   0  0  0  0  0  0  0  0  0  0  0  0
    7.5591  -16.4656   24.9374 O   0  0  0  0  0  0  0  0  0  0  0  0
    8.2803  -14.8188   23.5398 N   0  0  0  0  0  0  0  0  0  0  0  0
    9.1136  -15.7734   22.7089 C   0  0  1  0  0  0  0  0  0  0  0  0
    9.4654  -14.9396   21.5326 C   0  0  0  0  0  0  0  0  0  0  0  0
    8.4453  -14.6200   20.5468 C   0  0  0  0  0  0  0  0  0  0  0  0
    7.1563  -14.9613   20.3215 C   0  0  0  0  0  0  0  0  0  0  0  0
    6.6671  -14.2872   19.2480 N   0  0  0  0  0  0  0  0  0  0  0  0
    7.6614  -13.5223   18.8069 C   0  0  0  0  0  0  0  0  0  0  0  0
    8.7312  -13.7006   19.5618 N   0  0  0  0  0  0  0  0  0  0  0  0
   10.3309  -15.9052   23.5861 C   0  0  0  0  0  0  0  0  0  0  0  0
   10.5216  -14.9935   24.4738 O   0  0  0  0  0  0  0  0  0  0  0  0
   11.7565  -18.2089   27.8237 N   0  0  0  0  0  0  0  0  0  0  0  0
   11.0342  -18.8020   26.7490 C   0  0  0  0  0  0  0  0  0  0  0  0
   10.7210  -20.0131   26.8594 O   0  0  0  0  0  0  0  0  0  0  0  0
   10.6519  -18.0609   25.5468 C   0  0  0  0  0  0  0  0  0  0  0  0
   11.8316  -17.5202   24.7650 C   0  0  2  0  0  0  0  0  0  0  0  0
   11.2795  -16.9279   23.5355 N   0  0  0  0  0  0  0  0  0  0  0  0
   12.7896  -18.5778   24.4162 C   0  0  0  0  0  0  0  0  0  0  0  0
   12.4801  -19.4392   23.5715 O   0  0  0  0  0  0  0  0  0  0  0  0
   14.0271  -18.6285   25.0135 O   0  0  0  0  0  0  0  0  0  0  0  0
  2  1  1  0
  3  2  1  0
  3  4  1  6
  5  6  1  1
  5  3  1  0
  7  5  1  0
  8  7  2  0
  9  7  1  0
 10  9  1  0
 11 12  1  0
 10 11  1  6
 12 16  1  0
 13 14  1  0
 13 12  2  0
 14 15  1  0
 15 16  2  0
 17 10  1  0
 17 18  2  0
 20 22  1  0
 20 19  1  0
 21 20  2  0
 23 22  1  1
 23 24  1  0
 24 17  1  0
 25 23  1  0
 26 25  2  0
 27 25  1  0
M  END
$$$$
