IHN.pdb
     RDKit          3D

 27 27  0  0  1  0  0  0  0  0999 V2000
    7.4558  -11.8541   19.8808 C   0  0  0  0  0  0  0  0  0  0  0  0
    8.1201  -12.9727   19.1276 C   0  0  0  0  0  0  0  0  0  0  0  0
    8.1764  -14.2276   19.9709 C   0  0  2  0  0  0  0  0  0  0  0  0
    8.9894  -13.8987   21.2235 C   0  0  0  0  0  0  0  0  0  0  0  0
    8.8738  -15.2916   19.1743 C   0  0  2  0  0  0  0  0  0  0  0  0
    8.1477  -15.5703   17.9636 N   0  0  0  0  0  0  0  0  0  0  0  0
    9.0964  -16.5020   19.9947 C   0  0  0  0  0  0  0  0  0  0  0  0
    8.2113  -17.3951   20.1095 O   0  0  0  0  0  0  0  0  0  0  0  0
   10.3023  -16.6905   20.6720 N   0  0  0  0  0  0  0  0  0  0  0  0
   10.5986  -17.9650   21.4362 C   0  0  1  0  0  0  0  0  0  0  0  0
   12.0515  -18.1458   21.1924 C   0  0  0  0  0  0  0  0  0  0  0  0
   12.4987  -18.8431   19.9974 C   0  0  0  0  0  0  0  0  0  0  0  0
   11.9487  -19.6688   19.0785 C   0  0  0  0  0  0  0  0  0  0  0  0
   12.8542  -19.9758   18.1132 N   0  0  0  0  0  0  0  0  0  0  0  0
   13.9727  -19.3337   18.4374 C   0  0  0  0  0  0  0  0  0  0  0  0
   13.7889  -18.6518   19.5543 N   0  0  0  0  0  0  0  0  0  0  0  0
   10.4046  -17.4848   22.8505 C   0  0  0  0  0  0  0  0  0  0  0  0
   11.1015  -16.4728   23.2323 O   0  0  0  0  0  0  0  0  0  0  0  0
    6.4091  -18.0640   23.7992 N   0  0  0  0  0  0  0  0  0  0  0  0
    6.9835  -17.3350   24.8796 C   0  0  0  0  0  0  0  0  0  0  0  0
    6.5095  -16.1994   25.1300 O   0  0  0  0  0  0  0  0  0  0  0  0
    8.0838  -17.8565   25.6909 C   0  0  0  0  0  0  0  0  0  0  0  0
    9.4556  -17.4886   25.1635 C   0  0  2  0  0  0  0  0  0  0  0  0
    9.5343  -18.0292   23.7964 N   0  0  0  0  0  0  0  0  0  0  0  0
   10.5306  -18.0627   25.9837 C   0  0  0  0  0  0  0  0  0  0  0  0
   11.2628  -18.9521   25.5100 O   0  0  0  0  0  0  0  0  0  0  0  0
   10.7382  -17.6290   27.2719 O   0  0  0  0  0  0  0  0  0  0  0  0
  2  1  1  0
  3  2  1  0
  3  4  1  1
  5  6  1  6
  5  3  1  0
  7  5  1  0
  8  7  2  0
  9  7  1  0
 10  9  1  0
 11 12  1  0
 10 11  1  1
 12 16  1  0
 13 14  1  0
 13 12  2  0
 14 15  1  0
 15 16  2  0
 17 10  1  0
 17 18  2  0
 20 22  1  0
 20 19  1  0
 21 20  2  0
 23 22  1  1
 23 24  1  0
 24 17  1  0
 25 23  1  0
 26 25  2  0
 27 25  1  0
M  END
$$$$
