VGH.pdb
     RDKit          3D

 22 22  0  0  1  0  0  0  0  0999 V2000
    6.8979  -12.5496   20.8178 C   0  0  0  0  0  0  0  0  0  0  0  0
    8.0806  -13.2296   20.1654 C   0  0  2  0  0  0  0  0  0  0  0  0
    7.8254  -13.2396   18.6716 C   0  0  0  0  0  0  0  0  0  0  0  0
    8.2192  -14.6677   20.5989 C   0  0  2  0  0  0  0  0  0  0  0  0
    7.0068  -15.3551   20.2058 N   0  0  0  0  0  0  0  0  0  0  0  0
    8.4252  -14.8382   22.0330 C   0  0  0  0  0  0  0  0  0  0  0  0
    9.5173  -14.5058   22.5569 O   0  0  0  0  0  0  0  0  0  0  0  0
    7.4430  -15.3761   22.9285 N   0  0  0  0  0  0  0  0  0  0  0  0
    7.6174  -15.4881   24.3360 C   0  0  0  0  0  0  0  0  0  0  0  0
    8.6029  -16.5257   24.7287 C   0  0  0  0  0  0  0  0  0  0  0  0
    8.4175  -17.6926   24.3015 O   0  0  0  0  0  0  0  0  0  0  0  0
    9.7275  -16.2734   25.5495 N   0  0  0  0  0  0  0  0  0  0  0  0
   10.6396  -17.3199   25.9992 C   0  0  1  0  0  0  0  0  0  0  0  0
   12.0604  -16.9785   25.8084 C   0  0  0  0  0  0  0  0  0  0  0  0
   12.4089  -16.8088   24.3907 C   0  0  0  0  0  0  0  0  0  0  0  0
   11.5480  -16.9502   23.3045 C   0  0  0  0  0  0  0  0  0  0  0  0
   12.2239  -16.7182   22.1642 N   0  0  0  0  0  0  0  0  0  0  0  0
   13.4909  -16.4332   22.4973 C   0  0  0  0  0  0  0  0  0  0  0  0
   13.5935  -16.4907   23.8509 N   0  0  0  0  0  0  0  0  0  0  0  0
   10.3525  -17.7150   27.3927 C   0  0  0  0  0  0  0  0  0  0  0  0
    9.5144  -17.0769   28.0576 O   0  0  0  0  0  0  0  0  0  0  0  0
   10.9909  -18.7869   27.9993 O   0  0  0  0  0  0  0  0  0  0  0  0
  2  1  1  1
  2  3  1  0
  4  6  1  0
  4  2  1  0
  4  5  1  1
  6  8  1  0
  7  6  2  0
  8  9  1  0
  9 10  1  0
 10 12  1  0
 10 11  2  0
 12 13  1  0
 13 14  1  1
 14 15  1  0
 15 19  1  0
 16 17  1  0
 16 15  2  0
 17 18  1  0
 18 19  2  0
 20 13  1  0
 20 22  1  0
 21 20  2  0
M  END
$$$$
