VGH.pdb
     RDKit          3D

 22 22  0  0  1  0  0  0  0  0999 V2000
    7.5350  -17.2004   19.1842 C   0  0  0  0  0  0  0  0  0  0  0  0
    8.3242  -18.4086   19.6359 C   0  0  2  0  0  0  0  0  0  0  0  0
    7.5011  -19.6352   19.2974 C   0  0  0  0  0  0  0  0  0  0  0  0
    8.5401  -18.4205   21.1287 C   0  0  2  0  0  0  0  0  0  0  0  0
    7.2391  -18.5500   21.7514 N   0  0  0  0  0  0  0  0  0  0  0  0
    9.2021  -17.2263   21.6424 C   0  0  0  0  0  0  0  0  0  0  0  0
   10.4538  -17.1317   21.5996 O   0  0  0  0  0  0  0  0  0  0  0  0
    8.5122  -16.1073   22.2149 N   0  0  0  0  0  0  0  0  0  0  0  0
    9.1379  -14.8854   22.5884 C   0  0  0  0  0  0  0  0  0  0  0  0
    9.4691  -14.8084   24.0329 C   0  0  0  0  0  0  0  0  0  0  0  0
   10.0457  -13.7695   24.4409 O   0  0  0  0  0  0  0  0  0  0  0  0
    9.1731  -15.8316   24.9644 N   0  0  0  0  0  0  0  0  0  0  0  0
    9.5001  -15.7394   26.3835 C   0  0  1  0  0  0  0  0  0  0  0  0
    8.3215  -15.5275   27.2423 C   0  0  0  0  0  0  0  0  0  0  0  0
    7.6077  -14.2851   26.9152 C   0  0  0  0  0  0  0  0  0  0  0  0
    7.9886  -12.9935   27.2727 C   0  0  0  0  0  0  0  0  0  0  0  0
    7.0892  -12.1133   26.7959 N   0  0  0  0  0  0  0  0  0  0  0  0
    6.1476  -12.8114   26.1454 C   0  0  0  0  0  0  0  0  0  0  0  0
    6.4709  -14.1287   26.2232 N   0  0  0  0  0  0  0  0  0  0  0  0
   10.2979  -16.9014   26.8235 C   0  0  0  0  0  0  0  0  0  0  0  0
   10.5583  -17.8152   26.0179 O   0  0  0  0  0  0  0  0  0  0  0  0
   10.7762  -17.0160   28.1207 O   0  0  0  0  0  0  0  0  0  0  0  0
  2  1  1  1
  2  3  1  0
  4  6  1  0
  4  2  1  0
  4  5  1  1
  6  8  1  0
  7  6  2  0
  8  9  1  0
  9 10  1  0
 10 12  1  0
 10 11  2  0
 12 13  1  0
 13 14  1  1
 14 15  1  0
 15 19  1  0
 16 17  1  0
 16 15  2  0
 17 18  1  0
 18 19  2  0
 20 13  1  0
 20 22  1  0
 21 20  2  0
M  END
$$$$
