VGH.pdb
     RDKit          3D

 22 22  0  0  1  0  0  0  0  0999 V2000
    7.4649  -12.4549   18.9334 C   0  0  0  0  0  0  0  0  0  0  0  0
    7.9196  -13.3959   20.0264 C   0  0  2  0  0  0  0  0  0  0  0  0
    9.1406  -12.7749   20.6747 C   0  0  0  0  0  0  0  0  0  0  0  0
    8.3435  -14.7370   19.4814 C   0  0  2  0  0  0  0  0  0  0  0  0
    7.2442  -15.2471   18.6888 N   0  0  0  0  0  0  0  0  0  0  0  0
    8.6889  -15.7132   20.5090 C   0  0  0  0  0  0  0  0  0  0  0  0
    7.7826  -16.3162   21.1357 O   0  0  0  0  0  0  0  0  0  0  0  0
   10.0324  -16.0535   20.8762 N   0  0  0  0  0  0  0  0  0  0  0  0
   10.3732  -17.0005   21.8817 C   0  0  0  0  0  0  0  0  0  0  0  0
   10.3092  -16.4499   23.2582 C   0  0  0  0  0  0  0  0  0  0  0  0
   11.1617  -15.5837   23.5764 O   0  0  0  0  0  0  0  0  0  0  0  0
    9.3497  -16.8444   24.2205 N   0  0  0  0  0  0  0  0  0  0  0  0
    9.4745  -16.5444   25.6430 C   0  0  1  0  0  0  0  0  0  0  0  0
    8.1909  -16.2091   26.2845 C   0  0  0  0  0  0  0  0  0  0  0  0
    7.6443  -14.9312   25.8067 C   0  0  0  0  0  0  0  0  0  0  0  0
    8.2527  -14.0546   24.9108 C   0  0  0  0  0  0  0  0  0  0  0  0
    7.4526  -12.9909   24.7120 N   0  0  0  0  0  0  0  0  0  0  0  0
    6.3527  -13.1687   25.4575 C   0  0  0  0  0  0  0  0  0  0  0  0
    6.4782  -14.3491   26.1184 N   0  0  0  0  0  0  0  0  0  0  0  0
   10.1779  -17.6287   26.3570 C   0  0  0  0  0  0  0  0  0  0  0  0
   10.4184  -17.5153   27.5741 O   0  0  0  0  0  0  0  0  0  0  0  0
   10.5877  -18.7876   25.7139 O   0  0  0  0  0  0  0  0  0  0  0  0
  2  1  1  6
  2  3  1  0
  4  6  1  0
  4  2  1  0
  4  5  1  1
  6  8  1  0
  7  6  2  0
  8  9  1  0
  9 10  1  0
 10 12  1  0
 10 11  2  0
 12 13  1  0
 13 14  1  1
 14 15  1  0
 15 19  1  0
 16 17  1  0
 16 15  2  0
 17 18  1  0
 18 19  2  0
 20 13  1  0
 20 22  1  0
 21 20  2  0
M  END
$$$$
