VGH.pdb
     RDKit          3D

 22 22  0  0  1  0  0  0  0  0999 V2000
    7.3510  -13.8043   18.6138 C   0  0  0  0  0  0  0  0  0  0  0  0
    7.5062  -13.1884   19.9861 C   0  0  2  0  0  0  0  0  0  0  0  0
    8.9601  -12.7885   20.1374 C   0  0  0  0  0  0  0  0  0  0  0  0
    7.2024  -14.1726   21.0881 C   0  0  2  0  0  0  0  0  0  0  0  0
    7.2524  -13.4467   22.3402 N   0  0  0  0  0  0  0  0  0  0  0  0
    8.1266  -15.2998   21.1486 C   0  0  0  0  0  0  0  0  0  0  0  0
    8.2347  -16.0796   20.1699 O   0  0  0  0  0  0  0  0  0  0  0  0
    8.9542  -15.6017   22.2799 N   0  0  0  0  0  0  0  0  0  0  0  0
    9.8726  -16.6868   22.3344 C   0  0  0  0  0  0  0  0  0  0  0  0
   10.5126  -16.8534   23.6628 C   0  0  0  0  0  0  0  0  0  0  0  0
   11.3209  -17.8051   23.8017 O   0  0  0  0  0  0  0  0  0  0  0  0
   10.2634  -16.0066   24.7688 N   0  0  0  0  0  0  0  0  0  0  0  0
    9.6347  -16.4675   26.0023 C   0  0  1  0  0  0  0  0  0  0  0  0
    8.1640  -16.5192   25.9248 C   0  0  0  0  0  0  0  0  0  0  0  0
    7.5608  -15.1810   25.8515 C   0  0  0  0  0  0  0  0  0  0  0  0
    8.2406  -13.9650   25.8714 C   0  0  0  0  0  0  0  0  0  0  0  0
    7.3549  -12.9554   25.7854 N   0  0  0  0  0  0  0  0  0  0  0  0
    6.1311  -13.4979   25.7115 C   0  0  0  0  0  0  0  0  0  0  0  0
    6.2663  -14.8491   25.7523 N   0  0  0  0  0  0  0  0  0  0  0  0
   10.2065  -17.7554   26.4435 C   0  0  0  0  0  0  0  0  0  0  0  0
   10.8924  -18.4319   25.6537 O   0  0  0  0  0  0  0  0  0  0  0  0
   10.0059  -18.2486   27.7245 O   0  0  0  0  0  0  0  0  0  0  0  0
  2  1  1  6
  2  3  1  0
  4  6  1  0
  4  2  1  0
  4  5  1  1
  6  8  1  0
  7  6  2  0
  8  9  1  0
  9 10  1  0
 10 12  1  0
 10 11  2  0
 12 13  1  0
 13 14  1  6
 14 15  1  0
 15 19  1  0
 16 17  1  0
 16 15  2  0
 17 18  1  0
 18 19  2  0
 20 13  1  0
 20 22  1  0
 21 20  2  0
M  END
$$$$
