VGH.pdb
     RDKit          3D

 22 22  0  0  1  0  0  0  0  0999 V2000
    7.2554  -14.6032   20.2017 C   0  0  0  0  0  0  0  0  0  0  0  0
    7.2416  -16.1094   20.0683 C   0  0  2  0  0  0  0  0  0  0  0  0
    5.8302  -16.5145   19.6936 C   0  0  0  0  0  0  0  0  0  0  0  0
    7.5671  -16.7979   21.3704 C   0  0  2  0  0  0  0  0  0  0  0  0
    6.5655  -16.3925   22.3345 N   0  0  0  0  0  0  0  0  0  0  0  0
    8.8924  -16.4837   21.8930 C   0  0  0  0  0  0  0  0  0  0  0  0
    9.8874  -17.1629   21.5377 O   0  0  0  0  0  0  0  0  0  0  0  0
    9.1618  -15.4202   22.8162 N   0  0  0  0  0  0  0  0  0  0  0  0
   10.4446  -15.1398   23.3638 C   0  0  0  0  0  0  0  0  0  0  0  0
   10.5539  -15.4623   24.8081 C   0  0  0  0  0  0  0  0  0  0  0  0
   11.6649  -15.2705   25.3625 O   0  0  0  0  0  0  0  0  0  0  0  0
    9.4852  -15.9687   25.5852 N   0  0  0  0  0  0  0  0  0  0  0  0
    9.5069  -16.0093   27.0437 C   0  0  1  0  0  0  0  0  0  0  0  0
    8.2077  -15.6811   27.6568 C   0  0  0  0  0  0  0  0  0  0  0  0
    7.6163  -14.4594   27.0930 C   0  0  0  0  0  0  0  0  0  0  0  0
    8.1375  -13.1705   27.1828 C   0  0  0  0  0  0  0  0  0  0  0  0
    7.3203  -12.3117   26.5459 N   0  0  0  0  0  0  0  0  0  0  0  0
    6.2943  -13.0208   26.0542 C   0  0  0  0  0  0  0  0  0  0  0  0
    6.4827  -14.3234   26.3914 N   0  0  0  0  0  0  0  0  0  0  0  0
   10.0348  -17.2984   27.5335 C   0  0  0  0  0  0  0  0  0  0  0  0
   10.1940  -17.4786   28.7558 O   0  0  0  0  0  0  0  0  0  0  0  0
   10.3654  -18.3331   26.6706 O   0  0  0  0  0  0  0  0  0  0  0  0
  2  1  1  1
  2  3  1  0
  4  6  1  0
  4  2  1  0
  4  5  1  1
  6  8  1  0
  7  6  2  0
  8  9  1  0
  9 10  1  0
 10 12  1  0
 10 11  2  0
 12 13  1  0
 13 14  1  1
 14 15  1  0
 15 19  1  0
 16 17  1  0
 16 15  2  0
 17 18  1  0
 18 19  2  0
 20 13  1  0
 20 22  1  0
 21 20  2  0
M  END
$$$$
