VGH.pdb
     RDKit          3D

 22 22  0  0  1  0  0  0  0  0999 V2000
    6.1749  -17.7791   19.4048 C   0  0  0  0  0  0  0  0  0  0  0  0
    7.5041  -18.4495   19.6706 C   0  0  2  0  0  0  0  0  0  0  0  0
    7.2692  -19.9460   19.6270 C   0  0  0  0  0  0  0  0  0  0  0  0
    8.0385  -18.1268   21.0438 C   0  0  2  0  0  0  0  0  0  0  0  0
    7.1148  -18.6866   22.0084 N   0  0  0  0  0  0  0  0  0  0  0  0
    8.1942  -16.6990   21.2998 C   0  0  0  0  0  0  0  0  0  0  0  0
    9.1105  -16.0532   20.7332 O   0  0  0  0  0  0  0  0  0  0  0  0
    7.3526  -15.9432   22.1808 N   0  0  0  0  0  0  0  0  0  0  0  0
    7.4957  -14.5492   22.4263 C   0  0  0  0  0  0  0  0  0  0  0  0
    8.4464  -14.2365   23.5220 C   0  0  0  0  0  0  0  0  0  0  0  0
    8.5170  -13.0421   23.9051 O   0  0  0  0  0  0  0  0  0  0  0  0
    9.2682  -15.2016   24.1510 N   0  0  0  0  0  0  0  0  0  0  0  0
    9.4469  -15.2785   25.5971 C   0  0  1  0  0  0  0  0  0  0  0  0
    8.1769  -15.3706   26.3389 C   0  0  0  0  0  0  0  0  0  0  0  0
    7.4391  -14.0995   26.3438 C   0  0  0  0  0  0  0  0  0  0  0  0
    7.9671  -12.8375   26.6082 C   0  0  0  0  0  0  0  0  0  0  0  0
    6.9902  -11.9161   26.5203 N   0  0  0  0  0  0  0  0  0  0  0  0
    5.8563  -12.5591   26.2072 C   0  0  0  0  0  0  0  0  0  0  0  0
    6.1388  -13.8839   26.1021 N   0  0  0  0  0  0  0  0  0  0  0  0
   10.3759  -16.3665   25.9625 C   0  0  0  0  0  0  0  0  0  0  0  0
   10.6427  -17.2579   25.1343 O   0  0  0  0  0  0  0  0  0  0  0  0
   10.9724  -16.4349   27.2132 O   0  0  0  0  0  0  0  0  0  0  0  0
  2  1  1  1
  2  3  1  0
  4  6  1  0
  4  2  1  0
  4  5  1  1
  6  8  1  0
  7  6  2  0
  8  9  1  0
  9 10  1  0
 10 12  1  0
 10 11  2  0
 12 13  1  0
 13 14  1  1
 14 15  1  0
 15 19  1  0
 16 17  1  0
 16 15  2  0
 17 18  1  0
 18 19  2  0
 20 13  1  0
 20 22  1  0
 21 20  2  0
M  END
$$$$
