VGH.pdb
     RDKit          3D

 22 22  0  0  1  0  0  0  0  0999 V2000
    7.5692  -12.2814   18.8831 C   0  0  0  0  0  0  0  0  0  0  0  0
    7.8768  -13.1289   20.0971 C   0  0  2  0  0  0  0  0  0  0  0  0
    9.1626  -12.6002   20.7002 C   0  0  0  0  0  0  0  0  0  0  0  0
    8.1205  -14.5728   19.7349 C   0  0  2  0  0  0  0  0  0  0  0  0
    7.0056  -15.0066   18.9189 N   0  0  0  0  0  0  0  0  0  0  0  0
    8.2478  -15.4602   20.8858 C   0  0  0  0  0  0  0  0  0  0  0  0
    7.2293  -15.7926   21.5413 O   0  0  0  0  0  0  0  0  0  0  0  0
    9.4910  -16.0053   21.3477 N   0  0  0  0  0  0  0  0  0  0  0  0
    9.6328  -16.7947   22.5227 C   0  0  0  0  0  0  0  0  0  0  0  0
    9.8247  -15.9909   23.7552 C   0  0  0  0  0  0  0  0  0  0  0  0
    9.7992  -14.7400   23.6413 O   0  0  0  0  0  0  0  0  0  0  0  0
   10.0325  -16.5523   25.0374 N   0  0  0  0  0  0  0  0  0  0  0  0
    9.3264  -16.1003   26.2316 C   0  0  1  0  0  0  0  0  0  0  0  0
    7.8766  -15.9345   26.0257 C   0  0  0  0  0  0  0  0  0  0  0  0
    7.4463  -14.5377   26.1802 C   0  0  0  0  0  0  0  0  0  0  0  0
    8.2570  -13.4542   26.5117 C   0  0  0  0  0  0  0  0  0  0  0  0
    7.5110  -12.3353   26.5608 N   0  0  0  0  0  0  0  0  0  0  0  0
    6.2485  -12.6793   26.2693 C   0  0  0  0  0  0  0  0  0  0  0  0
    6.2191  -14.0181   26.0397 N   0  0  0  0  0  0  0  0  0  0  0  0
    9.6203  -16.9717   27.3869 C   0  0  0  0  0  0  0  0  0  0  0  0
    9.6537  -18.2080   27.2380 O   0  0  0  0  0  0  0  0  0  0  0  0
    9.8648  -16.4577   28.6521 O   0  0  0  0  0  0  0  0  0  0  0  0
  2  1  1  6
  2  3  1  0
  4  6  1  0
  4  2  1  0
  4  5  1  6
  6  8  1  0
  7  6  2  0
  8  9  1  0
  9 10  1  0
 10 12  1  0
 10 11  2  0
 12 13  1  0
 13 14  1  6
 14 15  1  0
 15 19  1  0
 16 17  1  0
 16 15  2  0
 17 18  1  0
 18 19  2  0
 20 13  1  0
 20 22  1  0
 21 20  2  0
M  END
$$$$
