VGH.pdb
     RDKit          3D

 22 22  0  0  1  0  0  0  0  0999 V2000
    5.5904  -12.1303   25.9438 C   0  0  0  0  0  0  0  0  0  0  0  0
    6.2787  -12.8392   27.0885 C   0  0  2  0  0  0  0  0  0  0  0  0
    6.9567  -11.7780   27.9316 C   0  0  0  0  0  0  0  0  0  0  0  0
    7.3579  -13.7775   26.6087 C   0  0  2  0  0  0  0  0  0  0  0  0
    8.3091  -12.9898   25.8526 N   0  0  0  0  0  0  0  0  0  0  0  0
    6.8675  -14.8696   25.7750 C   0  0  0  0  0  0  0  0  0  0  0  0
    6.6404  -15.9964   26.2814 O   0  0  0  0  0  0  0  0  0  0  0  0
    6.6138  -14.7564   24.3683 N   0  0  0  0  0  0  0  0  0  0  0  0
    6.2841  -15.8518   23.5226 C   0  0  0  0  0  0  0  0  0  0  0  0
    7.4273  -16.3360   22.7098 C   0  0  0  0  0  0  0  0  0  0  0  0
    7.1922  -17.2166   21.8451 O   0  0  0  0  0  0  0  0  0  0  0  0
    8.7532  -15.8638   22.8556 N   0  0  0  0  0  0  0  0  0  0  0  0
    9.8440  -16.2589   21.9706 C   0  0  1  0  0  0  0  0  0  0  0  0
   10.3181  -15.1659   21.1033 C   0  0  0  0  0  0  0  0  0  0  0  0
    9.2255  -14.5394   20.3459 C   0  0  0  0  0  0  0  0  0  0  0  0
    8.5712  -13.3520   20.6667 C   0  0  0  0  0  0  0  0  0  0  0  0
    7.6284  -13.0961   19.7411 N   0  0  0  0  0  0  0  0  0  0  0  0
    7.6665  -14.0892   18.8414 C   0  0  0  0  0  0  0  0  0  0  0  0
    8.6390  -14.9605   19.2169 N   0  0  0  0  0  0  0  0  0  0  0  0
   10.9500  -16.8759   22.7298 C   0  0  0  0  0  0  0  0  0  0  0  0
   10.8974  -16.9229   23.9736 O   0  0  0  0  0  0  0  0  0  0  0  0
   12.0632  -17.4141   22.1008 O   0  0  0  0  0  0  0  0  0  0  0  0
  2  1  1  6
  2  3  1  0
  4  6  1  0
  4  2  1  0
  4  5  1  6
  6  8  1  0
  7  6  2  0
  8  9  1  0
  9 10  1  0
 10 12  1  0
 10 11  2  0
 12 13  1  0
 13 14  1  1
 14 15  1  0
 15 19  1  0
 16 17  1  0
 16 15  2  0
 17 18  1  0
 18 19  2  0
 20 13  1  0
 20 22  1  0
 21 20  2  0
M  END
$$$$
