VGH.pdb
     RDKit          3D

 22 22  0  0  1  0  0  0  0  0999 V2000
    8.0049  -12.4187   20.3961 C   0  0  0  0  0  0  0  0  0  0  0  0
    8.2782  -13.2981   19.1966 C   0  0  2  0  0  0  0  0  0  0  0  0
    7.1518  -13.0725   18.2081 C   0  0  0  0  0  0  0  0  0  0  0  0
    8.2658  -14.7639   19.5524 C   0  0  2  0  0  0  0  0  0  0  0  0
    6.9469  -15.0720   20.0646 N   0  0  0  0  0  0  0  0  0  0  0  0
    9.2671  -15.1427   20.5435 C   0  0  0  0  0  0  0  0  0  0  0  0
   10.4815  -15.1901   20.2264 O   0  0  0  0  0  0  0  0  0  0  0  0
    8.9651  -15.4788   21.9042 N   0  0  0  0  0  0  0  0  0  0  0  0
    9.9436  -15.7892   22.8893 C   0  0  0  0  0  0  0  0  0  0  0  0
    9.3674  -16.0617   24.2294 C   0  0  0  0  0  0  0  0  0  0  0  0
    8.2855  -16.6986   24.2766 O   0  0  0  0  0  0  0  0  0  0  0  0
    9.9652  -15.6469   25.4430 N   0  0  0  0  0  0  0  0  0  0  0  0
    9.3921  -15.9318   26.7543 C   0  0  1  0  0  0  0  0  0  0  0  0
    7.9188  -15.9005   26.7676 C   0  0  0  0  0  0  0  0  0  0  0  0
    7.3874  -14.5391   26.6126 C   0  0  0  0  0  0  0  0  0  0  0  0
    6.9769  -13.9418   25.4227 C   0  0  0  0  0  0  0  0  0  0  0  0
    6.5502  -12.6904   25.6737 N   0  0  0  0  0  0  0  0  0  0  0  0
    6.6787  -12.4772   26.9910 C   0  0  0  0  0  0  0  0  0  0  0  0
    7.1876  -13.6049   27.5524 N   0  0  0  0  0  0  0  0  0  0  0  0
    9.9190  -17.1973   27.3031 C   0  0  0  0  0  0  0  0  0  0  0  0
   10.7198  -17.8773   26.6336 O   0  0  0  0  0  0  0  0  0  0  0  0
    9.5503  -17.6654   28.5559 O   0  0  0  0  0  0  0  0  0  0  0  0
  2  1  1  1
  2  3  1  0
  4  6  1  0
  4  2  1  0
  4  5  1  1
  6  8  1  0
  7  6  2  0
  8  9  1  0
  9 10  1  0
 10 12  1  0
 10 11  2  0
 12 13  1  0
 13 14  1  6
 14 15  1  0
 15 19  1  0
 16 17  1  0
 16 15  2  0
 17 18  1  0
 18 19  2  0
 20 13  1  0
 20 22  1  0
 21 20  2  0
M  END
$$$$
