VGH.pdb
     RDKit          3D

 22 22  0  0  1  0  0  0  0  0999 V2000
    6.9324  -12.6451   19.5190 C   0  0  0  0  0  0  0  0  0  0  0  0
    7.7303  -13.4906   20.4860 C   0  0  2  0  0  0  0  0  0  0  0  0
    9.0388  -12.7693   20.7397 C   0  0  0  0  0  0  0  0  0  0  0  0
    8.0755  -14.8408   19.9088 C   0  0  2  0  0  0  0  0  0  0  0  0
    6.8416  -15.4390   19.4435 N   0  0  0  0  0  0  0  0  0  0  0  0
    8.7205  -15.7439   20.8558 C   0  0  0  0  0  0  0  0  0  0  0  0
    8.0263  -16.4189   21.6559 O   0  0  0  0  0  0  0  0  0  0  0  0
   10.1389  -15.9307   20.9510 N   0  0  0  0  0  0  0  0  0  0  0  0
   10.7730  -16.7892   21.8918 C   0  0  0  0  0  0  0  0  0  0  0  0
   10.5761  -16.3692   23.3014 C   0  0  0  0  0  0  0  0  0  0  0  0
   11.5574  -15.8581   23.8965 O   0  0  0  0  0  0  0  0  0  0  0  0
    9.3555  -16.5124   24.0027 N   0  0  0  0  0  0  0  0  0  0  0  0
    9.2510  -16.4084   25.4544 C   0  0  1  0  0  0  0  0  0  0  0  0
    7.8726  -16.1882   25.9269 C   0  0  0  0  0  0  0  0  0  0  0  0
    7.4169  -14.8097   25.6982 C   0  0  0  0  0  0  0  0  0  0  0  0
    8.1777  -13.7613   25.1852 C   0  0  0  0  0  0  0  0  0  0  0  0
    7.4218  -12.6499   25.1194 N   0  0  0  0  0  0  0  0  0  0  0  0
    6.2015  -12.9647   25.5767 C   0  0  0  0  0  0  0  0  0  0  0  0
    6.2082  -14.2777   25.9256 N   0  0  0  0  0  0  0  0  0  0  0  0
    9.8802  -17.5673   26.1188 C   0  0  0  0  0  0  0  0  0  0  0  0
    9.9829  -18.6497   25.5108 O   0  0  0  0  0  0  0  0  0  0  0  0
   10.3692  -17.4954   27.4151 O   0  0  0  0  0  0  0  0  0  0  0  0
  2  1  1  6
  2  3  1  0
  4  6  1  0
  4  2  1  0
  4  5  1  1
  6  8  1  0
  7  6  2  0
  8  9  1  0
  9 10  1  0
 10 12  1  0
 10 11  2  0
 12 13  1  0
 13 14  1  6
 14 15  1  0
 15 19  1  0
 16 17  1  0
 16 15  2  0
 17 18  1  0
 18 19  2  0
 20 13  1  0
 20 22  1  0
 21 20  2  0
M  END
$$$$
