VGH.pdb
     RDKit          3D

 22 22  0  0  1  0  0  0  0  0999 V2000
    7.2165  -19.3934   22.6854 C   0  0  0  0  0  0  0  0  0  0  0  0
    6.4273  -18.4084   21.8526 C   0  0  2  0  0  0  0  0  0  0  0  0
    5.2004  -19.1353   21.3396 C   0  0  0  0  0  0  0  0  0  0  0  0
    7.1992  -17.9392   20.6446 C   0  0  2  0  0  0  0  0  0  0  0  0
    7.4900  -19.1067   19.8387 N   0  0  0  0  0  0  0  0  0  0  0  0
    8.4465  -17.2544   20.9663 C   0  0  0  0  0  0  0  0  0  0  0  0
    9.5235  -17.8984   21.0203 O   0  0  0  0  0  0  0  0  0  0  0  0
    8.5465  -15.8499   21.2368 N   0  0  0  0  0  0  0  0  0  0  0  0
    9.7503  -15.1887   21.6079 C   0  0  0  0  0  0  0  0  0  0  0  0
   10.0945  -15.3489   23.0424 C   0  0  0  0  0  0  0  0  0  0  0  0
   11.2044  -14.9020   23.4257 O   0  0  0  0  0  0  0  0  0  0  0  0
    9.2485  -15.9712   23.9907 N   0  0  0  0  0  0  0  0  0  0  0  0
    9.5757  -16.0716   25.4091 C   0  0  1  0  0  0  0  0  0  0  0  0
    8.3987  -15.9642   26.2895 C   0  0  0  0  0  0  0  0  0  0  0  0
    7.6981  -14.6819   26.1319 C   0  0  0  0  0  0  0  0  0  0  0  0
    8.2808  -13.4521   25.8333 C   0  0  0  0  0  0  0  0  0  0  0  0
    7.3245  -12.5075   25.7686 N   0  0  0  0  0  0  0  0  0  0  0  0
    6.1504  -13.1045   26.0181 C   0  0  0  0  0  0  0  0  0  0  0  0
    6.3873  -14.4243   26.2374 N   0  0  0  0  0  0  0  0  0  0  0  0
   10.3618  -17.2895   25.6903 C   0  0  0  0  0  0  0  0  0  0  0  0
   10.6125  -18.0913   24.7705 O   0  0  0  0  0  0  0  0  0  0  0  0
   10.8395  -17.5794   26.9601 O   0  0  0  0  0  0  0  0  0  0  0  0
  2  1  1  6
  2  3  1  0
  4  6  1  0
  4  2  1  0
  4  5  1  6
  6  8  1  0
  7  6  2  0
  8  9  1  0
  9 10  1  0
 10 12  1  0
 10 11  2  0
 12 13  1  0
 13 14  1  1
 14 15  1  0
 15 19  1  0
 16 17  1  0
 16 15  2  0
 17 18  1  0
 18 19  2  0
 20 13  1  0
 20 22  1  0
 21 20  2  0
M  END
$$$$
