SYG.pdb
     RDKit          3D

 23 23  0  0  1  0  0  0  0  0999 V2000
   20.6820   -9.1683  -19.3416 O   0  0  0  0  0  0  0  0  0  0  0  0
   21.7085   -8.5979  -20.0594 C   0  0  0  0  0  0  0  0  0  0  0  0
   23.0119   -8.9003  -19.3672 C   0  0  2  0  0  0  0  0  0  0  0  0
   23.1289  -10.3436  -19.1441 N   0  0  0  0  0  0  0  0  0  0  0  0
   23.1721   -8.2465  -18.0664 C   0  0  0  0  0  0  0  0  0  0  0  0
   23.8376   -8.7897  -17.1158 O   0  0  0  0  0  0  0  0  0  0  0  0
   28.5727   -3.9689  -18.2440 O   0  0  0  0  0  0  0  0  0  0  0  0
   27.2473   -4.2230  -17.8801 C   0  0  0  0  0  0  0  0  0  0  0  0
   26.6514   -3.4651  -16.9044 C   0  0  0  0  0  0  0  0  0  0  0  0
   25.3380   -3.7254  -16.5517 C   0  0  0  0  0  0  0  0  0  0  0  0
   24.5979   -4.7241  -17.1459 C   0  0  0  0  0  0  0  0  0  0  0  0
   23.2189   -4.9311  -16.7045 C   0  0  0  0  0  0  0  0  0  0  0  0
   22.8478   -6.3656  -16.4197 C   0  0  2  0  0  0  0  0  0  0  0  0
   22.6257   -6.9726  -17.7185 N   0  0  0  0  0  0  0  0  0  0  0  0
   21.5773   -6.4218  -15.6656 C   0  0  0  0  0  0  0  0  0  0  0  0
   21.5690   -5.9158  -14.4909 O   0  0  0  0  0  0  0  0  0  0  0  0
   25.2247   -5.4680  -18.1228 C   0  0  0  0  0  0  0  0  0  0  0  0
   26.5285   -5.2266  -18.4890 C   0  0  0  0  0  0  0  0  0  0  0  0
   20.3806   -7.0012  -16.1710 N   0  0  0  0  0  0  0  0  0  0  0  0
   19.2384   -7.0410  -15.3029 C   0  0  0  0  0  0  0  0  0  0  0  0
   18.4838   -5.7841  -15.2645 C   0  0  0  0  0  0  0  0  0  0  0  0
   17.3397   -5.7319  -14.4812 O   0  0  0  0  0  0  0  0  0  0  0  0
   18.8302   -4.7796  -15.9008 O   0  0  0  0  0  0  0  0  0  0  0  0
  2  1  1  0
  3  2  1  0
  3  4  1  1
  5  3  1  0
  5  6  2  0
  7  8  1  0
  8 18  2  0
  9 10  2  0
  9  8  1  0
 10 11  1  0
 11 12  1  0
 11 17  2  0
 13 12  1  6
 13 14  1  0
 14  5  1  0
 15 13  1  0
 16 15  2  0
 18 17  1  0
 19 15  1  0
 20 19  1  0
 21 20  1  0
 22 21  1  0
 23 21  2  0
M  END
$$$$
