SYG.pdb
     RDKit          3D

 23 23  0  0  1  0  0  0  0  0999 V2000
   15.0523   -4.6754  -14.6104 O   0  0  0  0  0  0  0  0  0  0  0  0
   16.0144   -5.4245  -15.2488 C   0  0  0  0  0  0  0  0  0  0  0  0
   17.3655   -5.0535  -14.6951 C   0  0  2  0  0  0  0  0  0  0  0  0
   17.7471   -3.7230  -15.1752 N   0  0  0  0  0  0  0  0  0  0  0  0
   18.4439   -5.9732  -15.0643 C   0  0  0  0  0  0  0  0  0  0  0  0
   18.9768   -5.9549  -16.2295 O   0  0  0  0  0  0  0  0  0  0  0  0
   24.1881   -3.0886  -15.5498 O   0  0  0  0  0  0  0  0  0  0  0  0
   23.4501   -4.1908  -15.1094 C   0  0  0  0  0  0  0  0  0  0  0  0
   23.6781   -5.4269  -15.6586 C   0  0  0  0  0  0  0  0  0  0  0  0
   22.9412   -6.5119  -15.2149 C   0  0  0  0  0  0  0  0  0  0  0  0
   21.9790   -6.4002  -14.2352 C   0  0  0  0  0  0  0  0  0  0  0  0
   21.2453   -7.6002  -13.8339 C   0  0  0  0  0  0  0  0  0  0  0  0
   20.0154   -7.9012  -14.6545 C   0  0  2  0  0  0  0  0  0  0  0  0
   19.0079   -6.9616  -14.1998 N   0  0  0  0  0  0  0  0  0  0  0  0
   19.5312   -9.2674  -14.3624 C   0  0  0  0  0  0  0  0  0  0  0  0
   18.9317   -9.4518  -13.2477 O   0  0  0  0  0  0  0  0  0  0  0  0
   21.7734   -5.1452  -13.7030 C   0  0  0  0  0  0  0  0  0  0  0  0
   22.4940   -4.0535  -14.1287 C   0  0  0  0  0  0  0  0  0  0  0  0
   19.6950  -10.3717  -15.2438 N   0  0  0  0  0  0  0  0  0  0  0  0
   19.0960  -11.6210  -14.8690 C   0  0  0  0  0  0  0  0  0  0  0  0
   17.7354  -11.8001  -15.3856 C   0  0  0  0  0  0  0  0  0  0  0  0
   17.3392  -13.0775  -15.7555 O   0  0  0  0  0  0  0  0  0  0  0  0
   16.9376  -10.8598  -15.5013 O   0  0  0  0  0  0  0  0  0  0  0  0
  2  1  1  0
  3  2  1  0
  3  4  1  6
  5  3  1  0
  5  6  2  0
  7  8  1  0
  8 18  2  0
  9 10  2  0
  9  8  1  0
 10 11  1  0
 11 12  1  0
 11 17  2  0
 13 12  1  1
 13 14  1  0
 14  5  1  0
 15 13  1  0
 16 15  2  0
 18 17  1  0
 19 15  1  0
 20 19  1  0
 21 20  1  0
 22 21  1  0
 23 21  2  0
M  END
$$$$
