SYG.pdb
     RDKit          3D

 23 23  0  0  1  0  0  0  0  0999 V2000
   25.3216  -19.4809  -16.9644 O   0  0  0  0  0  0  0  0  0  0  0  0
   25.9549  -18.7774  -15.9653 C   0  0  0  0  0  0  0  0  0  0  0  0
   26.6680  -19.7504  -15.0630 C   0  0  2  0  0  0  0  0  0  0  0  0
   27.5590  -20.5989  -15.8583 N   0  0  0  0  0  0  0  0  0  0  0  0
   25.7804  -20.6398  -14.3104 C   0  0  0  0  0  0  0  0  0  0  0  0
   25.8923  -21.9147  -14.3723 O   0  0  0  0  0  0  0  0  0  0  0  0
   28.7369  -20.5896   -8.4514 O   0  0  0  0  0  0  0  0  0  0  0  0
   27.5175  -20.5563   -9.1336 C   0  0  0  0  0  0  0  0  0  0  0  0
   27.4130  -21.1384  -10.3713 C   0  0  0  0  0  0  0  0  0  0  0  0
   26.2002  -21.0995  -11.0381 C   0  0  0  0  0  0  0  0  0  0  0  0
   25.0832  -20.4943  -10.5048 C   0  0  0  0  0  0  0  0  0  0  0  0
   23.8458  -20.4965  -11.2846 C   0  0  0  0  0  0  0  0  0  0  0  0
   23.9510  -21.1341  -12.6480 C   0  0  2  0  0  0  0  0  0  0  0  0
   24.7250  -20.2056  -13.4502 N   0  0  0  0  0  0  0  0  0  0  0  0
   22.6092  -21.2560  -13.2571 C   0  0  0  0  0  0  0  0  0  0  0  0
   22.1196  -20.2129  -13.8121 O   0  0  0  0  0  0  0  0  0  0  0  0
   25.2202  -19.9186   -9.2597 C   0  0  0  0  0  0  0  0  0  0  0  0
   26.4155  -19.9456   -8.5793 C   0  0  0  0  0  0  0  0  0  0  0  0
   21.8452  -22.4558  -13.2580 N   0  0  0  0  0  0  0  0  0  0  0  0
   20.6011  -22.4558  -13.9735 C   0  0  0  0  0  0  0  0  0  0  0  0
   19.4364  -22.1699  -13.1296 C   0  0  0  0  0  0  0  0  0  0  0  0
   18.1759  -22.2587  -13.7028 O   0  0  0  0  0  0  0  0  0  0  0  0
   19.5398  -21.8555  -11.9361 O   0  0  0  0  0  0  0  0  0  0  0  0
  2  1  1  0
  3  2  1  0
  3  4  1  6
  5  3  1  0
  5  6  2  0
  7  8  1  0
  8 18  2  0
  9 10  2  0
  9  8  1  0
 10 11  1  0
 11 12  1  0
 11 17  2  0
 13 12  1  1
 13 14  1  0
 14  5  1  0
 15 13  1  0
 16 15  2  0
 18 17  1  0
 19 15  1  0
 20 19  1  0
 21 20  1  0
 22 21  1  0
 23 21  2  0
M  END
$$$$
