SYG.pdb
     RDKit          3D

 23 23  0  0  1  0  0  0  0  0999 V2000
   17.0048  -12.7147  -16.6449 O   0  0  0  0  0  0  0  0  0  0  0  0
   18.0357  -12.0174  -16.0574 C   0  0  0  0  0  0  0  0  0  0  0  0
   19.3059  -12.2956  -16.8181 C   0  0  2  0  0  0  0  0  0  0  0  0
   19.7788  -13.6479  -16.5112 N   0  0  0  0  0  0  0  0  0  0  0  0
   20.4045  -11.3742  -16.5191 C   0  0  0  0  0  0  0  0  0  0  0  0
   21.1769  -11.5497  -15.5119 O   0  0  0  0  0  0  0  0  0  0  0  0
   26.7254   -5.2723  -18.1480 O   0  0  0  0  0  0  0  0  0  0  0  0
   25.6785   -6.1978  -18.1766 C   0  0  0  0  0  0  0  0  0  0  0  0
   24.5216   -5.8974  -18.8498 C   0  0  0  0  0  0  0  0  0  0  0  0
   23.4909   -6.8215  -18.8717 C   0  0  0  0  0  0  0  0  0  0  0  0
   23.5798   -8.0422  -18.2390 C   0  0  0  0  0  0  0  0  0  0  0  0
   22.4377   -8.9531  -18.3104 C   0  0  0  0  0  0  0  0  0  0  0  0
   21.8762   -9.3793  -16.9763 C   0  0  2  0  0  0  0  0  0  0  0  0
   20.7317  -10.2148  -17.2878 N   0  0  0  0  0  0  0  0  0  0  0  0
   21.3909   -8.1996  -16.2287 C   0  0  0  0  0  0  0  0  0  0  0  0
   20.2965   -7.6659  -16.6204 O   0  0  0  0  0  0  0  0  0  0  0  0
   24.7549   -8.3145  -17.5713 C   0  0  0  0  0  0  0  0  0  0  0  0
   25.7917   -7.4112  -17.5367 C   0  0  0  0  0  0  0  0  0  0  0  0
   22.0680   -7.6351  -15.1124 N   0  0  0  0  0  0  0  0  0  0  0  0
   21.4180   -6.5685  -14.4055 C   0  0  0  0  0  0  0  0  0  0  0  0
   21.5670   -5.2591  -15.0487 C   0  0  0  0  0  0  0  0  0  0  0  0
   20.9794   -4.1601  -14.4385 O   0  0  0  0  0  0  0  0  0  0  0  0
   22.1927   -5.1038  -16.1062 O   0  0  0  0  0  0  0  0  0  0  0  0
  2  1  1  0
  3  2  1  0
  3  4  1  1
  5  3  1  0
  5  6  2  0
  7  8  1  0
  8 18  2  0
  9 10  2  0
  9  8  1  0
 10 11  1  0
 11 12  1  0
 11 17  2  0
 13 12  1  6
 13 14  1  0
 14  5  1  0
 15 13  1  0
 16 15  2  0
 18 17  1  0
 19 15  1  0
 20 19  1  0
 21 20  1  0
 22 21  1  0
 23 21  2  0
M  END
$$$$
