SYG.pdb
     RDKit          3D

 23 23  0  0  1  0  0  0  0  0999 V2000
   16.2626  -13.0482    4.5127 O   0  0  0  0  0  0  0  0  0  0  0  0
   16.0344  -14.2122    5.2107 C   0  0  0  0  0  0  0  0  0  0  0  0
   15.5984  -15.2813    4.2431 C   0  0  2  0  0  0  0  0  0  0  0  0
   14.2416  -14.9954    3.7703 N   0  0  0  0  0  0  0  0  0  0  0  0
   15.5862  -16.6349    4.8023 C   0  0  0  0  0  0  0  0  0  0  0  0
   14.4972  -17.2065    5.1618 O   0  0  0  0  0  0  0  0  0  0  0  0
   15.0549  -21.6394   -0.0313 O   0  0  0  0  0  0  0  0  0  0  0  0
   15.6557  -21.1593    1.1358 C   0  0  0  0  0  0  0  0  0  0  0  0
   16.5102  -20.0882    1.0714 C   0  0  0  0  0  0  0  0  0  0  0  0
   17.0997  -19.6208    2.2337 C   0  0  0  0  0  0  0  0  0  0  0  0
   16.8615  -20.1927    3.4643 C   0  0  0  0  0  0  0  0  0  0  0  0
   17.5340  -19.6357    4.6376 C   0  0  0  0  0  0  0  0  0  0  0  0
   16.6603  -18.7945    5.5353 C   0  0  2  0  0  0  0  0  0  0  0  0
   16.7447  -17.4470    5.0043 N   0  0  0  0  0  0  0  0  0  0  0  0
   17.2078  -18.7797    6.9086 C   0  0  0  0  0  0  0  0  0  0  0  0
   18.2037  -18.0099    7.1353 O   0  0  0  0  0  0  0  0  0  0  0  0
   15.9982  -21.2671    3.4961 C   0  0  0  0  0  0  0  0  0  0  0  0
   15.4013  -21.7479    2.3538 C   0  0  0  0  0  0  0  0  0  0  0  0
   16.6920  -19.5658    7.9761 N   0  0  0  0  0  0  0  0  0  0  0  0
   17.3412  -19.4687    9.2524 C   0  0  0  0  0  0  0  0  0  0  0  0
   18.1661  -20.6349    9.5837 C   0  0  0  0  0  0  0  0  0  0  0  0
   18.8305  -20.6412   10.8019 O   0  0  0  0  0  0  0  0  0  0  0  0
   18.2878  -21.6031    8.8210 O   0  0  0  0  0  0  0  0  0  0  0  0
  2  1  1  0
  3  2  1  0
  3  4  1  1
  5  3  1  0
  5  6  2  0
  7  8  1  0
  8 18  2  0
  9 10  2  0
  9  8  1  0
 10 11  1  0
 11 12  1  0
 11 17  2  0
 13 12  1  6
 13 14  1  0
 14  5  1  0
 15 13  1  0
 16 15  2  0
 18 17  1  0
 19 15  1  0
 20 19  1  0
 21 20  1  0
 22 21  1  0
 23 21  2  0
M  END
$$$$
