SYG.pdb
     RDKit          3D

 23 23  0  0  1  0  0  0  0  0999 V2000
   21.2024  -12.7972  -20.0591 O   0  0  0  0  0  0  0  0  0  0  0  0
   21.2698  -11.9851  -18.9500 C   0  0  0  0  0  0  0  0  0  0  0  0
   22.6800  -12.0023  -18.4204 C   0  0  2  0  0  0  0  0  0  0  0  0
   23.0218  -13.3540  -17.9705 N   0  0  0  0  0  0  0  0  0  0  0  0
   22.9136  -11.0981  -17.2920 C   0  0  0  0  0  0  0  0  0  0  0  0
   22.8161  -11.4954  -16.0778 O   0  0  0  0  0  0  0  0  0  0  0  0
   29.0703  -12.1759  -16.8550 O   0  0  0  0  0  0  0  0  0  0  0  0
   28.0478  -11.2301  -16.7396 C   0  0  0  0  0  0  0  0  0  0  0  0
   27.4931  -10.6849  -17.8696 C   0  0  0  0  0  0  0  0  0  0  0  0
   26.4808   -9.7489  -17.7436 C   0  0  0  0  0  0  0  0  0  0  0  0
   26.0030   -9.3381  -16.5184 C   0  0  0  0  0  0  0  0  0  0  0  0
   24.9351   -8.3393  -16.4820 C   0  0  0  0  0  0  0  0  0  0  0  0
   23.5506   -8.8926  -16.2506 C   0  0  2  0  0  0  0  0  0  0  0  0
   23.2656   -9.7180  -17.4092 N   0  0  0  0  0  0  0  0  0  0  0  0
   22.5626   -7.7930  -16.2185 C   0  0  0  0  0  0  0  0  0  0  0  0
   22.0242   -7.4551  -17.3284 O   0  0  0  0  0  0  0  0  0  0  0  0
   26.5805   -9.9043  -15.4019 C   0  0  0  0  0  0  0  0  0  0  0  0
   27.5874  -10.8361  -15.5037 C   0  0  0  0  0  0  0  0  0  0  0  0
   22.1848   -7.1011  -15.0346 N   0  0  0  0  0  0  0  0  0  0  0  0
   21.1842   -6.0785  -15.1480 C   0  0  0  0  0  0  0  0  0  0  0  0
   21.6851   -4.8257  -15.7226 C   0  0  0  0  0  0  0  0  0  0  0  0
   20.8083   -3.7548  -15.8211 O   0  0  0  0  0  0  0  0  0  0  0  0
   22.8514   -4.6937  -16.1180 O   0  0  0  0  0  0  0  0  0  0  0  0
  2  1  1  0
  3  2  1  0
  3  4  1  1
  5  3  1  0
  5  6  2  0
  7  8  1  0
  8 18  2  0
  9 10  2  0
  9  8  1  0
 10 11  1  0
 11 12  1  0
 11 17  2  0
 13 12  1  6
 13 14  1  0
 14  5  1  0
 15 13  1  0
 16 15  2  0
 18 17  1  0
 19 15  1  0
 20 19  1  0
 21 20  1  0
 22 21  1  0
 23 21  2  0
M  END
$$$$
