SYG.pdb
     RDKit          3D

 23 23  0  0  1  0  0  0  0  0999 V2000
   27.8419  -19.2471  -18.7503 O   0  0  0  0  0  0  0  0  0  0  0  0
   27.2622  -20.4672  -18.4866 C   0  0  0  0  0  0  0  0  0  0  0  0
   28.0379  -21.1463  -17.3883 C   0  0  2  0  0  0  0  0  0  0  0  0
   28.6134  -22.3964  -17.8908 N   0  0  0  0  0  0  0  0  0  0  0  0
   27.2436  -21.4804  -16.2039 C   0  0  0  0  0  0  0  0  0  0  0  0
   26.5092  -22.5293  -16.1581 O   0  0  0  0  0  0  0  0  0  0  0  0
   23.8990  -20.8562   -7.9854 O   0  0  0  0  0  0  0  0  0  0  0  0
   24.6980  -20.7740   -9.1292 C   0  0  0  0  0  0  0  0  0  0  0  0
   24.3133  -21.4190  -10.2770 C   0  0  0  0  0  0  0  0  0  0  0  0
   25.1124  -21.3308  -11.4042 C   0  0  0  0  0  0  0  0  0  0  0  0
   26.2896  -20.6152  -11.4208 C   0  0  0  0  0  0  0  0  0  0  0  0
   27.0726  -20.5833  -12.6558 C   0  0  0  0  0  0  0  0  0  0  0  0
   26.3428  -21.0599  -13.8874 C   0  0  2  0  0  0  0  0  0  0  0  0
   27.1971  -20.7044  -15.0047 N   0  0  0  0  0  0  0  0  0  0  0  0
   25.0666  -20.3284  -14.0369 C   0  0  0  0  0  0  0  0  0  0  0  0
   25.1338  -19.0741  -14.2781 O   0  0  0  0  0  0  0  0  0  0  0  0
   26.6489  -19.9782  -10.2521 C   0  0  0  0  0  0  0  0  0  0  0  0
   25.8701  -20.0523   -9.1206 C   0  0  0  0  0  0  0  0  0  0  0  0
   23.7861  -20.9381  -13.9283 N   0  0  0  0  0  0  0  0  0  0  0  0
   22.6317  -20.0904  -14.0220 C   0  0  0  0  0  0  0  0  0  0  0  0
   21.3601  -20.8169  -13.9474 C   0  0  0  0  0  0  0  0  0  0  0  0
   20.1841  -20.0808  -13.9699 O   0  0  0  0  0  0  0  0  0  0  0  0
   21.3020  -22.0514  -13.8659 O   0  0  0  0  0  0  0  0  0  0  0  0
  2  1  1  0
  3  2  1  0
  3  4  1  6
  5  3  1  0
  5  6  2  0
  7  8  1  0
  8 18  2  0
  9 10  2  0
  9  8  1  0
 10 11  1  0
 11 12  1  0
 11 17  2  0
 13 12  1  1
 13 14  1  0
 14  5  1  0
 15 13  1  0
 16 15  2  0
 18 17  1  0
 19 15  1  0
 20 19  1  0
 21 20  1  0
 22 21  1  0
 23 21  2  0
M  END
$$$$
