SYG.pdb
     RDKit          3D

 23 23  0  0  1  0  0  0  0  0999 V2000
   16.2561   -9.5899  -17.1538 O   0  0  0  0  0  0  0  0  0  0  0  0
   17.1007   -9.2238  -16.1307 C   0  0  0  0  0  0  0  0  0  0  0  0
   18.2725  -10.1702  -16.1059 C   0  0  2  0  0  0  0  0  0  0  0  0
   17.8749  -11.4313  -15.4750 N   0  0  0  0  0  0  0  0  0  0  0  0
   19.4393   -9.6695  -15.3758 C   0  0  0  0  0  0  0  0  0  0  0  0
   19.4738   -9.6437  -14.0952 O   0  0  0  0  0  0  0  0  0  0  0  0
   23.1856  -15.0112  -15.0734 O   0  0  0  0  0  0  0  0  0  0  0  0
   23.1226  -13.6305  -15.2806 C   0  0  0  0  0  0  0  0  0  0  0  0
   23.6605  -12.7768  -14.3513 C   0  0  0  0  0  0  0  0  0  0  0  0
   23.5925  -11.4107  -14.5667 C   0  0  0  0  0  0  0  0  0  0  0  0
   23.0010  -10.8682  -15.6865 C   0  0  0  0  0  0  0  0  0  0  0  0
   22.9699   -9.4126  -15.8266 C   0  0  0  0  0  0  0  0  0  0  0  0
   21.7746   -8.7361  -15.2020 C   0  0  2  0  0  0  0  0  0  0  0  0
   20.6323   -9.1703  -15.9840 N   0  0  0  0  0  0  0  0  0  0  0  0
   21.8915   -7.2687  -15.3396 C   0  0  0  0  0  0  0  0  0  0  0  0
   21.8123   -6.7816  -16.5196 O   0  0  0  0  0  0  0  0  0  0  0  0
   22.4698  -11.7519  -16.6016 C   0  0  0  0  0  0  0  0  0  0  0  0
   22.5263  -13.1127  -16.4080 C   0  0  0  0  0  0  0  0  0  0  0  0
   22.0847   -6.3826  -14.2437 N   0  0  0  0  0  0  0  0  0  0  0  0
   22.1904   -4.9799  -14.5284 C   0  0  0  0  0  0  0  0  0  0  0  0
   20.9095   -4.2685  -14.4668 C   0  0  0  0  0  0  0  0  0  0  0  0
   19.8875   -4.6879  -15.3063 O   0  0  0  0  0  0  0  0  0  0  0  0
   20.7125   -3.3167  -13.6992 O   0  0  0  0  0  0  0  0  0  0  0  0
  2  1  1  0
  3  2  1  0
  3  4  1  1
  5  3  1  0
  5  6  2  0
  7  8  1  0
  8 18  2  0
  9 10  2  0
  9  8  1  0
 10 11  1  0
 11 12  1  0
 11 17  2  0
 13 12  1  6
 13 14  1  0
 14  5  1  0
 15 13  1  0
 16 15  2  0
 18 17  1  0
 19 15  1  0
 20 19  1  0
 21 20  1  0
 22 21  1  0
 23 21  2  0
M  END
$$$$
