SYG.pdb
     RDKit          3D

 23 23  0  0  1  0  0  0  0  0999 V2000
   26.6323  -20.8576  -18.5358 O   0  0  0  0  0  0  0  0  0  0  0  0
   26.0127  -20.3177  -17.4318 C   0  0  0  0  0  0  0  0  0  0  0  0
   24.9579  -19.3462  -17.8933 C   0  0  2  0  0  0  0  0  0  0  0  0
   25.5920  -18.2211  -18.5850 N   0  0  0  0  0  0  0  0  0  0  0  0
   24.1382  -18.7863  -16.8164 C   0  0  0  0  0  0  0  0  0  0  0  0
   24.6084  -17.9320  -15.9852 O   0  0  0  0  0  0  0  0  0  0  0  0
   17.3373  -15.2281  -12.5220 O   0  0  0  0  0  0  0  0  0  0  0  0
   18.2571  -15.8123  -13.3973 C   0  0  0  0  0  0  0  0  0  0  0  0
   17.8348  -16.7554  -14.2995 C   0  0  0  0  0  0  0  0  0  0  0  0
   18.7545  -17.3277  -15.1619 C   0  0  0  0  0  0  0  0  0  0  0  0
   20.0891  -16.9859  -15.1512 C   0  0  0  0  0  0  0  0  0  0  0  0
   20.9893  -17.6477  -16.0951 C   0  0  0  0  0  0  0  0  0  0  0  0
   22.0220  -18.5507  -15.4669 C   0  0  2  0  0  0  0  0  0  0  0  0
   22.7682  -19.1146  -16.5760 N   0  0  0  0  0  0  0  0  0  0  0  0
   21.3582  -19.6612  -14.7511 C   0  0  0  0  0  0  0  0  0  0  0  0
   20.8728  -20.6092  -15.4594 O   0  0  0  0  0  0  0  0  0  0  0  0
   20.4822  -16.0353  -14.2333 C   0  0  0  0  0  0  0  0  0  0  0  0
   19.5857  -15.4537  -13.3672 C   0  0  0  0  0  0  0  0  0  0  0  0
   21.2330  -19.7295  -13.3359 N   0  0  0  0  0  0  0  0  0  0  0  0
   20.5106  -20.8386  -12.7811 C   0  0  0  0  0  0  0  0  0  0  0  0
   19.0826  -20.5710  -12.5822 C   0  0  0  0  0  0  0  0  0  0  0  0
   18.2909  -21.5905  -12.0731 O   0  0  0  0  0  0  0  0  0  0  0  0
   18.5661  -19.4777  -12.8505 O   0  0  0  0  0  0  0  0  0  0  0  0
  2  1  1  0
  3  2  1  0
  3  4  1  1
  5  3  1  0
  5  6  2  0
  7  8  1  0
  8 18  2  0
  9 10  2  0
  9  8  1  0
 10 11  1  0
 11 12  1  0
 11 17  2  0
 13 12  1  6
 13 14  1  0
 14  5  1  0
 15 13  1  0
 16 15  2  0
 18 17  1  0
 19 15  1  0
 20 19  1  0
 21 20  1  0
 22 21  1  0
 23 21  2  0
M  END
$$$$
