SYG.pdb
     RDKit          3D

 23 23  0  0  1  0  0  0  0  0999 V2000
   16.8105   -9.8577  -17.8896 O   0  0  0  0  0  0  0  0  0  0  0  0
   17.8625   -9.2501  -17.2429 C   0  0  0  0  0  0  0  0  0  0  0  0
   18.9087  -10.2893  -16.9347 C   0  0  2  0  0  0  0  0  0  0  0  0
   18.2610  -11.5203  -16.4746 N   0  0  0  0  0  0  0  0  0  0  0  0
   19.8694   -9.8933  -15.9025 C   0  0  0  0  0  0  0  0  0  0  0  0
   19.6415  -10.0914  -14.6573 O   0  0  0  0  0  0  0  0  0  0  0  0
   23.5744  -15.1063  -15.7217 O   0  0  0  0  0  0  0  0  0  0  0  0
   23.5271  -13.7123  -15.6339 C   0  0  0  0  0  0  0  0  0  0  0  0
   23.2415  -12.9684  -16.7505 C   0  0  0  0  0  0  0  0  0  0  0  0
   23.1972  -11.5881  -16.6521 C   0  0  0  0  0  0  0  0  0  0  0  0
   23.4307  -10.9243  -15.4676 C   0  0  0  0  0  0  0  0  0  0  0  0
   23.3690   -9.4629  -15.4596 C   0  0  0  0  0  0  0  0  0  0  0  0
   22.0283   -8.8823  -15.0829 C   0  0  2  0  0  0  0  0  0  0  0  0
   21.1273   -9.2634  -16.1542 N   0  0  0  0  0  0  0  0  0  0  0  0
   22.1040   -7.4060  -15.0529 C   0  0  0  0  0  0  0  0  0  0  0  0
   22.0189   -6.7910  -16.1712 O   0  0  0  0  0  0  0  0  0  0  0  0
   23.7149  -11.6995  -14.3636 C   0  0  0  0  0  0  0  0  0  0  0  0
   23.7639  -13.0722  -14.4385 C   0  0  0  0  0  0  0  0  0  0  0  0
   22.2644   -6.6445  -13.8622 N   0  0  0  0  0  0  0  0  0  0  0  0
   22.2580   -5.2140  -13.9773 C   0  0  0  0  0  0  0  0  0  0  0  0
   20.9197   -4.6217  -13.8844 C   0  0  0  0  0  0  0  0  0  0  0  0
   20.8146   -3.2382  -13.8963 O   0  0  0  0  0  0  0  0  0  0  0  0
   19.8923   -5.3078  -13.7967 O   0  0  0  0  0  0  0  0  0  0  0  0
  2  1  1  0
  3  2  1  0
  3  4  1  1
  5  3  1  0
  5  6  2  0
  7  8  1  0
  8 18  2  0
  9 10  2  0
  9  8  1  0
 10 11  1  0
 11 12  1  0
 11 17  2  0
 13 12  1  6
 13 14  1  0
 14  5  1  0
 15 13  1  0
 16 15  2  0
 18 17  1  0
 19 15  1  0
 20 19  1  0
 21 20  1  0
 22 21  1  0
 23 21  2  0
M  END
$$$$
