CKV.pdb
     RDKit          3D

 23 22  0  0  1  0  0  0  0  0999 V2000
   23.1662  -20.8293   -8.7592 N   0  0  0  0  0  0  0  0  0  0  0  0
   24.0363  -20.3067   -9.7687 C   0  0  1  0  0  0  0  0  0  0  0  0
   25.4590  -20.8470   -9.6095 C   0  0  0  0  0  0  0  0  0  0  0  0
   26.4499  -19.7984   -8.5370 S   0  0  0  0  0  0  0  0  0  0  0  0
   23.5178  -20.6578  -11.1161 C   0  0  0  0  0  0  0  0  0  0  0  0
   23.1236  -21.8544  -11.3094 O   0  0  0  0  0  0  0  0  0  0  0  0
   23.4437  -19.7260  -12.1858 N   0  0  0  0  0  0  0  0  0  0  0  0
   22.9660  -20.1327  -13.4835 C   0  0  1  0  0  0  0  0  0  0  0  0
   22.2770  -19.0070  -14.2198 C   0  0  0  0  0  0  0  0  0  0  0  0
   21.2797  -19.5128  -15.2347 C   0  0  0  0  0  0  0  0  0  0  0  0
   20.6963  -18.3019  -15.9322 C   0  0  0  0  0  0  0  0  0  0  0  0
   19.7284  -18.7033  -17.0246 C   0  0  0  0  0  0  0  0  0  0  0  0
   19.0901  -17.5189  -17.5605 N   0  0  0  0  0  0  0  0  0  0  0  0
   24.0460  -20.7434  -14.2952 C   0  0  0  0  0  0  0  0  0  0  0  0
   25.2060  -20.2856  -14.1532 O   0  0  0  0  0  0  0  0  0  0  0  0
   25.9018  -24.5542  -16.7443 C   0  0  0  0  0  0  0  0  0  0  0  0
   24.8174  -23.9400  -15.8961 C   0  0  1  0  0  0  0  0  0  0  0  0
   24.9451  -24.4832  -14.5089 C   0  0  0  0  0  0  0  0  0  0  0  0
   24.9192  -22.4356  -15.9549 C   0  0  2  0  0  0  0  0  0  0  0  0
   23.8541  -21.7927  -15.2051 N   0  0  0  0  0  0  0  0  0  0  0  0
   24.9258  -22.0031  -17.3693 C   0  0  0  0  0  0  0  0  0  0  0  0
   23.8337  -21.7900  -17.9409 O   0  0  0  0  0  0  0  0  0  0  0  0
   26.0861  -21.8230  -18.0908 O   0  0  0  0  0  0  0  0  0  0  0  0
  2  1  1  1
  2  5  1  0
  3  2  1  0
  4  3  1  0
  5  6  2  0
  5  7  1  0
  7  8  1  0
  8  9  1  6
  9 10  1  0
 10 11  1  0
 11 12  1  0
 13 12  1  0
 14 15  2  0
 14  8  1  0
 17 16  1  6
 17 18  1  0
 19 17  1  0
 19 20  1  1
 20 14  1  0
 21 19  1  0
 22 21  2  0
 23 21  1  0
M  END
$$$$
