CKV.pdb
     RDKit          3D

 23 22  0  0  1  0  0  0  0  0999 V2000
   18.2616  -30.0384  -11.4284 N   0  0  0  0  0  0  0  0  0  0  0  0
   18.9934  -28.8888  -11.8668 C   0  0  1  0  0  0  0  0  0  0  0  0
   19.1796  -28.8950  -13.3855 C   0  0  0  0  0  0  0  0  0  0  0  0
   20.6935  -29.7381  -13.8640 S   0  0  0  0  0  0  0  0  0  0  0  0
   18.2835  -27.6495  -11.4568 C   0  0  0  0  0  0  0  0  0  0  0  0
   17.0264  -27.5888  -11.6582 O   0  0  0  0  0  0  0  0  0  0  0  0
   18.9400  -26.5420  -10.8566 N   0  0  0  0  0  0  0  0  0  0  0  0
   18.1982  -25.3672  -10.4727 C   0  0  1  0  0  0  0  0  0  0  0  0
   18.9303  -24.5375   -9.4432 C   0  0  0  0  0  0  0  0  0  0  0  0
   18.9533  -25.1993   -8.0860 C   0  0  0  0  0  0  0  0  0  0  0  0
   17.6344  -24.8852   -7.4115 C   0  0  0  0  0  0  0  0  0  0  0  0
   17.5233  -25.5675   -6.0649 C   0  0  0  0  0  0  0  0  0  0  0  0
   16.2491  -25.2358   -5.4616 N   0  0  0  0  0  0  0  0  0  0  0  0
   17.8054  -24.5608  -11.6532 C   0  0  0  0  0  0  0  0  0  0  0  0
   18.7190  -24.1842  -12.4270 O   0  0  0  0  0  0  0  0  0  0  0  0
   14.4613  -23.1404  -14.9525 C   0  0  0  0  0  0  0  0  0  0  0  0
   14.8768  -24.0183  -13.7995 C   0  0  1  0  0  0  0  0  0  0  0  0
   15.1037  -25.4005  -14.3226 C   0  0  0  0  0  0  0  0  0  0  0  0
   16.0945  -23.4313  -13.1290 C   0  0  2  0  0  0  0  0  0  0  0  0
   16.4864  -24.1949  -11.9572 N   0  0  0  0  0  0  0  0  0  0  0  0
   15.8296  -22.0158  -12.7917 C   0  0  0  0  0  0  0  0  0  0  0  0
   16.0848  -21.1343  -13.6417 O   0  0  0  0  0  0  0  0  0  0  0  0
   15.3115  -21.6208  -11.5772 O   0  0  0  0  0  0  0  0  0  0  0  0
  2  1  1  6
  2  5  1  0
  3  2  1  0
  4  3  1  0
  5  6  2  0
  5  7  1  0
  7  8  1  0
  8  9  1  1
  9 10  1  0
 10 11  1  0
 11 12  1  0
 13 12  1  0
 14 15  2  0
 14  8  1  0
 17 16  1  6
 17 18  1  0
 19 17  1  0
 19 20  1  1
 20 14  1  0
 21 19  1  0
 22 21  2  0
 23 21  1  0
M  END
$$$$
