CKV.pdb
     RDKit          3D

 23 22  0  0  1  0  0  0  0  0999 V2000
   14.9109  -11.3425  -11.2563 N   0  0  0  0  0  0  0  0  0  0  0  0
   14.9487  -10.0325  -11.8324 C   0  0  1  0  0  0  0  0  0  0  0  0
   15.1128   -8.9573  -10.7561 C   0  0  0  0  0  0  0  0  0  0  0  0
   13.6882   -8.8924   -9.6616 S   0  0  0  0  0  0  0  0  0  0  0  0
   16.0679   -9.9388  -12.8052 C   0  0  0  0  0  0  0  0  0  0  0  0
   17.1675  -10.5089  -12.5048 O   0  0  0  0  0  0  0  0  0  0  0  0
   15.9646   -9.2480  -14.0422 N   0  0  0  0  0  0  0  0  0  0  0  0
   17.0736   -9.2181  -14.9625 C   0  0  1  0  0  0  0  0  0  0  0  0
   16.6330   -8.9504  -16.3832 C   0  0  0  0  0  0  0  0  0  0  0  0
   16.3128  -10.2219  -17.1323 C   0  0  0  0  0  0  0  0  0  0  0  0
   14.8137  -10.4221  -17.0557 C   0  0  0  0  0  0  0  0  0  0  0  0
   14.3796  -11.6597  -17.8115 C   0  0  0  0  0  0  0  0  0  0  0  0
   14.7863  -12.8393  -17.0763 N   0  0  0  0  0  0  0  0  0  0  0  0
   18.1223   -8.2672  -14.5216 C   0  0  0  0  0  0  0  0  0  0  0  0
   17.7585   -7.2829  -13.8329 O   0  0  0  0  0  0  0  0  0  0  0  0
   22.8682   -7.1409  -13.7428 C   0  0  0  0  0  0  0  0  0  0  0  0
   21.8442   -8.1485  -14.1996 C   0  0  1  0  0  0  0  0  0  0  0  0
   21.7916   -9.2514  -13.1913 C   0  0  0  0  0  0  0  0  0  0  0  0
   20.5141   -7.4643  -14.3991 C   0  0  2  0  0  0  0  0  0  0  0  0
   19.4852   -8.3976  -14.8236 N   0  0  0  0  0  0  0  0  0  0  0  0
   20.6765   -6.3574  -15.3666 C   0  0  0  0  0  0  0  0  0  0  0  0
   20.5362   -6.5959  -16.5865 O   0  0  0  0  0  0  0  0  0  0  0  0
   20.9769   -5.0679  -14.9841 O   0  0  0  0  0  0  0  0  0  0  0  0
  2  1  1  1
  2  5  1  0
  3  2  1  0
  4  3  1  0
  5  6  2  0
  5  7  1  0
  7  8  1  0
  8  9  1  6
  9 10  1  0
 10 11  1  0
 11 12  1  0
 13 12  1  0
 14 15  2  0
 14  8  1  0
 17 16  1  1
 17 18  1  0
 19 17  1  0
 19 20  1  6
 20 14  1  0
 21 19  1  0
 22 21  2  0
 23 21  1  0
M  END
$$$$
