CKV.pdb
     RDKit          3D

 23 22  0  0  1  0  0  0  0  0999 V2000
   28.1057  -25.9104  -16.2172 N   0  0  0  0  0  0  0  0  0  0  0  0
   26.9082  -25.6421  -16.9543 C   0  0  1  0  0  0  0  0  0  0  0  0
   25.8104  -26.6533  -16.6172 C   0  0  0  0  0  0  0  0  0  0  0  0
   26.0664  -28.2169  -17.4664 S   0  0  0  0  0  0  0  0  0  0  0  0
   26.4278  -24.2676  -16.6579 C   0  0  0  0  0  0  0  0  0  0  0  0
   26.6022  -23.8172  -15.4784 O   0  0  0  0  0  0  0  0  0  0  0  0
   25.7894  -23.4440  -17.6233 N   0  0  0  0  0  0  0  0  0  0  0  0
   25.3313  -22.1225  -17.2748 C   0  0  1  0  0  0  0  0  0  0  0  0
   25.4398  -21.1545  -18.4304 C   0  0  0  0  0  0  0  0  0  0  0  0
   24.9559  -19.7713  -18.0656 C   0  0  0  0  0  0  0  0  0  0  0  0
   25.0881  -18.9090  -19.3035 C   0  0  0  0  0  0  0  0  0  0  0  0
   24.7109  -17.4705  -19.0208 C   0  0  0  0  0  0  0  0  0  0  0  0
   24.7986  -16.7011  -20.2446 N   0  0  0  0  0  0  0  0  0  0  0  0
   23.9620  -22.1524  -16.7069 C   0  0  0  0  0  0  0  0  0  0  0  0
   23.1540  -22.9837  -17.1879 O   0  0  0  0  0  0  0  0  0  0  0  0
   20.7001  -20.6291  -13.2695 C   0  0  0  0  0  0  0  0  0  0  0  0
   22.1215  -20.6427  -13.7717 C   0  0  1  0  0  0  0  0  0  0  0  0
   22.9814  -21.2729  -12.7233 C   0  0  0  0  0  0  0  0  0  0  0  0
   22.1833  -21.3594  -15.0981 C   0  0  2  0  0  0  0  0  0  0  0  0
   23.5164  -21.3161  -15.6735 N   0  0  0  0  0  0  0  0  0  0  0  0
   21.1774  -20.7776  -16.0130 C   0  0  0  0  0  0  0  0  0  0  0  0
   21.5089  -19.8183  -16.7442 O   0  0  0  0  0  0  0  0  0  0  0  0
   19.8840  -21.2461  -16.0979 O   0  0  0  0  0  0  0  0  0  0  0  0
  2  1  1  1
  2  5  1  0
  3  2  1  0
  4  3  1  0
  5  6  2  0
  5  7  1  0
  7  8  1  0
  8  9  1  6
  9 10  1  0
 10 11  1  0
 11 12  1  0
 13 12  1  0
 14 15  2  0
 14  8  1  0
 17 16  1  1
 17 18  1  0
 19 17  1  0
 19 20  1  6
 20 14  1  0
 21 19  1  0
 22 21  2  0
 23 21  1  0
M  END
$$$$
