CKV.pdb
     RDKit          3D

 23 22  0  0  1  0  0  0  0  0999 V2000
   26.1035  -20.1142  -10.2126 N   0  0  0  0  0  0  0  0  0  0  0  0
   26.5248  -20.3365  -11.5625 C   0  0  1  0  0  0  0  0  0  0  0  0
   26.8215  -21.8163  -11.8150 C   0  0  0  0  0  0  0  0  0  0  0  0
   28.3528  -22.3292  -11.0252 S   0  0  0  0  0  0  0  0  0  0  0  0
   25.4743  -19.8711  -12.5046 C   0  0  0  0  0  0  0  0  0  0  0  0
   24.3453  -19.5340  -12.0185 O   0  0  0  0  0  0  0  0  0  0  0  0
   25.6734  -19.7872  -13.9086 N   0  0  0  0  0  0  0  0  0  0  0  0
   24.6333  -19.2832  -14.7699 C   0  0  1  0  0  0  0  0  0  0  0  0
   25.1369  -18.9845  -16.1633 C   0  0  0  0  0  0  0  0  0  0  0  0
   26.2598  -17.9749  -16.1617 C   0  0  0  0  0  0  0  0  0  0  0  0
   26.7864  -17.8876  -17.5789 C   0  0  0  0  0  0  0  0  0  0  0  0
   27.9289  -16.9005  -17.6868 C   0  0  0  0  0  0  0  0  0  0  0  0
   28.4843  -16.9522  -19.0233 N   0  0  0  0  0  0  0  0  0  0  0  0
   23.4572  -20.1858  -14.7901 C   0  0  0  0  0  0  0  0  0  0  0  0
   23.6760  -21.4217  -14.7917 O   0  0  0  0  0  0  0  0  0  0  0  0
   18.9303  -21.2737  -13.5226 C   0  0  0  0  0  0  0  0  0  0  0  0
   20.1620  -20.4050  -13.4917 C   0  0  1  0  0  0  0  0  0  0  0  0
   20.9212  -20.7148  -12.2414 C   0  0  0  0  0  0  0  0  0  0  0  0
   20.9705  -20.6275  -14.7462 C   0  0  2  0  0  0  0  0  0  0  0  0
   22.1252  -19.7483  -14.8073 N   0  0  0  0  0  0  0  0  0  0  0  0
   20.0949  -20.4575  -15.9261 C   0  0  0  0  0  0  0  0  0  0  0  0
   19.8752  -19.3028  -16.3539 O   0  0  0  0  0  0  0  0  0  0  0  0
   19.5065  -21.5186  -16.5798 O   0  0  0  0  0  0  0  0  0  0  0  0
  2  1  1  1
  2  5  1  0
  3  2  1  0
  4  3  1  0
  5  6  2  0
  5  7  1  0
  7  8  1  0
  8  9  1  6
  9 10  1  0
 10 11  1  0
 11 12  1  0
 13 12  1  0
 14 15  2  0
 14  8  1  0
 17 16  1  6
 17 18  1  0
 19 17  1  0
 19 20  1  6
 20 14  1  0
 21 19  1  0
 22 21  2  0
 23 21  1  0
M  END
$$$$
