CKV.pdb
     RDKit          3D

 23 22  0  0  1  0  0  0  0  0999 V2000
   18.3179  -15.3394  -17.8010 N   0  0  0  0  0  0  0  0  0  0  0  0
   17.6900  -14.4287  -16.8923 C   0  0  1  0  0  0  0  0  0  0  0  0
   17.7012  -14.9745  -15.4629 C   0  0  0  0  0  0  0  0  0  0  0  0
   16.6968  -16.4578  -15.3121 S   0  0  0  0  0  0  0  0  0  0  0  0
   18.3845  -13.1157  -16.9298 C   0  0  0  0  0  0  0  0  0  0  0  0
   19.6522  -13.1160  -17.0616 O   0  0  0  0  0  0  0  0  0  0  0  0
   17.7021  -11.8741  -16.8261 N   0  0  0  0  0  0  0  0  0  0  0  0
   18.4132  -10.6294  -16.9778 C   0  0  1  0  0  0  0  0  0  0  0  0
   17.4864   -9.4706  -17.2647 C   0  0  0  0  0  0  0  0  0  0  0  0
   18.2381   -8.1850  -17.5151 C   0  0  0  0  0  0  0  0  0  0  0  0
   17.2069   -7.0919  -17.7025 C   0  0  0  0  0  0  0  0  0  0  0  0
   17.8574   -5.7670  -18.0387 C   0  0  0  0  0  0  0  0  0  0  0  0
   16.8356   -4.7489  -18.1682 N   0  0  0  0  0  0  0  0  0  0  0  0
   19.2917  -10.3584  -15.8146 C   0  0  0  0  0  0  0  0  0  0  0  0
   18.8349  -10.6104  -14.6730 O   0  0  0  0  0  0  0  0  0  0  0  0
   23.6686  -10.0273  -13.7434 C   0  0  0  0  0  0  0  0  0  0  0  0
   22.7925  -10.3162  -14.9357 C   0  0  1  0  0  0  0  0  0  0  0  0
   22.6546  -11.7994  -15.0657 C   0  0  0  0  0  0  0  0  0  0  0  0
   21.4687   -9.6100  -14.7747 C   0  0  2  0  0  0  0  0  0  0  0  0
   20.5917   -9.8417  -15.9092 N   0  0  0  0  0  0  0  0  0  0  0  0
   21.7100   -8.1667  -14.5602 C   0  0  0  0  0  0  0  0  0  0  0  0
   21.8304   -7.4197  -15.5564 O   0  0  0  0  0  0  0  0  0  0  0  0
   21.8089   -7.6032  -13.3064 O   0  0  0  0  0  0  0  0  0  0  0  0
  2  1  1  6
  2  5  1  0
  3  2  1  0
  4  3  1  0
  5  6  2  0
  5  7  1  0
  7  8  1  0
  8  9  1  1
  9 10  1  0
 10 11  1  0
 11 12  1  0
 13 12  1  0
 14 15  2  0
 14  8  1  0
 17 16  1  1
 17 18  1  0
 19 17  1  0
 19 20  1  6
 20 14  1  0
 21 19  1  0
 22 21  2  0
 23 21  1  0
M  END
$$$$
