CKV.pdb
     RDKit          3D

 23 22  0  0  1  0  0  0  0  0999 V2000
   28.8448  -19.5152  -17.6561 N   0  0  0  0  0  0  0  0  0  0  0  0
   28.1165  -20.5918  -17.0563 C   0  0  1  0  0  0  0  0  0  0  0  0
   29.0095  -21.4161  -16.1265 C   0  0  0  0  0  0  0  0  0  0  0  0
   28.1036  -22.7698  -15.3661 S   0  0  0  0  0  0  0  0  0  0  0  0
   26.9599  -20.0574  -16.2918 C   0  0  0  0  0  0  0  0  0  0  0  0
   27.1965  -19.2145  -15.3654 O   0  0  0  0  0  0  0  0  0  0  0  0
   25.6167  -20.4424  -16.5473 N   0  0  0  0  0  0  0  0  0  0  0  0
   24.5459  -19.9824  -15.6990 C   0  0  1  0  0  0  0  0  0  0  0  0
   23.2564  -19.7808  -16.4612 C   0  0  0  0  0  0  0  0  0  0  0  0
   22.1243  -19.3402  -15.5643 C   0  0  0  0  0  0  0  0  0  0  0  0
   21.4521  -18.1615  -16.2366 C   0  0  0  0  0  0  0  0  0  0  0  0
   20.3102  -17.6231  -15.4015 C   0  0  0  0  0  0  0  0  0  0  0  0
   19.7480  -16.4569  -16.0505 N   0  0  0  0  0  0  0  0  0  0  0  0
   24.3603  -20.8697  -14.5258 C   0  0  0  0  0  0  0  0  0  0  0  0
   24.3118  -22.1060  -14.7371 O   0  0  0  0  0  0  0  0  0  0  0  0
   26.3537  -21.4200  -11.5484 C   0  0  0  0  0  0  0  0  0  0  0  0
   24.9869  -21.1320  -10.9812 C   0  0  1  0  0  0  0  0  0  0  0  0
   25.0134  -19.7687  -10.3676 C   0  0  0  0  0  0  0  0  0  0  0  0
   23.9481  -21.2732  -12.0665 C   0  0  2  0  0  0  0  0  0  0  0  0
   24.2364  -20.4175  -13.2044 N   0  0  0  0  0  0  0  0  0  0  0  0
   22.6111  -20.9919  -11.5000 C   0  0  0  0  0  0  0  0  0  0  0  0
   22.0060  -19.9593  -11.8636 O   0  0  0  0  0  0  0  0  0  0  0  0
   21.9975  -21.8198  -10.5849 O   0  0  0  0  0  0  0  0  0  0  0  0
  2  1  1  1
  2  5  1  0
  3  2  1  0
  4  3  1  0
  5  6  2  0
  5  7  1  0
  7  8  1  0
  8  9  1  6
  9 10  1  0
 10 11  1  0
 11 12  1  0
 13 12  1  0
 14 15  2  0
 14  8  1  0
 17 16  1  6
 17 18  1  0
 19 17  1  0
 19 20  1  6
 20 14  1  0
 21 19  1  0
 22 21  2  0
 23 21  1  0
M  END
$$$$
