CKV.pdb
     RDKit          3D

 23 22  0  0  1  0  0  0  0  0999 V2000
   28.3063  -22.4453  -17.3749 N   0  0  0  0  0  0  0  0  0  0  0  0
   27.9799  -21.2577  -16.6453 C   0  0  1  0  0  0  0  0  0  0  0  0
   27.3633  -20.1965  -17.5590 C   0  0  0  0  0  0  0  0  0  0  0  0
   28.6198  -19.3235  -18.5028 S   0  0  0  0  0  0  0  0  0  0  0  0
   27.0325  -21.5816  -15.5475 C   0  0  0  0  0  0  0  0  0  0  0  0
   26.1016  -22.4173  -15.7914 O   0  0  0  0  0  0  0  0  0  0  0  0
   27.1199  -21.0051  -14.2521 N   0  0  0  0  0  0  0  0  0  0  0  0
   26.0892  -21.2393  -13.2720 C   0  0  1  0  0  0  0  0  0  0  0  0
   26.5022  -20.7948  -11.8878 C   0  0  0  0  0  0  0  0  0  0  0  0
   25.4385  -21.0791  -10.8543 C   0  0  0  0  0  0  0  0  0  0  0  0
   25.9703  -20.5996   -9.5199 C   0  0  0  0  0  0  0  0  0  0  0  0
   24.9848  -20.8648   -8.4019 C   0  0  0  0  0  0  0  0  0  0  0  0
   25.4828  -20.2813   -7.1736 N   0  0  0  0  0  0  0  0  0  0  0  0
   24.7988  -20.6358  -13.6832 C   0  0  0  0  0  0  0  0  0  0  0  0
   24.7939  -19.4109  -13.9569 O   0  0  0  0  0  0  0  0  0  0  0  0
   20.4667  -20.6413  -15.7676 C   0  0  0  0  0  0  0  0  0  0  0  0
   21.7861  -21.2946  -15.4436 C   0  0  1  0  0  0  0  0  0  0  0  0
   22.7127  -21.0731  -16.5960 C   0  0  0  0  0  0  0  0  0  0  0  0
   22.3173  -20.7455  -14.1423 C   0  0  2  0  0  0  0  0  0  0  0  0
   23.5922  -21.3427  -13.7847 N   0  0  0  0  0  0  0  0  0  0  0  0
   21.3068  -20.9454  -13.0811 C   0  0  0  0  0  0  0  0  0  0  0  0
   21.1967  -22.0758  -12.5569 O   0  0  0  0  0  0  0  0  0  0  0  0
   20.4759  -19.9380  -12.6403 O   0  0  0  0  0  0  0  0  0  0  0  0
  2  1  1  6
  2  5  1  0
  3  2  1  0
  4  3  1  0
  5  6  2  0
  5  7  1  0
  7  8  1  0
  8  9  1  1
  9 10  1  0
 10 11  1  0
 11 12  1  0
 13 12  1  0
 14 15  2  0
 14  8  1  0
 17 16  1  6
 17 18  1  0
 19 17  1  0
 19 20  1  1
 20 14  1  0
 21 19  1  0
 22 21  2  0
 23 21  1  0
M  END
$$$$
