CKV.pdb
     RDKit          3D

 23 22  0  0  1  0  0  0  0  0999 V2000
   16.7112  -14.0547  -17.9049 N   0  0  0  0  0  0  0  0  0  0  0  0
   17.5103  -13.0344  -18.5130 C   0  0  1  0  0  0  0  0  0  0  0  0
   16.6602  -11.8251  -18.9082 C   0  0  0  0  0  0  0  0  0  0  0  0
   15.5434  -12.2142  -20.2621 S   0  0  0  0  0  0  0  0  0  0  0  0
   18.5825  -12.6057  -17.5779 C   0  0  0  0  0  0  0  0  0  0  0  0
   18.2633  -12.3953  -16.3620 O   0  0  0  0  0  0  0  0  0  0  0  0
   19.9331  -12.4225  -17.9780 N   0  0  0  0  0  0  0  0  0  0  0  0
   20.9364  -12.0281  -17.0211 C   0  0  1  0  0  0  0  0  0  0  0  0
   22.2299  -12.7893  -17.1994 C   0  0  0  0  0  0  0  0  0  0  0  0
   23.2865  -12.3623  -16.2087 C   0  0  0  0  0  0  0  0  0  0  0  0
   24.5315  -13.1724  -16.5038 C   0  0  0  0  0  0  0  0  0  0  0  0
   25.6553  -12.8308  -15.5490 C   0  0  0  0  0  0  0  0  0  0  0  0
   26.8479  -13.5585  -15.9302 N   0  0  0  0  0  0  0  0  0  0  0  0
   21.1534  -10.5615  -17.0320 C   0  0  0  0  0  0  0  0  0  0  0  0
   21.5813  -10.0475  -18.0941 O   0  0  0  0  0  0  0  0  0  0  0  0
   19.4380   -7.8068  -17.6444 C   0  0  0  0  0  0  0  0  0  0  0  0
   19.8920   -7.5083  -16.2382 C   0  0  1  0  0  0  0  0  0  0  0  0
   18.7670   -7.8272  -15.3063 C   0  0  0  0  0  0  0  0  0  0  0  0
   21.1497   -8.2855  -15.9362 C   0  0  2  0  0  0  0  0  0  0  0  0
   20.9123   -9.7185  -15.9378 N   0  0  0  0  0  0  0  0  0  0  0  0
   21.7061   -7.8282  -14.6444 C   0  0  0  0  0  0  0  0  0  0  0  0
   21.6010   -8.5720  -13.6441 O   0  0  0  0  0  0  0  0  0  0  0  0
   22.3386   -6.6134  -14.4906 O   0  0  0  0  0  0  0  0  0  0  0  0
  2  1  1  1
  2  5  1  0
  3  2  1  0
  4  3  1  0
  5  6  2  0
  5  7  1  0
  7  8  1  0
  8  9  1  6
  9 10  1  0
 10 11  1  0
 11 12  1  0
 13 12  1  0
 14 15  2  0
 14  8  1  0
 17 16  1  6
 17 18  1  0
 19 17  1  0
 19 20  1  1
 20 14  1  0
 21 19  1  0
 22 21  2  0
 23 21  1  0
M  END
$$$$
