CKV.pdb
     RDKit          3D

 23 22  0  0  1  0  0  0  0  0999 V2000
   16.8962  -14.4583  -17.3330 N   0  0  0  0  0  0  0  0  0  0  0  0
   16.6126  -13.5197  -16.2901 C   0  0  1  0  0  0  0  0  0  0  0  0
   16.9295  -14.1072  -14.9132 C   0  0  0  0  0  0  0  0  0  0  0  0
   15.7401  -15.3700  -14.4419 S   0  0  0  0  0  0  0  0  0  0  0  0
   17.4032  -12.2787  -16.4963 C   0  0  0  0  0  0  0  0  0  0  0  0
   18.5750  -12.3932  -16.9844 O   0  0  0  0  0  0  0  0  0  0  0  0
   16.9131  -10.9845  -16.1758 N   0  0  0  0  0  0  0  0  0  0  0  0
   17.7274   -9.8152  -16.3933 C   0  0  1  0  0  0  0  0  0  0  0  0
   16.9059   -8.5482  -16.4595 C   0  0  0  0  0  0  0  0  0  0  0  0
   17.7574   -7.3265  -16.7102 C   0  0  0  0  0  0  0  0  0  0  0  0
   16.8311   -6.1286  -16.7195 C   0  0  0  0  0  0  0  0  0  0  0  0
   17.5659   -4.8616  -17.1019 C   0  0  0  0  0  0  0  0  0  0  0  0
   16.7028   -3.7199  -16.8811 N   0  0  0  0  0  0  0  0  0  0  0  0
   18.8161   -9.7151  -15.3918 C   0  0  0  0  0  0  0  0  0  0  0  0
   18.5344   -9.9936  -14.2009 O   0  0  0  0  0  0  0  0  0  0  0  0
   23.4796   -9.8082  -14.0301 C   0  0  0  0  0  0  0  0  0  0  0  0
   22.4254   -9.9651  -15.0963 C   0  0  1  0  0  0  0  0  0  0  0  0
   22.1682  -11.4255  -15.2877 C   0  0  0  0  0  0  0  0  0  0  0  0
   21.1900   -9.1922  -14.7048 C   0  0  2  0  0  0  0  0  0  0  0  0
   20.1314   -9.3315  -15.6897 N   0  0  0  0  0  0  0  0  0  0  0  0
   21.5505   -7.7738  -14.4913 C   0  0  0  0  0  0  0  0  0  0  0  0
   21.5124   -6.9878  -15.4637 O   0  0  0  0  0  0  0  0  0  0  0  0
   21.9287   -7.2749  -13.2635 O   0  0  0  0  0  0  0  0  0  0  0  0
  2  1  1  6
  2  5  1  0
  3  2  1  0
  4  3  1  0
  5  6  2  0
  5  7  1  0
  7  8  1  0
  8  9  1  1
  9 10  1  0
 10 11  1  0
 11 12  1  0
 13 12  1  0
 14 15  2  0
 14  8  1  0
 17 16  1  1
 17 18  1  0
 19 17  1  0
 19 20  1  6
 20 14  1  0
 21 19  1  0
 22 21  2  0
 23 21  1  0
M  END
$$$$
