CKV.pdb
     RDKit          3D

 23 22  0  0  1  0  0  0  0  0999 V2000
   26.9196  -21.5811  -14.5145 N   0  0  0  0  0  0  0  0  0  0  0  0
   26.3775  -20.4230  -13.8709 C   0  0  1  0  0  0  0  0  0  0  0  0
   26.4309  -19.2009  -14.7900 C   0  0  0  0  0  0  0  0  0  0  0  0
   28.1097  -18.5861  -14.9781 S   0  0  0  0  0  0  0  0  0  0  0  0
   24.9715  -20.6803  -13.4650 C   0  0  0  0  0  0  0  0  0  0  0  0
   24.2665  -21.4393  -14.2077 O   0  0  0  0  0  0  0  0  0  0  0  0
   24.3868  -20.1219  -12.2970 N   0  0  0  0  0  0  0  0  0  0  0  0
   23.0350  -20.4527  -11.9213 C   0  0  1  0  0  0  0  0  0  0  0  0
   22.6626  -19.8931  -10.5677 C   0  0  0  0  0  0  0  0  0  0  0  0
   21.2689  -20.2939  -10.1465 C   0  0  0  0  0  0  0  0  0  0  0  0
   21.3336  -21.7395   -9.7002 C   0  0  0  0  0  0  0  0  0  0  0  0
   19.9732  -22.2514   -9.2774 C   0  0  0  0  0  0  0  0  0  0  0  0
   20.0607  -23.6680   -8.9896 N   0  0  0  0  0  0  0  0  0  0  0  0
   22.0649  -20.0536  -12.9692 C   0  0  0  0  0  0  0  0  0  0  0  0
   22.0808  -18.8568  -13.3471 O   0  0  0  0  0  0  0  0  0  0  0  0
   19.0841  -21.0698  -16.7149 C   0  0  0  0  0  0  0  0  0  0  0  0
   20.1453  -21.4909  -15.7304 C   0  0  1  0  0  0  0  0  0  0  0  0
   21.4512  -21.5664  -16.4548 C   0  0  0  0  0  0  0  0  0  0  0  0
   20.1677  -20.5295  -14.5675 C   0  0  2  0  0  0  0  0  0  0  0  0
   21.1374  -20.9233  -13.5602 N   0  0  0  0  0  0  0  0  0  0  0  0
   18.8066  -20.4218  -13.9988 C   0  0  0  0  0  0  0  0  0  0  0  0
   18.0725  -19.4770  -14.3637 O   0  0  0  0  0  0  0  0  0  0  0  0
   18.3067  -21.3195  -13.0803 O   0  0  0  0  0  0  0  0  0  0  0  0
  2  1  1  6
  2  5  1  0
  3  2  1  0
  4  3  1  0
  5  6  2  0
  5  7  1  0
  7  8  1  0
  8  9  1  1
  9 10  1  0
 10 11  1  0
 11 12  1  0
 13 12  1  0
 14 15  2  0
 14  8  1  0
 17 16  1  6
 17 18  1  0
 19 17  1  0
 19 20  1  1
 20 14  1  0
 21 19  1  0
 22 21  2  0
 23 21  1  0
M  END
$$$$
