CKV.pdb
     RDKit          3D

 23 22  0  0  1  0  0  0  0  0999 V2000
   18.2155  -10.5272  -14.4105 N   0  0  0  0  0  0  0  0  0  0  0  0
   18.4850  -10.0203  -13.0992 C   0  0  1  0  0  0  0  0  0  0  0  0
   19.6539   -9.0329  -13.1150 C   0  0  0  0  0  0  0  0  0  0  0  0
   21.2040   -9.8475  -13.5216 S   0  0  0  0  0  0  0  0  0  0  0  0
   17.2748   -9.3512  -12.5558 C   0  0  0  0  0  0  0  0  0  0  0  0
   16.7038   -8.4723  -13.2811 O   0  0  0  0  0  0  0  0  0  0  0  0
   16.7336   -9.6468  -11.2761 N   0  0  0  0  0  0  0  0  0  0  0  0
   15.5350   -8.9919  -10.8155 C   0  0  1  0  0  0  0  0  0  0  0  0
   14.5981   -9.9427  -10.1066 C   0  0  0  0  0  0  0  0  0  0  0  0
   13.3398   -9.2572   -9.6300 C   0  0  0  0  0  0  0  0  0  0  0  0
   12.4457  -10.3245   -9.0344 C   0  0  0  0  0  0  0  0  0  0  0  0
   11.1589   -9.7348   -8.4980 C   0  0  0  0  0  0  0  0  0  0  0  0
   10.2611  -10.8056   -8.1178 N   0  0  0  0  0  0  0  0  0  0  0  0
   15.8475   -7.8039   -9.9853 C   0  0  0  0  0  0  0  0  0  0  0  0
   16.6955   -7.9439   -9.0706 O   0  0  0  0  0  0  0  0  0  0  0  0
   16.0954   -2.9611   -9.3410 C   0  0  0  0  0  0  0  0  0  0  0  0
   15.7821   -4.1471  -10.2174 C   0  0  1  0  0  0  0  0  0  0  0  0
   16.8912   -4.3020  -11.2081 C   0  0  0  0  0  0  0  0  0  0  0  0
   15.5789   -5.3715   -9.3592 C   0  0  2  0  0  0  0  0  0  0  0  0
   15.2594   -6.5428  -10.1568 N   0  0  0  0  0  0  0  0  0  0  0  0
   14.5282   -5.0939   -8.3561 C   0  0  0  0  0  0  0  0  0  0  0  0
   13.3363   -5.3396   -8.6458 O   0  0  0  0  0  0  0  0  0  0  0  0
   14.8029   -4.5742   -7.1096 O   0  0  0  0  0  0  0  0  0  0  0  0
  2  1  1  6
  2  5  1  0
  3  2  1  0
  4  3  1  0
  5  6  2  0
  5  7  1  0
  7  8  1  0
  8  9  1  1
  9 10  1  0
 10 11  1  0
 11 12  1  0
 13 12  1  0
 14 15  2  0
 14  8  1  0
 17 16  1  1
 17 18  1  0
 19 17  1  0
 19 20  1  6
 20 14  1  0
 21 19  1  0
 22 21  2  0
 23 21  1  0
M  END
$$$$
