CKV.pdb
     RDKit          3D

 23 22  0  0  1  0  0  0  0  0999 V2000
   25.6238  -15.4350  -17.1578 N   0  0  0  0  0  0  0  0  0  0  0  0
   26.0888  -15.7323  -15.8370 C   0  0  1  0  0  0  0  0  0  0  0  0
   25.3121  -14.9398  -14.7834 C   0  0  0  0  0  0  0  0  0  0  0  0
   25.5460  -13.1685  -14.9809 S   0  0  0  0  0  0  0  0  0  0  0  0
   25.9525  -17.1870  -15.5671 C   0  0  0  0  0  0  0  0  0  0  0  0
   24.7867  -17.6982  -15.6322 O   0  0  0  0  0  0  0  0  0  0  0  0
   27.0547  -18.0225  -15.2432 N   0  0  0  0  0  0  0  0  0  0  0  0
   26.8619  -19.4279  -14.9875 C   0  0  1  0  0  0  0  0  0  0  0  0
   27.7033  -20.2966  -15.8940 C   0  0  0  0  0  0  0  0  0  0  0  0
   27.4561  -21.7689  -15.6668 C   0  0  0  0  0  0  0  0  0  0  0  0
   28.3525  -22.5270  -16.6233 C   0  0  0  0  0  0  0  0  0  0  0  0
   27.5586  -23.1537  -17.7495 C   0  0  0  0  0  0  0  0  0  0  0  0
   28.4694  -23.7228  -18.7211 N   0  0  0  0  0  0  0  0  0  0  0  0
   27.0733  -19.7558  -13.5571 C   0  0  0  0  0  0  0  0  0  0  0  0
   28.1848  -19.4612  -13.0540 O   0  0  0  0  0  0  0  0  0  0  0  0
   25.7645  -21.0500   -9.0492 C   0  0  0  0  0  0  0  0  0  0  0  0
   25.4854  -20.3727  -10.3668 C   0  0  1  0  0  0  0  0  0  0  0  0
   25.6466  -18.8983  -10.1777 C   0  0  0  0  0  0  0  0  0  0  0  0
   26.3964  -20.9368  -11.4293 C   0  0  2  0  0  0  0  0  0  0  0  0
   26.1162  -20.3701  -12.7371 N   0  0  0  0  0  0  0  0  0  0  0  0
   26.2781  -22.4111  -11.4392 C   0  0  0  0  0  0  0  0  0  0  0  0
   25.5001  -22.9492  -12.2577 O   0  0  0  0  0  0  0  0  0  0  0  0
   26.9896  -23.2241  -10.5835 O   0  0  0  0  0  0  0  0  0  0  0  0
  2  1  1  6
  2  5  1  0
  3  2  1  0
  4  3  1  0
  5  6  2  0
  5  7  1  0
  7  8  1  0
  8  9  1  6
  9 10  1  0
 10 11  1  0
 11 12  1  0
 13 12  1  0
 14 15  2  0
 14  8  1  0
 17 16  1  1
 17 18  1  0
 19 17  1  0
 19 20  1  6
 20 14  1  0
 21 19  1  0
 22 21  2  0
 23 21  1  0
M  END
$$$$
