CKV.pdb
     RDKit          3D

 23 22  0  0  1  0  0  0  0  0999 V2000
   23.7359  -16.9927  -18.5446 N   0  0  0  0  0  0  0  0  0  0  0  0
   23.3674  -16.8299  -17.1710 C   0  0  1  0  0  0  0  0  0  0  0  0
   22.1556  -15.9067  -17.0269 C   0  0  0  0  0  0  0  0  0  0  0  0
   22.6501  -14.1886  -16.8391 S   0  0  0  0  0  0  0  0  0  0  0  0
   23.0605  -18.1528  -16.5682 C   0  0  0  0  0  0  0  0  0  0  0  0
   22.2994  -18.9416  -17.2187 O   0  0  0  0  0  0  0  0  0  0  0  0
   23.5742  -18.5705  -15.3114 N   0  0  0  0  0  0  0  0  0  0  0  0
   23.2726  -19.8811  -14.7927 C   0  0  1  0  0  0  0  0  0  0  0  0
   24.2993  -20.3506  -13.7878 C   0  0  0  0  0  0  0  0  0  0  0  0
   24.0722  -21.7820  -13.3638 C   0  0  0  0  0  0  0  0  0  0  0  0
   24.6482  -22.6678  -14.4487 C   0  0  0  0  0  0  0  0  0  0  0  0
   24.3596  -24.1298  -14.1830 C   0  0  0  0  0  0  0  0  0  0  0  0
   24.9243  -24.9326  -15.2479 N   0  0  0  0  0  0  0  0  0  0  0  0
   21.8957  -19.9477  -14.2468 C   0  0  0  0  0  0  0  0  0  0  0  0
   21.6497  -19.2787  -13.2137 O   0  0  0  0  0  0  0  0  0  0  0  0
   18.4257  -19.8791  -16.2115 C   0  0  0  0  0  0  0  0  0  0  0  0
   18.4804  -21.0686  -15.2869 C   0  0  1  0  0  0  0  0  0  0  0  0
   18.7315  -22.2903  -16.1116 C   0  0  0  0  0  0  0  0  0  0  0  0
   19.5329  -20.8407  -14.2299 C   0  0  2  0  0  0  0  0  0  0  0  0
   20.8585  -20.7058  -14.8083 N   0  0  0  0  0  0  0  0  0  0  0  0
   19.4794  -21.9422  -13.2444 C   0  0  0  0  0  0  0  0  0  0  0  0
   18.5382  -21.9708  -12.4209 O   0  0  0  0  0  0  0  0  0  0  0  0
   20.4239  -22.9443  -13.1910 O   0  0  0  0  0  0  0  0  0  0  0  0
  2  1  1  6
  2  5  1  0
  3  2  1  0
  4  3  1  0
  5  6  2  0
  5  7  1  0
  7  8  1  0
  8  9  1  1
  9 10  1  0
 10 11  1  0
 11 12  1  0
 13 12  1  0
 14 15  2  0
 14  8  1  0
 17 16  1  6
 17 18  1  0
 19 17  1  0
 19 20  1  6
 20 14  1  0
 21 19  1  0
 22 21  2  0
 23 21  1  0
M  END
$$$$
