CWQ.pdb
     RDKit          3D

 30 31  0  0  1  0  0  0  0  0999 V2000
   27.6886  -20.0091  -12.4352 N   0  0  0  0  0  0  0  0  0  0  0  0
   28.1007  -21.2173  -11.7599 C   0  0  1  0  0  0  0  0  0  0  0  0
   29.5626  -21.1815  -11.4633 C   0  0  0  0  0  0  0  0  0  0  0  0
   30.4403  -21.0874  -13.0643 S   0  0  0  0  0  0  0  0  0  0  0  0
   27.2579  -21.5009  -10.5691 C   0  0  0  0  0  0  0  0  0  0  0  0
   27.4440  -22.5581   -9.9128 O   0  0  0  0  0  0  0  0  0  0  0  0
   26.2348  -20.6317  -10.1197 N   0  0  0  0  0  0  0  0  0  0  0  0
   25.3991  -20.8333   -8.9785 C   0  0  1  0  0  0  0  0  0  0  0  0
   25.3539  -19.6503   -8.0494 C   0  0  0  0  0  0  0  0  0  0  0  0
   26.6352  -19.3676   -7.3900 C   0  0  0  0  0  0  0  0  0  0  0  0
   27.6217  -18.4990   -7.7963 C   0  0  0  0  0  0  0  0  0  0  0  0
   28.6311  -18.5293   -6.9223 N   0  0  0  0  0  0  0  0  0  0  0  0
   28.3224  -19.4063   -5.9462 C   0  0  0  0  0  0  0  0  0  0  0  0
   28.9788  -19.8278   -4.8132 C   0  0  0  0  0  0  0  0  0  0  0  0
   28.4258  -20.7646   -3.9533 C   0  0  0  0  0  0  0  0  0  0  0  0
   27.1907  -21.3001   -4.2192 C   0  0  0  0  0  0  0  0  0  0  0  0
   26.5333  -20.8719   -5.3624 C   0  0  0  0  0  0  0  0  0  0  0  0
   27.0816  -19.9390   -6.2206 C   0  0  0  0  0  0  0  0  0  0  0  0
   24.0121  -21.0940   -9.4424 C   0  0  0  0  0  0  0  0  0  0  0  0
   23.6855  -20.8247  -10.6160 O   0  0  0  0  0  0  0  0  0  0  0  0
   19.5638  -24.1621   -5.9221 N   0  0  0  0  0  0  0  0  0  0  0  0
   18.9290  -23.8133   -7.1337 C   0  0  0  0  0  0  0  0  0  0  0  0
   17.6939  -24.1133   -7.3216 O   0  0  0  0  0  0  0  0  0  0  0  0
   19.5816  -23.1032   -8.2387 C   0  0  0  0  0  0  0  0  0  0  0  0
   20.9930  -22.7133   -8.0424 C   0  0  0  0  0  0  0  0  0  0  0  0
   21.6576  -21.9213   -9.1187 C   0  0  2  0  0  0  0  0  0  0  0  0
   23.0179  -21.6462   -8.5995 N   0  0  0  0  0  0  0  0  0  0  0  0
   21.0229  -20.6687   -9.5292 C   0  0  0  0  0  0  0  0  0  0  0  0
   20.0690  -20.5267  -10.5263 O   0  0  0  0  0  0  0  0  0  0  0  0
   21.3630  -19.6018   -8.9398 O   0  0  0  0  0  0  0  0  0  0  0  0
  2  1  1  1
  2  5  1  0
  3  2  1  0
  4  3  1  0
  5  7  1  0
  6  5  2  0
  7  8  1  0
  8 19  1  0
  8  9  1  1
  9 10  1  0
 10 18  1  0
 11 10  2  0
 11 12  1  0
 12 13  1  0
 13 14  1  0
 14 15  2  0
 16 15  1  0
 17 16  2  0
 18 13  2  0
 18 17  1  0
 19 27  1  0
 20 19  2  0
 21 22  1  0
 22 24  1  0
 22 23  2  0
 24 25  1  0
 26 25  1  1
 26 28  1  0
 27 26  1  0
 28 30  2  0
 28 29  1  0
M  END
$$$$
