CWQ.pdb
     RDKit          3D

 30 31  0  0  1  0  0  0  0  0999 V2000
   27.2230  -18.0045  -14.6956 N   0  0  0  0  0  0  0  0  0  0  0  0
   27.8123  -19.3157  -14.8334 C   0  0  1  0  0  0  0  0  0  0  0  0
   29.2883  -19.2536  -14.6237 C   0  0  0  0  0  0  0  0  0  0  0  0
   29.9365  -17.9308  -15.7067 S   0  0  0  0  0  0  0  0  0  0  0  0
   27.1308  -20.3217  -13.9778 C   0  0  0  0  0  0  0  0  0  0  0  0
   27.4828  -21.5284  -14.0358 O   0  0  0  0  0  0  0  0  0  0  0  0
   26.0851  -19.9949  -13.0812 N   0  0  0  0  0  0  0  0  0  0  0  0
   25.4225  -20.8982  -12.1946 C   0  0  1  0  0  0  0  0  0  0  0  0
   25.5569  -20.5236  -10.7432 C   0  0  0  0  0  0  0  0  0  0  0  0
   26.8746  -20.8316  -10.1731 C   0  0  0  0  0  0  0  0  0  0  0  0
   27.8988  -21.5473  -10.7491 C   0  0  0  0  0  0  0  0  0  0  0  0
   28.9329  -21.6044   -9.9060 N   0  0  0  0  0  0  0  0  0  0  0  0
   28.6034  -20.9360   -8.7827 C   0  0  0  0  0  0  0  0  0  0  0  0
   29.2702  -20.6773   -7.6077 C   0  0  0  0  0  0  0  0  0  0  0  0
   28.6899  -19.9451   -6.5831 C   0  0  0  0  0  0  0  0  0  0  0  0
   27.4158  -19.4546   -6.7223 C   0  0  0  0  0  0  0  0  0  0  0  0
   26.7481  -19.7180   -7.9085 C   0  0  0  0  0  0  0  0  0  0  0  0
   27.3236  -20.4470   -8.9307 C   0  0  0  0  0  0  0  0  0  0  0  0
   23.9736  -20.9129  -12.5229 C   0  0  0  0  0  0  0  0  0  0  0  0
   23.3581  -19.8390  -12.6789 O   0  0  0  0  0  0  0  0  0  0  0  0
   20.8158  -26.1947  -14.3877 N   0  0  0  0  0  0  0  0  0  0  0  0
   19.8411  -25.1773  -14.3005 C   0  0  0  0  0  0  0  0  0  0  0  0
   18.6212  -25.4272  -14.6172 O   0  0  0  0  0  0  0  0  0  0  0  0
   20.1097  -23.8060  -13.8550 C   0  0  0  0  0  0  0  0  0  0  0  0
   21.5012  -23.4867  -13.4750 C   0  0  0  0  0  0  0  0  0  0  0  0
   21.8175  -22.0795  -13.0910 C   0  0  2  0  0  0  0  0  0  0  0  0
   23.2382  -22.1132  -12.6714 N   0  0  0  0  0  0  0  0  0  0  0  0
   21.0065  -21.4647  -12.0401 C   0  0  0  0  0  0  0  0  0  0  0  0
   21.1942  -21.6131  -10.6736 O   0  0  0  0  0  0  0  0  0  0  0  0
   20.0347  -20.7305  -12.3835 O   0  0  0  0  0  0  0  0  0  0  0  0
  2  1  1  1
  2  5  1  0
  3  2  1  0
  4  3  1  0
  5  7  1  0
  6  5  2  0
  7  8  1  0
  8 19  1  0
  8  9  1  1
  9 10  1  0
 10 18  1  0
 11 10  2  0
 11 12  1  0
 12 13  1  0
 13 14  1  0
 14 15  2  0
 16 15  1  0
 17 16  2  0
 18 13  2  0
 18 17  1  0
 19 27  1  0
 20 19  2  0
 21 22  1  0
 22 24  1  0
 22 23  2  0
 24 25  1  0
 26 25  1  1
 26 28  1  0
 27 26  1  0
 28 30  2  0
 28 29  1  0
M  END
$$$$
