CWQ.pdb
     RDKit          3D

 30 31  0  0  1  0  0  0  0  0999 V2000
   20.3157  -14.3959  -17.3448 N   0  0  0  0  0  0  0  0  0  0  0  0
   20.1863  -12.9904  -17.6503 C   0  0  1  0  0  0  0  0  0  0  0  0
   18.8027  -12.5141  -17.3587 C   0  0  0  0  0  0  0  0  0  0  0  0
   18.7220  -10.7513  -17.8372 S   0  0  0  0  0  0  0  0  0  0  0  0
   21.2458  -12.1812  -16.9935 C   0  0  0  0  0  0  0  0  0  0  0  0
   21.4692  -12.3293  -15.7641 O   0  0  0  0  0  0  0  0  0  0  0  0
   22.0362  -11.2322  -17.6853 N   0  0  0  0  0  0  0  0  0  0  0  0
   22.9999  -10.3531  -17.1023 C   0  0  1  0  0  0  0  0  0  0  0  0
   24.3808  -10.5055  -17.6809 C   0  0  0  0  0  0  0  0  0  0  0  0
   25.0365  -11.7689  -17.3200 C   0  0  0  0  0  0  0  0  0  0  0  0
   24.7071  -13.0399  -17.7307 C   0  0  0  0  0  0  0  0  0  0  0  0
   25.5472  -13.9193  -17.1788 N   0  0  0  0  0  0  0  0  0  0  0  0
   26.4251  -13.2442  -16.4101 C   0  0  0  0  0  0  0  0  0  0  0  0
   27.4868  -13.6319  -15.6261 C   0  0  0  0  0  0  0  0  0  0  0  0
   28.2485  -12.7133  -14.9199 C   0  0  0  0  0  0  0  0  0  0  0  0
   27.9539  -11.3748  -14.9895 C   0  0  0  0  0  0  0  0  0  0  0  0
   26.8828  -10.9893  -15.7811 C   0  0  0  0  0  0  0  0  0  0  0  0
   26.1225  -11.9020  -16.4857 C   0  0  0  0  0  0  0  0  0  0  0  0
   22.5680   -8.9505  -17.3329 C   0  0  0  0  0  0  0  0  0  0  0  0
   22.0388   -8.6306  -18.4165 O   0  0  0  0  0  0  0  0  0  0  0  0
   20.5846   -8.9315  -14.2427 N   0  0  0  0  0  0  0  0  0  0  0  0
   19.6279   -8.2417  -15.0182 C   0  0  0  0  0  0  0  0  0  0  0  0
   18.4571   -8.7425  -15.1890 O   0  0  0  0  0  0  0  0  0  0  0  0
   19.8617   -6.9470  -15.6665 C   0  0  0  0  0  0  0  0  0  0  0  0
   21.2053   -6.3534  -15.5094 C   0  0  0  0  0  0  0  0  0  0  0  0
   22.1997   -6.5712  -16.6010 C   0  0  2  0  0  0  0  0  0  0  0  0
   22.7303   -7.9338  -16.3615 N   0  0  0  0  0  0  0  0  0  0  0  0
   23.3073   -5.6216  -16.7087 C   0  0  0  0  0  0  0  0  0  0  0  0
   23.2021   -4.2821  -17.0537 O   0  0  0  0  0  0  0  0  0  0  0  0
   24.4797   -6.0376  -16.4769 O   0  0  0  0  0  0  0  0  0  0  0  0
  2  1  1  1
  2  5  1  0
  3  2  1  0
  4  3  1  0
  5  7  1  0
  6  5  2  0
  7  8  1  0
  8 19  1  0
  8  9  1  6
  9 10  1  0
 10 18  1  0
 11 10  2  0
 11 12  1  0
 12 13  1  0
 13 14  1  0
 14 15  2  0
 16 15  1  0
 17 16  2  0
 18 13  2  0
 18 17  1  0
 19 27  1  0
 20 19  2  0
 21 22  1  0
 22 24  1  0
 22 23  2  0
 24 25  1  0
 26 25  1  1
 26 28  1  0
 27 26  1  0
 28 30  2  0
 28 29  1  0
M  END
$$$$
