CWQ.pdb
     RDKit          3D

 30 31  0  0  1  0  0  0  0  0999 V2000
   25.4126  -21.7726  -15.7270 N   0  0  0  0  0  0  0  0  0  0  0  0
   24.5844  -22.7030  -14.9964 C   0  0  1  0  0  0  0  0  0  0  0  0
   25.4111  -23.5216  -14.0622 C   0  0  0  0  0  0  0  0  0  0  0  0
   26.2446  -24.8083  -15.0583 S   0  0  0  0  0  0  0  0  0  0  0  0
   23.4373  -22.0247  -14.3386 C   0  0  0  0  0  0  0  0  0  0  0  0
   23.6452  -21.0298  -13.5969 O   0  0  0  0  0  0  0  0  0  0  0  0
   22.0942  -22.4415  -14.5011 N   0  0  0  0  0  0  0  0  0  0  0  0
   20.9571  -21.9026  -13.8244 C   0  0  1  0  0  0  0  0  0  0  0  0
   20.0634  -21.0790  -14.7120 C   0  0  0  0  0  0  0  0  0  0  0  0
   20.5299  -19.6999  -14.9038 C   0  0  0  0  0  0  0  0  0  0  0  0
   21.2356  -19.1863  -15.9673 C   0  0  0  0  0  0  0  0  0  0  0  0
   21.4689  -17.8873  -15.7627 N   0  0  0  0  0  0  0  0  0  0  0  0
   20.9265  -17.5389  -14.5788 C   0  0  0  0  0  0  0  0  0  0  0  0
   20.8641  -16.3555  -13.8803 C   0  0  0  0  0  0  0  0  0  0  0  0
   20.2289  -16.2642  -12.6511 C   0  0  0  0  0  0  0  0  0  0  0  0
   19.6389  -17.3719  -12.0960 C   0  0  0  0  0  0  0  0  0  0  0  0
   19.7046  -18.5622  -12.8040 C   0  0  0  0  0  0  0  0  0  0  0  0
   20.3365  -18.6560  -14.0285 C   0  0  0  0  0  0  0  0  0  0  0  0
   20.1457  -23.0246  -13.2860 C   0  0  0  0  0  0  0  0  0  0  0  0
   19.9867  -24.0607  -13.9627 O   0  0  0  0  0  0  0  0  0  0  0  0
   18.7626  -24.2189   -6.8966 N   0  0  0  0  0  0  0  0  0  0  0  0
   18.8816  -25.2965   -7.8005 C   0  0  0  0  0  0  0  0  0  0  0  0
   19.3519  -26.4228   -7.3993 O   0  0  0  0  0  0  0  0  0  0  0  0
   18.4927  -25.2418   -9.2136 C   0  0  0  0  0  0  0  0  0  0  0  0
   19.1839  -24.2471  -10.0594 C   0  0  0  0  0  0  0  0  0  0  0  0
   18.7814  -24.1456  -11.4931 C   0  0  2  0  0  0  0  0  0  0  0  0
   19.5289  -22.9766  -12.0130 N   0  0  0  0  0  0  0  0  0  0  0  0
   17.3568  -23.9922  -11.7883 C   0  0  0  0  0  0  0  0  0  0  0  0
   16.6447  -22.8017  -11.7733 O   0  0  0  0  0  0  0  0  0  0  0  0
   16.6893  -25.0266  -12.0811 O   0  0  0  0  0  0  0  0  0  0  0  0
  2  1  1  1
  2  5  1  0
  3  2  1  0
  4  3  1  0
  5  7  1  0
  6  5  2  0
  7  8  1  0
  8 19  1  0
  8  9  1  6
  9 10  1  0
 10 18  1  0
 11 10  2  0
 11 12  1  0
 12 13  1  0
 13 14  1  0
 14 15  2  0
 16 15  1  0
 17 16  2  0
 18 13  2  0
 18 17  1  0
 19 27  1  0
 20 19  2  0
 21 22  1  0
 22 24  1  0
 22 23  2  0
 24 25  1  0
 26 25  1  1
 26 28  1  0
 27 26  1  0
 28 30  2  0
 28 29  1  0
M  END
$$$$
