CWQ.pdb
     RDKit          3D

 30 31  0  0  1  0  0  0  0  0999 V2000
   28.5794  -23.6211  -16.4171 N   0  0  0  0  0  0  0  0  0  0  0  0
   27.9549  -22.3465  -16.1506 C   0  0  1  0  0  0  0  0  0  0  0  0
   27.2773  -21.8269  -17.3742 C   0  0  0  0  0  0  0  0  0  0  0  0
   28.5656  -21.5869  -18.6491 S   0  0  0  0  0  0  0  0  0  0  0  0
   27.0703  -22.4020  -14.9577 C   0  0  0  0  0  0  0  0  0  0  0  0
   26.4800  -23.4755  -14.6705 O   0  0  0  0  0  0  0  0  0  0  0  0
   26.8476  -21.2931  -14.1064 N   0  0  0  0  0  0  0  0  0  0  0  0
   25.9971  -21.2695  -12.9587 C   0  0  1  0  0  0  0  0  0  0  0  0
   26.3879  -20.2314  -11.9415 C   0  0  0  0  0  0  0  0  0  0  0  0
   27.5359  -20.6196  -11.1122 C   0  0  0  0  0  0  0  0  0  0  0  0
   28.7584  -21.0932  -11.5291 C   0  0  0  0  0  0  0  0  0  0  0  0
   29.5311  -21.3315  -10.4662 N   0  0  0  0  0  0  0  0  0  0  0  0
   28.8336  -21.0212   -9.3551 C   0  0  0  0  0  0  0  0  0  0  0  0
   29.1271  -21.0681   -8.0121 C   0  0  0  0  0  0  0  0  0  0  0  0
   28.2078  -20.6816   -7.0485 C   0  0  0  0  0  0  0  0  0  0  0  0
   26.9643  -20.2366   -7.4212 C   0  0  0  0  0  0  0  0  0  0  0  0
   26.6736  -20.1913   -8.7760 C   0  0  0  0  0  0  0  0  0  0  0  0
   27.5872  -20.5755   -9.7379 C   0  0  0  0  0  0  0  0  0  0  0  0
   24.6102  -20.9687  -13.3982 C   0  0  0  0  0  0  0  0  0  0  0  0
   24.4060  -20.0958  -14.2659 O   0  0  0  0  0  0  0  0  0  0  0  0
   19.3015  -22.5359  -10.7634 N   0  0  0  0  0  0  0  0  0  0  0  0
   18.9115  -22.4179  -12.1149 C   0  0  0  0  0  0  0  0  0  0  0  0
   17.6709  -22.2715  -12.4154 O   0  0  0  0  0  0  0  0  0  0  0  0
   19.8380  -22.4419  -13.2517 C   0  0  0  0  0  0  0  0  0  0  0  0
   21.2812  -22.4784  -12.9377 C   0  0  0  0  0  0  0  0  0  0  0  0
   22.1179  -21.3136  -13.3505 C   0  0  2  0  0  0  0  0  0  0  0  0
   23.4811  -21.6389  -12.8693 N   0  0  0  0  0  0  0  0  0  0  0  0
   21.7254  -19.9906  -12.8651 C   0  0  0  0  0  0  0  0  0  0  0  0
   20.9727  -19.0567  -13.5622 O   0  0  0  0  0  0  0  0  0  0  0  0
   22.0997  -19.6398  -11.7083 O   0  0  0  0  0  0  0  0  0  0  0  0
  2  1  1  6
  2  5  1  0
  3  2  1  0
  4  3  1  0
  5  7  1  0
  6  5  2  0
  7  8  1  0
  8 19  1  0
  8  9  1  1
  9 10  1  0
 10 18  1  0
 11 10  2  0
 11 12  1  0
 12 13  1  0
 13 14  1  0
 14 15  2  0
 16 15  1  0
 17 16  2  0
 18 13  2  0
 18 17  1  0
 19 27  1  0
 20 19  2  0
 21 22  1  0
 22 24  1  0
 22 23  2  0
 24 25  1  0
 26 25  1  1
 26 28  1  0
 27 26  1  0
 28 30  2  0
 28 29  1  0
M  END
$$$$
