CWQ.pdb
     RDKit          3D

 30 31  0  0  1  0  0  0  0  0999 V2000
   28.4768  -18.5777  -15.8348 N   0  0  0  0  0  0  0  0  0  0  0  0
   28.1242  -18.6550  -14.4365 C   0  0  1  0  0  0  0  0  0  0  0  0
   27.4218  -17.4123  -14.0019 C   0  0  0  0  0  0  0  0  0  0  0  0
   27.9723  -16.0622  -15.1050 S   0  0  0  0  0  0  0  0  0  0  0  0
   27.3791  -19.9016  -14.1215 C   0  0  0  0  0  0  0  0  0  0  0  0
   27.0266  -20.6684  -15.0549 O   0  0  0  0  0  0  0  0  0  0  0  0
   27.0346  -20.2859  -12.8033 N   0  0  0  0  0  0  0  0  0  0  0  0
   26.3884  -21.5017  -12.4218 C   0  0  1  0  0  0  0  0  0  0  0  0
   26.8161  -22.0126  -11.0724 C   0  0  0  0  0  0  0  0  0  0  0  0
   26.6228  -21.0442   -9.9856 C   0  0  0  0  0  0  0  0  0  0  0  0
   25.5726  -20.1739   -9.8054 C   0  0  0  0  0  0  0  0  0  0  0  0
   25.7706  -19.4592   -8.6946 N   0  0  0  0  0  0  0  0  0  0  0  0
   26.9369  -19.8473   -8.1413 C   0  0  0  0  0  0  0  0  0  0  0  0
   27.6221  -19.4596   -7.0133 C   0  0  0  0  0  0  0  0  0  0  0  0
   28.8340  -20.0337   -6.6601 C   0  0  0  0  0  0  0  0  0  0  0  0
   29.3846  -21.0178   -7.4421 C   0  0  0  0  0  0  0  0  0  0  0  0
   28.6900  -21.4048   -8.5779 C   0  0  0  0  0  0  0  0  0  0  0  0
   27.4828  -20.8349   -8.9321 C   0  0  0  0  0  0  0  0  0  0  0  0
   24.9223  -21.2673  -12.3699 C   0  0  0  0  0  0  0  0  0  0  0  0
   24.4809  -20.1360  -12.0837 O   0  0  0  0  0  0  0  0  0  0  0  0
   20.5089  -21.2033  -10.6641 N   0  0  0  0  0  0  0  0  0  0  0  0
   20.1304  -20.4073  -11.7666 C   0  0  0  0  0  0  0  0  0  0  0  0
   18.9265  -19.9679  -11.8588 O   0  0  0  0  0  0  0  0  0  0  0  0
   21.0305  -20.0167  -12.8568 C   0  0  0  0  0  0  0  0  0  0  0  0
   22.4130  -20.5342  -12.8005 C   0  0  0  0  0  0  0  0  0  0  0  0
   22.6461  -21.9548  -13.1941 C   0  0  2  0  0  0  0  0  0  0  0  0
   23.9777  -22.2875  -12.6354 N   0  0  0  0  0  0  0  0  0  0  0  0
   22.6145  -22.2773  -14.6207 C   0  0  0  0  0  0  0  0  0  0  0  0
   21.5248  -22.7756  -15.3199 O   0  0  0  0  0  0  0  0  0  0  0  0
   23.6672  -22.0998  -15.3001 O   0  0  0  0  0  0  0  0  0  0  0  0
  2  1  1  6
  2  5  1  0
  3  2  1  0
  4  3  1  0
  5  7  1  0
  6  5  2  0
  7  8  1  0
  8 19  1  0
  8  9  1  1
  9 10  1  0
 10 18  1  0
 11 10  2  0
 11 12  1  0
 12 13  1  0
 13 14  1  0
 14 15  2  0
 16 15  1  0
 17 16  2  0
 18 13  2  0
 18 17  1  0
 19 27  1  0
 20 19  2  0
 21 22  1  0
 22 24  1  0
 22 23  2  0
 24 25  1  0
 26 25  1  6
 26 28  1  0
 27 26  1  0
 28 30  2  0
 28 29  1  0
M  END
$$$$
