CWQ.pdb
     RDKit          3D

 30 31  0  0  1  0  0  0  0  0999 V2000
   28.0792  -23.4073  -16.6257 N   0  0  0  0  0  0  0  0  0  0  0  0
   28.1074  -22.1256  -15.9610 C   0  0  1  0  0  0  0  0  0  0  0  0
   27.7141  -21.0364  -16.9019 C   0  0  0  0  0  0  0  0  0  0  0  0
   29.1661  -20.6744  -17.9523 S   0  0  0  0  0  0  0  0  0  0  0  0
   27.3192  -22.1380  -14.7011 C   0  0  0  0  0  0  0  0  0  0  0  0
   26.2394  -22.7819  -14.6492 O   0  0  0  0  0  0  0  0  0  0  0  0
   27.7209  -21.4523  -13.5295 N   0  0  0  0  0  0  0  0  0  0  0  0
   26.9871  -21.3734  -12.3061 C   0  0  1  0  0  0  0  0  0  0  0  0
   27.7365  -20.6828  -11.1987 C   0  0  0  0  0  0  0  0  0  0  0  0
   26.9543  -20.5229   -9.9663 C   0  0  0  0  0  0  0  0  0  0  0  0
   25.5859  -20.4701   -9.8342 C   0  0  0  0  0  0  0  0  0  0  0  0
   25.2672  -20.3165   -8.5463 N   0  0  0  0  0  0  0  0  0  0  0  0
   26.4074  -20.2675   -7.8289 C   0  0  0  0  0  0  0  0  0  0  0  0
   26.6732  -20.1245   -6.4868 C   0  0  0  0  0  0  0  0  0  0  0  0
   27.9699  -20.1058   -5.9959 C   0  0  0  0  0  0  0  0  0  0  0  0
   29.0337  -20.2317   -6.8537 C   0  0  0  0  0  0  0  0  0  0  0  0
   28.7603  -20.3755   -8.2053 C   0  0  0  0  0  0  0  0  0  0  0  0
   27.4699  -20.3946   -8.6971 C   0  0  0  0  0  0  0  0  0  0  0  0
   25.7365  -20.6089  -12.5479 C   0  0  0  0  0  0  0  0  0  0  0  0
   25.7886  -19.4737  -13.0627 O   0  0  0  0  0  0  0  0  0  0  0  0
   24.7534  -20.9041  -16.3476 N   0  0  0  0  0  0  0  0  0  0  0  0
   23.9519  -19.7613  -16.1376 C   0  0  0  0  0  0  0  0  0  0  0  0
   23.9568  -18.8062  -16.9969 O   0  0  0  0  0  0  0  0  0  0  0  0
   23.0731  -19.5647  -14.9799 C   0  0  0  0  0  0  0  0  0  0  0  0
   22.9920  -20.6726  -14.0060 C   0  0  0  0  0  0  0  0  0  0  0  0
   23.2325  -20.3594  -12.5667 C   0  0  2  0  0  0  0  0  0  0  0  0
   24.4573  -21.1158  -12.2155 N   0  0  0  0  0  0  0  0  0  0  0  0
   22.1665  -20.6767  -11.6163 C   0  0  0  0  0  0  0  0  0  0  0  0
   22.2158  -21.6531  -10.6320 O   0  0  0  0  0  0  0  0  0  0  0  0
   21.0879  -20.0182  -11.6817 O   0  0  0  0  0  0  0  0  0  0  0  0
  2  1  1  6
  2  5  1  0
  3  2  1  0
  4  3  1  0
  5  7  1  0
  6  5  2  0
  7  8  1  0
  8 19  1  0
  8  9  1  1
  9 10  1  0
 10 18  1  0
 11 10  2  0
 11 12  1  0
 12 13  1  0
 13 14  1  0
 14 15  2  0
 16 15  1  0
 17 16  2  0
 18 13  2  0
 18 17  1  0
 19 27  1  0
 20 19  2  0
 21 22  1  0
 22 24  1  0
 22 23  2  0
 24 25  1  0
 26 25  1  6
 26 28  1  0
 27 26  1  0
 28 30  2  0
 28 29  1  0
M  END
$$$$
