CWQ.pdb
     RDKit          3D

 30 31  0  0  1  0  0  0  0  0999 V2000
   28.9596  -23.1095  -16.5386 N   0  0  0  0  0  0  0  0  0  0  0  0
   27.8654  -22.1673  -16.5175 C   0  0  1  0  0  0  0  0  0  0  0  0
   27.0910  -22.2321  -17.7913 C   0  0  0  0  0  0  0  0  0  0  0  0
   25.7699  -20.9723  -17.6895 S   0  0  0  0  0  0  0  0  0  0  0  0
   27.0255  -22.3214  -15.3011 C   0  0  0  0  0  0  0  0  0  0  0  0
   26.6910  -23.4723  -14.9179 O   0  0  0  0  0  0  0  0  0  0  0  0
   26.5693  -21.2247  -14.5310 N   0  0  0  0  0  0  0  0  0  0  0  0
   25.7832  -21.3003  -13.3403 C   0  0  1  0  0  0  0  0  0  0  0  0
   26.1338  -20.2508  -12.3203 C   0  0  0  0  0  0  0  0  0  0  0  0
   27.2537  -20.6258  -11.4477 C   0  0  0  0  0  0  0  0  0  0  0  0
   28.5439  -20.9337  -11.8130 C   0  0  0  0  0  0  0  0  0  0  0  0
   29.2599  -21.2220  -10.7231 N   0  0  0  0  0  0  0  0  0  0  0  0
   28.4584  -21.1082   -9.6452 C   0  0  0  0  0  0  0  0  0  0  0  0
   28.6599  -21.2836   -8.2958 C   0  0  0  0  0  0  0  0  0  0  0  0
   27.6410  -21.0977   -7.3738 C   0  0  0  0  0  0  0  0  0  0  0  0
   26.3885  -20.7282   -7.7956 C   0  0  0  0  0  0  0  0  0  0  0  0
   26.1907  -20.5527   -9.1566 C   0  0  0  0  0  0  0  0  0  0  0  0
   27.2036  -20.7372  -10.0772 C   0  0  0  0  0  0  0  0  0  0  0  0
   24.3533  -21.1182  -13.6998 C   0  0  0  0  0  0  0  0  0  0  0  0
   24.0153  -20.1930  -14.4656 O   0  0  0  0  0  0  0  0  0  0  0  0
   19.6188  -25.1564  -11.9816 N   0  0  0  0  0  0  0  0  0  0  0  0
   19.0002  -24.0968  -12.6796 C   0  0  0  0  0  0  0  0  0  0  0  0
   17.7234  -24.0801  -12.8224 O   0  0  0  0  0  0  0  0  0  0  0  0
   19.7170  -22.9637  -13.2742 C   0  0  0  0  0  0  0  0  0  0  0  0
   21.1751  -22.9000  -13.0448 C   0  0  0  0  0  0  0  0  0  0  0  0
   21.9099  -21.6973  -13.5357 C   0  0  2  0  0  0  0  0  0  0  0  0
   23.3299  -21.9618  -13.2053 N   0  0  0  0  0  0  0  0  0  0  0  0
   21.5127  -20.3948  -13.0009 C   0  0  0  0  0  0  0  0  0  0  0  0
   21.8524  -19.8869  -11.7554 O   0  0  0  0  0  0  0  0  0  0  0  0
   20.7872  -19.6467  -13.7187 O   0  0  0  0  0  0  0  0  0  0  0  0
  2  1  1  6
  2  5  1  0
  3  2  1  0
  4  3  1  0
  5  7  1  0
  6  5  2  0
  7  8  1  0
  8 19  1  0
  8  9  1  1
  9 10  1  0
 10 18  1  0
 11 10  2  0
 11 12  1  0
 12 13  1  0
 13 14  1  0
 14 15  2  0
 16 15  1  0
 17 16  2  0
 18 13  2  0
 18 17  1  0
 19 27  1  0
 20 19  2  0
 21 22  1  0
 22 24  1  0
 22 23  2  0
 24 25  1  0
 26 25  1  1
 26 28  1  0
 27 26  1  0
 28 30  2  0
 28 29  1  0
M  END
$$$$
