CWQ.pdb
     RDKit          3D

 30 31  0  0  1  0  0  0  0  0999 V2000
   27.8418  -23.5395  -16.9886 N   0  0  0  0  0  0  0  0  0  0  0  0
   27.7505  -22.2117  -16.4281 C   0  0  1  0  0  0  0  0  0  0  0  0
   27.2290  -21.2481  -17.4409 C   0  0  0  0  0  0  0  0  0  0  0  0
   28.5260  -21.0407  -18.7127 S   0  0  0  0  0  0  0  0  0  0  0  0
   26.9922  -22.2013  -15.1500 C   0  0  0  0  0  0  0  0  0  0  0  0
   26.0071  -22.9706  -15.0049 O   0  0  0  0  0  0  0  0  0  0  0  0
   27.3204  -21.3576  -14.0616 N   0  0  0  0  0  0  0  0  0  0  0  0
   26.6577  -21.3183  -12.7965 C   0  0  1  0  0  0  0  0  0  0  0  0
   27.4083  -20.5422  -11.7480 C   0  0  0  0  0  0  0  0  0  0  0  0
   26.6899  -20.4244  -10.4728 C   0  0  0  0  0  0  0  0  0  0  0  0
   25.3302  -20.3691  -10.2704 C   0  0  0  0  0  0  0  0  0  0  0  0
   25.0773  -20.2621   -8.9633 N   0  0  0  0  0  0  0  0  0  0  0  0
   26.2522  -20.2461   -8.3027 C   0  0  0  0  0  0  0  0  0  0  0  0
   26.5858  -20.1548   -6.9713 C   0  0  0  0  0  0  0  0  0  0  0  0
   27.9055  -20.1614   -6.5457 C   0  0  0  0  0  0  0  0  0  0  0  0
   28.9242  -20.2609   -7.4598 C   0  0  0  0  0  0  0  0  0  0  0  0
   28.5826  -20.3526   -8.8004 C   0  0  0  0  0  0  0  0  0  0  0  0
   27.2691  -20.3463   -9.2272 C   0  0  0  0  0  0  0  0  0  0  0  0
   25.3319  -20.6713  -12.9718 C   0  0  0  0  0  0  0  0  0  0  0  0
   25.2618  -19.4846  -13.3506 O   0  0  0  0  0  0  0  0  0  0  0  0
   23.0282  -22.9682  -16.5518 N   0  0  0  0  0  0  0  0  0  0  0  0
   23.0979  -21.5593  -16.6039 C   0  0  0  0  0  0  0  0  0  0  0  0
   23.5465  -20.9765  -17.6574 O   0  0  0  0  0  0  0  0  0  0  0  0
   22.6792  -20.6665  -15.5181 C   0  0  0  0  0  0  0  0  0  0  0  0
   22.3083  -21.3005  -14.2363 C   0  0  0  0  0  0  0  0  0  0  0  0
   22.8155  -20.6823  -12.9761 C   0  0  2  0  0  0  0  0  0  0  0  0
   24.1144  -21.3496  -12.7247 N   0  0  0  0  0  0  0  0  0  0  0  0
   21.9713  -20.7800  -11.7853 C   0  0  0  0  0  0  0  0  0  0  0  0
   22.3018  -21.4251  -10.6024 O   0  0  0  0  0  0  0  0  0  0  0  0
   20.8274  -20.2398  -11.8141 O   0  0  0  0  0  0  0  0  0  0  0  0
  2  1  1  6
  2  5  1  0
  3  2  1  0
  4  3  1  0
  5  7  1  0
  6  5  2  0
  7  8  1  0
  8 19  1  0
  8  9  1  1
  9 10  1  0
 10 18  1  0
 11 10  2  0
 11 12  1  0
 12 13  1  0
 13 14  1  0
 14 15  2  0
 16 15  1  0
 17 16  2  0
 18 13  2  0
 18 17  1  0
 19 27  1  0
 20 19  2  0
 21 22  1  0
 22 24  1  0
 22 23  2  0
 24 25  1  0
 26 25  1  6
 26 28  1  0
 27 26  1  0
 28 30  2  0
 28 29  1  0
M  END
$$$$
