CWQ.pdb
     RDKit          3D

 30 31  0  0  1  0  0  0  0  0999 V2000
   28.8053  -21.2036  -15.3550 N   0  0  0  0  0  0  0  0  0  0  0  0
   28.1821  -20.2748  -14.4416 C   0  0  1  0  0  0  0  0  0  0  0  0
   27.6842  -19.0728  -15.1721 C   0  0  0  0  0  0  0  0  0  0  0  0
   29.1135  -18.3325  -16.0391 S   0  0  0  0  0  0  0  0  0  0  0  0
   27.1470  -20.9334  -13.6029 C   0  0  0  0  0  0  0  0  0  0  0  0
   26.5765  -21.9738  -14.0217 O   0  0  0  0  0  0  0  0  0  0  0  0
   26.7561  -20.4480  -12.3317 N   0  0  0  0  0  0  0  0  0  0  0  0
   25.7544  -21.0146  -11.4852 C   0  0  1  0  0  0  0  0  0  0  0  0
   25.8432  -20.5525  -10.0556 C   0  0  0  0  0  0  0  0  0  0  0  0
   27.1223  -20.8729   -9.4095 C   0  0  0  0  0  0  0  0  0  0  0  0
   28.1572  -21.6279   -9.9112 C   0  0  0  0  0  0  0  0  0  0  0  0
   29.1452  -21.6832   -9.0143 N   0  0  0  0  0  0  0  0  0  0  0  0
   28.7746  -20.9748   -7.9289 C   0  0  0  0  0  0  0  0  0  0  0  0
   29.3865  -20.6966   -6.7287 C   0  0  0  0  0  0  0  0  0  0  0  0
   28.7720  -19.9216   -5.7568 C   0  0  0  0  0  0  0  0  0  0  0  0
   27.5188  -19.4071   -5.9757 C   0  0  0  0  0  0  0  0  0  0  0  0
   26.9066  -19.6905   -7.1869 C   0  0  0  0  0  0  0  0  0  0  0  0
   27.5161  -20.4619   -8.1568 C   0  0  0  0  0  0  0  0  0  0  0  0
   24.4168  -20.6253  -12.0014 C   0  0  0  0  0  0  0  0  0  0  0  0
   24.2387  -19.4854  -12.4763 O   0  0  0  0  0  0  0  0  0  0  0  0
   18.5311  -23.5544  -13.1592 N   0  0  0  0  0  0  0  0  0  0  0  0
   19.5062  -23.3001  -14.1476 C   0  0  0  0  0  0  0  0  0  0  0  0
   19.7032  -24.1509  -15.0900 O   0  0  0  0  0  0  0  0  0  0  0  0
   20.3431  -22.0967  -14.1982 C   0  0  0  0  0  0  0  0  0  0  0  0
   21.6568  -22.1669  -13.5259 C   0  0  0  0  0  0  0  0  0  0  0  0
   22.0062  -21.0877  -12.5559 C   0  0  2  0  0  0  0  0  0  0  0  0
   23.3071  -21.5037  -11.9812 N   0  0  0  0  0  0  0  0  0  0  0  0
   21.0562  -20.8106  -11.4785 C   0  0  0  0  0  0  0  0  0  0  0  0
   19.9811  -19.9362  -11.5443 O   0  0  0  0  0  0  0  0  0  0  0  0
   21.2116  -21.4061  -10.3728 O   0  0  0  0  0  0  0  0  0  0  0  0
  2  1  1  6
  2  5  1  0
  3  2  1  0
  4  3  1  0
  5  7  1  0
  6  5  2  0
  7  8  1  0
  8 19  1  0
  8  9  1  1
  9 10  1  0
 10 18  1  0
 11 10  2  0
 11 12  1  0
 12 13  1  0
 13 14  1  0
 14 15  2  0
 16 15  1  0
 17 16  2  0
 18 13  2  0
 18 17  1  0
 19 27  1  0
 20 19  2  0
 21 22  1  0
 22 24  1  0
 22 23  2  0
 24 25  1  0
 26 25  1  6
 26 28  1  0
 27 26  1  0
 28 30  2  0
 28 29  1  0
M  END
$$$$
