CWQ.pdb
     RDKit          3D

 30 31  0  0  1  0  0  0  0  0999 V2000
   29.0506  -20.8500  -14.9933 N   0  0  0  0  0  0  0  0  0  0  0  0
   28.2379  -19.9530  -14.2057 C   0  0  1  0  0  0  0  0  0  0  0  0
   27.7464  -18.8184  -15.0408 C   0  0  0  0  0  0  0  0  0  0  0  0
   29.1986  -17.7997  -15.4834 S   0  0  0  0  0  0  0  0  0  0  0  0
   27.1568  -20.6743  -13.4848 C   0  0  0  0  0  0  0  0  0  0  0  0
   26.6338  -21.6930  -14.0061 O   0  0  0  0  0  0  0  0  0  0  0  0
   26.6698  -20.2733  -12.2174 N   0  0  0  0  0  0  0  0  0  0  0  0
   25.6494  -20.9279  -11.4614 C   0  0  1  0  0  0  0  0  0  0  0  0
   25.7193  -20.6448   -9.9850 C   0  0  0  0  0  0  0  0  0  0  0  0
   27.0406  -20.8982   -9.3967 C   0  0  0  0  0  0  0  0  0  0  0  0
   28.1105  -21.5471   -9.9688 C   0  0  0  0  0  0  0  0  0  0  0  0
   29.1308  -21.5709   -9.1073 N   0  0  0  0  0  0  0  0  0  0  0  0
   28.7470  -20.9465   -7.9759 C   0  0  0  0  0  0  0  0  0  0  0  0
   29.3783  -20.6816   -6.7829 C   0  0  0  0  0  0  0  0  0  0  0  0
   28.7426  -20.0040   -5.7536 C   0  0  0  0  0  0  0  0  0  0  0  0
   27.4478  -19.5760   -5.9063 C   0  0  0  0  0  0  0  0  0  0  0  0
   26.8160  -19.8456   -7.1107 C   0  0  0  0  0  0  0  0  0  0  0  0
   27.4467  -20.5202   -8.1376 C   0  0  0  0  0  0  0  0  0  0  0  0
   24.3240  -20.4638  -11.9461 C   0  0  0  0  0  0  0  0  0  0  0  0
   24.1776  -19.2861  -12.3312 O   0  0  0  0  0  0  0  0  0  0  0  0
   21.2206  -24.1068  -15.5486 N   0  0  0  0  0  0  0  0  0  0  0  0
   20.6467  -22.8337  -15.7548 C   0  0  0  0  0  0  0  0  0  0  0  0
   19.6642  -22.6963  -16.5712 O   0  0  0  0  0  0  0  0  0  0  0  0
   21.0882  -21.6056  -15.0855 C   0  0  0  0  0  0  0  0  0  0  0  0
   22.1396  -21.7452  -14.0572 C   0  0  0  0  0  0  0  0  0  0  0  0
   22.0079  -20.9415  -12.8065 C   0  0  2  0  0  0  0  0  0  0  0  0
   23.1909  -21.3108  -11.9943 N   0  0  0  0  0  0  0  0  0  0  0  0
   20.7907  -21.1151  -12.0138 C   0  0  0  0  0  0  0  0  0  0  0  0
   19.5820  -20.4673  -12.2232 O   0  0  0  0  0  0  0  0  0  0  0  0
   20.8193  -21.9203  -11.0380 O   0  0  0  0  0  0  0  0  0  0  0  0
  2  1  1  6
  2  5  1  0
  3  2  1  0
  4  3  1  0
  5  7  1  0
  6  5  2  0
  7  8  1  0
  8 19  1  0
  8  9  1  1
  9 10  1  0
 10 18  1  0
 11 10  2  0
 11 12  1  0
 12 13  1  0
 13 14  1  0
 14 15  2  0
 16 15  1  0
 17 16  2  0
 18 13  2  0
 18 17  1  0
 19 27  1  0
 20 19  2  0
 21 22  1  0
 22 24  1  0
 22 23  2  0
 24 25  1  0
 26 25  1  6
 26 28  1  0
 27 26  1  0
 28 30  2  0
 28 29  1  0
M  END
$$$$
