QSE.pdb
     RDKit          3D

 25 24  0  0  1  0  0  0  0  0999 V2000
   18.3828   -8.9843  -20.6265 N   0  0  0  0  0  0  0  0  0  0  0  0
   18.0688  -10.3913  -20.5939 C   0  0  0  0  0  0  0  0  0  0  0  0
   17.7994  -11.0248  -21.6304 O   0  0  0  0  0  0  0  0  0  0  0  0
   18.0831  -11.0200  -19.2665 C   0  0  0  0  0  0  0  0  0  0  0  0
   18.5282  -10.1151  -18.1915 C   0  0  0  0  0  0  0  0  0  0  0  0
   18.5842  -10.6663  -16.8178 C   0  0  2  0  0  0  0  0  0  0  0  0
   17.2869  -11.0995  -16.3857 N   0  0  0  0  0  0  0  0  0  0  0  0
   19.1062   -9.6986  -15.8200 C   0  0  0  0  0  0  0  0  0  0  0  0
   18.3198   -8.9314  -15.2070 O   0  0  0  0  0  0  0  0  0  0  0  0
   23.1129   -9.5624  -14.5808 O   0  0  0  0  0  0  0  0  0  0  0  0
   22.1159   -9.0935  -13.7228 C   0  0  0  0  0  0  0  0  0  0  0  0
   20.9880   -8.5656  -14.5913 C   0  0  2  0  0  0  0  0  0  0  0  0
   20.4863   -9.5683  -15.4900 N   0  0  0  0  0  0  0  0  0  0  0  0
   21.3706   -7.3095  -15.2528 C   0  0  0  0  0  0  0  0  0  0  0  0
   21.5878   -7.2833  -16.5134 O   0  0  0  0  0  0  0  0  0  0  0  0
   21.5307   -6.0596  -14.5977 N   0  0  0  0  0  0  0  0  0  0  0  0
   21.9346   -4.8640  -15.3391 C   0  0  1  0  0  0  0  0  0  0  0  0
   20.9606   -4.5096  -16.3935 C   0  0  0  0  0  0  0  0  0  0  0  0
   21.3452   -3.2580  -17.1222 C   0  0  0  0  0  0  0  0  0  0  0  0
   20.3702   -2.8169  -18.1463 C   0  0  0  0  0  0  0  0  0  0  0  0
   20.0827   -1.6155  -18.2128 O   0  0  0  0  0  0  0  0  0  0  0  0
   22.0281   -3.7784  -14.3375 C   0  0  0  0  0  0  0  0  0  0  0  0
   21.3663   -3.8765  -13.2497 O   0  0  0  0  0  0  0  0  0  0  0  0
   19.7931   -3.7228  -19.0063 O   0  0  0  0  0  0  0  0  0  0  0  0
   22.7966   -2.6283  -14.4774 O   0  0  0  0  0  0  0  0  0  0  0  0
  2  4  1  0
  2  1  1  0
  3  2  2  0
  5  6  1  0
  5  4  1  0
  6  7  1  1
  6  8  1  0
  8  9  2  0
 10 11  1  0
 12 11  1  6
 12 14  1  0
 13  8  1  0
 13 12  1  0
 14 15  2  0
 16 17  1  0
 16 14  1  0
 17 22  1  0
 18 19  1  0
 17 18  1  6
 20 19  1  0
 21 20  2  0
 22 23  2  0
 22 25  1  0
 24 20  1  0
M  END
$$$$
