QSE.pdb
     RDKit          3D

 25 24  0  0  1  0  0  0  0  0999 V2000
   27.2826  -10.7268  -15.4285 N   0  0  0  0  0  0  0  0  0  0  0  0
   27.7850  -11.4974  -16.5389 C   0  0  0  0  0  0  0  0  0  0  0  0
   28.8429  -12.1474  -16.4578 O   0  0  0  0  0  0  0  0  0  0  0  0
   26.9743  -11.4600  -17.7632 C   0  0  0  0  0  0  0  0  0  0  0  0
   25.7508  -10.6481  -17.6343 C   0  0  0  0  0  0  0  0  0  0  0  0
   24.6038  -11.2548  -16.9199 C   0  0  2  0  0  0  0  0  0  0  0  0
   23.9951  -12.2860  -17.7094 N   0  0  0  0  0  0  0  0  0  0  0  0
   23.5546  -10.2696  -16.5551 C   0  0  0  0  0  0  0  0  0  0  0  0
   23.1179   -9.4592  -17.4128 O   0  0  0  0  0  0  0  0  0  0  0  0
   20.3222   -8.5520  -13.3826 O   0  0  0  0  0  0  0  0  0  0  0  0
   21.3590   -9.4714  -13.5554 C   0  0  0  0  0  0  0  0  0  0  0  0
   21.9897   -9.1881  -14.9070 C   0  0  2  0  0  0  0  0  0  0  0  0
   22.9808  -10.1687  -15.2547 N   0  0  0  0  0  0  0  0  0  0  0  0
   22.4692   -7.8006  -14.9888 C   0  0  0  0  0  0  0  0  0  0  0  0
   23.7228   -7.5473  -14.9543 O   0  0  0  0  0  0  0  0  0  0  0  0
   21.6364   -6.6565  -15.1087 N   0  0  0  0  0  0  0  0  0  0  0  0
   22.2085   -5.3162  -15.2454 C   0  0  1  0  0  0  0  0  0  0  0  0
   22.2668   -4.8792  -16.6565 C   0  0  0  0  0  0  0  0  0  0  0  0
   22.8176   -3.4927  -16.7976 C   0  0  0  0  0  0  0  0  0  0  0  0
   22.8567   -2.9837  -18.1881 C   0  0  0  0  0  0  0  0  0  0  0  0
   22.4328   -3.7081  -19.0969 O   0  0  0  0  0  0  0  0  0  0  0  0
   21.3291   -4.4185  -14.4634 C   0  0  0  0  0  0  0  0  0  0  0  0
   20.0893   -4.7040  -14.3520 O   0  0  0  0  0  0  0  0  0  0  0  0
   23.3552   -1.7319  -18.4665 O   0  0  0  0  0  0  0  0  0  0  0  0
   21.7443   -3.2593  -13.8177 O   0  0  0  0  0  0  0  0  0  0  0  0
  2  4  1  0
  2  1  1  0
  3  2  2  0
  5  6  1  0
  5  4  1  0
  6  7  1  6
  6  8  1  0
  8  9  2  0
 10 11  1  0
 12 11  1  1
 12 14  1  0
 13  8  1  0
 13 12  1  0
 14 15  2  0
 16 17  1  0
 16 14  1  0
 17 22  1  0
 18 19  1  0
 17 18  1  6
 20 19  1  0
 21 20  2  0
 22 23  2  0
 22 25  1  0
 24 20  1  0
M  END
$$$$
