QSE.pdb
     RDKit          3D

 25 24  0  0  1  0  0  0  0  0999 V2000
   28.0125  -10.5752  -16.3484 N   0  0  0  0  0  0  0  0  0  0  0  0
   27.9017  -12.0126  -16.3777 C   0  0  0  0  0  0  0  0  0  0  0  0
   28.9071  -12.7449  -16.4100 O   0  0  0  0  0  0  0  0  0  0  0  0
   26.5346  -12.5497  -16.3720 C   0  0  0  0  0  0  0  0  0  0  0  0
   25.4936  -11.5089  -16.2956 C   0  0  0  0  0  0  0  0  0  0  0  0
   24.0820  -11.9575  -16.2919 C   0  0  2  0  0  0  0  0  0  0  0  0
   23.8218  -12.8414  -17.3910 N   0  0  0  0  0  0  0  0  0  0  0  0
   23.1116  -10.8357  -16.3591 C   0  0  0  0  0  0  0  0  0  0  0  0
   22.9496  -10.1989  -17.4321 O   0  0  0  0  0  0  0  0  0  0  0  0
   20.6938   -9.7071  -13.1295 O   0  0  0  0  0  0  0  0  0  0  0  0
   20.2188   -9.4594  -14.4191 C   0  0  0  0  0  0  0  0  0  0  0  0
   21.4299   -9.2800  -15.3168 C   0  0  2  0  0  0  0  0  0  0  0  0
   22.3170  -10.4088  -15.2560 N   0  0  0  0  0  0  0  0  0  0  0  0
   22.0890   -7.9895  -15.0676 C   0  0  0  0  0  0  0  0  0  0  0  0
   23.1668   -7.9367  -14.3802 O   0  0  0  0  0  0  0  0  0  0  0  0
   21.6240   -6.7328  -15.5384 N   0  0  0  0  0  0  0  0  0  0  0  0
   22.3844   -5.5061  -15.2947 C   0  0  1  0  0  0  0  0  0  0  0  0
   22.2671   -4.5488  -16.4153 C   0  0  0  0  0  0  0  0  0  0  0  0
   22.9404   -3.2436  -16.1178 C   0  0  0  0  0  0  0  0  0  0  0  0
   22.7984   -2.2209  -17.1798 C   0  0  0  0  0  0  0  0  0  0  0  0
   22.1459   -2.5037  -18.1920 O   0  0  0  0  0  0  0  0  0  0  0  0
   21.8239   -4.9213  -14.0559 C   0  0  0  0  0  0  0  0  0  0  0  0
   20.6028   -5.1477  -13.7579 O   0  0  0  0  0  0  0  0  0  0  0  0
   23.3808   -0.9814  -17.0469 O   0  0  0  0  0  0  0  0  0  0  0  0
   22.5288   -4.1260  -13.1595 O   0  0  0  0  0  0  0  0  0  0  0  0
  2  4  1  0
  2  1  1  0
  3  2  2  0
  5  6  1  0
  5  4  1  0
  6  7  1  6
  6  8  1  0
  8  9  2  0
 10 11  1  0
 12 11  1  1
 12 14  1  0
 13  8  1  0
 13 12  1  0
 14 15  2  0
 16 17  1  0
 16 14  1  0
 17 22  1  0
 18 19  1  0
 17 18  1  6
 20 19  1  0
 21 20  2  0
 22 23  2  0
 22 25  1  0
 24 20  1  0
M  END
$$$$
