QSE.pdb
     RDKit          3D

 25 24  0  0  1  0  0  0  0  0999 V2000
   27.1521  -13.5178  -15.3416 N   0  0  0  0  0  0  0  0  0  0  0  0
   26.6052  -14.8470  -15.2263 C   0  0  0  0  0  0  0  0  0  0  0  0
   27.2825  -15.7971  -14.7940 O   0  0  0  0  0  0  0  0  0  0  0  0
   25.2089  -15.0044  -15.6542 C   0  0  0  0  0  0  0  0  0  0  0  0
   24.5465  -13.7290  -15.9819 C   0  0  0  0  0  0  0  0  0  0  0  0
   23.3553  -13.7871  -16.8605 C   0  0  2  0  0  0  0  0  0  0  0  0
   23.6976  -14.3002  -18.1553 N   0  0  0  0  0  0  0  0  0  0  0  0
   22.6983  -12.4682  -17.0430 C   0  0  0  0  0  0  0  0  0  0  0  0
   23.1511  -11.6426  -17.8776 O   0  0  0  0  0  0  0  0  0  0  0  0
   19.1236  -11.4931  -15.1606 O   0  0  0  0  0  0  0  0  0  0  0  0
   19.3783  -10.9120  -16.4047 C   0  0  0  0  0  0  0  0  0  0  0  0
   20.8854  -10.7948  -16.5453 C   0  0  2  0  0  0  0  0  0  0  0  0
   21.5466  -12.0497  -16.3158 N   0  0  0  0  0  0  0  0  0  0  0  0
   21.4099   -9.6871  -15.7331 C   0  0  0  0  0  0  0  0  0  0  0  0
   21.9202   -9.9151  -14.5822 O   0  0  0  0  0  0  0  0  0  0  0  0
   21.4059   -8.3204  -16.1195 N   0  0  0  0  0  0  0  0  0  0  0  0
   21.9774   -7.2884  -15.2530 C   0  0  1  0  0  0  0  0  0  0  0  0
   21.9327   -5.9503  -15.8801 C   0  0  0  0  0  0  0  0  0  0  0  0
   22.5829   -4.9034  -15.0276 C   0  0  0  0  0  0  0  0  0  0  0  0
   22.4438   -3.5197  -15.5376 C   0  0  0  0  0  0  0  0  0  0  0  0
   22.5284   -3.3256  -16.7564 O   0  0  0  0  0  0  0  0  0  0  0  0
   21.1671   -7.3049  -14.0145 C   0  0  0  0  0  0  0  0  0  0  0  0
   19.9159   -7.5488  -14.0925 O   0  0  0  0  0  0  0  0  0  0  0  0
   22.2267   -2.4695  -14.6756 O   0  0  0  0  0  0  0  0  0  0  0  0
   21.6608   -7.0744  -12.7354 O   0  0  0  0  0  0  0  0  0  0  0  0
  2  4  1  0
  2  1  1  0
  3  2  2  0
  5  6  1  0
  5  4  1  0
  6  7  1  6
  6  8  1  0
  8  9  2  0
 10 11  1  0
 12 11  1  1
 12 14  1  0
 13  8  1  0
 13 12  1  0
 14 15  2  0
 16 17  1  0
 16 14  1  0
 17 22  1  0
 18 19  1  0
 17 18  1  6
 20 19  1  0
 21 20  2  0
 22 23  2  0
 22 25  1  0
 24 20  1  0
M  END
$$$$
