QSE.pdb
     RDKit          3D

 25 24  0  0  1  0  0  0  0  0999 V2000
   16.1662  -13.5022  -16.1101 N   0  0  0  0  0  0  0  0  0  0  0  0
   17.4350  -14.1041  -15.7829 C   0  0  0  0  0  0  0  0  0  0  0  0
   17.5138  -15.1003  -15.0415 O   0  0  0  0  0  0  0  0  0  0  0  0
   18.6183  -13.4653  -16.3739 C   0  0  0  0  0  0  0  0  0  0  0  0
   18.3155  -12.2116  -17.0876 C   0  0  0  0  0  0  0  0  0  0  0  0
   19.4634  -11.3924  -17.5408 C   0  0  2  0  0  0  0  0  0  0  0  0
   20.5089  -12.2213  -18.0672 N   0  0  0  0  0  0  0  0  0  0  0  0
   20.0393  -10.5467  -16.4649 C   0  0  0  0  0  0  0  0  0  0  0  0
   19.3033   -9.7667  -15.8070 O   0  0  0  0  0  0  0  0  0  0  0  0
   24.1621  -10.4266  -15.4852 O   0  0  0  0  0  0  0  0  0  0  0  0
   23.2194  -10.3269  -14.4598 C   0  0  0  0  0  0  0  0  0  0  0  0
   21.9620   -9.7268  -15.0627 C   0  0  2  0  0  0  0  0  0  0  0  0
   21.4183  -10.5523  -16.1056 N   0  0  0  0  0  0  0  0  0  0  0  0
   22.1795   -8.3284  -15.4614 C   0  0  0  0  0  0  0  0  0  0  0  0
   22.4468   -8.0377  -16.6784 O   0  0  0  0  0  0  0  0  0  0  0  0
   22.1190   -7.2125  -14.5850 N   0  0  0  0  0  0  0  0  0  0  0  0
   22.2194   -5.8444  -15.0954 C   0  0  1  0  0  0  0  0  0  0  0  0
   21.0509   -5.4733  -15.9217 C   0  0  0  0  0  0  0  0  0  0  0  0
   19.7728   -5.5011  -15.1399 C   0  0  0  0  0  0  0  0  0  0  0  0
   18.5788   -5.0559  -15.8950 C   0  0  0  0  0  0  0  0  0  0  0  0
   17.7383   -5.9005  -16.2273 O   0  0  0  0  0  0  0  0  0  0  0  0
   22.3055   -4.9722  -13.9027 C   0  0  0  0  0  0  0  0  0  0  0  0
   22.2054   -5.4942  -12.7414 O   0  0  0  0  0  0  0  0  0  0  0  0
   18.4063   -3.7308  -16.2230 O   0  0  0  0  0  0  0  0  0  0  0  0
   22.4938   -3.5951  -13.9336 O   0  0  0  0  0  0  0  0  0  0  0  0
  2  4  1  0
  2  1  1  0
  3  2  2  0
  5  6  1  0
  5  4  1  0
  6  7  1  1
  6  8  1  0
  8  9  2  0
 10 11  1  0
 12 11  1  6
 12 14  1  0
 13  8  1  0
 13 12  1  0
 14 15  2  0
 16 17  1  0
 16 14  1  0
 17 22  1  0
 18 19  1  0
 17 18  1  1
 20 19  1  0
 21 20  2  0
 22 23  2  0
 22 25  1  0
 24 20  1  0
M  END
$$$$
