QSE.pdb
     RDKit          3D

 25 24  0  0  1  0  0  0  0  0999 V2000
   15.6153  -13.5570  -17.5833 N   0  0  0  0  0  0  0  0  0  0  0  0
   16.5176  -12.4332  -17.6289 C   0  0  0  0  0  0  0  0  0  0  0  0
   16.1064  -11.2615  -17.5506 O   0  0  0  0  0  0  0  0  0  0  0  0
   17.9417  -12.7609  -17.7779 C   0  0  0  0  0  0  0  0  0  0  0  0
   18.7881  -12.2081  -16.7052 C   0  0  0  0  0  0  0  0  0  0  0  0
   20.2528  -12.3874  -16.8336 C   0  0  2  0  0  0  0  0  0  0  0  0
   20.6727  -13.6221  -16.2366 N   0  0  0  0  0  0  0  0  0  0  0  0
   21.0333  -11.2851  -16.2170 C   0  0  0  0  0  0  0  0  0  0  0  0
   20.8212  -10.9461  -15.0241 O   0  0  0  0  0  0  0  0  0  0  0  0
   24.0657   -9.1345  -18.2319 O   0  0  0  0  0  0  0  0  0  0  0  0
   24.1888   -9.3648  -16.8601 C   0  0  0  0  0  0  0  0  0  0  0  0
   22.7839   -9.4784  -16.2961 C   0  0  2  0  0  0  0  0  0  0  0  0
   22.0462  -10.5528  -16.9013 N   0  0  0  0  0  0  0  0  0  0  0  0
   22.0899   -8.1828  -16.3345 C   0  0  0  0  0  0  0  0  0  0  0  0
   21.5017   -7.7964  -17.4029 O   0  0  0  0  0  0  0  0  0  0  0  0
   22.0037   -7.2723  -15.2479 N   0  0  0  0  0  0  0  0  0  0  0  0
   21.3991   -5.9499  -15.4162 C   0  0  1  0  0  0  0  0  0  0  0  0
   20.0587   -5.8700  -14.7974 C   0  0  0  0  0  0  0  0  0  0  0  0
   19.0381   -6.6662  -15.5524 C   0  0  0  0  0  0  0  0  0  0  0  0
   17.6719   -6.6151  -14.9824 C   0  0  0  0  0  0  0  0  0  0  0  0
   17.3276   -5.6046  -14.3572 O   0  0  0  0  0  0  0  0  0  0  0  0
   22.3249   -4.9954  -14.7663 C   0  0  0  0  0  0  0  0  0  0  0  0
   23.3659   -5.4418  -14.1762 O   0  0  0  0  0  0  0  0  0  0  0  0
   16.8019   -7.6691  -15.1419 O   0  0  0  0  0  0  0  0  0  0  0  0
   22.1597   -3.6152  -14.7418 O   0  0  0  0  0  0  0  0  0  0  0  0
  2  4  1  0
  2  1  1  0
  3  2  2  0
  5  6  1  0
  5  4  1  0
  6  7  1  1
  6  8  1  0
  8  9  2  0
 10 11  1  0
 12 11  1  6
 12 14  1  0
 13  8  1  0
 13 12  1  0
 14 15  2  0
 16 17  1  0
 16 14  1  0
 17 22  1  0
 18 19  1  0
 17 18  1  1
 20 19  1  0
 21 20  2  0
 22 23  2  0
 22 25  1  0
 24 20  1  0
M  END
$$$$
