QSE.pdb
     RDKit          3D

 25 24  0  0  1  0  0  0  0  0999 V2000
   18.5007  -21.6917  -12.7178 N   0  0  0  0  0  0  0  0  0  0  0  0
   18.9463  -22.7566  -13.5820 C   0  0  0  0  0  0  0  0  0  0  0  0
   19.6899  -23.6649  -13.1695 O   0  0  0  0  0  0  0  0  0  0  0  0
   18.4720  -22.6952  -14.9708 C   0  0  0  0  0  0  0  0  0  0  0  0
   17.6658  -21.4967  -15.2650 C   0  0  0  0  0  0  0  0  0  0  0  0
   18.1299  -20.6171  -16.3626 C   0  0  2  0  0  0  0  0  0  0  0  0
   19.2329  -21.2090  -17.0627 N   0  0  0  0  0  0  0  0  0  0  0  0
   18.5454  -19.2700  -15.8966 C   0  0  0  0  0  0  0  0  0  0  0  0
   17.7935  -18.5977  -15.1445 O   0  0  0  0  0  0  0  0  0  0  0  0
   22.3049  -17.8849  -15.1972 O   0  0  0  0  0  0  0  0  0  0  0  0
   21.6101  -17.0359  -16.0613 C   0  0  0  0  0  0  0  0  0  0  0  0
   20.1300  -17.3147  -15.8708 C   0  0  2  0  0  0  0  0  0  0  0  0
   19.7818  -18.6562  -16.2503 N   0  0  0  0  0  0  0  0  0  0  0  0
   19.3076  -16.2801  -16.5151 C   0  0  0  0  0  0  0  0  0  0  0  0
   18.6291  -16.5549  -17.5644 O   0  0  0  0  0  0  0  0  0  0  0  0
   19.1858  -14.9387  -16.0649 N   0  0  0  0  0  0  0  0  0  0  0  0
   17.9858  -14.1512  -16.3519 C   0  0  1  0  0  0  0  0  0  0  0  0
   16.7696  -14.7632  -15.7754 C   0  0  0  0  0  0  0  0  0  0  0  0
   15.5307  -13.9940  -16.1205 C   0  0  0  0  0  0  0  0  0  0  0  0
   14.6004  -13.7836  -14.9872 C   0  0  0  0  0  0  0  0  0  0  0  0
   14.7938  -14.4086  -13.9373 O   0  0  0  0  0  0  0  0  0  0  0  0
   18.2242  -12.8176  -15.7560 C   0  0  0  0  0  0  0  0  0  0  0  0
   19.1424  -12.6830  -14.8785 O   0  0  0  0  0  0  0  0  0  0  0  0
   13.5409  -12.9127  -15.0976 O   0  0  0  0  0  0  0  0  0  0  0  0
   17.5192  -11.6631  -16.0769 O   0  0  0  0  0  0  0  0  0  0  0  0
  2  4  1  0
  2  1  1  0
  3  2  2  0
  5  6  1  0
  5  4  1  0
  6  7  1  1
  6  8  1  0
  8  9  2  0
 10 11  1  0
 12 11  1  6
 12 14  1  0
 13  8  1  0
 13 12  1  0
 14 15  2  0
 16 17  1  0
 16 14  1  0
 17 22  1  0
 18 19  1  0
 17 18  1  1
 20 19  1  0
 21 20  2  0
 22 23  2  0
 22 25  1  0
 24 20  1  0
M  END
$$$$
