QSE.pdb
     RDKit          3D

 25 24  0  0  1  0  0  0  0  0999 V2000
   21.3035   -9.9372  -22.3405 N   0  0  0  0  0  0  0  0  0  0  0  0
   20.8073  -11.2890  -22.2642 C   0  0  0  0  0  0  0  0  0  0  0  0
   20.5685  -11.9561  -23.2870 O   0  0  0  0  0  0  0  0  0  0  0  0
   20.5994  -11.8194  -20.9104 C   0  0  0  0  0  0  0  0  0  0  0  0
   20.8514  -10.8313  -19.8460 C   0  0  0  0  0  0  0  0  0  0  0  0
   21.3813  -11.3379  -18.5589 C   0  0  2  0  0  0  0  0  0  0  0  0
   20.9378  -12.6797  -18.3142 N   0  0  0  0  0  0  0  0  0  0  0  0
   20.9914  -10.5012  -17.3959 C   0  0  0  0  0  0  0  0  0  0  0  0
   19.7888  -10.4409  -17.0311 O   0  0  0  0  0  0  0  0  0  0  0  0
   21.5664   -8.8388  -13.1269 O   0  0  0  0  0  0  0  0  0  0  0  0
   22.1054   -9.5618  -14.1932 C   0  0  0  0  0  0  0  0  0  0  0  0
   21.5318   -8.9738  -15.4699 C   0  0  2  0  0  0  0  0  0  0  0  0
   21.9135   -9.7307  -16.6301 N   0  0  0  0  0  0  0  0  0  0  0  0
   21.8264   -7.5369  -15.5718 C   0  0  0  0  0  0  0  0  0  0  0  0
   22.9367   -7.1387  -16.0673 O   0  0  0  0  0  0  0  0  0  0  0  0
   20.9563   -6.4951  -15.1537 N   0  0  0  0  0  0  0  0  0  0  0  0
   21.3153   -5.0889  -15.3434 C   0  0  1  0  0  0  0  0  0  0  0  0
   20.1244   -4.2139  -15.3910 C   0  0  0  0  0  0  0  0  0  0  0  0
   20.4833   -2.7830  -15.6544 C   0  0  0  0  0  0  0  0  0  0  0  0
   19.3342   -1.8484  -15.6482 C   0  0  0  0  0  0  0  0  0  0  0  0
   19.4144   -0.8144  -14.9740 O   0  0  0  0  0  0  0  0  0  0  0  0
   22.1728   -4.7306  -14.1915 C   0  0  0  0  0  0  0  0  0  0  0  0
   23.0987   -3.8653  -14.3503 O   0  0  0  0  0  0  0  0  0  0  0  0
   18.1987   -2.1229  -16.3752 O   0  0  0  0  0  0  0  0  0  0  0  0
   22.0560   -5.2653  -12.9135 O   0  0  0  0  0  0  0  0  0  0  0  0
  2  4  1  0
  2  1  1  0
  3  2  2  0
  5  6  1  0
  5  4  1  0
  6  7  1  1
  6  8  1  0
  8  9  2  0
 10 11  1  0
 12 11  1  1
 12 14  1  0
 13  8  1  0
 13 12  1  0
 14 15  2  0
 16 17  1  0
 16 14  1  0
 17 22  1  0
 18 19  1  0
 17 18  1  1
 20 19  1  0
 21 20  2  0
 22 23  2  0
 22 25  1  0
 24 20  1  0
M  END
$$$$
