QSE.pdb
     RDKit          3D

 25 24  0  0  1  0  0  0  0  0999 V2000
   22.0571  -28.9510   -9.8999 N   0  0  0  0  0  0  0  0  0  0  0  0
   22.4403  -30.0051  -10.8060 C   0  0  0  0  0  0  0  0  0  0  0  0
   23.2203  -30.9113  -10.4617 O   0  0  0  0  0  0  0  0  0  0  0  0
   21.8574  -29.9356  -12.1524 C   0  0  0  0  0  0  0  0  0  0  0  0
   20.8961  -28.8310  -12.3213 C   0  0  0  0  0  0  0  0  0  0  0  0
   19.6364  -28.9008  -11.5452 C   0  0  2  0  0  0  0  0  0  0  0  0
   18.7718  -29.9221  -12.0615 N   0  0  0  0  0  0  0  0  0  0  0  0
   18.8854  -27.6200  -11.5326 C   0  0  0  0  0  0  0  0  0  0  0  0
   18.2959  -27.2187  -12.5693 O   0  0  0  0  0  0  0  0  0  0  0  0
   17.2591  -23.7212   -9.1410 O   0  0  0  0  0  0  0  0  0  0  0  0
   18.0181  -24.8877   -9.0254 C   0  0  0  0  0  0  0  0  0  0  0  0
   18.0943  -25.5125  -10.4070 C   0  0  2  0  0  0  0  0  0  0  0  0
   18.7765  -26.7770  -10.3890 N   0  0  0  0  0  0  0  0  0  0  0  0
   18.6292  -24.5603  -11.3915 C   0  0  0  0  0  0  0  0  0  0  0  0
   19.8714  -24.5768  -11.6973 O   0  0  0  0  0  0  0  0  0  0  0  0
   17.8646  -23.5749  -12.0706 N   0  0  0  0  0  0  0  0  0  0  0  0
   18.4618  -22.7431  -13.1165 C   0  0  1  0  0  0  0  0  0  0  0  0
   18.9311  -23.5476  -14.2647 C   0  0  0  0  0  0  0  0  0  0  0  0
   20.2819  -23.1129  -14.7464 C   0  0  0  0  0  0  0  0  0  0  0  0
   20.7980  -23.8770  -15.9056 C   0  0  0  0  0  0  0  0  0  0  0  0
   20.0906  -24.7683  -16.3909 O   0  0  0  0  0  0  0  0  0  0  0  0
   17.3999  -21.8049  -13.5439 C   0  0  0  0  0  0  0  0  0  0  0  0
   16.1877  -22.2063  -13.5685 O   0  0  0  0  0  0  0  0  0  0  0  0
   22.0393  -23.6044  -16.4330 O   0  0  0  0  0  0  0  0  0  0  0  0
   17.6091  -20.4858  -13.9301 O   0  0  0  0  0  0  0  0  0  0  0  0
  2  4  1  0
  2  1  1  0
  3  2  2  0
  5  6  1  0
  5  4  1  0
  6  7  1  6
  6  8  1  0
  8  9  2  0
 10 11  1  0
 12 11  1  1
 12 14  1  0
 13  8  1  0
 13 12  1  0
 14 15  2  0
 16 17  1  0
 16 14  1  0
 17 22  1  0
 18 19  1  0
 17 18  1  6
 20 19  1  0
 21 20  2  0
 22 23  2  0
 22 25  1  0
 24 20  1  0
M  END
$$$$
