QSE.pdb
     RDKit          3D

 25 24  0  0  1  0  0  0  0  0999 V2000
   11.8113  -11.1481   -9.8817 N   0  0  0  0  0  0  0  0  0  0  0  0
   12.3672  -12.4275  -10.2467 C   0  0  0  0  0  0  0  0  0  0  0  0
   11.8950  -13.4932   -9.8113 O   0  0  0  0  0  0  0  0  0  0  0  0
   13.5211  -12.3889  -11.1547 C   0  0  0  0  0  0  0  0  0  0  0  0
   13.9353  -11.0229  -11.5223 C   0  0  0  0  0  0  0  0  0  0  0  0
   15.3065  -10.6042  -11.1499 C   0  0  2  0  0  0  0  0  0  0  0  0
   15.6889  -11.1658   -9.8867 N   0  0  0  0  0  0  0  0  0  0  0  0
   15.4666   -9.1303  -11.0698 C   0  0  0  0  0  0  0  0  0  0  0  0
   15.2730   -8.4139  -12.0858 O   0  0  0  0  0  0  0  0  0  0  0  0
   15.4894   -5.1591   -8.3533 O   0  0  0  0  0  0  0  0  0  0  0  0
   15.4095   -6.5532   -8.3741 C   0  0  0  0  0  0  0  0  0  0  0  0
   15.8123   -7.0052   -9.7663 C   0  0  2  0  0  0  0  0  0  0  0  0
   15.8369   -8.4374   -9.8811 N   0  0  0  0  0  0  0  0  0  0  0  0
   17.0564   -6.3510  -10.1977 C   0  0  0  0  0  0  0  0  0  0  0  0
   18.0789   -6.3365   -9.4289 O   0  0  0  0  0  0  0  0  0  0  0  0
   17.2444   -5.7010  -11.4465 N   0  0  0  0  0  0  0  0  0  0  0  0
   18.5221   -5.0735  -11.7870 C   0  0  1  0  0  0  0  0  0  0  0  0
   19.2016   -5.7678  -12.9015 C   0  0  0  0  0  0  0  0  0  0  0  0
   19.8902   -7.0207  -12.4523 C   0  0  0  0  0  0  0  0  0  0  0  0
   20.4373   -7.8507  -13.5504 C   0  0  0  0  0  0  0  0  0  0  0  0
   21.6200   -7.6955  -13.8783 O   0  0  0  0  0  0  0  0  0  0  0  0
   18.2004   -3.6798  -12.1673 C   0  0  0  0  0  0  0  0  0  0  0  0
   19.1534   -2.8525  -12.3638 O   0  0  0  0  0  0  0  0  0  0  0  0
   19.6482   -8.7749  -14.1955 O   0  0  0  0  0  0  0  0  0  0  0  0
   16.9159   -3.1757  -12.3373 O   0  0  0  0  0  0  0  0  0  0  0  0
  2  4  1  0
  2  1  1  0
  3  2  2  0
  5  6  1  0
  5  4  1  0
  6  7  1  1
  6  8  1  0
  8  9  2  0
 10 11  1  0
 12 11  1  1
 12 14  1  0
 13  8  1  0
 13 12  1  0
 14 15  2  0
 16 17  1  0
 16 14  1  0
 17 22  1  0
 18 19  1  0
 17 18  1  6
 20 19  1  0
 21 20  2  0
 22 23  2  0
 22 25  1  0
 24 20  1  0
M  END
$$$$
