QSE.pdb
     RDKit          3D

 25 24  0  0  1  0  0  0  0  0999 V2000
   20.6856  -11.4296  -20.2877 N   0  0  0  0  0  0  0  0  0  0  0  0
   19.3589  -11.8692  -20.6422 C   0  0  0  0  0  0  0  0  0  0  0  0
   19.1183  -12.3998  -21.7417 O   0  0  0  0  0  0  0  0  0  0  0  0
   18.3184  -11.6462  -19.6297 C   0  0  0  0  0  0  0  0  0  0  0  0
   18.8209  -11.0058  -18.4007 C   0  0  0  0  0  0  0  0  0  0  0  0
   19.7312  -11.7996  -17.5433 C   0  0  2  0  0  0  0  0  0  0  0  0
   19.0669  -12.9612  -17.0272 N   0  0  0  0  0  0  0  0  0  0  0  0
   20.2753  -11.0287  -16.3969 C   0  0  0  0  0  0  0  0  0  0  0  0
   19.5137  -10.6396  -15.4740 O   0  0  0  0  0  0  0  0  0  0  0  0
   24.3795  -10.1868  -15.8612 O   0  0  0  0  0  0  0  0  0  0  0  0
   23.5524  -10.3499  -14.7479 C   0  0  0  0  0  0  0  0  0  0  0  0
   22.1579   -9.9100  -15.1564 C   0  0  2  0  0  0  0  0  0  0  0  0
   21.6504  -10.6827  -16.2564 N   0  0  0  0  0  0  0  0  0  0  0  0
   22.1016   -8.4567  -15.3722 C   0  0  0  0  0  0  0  0  0  0  0  0
   22.2972   -7.9688  -16.5387 O   0  0  0  0  0  0  0  0  0  0  0  0
   21.8379   -7.4928  -14.3631 N   0  0  0  0  0  0  0  0  0  0  0  0
   21.7556   -6.0669  -14.6830 C   0  0  1  0  0  0  0  0  0  0  0  0
   20.3645   -5.6342  -14.9349 C   0  0  0  0  0  0  0  0  0  0  0  0
   20.2742   -4.1714  -15.2475 C   0  0  0  0  0  0  0  0  0  0  0  0
   18.9060   -3.6882  -15.5450 C   0  0  0  0  0  0  0  0  0  0  0  0
   18.7378   -2.4826  -15.7658 O   0  0  0  0  0  0  0  0  0  0  0  0
   22.3126   -5.3557  -13.5106 C   0  0  0  0  0  0  0  0  0  0  0  0
   22.3939   -5.9674  -12.3925 O   0  0  0  0  0  0  0  0  0  0  0  0
   17.8417   -4.5597  -15.5741 O   0  0  0  0  0  0  0  0  0  0  0  0
   22.7714   -4.0433  -13.5179 O   0  0  0  0  0  0  0  0  0  0  0  0
  2  4  1  0
  2  1  1  0
  3  2  2  0
  5  6  1  0
  5  4  1  0
  6  7  1  1
  6  8  1  0
  8  9  2  0
 10 11  1  0
 12 11  1  6
 12 14  1  0
 13  8  1  0
 13 12  1  0
 14 15  2  0
 16 17  1  0
 16 14  1  0
 17 22  1  0
 18 19  1  0
 17 18  1  1
 20 19  1  0
 21 20  2  0
 22 23  2  0
 22 25  1  0
 24 20  1  0
M  END
$$$$
