QSE.pdb
     RDKit          3D

 25 24  0  0  1  0  0  0  0  0999 V2000
   26.3039  -36.8301   -6.8775 N   0  0  0  0  0  0  0  0  0  0  0  0
   27.5872  -37.2440   -7.3884 C   0  0  0  0  0  0  0  0  0  0  0  0
   27.7266  -37.6440   -8.5583 O   0  0  0  0  0  0  0  0  0  0  0  0
   28.7081  -37.1675   -6.4422 C   0  0  0  0  0  0  0  0  0  0  0  0
   28.3283  -36.6336   -5.1218 C   0  0  0  0  0  0  0  0  0  0  0  0
   28.5846  -35.1967   -4.8696 C   0  0  2  0  0  0  0  0  0  0  0  0
   29.9385  -34.9836   -4.4469 N   0  0  0  0  0  0  0  0  0  0  0  0
   27.6817  -34.6124   -3.8459 C   0  0  0  0  0  0  0  0  0  0  0  0
   27.9870  -34.6624   -2.6263 O   0  0  0  0  0  0  0  0  0  0  0  0
   24.1150  -32.8136   -4.8823 O   0  0  0  0  0  0  0  0  0  0  0  0
   24.7045  -32.3029   -3.7239 C   0  0  0  0  0  0  0  0  0  0  0  0
   25.5909  -33.3950   -3.1524 C   0  0  2  0  0  0  0  0  0  0  0  0
   26.4459  -33.9727   -4.1524 N   0  0  0  0  0  0  0  0  0  0  0  0
   24.8005  -34.3815   -2.4014 C   0  0  0  0  0  0  0  0  0  0  0  0
   24.3856  -35.4478   -2.9740 O   0  0  0  0  0  0  0  0  0  0  0  0
   24.4340  -34.2617   -1.0345 N   0  0  0  0  0  0  0  0  0  0  0  0
   23.5725  -35.2560   -0.3931 C   0  0  1  0  0  0  0  0  0  0  0  0
   23.6179  -35.1608    1.0816 C   0  0  0  0  0  0  0  0  0  0  0  0
   24.9064  -35.6803    1.6432 C   0  0  0  0  0  0  0  0  0  0  0  0
   25.0710  -35.4740    3.1007 C   0  0  0  0  0  0  0  0  0  0  0  0
   24.5939  -34.4539    3.6128 O   0  0  0  0  0  0  0  0  0  0  0  0
   22.2035  -34.9841   -0.8856 C   0  0  0  0  0  0  0  0  0  0  0  0
   21.9720  -33.8952   -1.5114 O   0  0  0  0  0  0  0  0  0  0  0  0
   25.7417  -36.3954    3.8716 O   0  0  0  0  0  0  0  0  0  0  0  0
   21.1149  -35.8340   -0.7256 O   0  0  0  0  0  0  0  0  0  0  0  0
  2  4  1  0
  2  1  1  0
  3  2  2  0
  5  6  1  0
  5  4  1  0
  6  7  1  1
  6  8  1  0
  8  9  2  0
 10 11  1  0
 12 11  1  6
 12 14  1  0
 13  8  1  0
 13 12  1  0
 14 15  2  0
 16 17  1  0
 16 14  1  0
 17 22  1  0
 18 19  1  0
 17 18  1  1
 20 19  1  0
 21 20  2  0
 22 23  2  0
 22 25  1  0
 24 20  1  0
M  END
$$$$
