QSE.pdb
     RDKit          3D

 25 24  0  0  1  0  0  0  0  0999 V2000
   16.1025  -10.7898  -17.6743 N   0  0  0  0  0  0  0  0  0  0  0  0
   16.0059  -12.1540  -17.2174 C   0  0  0  0  0  0  0  0  0  0  0  0
   15.1938  -12.9541  -17.7160 O   0  0  0  0  0  0  0  0  0  0  0  0
   16.9185  -12.5314  -16.1301 C   0  0  0  0  0  0  0  0  0  0  0  0
   17.7687  -11.4213  -15.6634 C   0  0  0  0  0  0  0  0  0  0  0  0
   18.8654  -10.9822  -16.5568 C   0  0  2  0  0  0  0  0  0  0  0  0
   19.5245  -12.1086  -17.1518 N   0  0  0  0  0  0  0  0  0  0  0  0
   19.8888  -10.1582  -15.8653 C   0  0  0  0  0  0  0  0  0  0  0  0
   19.5479   -9.3360  -14.9759 O   0  0  0  0  0  0  0  0  0  0  0  0
   23.9369  -10.9136  -15.0695 O   0  0  0  0  0  0  0  0  0  0  0  0
   23.6754   -9.7839  -15.8477 C   0  0  0  0  0  0  0  0  0  0  0  0
   22.2515   -9.3514  -15.5470 C   0  0  2  0  0  0  0  0  0  0  0  0
   21.2845  -10.2314  -16.1430 N   0  0  0  0  0  0  0  0  0  0  0  0
   22.0475   -7.9324  -15.8735 C   0  0  0  0  0  0  0  0  0  0  0  0
   21.7665   -7.5788  -17.0705 O   0  0  0  0  0  0  0  0  0  0  0  0
   22.1359   -6.8618  -14.9445 N   0  0  0  0  0  0  0  0  0  0  0  0
   21.8285   -5.4875  -15.3436 C   0  0  1  0  0  0  0  0  0  0  0  0
   20.3956   -5.3094  -15.6613 C   0  0  0  0  0  0  0  0  0  0  0  0
   20.0656   -3.8905  -16.0125 C   0  0  0  0  0  0  0  0  0  0  0  0
   18.7021   -3.6914  -16.5560 C   0  0  0  0  0  0  0  0  0  0  0  0
   17.9004   -4.6322  -16.5055 O   0  0  0  0  0  0  0  0  0  0  0  0
   22.2117   -4.6366  -14.1948 C   0  0  0  0  0  0  0  0  0  0  0  0
   22.3411   -5.1694  -13.0414 O   0  0  0  0  0  0  0  0  0  0  0  0
   18.3325   -2.4864  -17.1078 O   0  0  0  0  0  0  0  0  0  0  0  0
   22.4532   -3.2690  -14.2608 O   0  0  0  0  0  0  0  0  0  0  0  0
  2  4  1  0
  2  1  1  0
  3  2  2  0
  5  6  1  0
  5  4  1  0
  6  7  1  1
  6  8  1  0
  8  9  2  0
 10 11  1  0
 12 11  1  6
 12 14  1  0
 13  8  1  0
 13 12  1  0
 14 15  2  0
 16 17  1  0
 16 14  1  0
 17 22  1  0
 18 19  1  0
 17 18  1  1
 20 19  1  0
 21 20  2  0
 22 23  2  0
 22 25  1  0
 24 20  1  0
M  END
$$$$
