EFG.pdb
     RDKit          3D

 25 25  0  0  1  0  0  0  0  0999 V2000
   25.5960  -23.5262  -16.7960 N   0  0  0  0  0  0  0  0  0  0  0  0
   25.9417  -22.2416  -16.2187 C   0  0  1  0  0  0  0  0  0  0  0  0
   25.2642  -21.1291  -16.9871 C   0  0  0  0  0  0  0  0  0  0  0  0
   25.0607  -21.4791  -18.4294 C   0  0  0  0  0  0  0  0  0  0  0  0
   26.3278  -21.3405  -19.1800 C   0  0  0  0  0  0  0  0  0  0  0  0
   26.8294  -22.3402  -19.7626 O   0  0  0  0  0  0  0  0  0  0  0  0
   25.5211  -22.2361  -14.7826 C   0  0  0  0  0  0  0  0  0  0  0  0
   24.5814  -22.9779  -14.4040 O   0  0  0  0  0  0  0  0  0  0  0  0
   26.9944  -20.1301  -19.2668 O   0  0  0  0  0  0  0  0  0  0  0  0
   26.1556  -21.4099  -13.8176 N   0  0  0  0  0  0  0  0  0  0  0  0
   25.7106  -21.2018  -12.4640 C   0  0  1  0  0  0  0  0  0  0  0  0
   26.8041  -20.6986  -11.5213 C   0  0  0  0  0  0  0  0  0  0  0  0
   26.2931  -20.4535  -10.1458 C   0  0  0  0  0  0  0  0  0  0  0  0
   26.3105  -19.2449   -9.5003 C   0  0  0  0  0  0  0  0  0  0  0  0
   25.8254  -19.0915   -8.2073 C   0  0  0  0  0  0  0  0  0  0  0  0
   25.3035  -20.1606   -7.5206 C   0  0  0  0  0  0  0  0  0  0  0  0
   25.2844  -21.3657   -8.1611 C   0  0  0  0  0  0  0  0  0  0  0  0
   25.7555  -21.5349   -9.4278 C   0  0  0  0  0  0  0  0  0  0  0  0
   24.4827  -20.3892  -12.3669 C   0  0  0  0  0  0  0  0  0  0  0  0
   24.4168  -19.3010  -13.0030 O   0  0  0  0  0  0  0  0  0  0  0  0
   23.3562  -20.7540  -11.5962 N   0  0  0  0  0  0  0  0  0  0  0  0
   22.1502  -19.9115  -11.5487 C   0  0  0  0  0  0  0  0  0  0  0  0
   21.0619  -20.5270  -12.3462 C   0  0  0  0  0  0  0  0  0  0  0  0
   19.8749  -20.4070  -11.9750 O   0  0  0  0  0  0  0  0  0  0  0  0
   21.3486  -21.2334  -13.4980 O   0  0  0  0  0  0  0  0  0  0  0  0
  2  1  1  6
  2  7  1  0
  3  2  1  0
  4  3  1  0
  5  4  1  0
  6  5  2  0
  7 10  1  0
  7  8  2  0
  9  5  1  0
 10 11  1  0
 11 12  1  1
 13 12  1  0
 14 13  2  0
 15 14  1  0
 16 17  1  0
 16 15  2  0
 17 18  2  0
 18 13  1  0
 19 21  1  0
 19 11  1  0
 20 19  2  0
 22 21  1  0
 23 22  1  0
 24 23  2  0
 25 23  1  0
M  END
$$$$
