EFG.pdb
     RDKit          3D

 25 25  0  0  1  0  0  0  0  0999 V2000
   25.9514  -21.0222  -13.2204 N   0  0  0  0  0  0  0  0  0  0  0  0
   25.2211  -20.3354  -12.1726 C   0  0  1  0  0  0  0  0  0  0  0  0
   23.7461  -20.6528  -12.2757 C   0  0  0  0  0  0  0  0  0  0  0  0
   23.1059  -19.9934  -13.4587 C   0  0  0  0  0  0  0  0  0  0  0  0
   23.6700  -20.5273  -14.7176 C   0  0  0  0  0  0  0  0  0  0  0  0
   23.2420  -21.6154  -15.1901 O   0  0  0  0  0  0  0  0  0  0  0  0
   25.7716  -20.7641  -10.8488 C   0  0  0  0  0  0  0  0  0  0  0  0
   25.9554  -21.9839  -10.6140 O   0  0  0  0  0  0  0  0  0  0  0  0
   24.6695  -19.8625  -15.4077 O   0  0  0  0  0  0  0  0  0  0  0  0
   26.0989  -19.8275   -9.8330 N   0  0  0  0  0  0  0  0  0  0  0  0
   26.5633  -20.1496   -8.5084 C   0  0  1  0  0  0  0  0  0  0  0  0
   27.2855  -18.9991   -7.8068 C   0  0  0  0  0  0  0  0  0  0  0  0
   28.0181  -19.4505   -6.5933 C   0  0  0  0  0  0  0  0  0  0  0  0
   28.8989  -20.4991   -6.5465 C   0  0  0  0  0  0  0  0  0  0  0  0
   29.5400  -20.8730   -5.3717 C   0  0  0  0  0  0  0  0  0  0  0  0
   29.3108  -20.1951   -4.1992 C   0  0  0  0  0  0  0  0  0  0  0  0
   28.4343  -19.1498   -4.2426 C   0  0  0  0  0  0  0  0  0  0  0  0
   27.7967  -18.7692   -5.3846 C   0  0  0  0  0  0  0  0  0  0  0  0
   25.5242  -20.7523   -7.6512 C   0  0  0  0  0  0  0  0  0  0  0  0
   24.3905  -20.2015   -7.5842 O   0  0  0  0  0  0  0  0  0  0  0  0
   25.7169  -21.9249   -6.8871 N   0  0  0  0  0  0  0  0  0  0  0  0
   24.6305  -22.5064   -6.0820 C   0  0  0  0  0  0  0  0  0  0  0  0
   24.4175  -21.7056   -4.8522 C   0  0  0  0  0  0  0  0  0  0  0  0
   25.0945  -20.6735   -4.6573 O   0  0  0  0  0  0  0  0  0  0  0  0
   23.4759  -22.0904   -3.9179 O   0  0  0  0  0  0  0  0  0  0  0  0
  2  1  1  6
  2  7  1  0
  3  2  1  0
  4  3  1  0
  5  4  1  0
  6  5  2  0
  7 10  1  0
  7  8  2  0
  9  5  1  0
 10 11  1  0
 11 12  1  1
 13 12  1  0
 14 13  2  0
 15 14  1  0
 16 17  1  0
 16 15  2  0
 17 18  2  0
 18 13  1  0
 19 21  1  0
 19 11  1  0
 20 19  2  0
 22 21  1  0
 23 22  1  0
 24 23  2  0
 25 23  1  0
M  END
$$$$
