EFG.pdb
     RDKit          3D

 25 25  0  0  1  0  0  0  0  0999 V2000
   28.2516  -21.2429  -14.9072 N   0  0  0  0  0  0  0  0  0  0  0  0
   26.8984  -20.7236  -14.9526 C   0  0  1  0  0  0  0  0  0  0  0  0
   26.2128  -21.1744  -16.2230 C   0  0  0  0  0  0  0  0  0  0  0  0
   26.0824  -20.0648  -17.2210 C   0  0  0  0  0  0  0  0  0  0  0  0
   25.8696  -20.6117  -18.5788 C   0  0  0  0  0  0  0  0  0  0  0  0
   25.7219  -21.8532  -18.7437 O   0  0  0  0  0  0  0  0  0  0  0  0
   26.1615  -21.2078  -13.7436 C   0  0  0  0  0  0  0  0  0  0  0  0
   25.6713  -22.3638  -13.7321 O   0  0  0  0  0  0  0  0  0  0  0  0
   25.8259  -19.7937  -19.6951 O   0  0  0  0  0  0  0  0  0  0  0  0
   25.9939  -20.3954  -12.5911 N   0  0  0  0  0  0  0  0  0  0  0  0
   25.2690  -20.7604  -11.4016 C   0  0  1  0  0  0  0  0  0  0  0  0
   25.8924  -20.2343  -10.1086 C   0  0  0  0  0  0  0  0  0  0  0  0
   27.2927  -20.7029   -9.9269 C   0  0  0  0  0  0  0  0  0  0  0  0
   28.0488  -21.3236  -10.8863 C   0  0  0  0  0  0  0  0  0  0  0  0
   29.3497  -21.7463  -10.6422 C   0  0  0  0  0  0  0  0  0  0  0  0
   29.9325  -21.5537   -9.4132 C   0  0  0  0  0  0  0  0  0  0  0  0
   29.1821  -20.9353   -8.4556 C   0  0  0  0  0  0  0  0  0  0  0  0
   27.9056  -20.5146   -8.6769 C   0  0  0  0  0  0  0  0  0  0  0  0
   23.8255  -20.4632  -11.4780 C   0  0  0  0  0  0  0  0  0  0  0  0
   23.4458  -19.4239  -12.0852 O   0  0  0  0  0  0  0  0  0  0  0  0
   22.8227  -21.2783  -10.9071 N   0  0  0  0  0  0  0  0  0  0  0  0
   21.4027  -20.8929  -10.9458 C   0  0  0  0  0  0  0  0  0  0  0  0
   20.8148  -21.2303  -12.2647 C   0  0  0  0  0  0  0  0  0  0  0  0
   21.5274  -21.7539  -13.1475 O   0  0  0  0  0  0  0  0  0  0  0  0
   19.4838  -20.9707  -12.5274 O   0  0  0  0  0  0  0  0  0  0  0  0
  2  1  1  1
  2  7  1  0
  3  2  1  0
  4  3  1  0
  5  4  1  0
  6  5  2  0
  7 10  1  0
  7  8  2  0
  9  5  1  0
 10 11  1  0
 11 12  1  1
 13 12  1  0
 14 13  2  0
 15 14  1  0
 16 17  1  0
 16 15  2  0
 17 18  2  0
 18 13  1  0
 19 21  1  0
 19 11  1  0
 20 19  2  0
 22 21  1  0
 23 22  1  0
 24 23  2  0
 25 23  1  0
M  END
$$$$
