EFG.pdb
     RDKit          3D

 25 25  0  0  1  0  0  0  0  0999 V2000
   28.3406  -21.2873  -16.6767 N   0  0  0  0  0  0  0  0  0  0  0  0
   27.3173  -20.3458  -16.2652 C   0  0  1  0  0  0  0  0  0  0  0  0
   26.3461  -20.1077  -17.3997 C   0  0  0  0  0  0  0  0  0  0  0  0
   26.9978  -19.4428  -18.5734 C   0  0  0  0  0  0  0  0  0  0  0  0
   25.9907  -19.1056  -19.6029 C   0  0  0  0  0  0  0  0  0  0  0  0
   25.9897  -19.7127  -20.7083 O   0  0  0  0  0  0  0  0  0  0  0  0
   26.6158  -20.8993  -15.0648 C   0  0  0  0  0  0  0  0  0  0  0  0
   26.4226  -22.1363  -14.9693 O   0  0  0  0  0  0  0  0  0  0  0  0
   25.0317  -18.1294  -19.3918 O   0  0  0  0  0  0  0  0  0  0  0  0
   26.1537  -20.0638  -14.0138 N   0  0  0  0  0  0  0  0  0  0  0  0
   25.5069  -20.5089  -12.8066 C   0  0  1  0  0  0  0  0  0  0  0  0
   26.2533  -20.1317  -11.5268 C   0  0  0  0  0  0  0  0  0  0  0  0
   27.6883  -20.5210  -11.5761 C   0  0  0  0  0  0  0  0  0  0  0  0
   28.6411  -19.9286  -12.3628 C   0  0  0  0  0  0  0  0  0  0  0  0
   29.9641  -20.3533  -12.3664 C   0  0  0  0  0  0  0  0  0  0  0  0
   30.3699  -21.3964  -11.5700 C   0  0  0  0  0  0  0  0  0  0  0  0
   29.4233  -21.9883  -10.7849 C   0  0  0  0  0  0  0  0  0  0  0  0
   28.1222  -21.5856  -10.7685 C   0  0  0  0  0  0  0  0  0  0  0  0
   24.0777  -20.1478  -12.7376 C   0  0  0  0  0  0  0  0  0  0  0  0
   23.7312  -18.9651  -13.0103 O   0  0  0  0  0  0  0  0  0  0  0  0
   23.0534  -21.0530  -12.3806 N   0  0  0  0  0  0  0  0  0  0  0  0
   22.9286  -22.3689  -13.0281 C   0  0  0  0  0  0  0  0  0  0  0  0
   21.6830  -22.4304  -13.8304 C   0  0  0  0  0  0  0  0  0  0  0  0
   20.5808  -22.5670  -13.2578 O   0  0  0  0  0  0  0  0  0  0  0  0
   21.7296  -22.3381  -15.2078 O   0  0  0  0  0  0  0  0  0  0  0  0
  2  1  1  6
  2  7  1  0
  3  2  1  0
  4  3  1  0
  5  4  1  0
  6  5  2  0
  7 10  1  0
  7  8  2  0
  9  5  1  0
 10 11  1  0
 11 12  1  1
 13 12  1  0
 14 13  2  0
 15 14  1  0
 16 17  1  0
 16 15  2  0
 17 18  2  0
 18 13  1  0
 19 21  1  0
 19 11  1  0
 20 19  2  0
 22 21  1  0
 23 22  1  0
 24 23  2  0
 25 23  1  0
M  END
$$$$
