EFG.pdb
     RDKit          3D

 25 25  0  0  1  0  0  0  0  0999 V2000
   20.0573  -13.2457  -18.9548 N   0  0  0  0  0  0  0  0  0  0  0  0
   20.7877  -12.0675  -19.3806 C   0  0  1  0  0  0  0  0  0  0  0  0
   20.2877  -11.6084  -20.7320 C   0  0  0  0  0  0  0  0  0  0  0  0
   20.7417  -12.5087  -21.8400 C   0  0  0  0  0  0  0  0  0  0  0  0
   22.1892  -12.3339  -22.0893 C   0  0  0  0  0  0  0  0  0  0  0  0
   23.0179  -13.1461  -21.5953 O   0  0  0  0  0  0  0  0  0  0  0  0
   20.6087  -10.9977  -18.3497 C   0  0  0  0  0  0  0  0  0  0  0  0
   19.5040  -10.8707  -17.7666 O   0  0  0  0  0  0  0  0  0  0  0  0
   22.6750  -11.2912  -22.8599 O   0  0  0  0  0  0  0  0  0  0  0  0
   21.6587  -10.1074  -18.0016 N   0  0  0  0  0  0  0  0  0  0  0  0
   21.5548   -8.9990  -17.0881 C   0  0  1  0  0  0  0  0  0  0  0  0
   22.6837   -8.9345  -16.0592 C   0  0  0  0  0  0  0  0  0  0  0  0
   22.4913   -7.8309  -15.0803 C   0  0  0  0  0  0  0  0  0  0  0  0
   21.8066   -7.9340  -13.8979 C   0  0  0  0  0  0  0  0  0  0  0  0
   21.6562   -6.8551  -13.0352 C   0  0  0  0  0  0  0  0  0  0  0  0
   22.1966   -5.6298  -13.3410 C   0  0  0  0  0  0  0  0  0  0  0  0
   22.8796   -5.5239  -14.5179 C   0  0  0  0  0  0  0  0  0  0  0  0
   23.0368   -6.5703  -15.3756 C   0  0  0  0  0  0  0  0  0  0  0  0
   21.3462   -7.7014  -17.7593 C   0  0  0  0  0  0  0  0  0  0  0  0
   22.2318   -7.2712  -18.5491 O   0  0  0  0  0  0  0  0  0  0  0  0
   20.2016   -6.8942  -17.5737 N   0  0  0  0  0  0  0  0  0  0  0  0
   20.1153   -5.5387  -18.1408 C   0  0  0  0  0  0  0  0  0  0  0  0
   19.9364   -4.5399  -17.0592 C   0  0  0  0  0  0  0  0  0  0  0  0
   19.4986   -4.9008  -15.9459 O   0  0  0  0  0  0  0  0  0  0  0  0
   20.2496   -3.2115  -17.2712 O   0  0  0  0  0  0  0  0  0  0  0  0
  2  1  1  1
  2  7  1  0
  3  2  1  0
  4  3  1  0
  5  4  1  0
  6  5  2  0
  7 10  1  0
  7  8  2  0
  9  5  1  0
 10 11  1  0
 11 12  1  6
 13 12  1  0
 14 13  2  0
 15 14  1  0
 16 17  1  0
 16 15  2  0
 17 18  2  0
 18 13  1  0
 19 21  1  0
 19 11  1  0
 20 19  2  0
 22 21  1  0
 23 22  1  0
 24 23  2  0
 25 23  1  0
M  END
$$$$
