EFG.pdb
     RDKit          3D

 25 25  0  0  1  0  0  0  0  0999 V2000
   28.8138  -19.4104  -15.4926 N   0  0  0  0  0  0  0  0  0  0  0  0
   27.4680  -18.8984  -15.3204 C   0  0  1  0  0  0  0  0  0  0  0  0
   26.7983  -18.7386  -16.6669 C   0  0  0  0  0  0  0  0  0  0  0  0
   27.6893  -19.1572  -17.7962 C   0  0  0  0  0  0  0  0  0  0  0  0
   27.5200  -18.2510  -18.9529 C   0  0  0  0  0  0  0  0  0  0  0  0
   28.3911  -17.3732  -19.2004 O   0  0  0  0  0  0  0  0  0  0  0  0
   26.7051  -19.8471  -14.4502 C   0  0  0  0  0  0  0  0  0  0  0  0
   25.9314  -20.6879  -14.9709 O   0  0  0  0  0  0  0  0  0  0  0  0
   26.4191  -18.3340  -19.7885 O   0  0  0  0  0  0  0  0  0  0  0  0
   26.8262  -19.8309  -13.0355 N   0  0  0  0  0  0  0  0  0  0  0  0
   26.0862  -20.6575  -12.1175 C   0  0  1  0  0  0  0  0  0  0  0  0
   26.6579  -20.6764  -10.6997 C   0  0  0  0  0  0  0  0  0  0  0  0
   28.0732  -21.1338  -10.6691 C   0  0  0  0  0  0  0  0  0  0  0  0
   28.7780  -21.4469   -9.5364 C   0  0  0  0  0  0  0  0  0  0  0  0
   30.1047  -21.8573   -9.5822 C   0  0  0  0  0  0  0  0  0  0  0  0
   30.7662  -21.9657  -10.7812 C   0  0  0  0  0  0  0  0  0  0  0  0
   30.0668  -21.6549  -11.9113 C   0  0  0  0  0  0  0  0  0  0  0  0
   28.7662  -21.2508  -11.8856 C   0  0  0  0  0  0  0  0  0  0  0  0
   24.6351  -20.3891  -12.1229 C   0  0  0  0  0  0  0  0  0  0  0  0
   24.2335  -19.1960  -12.2141 O   0  0  0  0  0  0  0  0  0  0  0  0
   23.6480  -21.3958  -12.0312 N   0  0  0  0  0  0  0  0  0  0  0  0
   22.2182  -21.0643  -11.9205 C   0  0  0  0  0  0  0  0  0  0  0  0
   21.5266  -21.3391  -13.2032 C   0  0  0  0  0  0  0  0  0  0  0  0
   22.1705  -21.7976  -14.1710 O   0  0  0  0  0  0  0  0  0  0  0  0
   20.1743  -21.0925  -13.3388 O   0  0  0  0  0  0  0  0  0  0  0  0
  2  1  1  6
  2  7  1  0
  3  2  1  0
  4  3  1  0
  5  4  1  0
  6  5  2  0
  7 10  1  0
  7  8  2  0
  9  5  1  0
 10 11  1  0
 11 12  1  1
 13 12  1  0
 14 13  2  0
 15 14  1  0
 16 17  1  0
 16 15  2  0
 17 18  2  0
 18 13  1  0
 19 21  1  0
 19 11  1  0
 20 19  2  0
 22 21  1  0
 23 22  1  0
 24 23  2  0
 25 23  1  0
M  END
$$$$
