EFG.pdb
     RDKit          3D

 25 25  0  0  1  0  0  0  0  0999 V2000
   17.8828  -11.8602  -14.9986 N   0  0  0  0  0  0  0  0  0  0  0  0
   17.8140  -10.6771  -15.8344 C   0  0  1  0  0  0  0  0  0  0  0  0
   16.4361  -10.5538  -16.4454 C   0  0  0  0  0  0  0  0  0  0  0  0
   15.3503  -10.8692  -15.4627 C   0  0  0  0  0  0  0  0  0  0  0  0
   14.0226  -10.7652  -16.1066 C   0  0  0  0  0  0  0  0  0  0  0  0
   13.5793  -11.7221  -16.7981 O   0  0  0  0  0  0  0  0  0  0  0  0
   18.1385   -9.4815  -14.9951 C   0  0  0  0  0  0  0  0  0  0  0  0
   17.8517   -9.4799  -13.7726 O   0  0  0  0  0  0  0  0  0  0  0  0
   13.2354   -9.6339  -15.9743 O   0  0  0  0  0  0  0  0  0  0  0  0
   18.7684   -8.3310  -15.5390 N   0  0  0  0  0  0  0  0  0  0  0  0
   19.1654   -7.1600  -14.8009 C   0  0  1  0  0  0  0  0  0  0  0  0
   20.6712   -6.8963  -14.8177 C   0  0  0  0  0  0  0  0  0  0  0  0
   21.4475   -8.0269  -14.2412 C   0  0  0  0  0  0  0  0  0  0  0  0
   21.5561   -8.3107  -12.9051 C   0  0  0  0  0  0  0  0  0  0  0  0
   22.3103   -9.3793  -12.4362 C   0  0  0  0  0  0  0  0  0  0  0  0
   22.9830  -10.2011  -13.3074 C   0  0  0  0  0  0  0  0  0  0  0  0
   22.8765   -9.9213  -14.6390 C   0  0  0  0  0  0  0  0  0  0  0  0
   22.1422   -8.8783  -15.1168 C   0  0  0  0  0  0  0  0  0  0  0  0
   18.3908   -5.9535  -15.1508 C   0  0  0  0  0  0  0  0  0  0  0  0
   18.2055   -5.6768  -16.3682 O   0  0  0  0  0  0  0  0  0  0  0  0
   17.8331   -5.0723  -14.1977 N   0  0  0  0  0  0  0  0  0  0  0  0
   16.9808   -3.9419  -14.6004 C   0  0  0  0  0  0  0  0  0  0  0  0
   17.7645   -2.9655  -15.3952 C   0  0  0  0  0  0  0  0  0  0  0  0
   18.9069   -2.6297  -15.0164 O   0  0  0  0  0  0  0  0  0  0  0  0
   17.2425   -2.4224  -16.5530 O   0  0  0  0  0  0  0  0  0  0  0  0
  2  1  1  1
  2  7  1  0
  3  2  1  0
  4  3  1  0
  5  4  1  0
  6  5  2  0
  7 10  1  0
  7  8  2  0
  9  5  1  0
 10 11  1  0
 11 12  1  6
 13 12  1  0
 14 13  2  0
 15 14  1  0
 16 17  1  0
 16 15  2  0
 17 18  2  0
 18 13  1  0
 19 21  1  0
 19 11  1  0
 20 19  2  0
 22 21  1  0
 23 22  1  0
 24 23  2  0
 25 23  1  0
M  END
$$$$
