EFG.pdb
     RDKit          3D

 25 25  0  0  1  0  0  0  0  0999 V2000
   28.2535  -22.2232  -15.9604 N   0  0  0  0  0  0  0  0  0  0  0  0
   27.8020  -21.0383  -15.2567 C   0  0  1  0  0  0  0  0  0  0  0  0
   27.0334  -20.1382  -16.1980 C   0  0  0  0  0  0  0  0  0  0  0  0
   26.3249  -20.9105  -17.2684 C   0  0  0  0  0  0  0  0  0  0  0  0
   25.5768  -19.9958  -18.1583 C   0  0  0  0  0  0  0  0  0  0  0  0
   26.1990  -19.2036  -18.9170 O   0  0  0  0  0  0  0  0  0  0  0  0
   26.9480  -21.4652  -14.1045 C   0  0  0  0  0  0  0  0  0  0  0  0
   26.3984  -22.5941  -14.1187 O   0  0  0  0  0  0  0  0  0  0  0  0
   24.1927  -19.9786  -18.1880 O   0  0  0  0  0  0  0  0  0  0  0  0
   26.7332  -20.6274  -12.9783 N   0  0  0  0  0  0  0  0  0  0  0  0
   25.8920  -20.9325  -11.8499 C   0  0  1  0  0  0  0  0  0  0  0  0
   26.4238  -20.4030  -10.5179 C   0  0  0  0  0  0  0  0  0  0  0  0
   27.8024  -20.8829  -10.2309 C   0  0  0  0  0  0  0  0  0  0  0  0
   28.2756  -21.2327   -8.9935 C   0  0  0  0  0  0  0  0  0  0  0  0
   29.5822  -21.6625   -8.7970 C   0  0  0  0  0  0  0  0  0  0  0  0
   30.4583  -21.7538   -9.8511 C   0  0  0  0  0  0  0  0  0  0  0  0
   29.9899  -21.4065  -11.0851 C   0  0  0  0  0  0  0  0  0  0  0  0
   28.7127  -20.9829  -11.2964 C   0  0  0  0  0  0  0  0  0  0  0  0
   24.4754  -20.5754  -12.0588 C   0  0  0  0  0  0  0  0  0  0  0  0
   23.8764  -19.9040  -11.1736 O   0  0  0  0  0  0  0  0  0  0  0  0
   23.7319  -20.9412  -13.2031 N   0  0  0  0  0  0  0  0  0  0  0  0
   22.5782  -21.8507  -13.1133 C   0  0  0  0  0  0  0  0  0  0  0  0
   21.3454  -21.0873  -12.8026 C   0  0  0  0  0  0  0  0  0  0  0  0
   20.8330  -20.3525  -13.6737 O   0  0  0  0  0  0  0  0  0  0  0  0
   20.7567  -21.1810  -11.5566 O   0  0  0  0  0  0  0  0  0  0  0  0
  2  1  1  6
  2  7  1  0
  3  2  1  0
  4  3  1  0
  5  4  1  0
  6  5  2  0
  7 10  1  0
  7  8  2  0
  9  5  1  0
 10 11  1  0
 11 12  1  1
 13 12  1  0
 14 13  2  0
 15 14  1  0
 16 17  1  0
 16 15  2  0
 17 18  2  0
 18 13  1  0
 19 21  1  0
 19 11  1  0
 20 19  2  0
 22 21  1  0
 23 22  1  0
 24 23  2  0
 25 23  1  0
M  END
$$$$
