EFG.pdb
     RDKit          3D

 25 25  0  0  1  0  0  0  0  0999 V2000
   28.5652  -21.0083  -15.8935 N   0  0  0  0  0  0  0  0  0  0  0  0
   28.5648  -20.1365  -14.7346 C   0  0  1  0  0  0  0  0  0  0  0  0
   28.0084  -18.7804  -15.1067 C   0  0  0  0  0  0  0  0  0  0  0  0
   27.2479  -18.8145  -16.3969 C   0  0  0  0  0  0  0  0  0  0  0  0
   26.2670  -17.7086  -16.4495 C   0  0  0  0  0  0  0  0  0  0  0  0
   26.6403  -16.5481  -16.7723 O   0  0  0  0  0  0  0  0  0  0  0  0
   27.7458  -20.7761  -13.6578 C   0  0  0  0  0  0  0  0  0  0  0  0
   26.9077  -21.6630  -13.9539 O   0  0  0  0  0  0  0  0  0  0  0  0
   24.9294  -17.9064  -16.1514 O   0  0  0  0  0  0  0  0  0  0  0  0
   27.8841  -20.4111  -12.2926 N   0  0  0  0  0  0  0  0  0  0  0  0
   27.1974  -21.0218  -11.1838 C   0  0  1  0  0  0  0  0  0  0  0  0
   27.9186  -20.8660   -9.8449 C   0  0  0  0  0  0  0  0  0  0  0  0
   29.3175  -21.3695   -9.8966 C   0  0  0  0  0  0  0  0  0  0  0  0
   29.9636  -21.7924  -11.0285 C   0  0  0  0  0  0  0  0  0  0  0  0
   31.2709  -22.2627  -11.0004 C   0  0  0  0  0  0  0  0  0  0  0  0
   31.9719  -22.3209   -9.8205 C   0  0  0  0  0  0  0  0  0  0  0  0
   31.3312  -21.8999   -8.6913 C   0  0  0  0  0  0  0  0  0  0  0  0
   30.0505  -21.4362   -8.6998 C   0  0  0  0  0  0  0  0  0  0  0  0
   25.7748  -20.6406  -11.0911 C   0  0  0  0  0  0  0  0  0  0  0  0
   25.4645  -19.4179  -11.1344 O   0  0  0  0  0  0  0  0  0  0  0  0
   24.7184  -21.5687  -10.9546 N   0  0  0  0  0  0  0  0  0  0  0  0
   23.3182  -21.1299  -10.8383 C   0  0  0  0  0  0  0  0  0  0  0  0
   22.6819  -21.0827  -12.1770 C   0  0  0  0  0  0  0  0  0  0  0  0
   22.0654  -20.0570  -12.5365 O   0  0  0  0  0  0  0  0  0  0  0  0
   22.7644  -22.1641  -13.0322 O   0  0  0  0  0  0  0  0  0  0  0  0
  2  1  1  6
  2  7  1  0
  3  2  1  0
  4  3  1  0
  5  4  1  0
  6  5  2  0
  7 10  1  0
  7  8  2  0
  9  5  1  0
 10 11  1  0
 11 12  1  1
 13 12  1  0
 14 13  2  0
 15 14  1  0
 16 17  1  0
 16 15  2  0
 17 18  2  0
 18 13  1  0
 19 21  1  0
 19 11  1  0
 20 19  2  0
 22 21  1  0
 23 22  1  0
 24 23  2  0
 25 23  1  0
M  END
$$$$
