EFG.pdb
     RDKit          3D

 25 25  0  0  1  0  0  0  0  0999 V2000
   26.3323  -21.6964  -13.0044 N   0  0  0  0  0  0  0  0  0  0  0  0
   25.8737  -20.6108  -12.1594 C   0  0  1  0  0  0  0  0  0  0  0  0
   24.4018  -20.3565  -12.3959 C   0  0  0  0  0  0  0  0  0  0  0  0
   24.1540  -19.6022  -13.6663 C   0  0  0  0  0  0  0  0  0  0  0  0
   23.6945  -20.5193  -14.7320 C   0  0  0  0  0  0  0  0  0  0  0  0
   22.6397  -21.1924  -14.5747 O   0  0  0  0  0  0  0  0  0  0  0  0
   26.1332  -20.9762  -10.7317 C   0  0  0  0  0  0  0  0  0  0  0  0
   25.9672  -22.1608  -10.3499 O   0  0  0  0  0  0  0  0  0  0  0  0
   24.3943  -20.6674  -15.9175 O   0  0  0  0  0  0  0  0  0  0  0  0
   26.5670  -20.0175   -9.7783 N   0  0  0  0  0  0  0  0  0  0  0  0
   26.8712  -20.2825   -8.3959 C   0  0  1  0  0  0  0  0  0  0  0  0
   27.9573  -19.3772   -7.8145 C   0  0  0  0  0  0  0  0  0  0  0  0
   28.2249  -19.6680   -6.3803 C   0  0  0  0  0  0  0  0  0  0  0  0
   29.1184  -20.5972   -5.9158 C   0  0  0  0  0  0  0  0  0  0  0  0
   29.3087  -20.8245   -4.5583 C   0  0  0  0  0  0  0  0  0  0  0  0
   28.5982  -20.1157   -3.6204 C   0  0  0  0  0  0  0  0  0  0  0  0
   27.7076  -19.1891   -4.0798 C   0  0  0  0  0  0  0  0  0  0  0  0
   27.5079  -18.9530   -5.4064 C   0  0  0  0  0  0  0  0  0  0  0  0
   25.6769  -20.3357   -7.5307 C   0  0  0  0  0  0  0  0  0  0  0  0
   24.6947  -19.5887   -7.7961 O   0  0  0  0  0  0  0  0  0  0  0  0
   25.5572  -21.1816   -6.4054 N   0  0  0  0  0  0  0  0  0  0  0  0
   24.5506  -22.2541   -6.3521 C   0  0  0  0  0  0  0  0  0  0  0  0
   23.2342  -21.7034   -5.9483 C   0  0  0  0  0  0  0  0  0  0  0  0
   22.5588  -21.0435   -6.7667 O   0  0  0  0  0  0  0  0  0  0  0  0
   22.7464  -21.9133   -4.6733 O   0  0  0  0  0  0  0  0  0  0  0  0
  2  1  1  6
  2  7  1  0
  3  2  1  0
  4  3  1  0
  5  4  1  0
  6  5  2  0
  7 10  1  0
  7  8  2  0
  9  5  1  0
 10 11  1  0
 11 12  1  1
 13 12  1  0
 14 13  2  0
 15 14  1  0
 16 17  1  0
 16 15  2  0
 17 18  2  0
 18 13  1  0
 19 21  1  0
 19 11  1  0
 20 19  2  0
 22 21  1  0
 23 22  1  0
 24 23  2  0
 25 23  1  0
M  END
$$$$
