EFG.pdb
     RDKit          3D

 25 25  0  0  1  0  0  0  0  0999 V2000
   23.8790  -10.7011  -20.2067 N   0  0  0  0  0  0  0  0  0  0  0  0
   23.5123   -9.3432  -19.8534 C   0  0  1  0  0  0  0  0  0  0  0  0
   22.4107   -8.8503  -20.7648 C   0  0  0  0  0  0  0  0  0  0  0  0
   21.3844   -9.9074  -21.0362 C   0  0  0  0  0  0  0  0  0  0  0  0
   20.2843   -9.3618  -21.8608 C   0  0  0  0  0  0  0  0  0  0  0  0
   19.0994   -9.3868  -21.4297 O   0  0  0  0  0  0  0  0  0  0  0  0
   23.0743   -9.3251  -18.4227 C   0  0  0  0  0  0  0  0  0  0  0  0
   22.5192  -10.3361  -17.9264 O   0  0  0  0  0  0  0  0  0  0  0  0
   20.5139   -8.8147  -23.1119 O   0  0  0  0  0  0  0  0  0  0  0  0
   23.2664   -8.1888  -17.5931 N   0  0  0  0  0  0  0  0  0  0  0  0
   22.8949   -8.0866  -16.2055 C   0  0  1  0  0  0  0  0  0  0  0  0
   24.0633   -7.7703  -15.2716 C   0  0  0  0  0  0  0  0  0  0  0  0
   25.1641   -8.7641  -15.3900 C   0  0  0  0  0  0  0  0  0  0  0  0
   26.2165   -8.6771  -16.2631 C   0  0  0  0  0  0  0  0  0  0  0  0
   27.2052   -9.6513  -16.3272 C   0  0  0  0  0  0  0  0  0  0  0  0
   27.1625  -10.7515  -15.5057 C   0  0  0  0  0  0  0  0  0  0  0  0
   26.1157  -10.8408  -14.6346 C   0  0  0  0  0  0  0  0  0  0  0  0
   25.1376   -9.8959  -14.5580 C   0  0  0  0  0  0  0  0  0  0  0  0
   21.7435   -7.1944  -15.9691 C   0  0  0  0  0  0  0  0  0  0  0  0
   21.7872   -6.0102  -16.4036 O   0  0  0  0  0  0  0  0  0  0  0  0
   20.5750   -7.5839  -15.2769 N   0  0  0  0  0  0  0  0  0  0  0  0
   19.4627   -6.6458  -15.0554 C   0  0  0  0  0  0  0  0  0  0  0  0
   18.2491   -7.1102  -15.7701 C   0  0  0  0  0  0  0  0  0  0  0  0
   18.2885   -7.2983  -17.0048 O   0  0  0  0  0  0  0  0  0  0  0  0
   17.0729   -7.3374  -15.0825 O   0  0  0  0  0  0  0  0  0  0  0  0
  2  1  1  6
  2  7  1  0
  3  2  1  0
  4  3  1  0
  5  4  1  0
  6  5  2  0
  7 10  1  0
  7  8  2  0
  9  5  1  0
 10 11  1  0
 11 12  1  1
 13 12  1  0
 14 13  2  0
 15 14  1  0
 16 17  1  0
 16 15  2  0
 17 18  2  0
 18 13  1  0
 19 21  1  0
 19 11  1  0
 20 19  2  0
 22 21  1  0
 23 22  1  0
 24 23  2  0
 25 23  1  0
M  END
$$$$
