FWW.pdb
     RDKit          3D

 40 44  0  0  1  0  0  0  0  0999 V2000
    6.7622  -20.2440   22.0813 N   0  0  0  0  0  0  0  0  0  0  0  0
    6.8888  -18.8227   21.8297 C   0  0  1  0  0  0  0  0  0  0  0  0
    5.7025  -18.0806   22.4595 C   0  0  0  0  0  0  0  0  0  0  0  0
    4.4586  -18.4155   21.7320 C   0  0  0  0  0  0  0  0  0  0  0  0
    4.2358  -17.9185   20.4702 C   0  0  0  0  0  0  0  0  0  0  0  0
    3.0472  -18.2599   19.8255 C   0  0  0  0  0  0  0  0  0  0  0  0
    2.1630  -19.0732   20.4837 C   0  0  0  0  0  0  0  0  0  0  0  0
    2.3830  -19.5667   21.7353 C   0  0  0  0  0  0  0  0  0  0  0  0
    3.5585  -19.2366   22.3880 C   0  0  0  0  0  0  0  0  0  0  0  0
    8.1182  -18.2689   22.4536 C   0  0  0  0  0  0  0  0  0  0  0  0
    8.7328  -18.8918   23.3676 O   0  0  0  0  0  0  0  0  0  0  0  0
    8.6646  -17.0189   22.0533 N   0  0  0  0  0  0  0  0  0  0  0  0
    9.9556  -16.5331   22.5502 C   0  0  1  0  0  0  0  0  0  0  0  0
   10.4499  -15.4239   21.6706 C   0  0  0  0  0  0  0  0  0  0  0  0
    9.6093  -15.0693   20.5356 C   0  0  0  0  0  0  0  0  0  0  0  0
    9.6163  -15.5795   19.2455 C   0  0  0  0  0  0  0  0  0  0  0  0
    8.6420  -15.0238   18.5298 N   0  0  0  0  0  0  0  0  0  0  0  0
    7.9786  -14.1500   19.3057 C   0  0  0  0  0  0  0  0  0  0  0  0
    6.9194  -13.3237   19.0393 C   0  0  0  0  0  0  0  0  0  0  0  0
    6.4059  -12.4853   19.9884 C   0  0  0  0  0  0  0  0  0  0  0  0
    6.9685  -12.4660   21.2572 C   0  0  0  0  0  0  0  0  0  0  0  0
    8.0234  -13.3001   21.4976 C   0  0  0  0  0  0  0  0  0  0  0  0
    8.5713  -14.1699   20.5518 C   0  0  0  0  0  0  0  0  0  0  0  0
    9.8559  -16.2609   23.9843 C   0  0  0  0  0  0  0  0  0  0  0  0
    9.6709  -15.0433   24.3717 O   0  0  0  0  0  0  0  0  0  0  0  0
    9.9325  -17.1806   25.0401 N   0  0  0  0  0  0  0  0  0  0  0  0
   10.3853  -16.9328   26.3845 C   0  0  1  0  0  0  0  0  0  0  0  0
    9.3112  -16.7629   27.3757 C   0  0  0  0  0  0  0  0  0  0  0  0
    8.3612  -15.7084   26.9596 C   0  0  0  0  0  0  0  0  0  0  0  0
    7.1267  -15.8775   26.3168 C   0  0  0  0  0  0  0  0  0  0  0  0
    6.5821  -14.6799   26.0896 N   0  0  0  0  0  0  0  0  0  0  0  0
    7.3795  -13.6971   26.5434 C   0  0  0  0  0  0  0  0  0  0  0  0
    7.2862  -12.3212   26.5551 C   0  0  0  0  0  0  0  0  0  0  0  0
    8.2816  -11.5218   27.1015 C   0  0  0  0  0  0  0  0  0  0  0  0
    9.3932  -12.1440   27.6461 C   0  0  0  0  0  0  0  0  0  0  0  0
    9.4665  -13.5214   27.6240 C   0  0  0  0  0  0  0  0  0  0  0  0
    8.4857  -14.3356   27.0844 C   0  0  0  0  0  0  0  0  0  0  0  0
   11.3897  -17.9274   26.8665 C   0  0  0  0  0  0  0  0  0  0  0  0
   11.6897  -18.9210   26.1629 O   0  0  0  0  0  0  0  0  0  0  0  0
   12.0464  -17.8390   28.0868 O   0  0  0  0  0  0  0  0  0  0  0  0
  2  1  1  1
  3  4  1  0
  3  2  1  0
  4  5  2  0
  5  6  1  0
  7  6  2  0
  8  7  1  0
  9  8  2  0
  9  4  1  0
 10 11  2  0
 10  2  1  0
 12 10  1  0
 13 12  1  0
 13 14  1  6
 15 23  1  0
 15 14  1  0
 16 15  2  0
 17 16  1  0
 17 18  1  0
 18 19  1  0
 18 23  2  0
 19 20  2  0
 20 21  1  0
 22 21  2  0
 23 22  1  0
 24 13  1  0
 25 24  2  0
 26 24  1  0
 27 38  1  0
 27 26  1  0
 28 29  1  0
 27 28  1  1
 29 30  2  0
 31 30  1  0
 32 31  1  0
 33 32  2  0
 34 33  1  0
 35 34  2  0
 35 36  1  0
 36 37  2  0
 37 32  1  0
 37 29  1  0
 38 40  1  0
 39 38  2  0
M  END
$$$$
