FWW.pdb
     RDKit          3D

 40 44  0  0  1  0  0  0  0  0999 V2000
    9.8683  -18.6961   17.4992 N   0  0  0  0  0  0  0  0  0  0  0  0
   10.1723  -19.2460   18.8048 C   0  0  1  0  0  0  0  0  0  0  0  0
   11.6431  -19.6815   18.8504 C   0  0  0  0  0  0  0  0  0  0  0  0
   11.7937  -21.0056   18.2078 C   0  0  0  0  0  0  0  0  0  0  0  0
   11.2218  -22.1209   18.7714 C   0  0  0  0  0  0  0  0  0  0  0  0
   11.3937  -23.3475   18.1302 C   0  0  0  0  0  0  0  0  0  0  0  0
   12.1240  -23.3769   16.9717 C   0  0  0  0  0  0  0  0  0  0  0  0
   12.6918  -22.2711   16.4120 C   0  0  0  0  0  0  0  0  0  0  0  0
   12.5298  -21.0464   17.0368 C   0  0  0  0  0  0  0  0  0  0  0  0
    9.9946  -18.2312   19.8753 C   0  0  0  0  0  0  0  0  0  0  0  0
   10.5897  -17.1154   19.8327 O   0  0  0  0  0  0  0  0  0  0  0  0
    9.1476  -18.4615   20.9938 N   0  0  0  0  0  0  0  0  0  0  0  0
    8.8650  -17.4229   21.9894 C   0  0  1  0  0  0  0  0  0  0  0  0
    7.4316  -17.5134   22.4201 C   0  0  0  0  0  0  0  0  0  0  0  0
    6.9795  -16.5257   23.3898 C   0  0  0  0  0  0  0  0  0  0  0  0
    6.4036  -16.7203   24.6369 C   0  0  0  0  0  0  0  0  0  0  0  0
    6.1936  -15.5481   25.2304 N   0  0  0  0  0  0  0  0  0  0  0  0
    6.6130  -14.5672   24.4131 C   0  0  0  0  0  0  0  0  0  0  0  0
    6.6012  -13.2048   24.5519 C   0  0  0  0  0  0  0  0  0  0  0  0
    7.0677  -12.3785   23.5686 C   0  0  0  0  0  0  0  0  0  0  0  0
    7.5675  -12.9286   22.3962 C   0  0  0  0  0  0  0  0  0  0  0  0
    7.5687  -14.2900   22.2828 C   0  0  0  0  0  0  0  0  0  0  0  0
    7.1015  -15.1629   23.2682 C   0  0  0  0  0  0  0  0  0  0  0  0
    9.8859  -17.4599   23.0369 C   0  0  0  0  0  0  0  0  0  0  0  0
   10.1845  -18.5971   23.5701 O   0  0  0  0  0  0  0  0  0  0  0  0
   10.6185  -16.3847   23.5600 N   0  0  0  0  0  0  0  0  0  0  0  0
   11.4995  -16.3988   24.6992 C   0  0  1  0  0  0  0  0  0  0  0  0
   11.5624  -15.1325   25.4459 C   0  0  0  0  0  0  0  0  0  0  0  0
   10.2682  -14.8288   26.0942 C   0  0  0  0  0  0  0  0  0  0  0  0
    9.5579  -15.6311   26.9985 C   0  0  0  0  0  0  0  0  0  0  0  0
    8.4230  -15.0139   27.3356 N   0  0  0  0  0  0  0  0  0  0  0  0
    8.3176  -13.8290   26.7090 C   0  0  0  0  0  0  0  0  0  0  0  0
    7.3663  -12.8305   26.7094 C   0  0  0  0  0  0  0  0  0  0  0  0
    7.5101  -11.6784   25.9475 C   0  0  0  0  0  0  0  0  0  0  0  0
    8.6497  -11.5472   25.1709 C   0  0  0  0  0  0  0  0  0  0  0  0
    9.5887  -12.5577   25.1850 C   0  0  0  0  0  0  0  0  0  0  0  0
    9.4643  -13.7131   25.9371 C   0  0  0  0  0  0  0  0  0  0  0  0
   11.2528  -17.5422   25.6276 C   0  0  0  0  0  0  0  0  0  0  0  0
   12.1837  -18.3236   25.9360 O   0  0  0  0  0  0  0  0  0  0  0  0
   10.0202  -17.8251   26.2011 O   0  0  0  0  0  0  0  0  0  0  0  0
  2  1  1  6
  3  4  1  0
  3  2  1  0
  4  5  2  0
  5  6  1  0
  7  6  2  0
  8  7  1  0
  9  8  2  0
  9  4  1  0
 10 11  2  0
 10  2  1  0
 12 10  1  0
 13 12  1  0
 13 14  1  1
 15 23  1  0
 15 14  1  0
 16 15  2  0
 17 16  1  0
 17 18  1  0
 18 19  1  0
 18 23  2  0
 19 20  2  0
 20 21  1  0
 22 21  2  0
 23 22  1  0
 24 13  1  0
 25 24  2  0
 26 24  1  0
 27 38  1  0
 27 26  1  0
 28 29  1  0
 27 28  1  1
 29 30  2  0
 31 30  1  0
 32 31  1  0
 33 32  2  0
 34 33  1  0
 35 34  2  0
 35 36  1  0
 36 37  2  0
 37 32  1  0
 37 29  1  0
 38 40  1  0
 39 38  2  0
M  END
$$$$
