FWW.pdb
     RDKit          3D

 40 44  0  0  1  0  0  0  0  0999 V2000
   11.9973  -18.1643   18.0434 N   0  0  0  0  0  0  0  0  0  0  0  0
   11.3884  -18.7487   19.2211 C   0  0  1  0  0  0  0  0  0  0  0  0
   12.3349  -19.7947   19.8250 C   0  0  0  0  0  0  0  0  0  0  0  0
   12.3464  -21.0080   18.9785 C   0  0  0  0  0  0  0  0  0  0  0  0
   11.3102  -21.9087   19.0404 C   0  0  0  0  0  0  0  0  0  0  0  0
   11.3672  -23.0389   18.2252 C   0  0  0  0  0  0  0  0  0  0  0  0
   12.4533  -23.1926   17.4049 C   0  0  0  0  0  0  0  0  0  0  0  0
   13.4816  -22.2998   17.3428 C   0  0  0  0  0  0  0  0  0  0  0  0
   13.4392  -21.1730   18.1460 C   0  0  0  0  0  0  0  0  0  0  0  0
   11.1543  -17.7270   20.2741 C   0  0  0  0  0  0  0  0  0  0  0  0
   12.0697  -16.9333   20.6391 O   0  0  0  0  0  0  0  0  0  0  0  0
    9.8942  -17.5887   20.9180 N   0  0  0  0  0  0  0  0  0  0  0  0
    9.6370  -16.5512   21.9215 C   0  0  1  0  0  0  0  0  0  0  0  0
    8.2160  -16.0849   21.8123 C   0  0  0  0  0  0  0  0  0  0  0  0
    7.8350  -14.9563   22.6499 C   0  0  0  0  0  0  0  0  0  0  0  0
    7.8087  -13.6040   22.3410 C   0  0  0  0  0  0  0  0  0  0  0  0
    7.3385  -12.9092   23.3737 N   0  0  0  0  0  0  0  0  0  0  0  0
    7.0481  -13.7602   24.3724 C   0  0  0  0  0  0  0  0  0  0  0  0
    6.5592  -13.5447   25.6334 C   0  0  0  0  0  0  0  0  0  0  0  0
    6.3545  -14.5729   26.5099 C   0  0  0  0  0  0  0  0  0  0  0  0
    6.6482  -15.8716   26.1176 C   0  0  0  0  0  0  0  0  0  0  0  0
    7.1340  -16.0599   24.8548 C   0  0  0  0  0  0  0  0  0  0  0  0
    7.3532  -15.0326   23.9339 C   0  0  0  0  0  0  0  0  0  0  0  0
   10.0939  -17.0150   23.2317 C   0  0  0  0  0  0  0  0  0  0  0  0
   10.0897  -18.2828   23.4755 O   0  0  0  0  0  0  0  0  0  0  0  0
   10.5598  -16.2388   24.3027 N   0  0  0  0  0  0  0  0  0  0  0  0
   11.5764  -16.5902   25.2602 C   0  0  1  0  0  0  0  0  0  0  0  0
   11.9313  -15.5189   26.2044 C   0  0  0  0  0  0  0  0  0  0  0  0
   10.7898  -15.1785   27.0809 C   0  0  0  0  0  0  0  0  0  0  0  0
   10.2916  -15.9219   28.1604 C   0  0  0  0  0  0  0  0  0  0  0  0
    9.2374  -15.2887   28.6804 N   0  0  0  0  0  0  0  0  0  0  0  0
    8.9862  -14.1488   28.0132 C   0  0  0  0  0  0  0  0  0  0  0  0
    8.0369  -13.1568   28.1424 C   0  0  0  0  0  0  0  0  0  0  0  0
    8.0028  -12.0574   27.2946 C   0  0  0  0  0  0  0  0  0  0  0  0
    8.9593  -11.9732   26.2960 C   0  0  0  0  0  0  0  0  0  0  0  0
    9.8997  -12.9763   26.1843 C   0  0  0  0  0  0  0  0  0  0  0  0
    9.9507  -14.0795   27.0187 C   0  0  0  0  0  0  0  0  0  0  0  0
   11.2901  -17.8598   25.9927 C   0  0  0  0  0  0  0  0  0  0  0  0
   10.1389  -18.3567   25.9789 O   0  0  0  0  0  0  0  0  0  0  0  0
   12.2370  -18.5656   26.7232 O   0  0  0  0  0  0  0  0  0  0  0  0
  2  1  1  6
  3  4  1  0
  3  2  1  0
  4  5  2  0
  5  6  1  0
  7  6  2  0
  8  7  1  0
  9  8  2  0
  9  4  1  0
 10 11  2  0
 10  2  1  0
 12 10  1  0
 13 12  1  0
 13 14  1  1
 15 23  1  0
 15 14  1  0
 16 15  2  0
 17 16  1  0
 17 18  1  0
 18 19  1  0
 18 23  2  0
 19 20  2  0
 20 21  1  0
 22 21  2  0
 23 22  1  0
 24 13  1  0
 25 24  2  0
 26 24  1  0
 27 38  1  0
 27 26  1  0
 28 29  1  0
 27 28  1  1
 29 30  2  0
 31 30  1  0
 32 31  1  0
 33 32  2  0
 34 33  1  0
 35 34  2  0
 35 36  1  0
 36 37  2  0
 37 32  1  0
 37 29  1  0
 38 40  1  0
 39 38  2  0
M  END
$$$$
