FWW.pdb
     RDKit          3D

 40 44  0  0  1  0  0  0  0  0999 V2000
    8.2312  -18.3835   20.5789 N   0  0  0  0  0  0  0  0  0  0  0  0
    8.3518  -16.9418   20.6576 C   0  0  1  0  0  0  0  0  0  0  0  0
    7.3459  -16.2878   19.7008 C   0  0  0  0  0  0  0  0  0  0  0  0
    7.5518  -14.8229   19.6820 C   0  0  0  0  0  0  0  0  0  0  0  0
    6.7132  -13.9939   20.3879 C   0  0  0  0  0  0  0  0  0  0  0  0
    6.9457  -12.6197   20.3372 C   0  0  0  0  0  0  0  0  0  0  0  0
    7.9982  -12.1674   19.5862 C   0  0  0  0  0  0  0  0  0  0  0  0
    8.8305  -12.9889   18.8857 C   0  0  0  0  0  0  0  0  0  0  0  0
    8.6124  -14.3554   18.9263 C   0  0  0  0  0  0  0  0  0  0  0  0
    8.0300  -16.4442   22.0200 C   0  0  0  0  0  0  0  0  0  0  0  0
    7.1039  -15.6042   22.2145 O   0  0  0  0  0  0  0  0  0  0  0  0
    8.7412  -16.8886   23.1681 N   0  0  0  0  0  0  0  0  0  0  0  0
    9.2290  -15.9623   24.1946 C   0  0  1  0  0  0  0  0  0  0  0  0
    8.4082  -16.1119   25.4405 C   0  0  0  0  0  0  0  0  0  0  0  0
    7.2203  -15.2758   25.5419 C   0  0  0  0  0  0  0  0  0  0  0  0
    5.8833  -15.6390   25.4706 C   0  0  0  0  0  0  0  0  0  0  0  0
    5.1101  -14.5753   25.6736 N   0  0  0  0  0  0  0  0  0  0  0  0
    5.8936  -13.5029   25.8790 C   0  0  0  0  0  0  0  0  0  0  0  0
    5.5879  -12.1888   26.1142 C   0  0  0  0  0  0  0  0  0  0  0  0
    6.5607  -11.2430   26.2767 C   0  0  0  0  0  0  0  0  0  0  0  0
    7.8951  -11.6179   26.2023 C   0  0  0  0  0  0  0  0  0  0  0  0
    8.1734  -12.9346   25.9675 C   0  0  0  0  0  0  0  0  0  0  0  0
    7.2044  -13.9265   25.7986 C   0  0  0  0  0  0  0  0  0  0  0  0
   10.6801  -16.0976   24.3246 C   0  0  0  0  0  0  0  0  0  0  0  0
   11.4288  -15.1116   23.9587 O   0  0  0  0  0  0  0  0  0  0  0  0
   11.3992  -17.1962   24.8171 N   0  0  0  0  0  0  0  0  0  0  0  0
   12.8205  -17.2865   25.0303 C   0  0  1  0  0  0  0  0  0  0  0  0
   13.2186  -17.5895   26.4141 C   0  0  0  0  0  0  0  0  0  0  0  0
   12.0997  -17.3632   27.3544 C   0  0  0  0  0  0  0  0  0  0  0  0
   11.3346  -18.3322   28.0191 C   0  0  0  0  0  0  0  0  0  0  0  0
   10.4045  -17.7250   28.7600 N   0  0  0  0  0  0  0  0  0  0  0  0
   10.4916  -16.3890   28.6380 C   0  0  0  0  0  0  0  0  0  0  0  0
    9.7859  -15.3334   29.1763 C   0  0  0  0  0  0  0  0  0  0  0  0
   10.0929  -14.0134   28.8730 C   0  0  0  0  0  0  0  0  0  0  0  0
   11.1426  -13.7708   28.0020 C   0  0  0  0  0  0  0  0  0  0  0  0
   11.8353  -14.8410   27.4749 C   0  0  0  0  0  0  0  0  0  0  0  0
   11.5452  -16.1631   27.7644 C   0  0  0  0  0  0  0  0  0  0  0  0
   13.5081  -18.2054   24.0748 C   0  0  0  0  0  0  0  0  0  0  0  0
   14.7600  -18.2398   24.0142 O   0  0  0  0  0  0  0  0  0  0  0  0
   12.8439  -19.0619   23.2066 O   0  0  0  0  0  0  0  0  0  0  0  0
  2  1  1  1
  3  4  1  0
  3  2  1  0
  4  5  2  0
  5  6  1  0
  7  6  2  0
  8  7  1  0
  9  8  2  0
  9  4  1  0
 10 11  2  0
 10  2  1  0
 12 10  1  0
 13 12  1  0
 13 14  1  1
 15 23  1  0
 15 14  1  0
 16 15  2  0
 17 16  1  0
 17 18  1  0
 18 19  1  0
 18 23  2  0
 19 20  2  0
 20 21  1  0
 22 21  2  0
 23 22  1  0
 24 13  1  0
 25 24  2  0
 26 24  1  0
 27 38  1  0
 27 26  1  0
 28 29  1  0
 27 28  1  1
 29 30  2  0
 31 30  1  0
 32 31  1  0
 33 32  2  0
 34 33  1  0
 35 34  2  0
 35 36  1  0
 36 37  2  0
 37 32  1  0
 37 29  1  0
 38 40  1  0
 39 38  2  0
M  END
$$$$
