FWW.pdb
     RDKit          3D

 40 44  0  0  1  0  0  0  0  0999 V2000
    7.6352  -21.9850   25.0663 N   0  0  0  0  0  0  0  0  0  0  0  0
    7.6296  -20.6325   25.5859 C   0  0  1  0  0  0  0  0  0  0  0  0
    8.5946  -20.5336   26.7750 C   0  0  0  0  0  0  0  0  0  0  0  0
    8.6439  -19.1388   27.2656 C   0  0  0  0  0  0  0  0  0  0  0  0
    9.8141  -18.4208   27.2031 C   0  0  0  0  0  0  0  0  0  0  0  0
    9.8119  -17.1104   27.6804 C   0  0  0  0  0  0  0  0  0  0  0  0
    8.6432  -16.6067   28.1870 C   0  0  0  0  0  0  0  0  0  0  0  0
    7.4819  -17.3181   28.2495 C   0  0  0  0  0  0  0  0  0  0  0  0
    7.4684  -18.6202   27.7795 C   0  0  0  0  0  0  0  0  0  0  0  0
    8.1046  -19.6589   24.5691 C   0  0  0  0  0  0  0  0  0  0  0  0
    9.1098  -19.9030   23.8403 O   0  0  0  0  0  0  0  0  0  0  0  0
    7.4534  -18.4120   24.3629 N   0  0  0  0  0  0  0  0  0  0  0  0
    7.6770  -17.6005   23.1625 C   0  0  1  0  0  0  0  0  0  0  0  0
    6.5734  -16.5953   23.0201 C   0  0  0  0  0  0  0  0  0  0  0  0
    6.6056  -15.7574   21.8297 C   0  0  0  0  0  0  0  0  0  0  0  0
    5.9463  -15.9254   20.6206 C   0  0  0  0  0  0  0  0  0  0  0  0
    6.2008  -14.8971   19.8154 N   0  0  0  0  0  0  0  0  0  0  0  0
    7.0169  -14.0399   20.4519 C   0  0  0  0  0  0  0  0  0  0  0  0
    7.5748  -12.8543   20.0536 C   0  0  0  0  0  0  0  0  0  0  0  0
    8.4084  -12.1426   20.8696 C   0  0  0  0  0  0  0  0  0  0  0  0
    8.7012  -12.6291   22.1362 C   0  0  0  0  0  0  0  0  0  0  0  0
    8.1317  -13.8133   22.5098 C   0  0  0  0  0  0  0  0  0  0  0  0
    7.2747  -14.5646   21.7019 C   0  0  0  0  0  0  0  0  0  0  0  0
    9.0504  -17.0961   23.1628 C   0  0  0  0  0  0  0  0  0  0  0  0
    9.4058  -16.2679   22.2384 O   0  0  0  0  0  0  0  0  0  0  0  0
   10.0758  -17.3984   24.0705 N   0  0  0  0  0  0  0  0  0  0  0  0
   10.4638  -16.6442   25.2343 C   0  0  1  0  0  0  0  0  0  0  0  0
    9.6905  -16.9443   26.4497 C   0  0  0  0  0  0  0  0  0  0  0  0
    8.4437  -16.1504   26.5002 C   0  0  0  0  0  0  0  0  0  0  0  0
    7.1435  -16.5840   26.2043 C   0  0  0  0  0  0  0  0  0  0  0  0
    6.2967  -15.5615   26.3460 N   0  0  0  0  0  0  0  0  0  0  0  0
    6.9488  -14.4481   26.7238 C   0  0  0  0  0  0  0  0  0  0  0  0
    6.5518  -13.1560   26.9973 C   0  0  0  0  0  0  0  0  0  0  0  0
    7.4573  -12.1738   27.3764 C   0  0  0  0  0  0  0  0  0  0  0  0
    8.7943  -12.5222   27.4771 C   0  0  0  0  0  0  0  0  0  0  0  0
    9.1700  -13.8201   27.1991 C   0  0  0  0  0  0  0  0  0  0  0  0
    8.2835  -14.8133   26.8199 C   0  0  0  0  0  0  0  0  0  0  0  0
   11.9288  -16.7010   25.5186 C   0  0  0  0  0  0  0  0  0  0  0  0
   12.5006  -15.7511   26.1042 O   0  0  0  0  0  0  0  0  0  0  0  0
   12.7470  -17.7672   25.1693 O   0  0  0  0  0  0  0  0  0  0  0  0
  2  1  1  6
  3  4  1  0
  3  2  1  0
  4  5  2  0
  5  6  1  0
  7  6  2  0
  8  7  1  0
  9  8  2  0
  9  4  1  0
 10 11  2  0
 10  2  1  0
 12 10  1  0
 13 12  1  0
 13 14  1  1
 15 23  1  0
 15 14  1  0
 16 15  2  0
 17 16  1  0
 17 18  1  0
 18 19  1  0
 18 23  2  0
 19 20  2  0
 20 21  1  0
 22 21  2  0
 23 22  1  0
 24 13  1  0
 25 24  2  0
 26 24  1  0
 27 38  1  0
 27 26  1  0
 28 29  1  0
 27 28  1  1
 29 30  2  0
 31 30  1  0
 32 31  1  0
 33 32  2  0
 34 33  1  0
 35 34  2  0
 35 36  1  0
 36 37  2  0
 37 32  1  0
 37 29  1  0
 38 40  1  0
 39 38  2  0
M  END
$$$$
