FWW.pdb
     RDKit          3D

 40 44  0  0  1  0  0  0  0  0999 V2000
    9.2513  -18.5745   19.1198 N   0  0  0  0  0  0  0  0  0  0  0  0
    9.0039  -17.1896   19.4665 C   0  0  1  0  0  0  0  0  0  0  0  0
    7.9898  -16.5864   18.4853 C   0  0  0  0  0  0  0  0  0  0  0  0
    7.8040  -15.1481   18.7780 C   0  0  0  0  0  0  0  0  0  0  0  0
    6.6609  -14.7074   19.4008 C   0  0  0  0  0  0  0  0  0  0  0  0
    6.5300  -13.3420   19.6532 C   0  0  0  0  0  0  0  0  0  0  0  0
    7.5480  -12.5108   19.2669 C   0  0  0  0  0  0  0  0  0  0  0  0
    8.6822  -12.9469   18.6491 C   0  0  0  0  0  0  0  0  0  0  0  0
    8.8265  -14.2996   18.3919 C   0  0  0  0  0  0  0  0  0  0  0  0
    8.4093  -17.0680   20.8227 C   0  0  0  0  0  0  0  0  0  0  0  0
    8.1457  -15.9388   21.3292 O   0  0  0  0  0  0  0  0  0  0  0  0
    8.1049  -18.2098   21.6132 N   0  0  0  0  0  0  0  0  0  0  0  0
    7.5851  -18.1005   22.9797 C   0  0  1  0  0  0  0  0  0  0  0  0
    6.8763  -19.3681   23.3529 C   0  0  0  0  0  0  0  0  0  0  0  0
    5.6928  -19.7056   22.5746 C   0  0  0  0  0  0  0  0  0  0  0  0
    5.0720  -20.9355   22.4105 C   0  0  0  0  0  0  0  0  0  0  0  0
    3.9781  -20.7986   21.6655 N   0  0  0  0  0  0  0  0  0  0  0  0
    3.8466  -19.5061   21.3220 C   0  0  0  0  0  0  0  0  0  0  0  0
    2.9090  -18.8618   20.5596 C   0  0  0  0  0  0  0  0  0  0  0  0
    2.9801  -17.5189   20.3166 C   0  0  0  0  0  0  0  0  0  0  0  0
    4.0277  -16.7836   20.8537 C   0  0  0  0  0  0  0  0  0  0  0  0
    4.9493  -17.4496   21.6110 C   0  0  0  0  0  0  0  0  0  0  0  0
    4.9056  -18.8197   21.8802 C   0  0  0  0  0  0  0  0  0  0  0  0
    8.6487  -17.6370   23.8712 C   0  0  0  0  0  0  0  0  0  0  0  0
    9.6846  -17.0658   23.3541 O   0  0  0  0  0  0  0  0  0  0  0  0
    8.6971  -17.7280   25.2698 N   0  0  0  0  0  0  0  0  0  0  0  0
    9.6973  -17.1779   26.1477 C   0  0  1  0  0  0  0  0  0  0  0  0
    9.7272  -15.7078   26.2043 C   0  0  0  0  0  0  0  0  0  0  0  0
    8.3636  -15.1495   26.3316 C   0  0  0  0  0  0  0  0  0  0  0  0
    7.1461  -15.8304   26.1891 C   0  0  0  0  0  0  0  0  0  0  0  0
    6.1394  -14.9693   26.3551 N   0  0  0  0  0  0  0  0  0  0  0  0
    6.6031  -13.7322   26.6042 C   0  0  0  0  0  0  0  0  0  0  0  0
    5.9978  -12.5160   26.8421 C   0  0  0  0  0  0  0  0  0  0  0  0
    6.7342  -11.3619   27.0750 C   0  0  0  0  0  0  0  0  0  0  0  0
    8.1163  -11.4559   27.0640 C   0  0  0  0  0  0  0  0  0  0  0  0
    8.7014  -12.6818   26.8240 C   0  0  0  0  0  0  0  0  0  0  0  0
    7.9857  -13.8433   26.5897 C   0  0  0  0  0  0  0  0  0  0  0  0
    9.6615  -17.7540   27.5251 C   0  0  0  0  0  0  0  0  0  0  0  0
    8.7235  -18.5092   27.8747 O   0  0  0  0  0  0  0  0  0  0  0  0
   10.6244  -17.5084   28.4950 O   0  0  0  0  0  0  0  0  0  0  0  0
  2  1  1  6
  3  4  1  0
  3  2  1  0
  4  5  2  0
  5  6  1  0
  7  6  2  0
  8  7  1  0
  9  8  2  0
  9  4  1  0
 10 11  2  0
 10  2  1  0
 12 10  1  0
 13 12  1  0
 13 14  1  1
 15 23  1  0
 15 14  1  0
 16 15  2  0
 17 16  1  0
 17 18  1  0
 18 19  1  0
 18 23  2  0
 19 20  2  0
 20 21  1  0
 22 21  2  0
 23 22  1  0
 24 13  1  0
 25 24  2  0
 26 24  1  0
 27 38  1  0
 27 26  1  0
 28 29  1  0
 27 28  1  1
 29 30  2  0
 31 30  1  0
 32 31  1  0
 33 32  2  0
 34 33  1  0
 35 34  2  0
 35 36  1  0
 36 37  2  0
 37 32  1  0
 37 29  1  0
 38 40  1  0
 39 38  2  0
M  END
$$$$
