FWW.pdb
     RDKit          3D

 40 44  0  0  1  0  0  0  0  0999 V2000
   12.0513  -18.7786   18.2703 N   0  0  0  0  0  0  0  0  0  0  0  0
   11.2583  -19.1692   19.4184 C   0  0  1  0  0  0  0  0  0  0  0  0
   11.9778  -20.2869   20.1851 C   0  0  0  0  0  0  0  0  0  0  0  0
   11.8777  -21.5561   19.4316 C   0  0  0  0  0  0  0  0  0  0  0  0
   12.8713  -21.9257   18.5570 C   0  0  0  0  0  0  0  0  0  0  0  0
   12.7309  -23.1298   17.8675 C   0  0  0  0  0  0  0  0  0  0  0  0
   11.6094  -23.8819   18.0978 C   0  0  0  0  0  0  0  0  0  0  0  0
   10.6233  -23.5162   18.9650 C   0  0  0  0  0  0  0  0  0  0  0  0
   10.7486  -22.3236   19.6569 C   0  0  0  0  0  0  0  0  0  0  0  0
   11.0886  -18.0405   20.3695 C   0  0  0  0  0  0  0  0  0  0  0  0
   12.0424  -17.2529   20.6364 O   0  0  0  0  0  0  0  0  0  0  0  0
    9.8503  -17.7883   21.0208 N   0  0  0  0  0  0  0  0  0  0  0  0
    9.6614  -16.6566   21.9336 C   0  0  1  0  0  0  0  0  0  0  0  0
    8.2183  -16.2494   21.9407 C   0  0  0  0  0  0  0  0  0  0  0  0
    7.8824  -15.0554   22.7037 C   0  0  0  0  0  0  0  0  0  0  0  0
    7.9433  -13.7235   22.3204 C   0  0  0  0  0  0  0  0  0  0  0  0
    7.4881  -12.9458   23.2994 N   0  0  0  0  0  0  0  0  0  0  0  0
    7.1227  -13.7211   24.3344 C   0  0  0  0  0  0  0  0  0  0  0  0
    6.6149  -13.4072   25.5670 C   0  0  0  0  0  0  0  0  0  0  0  0
    6.3279  -14.3710   26.4923 C   0  0  0  0  0  0  0  0  0  0  0  0
    6.5552  -15.7044   26.1806 C   0  0  0  0  0  0  0  0  0  0  0  0
    7.0615  -15.9910   24.9446 C   0  0  0  0  0  0  0  0  0  0  0  0
    7.3641  -15.0315   23.9755 C   0  0  0  0  0  0  0  0  0  0  0  0
   10.2809  -16.9610   23.2237 C   0  0  0  0  0  0  0  0  0  0  0  0
   10.3946  -18.1968   23.5794 O   0  0  0  0  0  0  0  0  0  0  0  0
   10.7937  -16.0564   24.1646 N   0  0  0  0  0  0  0  0  0  0  0  0
   11.5736  -16.3615   25.3361 C   0  0  1  0  0  0  0  0  0  0  0  0
   11.8007  -15.2227   26.2398 C   0  0  0  0  0  0  0  0  0  0  0  0
   10.6117  -14.9606   27.0793 C   0  0  0  0  0  0  0  0  0  0  0  0
   10.1097  -15.7555   28.1196 C   0  0  0  0  0  0  0  0  0  0  0  0
    9.0072  -15.1873   28.6137 N   0  0  0  0  0  0  0  0  0  0  0  0
    8.7263  -14.0431   27.9660 C   0  0  0  0  0  0  0  0  0  0  0  0
    7.7258  -13.1012   28.0828 C   0  0  0  0  0  0  0  0  0  0  0  0
    7.6705  -11.9823   27.2621 C   0  0  0  0  0  0  0  0  0  0  0  0
    8.6588  -11.8259   26.3040 C   0  0  0  0  0  0  0  0  0  0  0  0
    9.6503  -12.7798   26.2040 C   0  0  0  0  0  0  0  0  0  0  0  0
    9.7232  -13.9014   27.0120 C   0  0  0  0  0  0  0  0  0  0  0  0
   11.0655  -17.5411   26.0981 C   0  0  0  0  0  0  0  0  0  0  0  0
   11.7693  -18.0749   26.9881 O   0  0  0  0  0  0  0  0  0  0  0  0
    9.8220  -18.1231   25.8904 O   0  0  0  0  0  0  0  0  0  0  0  0
  2  1  1  6
  3  4  1  0
  3  2  1  0
  4  5  2  0
  5  6  1  0
  7  6  2  0
  8  7  1  0
  9  8  2  0
  9  4  1  0
 10 11  2  0
 10  2  1  0
 12 10  1  0
 13 12  1  0
 13 14  1  1
 15 23  1  0
 15 14  1  0
 16 15  2  0
 17 16  1  0
 17 18  1  0
 18 19  1  0
 18 23  2  0
 19 20  2  0
 20 21  1  0
 22 21  2  0
 23 22  1  0
 24 13  1  0
 25 24  2  0
 26 24  1  0
 27 38  1  0
 27 26  1  0
 28 29  1  0
 27 28  1  1
 29 30  2  0
 31 30  1  0
 32 31  1  0
 33 32  2  0
 34 33  1  0
 35 34  2  0
 35 36  1  0
 36 37  2  0
 37 32  1  0
 37 29  1  0
 38 40  1  0
 39 38  2  0
M  END
$$$$
