FWW.pdb
     RDKit          3D

 40 44  0  0  1  0  0  0  0  0999 V2000
    7.9439  -18.5245   18.0526 N   0  0  0  0  0  0  0  0  0  0  0  0
    8.2253  -17.3156   18.8002 C   0  0  1  0  0  0  0  0  0  0  0  0
    7.4107  -16.1509   18.2215 C   0  0  0  0  0  0  0  0  0  0  0  0
    7.4885  -14.9854   19.1293 C   0  0  0  0  0  0  0  0  0  0  0  0
    6.5305  -14.7916   20.0955 C   0  0  0  0  0  0  0  0  0  0  0  0
    6.6450  -13.6768   20.9257 C   0  0  0  0  0  0  0  0  0  0  0  0
    7.7067  -12.8325   20.7349 C   0  0  0  0  0  0  0  0  0  0  0  0
    8.6573  -13.0239   19.7767 C   0  0  0  0  0  0  0  0  0  0  0  0
    8.5572  -14.1260   18.9450 C   0  0  0  0  0  0  0  0  0  0  0  0
    7.8222  -17.4522   20.2237 C   0  0  0  0  0  0  0  0  0  0  0  0
    6.6045  -17.5147   20.5620 O   0  0  0  0  0  0  0  0  0  0  0  0
    8.7809  -17.5231   21.2711 N   0  0  0  0  0  0  0  0  0  0  0  0
    8.3945  -17.5794   22.6843 C   0  0  1  0  0  0  0  0  0  0  0  0
    7.9875  -18.9779   23.0408 C   0  0  0  0  0  0  0  0  0  0  0  0
    7.5511  -19.1994   24.4122 C   0  0  0  0  0  0  0  0  0  0  0  0
    6.4685  -18.6543   25.0872 C   0  0  0  0  0  0  0  0  0  0  0  0
    6.3888  -19.1680   26.3120 N   0  0  0  0  0  0  0  0  0  0  0  0
    7.3925  -20.0457   26.4800 C   0  0  0  0  0  0  0  0  0  0  0  0
    7.7524  -20.8164   27.5533 C   0  0  0  0  0  0  0  0  0  0  0  0
    8.8424  -21.6396   27.5133 C   0  0  0  0  0  0  0  0  0  0  0  0
    9.6087  -21.7002   26.3574 C   0  0  0  0  0  0  0  0  0  0  0  0
    9.2282  -20.9223   25.3009 C   0  0  0  0  0  0  0  0  0  0  0  0
    8.1199  -20.0720   25.3076 C   0  0  0  0  0  0  0  0  0  0  0  0
    9.4347  -16.9528   23.5004 C   0  0  0  0  0  0  0  0  0  0  0  0
   10.6592  -17.3278   23.3371 O   0  0  0  0  0  0  0  0  0  0  0  0
    9.2779  -15.9555   24.4737 N   0  0  0  0  0  0  0  0  0  0  0  0
   10.2230  -15.5681   25.4889 C   0  0  1  0  0  0  0  0  0  0  0  0
    9.8081  -14.4216   26.3127 C   0  0  0  0  0  0  0  0  0  0  0  0
    8.4110  -14.0323   26.0228 C   0  0  0  0  0  0  0  0  0  0  0  0
    7.3507  -14.8717   25.6524 C   0  0  0  0  0  0  0  0  0  0  0  0
    6.2549  -14.1346   25.4563 N   0  0  0  0  0  0  0  0  0  0  0  0
    6.5085  -12.8322   25.6729 C   0  0  0  0  0  0  0  0  0  0  0  0
    5.7426  -11.6871   25.6080 C   0  0  0  0  0  0  0  0  0  0  0  0
    6.2701  -10.4334   25.8883 C   0  0  0  0  0  0  0  0  0  0  0  0
    7.6071  -10.3517   26.2417 C   0  0  0  0  0  0  0  0  0  0  0  0
    8.3552  -11.5093   26.3006 C   0  0  0  0  0  0  0  0  0  0  0  0
    7.8486  -12.7677   26.0251 C   0  0  0  0  0  0  0  0  0  0  0  0
   10.6642  -16.7022   26.3546 C   0  0  0  0  0  0  0  0  0  0  0  0
    9.8513  -17.2710   27.1215 O   0  0  0  0  0  0  0  0  0  0  0  0
   11.9605  -17.1992   26.3828 O   0  0  0  0  0  0  0  0  0  0  0  0
  2  1  1  6
  3  4  1  0
  3  2  1  0
  4  5  2  0
  5  6  1  0
  7  6  2  0
  8  7  1  0
  9  8  2  0
  9  4  1  0
 10 11  2  0
 10  2  1  0
 12 10  1  0
 13 12  1  0
 13 14  1  1
 15 23  1  0
 15 14  1  0
 16 15  2  0
 17 16  1  0
 17 18  1  0
 18 19  1  0
 18 23  2  0
 19 20  2  0
 20 21  1  0
 22 21  2  0
 23 22  1  0
 24 13  1  0
 25 24  2  0
 26 24  1  0
 27 38  1  0
 27 26  1  0
 28 29  1  0
 27 28  1  1
 29 30  2  0
 31 30  1  0
 32 31  1  0
 33 32  2  0
 34 33  1  0
 35 34  2  0
 35 36  1  0
 36 37  2  0
 37 32  1  0
 37 29  1  0
 38 40  1  0
 39 38  2  0
M  END
$$$$
