FWW.pdb
     RDKit          3D

 40 44  0  0  1  0  0  0  0  0999 V2000
   10.5766  -19.5964   18.0666 N   0  0  0  0  0  0  0  0  0  0  0  0
    9.8951  -19.8207   19.3254 C   0  0  1  0  0  0  0  0  0  0  0  0
   10.4906  -21.0518   20.0213 C   0  0  0  0  0  0  0  0  0  0  0  0
   10.0668  -22.2807   19.3150 C   0  0  0  0  0  0  0  0  0  0  0  0
    8.8208  -22.8161   19.5381 C   0  0  0  0  0  0  0  0  0  0  0  0
    8.4675  -23.9771   18.8509 C   0  0  0  0  0  0  0  0  0  0  0  0
    9.3811  -24.5239   17.9890 C   0  0  0  0  0  0  0  0  0  0  0  0
   10.6172  -23.9936   17.7671 C   0  0  0  0  0  0  0  0  0  0  0  0
   10.9823  -22.8412   18.4419 C   0  0  0  0  0  0  0  0  0  0  0  0
   10.0795  -18.6752   20.2535 C   0  0  0  0  0  0  0  0  0  0  0  0
   11.1472  -17.9962   20.2601 O   0  0  0  0  0  0  0  0  0  0  0  0
    9.0681  -18.2849   21.1733 N   0  0  0  0  0  0  0  0  0  0  0  0
    9.1960  -17.0946   22.0197 C   0  0  1  0  0  0  0  0  0  0  0  0
    7.8414  -16.4982   22.2599 C   0  0  0  0  0  0  0  0  0  0  0  0
    7.8100  -15.1882   22.8949 C   0  0  0  0  0  0  0  0  0  0  0  0
    8.0953  -13.9434   22.3527 C   0  0  0  0  0  0  0  0  0  0  0  0
    7.8850  -12.9920   23.2588 N   0  0  0  0  0  0  0  0  0  0  0  0
    7.4658  -13.5651   24.3997 C   0  0  0  0  0  0  0  0  0  0  0  0
    7.1357  -13.0283   25.6156 C   0  0  0  0  0  0  0  0  0  0  0  0
    6.7472  -13.8123   26.6653 C   0  0  0  0  0  0  0  0  0  0  0  0
    6.6839  -15.1891   26.5009 C   0  0  0  0  0  0  0  0  0  0  0  0
    7.0175  -15.6995   25.2785 C   0  0  0  0  0  0  0  0  0  0  0  0
    7.4167  -14.9274   24.1849 C   0  0  0  0  0  0  0  0  0  0  0  0
   10.0077  -17.4154   23.1940 C   0  0  0  0  0  0  0  0  0  0  0  0
    9.7262  -18.4792   23.8691 O   0  0  0  0  0  0  0  0  0  0  0  0
   11.0984  -16.6977   23.7059 N   0  0  0  0  0  0  0  0  0  0  0  0
   11.8100  -16.9458   24.9330 C   0  0  1  0  0  0  0  0  0  0  0  0
   12.1356  -15.7405   25.7117 C   0  0  0  0  0  0  0  0  0  0  0  0
   11.1271  -15.4960   26.7656 C   0  0  0  0  0  0  0  0  0  0  0  0
   10.5931  -16.4268   27.6680 C   0  0  0  0  0  0  0  0  0  0  0  0
    9.6926  -15.8192   28.4442 N   0  0  0  0  0  0  0  0  0  0  0  0
    9.5809  -14.5190   28.1210 C   0  0  0  0  0  0  0  0  0  0  0  0
    8.8137  -13.4786   28.6017 C   0  0  0  0  0  0  0  0  0  0  0  0
    8.8967  -12.1981   28.0707 C   0  0  0  0  0  0  0  0  0  0  0  0
    9.7822  -11.9798   27.0280 C   0  0  0  0  0  0  0  0  0  0  0  0
   10.5401  -13.0342   26.5623 C   0  0  0  0  0  0  0  0  0  0  0  0
   10.4723  -14.3172   27.0775 C   0  0  0  0  0  0  0  0  0  0  0  0
   11.1576  -17.9701   25.8021 C   0  0  0  0  0  0  0  0  0  0  0  0
    9.9425  -18.2447   25.6598 O   0  0  0  0  0  0  0  0  0  0  0  0
   11.8161  -18.6733   26.8022 O   0  0  0  0  0  0  0  0  0  0  0  0
  2  1  1  6
  3  4  1  0
  3  2  1  0
  4  5  2  0
  5  6  1  0
  7  6  2  0
  8  7  1  0
  9  8  2  0
  9  4  1  0
 10 11  2  0
 10  2  1  0
 12 10  1  0
 13 12  1  0
 13 14  1  1
 15 23  1  0
 15 14  1  0
 16 15  2  0
 17 16  1  0
 17 18  1  0
 18 19  1  0
 18 23  2  0
 19 20  2  0
 20 21  1  0
 22 21  2  0
 23 22  1  0
 24 13  1  0
 25 24  2  0
 26 24  1  0
 27 38  1  0
 27 26  1  0
 28 29  1  0
 27 28  1  1
 29 30  2  0
 31 30  1  0
 32 31  1  0
 33 32  2  0
 34 33  1  0
 35 34  2  0
 35 36  1  0
 36 37  2  0
 37 32  1  0
 37 29  1  0
 38 40  1  0
 39 38  2  0
M  END
$$$$
