FWW.pdb
     RDKit          3D

 40 44  0  0  1  0  0  0  0  0999 V2000
    9.9251  -18.1391   18.8628 N   0  0  0  0  0  0  0  0  0  0  0  0
    9.6593  -16.7679   19.2478 C   0  0  1  0  0  0  0  0  0  0  0  0
    8.5431  -16.1925   18.3657 C   0  0  0  0  0  0  0  0  0  0  0  0
    8.3381  -14.7628   18.6860 C   0  0  0  0  0  0  0  0  0  0  0  0
    9.3120  -13.8383   18.3938 C   0  0  0  0  0  0  0  0  0  0  0  0
    9.0740  -12.5027   18.7171 C   0  0  0  0  0  0  0  0  0  0  0  0
    7.8814  -12.1815   19.3095 C   0  0  0  0  0  0  0  0  0  0  0  0
    6.9147  -13.0978   19.5998 C   0  0  0  0  0  0  0  0  0  0  0  0
    7.1365  -14.4276   19.2848 C   0  0  0  0  0  0  0  0  0  0  0  0
    9.1805  -16.6818   20.6517 C   0  0  0  0  0  0  0  0  0  0  0  0
    8.8833  -15.5716   21.1810 O   0  0  0  0  0  0  0  0  0  0  0  0
    9.0296  -17.8383   21.4648 N   0  0  0  0  0  0  0  0  0  0  0  0
    8.3905  -17.7907   22.7835 C   0  0  1  0  0  0  0  0  0  0  0  0
    7.6029  -19.0468   23.0081 C   0  0  0  0  0  0  0  0  0  0  0  0
    6.4754  -19.2766   22.1157 C   0  0  0  0  0  0  0  0  0  0  0  0
    5.9544  -20.4756   21.6513 C   0  0  0  0  0  0  0  0  0  0  0  0
    4.8796  -20.2460   20.9014 N   0  0  0  0  0  0  0  0  0  0  0  0
    4.6636  -18.9208   20.8477 C   0  0  0  0  0  0  0  0  0  0  0  0
    3.7072  -18.1837   20.2015 C   0  0  0  0  0  0  0  0  0  0  0  0
    3.6859  -16.8190   20.2672 C   0  0  0  0  0  0  0  0  0  0  0  0
    4.6566  -16.1569   21.0063 C   0  0  0  0  0  0  0  0  0  0  0  0
    5.5988  -16.9149   21.6418 C   0  0  0  0  0  0  0  0  0  0  0  0
    5.6485  -18.3102   21.5971 C   0  0  0  0  0  0  0  0  0  0  0  0
    9.3842  -17.4298   23.7950 C   0  0  0  0  0  0  0  0  0  0  0  0
   10.5047  -18.0706   23.8182 O   0  0  0  0  0  0  0  0  0  0  0  0
    9.2838  -16.4383   24.7816 N   0  0  0  0  0  0  0  0  0  0  0  0
   10.2315  -16.1440   25.8252 C   0  0  1  0  0  0  0  0  0  0  0  0
    9.9114  -14.9559   26.6320 C   0  0  0  0  0  0  0  0  0  0  0  0
    8.4589  -14.6778   26.6218 C   0  0  0  0  0  0  0  0  0  0  0  0
    7.4178  -15.5863   26.3836 C   0  0  0  0  0  0  0  0  0  0  0  0
    6.2504  -14.9407   26.4379 N   0  0  0  0  0  0  0  0  0  0  0  0
    6.4365  -13.6355   26.7011 C   0  0  0  0  0  0  0  0  0  0  0  0
    5.5845  -12.5621   26.8558 C   0  0  0  0  0  0  0  0  0  0  0  0
    6.0544  -11.2844   27.1297 C   0  0  0  0  0  0  0  0  0  0  0  0
    7.4229  -11.1033   27.2472 C   0  0  0  0  0  0  0  0  0  0  0  0
    8.2574  -12.1903   27.0887 C   0  0  0  0  0  0  0  0  0  0  0  0
    7.8091  -13.4711   26.8156 C   0  0  0  0  0  0  0  0  0  0  0  0
   10.5260  -17.3122   26.7078 C   0  0  0  0  0  0  0  0  0  0  0  0
   11.1354  -18.3117   26.2583 O   0  0  0  0  0  0  0  0  0  0  0  0
   10.1613  -17.3864   28.0456 O   0  0  0  0  0  0  0  0  0  0  0  0
  2  1  1  6
  3  4  1  0
  3  2  1  0
  4  5  2  0
  5  6  1  0
  7  6  2  0
  8  7  1  0
  9  8  2  0
  9  4  1  0
 10 11  2  0
 10  2  1  0
 12 10  1  0
 13 12  1  0
 13 14  1  1
 15 23  1  0
 15 14  1  0
 16 15  2  0
 17 16  1  0
 17 18  1  0
 18 19  1  0
 18 23  2  0
 19 20  2  0
 20 21  1  0
 22 21  2  0
 23 22  1  0
 24 13  1  0
 25 24  2  0
 26 24  1  0
 27 38  1  0
 27 26  1  0
 28 29  1  0
 27 28  1  1
 29 30  2  0
 31 30  1  0
 32 31  1  0
 33 32  2  0
 34 33  1  0
 35 34  2  0
 35 36  1  0
 36 37  2  0
 37 32  1  0
 37 29  1  0
 38 40  1  0
 39 38  2  0
M  END
$$$$
