FWW.pdb
     RDKit          3D

 40 44  0  0  1  0  0  0  0  0999 V2000
    8.3448  -21.4986   20.3135 N   0  0  0  0  0  0  0  0  0  0  0  0
    7.8142  -20.1911   20.6424 C   0  0  1  0  0  0  0  0  0  0  0  0
    6.5240  -20.3491   21.4580 C   0  0  0  0  0  0  0  0  0  0  0  0
    5.8695  -19.0323   21.6204 C   0  0  0  0  0  0  0  0  0  0  0  0
    5.9418  -18.3632   22.8187 C   0  0  0  0  0  0  0  0  0  0  0  0
    5.3065  -17.1261   22.9244 C   0  0  0  0  0  0  0  0  0  0  0  0
    4.6433  -16.6420   21.8280 C   0  0  0  0  0  0  0  0  0  0  0  0
    4.5710  -17.3050   20.6390 C   0  0  0  0  0  0  0  0  0  0  0  0
    5.1966  -18.5341   20.5188 C   0  0  0  0  0  0  0  0  0  0  0  0
    8.7610  -19.4185   21.4874 C   0  0  0  0  0  0  0  0  0  0  0  0
    9.3187  -19.9374   22.4978 O   0  0  0  0  0  0  0  0  0  0  0  0
    9.0887  -18.0649   21.2013 N   0  0  0  0  0  0  0  0  0  0  0  0
    9.9090  -17.2502   22.1029 C   0  0  1  0  0  0  0  0  0  0  0  0
   10.0310  -15.8594   21.5557 C   0  0  0  0  0  0  0  0  0  0  0  0
    8.8005  -15.0865   21.4615 C   0  0  0  0  0  0  0  0  0  0  0  0
    7.6420  -15.1861   22.2183 C   0  0  0  0  0  0  0  0  0  0  0  0
    6.7731  -14.2489   21.8478 N   0  0  0  0  0  0  0  0  0  0  0  0
    7.3173  -13.5202   20.8585 C   0  0  0  0  0  0  0  0  0  0  0  0
    6.8284  -12.4643   20.1362 C   0  0  0  0  0  0  0  0  0  0  0  0
    7.5578  -11.8748   19.1423 C   0  0  0  0  0  0  0  0  0  0  0  0
    8.8277  -12.3545   18.8526 C   0  0  0  0  0  0  0  0  0  0  0  0
    9.2924  -13.4079   19.5878 C   0  0  0  0  0  0  0  0  0  0  0  0
    8.5746  -14.0321   20.6107 C   0  0  0  0  0  0  0  0  0  0  0  0
    9.4174  -17.3931   23.4735 C   0  0  0  0  0  0  0  0  0  0  0  0
    8.7461  -18.4515   23.7830 O   0  0  0  0  0  0  0  0  0  0  0  0
    9.5864  -16.5024   24.5435 N   0  0  0  0  0  0  0  0  0  0  0  0
   10.2079  -16.7704   25.8145 C   0  0  1  0  0  0  0  0  0  0  0  0
    9.6789  -15.9817   26.9384 C   0  0  0  0  0  0  0  0  0  0  0  0
    8.2911  -15.5422   26.6771 C   0  0  0  0  0  0  0  0  0  0  0  0
    7.1523  -16.3486   26.5395 C   0  0  0  0  0  0  0  0  0  0  0  0
    6.0942  -15.5748   26.2861 N   0  0  0  0  0  0  0  0  0  0  0  0
    6.4481  -14.2785   26.2425 C   0  0  0  0  0  0  0  0  0  0  0  0
    5.7551  -13.1070   26.0205 C   0  0  0  0  0  0  0  0  0  0  0  0
    6.3834  -11.8685   26.0297 C   0  0  0  0  0  0  0  0  0  0  0  0
    7.7470  -11.8300   26.2710 C   0  0  0  0  0  0  0  0  0  0  0  0
    8.4211  -13.0135   26.4905 C   0  0  0  0  0  0  0  0  0  0  0  0
    7.8136  -14.2573   26.4854 C   0  0  0  0  0  0  0  0  0  0  0  0
   10.2437  -18.2218   26.1648 C   0  0  0  0  0  0  0  0  0  0  0  0
   10.9441  -18.6283   27.1221 O   0  0  0  0  0  0  0  0  0  0  0  0
    9.5345  -19.2027   25.4843 O   0  0  0  0  0  0  0  0  0  0  0  0
  2  1  1  1
  3  4  1  0
  3  2  1  0
  4  5  2  0
  5  6  1  0
  7  6  2  0
  8  7  1  0
  9  8  2  0
  9  4  1  0
 10 11  2  0
 10  2  1  0
 12 10  1  0
 13 12  1  0
 13 14  1  6
 15 23  1  0
 15 14  1  0
 16 15  2  0
 17 16  1  0
 17 18  1  0
 18 19  1  0
 18 23  2  0
 19 20  2  0
 20 21  1  0
 22 21  2  0
 23 22  1  0
 24 13  1  0
 25 24  2  0
 26 24  1  0
 27 38  1  0
 27 26  1  0
 28 29  1  0
 27 28  1  1
 29 30  2  0
 31 30  1  0
 32 31  1  0
 33 32  2  0
 34 33  1  0
 35 34  2  0
 35 36  1  0
 36 37  2  0
 37 32  1  0
 37 29  1  0
 38 40  1  0
 39 38  2  0
M  END
$$$$
