EMP.pdb
     RDKit          3D

 25 25  0  0  1  0  0  0  0  0999 V2000
   28.8374  -19.5007  -16.1303 N   0  0  0  0  0  0  0  0  0  0  0  0
   28.1058  -18.7759  -15.1013 C   0  0  1  0  0  0  0  0  0  0  0  0
   27.2325  -17.7674  -15.7652 C   0  0  0  0  0  0  0  0  0  0  0  0
   27.9252  -16.5563  -16.2785 C   0  0  0  0  0  0  0  0  0  0  0  0
   28.1946  -16.6360  -17.7215 C   0  0  0  0  0  0  0  0  0  0  0  0
   28.8078  -15.7514  -18.3507 O   0  0  0  0  0  0  0  0  0  0  0  0
   27.3265  -19.8103  -14.3384 C   0  0  0  0  0  0  0  0  0  0  0  0
   27.0195  -20.8927  -14.9242 O   0  0  0  0  0  0  0  0  0  0  0  0
   27.7649  -17.7390  -18.4831 O   0  0  0  0  0  0  0  0  0  0  0  0
   26.6740  -19.5281   -8.0640 C   0  0  0  0  0  0  0  0  0  0  0  0
   25.5221  -20.9175   -8.2624 S   0  0  0  0  0  0  0  0  0  0  0  0
   25.2814  -21.2892  -10.0388 C   0  0  0  0  0  0  0  0  0  0  0  0
   26.1596  -20.3621  -10.8215 C   0  0  0  0  0  0  0  0  0  0  0  0
   26.0920  -20.6251  -12.3172 C   0  0  2  0  0  0  0  0  0  0  0  0
   26.9276  -19.6155  -12.9966 N   0  0  0  0  0  0  0  0  0  0  0  0
   24.7169  -20.5497  -12.8456 C   0  0  0  0  0  0  0  0  0  0  0  0
   24.2536  -19.3515  -12.9608 O   0  0  0  0  0  0  0  0  0  0  0  0
   23.8925  -21.6197  -13.2259 N   0  0  0  0  0  0  0  0  0  0  0  0
   24.3039  -23.0088  -13.1355 C   0  0  0  0  0  0  0  0  0  0  0  0
   23.6774  -23.5925  -14.3817 C   0  0  0  0  0  0  0  0  0  0  0  0
   22.2483  -23.0523  -14.1938 C   0  0  0  0  0  0  0  0  0  0  0  0
   22.5487  -21.6104  -13.7191 C   0  0  1  0  0  0  0  0  0  0  0  0
   21.6264  -21.2898  -12.5678 C   0  0  0  0  0  0  0  0  0  0  0  0
   20.3213  -20.9564  -12.9282 O   0  0  0  0  0  0  0  0  0  0  0  0
   22.0469  -21.3341  -11.4052 O   0  0  0  0  0  0  0  0  0  0  0  0
  2  1  1  6
  2  7  1  0
  3  2  1  0
  4  3  1  0
  5  4  1  0
  6  5  2  0
  7  8  2  0
  9  5  1  0
 11 10  1  0
 11 12  1  0
 13 12  1  0
 14 13  1  1
 14 16  1  0
 15 14  1  0
 15  7  1  0
 16 17  2  0
 18 19  1  0
 18 16  1  0
 20 21  1  0
 20 19  1  0
 22 21  1  0
 22 18  1  0
 22 23  1  1
 24 23  1  0
 25 23  2  0
M  END
$$$$
