EMP.pdb
     RDKit          3D

 25 25  0  0  1  0  0  0  0  0999 V2000
   27.2095  -24.7846  -15.9793 N   0  0  0  0  0  0  0  0  0  0  0  0
   27.0376  -23.3391  -16.0021 C   0  0  1  0  0  0  0  0  0  0  0  0
   26.7719  -22.9178  -17.4065 C   0  0  0  0  0  0  0  0  0  0  0  0
   27.9611  -22.4726  -18.1796 C   0  0  0  0  0  0  0  0  0  0  0  0
   28.3748  -23.4605  -19.1866 C   0  0  0  0  0  0  0  0  0  0  0  0
   27.6144  -24.3449  -19.6271 O   0  0  0  0  0  0  0  0  0  0  0  0
   25.8908  -23.0421  -15.0771 C   0  0  0  0  0  0  0  0  0  0  0  0
   24.7883  -23.6404  -15.2659 O   0  0  0  0  0  0  0  0  0  0  0  0
   29.6789  -23.4586  -19.7166 O   0  0  0  0  0  0  0  0  0  0  0  0
   25.7488  -21.3477   -8.5431 C   0  0  0  0  0  0  0  0  0  0  0  0
   24.9364  -20.0210   -9.4793 S   0  0  0  0  0  0  0  0  0  0  0  0
   24.2000  -20.6918  -11.0153 C   0  0  0  0  0  0  0  0  0  0  0  0
   25.3227  -21.1055  -11.9162 C   0  0  0  0  0  0  0  0  0  0  0  0
   24.8309  -21.8254  -13.1614 C   0  0  2  0  0  0  0  0  0  0  0  0
   26.0019  -22.1223  -14.0098 N   0  0  0  0  0  0  0  0  0  0  0  0
   23.8634  -21.0250  -13.9354 C   0  0  0  0  0  0  0  0  0  0  0  0
   24.3761  -20.0119  -14.5471 O   0  0  0  0  0  0  0  0  0  0  0  0
   22.4853  -21.2537  -14.0694 N   0  0  0  0  0  0  0  0  0  0  0  0
   21.8083  -22.3902  -13.4719 C   0  0  0  0  0  0  0  0  0  0  0  0
   20.7981  -22.7382  -14.5417 C   0  0  0  0  0  0  0  0  0  0  0  0
   20.2028  -21.3355  -14.7592 C   0  0  0  0  0  0  0  0  0  0  0  0
   21.4881  -20.4740  -14.7377 C   0  0  1  0  0  0  0  0  0  0  0  0
   21.2180  -19.2425  -13.9075 C   0  0  0  0  0  0  0  0  0  0  0  0
   20.5085  -18.2329  -14.5569 O   0  0  0  0  0  0  0  0  0  0  0  0
   21.6187  -19.1821  -12.7387 O   0  0  0  0  0  0  0  0  0  0  0  0
  2  1  1  6
  2  7  1  0
  3  2  1  0
  4  3  1  0
  5  4  1  0
  6  5  2  0
  7  8  2  0
  9  5  1  0
 11 10  1  0
 11 12  1  0
 13 12  1  0
 14 13  1  1
 14 16  1  0
 15 14  1  0
 15  7  1  0
 16 17  2  0
 18 19  1  0
 18 16  1  0
 20 21  1  0
 20 19  1  0
 22 21  1  0
 22 18  1  0
 22 23  1  1
 24 23  1  0
 25 23  2  0
M  END
$$$$
