EMP.pdb
     RDKit          3D

 25 25  0  0  1  0  0  0  0  0999 V2000
   28.7093  -21.1552  -16.7401 N   0  0  0  0  0  0  0  0  0  0  0  0
   28.0546  -20.1212  -15.9516 C   0  0  1  0  0  0  0  0  0  0  0  0
   27.1883  -19.3151  -16.8574 C   0  0  0  0  0  0  0  0  0  0  0  0
   27.9052  -18.4190  -17.8024 C   0  0  0  0  0  0  0  0  0  0  0  0
   28.5442  -17.2841  -17.1206 C   0  0  0  0  0  0  0  0  0  0  0  0
   27.9269  -16.5057  -16.3671 O   0  0  0  0  0  0  0  0  0  0  0  0
   27.2750  -20.8411  -14.8872 C   0  0  0  0  0  0  0  0  0  0  0  0
   26.7672  -21.9698  -15.1655 O   0  0  0  0  0  0  0  0  0  0  0  0
   29.9152  -17.0120  -17.2872 O   0  0  0  0  0  0  0  0  0  0  0  0
   27.6359  -20.3136   -8.3130 C   0  0  0  0  0  0  0  0  0  0  0  0
   25.8598  -20.1279   -8.6408 S   0  0  0  0  0  0  0  0  0  0  0  0
   25.4325  -20.8863  -10.2514 C   0  0  0  0  0  0  0  0  0  0  0  0
   26.4015  -20.3695  -11.2699 C   0  0  0  0  0  0  0  0  0  0  0  0
   26.1359  -20.9289  -12.6582 C   0  0  2  0  0  0  0  0  0  0  0  0
   27.0912  -20.3028  -13.5933 N   0  0  0  0  0  0  0  0  0  0  0  0
   24.7610  -20.6657  -13.1231 C   0  0  0  0  0  0  0  0  0  0  0  0
   24.5026  -19.4228  -13.3508 O   0  0  0  0  0  0  0  0  0  0  0  0
   23.7417  -21.6060  -13.3382 N   0  0  0  0  0  0  0  0  0  0  0  0
   23.9302  -23.0343  -13.1609 C   0  0  0  0  0  0  0  0  0  0  0  0
   23.1001  -23.5929  -14.2946 C   0  0  0  0  0  0  0  0  0  0  0  0
   21.8020  -22.8070  -14.0364 C   0  0  0  0  0  0  0  0  0  0  0  0
   22.3758  -21.4059  -13.7167 C   0  0  1  0  0  0  0  0  0  0  0  0
   21.6330  -20.8514  -12.5252 C   0  0  0  0  0  0  0  0  0  0  0  0
   20.3952  -20.2770  -12.8123 O   0  0  0  0  0  0  0  0  0  0  0  0
   22.1300  -20.9258  -11.3948 O   0  0  0  0  0  0  0  0  0  0  0  0
  2  1  1  6
  2  7  1  0
  3  2  1  0
  4  3  1  0
  5  4  1  0
  6  5  2  0
  7  8  2  0
  9  5  1  0
 11 10  1  0
 11 12  1  0
 13 12  1  0
 14 13  1  1
 14 16  1  0
 15 14  1  0
 15  7  1  0
 16 17  2  0
 18 19  1  0
 18 16  1  0
 20 21  1  0
 20 19  1  0
 22 21  1  0
 22 18  1  0
 22 23  1  1
 24 23  1  0
 25 23  2  0
M  END
$$$$
