EMP.pdb
     RDKit          3D

 25 25  0  0  1  0  0  0  0  0999 V2000
   20.3902  -18.9255  -15.5169 N   0  0  0  0  0  0  0  0  0  0  0  0
   20.9357  -20.0292  -14.7398 C   0  0  1  0  0  0  0  0  0  0  0  0
   20.7254  -21.2921  -15.5024 C   0  0  0  0  0  0  0  0  0  0  0  0
   19.3390  -21.5282  -15.9844 C   0  0  0  0  0  0  0  0  0  0  0  0
   19.3057  -22.0327  -17.3648 C   0  0  0  0  0  0  0  0  0  0  0  0
   19.8324  -23.1086  -17.7107 O   0  0  0  0  0  0  0  0  0  0  0  0
   22.3893  -19.7106  -14.5286 C   0  0  0  0  0  0  0  0  0  0  0  0
   22.9088  -18.7706  -15.2037 O   0  0  0  0  0  0  0  0  0  0  0  0
   18.6635  -21.3114  -18.3889 O   0  0  0  0  0  0  0  0  0  0  0  0
   26.4267  -21.5957   -9.6176 C   0  0  0  0  0  0  0  0  0  0  0  0
   24.9669  -20.5571   -9.3237 S   0  0  0  0  0  0  0  0  0  0  0  0
   24.4271  -19.7701  -10.8861 C   0  0  0  0  0  0  0  0  0  0  0  0
   25.0177  -20.5527  -12.0184 C   0  0  0  0  0  0  0  0  0  0  0  0
   24.5917  -20.0181  -13.3762 C   0  0  2  0  0  0  0  0  0  0  0  0
   23.1906  -20.4216  -13.6067 N   0  0  0  0  0  0  0  0  0  0  0  0
   25.4298  -20.5303  -14.4767 C   0  0  0  0  0  0  0  0  0  0  0  0
   25.0451  -21.6630  -14.9588 O   0  0  0  0  0  0  0  0  0  0  0  0
   26.5654  -19.9229  -15.0340 N   0  0  0  0  0  0  0  0  0  0  0  0
   27.1331  -18.6870  -14.5268 C   0  0  0  0  0  0  0  0  0  0  0  0
   27.5620  -18.0030  -15.8053 C   0  0  0  0  0  0  0  0  0  0  0  0
   28.3409  -19.1699  -16.4388 C   0  0  0  0  0  0  0  0  0  0  0  0
   27.3933  -20.3511  -16.1204 C   0  0  1  0  0  0  0  0  0  0  0  0
   28.2305  -21.5139  -15.6450 C   0  0  0  0  0  0  0  0  0  0  0  0
   28.9033  -22.2101  -16.6485 O   0  0  0  0  0  0  0  0  0  0  0  0
   28.2829  -21.7889  -14.4400 O   0  0  0  0  0  0  0  0  0  0  0  0
  2  1  1  6
  2  7  1  0
  3  2  1  0
  4  3  1  0
  5  4  1  0
  6  5  2  0
  7  8  2  0
  9  5  1  0
 11 10  1  0
 11 12  1  0
 13 12  1  0
 14 13  1  1
 14 16  1  0
 15 14  1  0
 15  7  1  0
 16 17  2  0
 18 19  1  0
 18 16  1  0
 20 21  1  0
 20 19  1  0
 22 21  1  0
 22 18  1  0
 22 23  1  1
 24 23  1  0
 25 23  2  0
M  END
$$$$
