EMP.pdb
     RDKit          3D

 25 25  0  0  1  0  0  0  0  0999 V2000
   27.0232  -15.2639  -16.4111 N   0  0  0  0  0  0  0  0  0  0  0  0
   26.1855  -15.7141  -15.3089 C   0  0  1  0  0  0  0  0  0  0  0  0
   24.7583  -15.5827  -15.7169 C   0  0  0  0  0  0  0  0  0  0  0  0
   24.3953  -16.2338  -17.0031 C   0  0  0  0  0  0  0  0  0  0  0  0
   23.5494  -17.4205  -16.8095 C   0  0  0  0  0  0  0  0  0  0  0  0
   23.8396  -18.5459  -17.2607 O   0  0  0  0  0  0  0  0  0  0  0  0
   26.5857  -17.1371  -15.0367 C   0  0  0  0  0  0  0  0  0  0  0  0
   27.4329  -17.6866  -15.8044 O   0  0  0  0  0  0  0  0  0  0  0  0
   22.3423  -17.3453  -16.0892 O   0  0  0  0  0  0  0  0  0  0  0  0
   25.9129  -20.0679   -9.1656 C   0  0  0  0  0  0  0  0  0  0  0  0
   25.6850  -21.4463  -10.3251 S   0  0  0  0  0  0  0  0  0  0  0  0
   26.4467  -21.0447  -11.9407 C   0  0  0  0  0  0  0  0  0  0  0  0
   25.9492  -19.6943  -12.3560 C   0  0  0  0  0  0  0  0  0  0  0  0
   26.5341  -19.2453  -13.6854 C   0  0  2  0  0  0  0  0  0  0  0  0
   26.0505  -17.8776  -13.9584 N   0  0  0  0  0  0  0  0  0  0  0  0
   26.1474  -20.1270  -14.8029 C   0  0  0  0  0  0  0  0  0  0  0  0
   24.9737  -19.8954  -15.2849 O   0  0  0  0  0  0  0  0  0  0  0  0
   26.9091  -21.1570  -15.3759 N   0  0  0  0  0  0  0  0  0  0  0  0
   28.2489  -21.4942  -14.9308 C   0  0  0  0  0  0  0  0  0  0  0  0
   28.9269  -21.8330  -16.2392 C   0  0  0  0  0  0  0  0  0  0  0  0
   27.8779  -22.8139  -16.7931 C   0  0  0  0  0  0  0  0  0  0  0  0
   26.5710  -22.0725  -16.4231 C   0  0  1  0  0  0  0  0  0  0  0  0
   25.5950  -23.0823  -15.8694 C   0  0  0  0  0  0  0  0  0  0  0  0
   24.9201  -23.8410  -16.8251 O   0  0  0  0  0  0  0  0  0  0  0  0
   25.4411  -23.1905  -14.6467 O   0  0  0  0  0  0  0  0  0  0  0  0
  2  1  1  6
  2  7  1  0
  3  2  1  0
  4  3  1  0
  5  4  1  0
  6  5  2  0
  7  8  2  0
  9  5  1  0
 11 10  1  0
 11 12  1  0
 13 12  1  0
 14 13  1  1
 14 16  1  0
 15 14  1  0
 15  7  1  0
 16 17  2  0
 18 19  1  0
 18 16  1  0
 20 21  1  0
 20 19  1  0
 22 21  1  0
 22 18  1  0
 22 23  1  1
 24 23  1  0
 25 23  2  0
M  END
$$$$
