EMP.pdb
     RDKit          3D

 25 25  0  0  1  0  0  0  0  0999 V2000
   19.9791  -19.7847  -14.3449 N   0  0  0  0  0  0  0  0  0  0  0  0
   20.7793  -20.8930  -13.8441 C   0  0  1  0  0  0  0  0  0  0  0  0
   20.7019  -22.0119  -14.8254 C   0  0  0  0  0  0  0  0  0  0  0  0
   20.9249  -21.6366  -16.2464 C   0  0  0  0  0  0  0  0  0  0  0  0
   22.2179  -22.1168  -16.7549 C   0  0  0  0  0  0  0  0  0  0  0  0
   22.4317  -23.3068  -17.0595 O   0  0  0  0  0  0  0  0  0  0  0  0
   22.1740  -20.3576  -13.6789 C   0  0  0  0  0  0  0  0  0  0  0  0
   22.3829  -19.1276  -13.9079 O   0  0  0  0  0  0  0  0  0  0  0  0
   23.3045  -21.2388  -16.9277 O   0  0  0  0  0  0  0  0  0  0  0  0
   25.9489  -20.2255   -8.3447 C   0  0  0  0  0  0  0  0  0  0  0  0
   26.7849  -21.2493   -9.5894 S   0  0  0  0  0  0  0  0  0  0  0  0
   26.4052  -20.6340  -11.2714 C   0  0  0  0  0  0  0  0  0  0  0  0
   25.0307  -21.1085  -11.6307 C   0  0  0  0  0  0  0  0  0  0  0  0
   24.5686  -20.5776  -12.9781 C   0  0  2  0  0  0  0  0  0  0  0  0
   23.2536  -21.1773  -13.2786 N   0  0  0  0  0  0  0  0  0  0  0  0
   25.5080  -20.9007  -14.0685 C   0  0  0  0  0  0  0  0  0  0  0  0
   25.3657  -22.0831  -14.5636 O   0  0  0  0  0  0  0  0  0  0  0  0
   26.5061  -20.0723  -14.6041 N   0  0  0  0  0  0  0  0  0  0  0  0
   26.8627  -18.7876  -14.0302 C   0  0  0  0  0  0  0  0  0  0  0  0
   27.1335  -17.9660  -15.2703 C   0  0  0  0  0  0  0  0  0  0  0  0
   28.0872  -18.9396  -15.9859 C   0  0  0  0  0  0  0  0  0  0  0  0
   27.3680  -20.2850  -15.7269 C   0  0  1  0  0  0  0  0  0  0  0  0
   28.4066  -21.3087  -15.3366 C   0  0  0  0  0  0  0  0  0  0  0  0
   29.1223  -21.8623  -16.3976 O   0  0  0  0  0  0  0  0  0  0  0  0
   28.5726  -21.6011  -14.1460 O   0  0  0  0  0  0  0  0  0  0  0  0
  2  1  1  6
  2  7  1  0
  3  2  1  0
  4  3  1  0
  5  4  1  0
  6  5  2  0
  7  8  2  0
  9  5  1  0
 11 10  1  0
 11 12  1  0
 13 12  1  0
 14 13  1  1
 14 16  1  0
 15 14  1  0
 15  7  1  0
 16 17  2  0
 18 19  1  0
 18 16  1  0
 20 21  1  0
 20 19  1  0
 22 21  1  0
 22 18  1  0
 22 23  1  1
 24 23  1  0
 25 23  2  0
M  END
$$$$
