EMP.pdb
     RDKit          3D

 25 25  0  0  1  0  0  0  0  0999 V2000
   29.3948  -21.4062  -16.0611 N   0  0  0  0  0  0  0  0  0  0  0  0
   28.4057  -20.3820  -15.7574 C   0  0  1  0  0  0  0  0  0  0  0  0
   27.8779  -19.8405  -17.0415 C   0  0  0  0  0  0  0  0  0  0  0  0
   27.0198  -18.6322  -16.9248 C   0  0  0  0  0  0  0  0  0  0  0  0
   27.3433  -17.6172  -17.9378 C   0  0  0  0  0  0  0  0  0  0  0  0
   28.0948  -16.6474  -17.7160 O   0  0  0  0  0  0  0  0  0  0  0  0
   27.3478  -21.0578  -14.9307 C   0  0  0  0  0  0  0  0  0  0  0  0
   27.0606  -22.2672  -15.1836 O   0  0  0  0  0  0  0  0  0  0  0  0
   26.8095  -17.6897  -19.2383 O   0  0  0  0  0  0  0  0  0  0  0  0
   25.1010  -20.9859   -8.3160 C   0  0  0  0  0  0  0  0  0  0  0  0
   26.6779  -20.5825   -9.1203 S   0  0  0  0  0  0  0  0  0  0  0  0
   26.7338  -21.3086  -10.8000 C   0  0  0  0  0  0  0  0  0  0  0  0
   25.7480  -20.5676  -11.6499 C   0  0  0  0  0  0  0  0  0  0  0  0
   25.6767  -21.1159  -13.0659 C   0  0  2  0  0  0  0  0  0  0  0  0
   26.6671  -20.3915  -13.8865 N   0  0  0  0  0  0  0  0  0  0  0  0
   24.3402  -20.9578  -13.6696 C   0  0  0  0  0  0  0  0  0  0  0  0
   24.0945  -19.7752  -14.1219 O   0  0  0  0  0  0  0  0  0  0  0  0
   23.3443  -21.9381  -13.7986 N   0  0  0  0  0  0  0  0  0  0  0  0
   23.5104  -23.3031  -13.3339 C   0  0  0  0  0  0  0  0  0  0  0  0
   22.7941  -24.0808  -14.4148 C   0  0  0  0  0  0  0  0  0  0  0  0
   21.4791  -23.2810  -14.4387 C   0  0  0  0  0  0  0  0  0  0  0  0
   22.0227  -21.8357  -14.3389 C   0  0  1  0  0  0  0  0  0  0  0  0
   21.1680  -21.0762  -13.3532 C   0  0  0  0  0  0  0  0  0  0  0  0
   21.6808  -20.9996  -12.0587 O   0  0  0  0  0  0  0  0  0  0  0  0
   20.0970  -20.5757  -13.7174 O   0  0  0  0  0  0  0  0  0  0  0  0
  2  1  1  6
  2  7  1  0
  3  2  1  0
  4  3  1  0
  5  4  1  0
  6  5  2  0
  7  8  2  0
  9  5  1  0
 11 10  1  0
 11 12  1  0
 13 12  1  0
 14 13  1  1
 14 16  1  0
 15 14  1  0
 15  7  1  0
 16 17  2  0
 18 19  1  0
 18 16  1  0
 20 21  1  0
 20 19  1  0
 22 21  1  0
 22 18  1  0
 22 23  1  1
 24 23  1  0
 25 23  2  0
M  END
$$$$
