EMP.pdb
     RDKit          3D

 25 25  0  0  1  0  0  0  0  0999 V2000
   14.3659  -15.1588    5.2485 N   0  0  0  0  0  0  0  0  0  0  0  0
   14.7133  -15.4915    6.6226 C   0  0  1  0  0  0  0  0  0  0  0  0
   13.7887  -16.5594    7.0975 C   0  0  0  0  0  0  0  0  0  0  0  0
   13.9074  -17.8680    6.4020 C   0  0  0  0  0  0  0  0  0  0  0  0
   13.4299  -18.9856    7.2290 C   0  0  0  0  0  0  0  0  0  0  0  0
   14.1639  -19.9238    7.5972 O   0  0  0  0  0  0  0  0  0  0  0  0
   16.1494  -15.9342    6.5930 C   0  0  0  0  0  0  0  0  0  0  0  0
   16.6409  -16.3263    5.4913 O   0  0  0  0  0  0  0  0  0  0  0  0
   12.0907  -19.0555    7.6567 O   0  0  0  0  0  0  0  0  0  0  0  0
   21.7900  -12.8294    8.3772 C   0  0  0  0  0  0  0  0  0  0  0  0
   21.4783  -14.2619    9.4483 S   0  0  0  0  0  0  0  0  0  0  0  0
   20.6504  -15.5910    8.4997 C   0  0  0  0  0  0  0  0  0  0  0  0
   19.1760  -15.3305    8.5420 C   0  0  0  0  0  0  0  0  0  0  0  0
   18.3943  -16.2800    7.6486 C   0  0  2  0  0  0  0  0  0  0  0  0
   16.9643  -15.9271    7.7477 N   0  0  0  0  0  0  0  0  0  0  0  0
   18.5710  -17.6939    8.0301 C   0  0  0  0  0  0  0  0  0  0  0  0
   17.7350  -18.1167    8.9165 O   0  0  0  0  0  0  0  0  0  0  0  0
   19.5267  -18.5947    7.5357 N   0  0  0  0  0  0  0  0  0  0  0  0
   20.5182  -18.2315    6.5398 C   0  0  0  0  0  0  0  0  0  0  0  0
   20.5895  -19.4926    5.7086 C   0  0  0  0  0  0  0  0  0  0  0  0
   20.7755  -20.5085    6.8500 C   0  0  0  0  0  0  0  0  0  0  0  0
   19.7635  -19.9624    7.8854 C   0  0  1  0  0  0  0  0  0  0  0  0
   20.4156  -19.9948    9.2465 C   0  0  0  0  0  0  0  0  0  0  0  0
   20.2875  -21.1992    9.9374 O   0  0  0  0  0  0  0  0  0  0  0  0
   21.0097  -18.9973    9.6736 O   0  0  0  0  0  0  0  0  0  0  0  0
  2  1  1  6
  2  7  1  0
  3  2  1  0
  4  3  1  0
  5  4  1  0
  6  5  2  0
  7  8  2  0
  9  5  1  0
 11 10  1  0
 11 12  1  0
 13 12  1  0
 14 13  1  1
 14 16  1  0
 15 14  1  0
 15  7  1  0
 16 17  2  0
 18 19  1  0
 18 16  1  0
 20 21  1  0
 20 19  1  0
 22 21  1  0
 22 18  1  0
 22 23  1  1
 24 23  1  0
 25 23  2  0
M  END
$$$$
