EMP.pdb
     RDKit          3D

 25 25  0  0  1  0  0  0  0  0999 V2000
   22.9389   -4.0703  -15.2038 N   0  0  0  0  0  0  0  0  0  0  0  0
   22.3760   -5.2412  -14.5467 C   0  0  1  0  0  0  0  0  0  0  0  0
   20.9494   -4.9591  -14.2212 C   0  0  0  0  0  0  0  0  0  0  0  0
   20.1231   -4.4465  -15.3457 C   0  0  0  0  0  0  0  0  0  0  0  0
   18.7602   -4.0942  -14.9222 C   0  0  0  0  0  0  0  0  0  0  0  0
   18.3729   -4.1679  -13.7393 O   0  0  0  0  0  0  0  0  0  0  0  0
   22.5394   -6.3797  -15.5143 C   0  0  0  0  0  0  0  0  0  0  0  0
   22.4244   -6.1427  -16.7552 O   0  0  0  0  0  0  0  0  0  0  0  0
   17.8017   -3.6459  -15.8505 O   0  0  0  0  0  0  0  0  0  0  0  0
   25.8452  -13.4566  -16.6362 C   0  0  0  0  0  0  0  0  0  0  0  0
   25.4319  -12.0595  -15.5529 S   0  0  0  0  0  0  0  0  0  0  0  0
   24.3458  -10.8776  -16.4335 C   0  0  0  0  0  0  0  0  0  0  0  0
   24.0077   -9.7725  -15.4807 C   0  0  0  0  0  0  0  0  0  0  0  0
   23.0355   -8.7688  -16.0794 C   0  0  2  0  0  0  0  0  0  0  0  0
   22.8155   -7.6983  -15.0871 N   0  0  0  0  0  0  0  0  0  0  0  0
   21.7381   -9.3756  -16.4319 C   0  0  0  0  0  0  0  0  0  0  0  0
   20.9091   -9.4732  -15.4487 O   0  0  0  0  0  0  0  0  0  0  0  0
   21.3304   -9.8381  -17.6925 N   0  0  0  0  0  0  0  0  0  0  0  0
   22.1477   -9.7127  -18.8855 C   0  0  0  0  0  0  0  0  0  0  0  0
   21.1040   -9.4153  -19.9384 C   0  0  0  0  0  0  0  0  0  0  0  0
   20.1262  -10.5610  -19.6212 C   0  0  0  0  0  0  0  0  0  0  0  0
   20.1310  -10.5197  -18.0743 C   0  0  1  0  0  0  0  0  0  0  0  0
   20.2119  -11.9380  -17.5637 C   0  0  0  0  0  0  0  0  0  0  0  0
   19.0255  -12.6663  -17.6440 O   0  0  0  0  0  0  0  0  0  0  0  0
   21.2786  -12.3761  -17.1156 O   0  0  0  0  0  0  0  0  0  0  0  0
  2  1  1  6
  2  7  1  0
  3  2  1  0
  4  3  1  0
  5  4  1  0
  6  5  2  0
  7  8  2  0
  9  5  1  0
 11 10  1  0
 11 12  1  0
 13 12  1  0
 14 13  1  1
 14 16  1  0
 15 14  1  0
 15  7  1  0
 16 17  2  0
 18 19  1  0
 18 16  1  0
 20 21  1  0
 20 19  1  0
 22 21  1  0
 22 18  1  0
 22 23  1  1
 24 23  1  0
 25 23  2  0
M  END
$$$$
