EMP.pdb
     RDKit          3D

 25 25  0  0  1  0  0  0  0  0999 V2000
   28.6417  -20.0298  -16.3299 N   0  0  0  0  0  0  0  0  0  0  0  0
   28.3368  -19.2831  -15.1179 C   0  0  1  0  0  0  0  0  0  0  0  0
   27.7543  -17.9681  -15.5080 C   0  0  0  0  0  0  0  0  0  0  0  0
   27.2844  -17.8656  -16.9147 C   0  0  0  0  0  0  0  0  0  0  0  0
   28.3853  -17.6084  -17.8543 C   0  0  0  0  0  0  0  0  0  0  0  0
   29.0338  -16.5436  -17.8702 O   0  0  0  0  0  0  0  0  0  0  0  0
   27.3788  -20.1357  -14.3340 C   0  0  0  0  0  0  0  0  0  0  0  0
   26.6555  -20.9685  -14.9604 O   0  0  0  0  0  0  0  0  0  0  0  0
   28.7722  -18.5719  -18.8048 O   0  0  0  0  0  0  0  0  0  0  0  0
   26.1827  -19.3103   -7.8662 C   0  0  0  0  0  0  0  0  0  0  0  0
   25.8522  -21.0759   -8.1305 S   0  0  0  0  0  0  0  0  0  0  0  0
   25.4655  -21.3889   -9.8924 C   0  0  0  0  0  0  0  0  0  0  0  0
   26.4510  -20.6212  -10.7187 C   0  0  0  0  0  0  0  0  0  0  0  0
   26.2882  -20.8840  -12.2071 C   0  0  2  0  0  0  0  0  0  0  0  0
   27.2597  -20.0391  -12.9290 N   0  0  0  0  0  0  0  0  0  0  0  0
   24.9287  -20.5802  -12.6921 C   0  0  0  0  0  0  0  0  0  0  0  0
   24.6462  -19.3227  -12.7376 O   0  0  0  0  0  0  0  0  0  0  0  0
   23.9468  -21.4965  -13.0990 N   0  0  0  0  0  0  0  0  0  0  0  0
   24.1697  -22.9301  -13.1435 C   0  0  0  0  0  0  0  0  0  0  0  0
   23.4022  -23.3180  -14.3871 C   0  0  0  0  0  0  0  0  0  0  0  0
   22.0724  -22.6132  -14.0644 C   0  0  0  0  0  0  0  0  0  0  0  0
   22.5918  -21.2690  -13.5006 C   0  0  1  0  0  0  0  0  0  0  0  0
   21.7861  -20.9297  -12.2698 C   0  0  0  0  0  0  0  0  0  0  0  0
   20.5586  -20.3153  -12.5149 O   0  0  0  0  0  0  0  0  0  0  0  0
   22.2277  -21.1982  -11.1459 O   0  0  0  0  0  0  0  0  0  0  0  0
  2  1  1  6
  2  7  1  0
  3  2  1  0
  4  3  1  0
  5  4  1  0
  6  5  2  0
  7  8  2  0
  9  5  1  0
 11 10  1  0
 11 12  1  0
 13 12  1  0
 14 13  1  1
 14 16  1  0
 15 14  1  0
 15  7  1  0
 16 17  2  0
 18 19  1  0
 18 16  1  0
 20 21  1  0
 20 19  1  0
 22 21  1  0
 22 18  1  0
 22 23  1  1
 24 23  1  0
 25 23  2  0
M  END
$$$$
