EMP.pdb
     RDKit          3D

 25 25  0  0  1  0  0  0  0  0999 V2000
   20.1764  -12.6715  -18.9372 N   0  0  0  0  0  0  0  0  0  0  0  0
   20.7277  -11.3772  -19.3121 C   0  0  1  0  0  0  0  0  0  0  0  0
   19.6208  -10.5262  -19.8329 C   0  0  0  0  0  0  0  0  0  0  0  0
   19.5090  -10.4528  -21.3135 C   0  0  0  0  0  0  0  0  0  0  0  0
   20.2340   -9.3025  -21.8723 C   0  0  0  0  0  0  0  0  0  0  0  0
   19.7306   -8.1672  -21.9827 O   0  0  0  0  0  0  0  0  0  0  0  0
   21.3578  -10.8174  -18.0676 C   0  0  0  0  0  0  0  0  0  0  0  0
   20.7458  -10.9513  -16.9646 O   0  0  0  0  0  0  0  0  0  0  0  0
   21.5624   -9.4266  -22.3211 O   0  0  0  0  0  0  0  0  0  0  0  0
   27.2340  -11.9364  -15.3214 C   0  0  0  0  0  0  0  0  0  0  0  0
   27.1544  -10.1789  -15.7702 S   0  0  0  0  0  0  0  0  0  0  0  0
   25.4304   -9.5744  -15.6510 C   0  0  0  0  0  0  0  0  0  0  0  0
   24.6937  -10.0563  -16.8628 C   0  0  0  0  0  0  0  0  0  0  0  0
   23.2189   -9.6891  -16.8280 C   0  0  2  0  0  0  0  0  0  0  0  0
   22.6037  -10.1503  -18.0881 N   0  0  0  0  0  0  0  0  0  0  0  0
   22.9982   -8.2377  -16.6850 C   0  0  0  0  0  0  0  0  0  0  0  0
   23.2283   -7.5542  -17.7543 O   0  0  0  0  0  0  0  0  0  0  0  0
   22.5725   -7.5516  -15.5372 N   0  0  0  0  0  0  0  0  0  0  0  0
   22.3142   -8.2103  -14.2698 C   0  0  0  0  0  0  0  0  0  0  0  0
   21.1129   -7.4415  -13.7677 C   0  0  0  0  0  0  0  0  0  0  0  0
   21.6588   -6.0148  -13.9574 C   0  0  0  0  0  0  0  0  0  0  0  0
   22.3429   -6.1527  -15.3385 C   0  0  1  0  0  0  0  0  0  0  0  0
   23.6825   -5.4597  -15.2740 C   0  0  0  0  0  0  0  0  0  0  0  0
   23.6289   -4.0668  -15.2397 O   0  0  0  0  0  0  0  0  0  0  0  0
   24.7250   -6.1254  -15.2550 O   0  0  0  0  0  0  0  0  0  0  0  0
  2  1  1  1
  2  7  1  0
  3  2  1  0
  4  3  1  0
  5  4  1  0
  6  5  2  0
  7  8  2  0
  9  5  1  0
 11 10  1  0
 11 12  1  0
 13 12  1  0
 14 13  1  6
 14 16  1  0
 15 14  1  0
 15  7  1  0
 16 17  2  0
 18 19  1  0
 18 16  1  0
 20 21  1  0
 20 19  1  0
 22 21  1  0
 22 18  1  0
 22 23  1  1
 24 23  1  0
 25 23  2  0
M  END
$$$$
