EMP.pdb
     RDKit          3D

 25 25  0  0  1  0  0  0  0  0999 V2000
   20.3504  -12.7275  -18.8493 N   0  0  0  0  0  0  0  0  0  0  0  0
   19.8414  -11.3661  -18.9335 C   0  0  1  0  0  0  0  0  0  0  0  0
   18.4064  -11.4229  -19.3313 C   0  0  0  0  0  0  0  0  0  0  0  0
   18.1453  -11.8231  -20.7390 C   0  0  0  0  0  0  0  0  0  0  0  0
   16.7090  -11.8753  -21.0479 C   0  0  0  0  0  0  0  0  0  0  0  0
   16.1789  -11.1901  -21.9445 O   0  0  0  0  0  0  0  0  0  0  0  0
   20.0460  -10.7609  -17.5730 C   0  0  0  0  0  0  0  0  0  0  0  0
   19.9734  -11.5155  -16.5559 O   0  0  0  0  0  0  0  0  0  0  0  0
   15.8399  -12.7198  -20.3318 O   0  0  0  0  0  0  0  0  0  0  0  0
   21.6421   -8.5790  -11.8081 C   0  0  0  0  0  0  0  0  0  0  0  0
   21.9216   -9.7864  -13.1350 S   0  0  0  0  0  0  0  0  0  0  0  0
   22.7660   -8.9864  -14.5488 C   0  0  0  0  0  0  0  0  0  0  0  0
   22.1446   -9.5108  -15.8067 C   0  0  0  0  0  0  0  0  0  0  0  0
   20.7869   -8.8866  -16.0859 C   0  0  2  0  0  0  0  0  0  0  0  0
   20.3151   -9.3851  -17.3927 N   0  0  0  0  0  0  0  0  0  0  0  0
   20.8354   -7.4127  -16.1194 C   0  0  0  0  0  0  0  0  0  0  0  0
   21.6559   -6.9246  -16.9865 O   0  0  0  0  0  0  0  0  0  0  0  0
   20.0969   -6.5196  -15.3279 N   0  0  0  0  0  0  0  0  0  0  0  0
   19.1336   -6.9526  -14.3322 C   0  0  0  0  0  0  0  0  0  0  0  0
   18.0523   -5.9063  -14.4811 C   0  0  0  0  0  0  0  0  0  0  0  0
   18.9379   -4.6496  -14.4048 C   0  0  0  0  0  0  0  0  0  0  0  0
   20.1329   -5.0893  -15.2840 C   0  0  1  0  0  0  0  0  0  0  0  0
   21.4079   -4.6710  -14.5925 C   0  0  0  0  0  0  0  0  0  0  0  0
   21.6802   -3.3038  -14.6263 O   0  0  0  0  0  0  0  0  0  0  0  0
   22.1260   -5.5192  -14.0491 O   0  0  0  0  0  0  0  0  0  0  0  0
  2  1  1  1
  2  7  1  0
  3  2  1  0
  4  3  1  0
  5  4  1  0
  6  5  2  0
  7  8  2  0
  9  5  1  0
 11 10  1  0
 11 12  1  0
 13 12  1  0
 14 13  1  6
 14 16  1  0
 15 14  1  0
 15  7  1  0
 16 17  2  0
 18 19  1  0
 18 16  1  0
 20 21  1  0
 20 19  1  0
 22 21  1  0
 22 18  1  0
 22 23  1  1
 24 23  1  0
 25 23  2  0
M  END
$$$$
