EMP.pdb
     RDKit          3D

 25 25  0  0  1  0  0  0  0  0999 V2000
   24.8585  -16.5436  -17.6903 N   0  0  0  0  0  0  0  0  0  0  0  0
   23.5293  -17.0280  -17.3464 C   0  0  1  0  0  0  0  0  0  0  0  0
   23.0135  -17.8388  -18.4854 C   0  0  0  0  0  0  0  0  0  0  0  0
   23.5461  -19.2235  -18.5814 C   0  0  0  0  0  0  0  0  0  0  0  0
   22.9844  -19.9603  -19.7228 C   0  0  0  0  0  0  0  0  0  0  0  0
   23.3222  -19.7486  -20.9042 O   0  0  0  0  0  0  0  0  0  0  0  0
   23.6925  -17.8304  -16.0860 C   0  0  0  0  0  0  0  0  0  0  0  0
   24.8600  -17.9948  -15.6181 O   0  0  0  0  0  0  0  0  0  0  0  0
   22.0154  -20.9642  -19.5364 O   0  0  0  0  0  0  0  0  0  0  0  0
   19.8951  -20.3241   -9.5997 C   0  0  0  0  0  0  0  0  0  0  0  0
   19.8486  -19.7103  -11.3078 S   0  0  0  0  0  0  0  0  0  0  0  0
   21.5393  -19.6649  -12.0086 C   0  0  0  0  0  0  0  0  0  0  0  0
   21.4557  -19.0231  -13.3594 C   0  0  0  0  0  0  0  0  0  0  0  0
   22.7837  -19.0542  -14.0985 C   0  0  2  0  0  0  0  0  0  0  0  0
   22.5919  -18.4040  -15.4098 N   0  0  0  0  0  0  0  0  0  0  0  0
   23.2857  -20.4254  -14.3074 C   0  0  0  0  0  0  0  0  0  0  0  0
   22.8016  -21.0194  -15.3447 O   0  0  0  0  0  0  0  0  0  0  0  0
   24.2111  -21.1218  -13.5150 N   0  0  0  0  0  0  0  0  0  0  0  0
   24.7903  -20.5713  -12.3032 C   0  0  0  0  0  0  0  0  0  0  0  0
   26.2069  -21.0944  -12.3792 C   0  0  0  0  0  0  0  0  0  0  0  0
   25.8893  -22.5771  -12.6441 C   0  0  0  0  0  0  0  0  0  0  0  0
   24.7392  -22.4431  -13.6707 C   0  0  1  0  0  0  0  0  0  0  0  0
   23.6579  -23.4294  -13.3006 C   0  0  0  0  0  0  0  0  0  0  0  0
   23.9598  -24.7659  -13.5597 O   0  0  0  0  0  0  0  0  0  0  0  0
   22.5969  -23.0300  -12.8055 O   0  0  0  0  0  0  0  0  0  0  0  0
  2  1  1  6
  2  7  1  0
  3  2  1  0
  4  3  1  0
  5  4  1  0
  6  5  2  0
  7  8  2  0
  9  5  1  0
 11 10  1  0
 11 12  1  0
 13 12  1  0
 14 13  1  6
 14 16  1  0
 15 14  1  0
 15  7  1  0
 16 17  2  0
 18 19  1  0
 18 16  1  0
 20 21  1  0
 20 19  1  0
 22 21  1  0
 22 18  1  0
 22 23  1  1
 24 23  1  0
 25 23  2  0
M  END
$$$$
