DSY.pdb
     RDKit          3D

 27 27  0  0  1  0  0  0  0  0999 V2000
   21.9936  -11.9433  -18.2533 N   0  0  0  0  0  0  0  0  0  0  0  0
   21.1778  -10.7557  -18.3050 C   0  0  1  0  0  0  0  0  0  0  0  0
   20.0671  -10.7783  -17.2630 C   0  0  0  0  0  0  0  0  0  0  0  0
   19.1346  -11.8949  -17.5611 C   0  0  0  0  0  0  0  0  0  0  0  0
   19.1917  -13.0115  -16.9501 O   0  0  0  0  0  0  0  0  0  0  0  0
   21.9931   -9.5385  -18.2683 C   0  0  0  0  0  0  0  0  0  0  0  0
   23.0198   -9.5300  -17.5072 O   0  0  0  0  0  0  0  0  0  0  0  0
   18.1376  -11.7844  -18.5332 O   0  0  0  0  0  0  0  0  0  0  0  0
   21.3634   -6.4206  -20.7707 O   0  0  0  0  0  0  0  0  0  0  0  0
   22.6684   -6.5781  -20.2732 C   0  0  0  0  0  0  0  0  0  0  0  0
   22.5661   -7.2534  -18.9344 C   0  0  2  0  0  0  0  0  0  0  0  0
   21.6969   -8.3756  -19.0343 N   0  0  0  0  0  0  0  0  0  0  0  0
   22.1378   -6.2562  -17.9244 C   0  0  0  0  0  0  0  0  0  0  0  0
   20.9047   -6.0302  -17.8377 O   0  0  0  0  0  0  0  0  0  0  0  0
   19.6485   -8.9630  -12.2710 O   0  0  0  0  0  0  0  0  0  0  0  0
   20.4703   -8.0239  -12.8789 C   0  0  0  0  0  0  0  0  0  0  0  0
   21.6347   -8.3458  -13.5201 C   0  0  0  0  0  0  0  0  0  0  0  0
   22.4341   -7.3895  -14.1170 C   0  0  0  0  0  0  0  0  0  0  0  0
   22.0578   -6.0465  -14.0749 C   0  0  0  0  0  0  0  0  0  0  0  0
   22.9227   -5.0731  -14.7109 C   0  0  0  0  0  0  0  0  0  0  0  0
   22.5184   -4.5797  -16.0612 C   0  0  2  0  0  0  0  0  0  0  0  0
   23.0056   -5.5470  -17.0611 N   0  0  0  0  0  0  0  0  0  0  0  0
   23.2017   -3.2912  -16.3197 C   0  0  0  0  0  0  0  0  0  0  0  0
   24.1567   -3.2051  -17.3169 O   0  0  0  0  0  0  0  0  0  0  0  0
   20.8802   -5.7607  -13.4216 C   0  0  0  0  0  0  0  0  0  0  0  0
   20.0793   -6.7072  -12.8250 C   0  0  0  0  0  0  0  0  0  0  0  0
   22.9615   -2.2412  -15.6717 O   0  0  0  0  0  0  0  0  0  0  0  0
  2  3  1  0
  2  1  1  1
  4  3  1  0
  4  8  1  0
  5  4  2  0
  6  2  1  0
  7  6  2  0
 10  9  1  0
 11 10  1  6
 11 12  1  0
 12  6  1  0
 13 22  1  0
 13 11  1  0
 14 13  2  0
 16 15  1  0
 17 16  2  0
 18 17  1  0
 19 25  1  0
 19 18  2  0
 20 19  1  0
 21 20  1  1
 21 23  1  0
 21 22  1  0
 23 24  1  0
 25 26  2  0
 26 16  1  0
 27 23  2  0
M  END
$$$$
