DSY.pdb
     RDKit          3D

 27 27  0  0  1  0  0  0  0  0999 V2000
   20.8151  -10.5851  -17.7289 N   0  0  0  0  0  0  0  0  0  0  0  0
   19.7335   -9.8684  -17.1003 C   0  0  1  0  0  0  0  0  0  0  0  0
   19.4216  -10.4068  -15.7101 C   0  0  0  0  0  0  0  0  0  0  0  0
   18.8750  -11.7826  -15.8259 C   0  0  0  0  0  0  0  0  0  0  0  0
   18.2579  -12.1851  -16.8655 O   0  0  0  0  0  0  0  0  0  0  0  0
   19.9541   -8.4201  -17.1335 C   0  0  0  0  0  0  0  0  0  0  0  0
   21.1590   -8.0010  -17.2128 O   0  0  0  0  0  0  0  0  0  0  0  0
   19.0062  -12.7181  -14.7968 O   0  0  0  0  0  0  0  0  0  0  0  0
   16.9448   -5.7245  -16.6970 O   0  0  0  0  0  0  0  0  0  0  0  0
   18.0077   -5.2905  -17.5077 C   0  0  0  0  0  0  0  0  0  0  0  0
   19.2257   -6.0827  -17.1230 C   0  0  2  0  0  0  0  0  0  0  0  0
   18.8979   -7.4668  -17.0820 N   0  0  0  0  0  0  0  0  0  0  0  0
   19.7557   -5.5579  -15.8417 C   0  0  0  0  0  0  0  0  0  0  0  0
   19.2173   -5.9824  -14.7887 O   0  0  0  0  0  0  0  0  0  0  0  0
   23.8778  -10.0953  -15.1508 O   0  0  0  0  0  0  0  0  0  0  0  0
   23.5964   -8.7525  -14.9402 C   0  0  0  0  0  0  0  0  0  0  0  0
   22.7433   -8.3058  -13.9690 C   0  0  0  0  0  0  0  0  0  0  0  0
   22.4814   -6.9619  -13.7816 C   0  0  0  0  0  0  0  0  0  0  0  0
   23.0978   -6.0145  -14.5999 C   0  0  0  0  0  0  0  0  0  0  0  0
   22.7970   -4.6151  -14.3736 C   0  0  0  0  0  0  0  0  0  0  0  0
   21.3601   -4.2103  -14.4146 C   0  0  2  0  0  0  0  0  0  0  0  0
   20.8106   -4.6234  -15.7185 N   0  0  0  0  0  0  0  0  0  0  0  0
   21.2813   -2.7328  -14.3471 C   0  0  0  0  0  0  0  0  0  0  0  0
   20.7031   -2.0251  -15.3856 O   0  0  0  0  0  0  0  0  0  0  0  0
   23.9498   -6.5011  -15.5656 C   0  0  0  0  0  0  0  0  0  0  0  0
   24.2154   -7.8374  -15.7581 C   0  0  0  0  0  0  0  0  0  0  0  0
   21.7191   -2.0625  -13.3780 O   0  0  0  0  0  0  0  0  0  0  0  0
  2  3  1  0
  2  1  1  1
  4  3  1  0
  4  8  1  0
  5  4  2  0
  6  2  1  0
  7  6  2  0
 10  9  1  0
 11 10  1  1
 11 12  1  0
 12  6  1  0
 13 22  1  0
 13 11  1  0
 14 13  2  0
 16 15  1  0
 17 16  2  0
 18 17  1  0
 19 25  1  0
 19 18  2  0
 20 19  1  0
 21 20  1  6
 21 23  1  0
 21 22  1  0
 23 24  1  0
 25 26  2  0
 26 16  1  0
 27 23  2  0
M  END
$$$$
