DSY.pdb
     RDKit          3D

 27 27  0  0  1  0  0  0  0  0999 V2000
   14.0022  -12.1512  -16.0088 N   0  0  0  0  0  0  0  0  0  0  0  0
   14.2260  -11.7183  -14.6520 C   0  0  1  0  0  0  0  0  0  0  0  0
   14.7986  -12.8306  -13.7831 C   0  0  0  0  0  0  0  0  0  0  0  0
   13.7416  -13.8381  -13.5128 C   0  0  0  0  0  0  0  0  0  0  0  0
   12.5629  -13.7322  -13.9852 O   0  0  0  0  0  0  0  0  0  0  0  0
   15.0017  -10.4760  -14.6025 C   0  0  0  0  0  0  0  0  0  0  0  0
   15.5399  -10.0643  -15.6862 O   0  0  0  0  0  0  0  0  0  0  0  0
   13.9802  -14.9641  -12.7214 O   0  0  0  0  0  0  0  0  0  0  0  0
   14.1379   -7.0734  -13.7786 O   0  0  0  0  0  0  0  0  0  0  0  0
   15.3019   -7.5445  -14.4098 C   0  0  0  0  0  0  0  0  0  0  0  0
   15.9597   -8.5235  -13.4782 C   0  0  2  0  0  0  0  0  0  0  0  0
   15.1818   -9.7133  -13.4139 N   0  0  0  0  0  0  0  0  0  0  0  0
   16.1627   -7.8727  -12.1617 C   0  0  0  0  0  0  0  0  0  0  0  0
   15.1820   -7.8637  -11.3761 O   0  0  0  0  0  0  0  0  0  0  0  0
   22.8105   -6.5579  -14.1059 O   0  0  0  0  0  0  0  0  0  0  0  0
   21.8623   -6.6252  -13.0944 C   0  0  0  0  0  0  0  0  0  0  0  0
   21.5029   -7.7911  -12.4762 C   0  0  0  0  0  0  0  0  0  0  0  0
   20.5550   -7.8287  -11.4713 C   0  0  0  0  0  0  0  0  0  0  0  0
   19.9331   -6.6492  -11.0600 C   0  0  0  0  0  0  0  0  0  0  0  0
   18.9435   -6.7293  -10.0045 C   0  0  0  0  0  0  0  0  0  0  0  0
   17.5082   -6.6346  -10.4056 C   0  0  2  0  0  0  0  0  0  0  0  0
   17.3657   -7.2662  -11.7298 N   0  0  0  0  0  0  0  0  0  0  0  0
   17.1504   -5.2049  -10.5545 C   0  0  0  0  0  0  0  0  0  0  0  0
   16.9066   -4.6826  -11.8121 O   0  0  0  0  0  0  0  0  0  0  0  0
   20.3204   -5.4959  -11.7045 C   0  0  0  0  0  0  0  0  0  0  0  0
   21.2632   -5.4507  -12.7057 C   0  0  0  0  0  0  0  0  0  0  0  0
   17.0517   -4.4141   -9.5825 O   0  0  0  0  0  0  0  0  0  0  0  0
  2  3  1  0
  2  1  1  6
  4  3  1  0
  4  8  1  0
  5  4  2  0
  6  2  1  0
  7  6  2  0
 10  9  1  0
 11 10  1  6
 11 12  1  0
 12  6  1  0
 13 22  1  0
 13 11  1  0
 14 13  2  0
 16 15  1  0
 17 16  2  0
 18 17  1  0
 19 25  1  0
 19 18  2  0
 20 19  1  0
 21 20  1  6
 21 23  1  0
 21 22  1  0
 23 24  1  0
 25 26  2  0
 26 16  1  0
 27 23  2  0
M  END
$$$$
