DSY.pdb
     RDKit          3D

 27 27  0  0  1  0  0  0  0  0999 V2000
   21.1981  -18.8904  -15.4718 N   0  0  0  0  0  0  0  0  0  0  0  0
   22.6111  -18.8184  -15.1949 C   0  0  1  0  0  0  0  0  0  0  0  0
   23.1211  -17.3832  -15.1898 C   0  0  0  0  0  0  0  0  0  0  0  0
   23.0653  -16.8358  -16.5691 C   0  0  0  0  0  0  0  0  0  0  0  0
   22.6793  -17.5328  -17.5635 O   0  0  0  0  0  0  0  0  0  0  0  0
   22.9640  -19.5715  -13.9883 C   0  0  0  0  0  0  0  0  0  0  0  0
   22.1033  -19.6258  -13.0450 O   0  0  0  0  0  0  0  0  0  0  0  0
   23.4348  -15.5197  -16.8564 O   0  0  0  0  0  0  0  0  0  0  0  0
   26.1145  -22.1805  -13.7300 O   0  0  0  0  0  0  0  0  0  0  0  0
   24.9495  -22.3430  -12.9607 C   0  0  0  0  0  0  0  0  0  0  0  0
   24.4343  -20.9725  -12.6210 C   0  0  2  0  0  0  0  0  0  0  0  0
   24.2100  -20.2394  -13.8199 N   0  0  0  0  0  0  0  0  0  0  0  0
   25.3860  -20.3177  -11.6917 C   0  0  0  0  0  0  0  0  0  0  0  0
   26.2870  -19.6101  -12.2079 O   0  0  0  0  0  0  0  0  0  0  0  0
   29.8448  -18.8516   -4.0435 O   0  0  0  0  0  0  0  0  0  0  0  0
   28.9230  -19.1938   -5.0233 C   0  0  0  0  0  0  0  0  0  0  0  0
   28.1475  -18.2781   -5.6795 C   0  0  0  0  0  0  0  0  0  0  0  0
   27.2370  -18.6473   -6.6515 C   0  0  0  0  0  0  0  0  0  0  0  0
   27.0897  -19.9934   -6.9882 C   0  0  0  0  0  0  0  0  0  0  0  0
   26.1240  -20.3413   -8.0111 C   0  0  0  0  0  0  0  0  0  0  0  0
   26.4965  -20.0530   -9.4282 C   0  0  2  0  0  0  0  0  0  0  0  0
   25.3557  -20.4305  -10.2819 N   0  0  0  0  0  0  0  0  0  0  0  0
   27.6384  -20.9182   -9.8041 C   0  0  0  0  0  0  0  0  0  0  0  0
   28.8904  -20.3622   -9.9971 O   0  0  0  0  0  0  0  0  0  0  0  0
   27.8868  -20.8857   -6.3073 C   0  0  0  0  0  0  0  0  0  0  0  0
   28.7952  -20.5256   -5.3386 C   0  0  0  0  0  0  0  0  0  0  0  0
   27.5386  -22.1611   -9.9633 O   0  0  0  0  0  0  0  0  0  0  0  0
  2  3  1  0
  2  1  1  1
  4  3  1  0
  4  8  1  0
  5  4  2  0
  6  2  1  0
  7  6  2  0
 10  9  1  0
 11 10  1  6
 11 12  1  0
 12  6  1  0
 13 22  1  0
 13 11  1  0
 14 13  2  0
 16 15  1  0
 17 16  2  0
 18 17  1  0
 19 25  1  0
 19 18  2  0
 20 19  1  0
 21 20  1  1
 21 23  1  0
 21 22  1  0
 23 24  1  0
 25 26  2  0
 26 16  1  0
 27 23  2  0
M  END
$$$$
