DSY.pdb
     RDKit          3D

 27 27  0  0  1  0  0  0  0  0999 V2000
   29.5153  -27.7459  -16.9660 N   0  0  0  0  0  0  0  0  0  0  0  0
   29.4448  -26.4556  -17.6052 C   0  0  1  0  0  0  0  0  0  0  0  0
   29.0547  -26.5645  -19.0735 C   0  0  0  0  0  0  0  0  0  0  0  0
   30.0994  -27.3245  -19.8057 C   0  0  0  0  0  0  0  0  0  0  0  0
   31.2905  -26.8913  -19.9372 O   0  0  0  0  0  0  0  0  0  0  0  0
   28.6119  -25.5206  -16.8439 C   0  0  0  0  0  0  0  0  0  0  0  0
   28.1175  -25.9259  -15.7372 O   0  0  0  0  0  0  0  0  0  0  0  0
   29.8347  -28.5629  -20.3951 O   0  0  0  0  0  0  0  0  0  0  0  0
   28.9616  -21.5159  -16.7443 O   0  0  0  0  0  0  0  0  0  0  0  0
   27.6321  -21.9364  -16.9201 C   0  0  0  0  0  0  0  0  0  0  0  0
   27.5377  -23.3578  -16.4409 C   0  0  2  0  0  0  0  0  0  0  0  0
   28.3306  -24.1936  -17.2762 N   0  0  0  0  0  0  0  0  0  0  0  0
   26.1099  -23.7530  -16.3861 C   0  0  0  0  0  0  0  0  0  0  0  0
   25.5906  -24.1538  -17.4579 O   0  0  0  0  0  0  0  0  0  0  0  0
   17.9454  -25.2506  -12.9299 O   0  0  0  0  0  0  0  0  0  0  0  0
   19.2845  -24.9544  -13.1438 C   0  0  0  0  0  0  0  0  0  0  0  0
   19.8066  -23.6967  -13.0162 C   0  0  0  0  0  0  0  0  0  0  0  0
   21.1449  -23.4304  -13.2355 C   0  0  0  0  0  0  0  0  0  0  0  0
   22.0073  -24.4651  -13.5995 C   0  0  0  0  0  0  0  0  0  0  0  0
   23.4033  -24.1462  -13.8221 C   0  0  0  0  0  0  0  0  0  0  0  0
   23.8786  -24.1118  -15.2374 C   0  0  2  0  0  0  0  0  0  0  0  0
   25.2972  -23.7114  -15.2289 N   0  0  0  0  0  0  0  0  0  0  0  0
   23.1256  -23.0644  -15.9655 C   0  0  0  0  0  0  0  0  0  0  0  0
   22.0234  -23.4107  -16.7263 O   0  0  0  0  0  0  0  0  0  0  0  0
   21.4464  -25.7167  -13.7179 C   0  0  0  0  0  0  0  0  0  0  0  0
   20.1153  -25.9895  -13.5013 C   0  0  0  0  0  0  0  0  0  0  0  0
   23.4338  -21.8462  -15.9345 O   0  0  0  0  0  0  0  0  0  0  0  0
  2  3  1  0
  2  1  1  1
  4  3  1  0
  4  8  1  0
  5  4  2  0
  6  2  1  0
  7  6  2  0
 10  9  1  0
 11 10  1  6
 11 12  1  0
 12  6  1  0
 13 22  1  0
 13 11  1  0
 14 13  2  0
 16 15  1  0
 17 16  2  0
 18 17  1  0
 19 25  1  0
 19 18  2  0
 20 19  1  0
 21 20  1  1
 21 23  1  0
 21 22  1  0
 23 24  1  0
 25 26  2  0
 26 16  1  0
 27 23  2  0
M  END
$$$$
