DSY.pdb
     RDKit          3D

 27 27  0  0  1  0  0  0  0  0999 V2000
   18.5400   -9.8436  -16.5193 N   0  0  0  0  0  0  0  0  0  0  0  0
   18.6791  -10.4499  -15.2187 C   0  0  1  0  0  0  0  0  0  0  0  0
   19.7997  -11.4809  -15.1845 C   0  0  0  0  0  0  0  0  0  0  0  0
   19.4469  -12.6214  -16.0676 C   0  0  0  0  0  0  0  0  0  0  0  0
   18.2514  -13.0456  -16.1875 O   0  0  0  0  0  0  0  0  0  0  0  0
   18.7765   -9.4411  -14.1603 C   0  0  0  0  0  0  0  0  0  0  0  0
   19.4574   -9.7322  -13.1185 O   0  0  0  0  0  0  0  0  0  0  0  0
   20.4099  -13.2975  -16.8204 O   0  0  0  0  0  0  0  0  0  0  0  0
   17.6091   -5.5927  -14.6090 O   0  0  0  0  0  0  0  0  0  0  0  0
   18.5310   -5.8941  -13.5918 C   0  0  0  0  0  0  0  0  0  0  0  0
   18.2438   -7.2910  -13.1174 C   0  0  2  0  0  0  0  0  0  0  0  0
   18.1533   -8.1634  -14.2380 N   0  0  0  0  0  0  0  0  0  0  0  0
   17.0225   -7.2720  -12.2772 C   0  0  0  0  0  0  0  0  0  0  0  0
   15.9341   -7.5242  -12.8525 O   0  0  0  0  0  0  0  0  0  0  0  0
   10.5738   -8.2536   -6.5741 O   0  0  0  0  0  0  0  0  0  0  0  0
   11.7908   -8.1741   -7.2369 C   0  0  0  0  0  0  0  0  0  0  0  0
   12.0000   -8.6819   -8.4894 C   0  0  0  0  0  0  0  0  0  0  0  0
   13.2231   -8.5885   -9.1260 C   0  0  0  0  0  0  0  0  0  0  0  0
   14.2916   -7.9592   -8.4862 C   0  0  0  0  0  0  0  0  0  0  0  0
   15.5587   -7.8823   -9.1852 C   0  0  0  0  0  0  0  0  0  0  0  0
   15.7374   -6.7591  -10.1529 C   0  0  2  0  0  0  0  0  0  0  0  0
   16.9920   -6.9927  -10.8907 N   0  0  0  0  0  0  0  0  0  0  0  0
   15.8974   -5.4982   -9.3922 C   0  0  0  0  0  0  0  0  0  0  0  0
   14.7948   -4.7029   -9.1362 O   0  0  0  0  0  0  0  0  0  0  0  0
   14.0436   -7.4604   -7.2272 C   0  0  0  0  0  0  0  0  0  0  0  0
   12.8288   -7.5496   -6.5872 C   0  0  0  0  0  0  0  0  0  0  0  0
   17.0032   -5.0940   -8.9522 O   0  0  0  0  0  0  0  0  0  0  0  0
  2  3  1  0
  2  1  1  6
  4  3  1  0
  4  8  1  0
  5  4  2  0
  6  2  1  0
  7  6  2  0
 10  9  1  0
 11 10  1  6
 11 12  1  0
 12  6  1  0
 13 22  1  0
 13 11  1  0
 14 13  2  0
 16 15  1  0
 17 16  2  0
 18 17  1  0
 19 25  1  0
 19 18  2  0
 20 19  1  0
 21 20  1  1
 21 23  1  0
 21 22  1  0
 23 24  1  0
 25 26  2  0
 26 16  1  0
 27 23  2  0
M  END
$$$$
