DSY.pdb
     RDKit          3D

 27 27  0  0  1  0  0  0  0  0999 V2000
   24.4018   -8.4500  -21.2104 N   0  0  0  0  0  0  0  0  0  0  0  0
   24.6092   -9.2475  -20.0275 C   0  0  1  0  0  0  0  0  0  0  0  0
   25.9866   -9.8976  -20.0095 C   0  0  0  0  0  0  0  0  0  0  0  0
   26.0516  -10.9432  -21.0619 C   0  0  0  0  0  0  0  0  0  0  0  0
   25.0769  -11.1801  -21.8478 O   0  0  0  0  0  0  0  0  0  0  0  0
   24.2982   -8.4963  -18.8083 C   0  0  0  0  0  0  0  0  0  0  0  0
   24.2643   -9.1382  -17.7035 O   0  0  0  0  0  0  0  0  0  0  0  0
   27.1897  -11.7306  -21.2509 O   0  0  0  0  0  0  0  0  0  0  0  0
   22.6363   -4.7923  -18.8542 O   0  0  0  0  0  0  0  0  0  0  0  0
   23.5099   -5.0030  -17.7736 C   0  0  0  0  0  0  0  0  0  0  0  0
   23.6374   -6.4873  -17.5748 C   0  0  2  0  0  0  0  0  0  0  0  0
   24.0345   -7.0973  -18.7976 N   0  0  0  0  0  0  0  0  0  0  0  0
   22.3601   -7.0116  -17.0349 C   0  0  0  0  0  0  0  0  0  0  0  0
   21.5745   -7.5476  -17.8562 O   0  0  0  0  0  0  0  0  0  0  0  0
   16.2522  -10.2981  -11.4480 O   0  0  0  0  0  0  0  0  0  0  0  0
   17.3870   -9.8046  -12.0767 C   0  0  0  0  0  0  0  0  0  0  0  0
   18.2234   -8.8850  -11.5063 C   0  0  0  0  0  0  0  0  0  0  0  0
   19.3473   -8.4107  -12.1558 C   0  0  0  0  0  0  0  0  0  0  0  0
   19.6555   -8.8730  -13.4357 C   0  0  0  0  0  0  0  0  0  0  0  0
   20.8414   -8.3511  -14.0848 C   0  0  0  0  0  0  0  0  0  0  0  0
   20.6371   -7.3975  -15.2158 C   0  0  2  0  0  0  0  0  0  0  0  0
   21.9641   -6.9525  -15.6780 N   0  0  0  0  0  0  0  0  0  0  0  0
   19.9206   -6.2049  -14.7074 C   0  0  0  0  0  0  0  0  0  0  0  0
   20.6369   -5.1121  -14.2530 O   0  0  0  0  0  0  0  0  0  0  0  0
   18.7914   -9.7977  -13.9773 C   0  0  0  0  0  0  0  0  0  0  0  0
   17.6708  -10.2746  -13.3369 C   0  0  0  0  0  0  0  0  0  0  0  0
   18.6673   -6.1210  -14.6617 O   0  0  0  0  0  0  0  0  0  0  0  0
  2  3  1  0
  2  1  1  6
  4  3  1  0
  4  8  1  0
  5  4  2  0
  6  2  1  0
  7  6  2  0
 10  9  1  0
 11 10  1  6
 11 12  1  0
 12  6  1  0
 13 22  1  0
 13 11  1  0
 14 13  2  0
 16 15  1  0
 17 16  2  0
 18 17  1  0
 19 25  1  0
 19 18  2  0
 20 19  1  0
 21 20  1  1
 21 23  1  0
 21 22  1  0
 23 24  1  0
 25 26  2  0
 26 16  1  0
 27 23  2  0
M  END
$$$$
