DSY.pdb
     RDKit          3D

 27 27  0  0  1  0  0  0  0  0999 V2000
   18.1632  -13.4218  -18.3412 N   0  0  0  0  0  0  0  0  0  0  0  0
   18.1080  -12.6759  -17.1086 C   0  0  1  0  0  0  0  0  0  0  0  0
   19.0598  -13.2341  -16.0586 C   0  0  0  0  0  0  0  0  0  0  0  0
   18.4511  -14.4341  -15.4303 C   0  0  0  0  0  0  0  0  0  0  0  0
   17.5023  -15.0834  -15.9796 O   0  0  0  0  0  0  0  0  0  0  0  0
   18.2669  -11.2377  -17.3401 C   0  0  0  0  0  0  0  0  0  0  0  0
   19.0510  -10.8668  -18.2789 O   0  0  0  0  0  0  0  0  0  0  0  0
   18.8856  -14.9214  -14.1954 O   0  0  0  0  0  0  0  0  0  0  0  0
   15.5378   -8.5551  -16.2782 O   0  0  0  0  0  0  0  0  0  0  0  0
   16.4463   -8.2831  -17.3156 C   0  0  0  0  0  0  0  0  0  0  0  0
   17.7714   -8.8760  -16.9264 C   0  0  2  0  0  0  0  0  0  0  0  0
   17.5943  -10.2434  -16.5746 N   0  0  0  0  0  0  0  0  0  0  0  0
   18.3666   -8.0549  -15.8450 C   0  0  0  0  0  0  0  0  0  0  0  0
   18.1098   -8.3996  -14.6642 O   0  0  0  0  0  0  0  0  0  0  0  0
   23.8752  -11.0193  -14.7838 O   0  0  0  0  0  0  0  0  0  0  0  0
   23.2148   -9.8009  -14.8617 C   0  0  0  0  0  0  0  0  0  0  0  0
   23.0405   -9.1129  -16.0308 C   0  0  0  0  0  0  0  0  0  0  0  0
   22.3784   -7.9008  -16.0791 C   0  0  0  0  0  0  0  0  0  0  0  0
   21.8638   -7.3445  -14.9074 C   0  0  0  0  0  0  0  0  0  0  0  0
   21.1772   -6.0716  -14.9982 C   0  0  0  0  0  0  0  0  0  0  0  0
   19.6857   -6.0938  -14.9280 C   0  0  2  0  0  0  0  0  0  0  0  0
   19.1925   -6.9233  -16.0421 N   0  0  0  0  0  0  0  0  0  0  0  0
   19.1801   -4.7178  -15.1407 C   0  0  0  0  0  0  0  0  0  0  0  0
   19.3927   -3.7486  -14.1768 O   0  0  0  0  0  0  0  0  0  0  0  0
   22.0581   -8.0653  -13.7507 C   0  0  0  0  0  0  0  0  0  0  0  0
   22.7161   -9.2724  -13.6949 C   0  0  0  0  0  0  0  0  0  0  0  0
   18.5524   -4.3656  -16.1711 O   0  0  0  0  0  0  0  0  0  0  0  0
  2  3  1  0
  2  1  1  6
  4  3  1  0
  4  8  1  0
  5  4  2  0
  6  2  1  0
  7  6  2  0
 10  9  1  0
 11 10  1  1
 11 12  1  0
 12  6  1  0
 13 22  1  0
 13 11  1  0
 14 13  2  0
 16 15  1  0
 17 16  2  0
 18 17  1  0
 19 25  1  0
 19 18  2  0
 20 19  1  0
 21 20  1  6
 21 23  1  0
 21 22  1  0
 23 24  1  0
 25 26  2  0
 26 16  1  0
 27 23  2  0
M  END
$$$$
