DSY.pdb
     RDKit          3D

 27 27  0  0  1  0  0  0  0  0999 V2000
   19.2810  -15.9814  -17.3287 N   0  0  0  0  0  0  0  0  0  0  0  0
   20.4879  -15.3886  -16.8088 C   0  0  1  0  0  0  0  0  0  0  0  0
   21.6875  -16.3169  -16.9473 C   0  0  0  0  0  0  0  0  0  0  0  0
   21.4434  -17.5568  -16.1674 C   0  0  0  0  0  0  0  0  0  0  0  0
   20.3799  -17.7365  -15.4889 O   0  0  0  0  0  0  0  0  0  0  0  0
   20.7138  -14.0504  -17.3616 C   0  0  0  0  0  0  0  0  0  0  0  0
   20.5162  -13.8798  -18.6128 O   0  0  0  0  0  0  0  0  0  0  0  0
   22.3701  -18.6015  -16.1326 O   0  0  0  0  0  0  0  0  0  0  0  0
   19.1237  -11.0175  -16.6615 O   0  0  0  0  0  0  0  0  0  0  0  0
   19.9860  -11.2117  -17.7542 C   0  0  0  0  0  0  0  0  0  0  0  0
   21.3076  -11.6798  -17.2127 C   0  0  2  0  0  0  0  0  0  0  0  0
   21.1395  -12.9416  -16.5765 N   0  0  0  0  0  0  0  0  0  0  0  0
   21.8603  -10.6322  -16.3212 C   0  0  0  0  0  0  0  0  0  0  0  0
   21.5098  -10.6708  -15.1151 O   0  0  0  0  0  0  0  0  0  0  0  0
   28.2789  -12.7481  -16.4240 O   0  0  0  0  0  0  0  0  0  0  0  0
   27.4130  -11.6659  -16.3479 C   0  0  0  0  0  0  0  0  0  0  0  0
   27.2276  -10.9290  -15.2107 C   0  0  0  0  0  0  0  0  0  0  0  0
   26.3583   -9.8558  -15.1634 C   0  0  0  0  0  0  0  0  0  0  0  0
   25.6371   -9.4968  -16.3027 C   0  0  0  0  0  0  0  0  0  0  0  0
   24.7344   -8.3666  -16.2135 C   0  0  0  0  0  0  0  0  0  0  0  0
   23.3346   -8.6439  -15.7734 C   0  0  2  0  0  0  0  0  0  0  0  0
   22.7428   -9.6024  -16.7240 N   0  0  0  0  0  0  0  0  0  0  0  0
   22.5520   -7.3894  -15.8620 C   0  0  0  0  0  0  0  0  0  0  0  0
   22.7024   -6.4132  -14.8934 O   0  0  0  0  0  0  0  0  0  0  0  0
   25.8497  -10.2608  -17.4280 C   0  0  0  0  0  0  0  0  0  0  0  0
   26.7134  -11.3306  -17.4826 C   0  0  0  0  0  0  0  0  0  0  0  0
   21.7368   -7.1493  -16.7881 O   0  0  0  0  0  0  0  0  0  0  0  0
  2  3  1  0
  2  1  1  6
  4  3  1  0
  4  8  1  0
  5  4  2  0
  6  2  1  0
  7  6  2  0
 10  9  1  0
 11 10  1  1
 11 12  1  0
 12  6  1  0
 13 22  1  0
 13 11  1  0
 14 13  2  0
 16 15  1  0
 17 16  2  0
 18 17  1  0
 19 25  1  0
 19 18  2  0
 20 19  1  0
 21 20  1  6
 21 23  1  0
 21 22  1  0
 23 24  1  0
 25 26  2  0
 26 16  1  0
 27 23  2  0
M  END
$$$$
