DSY.pdb
     RDKit          3D

 27 27  0  0  1  0  0  0  0  0999 V2000
   19.5053  -12.5027  -15.7399 N   0  0  0  0  0  0  0  0  0  0  0  0
   19.3558  -11.2836  -16.4949 C   0  0  1  0  0  0  0  0  0  0  0  0
   18.0050  -10.6226  -16.2535 C   0  0  0  0  0  0  0  0  0  0  0  0
   16.9235  -11.6138  -16.4834 C   0  0  0  0  0  0  0  0  0  0  0  0
   16.0204  -11.8501  -15.6161 O   0  0  0  0  0  0  0  0  0  0  0  0
   20.4945  -10.3827  -16.2968 C   0  0  0  0  0  0  0  0  0  0  0  0
   20.9547  -10.2534  -15.1114 O   0  0  0  0  0  0  0  0  0  0  0  0
   16.8343  -12.3474  -17.6687 O   0  0  0  0  0  0  0  0  0  0  0  0
   22.4855   -8.5562  -19.3647 O   0  0  0  0  0  0  0  0  0  0  0  0
   23.1892   -8.8178  -18.1766 C   0  0  0  0  0  0  0  0  0  0  0  0
   22.1985   -8.7926  -17.0466 C   0  0  2  0  0  0  0  0  0  0  0  0
   21.1063   -9.6514  -17.3540 N   0  0  0  0  0  0  0  0  0  0  0  0
   21.7981   -7.3885  -16.7892 C   0  0  0  0  0  0  0  0  0  0  0  0
   20.8704   -6.9241  -17.4983 O   0  0  0  0  0  0  0  0  0  0  0  0
   15.5674   -6.0626  -14.7717 O   0  0  0  0  0  0  0  0  0  0  0  0
   16.9361   -5.8620  -14.6564 C   0  0  0  0  0  0  0  0  0  0  0  0
   17.8160   -6.8531  -14.3187 C   0  0  0  0  0  0  0  0  0  0  0  0
   19.1747   -6.6249  -14.2111 C   0  0  0  0  0  0  0  0  0  0  0  0
   19.6847   -5.3484  -14.4510 C   0  0  0  0  0  0  0  0  0  0  0  0
   21.1146   -5.1481  -14.3270 C   0  0  0  0  0  0  0  0  0  0  0  0
   21.9175   -5.1603  -15.5860 C   0  0  2  0  0  0  0  0  0  0  0  0
   22.3781   -6.5416  -15.8158 N   0  0  0  0  0  0  0  0  0  0  0  0
   23.1199   -4.3178  -15.3901 C   0  0  0  0  0  0  0  0  0  0  0  0
   22.9950   -2.9413  -15.3312 O   0  0  0  0  0  0  0  0  0  0  0  0
   18.7696   -4.3769  -14.7886 C   0  0  0  0  0  0  0  0  0  0  0  0
   17.4156   -4.5966  -14.8976 C   0  0  0  0  0  0  0  0  0  0  0  0
   24.2794   -4.7881  -15.2708 O   0  0  0  0  0  0  0  0  0  0  0  0
  2  3  1  0
  2  1  1  1
  4  3  1  0
  4  8  1  0
  5  4  2  0
  6  2  1  0
  7  6  2  0
 10  9  1  0
 11 10  1  6
 11 12  1  0
 12  6  1  0
 13 22  1  0
 13 11  1  0
 14 13  2  0
 16 15  1  0
 17 16  2  0
 18 17  1  0
 19 25  1  0
 19 18  2  0
 20 19  1  0
 21 20  1  1
 21 23  1  0
 21 22  1  0
 23 24  1  0
 25 26  2  0
 26 16  1  0
 27 23  2  0
M  END
$$$$
