DSY.pdb
     RDKit          3D

 27 27  0  0  1  0  0  0  0  0999 V2000
   25.7578  -10.7925  -20.9500 N   0  0  0  0  0  0  0  0  0  0  0  0
   25.5869   -9.4390  -20.4841 C   0  0  1  0  0  0  0  0  0  0  0  0
   25.1198   -9.3868  -19.0352 C   0  0  0  0  0  0  0  0  0  0  0  0
   23.8165  -10.0878  -18.9124 C   0  0  0  0  0  0  0  0  0  0  0  0
   23.7327  -11.3201  -18.5993 O   0  0  0  0  0  0  0  0  0  0  0  0
   26.7751   -8.6229  -20.7479 C   0  0  0  0  0  0  0  0  0  0  0  0
   27.4641   -8.8905  -21.7907 O   0  0  0  0  0  0  0  0  0  0  0  0
   22.6025   -9.4334  -19.1345 O   0  0  0  0  0  0  0  0  0  0  0  0
   26.9766   -4.8859  -21.1173 O   0  0  0  0  0  0  0  0  0  0  0  0
   27.7923   -5.9410  -21.5610 C   0  0  0  0  0  0  0  0  0  0  0  0
   28.2452   -6.7061  -20.3493 C   0  0  2  0  0  0  0  0  0  0  0  0
   27.1937   -7.5553  -19.9041 N   0  0  0  0  0  0  0  0  0  0  0  0
   28.7111   -5.7456  -19.3205 C   0  0  0  0  0  0  0  0  0  0  0  0
   27.8332   -5.2413  -18.5762 O   0  0  0  0  0  0  0  0  0  0  0  0
   33.7224   -9.4074  -15.6269 O   0  0  0  0  0  0  0  0  0  0  0  0
   33.2791   -8.2229  -16.1990 C   0  0  0  0  0  0  0  0  0  0  0  0
   32.9467   -8.1037  -17.5203 C   0  0  0  0  0  0  0  0  0  0  0  0
   32.5079   -6.9111  -18.0635 C   0  0  0  0  0  0  0  0  0  0  0  0
   32.3937   -5.7806  -17.2536 C   0  0  0  0  0  0  0  0  0  0  0  0
   31.9315   -4.5482  -17.8598 C   0  0  0  0  0  0  0  0  0  0  0  0
   30.4607   -4.4013  -18.0720 C   0  0  2  0  0  0  0  0  0  0  0  0
   30.0565   -5.3581  -19.1180 N   0  0  0  0  0  0  0  0  0  0  0  0
   30.1892   -3.0392  -18.5868 C   0  0  0  0  0  0  0  0  0  0  0  0
   29.8284   -2.8617  -19.9105 O   0  0  0  0  0  0  0  0  0  0  0  0
   32.7366   -5.9387  -15.9297 C   0  0  0  0  0  0  0  0  0  0  0  0
   33.1742   -7.1226  -15.3818 C   0  0  0  0  0  0  0  0  0  0  0  0
   30.2683   -2.0052  -17.8764 O   0  0  0  0  0  0  0  0  0  0  0  0
  2  3  1  0
  2  1  1  1
  4  3  1  0
  4  8  1  0
  5  4  2  0
  6  2  1  0
  7  6  2  0
 10  9  1  0
 11 10  1  6
 11 12  1  0
 12  6  1  0
 13 22  1  0
 13 11  1  0
 14 13  2  0
 16 15  1  0
 17 16  2  0
 18 17  1  0
 19 25  1  0
 19 18  2  0
 20 19  1  0
 21 20  1  6
 21 23  1  0
 21 22  1  0
 23 24  1  0
 25 26  2  0
 26 16  1  0
 27 23  2  0
M  END
$$$$
