DSY.pdb
     RDKit          3D

 27 27  0  0  1  0  0  0  0  0999 V2000
   20.3846  -12.7064  -17.9391 N   0  0  0  0  0  0  0  0  0  0  0  0
   19.7586  -11.8955  -18.9535 C   0  0  1  0  0  0  0  0  0  0  0  0
   18.5347  -12.5744  -19.5546 C   0  0  0  0  0  0  0  0  0  0  0  0
   18.9505  -13.8275  -20.2342 C   0  0  0  0  0  0  0  0  0  0  0  0
   20.1742  -14.1587  -20.3630 O   0  0  0  0  0  0  0  0  0  0  0  0
   19.4995  -10.5353  -18.4737 C   0  0  0  0  0  0  0  0  0  0  0  0
   18.6950   -9.8068  -19.1489 O   0  0  0  0  0  0  0  0  0  0  0  0
   18.0199  -14.7184  -20.7738 O   0  0  0  0  0  0  0  0  0  0  0  0
   17.9715   -8.9686  -15.4612 O   0  0  0  0  0  0  0  0  0  0  0  0
   18.2904   -8.5265  -16.7567 C   0  0  0  0  0  0  0  0  0  0  0  0
   19.7778   -8.6569  -16.9282 C   0  0  2  0  0  0  0  0  0  0  0  0
   20.0970   -9.9927  -17.3009 N   0  0  0  0  0  0  0  0  0  0  0  0
   20.4466   -8.2100  -15.6829 C   0  0  0  0  0  0  0  0  0  0  0  0
   20.5282   -9.0484  -14.7505 O   0  0  0  0  0  0  0  0  0  0  0  0
   25.0330   -4.3208  -19.4991 O   0  0  0  0  0  0  0  0  0  0  0  0
   24.5979   -4.9715  -18.3528 C   0  0  0  0  0  0  0  0  0  0  0  0
   24.0559   -6.2272  -18.3601 C   0  0  0  0  0  0  0  0  0  0  0  0
   23.6308   -6.8515  -17.2028 C   0  0  0  0  0  0  0  0  0  0  0  0
   23.7500   -6.1954  -15.9770 C   0  0  0  0  0  0  0  0  0  0  0  0
   23.2919   -6.8819  -14.7859 C   0  0  0  0  0  0  0  0  0  0  0  0
   21.8913   -6.6165  -14.3410 C   0  0  2  0  0  0  0  0  0  0  0  0
   20.9926   -6.9226  -15.4685 N   0  0  0  0  0  0  0  0  0  0  0  0
   21.7538   -5.1722  -14.0425 C   0  0  0  0  0  0  0  0  0  0  0  0
   20.9308   -4.3819  -14.8247 O   0  0  0  0  0  0  0  0  0  0  0  0
   24.3001   -4.9339  -16.0087 C   0  0  0  0  0  0  0  0  0  0  0  0
   24.7255   -4.3060  -17.1568 C   0  0  0  0  0  0  0  0  0  0  0  0
   22.3550   -4.6034  -13.0965 O   0  0  0  0  0  0  0  0  0  0  0  0
  2  3  1  0
  2  1  1  1
  4  3  1  0
  4  8  1  0
  5  4  2  0
  6  2  1  0
  7  6  2  0
 10  9  1  0
 11 10  1  1
 11 12  1  0
 12  6  1  0
 13 22  1  0
 13 11  1  0
 14 13  2  0
 16 15  1  0
 17 16  2  0
 18 17  1  0
 19 25  1  0
 19 18  2  0
 20 19  1  0
 21 20  1  6
 21 23  1  0
 21 22  1  0
 23 24  1  0
 25 26  2  0
 26 16  1  0
 27 23  2  0
M  END
$$$$
