DSY.pdb
     RDKit          3D

 27 27  0  0  1  0  0  0  0  0999 V2000
   31.7478  -38.9259   -5.3963 N   0  0  0  0  0  0  0  0  0  0  0  0
   31.6416  -37.6245   -4.7852 C   0  0  1  0  0  0  0  0  0  0  0  0
   32.4682  -36.5775   -5.5204 C   0  0  0  0  0  0  0  0  0  0  0  0
   32.4843  -35.3196   -4.7314 C   0  0  0  0  0  0  0  0  0  0  0  0
   32.2491  -35.2979   -3.4793 O   0  0  0  0  0  0  0  0  0  0  0  0
   30.2432  -37.2345   -4.5850 C   0  0  0  0  0  0  0  0  0  0  0  0
   29.5537  -36.9318   -5.6177 O   0  0  0  0  0  0  0  0  0  0  0  0
   32.7590  -34.0828   -5.3196 O   0  0  0  0  0  0  0  0  0  0  0  0
   28.1923  -37.6140   -1.0011 O   0  0  0  0  0  0  0  0  0  0  0  0
   27.5765  -37.8147   -2.2484 C   0  0  0  0  0  0  0  0  0  0  0  0
   28.2316  -36.8875   -3.2333 C   0  0  2  0  0  0  0  0  0  0  0  0
   29.6229  -37.1775   -3.3048 N   0  0  0  0  0  0  0  0  0  0  0  0
   27.9341  -35.4874   -2.8468 C   0  0  0  0  0  0  0  0  0  0  0  0
   28.6675  -34.9743   -1.9649 O   0  0  0  0  0  0  0  0  0  0  0  0
   25.7434  -32.5272   -9.3277 O   0  0  0  0  0  0  0  0  0  0  0  0
   26.1640  -32.5094   -8.0050 C   0  0  0  0  0  0  0  0  0  0  0  0
   27.3390  -33.0666   -7.5814 C   0  0  0  0  0  0  0  0  0  0  0  0
   27.7329  -33.0342   -6.2572 C   0  0  0  0  0  0  0  0  0  0  0  0
   26.9189  -32.4174   -5.3064 C   0  0  0  0  0  0  0  0  0  0  0  0
   27.3654  -32.4050   -3.9278 C   0  0  0  0  0  0  0  0  0  0  0  0
   26.6528  -33.3035   -2.9712 C   0  0  2  0  0  0  0  0  0  0  0  0
   26.8959  -34.6954   -3.3909 N   0  0  0  0  0  0  0  0  0  0  0  0
   25.1968  -33.0541   -3.0807 C   0  0  0  0  0  0  0  0  0  0  0  0
   24.6390  -31.9469   -2.4670 O   0  0  0  0  0  0  0  0  0  0  0  0
   25.7448  -31.8677   -5.7695 C   0  0  0  0  0  0  0  0  0  0  0  0
   25.3460  -31.8961   -7.0861 C   0  0  0  0  0  0  0  0  0  0  0  0
   24.4142  -33.8065   -3.7142 O   0  0  0  0  0  0  0  0  0  0  0  0
  2  3  1  0
  2  1  1  6
  4  3  1  0
  4  8  1  0
  5  4  2  0
  6  2  1  0
  7  6  2  0
 10  9  1  0
 11 10  1  1
 11 12  1  0
 12  6  1  0
 13 22  1  0
 13 11  1  0
 14 13  2  0
 16 15  1  0
 17 16  2  0
 18 17  1  0
 19 25  1  0
 19 18  2  0
 20 19  1  0
 21 20  1  6
 21 23  1  0
 21 22  1  0
 23 24  1  0
 25 26  2  0
 26 16  1  0
 27 23  2  0
M  END
$$$$
