DSY.pdb
     RDKit          3D

 27 27  0  0  1  0  0  0  0  0999 V2000
   32.9472  -37.7241   -9.4151 N   0  0  0  0  0  0  0  0  0  0  0  0
   32.0282  -38.7951   -9.1206 C   0  0  1  0  0  0  0  0  0  0  0  0
   32.6541  -40.1651   -9.3470 C   0  0  0  0  0  0  0  0  0  0  0  0
   33.5158  -40.1194  -10.5555 C   0  0  0  0  0  0  0  0  0  0  0  0
   33.5573  -41.0736  -11.3989 O   0  0  0  0  0  0  0  0  0  0  0  0
   31.4223  -38.6378   -7.7956 C   0  0  0  0  0  0  0  0  0  0  0  0
   30.9345  -39.6775   -7.2346 O   0  0  0  0  0  0  0  0  0  0  0  0
   34.3339  -39.0229  -10.8377 O   0  0  0  0  0  0  0  0  0  0  0  0
   31.0046  -38.0927   -3.5979 O   0  0  0  0  0  0  0  0  0  0  0  0
   31.5576  -38.2308   -4.8827 C   0  0  0  0  0  0  0  0  0  0  0  0
   30.7653  -37.3576   -5.8148 C   0  0  2  0  0  0  0  0  0  0  0  0
   31.3524  -37.3916   -7.1106 N   0  0  0  0  0  0  0  0  0  0  0  0
   30.6753  -35.9951   -5.2373 C   0  0  0  0  0  0  0  0  0  0  0  0
   31.6395  -35.2203   -5.4586 O   0  0  0  0  0  0  0  0  0  0  0  0
   24.8464  -31.0907   -8.8710 O   0  0  0  0  0  0  0  0  0  0  0  0
   25.6149  -32.0255   -8.1913 C   0  0  0  0  0  0  0  0  0  0  0  0
   25.2032  -32.6479   -7.0451 C   0  0  0  0  0  0  0  0  0  0  0  0
   25.9897  -33.5754   -6.3886 C   0  0  0  0  0  0  0  0  0  0  0  0
   27.2481  -33.9008   -6.8962 C   0  0  0  0  0  0  0  0  0  0  0  0
   28.0439  -34.8767   -6.1791 C   0  0  0  0  0  0  0  0  0  0  0  0
   28.7116  -34.4229   -4.9227 C   0  0  2  0  0  0  0  0  0  0  0  0
   29.5961  -35.5085   -4.4627 N   0  0  0  0  0  0  0  0  0  0  0  0
   27.6772  -34.2212   -3.8819 C   0  0  0  0  0  0  0  0  0  0  0  0
   27.2348  -32.9439   -3.5880 O   0  0  0  0  0  0  0  0  0  0  0  0
   27.6283  -33.2549   -8.0509 C   0  0  0  0  0  0  0  0  0  0  0  0
   26.8509  -32.3305   -8.7099 C   0  0  0  0  0  0  0  0  0  0  0  0
   27.1615  -35.1644   -3.2304 O   0  0  0  0  0  0  0  0  0  0  0  0
  2  3  1  0
  2  1  1  1
  4  3  1  0
  4  8  1  0
  5  4  2  0
  6  2  1  0
  7  6  2  0
 10  9  1  0
 11 10  1  1
 11 12  1  0
 12  6  1  0
 13 22  1  0
 13 11  1  0
 14 13  2  0
 16 15  1  0
 17 16  2  0
 18 17  1  0
 19 25  1  0
 19 18  2  0
 20 19  1  0
 21 20  1  6
 21 23  1  0
 21 22  1  0
 23 24  1  0
 25 26  2  0
 26 16  1  0
 27 23  2  0
M  END
$$$$
