HHQ.pdb
     RDKit          3D

 30 31  0  0  1  0  0  0  0  0999 V2000
   19.0963  -23.2415  -14.2071 N   0  0  0  0  0  0  0  0  0  0  0  0
   19.3374  -23.0061  -12.8026 C   0  0  1  0  0  0  0  0  0  0  0  0
   18.9017  -21.5792  -12.4433 C   0  0  0  0  0  0  0  0  0  0  0  0
   19.8245  -20.6425  -13.1513 C   0  0  0  0  0  0  0  0  0  0  0  0
   21.1907  -20.8241  -13.3047 C   0  0  0  0  0  0  0  0  0  0  0  0
   21.6975  -19.7850  -13.9928 N   0  0  0  0  0  0  0  0  0  0  0  0
   20.6721  -18.9479  -14.2775 C   0  0  0  0  0  0  0  0  0  0  0  0
   19.5383  -19.4769  -13.7625 N   0  0  0  0  0  0  0  0  0  0  0  0
   18.5317  -23.9077  -11.9420 C   0  0  0  0  0  0  0  0  0  0  0  0
   17.3088  -24.0090  -12.1703 O   0  0  0  0  0  0  0  0  0  0  0  0
   19.1494  -24.6316  -10.8881 N   0  0  0  0  0  0  0  0  0  0  0  0
   18.3937  -25.5076  -10.0016 C   0  0  1  0  0  0  0  0  0  0  0  0
   19.2934  -26.5495   -9.3814 C   0  0  0  0  0  0  0  0  0  0  0  0
   18.4666  -27.4673   -8.5685 C   0  0  0  0  0  0  0  0  0  0  0  0
   17.4064  -28.2478   -9.0353 C   0  0  0  0  0  0  0  0  0  0  0  0
   16.8911  -28.9519   -8.0256 N   0  0  0  0  0  0  0  0  0  0  0  0
   17.5880  -28.6461   -6.9297 C   0  0  0  0  0  0  0  0  0  0  0  0
   18.5404  -27.7492   -7.2558 N   0  0  0  0  0  0  0  0  0  0  0  0
   17.6445  -24.7005   -8.9932 C   0  0  0  0  0  0  0  0  0  0  0  0
   18.0690  -23.6100   -8.5394 O   0  0  0  0  0  0  0  0  0  0  0  0
   15.5781  -24.1075   -3.7443 N   0  0  0  0  0  0  0  0  0  0  0  0
   16.1246  -25.3404   -4.1575 C   0  0  0  0  0  0  0  0  0  0  0  0
   16.1472  -26.3498   -3.3831 O   0  0  0  0  0  0  0  0  0  0  0  0
   16.6755  -25.4842   -5.5020 C   0  0  0  0  0  0  0  0  0  0  0  0
   16.5054  -24.2380   -6.3053 C   0  0  0  0  0  0  0  0  0  0  0  0
   15.6247  -24.2993   -7.5048 C   0  0  2  0  0  0  0  0  0  0  0  0
   16.3883  -25.1236   -8.4789 N   0  0  0  0  0  0  0  0  0  0  0  0
   15.1549  -23.0944   -8.1268 C   0  0  0  0  0  0  0  0  0  0  0  0
   13.7764  -22.8627   -8.2464 O   0  0  0  0  0  0  0  0  0  0  0  0
   15.9018  -22.2005   -8.5885 O   0  0  0  0  0  0  0  0  0  0  0  0
  2  3  1  0
  2  1  1  6
  3  4  1  0
  4  8  1  0
  5  6  1  0
  5  4  2  0
  6  7  1  0
  7  8  2  0
  9  2  1  0
 10  9  2  0
 11  9  1  0
 12 11  1  0
 13 14  1  0
 12 13  1  1
 14 18  1  0
 15 14  2  0
 15 16  1  0
 16 17  1  0
 18 17  2  0
 19 12  1  0
 19 27  1  0
 20 19  2  0
 22 21  1  0
 23 22  2  0
 24 22  1  0
 25 24  1  0
 26 27  1  0
 26 25  1  1
 28 29  1  0
 28 26  1  0
 30 28  2  0
M  END
$$$$
