HHQ.pdb
     RDKit          3D

 30 31  0  0  1  0  0  0  0  0999 V2000
   28.0371  -33.7165   -5.5144 N   0  0  0  0  0  0  0  0  0  0  0  0
   26.7558  -33.3312   -4.9703 C   0  0  1  0  0  0  0  0  0  0  0  0
   25.6363  -33.9854   -5.7913 C   0  0  0  0  0  0  0  0  0  0  0  0
   25.6023  -33.3012   -7.1183 C   0  0  0  0  0  0  0  0  0  0  0  0
   26.5599  -33.4301   -8.1131 C   0  0  0  0  0  0  0  0  0  0  0  0
   26.2040  -32.6724   -9.1663 N   0  0  0  0  0  0  0  0  0  0  0  0
   25.0349  -32.0655   -8.8531 C   0  0  0  0  0  0  0  0  0  0  0  0
   24.6770  -32.4533   -7.6072 N   0  0  0  0  0  0  0  0  0  0  0  0
   26.5759  -33.8132   -3.5782 C   0  0  0  0  0  0  0  0  0  0  0  0
   26.0120  -34.9123   -3.3994 O   0  0  0  0  0  0  0  0  0  0  0  0
   27.0386  -33.0335   -2.4854 N   0  0  0  0  0  0  0  0  0  0  0  0
   26.8618  -33.4552   -1.1015 C   0  0  1  0  0  0  0  0  0  0  0  0
   27.5262  -32.4842   -0.1552 C   0  0  0  0  0  0  0  0  0  0  0  0
   27.4047  -33.0062    1.2230 C   0  0  0  0  0  0  0  0  0  0  0  0
   26.8834  -34.2502    1.5862 C   0  0  0  0  0  0  0  0  0  0  0  0
   26.9295  -34.3841    2.9132 N   0  0  0  0  0  0  0  0  0  0  0  0
   27.4632  -33.2660    3.4084 C   0  0  0  0  0  0  0  0  0  0  0  0
   27.7509  -32.4322    2.3886 N   0  0  0  0  0  0  0  0  0  0  0  0
   25.4133  -33.6671   -0.8071 C   0  0  0  0  0  0  0  0  0  0  0  0
   24.5151  -32.8820   -1.1972 O   0  0  0  0  0  0  0  0  0  0  0  0
   22.6337  -31.3358    2.2893 N   0  0  0  0  0  0  0  0  0  0  0  0
   21.5262  -32.1454    1.9617 C   0  0  0  0  0  0  0  0  0  0  0  0
   20.3424  -31.8176    2.2936 O   0  0  0  0  0  0  0  0  0  0  0  0
   21.7204  -33.3879    1.2198 C   0  0  0  0  0  0  0  0  0  0  0  0
   23.1653  -33.6577    0.9619 C   0  0  0  0  0  0  0  0  0  0  0  0
   23.5261  -34.9484    0.3122 C   0  0  2  0  0  0  0  0  0  0  0  0
   24.9574  -34.7857   -0.0571 N   0  0  0  0  0  0  0  0  0  0  0  0
   22.7719  -35.4376   -0.8064 C   0  0  0  0  0  0  0  0  0  0  0  0
   21.6557  -36.2594   -0.5893 O   0  0  0  0  0  0  0  0  0  0  0  0
   23.0381  -35.1818   -2.0038 O   0  0  0  0  0  0  0  0  0  0  0  0
  2  3  1  0
  2  1  1  6
  3  4  1  0
  4  8  1  0
  5  6  1  0
  5  4  2  0
  6  7  1  0
  7  8  2  0
  9  2  1  0
 10  9  2  0
 11  9  1  0
 12 11  1  0
 13 14  1  0
 12 13  1  1
 14 18  1  0
 15 14  2  0
 15 16  1  0
 16 17  1  0
 18 17  2  0
 19 12  1  0
 19 27  1  0
 20 19  2  0
 22 21  1  0
 23 22  2  0
 24 22  1  0
 25 24  1  0
 26 27  1  0
 26 25  1  6
 28 29  1  0
 28 26  1  0
 30 28  2  0
M  END
$$$$
