HHQ.pdb
     RDKit          3D

 30 31  0  0  1  0  0  0  0  0999 V2000
   19.1193  -14.1472  -18.4920 N   0  0  0  0  0  0  0  0  0  0  0  0
   18.3545  -12.9841  -18.1066 C   0  0  1  0  0  0  0  0  0  0  0  0
   18.0597  -13.0441  -16.6018 C   0  0  0  0  0  0  0  0  0  0  0  0
   17.1152  -14.1794  -16.3802 C   0  0  0  0  0  0  0  0  0  0  0  0
   15.7336  -14.0749  -16.3214 C   0  0  0  0  0  0  0  0  0  0  0  0
   15.2093  -15.2956  -16.1097 N   0  0  0  0  0  0  0  0  0  0  0  0
   16.2386  -16.1719  -16.0334 C   0  0  0  0  0  0  0  0  0  0  0  0
   17.3925  -15.4849  -16.1989 N   0  0  0  0  0  0  0  0  0  0  0  0
   19.1100  -11.7254  -18.3246 C   0  0  0  0  0  0  0  0  0  0  0  0
   20.2288  -11.6041  -17.7846 O   0  0  0  0  0  0  0  0  0  0  0  0
   18.5621  -10.6922  -19.1299 N   0  0  0  0  0  0  0  0  0  0  0  0
   19.2686   -9.4407  -19.3728 C   0  0  1  0  0  0  0  0  0  0  0  0
   18.6750   -8.7093  -20.5528 C   0  0  0  0  0  0  0  0  0  0  0  0
   19.4853   -7.5013  -20.8189 C   0  0  0  0  0  0  0  0  0  0  0  0
   20.6750   -7.4557  -21.5495 C   0  0  0  0  0  0  0  0  0  0  0  0
   21.1298   -6.2017  -21.5855 N   0  0  0  0  0  0  0  0  0  0  0  0
   20.2691   -5.4456  -20.9017 C   0  0  0  0  0  0  0  0  0  0  0  0
   19.2748   -6.2291  -20.4377 N   0  0  0  0  0  0  0  0  0  0  0  0
   19.3049   -8.6179  -18.1273 C   0  0  0  0  0  0  0  0  0  0  0  0
   18.3258   -8.5133  -17.3490 O   0  0  0  0  0  0  0  0  0  0  0  0
   22.2299   -9.6381  -13.6652 N   0  0  0  0  0  0  0  0  0  0  0  0
   21.9657   -8.3243  -13.2253 C   0  0  0  0  0  0  0  0  0  0  0  0
   22.1564   -7.9777  -12.0160 O   0  0  0  0  0  0  0  0  0  0  0  0
   21.4680   -7.3230  -14.1644 C   0  0  0  0  0  0  0  0  0  0  0  0
   21.1873   -7.9143  -15.5056 C   0  0  0  0  0  0  0  0  0  0  0  0
   20.4948   -7.0604  -16.5103 C   0  0  2  0  0  0  0  0  0  0  0  0
   20.4659   -7.8933  -17.7420 N   0  0  0  0  0  0  0  0  0  0  0  0
   20.9809   -5.7432  -16.8067 C   0  0  0  0  0  0  0  0  0  0  0  0
   20.6844   -4.6792  -15.9417 O   0  0  0  0  0  0  0  0  0  0  0  0
   21.6731   -5.4552  -17.8107 O   0  0  0  0  0  0  0  0  0  0  0  0
  2  3  1  0
  2  1  1  1
  3  4  1  0
  4  8  1  0
  5  6  1  0
  5  4  2  0
  6  7  1  0
  7  8  2  0
  9  2  1  0
 10  9  2  0
 11  9  1  0
 12 11  1  0
 13 14  1  0
 12 13  1  6
 14 18  1  0
 15 14  2  0
 15 16  1  0
 16 17  1  0
 18 17  2  0
 19 12  1  0
 19 27  1  0
 20 19  2  0
 22 21  1  0
 23 22  2  0
 24 22  1  0
 25 24  1  0
 26 27  1  0
 26 25  1  1
 28 29  1  0
 28 26  1  0
 30 28  2  0
M  END
$$$$
