HHQ.pdb
     RDKit          3D

 30 31  0  0  1  0  0  0  0  0999 V2000
   24.5569  -17.7140  -19.0401 N   0  0  0  0  0  0  0  0  0  0  0  0
   24.1130  -17.4812  -17.6855 C   0  0  1  0  0  0  0  0  0  0  0  0
   22.7453  -16.7857  -17.7102 C   0  0  0  0  0  0  0  0  0  0  0  0
   22.9893  -15.3379  -17.9829 C   0  0  0  0  0  0  0  0  0  0  0  0
   24.2359  -14.7386  -18.0838 C   0  0  0  0  0  0  0  0  0  0  0  0
   24.0738  -13.4269  -18.3348 N   0  0  0  0  0  0  0  0  0  0  0  0
   22.7427  -13.1865  -18.3943 C   0  0  0  0  0  0  0  0  0  0  0  0
   22.0918  -14.3530  -18.1794 N   0  0  0  0  0  0  0  0  0  0  0  0
   23.9124  -18.7495  -16.9411 C   0  0  0  0  0  0  0  0  0  0  0  0
   23.3736  -19.7065  -17.5343 O   0  0  0  0  0  0  0  0  0  0  0  0
   24.3278  -18.8583  -15.5877 N   0  0  0  0  0  0  0  0  0  0  0  0
   24.1278  -20.0747  -14.8101 C   0  0  1  0  0  0  0  0  0  0  0  0
   25.3574  -20.4002  -13.9965 C   0  0  0  0  0  0  0  0  0  0  0  0
   26.5008  -20.5818  -14.9164 C   0  0  0  0  0  0  0  0  0  0  0  0
   27.0029  -21.8037  -15.3701 C   0  0  0  0  0  0  0  0  0  0  0  0
   28.0369  -21.5873  -16.1855 N   0  0  0  0  0  0  0  0  0  0  0  0
   28.2109  -20.2670  -16.2668 C   0  0  0  0  0  0  0  0  0  0  0  0
   27.2836  -19.6577  -15.5006 N   0  0  0  0  0  0  0  0  0  0  0  0
   22.8882  -19.9626  -13.9853 C   0  0  0  0  0  0  0  0  0  0  0  0
   22.7661  -19.1414  -13.0439 O   0  0  0  0  0  0  0  0  0  0  0  0
   19.8200  -17.4131  -15.7912 N   0  0  0  0  0  0  0  0  0  0  0  0
   19.2010  -18.5975  -16.2421 C   0  0  0  0  0  0  0  0  0  0  0  0
   18.7126  -18.6873  -17.4136 O   0  0  0  0  0  0  0  0  0  0  0  0
   19.1145  -19.7599  -15.3627 C   0  0  0  0  0  0  0  0  0  0  0  0
   19.7889  -19.5146  -14.0542 C   0  0  0  0  0  0  0  0  0  0  0  0
   20.5093  -20.6532  -13.4196 C   0  0  2  0  0  0  0  0  0  0  0  0
   21.7558  -20.7900  -14.2190 N   0  0  0  0  0  0  0  0  0  0  0  0
   19.8682  -21.9281  -13.2679 C   0  0  0  0  0  0  0  0  0  0  0  0
   20.3304  -23.0327  -13.9989 O   0  0  0  0  0  0  0  0  0  0  0  0
   18.8948  -22.1432  -12.5088 O   0  0  0  0  0  0  0  0  0  0  0  0
  2  3  1  0
  2  1  1  6
  3  4  1  0
  4  8  1  0
  5  6  1  0
  5  4  2  0
  6  7  1  0
  7  8  2  0
  9  2  1  0
 10  9  2  0
 11  9  1  0
 12 11  1  0
 13 14  1  0
 12 13  1  1
 14 18  1  0
 15 14  2  0
 15 16  1  0
 16 17  1  0
 18 17  2  0
 19 12  1  0
 19 27  1  0
 20 19  2  0
 22 21  1  0
 23 22  2  0
 24 22  1  0
 25 24  1  0
 26 27  1  0
 26 25  1  6
 28 29  1  0
 28 26  1  0
 30 28  2  0
M  END
$$$$
