HHQ.pdb
     RDKit          3D

 30 31  0  0  1  0  0  0  0  0999 V2000
   22.6576  -11.9437  -19.6919 N   0  0  0  0  0  0  0  0  0  0  0  0
   23.4839  -10.7602  -19.6386 C   0  0  1  0  0  0  0  0  0  0  0  0
   22.8374   -9.6494  -20.4772 C   0  0  0  0  0  0  0  0  0  0  0  0
   22.9557  -10.0506  -21.9107 C   0  0  0  0  0  0  0  0  0  0  0  0
   24.0506   -9.8053  -22.7257 C   0  0  0  0  0  0  0  0  0  0  0  0
   23.8078  -10.3064  -23.9504 N   0  0  0  0  0  0  0  0  0  0  0  0
   22.5750  -10.8656  -23.9231 C   0  0  0  0  0  0  0  0  0  0  0  0
   22.0649  -10.7054  -22.6801 N   0  0  0  0  0  0  0  0  0  0  0  0
   23.5927  -10.2203  -18.2604 C   0  0  0  0  0  0  0  0  0  0  0  0
   22.5659  -10.1935  -17.5513 O   0  0  0  0  0  0  0  0  0  0  0  0
   24.8402   -9.7490  -17.7729 N   0  0  0  0  0  0  0  0  0  0  0  0
   24.9986   -9.2304  -16.4200 C   0  0  1  0  0  0  0  0  0  0  0  0
   26.4285   -9.3700  -15.9554 C   0  0  0  0  0  0  0  0  0  0  0  0
   26.7905  -10.8038  -15.9580 C   0  0  0  0  0  0  0  0  0  0  0  0
   25.9260  -11.8679  -16.2250 C   0  0  0  0  0  0  0  0  0  0  0  0
   26.5945  -13.0196  -16.1387 N   0  0  0  0  0  0  0  0  0  0  0  0
   27.8574  -12.7249  -15.8253 C   0  0  0  0  0  0  0  0  0  0  0  0
   27.9778  -11.3865  -15.7156 N   0  0  0  0  0  0  0  0  0  0  0  0
   24.4874   -7.8298  -16.3404 C   0  0  0  0  0  0  0  0  0  0  0  0
   24.9769   -6.8852  -17.0064 O   0  0  0  0  0  0  0  0  0  0  0  0
   19.8294   -6.3865  -18.4590 N   0  0  0  0  0  0  0  0  0  0  0  0
   19.8678   -5.1737  -17.7400 C   0  0  0  0  0  0  0  0  0  0  0  0
   19.0430   -4.2344  -17.9773 O   0  0  0  0  0  0  0  0  0  0  0  0
   20.8643   -4.9744  -16.6915 C   0  0  0  0  0  0  0  0  0  0  0  0
   21.7336   -6.1752  -16.5196 C   0  0  0  0  0  0  0  0  0  0  0  0
   22.8181   -6.1079  -15.5009 C   0  0  2  0  0  0  0  0  0  0  0  0
   23.4007   -7.4761  -15.4944 N   0  0  0  0  0  0  0  0  0  0  0  0
   22.5349   -5.6769  -14.1618 C   0  0  0  0  0  0  0  0  0  0  0  0
   22.3790   -4.3099  -13.8872 O   0  0  0  0  0  0  0  0  0  0  0  0
   22.4111   -6.4489  -13.1827 O   0  0  0  0  0  0  0  0  0  0  0  0
  2  3  1  0
  2  1  1  1
  3  4  1  0
  4  8  1  0
  5  6  1  0
  5  4  2  0
  6  7  1  0
  7  8  2  0
  9  2  1  0
 10  9  2  0
 11  9  1  0
 12 11  1  0
 13 14  1  0
 12 13  1  6
 14 18  1  0
 15 14  2  0
 15 16  1  0
 16 17  1  0
 18 17  2  0
 19 12  1  0
 19 27  1  0
 20 19  2  0
 22 21  1  0
 23 22  2  0
 24 22  1  0
 25 24  1  0
 26 27  1  0
 26 25  1  6
 28 29  1  0
 28 26  1  0
 30 28  2  0
M  END
$$$$
