HHQ.pdb
     RDKit          3D

 30 31  0  0  1  0  0  0  0  0999 V2000
   18.9964  -13.2783  -16.3628 N   0  0  0  0  0  0  0  0  0  0  0  0
   18.9575  -11.8532  -16.5946 C   0  0  1  0  0  0  0  0  0  0  0  0
   17.7442  -11.2526  -15.8718 C   0  0  0  0  0  0  0  0  0  0  0  0
   16.5237  -11.7051  -16.6037 C   0  0  0  0  0  0  0  0  0  0  0  0
   16.4064  -11.8108  -17.9814 C   0  0  0  0  0  0  0  0  0  0  0  0
   15.1709  -12.2481  -18.2850 N   0  0  0  0  0  0  0  0  0  0  0  0
   14.5038  -12.4210  -17.1195 C   0  0  0  0  0  0  0  0  0  0  0  0
   15.3334  -12.0888  -16.1036 N   0  0  0  0  0  0  0  0  0  0  0  0
   20.1477  -11.1665  -16.0336 C   0  0  0  0  0  0  0  0  0  0  0  0
   20.5025  -11.4495  -14.8709 O   0  0  0  0  0  0  0  0  0  0  0  0
   20.8564  -10.2130  -16.8113 N   0  0  0  0  0  0  0  0  0  0  0  0
   22.0030   -9.4820  -16.2866 C   0  0  1  0  0  0  0  0  0  0  0  0
   23.2337   -9.7420  -17.1219 C   0  0  0  0  0  0  0  0  0  0  0  0
   23.7063  -11.1175  -16.8552 C   0  0  0  0  0  0  0  0  0  0  0  0
   23.5088  -12.2274  -17.6799 C   0  0  0  0  0  0  0  0  0  0  0  0
   24.0713  -13.3027  -17.1247 N   0  0  0  0  0  0  0  0  0  0  0  0
   24.6212  -12.9150  -15.9727 C   0  0  0  0  0  0  0  0  0  0  0  0
   24.4018  -11.5949  -15.8080 N   0  0  0  0  0  0  0  0  0  0  0  0
   21.6750   -8.0311  -16.1564 C   0  0  0  0  0  0  0  0  0  0  0  0
   21.1146   -7.3732  -17.0666 O   0  0  0  0  0  0  0  0  0  0  0  0
   20.0013   -3.9349  -16.8792 N   0  0  0  0  0  0  0  0  0  0  0  0
   19.3561   -3.6524  -15.6573 C   0  0  0  0  0  0  0  0  0  0  0  0
   18.7386   -2.5557  -15.4701 O   0  0  0  0  0  0  0  0  0  0  0  0
   19.3799   -4.6297  -14.5727 C   0  0  0  0  0  0  0  0  0  0  0  0
   20.1153   -5.8688  -14.9612 C   0  0  0  0  0  0  0  0  0  0  0  0
   21.5985   -5.8680  -14.8255 C   0  0  2  0  0  0  0  0  0  0  0  0
   21.9816   -7.2968  -14.9781 N   0  0  0  0  0  0  0  0  0  0  0  0
   22.2242   -5.3021  -13.6647 C   0  0  0  0  0  0  0  0  0  0  0  0
   22.3633   -6.0735  -12.5012 O   0  0  0  0  0  0  0  0  0  0  0  0
   22.6725   -4.1336  -13.6030 O   0  0  0  0  0  0  0  0  0  0  0  0
  2  3  1  0
  2  1  1  1
  3  4  1  0
  4  8  1  0
  5  6  1  0
  5  4  2  0
  6  7  1  0
  7  8  2  0
  9  2  1  0
 10  9  2  0
 11  9  1  0
 12 11  1  0
 13 14  1  0
 12 13  1  6
 14 18  1  0
 15 14  2  0
 15 16  1  0
 16 17  1  0
 18 17  2  0
 19 12  1  0
 19 27  1  0
 20 19  2  0
 22 21  1  0
 23 22  2  0
 24 22  1  0
 25 24  1  0
 26 27  1  0
 26 25  1  1
 28 29  1  0
 28 26  1  0
 30 28  2  0
M  END
$$$$
