HHQ.pdb
     RDKit          3D

 30 31  0  0  1  0  0  0  0  0999 V2000
   18.0556  -12.0972  -15.2546 N   0  0  0  0  0  0  0  0  0  0  0  0
   17.2808  -10.8825  -15.1531 C   0  0  1  0  0  0  0  0  0  0  0  0
   15.8935  -11.2094  -14.5841 C   0  0  0  0  0  0  0  0  0  0  0  0
   15.1189  -11.8864  -15.6666 C   0  0  0  0  0  0  0  0  0  0  0  0
   15.3286  -11.7218  -17.0276 C   0  0  0  0  0  0  0  0  0  0  0  0
   14.4495  -12.4840  -17.7029 N   0  0  0  0  0  0  0  0  0  0  0  0
   13.6859  -13.1290  -16.7896 C   0  0  0  0  0  0  0  0  0  0  0  0
   14.0997  -12.7598  -15.5554 N   0  0  0  0  0  0  0  0  0  0  0  0
   17.8903   -9.9121  -14.2098 C   0  0  0  0  0  0  0  0  0  0  0  0
   18.5343  -10.3554  -13.2368 O   0  0  0  0  0  0  0  0  0  0  0  0
   17.7371   -8.5163  -14.4208 N   0  0  0  0  0  0  0  0  0  0  0  0
   18.3174   -7.5274  -13.5210 C   0  0  1  0  0  0  0  0  0  0  0  0
   19.4434   -6.7820  -14.1966 C   0  0  0  0  0  0  0  0  0  0  0  0
   20.5929   -7.6990  -14.3530 C   0  0  0  0  0  0  0  0  0  0  0  0
   20.6414   -9.0321  -13.9388 C   0  0  0  0  0  0  0  0  0  0  0  0
   21.8330   -9.5512  -14.2412 N   0  0  0  0  0  0  0  0  0  0  0  0
   22.5464   -8.5927  -14.8348 C   0  0  0  0  0  0  0  0  0  0  0  0
   21.7987   -7.4727  -14.9033 N   0  0  0  0  0  0  0  0  0  0  0  0
   17.2525   -6.6275  -12.9864 C   0  0  0  0  0  0  0  0  0  0  0  0
   16.4090   -6.0566  -13.7198 O   0  0  0  0  0  0  0  0  0  0  0  0
   15.2066   -7.2920   -7.3339 N   0  0  0  0  0  0  0  0  0  0  0  0
   14.5002   -6.1039   -7.6142 C   0  0  0  0  0  0  0  0  0  0  0  0
   13.6950   -5.5950   -6.7706 O   0  0  0  0  0  0  0  0  0  0  0  0
   14.6880   -5.4236   -8.8924 C   0  0  0  0  0  0  0  0  0  0  0  0
   15.7162   -6.1029   -9.7343 C   0  0  0  0  0  0  0  0  0  0  0  0
   16.0355   -5.5035  -11.0598 C   0  0  2  0  0  0  0  0  0  0  0  0
   17.1275   -6.3590  -11.5957 N   0  0  0  0  0  0  0  0  0  0  0  0
   16.3865   -4.1163  -11.1672 C   0  0  0  0  0  0  0  0  0  0  0  0
   15.3779   -3.1490  -11.2908 O   0  0  0  0  0  0  0  0  0  0  0  0
   17.5621   -3.6826  -11.1594 O   0  0  0  0  0  0  0  0  0  0  0  0
  2  3  1  0
  2  1  1  1
  3  4  1  0
  4  8  1  0
  5  6  1  0
  5  4  2  0
  6  7  1  0
  7  8  2  0
  9  2  1  0
 10  9  2  0
 11  9  1  0
 12 11  1  0
 13 14  1  0
 12 13  1  6
 14 18  1  0
 15 14  2  0
 15 16  1  0
 16 17  1  0
 18 17  2  0
 19 12  1  0
 19 27  1  0
 20 19  2  0
 22 21  1  0
 23 22  2  0
 24 22  1  0
 25 24  1  0
 26 27  1  0
 26 25  1  1
 28 29  1  0
 28 26  1  0
 30 28  2  0
M  END
$$$$
