HHQ.pdb
     RDKit          3D

 30 31  0  0  1  0  0  0  0  0999 V2000
   24.2060  -13.1067  -17.7954 N   0  0  0  0  0  0  0  0  0  0  0  0
   24.1688  -12.3017  -16.5967 C   0  0  1  0  0  0  0  0  0  0  0  0
   25.4541  -11.4685  -16.5027 C   0  0  0  0  0  0  0  0  0  0  0  0
   26.5798  -12.4172  -16.2520 C   0  0  0  0  0  0  0  0  0  0  0  0
   26.4612  -13.7952  -16.1498 C   0  0  0  0  0  0  0  0  0  0  0  0
   27.6767  -14.3251  -15.9222 N   0  0  0  0  0  0  0  0  0  0  0  0
   28.5635  -13.3029  -15.8787 C   0  0  0  0  0  0  0  0  0  0  0  0
   27.8883  -12.1478  -16.0800 N   0  0  0  0  0  0  0  0  0  0  0  0
   23.0506  -11.3260  -16.6173 C   0  0  0  0  0  0  0  0  0  0  0  0
   22.8007  -10.7330  -17.6868 O   0  0  0  0  0  0  0  0  0  0  0  0
   22.2917  -11.0824  -15.4422 N   0  0  0  0  0  0  0  0  0  0  0  0
   21.1544  -10.1709  -15.4282 C   0  0  1  0  0  0  0  0  0  0  0  0
   20.1659  -10.5621  -14.3560 C   0  0  0  0  0  0  0  0  0  0  0  0
   19.2893  -11.6290  -14.8852 C   0  0  0  0  0  0  0  0  0  0  0  0
   19.3399  -12.1696  -16.1721 C   0  0  0  0  0  0  0  0  0  0  0  0
   18.4020  -13.1104  -16.2992 N   0  0  0  0  0  0  0  0  0  0  0  0
   17.7546  -13.1875  -15.1351 C   0  0  0  0  0  0  0  0  0  0  0  0
   18.2893  -12.2932  -14.2795 N   0  0  0  0  0  0  0  0  0  0  0  0
   21.6254   -8.7590  -15.3085 C   0  0  0  0  0  0  0  0  0  0  0  0
   22.4694   -8.3905  -14.4558 O   0  0  0  0  0  0  0  0  0  0  0  0
   21.6108   -5.1307  -20.1267 N   0  0  0  0  0  0  0  0  0  0  0  0
   22.0524   -4.1617  -19.2020 C   0  0  0  0  0  0  0  0  0  0  0  0
   22.3646   -2.9847  -19.5712 O   0  0  0  0  0  0  0  0  0  0  0  0
   22.1542   -4.4944  -17.7839 C   0  0  0  0  0  0  0  0  0  0  0  0
   21.7079   -5.8921  -17.5107 C   0  0  0  0  0  0  0  0  0  0  0  0
   21.6623   -6.3421  -16.0916 C   0  0  2  0  0  0  0  0  0  0  0  0
   21.1400   -7.7326  -16.1644 N   0  0  0  0  0  0  0  0  0  0  0  0
   20.9395   -5.5855  -15.1096 C   0  0  0  0  0  0  0  0  0  0  0  0
   21.5704   -4.5242  -14.4435 O   0  0  0  0  0  0  0  0  0  0  0  0
   19.7484   -5.8030  -14.7868 O   0  0  0  0  0  0  0  0  0  0  0  0
  2  3  1  0
  2  1  1  6
  3  4  1  0
  4  8  1  0
  5  6  1  0
  5  4  2  0
  6  7  1  0
  7  8  2  0
  9  2  1  0
 10  9  2  0
 11  9  1  0
 12 11  1  0
 13 14  1  0
 12 13  1  1
 14 18  1  0
 15 14  2  0
 15 16  1  0
 16 17  1  0
 18 17  2  0
 19 12  1  0
 19 27  1  0
 20 19  2  0
 22 21  1  0
 23 22  2  0
 24 22  1  0
 25 24  1  0
 26 27  1  0
 26 25  1  6
 28 29  1  0
 28 26  1  0
 30 28  2  0
M  END
$$$$
