HHQ.pdb
     RDKit          3D

 30 31  0  0  1  0  0  0  0  0999 V2000
   24.5545  -10.4359  -18.3516 N   0  0  0  0  0  0  0  0  0  0  0  0
   24.6889   -9.9001  -17.0170 C   0  0  1  0  0  0  0  0  0  0  0  0
   25.9062   -8.9673  -16.9628 C   0  0  0  0  0  0  0  0  0  0  0  0
   27.1179   -9.8054  -17.2072 C   0  0  0  0  0  0  0  0  0  0  0  0
   27.1220  -11.1822  -17.3728 C   0  0  0  0  0  0  0  0  0  0  0  0
   28.3861  -11.5969  -17.5726 N   0  0  0  0  0  0  0  0  0  0  0  0
   29.1829  -10.5028  -17.5359 C   0  0  0  0  0  0  0  0  0  0  0  0
   28.4038   -9.4191  -17.3135 N   0  0  0  0  0  0  0  0  0  0  0  0
   23.5208   -9.0694  -16.6318 C   0  0  0  0  0  0  0  0  0  0  0  0
   23.0279   -8.3061  -17.4876 O   0  0  0  0  0  0  0  0  0  0  0  0
   22.9868   -9.1507  -15.3186 N   0  0  0  0  0  0  0  0  0  0  0  0
   21.8540   -8.3397  -14.8902 C   0  0  1  0  0  0  0  0  0  0  0  0
   21.1234   -8.9999  -13.7456 C   0  0  0  0  0  0  0  0  0  0  0  0
   20.2693  -10.0789  -14.2872 C   0  0  0  0  0  0  0  0  0  0  0  0
   20.0783  -10.3737  -15.6390 C   0  0  0  0  0  0  0  0  0  0  0  0
   19.2446  -11.4090  -15.7574 N   0  0  0  0  0  0  0  0  0  0  0  0
   18.8976  -11.7843  -14.5250 C   0  0  0  0  0  0  0  0  0  0  0  0
   19.5158  -10.9817  -13.6353 N   0  0  0  0  0  0  0  0  0  0  0  0
   22.3021   -6.9496  -14.5796 C   0  0  0  0  0  0  0  0  0  0  0  0
   23.4704   -6.6746  -14.2125 O   0  0  0  0  0  0  0  0  0  0  0  0
   24.5729   -4.2674  -17.8958 N   0  0  0  0  0  0  0  0  0  0  0  0
   24.3314   -3.0445  -17.2359 C   0  0  0  0  0  0  0  0  0  0  0  0
   24.8373   -1.9538  -17.6522 O   0  0  0  0  0  0  0  0  0  0  0  0
   23.4794   -3.0069  -16.0507 C   0  0  0  0  0  0  0  0  0  0  0  0
   22.8725   -4.3398  -15.7638 C   0  0  0  0  0  0  0  0  0  0  0  0
   21.9188   -4.4382  -14.6240 C   0  0  2  0  0  0  0  0  0  0  0  0
   21.4211   -5.8384  -14.6820 N   0  0  0  0  0  0  0  0  0  0  0  0
   20.8218   -3.5202  -14.5098 C   0  0  0  0  0  0  0  0  0  0  0  0
   21.0326   -2.2459  -13.9620 O   0  0  0  0  0  0  0  0  0  0  0  0
   19.6491   -3.7725  -14.8722 O   0  0  0  0  0  0  0  0  0  0  0  0
  2  3  1  0
  2  1  1  6
  3  4  1  0
  4  8  1  0
  5  6  1  0
  5  4  2  0
  6  7  1  0
  7  8  2  0
  9  2  1  0
 10  9  2  0
 11  9  1  0
 12 11  1  0
 13 14  1  0
 12 13  1  1
 14 18  1  0
 15 14  2  0
 15 16  1  0
 16 17  1  0
 18 17  2  0
 19 12  1  0
 19 27  1  0
 20 19  2  0
 22 21  1  0
 23 22  2  0
 24 22  1  0
 25 24  1  0
 26 27  1  0
 26 25  1  6
 28 29  1  0
 28 26  1  0
 30 28  2  0
M  END
$$$$
