KHA.pdb
     RDKit          3D

 25 25  0  0  1  0  0  0  0  0999 V2000
    9.1943  -13.3316   17.4765 N   0  0  0  0  0  0  0  0  0  0  0  0
    8.2838  -14.4023   17.8014 C   0  0  1  0  0  0  0  0  0  0  0  0
    7.4624  -14.8889   16.6650 C   0  0  0  0  0  0  0  0  0  0  0  0
    7.6808  -14.2135   15.3474 C   0  0  0  0  0  0  0  0  0  0  0  0
    6.8256  -14.6917   14.2224 C   0  0  0  0  0  0  0  0  0  0  0  0
    7.1647  -13.8064   13.0062 C   0  0  0  0  0  0  0  0  0  0  0  0
    6.3580  -14.2645   11.8948 N   0  0  0  0  0  0  0  0  0  0  0  0
    9.0491  -15.4799   18.4710 C   0  0  0  0  0  0  0  0  0  0  0  0
    8.5465  -16.5945   18.7693 O   0  0  0  0  0  0  0  0  0  0  0  0
   10.4085  -15.2843   18.8060 N   0  0  0  0  0  0  0  0  0  0  0  0
   11.2177  -16.3571   19.4281 C   0  0  1  0  0  0  0  0  0  0  0  0
   12.5416  -16.4308   18.7659 C   0  0  0  0  0  0  0  0  0  0  0  0
   12.5791  -17.2162   17.5323 C   0  0  0  0  0  0  0  0  0  0  0  0
   11.6630  -18.2126   17.1684 C   0  0  0  0  0  0  0  0  0  0  0  0
   11.9914  -18.7241   15.9881 N   0  0  0  0  0  0  0  0  0  0  0  0
   13.0997  -18.0979   15.5545 C   0  0  0  0  0  0  0  0  0  0  0  0
   13.4378  -17.2024   16.4851 N   0  0  0  0  0  0  0  0  0  0  0  0
   11.1821  -16.2310   20.8869 C   0  0  0  0  0  0  0  0  0  0  0  0
   11.9462  -15.3423   21.4114 O   0  0  0  0  0  0  0  0  0  0  0  0
    9.0714  -16.8319   23.8523 C   0  0  0  0  0  0  0  0  0  0  0  0
   10.4460  -16.7508   23.2340 C   0  0  2  0  0  0  0  0  0  0  0  0
   10.3947  -16.9729   21.7952 N   0  0  0  0  0  0  0  0  0  0  0  0
   11.3889  -17.6080   23.9538 C   0  0  0  0  0  0  0  0  0  0  0  0
   11.7470  -17.3398   25.2507 O   0  0  0  0  0  0  0  0  0  0  0  0
   11.8736  -18.6014   23.3703 O   0  0  0  0  0  0  0  0  0  0  0  0
  2  1  1  6
  3  2  1  0
  4  3  1  0
  5  4  1  0
  6  5  1  0
  6  7  1  0
  8  2  1  0
  9  8  2  0
 10  8  1  0
 11 10  1  0
 11 12  1  6
 12 13  1  0
 13 17  1  0
 14 13  2  0
 14 15  1  0
 15 16  1  0
 17 16  2  0
 18 19  2  0
 18 11  1  0
 21 20  1  1
 21 22  1  0
 22 18  1  0
 23 21  1  0
 24 23  1  0
 25 23  2  0
M  END
$$$$
