KHA.pdb
     RDKit          3D

 25 25  0  0  1  0  0  0  0  0999 V2000
   11.6401  -17.0190   16.9024 N   0  0  0  0  0  0  0  0  0  0  0  0
   10.9847  -17.8241   17.9039 C   0  0  1  0  0  0  0  0  0  0  0  0
   11.6103  -19.1480   18.1473 C   0  0  0  0  0  0  0  0  0  0  0  0
   13.0797  -19.1486   18.4312 C   0  0  0  0  0  0  0  0  0  0  0  0
   13.7312  -20.4899   18.4814 C   0  0  0  0  0  0  0  0  0  0  0  0
   15.2323  -20.2397   18.7305 C   0  0  0  0  0  0  0  0  0  0  0  0
   15.8890  -21.5293   18.7684 N   0  0  0  0  0  0  0  0  0  0  0  0
   10.8399  -17.0127   19.1351 C   0  0  0  0  0  0  0  0  0  0  0  0
   11.7269  -16.2172   19.5405 O   0  0  0  0  0  0  0  0  0  0  0  0
    9.6659  -17.1093   19.9167 N   0  0  0  0  0  0  0  0  0  0  0  0
    9.4504  -16.2519   21.1046 C   0  0  1  0  0  0  0  0  0  0  0  0
    8.0891  -15.6677   21.0576 C   0  0  0  0  0  0  0  0  0  0  0  0
    7.8337  -14.7709   19.9305 C   0  0  0  0  0  0  0  0  0  0  0  0
    8.1490  -13.4061   19.8830 C   0  0  0  0  0  0  0  0  0  0  0  0
    7.7808  -12.8940   18.7147 N   0  0  0  0  0  0  0  0  0  0  0  0
    7.2292  -13.8775   17.9820 C   0  0  0  0  0  0  0  0  0  0  0  0
    7.2678  -14.9896   18.7196 N   0  0  0  0  0  0  0  0  0  0  0  0
    9.8534  -16.9654   22.3186 C   0  0  0  0  0  0  0  0  0  0  0  0
    9.5296  -18.2054   22.3974 O   0  0  0  0  0  0  0  0  0  0  0  0
   11.9767  -16.5579   25.4241 C   0  0  0  0  0  0  0  0  0  0  0  0
   11.0034  -17.2881   24.5309 C   0  0  2  0  0  0  0  0  0  0  0  0
   10.5691  -16.4495   23.4217 N   0  0  0  0  0  0  0  0  0  0  0  0
    9.9179  -17.8746   25.3181 C   0  0  0  0  0  0  0  0  0  0  0  0
   10.1593  -18.8662   26.2349 O   0  0  0  0  0  0  0  0  0  0  0  0
    8.7513  -17.4599   25.1471 O   0  0  0  0  0  0  0  0  0  0  0  0
  2  1  1  6
  3  2  1  0
  4  3  1  0
  5  4  1  0
  6  5  1  0
  6  7  1  0
  8  2  1  0
  9  8  2  0
 10  8  1  0
 11 10  1  0
 11 12  1  1
 12 13  1  0
 13 17  1  0
 14 13  2  0
 14 15  1  0
 15 16  1  0
 17 16  2  0
 18 19  2  0
 18 11  1  0
 21 20  1  1
 21 22  1  0
 22 18  1  0
 23 21  1  0
 24 23  1  0
 25 23  2  0
M  END
$$$$
