KHA.pdb
     RDKit          3D

 25 25  0  0  1  0  0  0  0  0999 V2000
   10.1309  -18.4715   21.7085 N   0  0  0  0  0  0  0  0  0  0  0  0
   10.8554  -17.2725   21.3645 C   0  0  1  0  0  0  0  0  0  0  0  0
   10.7847  -16.8904   19.9320 C   0  0  0  0  0  0  0  0  0  0  0  0
   10.8649  -18.0076   18.9395 C   0  0  0  0  0  0  0  0  0  0  0  0
   10.7040  -17.6182   17.5083 C   0  0  0  0  0  0  0  0  0  0  0  0
   10.8317  -18.9149   16.6835 C   0  0  0  0  0  0  0  0  0  0  0  0
   10.7581  -18.5508   15.2843 N   0  0  0  0  0  0  0  0  0  0  0  0
   10.4264  -16.1884   22.2789 C   0  0  0  0  0  0  0  0  0  0  0  0
   10.9407  -15.0398   22.2696 O   0  0  0  0  0  0  0  0  0  0  0  0
    9.3953  -16.4169   23.2186 N   0  0  0  0  0  0  0  0  0  0  0  0
    8.9458  -15.3586   24.1517 C   0  0  1  0  0  0  0  0  0  0  0  0
    7.4646  -15.3188   24.1844 C   0  0  0  0  0  0  0  0  0  0  0  0
    6.8872  -14.2796   25.0369 C   0  0  0  0  0  0  0  0  0  0  0  0
    7.2612  -12.9289   25.0479 C   0  0  0  0  0  0  0  0  0  0  0  0
    6.5377  -12.2633   25.9401 N   0  0  0  0  0  0  0  0  0  0  0  0
    5.6923  -13.1308   26.5243 C   0  0  0  0  0  0  0  0  0  0  0  0
    5.9124  -14.3279   25.9758 N   0  0  0  0  0  0  0  0  0  0  0  0
    9.6611  -15.4747   25.4246 C   0  0  0  0  0  0  0  0  0  0  0  0
   10.2425  -16.5943   25.6636 O   0  0  0  0  0  0  0  0  0  0  0  0
   10.4727  -13.5320   28.5792 C   0  0  0  0  0  0  0  0  0  0  0  0
   10.4094  -14.7708   27.7193 C   0  0  2  0  0  0  0  0  0  0  0  0
    9.7953  -14.4900   26.4285 N   0  0  0  0  0  0  0  0  0  0  0  0
    9.8069  -15.8826   28.4563 C   0  0  0  0  0  0  0  0  0  0  0  0
   10.4875  -16.5214   29.4616 O   0  0  0  0  0  0  0  0  0  0  0  0
    8.6505  -16.2521   28.1592 O   0  0  0  0  0  0  0  0  0  0  0  0
  2  1  1  6
  3  2  1  0
  4  3  1  0
  5  4  1  0
  6  5  1  0
  6  7  1  0
  8  2  1  0
  9  8  2  0
 10  8  1  0
 11 10  1  0
 11 12  1  1
 12 13  1  0
 13 17  1  0
 14 13  2  0
 14 15  1  0
 15 16  1  0
 17 16  2  0
 18 19  2  0
 18 11  1  0
 21 20  1  1
 21 22  1  0
 22 18  1  0
 23 21  1  0
 24 23  1  0
 25 23  2  0
M  END
$$$$
