KHA.pdb
     RDKit          3D

 25 25  0  0  1  0  0  0  0  0999 V2000
   12.8704  -17.2500   14.5132 N   0  0  0  0  0  0  0  0  0  0  0  0
   13.8717  -17.6579   15.4682 C   0  0  1  0  0  0  0  0  0  0  0  0
   14.9484  -16.6641   15.7058 C   0  0  0  0  0  0  0  0  0  0  0  0
   15.8423  -16.3597   14.5448 C   0  0  0  0  0  0  0  0  0  0  0  0
   16.9489  -15.3954   14.8121 C   0  0  0  0  0  0  0  0  0  0  0  0
   17.7021  -15.2111   13.4792 C   0  0  0  0  0  0  0  0  0  0  0  0
   18.6294  -14.1126   13.6505 N   0  0  0  0  0  0  0  0  0  0  0  0
   13.1866  -18.0834   16.7111 C   0  0  0  0  0  0  0  0  0  0  0  0
   12.1344  -17.5387   17.1353 O   0  0  0  0  0  0  0  0  0  0  0  0
   13.7089  -19.1466   17.4828 N   0  0  0  0  0  0  0  0  0  0  0  0
   12.9788  -19.6912   18.6502 C   0  0  1  0  0  0  0  0  0  0  0  0
   13.3342  -21.1176   18.8396 C   0  0  0  0  0  0  0  0  0  0  0  0
   12.6960  -21.7732   19.9811 C   0  0  0  0  0  0  0  0  0  0  0  0
   11.3178  -21.8230   20.2306 C   0  0  0  0  0  0  0  0  0  0  0  0
   11.0818  -22.4951   21.3510 N   0  0  0  0  0  0  0  0  0  0  0  0
   12.2625  -22.8946   21.8557 C   0  0  0  0  0  0  0  0  0  0  0  0
   13.2148  -22.4571   21.0286 N   0  0  0  0  0  0  0  0  0  0  0  0
   13.1169  -18.7879   19.7949 C   0  0  0  0  0  0  0  0  0  0  0  0
   14.2290  -18.1553   19.9040 O   0  0  0  0  0  0  0  0  0  0  0  0
   11.1049  -16.9643   22.3696 C   0  0  0  0  0  0  0  0  0  0  0  0
   12.3985  -17.5570   21.8660 C   0  0  2  0  0  0  0  0  0  0  0  0
   12.1610  -18.5212   20.8001 N   0  0  0  0  0  0  0  0  0  0  0  0
   13.2058  -18.0593   22.9787 C   0  0  0  0  0  0  0  0  0  0  0  0
   13.7002  -17.2123   23.9380 O   0  0  0  0  0  0  0  0  0  0  0  0
   13.4457  -19.2838   23.0505 O   0  0  0  0  0  0  0  0  0  0  0  0
  2  1  1  6
  3  2  1  0
  4  3  1  0
  5  4  1  0
  6  5  1  0
  6  7  1  0
  8  2  1  0
  9  8  2  0
 10  8  1  0
 11 10  1  0
 11 12  1  1
 12 13  1  0
 13 17  1  0
 14 13  2  0
 14 15  1  0
 15 16  1  0
 17 16  2  0
 18 19  2  0
 18 11  1  0
 21 20  1  1
 21 22  1  0
 22 18  1  0
 23 21  1  0
 24 23  1  0
 25 23  2  0
M  END
$$$$
