KHA.pdb
     RDKit          3D

 25 25  0  0  1  0  0  0  0  0999 V2000
   10.0281  -17.3176   16.1141 N   0  0  0  0  0  0  0  0  0  0  0  0
    9.8019  -17.9469   17.3922 C   0  0  1  0  0  0  0  0  0  0  0  0
   10.5201  -19.2305   17.5912 C   0  0  0  0  0  0  0  0  0  0  0  0
   10.3541  -20.2604   16.5181 C   0  0  0  0  0  0  0  0  0  0  0  0
   11.0222  -21.5711   16.7663 C   0  0  0  0  0  0  0  0  0  0  0  0
   11.5845  -22.0411   15.4095 C   0  0  0  0  0  0  0  0  0  0  0  0
   12.2212  -23.3238   15.6221 N   0  0  0  0  0  0  0  0  0  0  0  0
   10.0764  -16.9542   18.4574 C   0  0  0  0  0  0  0  0  0  0  0  0
   10.9508  -16.0557   18.3487 O   0  0  0  0  0  0  0  0  0  0  0  0
    9.3428  -16.9861   19.6655 N   0  0  0  0  0  0  0  0  0  0  0  0
    9.6144  -16.0320   20.7649 C   0  0  1  0  0  0  0  0  0  0  0  0
    8.4022  -15.2227   21.0337 C   0  0  0  0  0  0  0  0  0  0  0  0
    7.9614  -14.3731   19.9274 C   0  0  0  0  0  0  0  0  0  0  0  0
    8.3153  -13.0307   19.7352 C   0  0  0  0  0  0  0  0  0  0  0  0
    7.7404  -12.5612   18.6345 N   0  0  0  0  0  0  0  0  0  0  0  0
    7.0135  -13.5513   18.0872 C   0  0  0  0  0  0  0  0  0  0  0  0
    7.1550  -14.6245   18.8687 N   0  0  0  0  0  0  0  0  0  0  0  0
   10.2426  -16.7282   21.8900 C   0  0  0  0  0  0  0  0  0  0  0  0
    9.6459  -17.7766   22.3300 O   0  0  0  0  0  0  0  0  0  0  0  0
   13.4340  -16.8438   23.9030 C   0  0  0  0  0  0  0  0  0  0  0  0
   11.9857  -17.1810   23.6443 C   0  0  2  0  0  0  0  0  0  0  0  0
   11.4424  -16.3850   22.5519 N   0  0  0  0  0  0  0  0  0  0  0  0
   11.2120  -17.1282   24.8855 C   0  0  0  0  0  0  0  0  0  0  0  0
   11.5369  -17.9163   25.9604 O   0  0  0  0  0  0  0  0  0  0  0  0
   10.2381  -16.3485   24.9612 O   0  0  0  0  0  0  0  0  0  0  0  0
  2  1  1  6
  3  2  1  0
  4  3  1  0
  5  4  1  0
  6  5  1  0
  6  7  1  0
  8  2  1  0
  9  8  2  0
 10  8  1  0
 11 10  1  0
 11 12  1  1
 12 13  1  0
 13 17  1  0
 14 13  2  0
 14 15  1  0
 15 16  1  0
 17 16  2  0
 18 19  2  0
 18 11  1  0
 21 20  1  1
 21 22  1  0
 22 18  1  0
 23 21  1  0
 24 23  1  0
 25 23  2  0
M  END
$$$$
