KHA.pdb
     RDKit          3D

 25 25  0  0  1  0  0  0  0  0999 V2000
   10.2550  -16.7529   16.4681 N   0  0  0  0  0  0  0  0  0  0  0  0
   10.7379  -17.4927   17.6084 C   0  0  1  0  0  0  0  0  0  0  0  0
   12.0804  -18.1012   17.4340 C   0  0  0  0  0  0  0  0  0  0  0  0
   12.1697  -19.2598   16.4909 C   0  0  0  0  0  0  0  0  0  0  0  0
   13.1597  -20.3162   16.8511 C   0  0  0  0  0  0  0  0  0  0  0  0
   13.0818  -21.3867   15.7439 C   0  0  0  0  0  0  0  0  0  0  0  0
   14.0066  -22.4441   16.0938 N   0  0  0  0  0  0  0  0  0  0  0  0
   10.6428  -16.6233   18.8043 C   0  0  0  0  0  0  0  0  0  0  0  0
   11.4509  -15.6871   19.0377 O   0  0  0  0  0  0  0  0  0  0  0  0
    9.6107  -16.8240   19.7494 N   0  0  0  0  0  0  0  0  0  0  0  0
    9.4683  -15.9561   20.9406 C   0  0  1  0  0  0  0  0  0  0  0  0
    8.1379  -15.3029   20.9256 C   0  0  0  0  0  0  0  0  0  0  0  0
    7.8929  -14.4127   19.7909 C   0  0  0  0  0  0  0  0  0  0  0  0
    8.2724  -13.0659   19.7104 C   0  0  0  0  0  0  0  0  0  0  0  0
    7.8948  -12.5552   18.5447 N   0  0  0  0  0  0  0  0  0  0  0  0
    7.2745  -13.5221   17.8456 C   0  0  0  0  0  0  0  0  0  0  0  0
    7.2811  -14.6228   18.6010 N   0  0  0  0  0  0  0  0  0  0  0  0
    9.8636  -16.6887   22.1457 C   0  0  0  0  0  0  0  0  0  0  0  0
    9.3357  -17.8461   22.3205 O   0  0  0  0  0  0  0  0  0  0  0  0
   12.2939  -16.5898   25.0383 C   0  0  0  0  0  0  0  0  0  0  0  0
   11.0629  -17.0855   24.3194 C   0  0  2  0  0  0  0  0  0  0  0  0
   10.7705  -16.2735   23.1458 N   0  0  0  0  0  0  0  0  0  0  0  0
    9.9456  -17.2403   25.2521 C   0  0  0  0  0  0  0  0  0  0  0  0
   10.0287  -18.0883   26.3272 O   0  0  0  0  0  0  0  0  0  0  0  0
    8.8990  -16.5848   25.0597 O   0  0  0  0  0  0  0  0  0  0  0  0
  2  1  1  6
  3  2  1  0
  4  3  1  0
  5  4  1  0
  6  5  1  0
  6  7  1  0
  8  2  1  0
  9  8  2  0
 10  8  1  0
 11 10  1  0
 11 12  1  1
 12 13  1  0
 13 17  1  0
 14 13  2  0
 14 15  1  0
 15 16  1  0
 17 16  2  0
 18 19  2  0
 18 11  1  0
 21 20  1  1
 21 22  1  0
 22 18  1  0
 23 21  1  0
 24 23  1  0
 25 23  2  0
M  END
$$$$
