KHA.pdb
     RDKit          3D

 25 25  0  0  1  0  0  0  0  0999 V2000
    0.0506  -22.9673   20.3050 N   0  0  0  0  0  0  0  0  0  0  0  0
    0.1472  -22.4132   21.6333 C   0  0  1  0  0  0  0  0  0  0  0  0
   -1.0067  -22.7104   22.5185 C   0  0  0  0  0  0  0  0  0  0  0  0
   -1.4786  -24.1304   22.5441 C   0  0  0  0  0  0  0  0  0  0  0  0
   -2.7209  -24.3883   23.3289 C   0  0  0  0  0  0  0  0  0  0  0  0
   -3.0165  -25.8963   23.2001 C   0  0  0  0  0  0  0  0  0  0  0  0
   -3.4296  -26.1447   21.8350 N   0  0  0  0  0  0  0  0  0  0  0  0
    1.4480  -22.8182   22.2156 C   0  0  0  0  0  0  0  0  0  0  0  0
    2.0555  -23.8663   21.8745 O   0  0  0  0  0  0  0  0  0  0  0  0
    2.0662  -22.0163   23.2022 N   0  0  0  0  0  0  0  0  0  0  0  0
    3.3814  -22.3730   23.7814 C   0  0  1  0  0  0  0  0  0  0  0  0
    4.2268  -21.1599   23.8838 C   0  0  0  0  0  0  0  0  0  0  0  0
    4.7652  -20.6660   22.6165 C   0  0  0  0  0  0  0  0  0  0  0  0
    4.6125  -21.2822   21.3669 C   0  0  0  0  0  0  0  0  0  0  0  0
    5.2267  -20.5701   20.4298 N   0  0  0  0  0  0  0  0  0  0  0  0
    5.7846  -19.4972   21.0181 C   0  0  0  0  0  0  0  0  0  0  0  0
    5.5011  -19.5682   22.3208 N   0  0  0  0  0  0  0  0  0  0  0  0
    3.1959  -23.1881   24.9841 C   0  0  0  0  0  0  0  0  0  0  0  0
    4.2423  -23.4307   25.6878 O   0  0  0  0  0  0  0  0  0  0  0  0
    0.4982  -24.5079   27.2565 C   0  0  0  0  0  0  0  0  0  0  0  0
    1.9154  -24.4520   26.7402 C   0  0  2  0  0  0  0  0  0  0  0  0
    1.9904  -23.7396   25.4717 N   0  0  0  0  0  0  0  0  0  0  0  0
    2.5161  -25.7866   26.7306 C   0  0  0  0  0  0  0  0  0  0  0  0
    2.7241  -26.4815   27.8950 O   0  0  0  0  0  0  0  0  0  0  0  0
    2.8436  -26.2971   25.6378 O   0  0  0  0  0  0  0  0  0  0  0  0
  2  1  1  6
  3  2  1  0
  4  3  1  0
  5  4  1  0
  6  5  1  0
  6  7  1  0
  8  2  1  0
  9  8  2  0
 10  8  1  0
 11 10  1  0
 11 12  1  1
 12 13  1  0
 13 17  1  0
 14 13  2  0
 14 15  1  0
 15 16  1  0
 17 16  2  0
 18 19  2  0
 18 11  1  0
 21 20  1  6
 21 22  1  0
 22 18  1  0
 23 21  1  0
 24 23  1  0
 25 23  2  0
M  END
$$$$
