KHA.pdb
     RDKit          3D

 25 25  0  0  1  0  0  0  0  0999 V2000
   10.7530  -17.1633   21.1961 N   0  0  0  0  0  0  0  0  0  0  0  0
    9.8555  -17.4296   22.2935 C   0  0  1  0  0  0  0  0  0  0  0  0
   10.2248  -18.5973   23.1321 C   0  0  0  0  0  0  0  0  0  0  0  0
   10.9705  -19.6999   22.4479 C   0  0  0  0  0  0  0  0  0  0  0  0
   11.3562  -20.8555   23.3091 C   0  0  0  0  0  0  0  0  0  0  0  0
   12.1543  -21.8238   22.4128 C   0  0  0  0  0  0  0  0  0  0  0  0
   12.5520  -22.9490   23.2323 N   0  0  0  0  0  0  0  0  0  0  0  0
    9.6878  -16.1813   23.0739 C   0  0  0  0  0  0  0  0  0  0  0  0
   10.6094  -15.3377   23.2248 O   0  0  0  0  0  0  0  0  0  0  0  0
    8.4503  -15.8899   23.6923 N   0  0  0  0  0  0  0  0  0  0  0  0
    8.2345  -14.6328   24.4445 C   0  0  1  0  0  0  0  0  0  0  0  0
    6.7858  -14.4429   24.6931 C   0  0  0  0  0  0  0  0  0  0  0  0
    6.4281  -13.2017   25.3797 C   0  0  0  0  0  0  0  0  0  0  0  0
    6.8205  -11.9120   24.9961 C   0  0  0  0  0  0  0  0  0  0  0  0
    6.3221  -11.0149   25.8383 N   0  0  0  0  0  0  0  0  0  0  0  0
    5.6090  -11.6688   26.7722 C   0  0  0  0  0  0  0  0  0  0  0  0
    5.6815  -12.9707   26.4857 N   0  0  0  0  0  0  0  0  0  0  0  0
    9.1450  -14.5706   25.5900 C   0  0  0  0  0  0  0  0  0  0  0  0
    9.6102  -13.4145   25.8995 O   0  0  0  0  0  0  0  0  0  0  0  0
    9.8722  -14.4242   28.5140 C   0  0  0  0  0  0  0  0  0  0  0  0
   10.4446  -15.4422   27.5578 C   0  0  2  0  0  0  0  0  0  0  0  0
    9.5721  -15.6400   26.4082 N   0  0  0  0  0  0  0  0  0  0  0  0
   10.8129  -16.6687   28.2666 C   0  0  0  0  0  0  0  0  0  0  0  0
   10.3681  -17.8956   27.8436 O   0  0  0  0  0  0  0  0  0  0  0  0
   11.5465  -16.5899   29.2754 O   0  0  0  0  0  0  0  0  0  0  0  0
  2  1  1  6
  3  2  1  0
  4  3  1  0
  5  4  1  0
  6  5  1  0
  6  7  1  0
  8  2  1  0
  9  8  2  0
 10  8  1  0
 11 10  1  0
 11 12  1  1
 12 13  1  0
 13 17  1  0
 14 13  2  0
 14 15  1  0
 15 16  1  0
 17 16  2  0
 18 19  2  0
 18 11  1  0
 21 20  1  1
 21 22  1  0
 22 18  1  0
 23 21  1  0
 24 23  1  0
 25 23  2  0
M  END
$$$$
