KHA.pdb
     RDKit          3D

 25 25  0  0  1  0  0  0  0  0999 V2000
    7.8219  -15.6345   20.1850 N   0  0  0  0  0  0  0  0  0  0  0  0
    8.4704  -14.3462   20.2105 C   0  0  1  0  0  0  0  0  0  0  0  0
    7.8407  -13.3139   19.3496 C   0  0  0  0  0  0  0  0  0  0  0  0
    7.7286  -13.6388   17.8931 C   0  0  0  0  0  0  0  0  0  0  0  0
    8.9984  -14.0306   17.2150 C   0  0  0  0  0  0  0  0  0  0  0  0
    8.6455  -14.2861   15.7358 C   0  0  0  0  0  0  0  0  0  0  0  0
    9.8714  -14.6338   15.0487 N   0  0  0  0  0  0  0  0  0  0  0  0
    8.6104  -13.9211   21.6229 C   0  0  0  0  0  0  0  0  0  0  0  0
    9.0807  -12.8033   21.9593 O   0  0  0  0  0  0  0  0  0  0  0  0
    8.2082  -14.7834   22.6685 N   0  0  0  0  0  0  0  0  0  0  0  0
    8.2328  -14.3517   24.0847 C   0  0  1  0  0  0  0  0  0  0  0  0
    6.8560  -14.0369   24.5340 C   0  0  0  0  0  0  0  0  0  0  0  0
    6.7633  -13.3261   25.8092 C   0  0  0  0  0  0  0  0  0  0  0  0
    7.8380  -13.0186   26.6548 C   0  0  0  0  0  0  0  0  0  0  0  0
    7.4020  -12.3698   27.7279 N   0  0  0  0  0  0  0  0  0  0  0  0
    6.0681  -12.2358   27.6225 C   0  0  0  0  0  0  0  0  0  0  0  0
    5.7022  -12.8104   26.4744 N   0  0  0  0  0  0  0  0  0  0  0  0
    9.0207  -15.2936   24.8831 C   0  0  0  0  0  0  0  0  0  0  0  0
    8.7828  -16.5433   24.7082 O   0  0  0  0  0  0  0  0  0  0  0  0
    9.6924  -16.5089   27.7201 C   0  0  0  0  0  0  0  0  0  0  0  0
   10.6463  -16.0094   26.6624 C   0  0  2  0  0  0  0  0  0  0  0  0
   10.0261  -14.9894   25.8274 N   0  0  0  0  0  0  0  0  0  0  0  0
   11.2363  -17.1287   25.9269 C   0  0  0  0  0  0  0  0  0  0  0  0
   11.0949  -17.2398   24.5668 O   0  0  0  0  0  0  0  0  0  0  0  0
   11.8798  -17.9964   26.5555 O   0  0  0  0  0  0  0  0  0  0  0  0
  2  1  1  1
  3  2  1  0
  4  3  1  0
  5  4  1  0
  6  5  1  0
  6  7  1  0
  8  2  1  0
  9  8  2  0
 10  8  1  0
 11 10  1  0
 11 12  1  1
 12 13  1  0
 13 17  1  0
 14 13  2  0
 14 15  1  0
 15 16  1  0
 17 16  2  0
 18 19  2  0
 18 11  1  0
 21 20  1  1
 21 22  1  0
 22 18  1  0
 23 21  1  0
 24 23  1  0
 25 23  2  0
M  END
$$$$
