KHA.pdb
     RDKit          3D

 25 25  0  0  1  0  0  0  0  0999 V2000
    9.0257  -15.9122   20.7072 N   0  0  0  0  0  0  0  0  0  0  0  0
    8.7271  -14.6081   21.2467 C   0  0  1  0  0  0  0  0  0  0  0  0
    7.8970  -13.7454   20.3693 C   0  0  0  0  0  0  0  0  0  0  0  0
    7.7093  -14.2126   18.9599 C   0  0  0  0  0  0  0  0  0  0  0  0
    8.1715  -13.2732   17.8969 C   0  0  0  0  0  0  0  0  0  0  0  0
    7.7148  -13.8734   16.5519 C   0  0  0  0  0  0  0  0  0  0  0  0
    8.0878  -12.9409   15.5092 N   0  0  0  0  0  0  0  0  0  0  0  0
    8.1552  -14.7825   22.6023 C   0  0  0  0  0  0  0  0  0  0  0  0
    7.6194  -13.8436   23.2467 O   0  0  0  0  0  0  0  0  0  0  0  0
    8.1947  -16.0468   23.2337 N   0  0  0  0  0  0  0  0  0  0  0  0
    7.7368  -16.2330   24.6295 C   0  0  1  0  0  0  0  0  0  0  0  0
    7.3402  -17.6455   24.8400 C   0  0  0  0  0  0  0  0  0  0  0  0
    6.2905  -18.1382   23.9482 C   0  0  0  0  0  0  0  0  0  0  0  0
    5.6386  -17.3889   22.9592 C   0  0  0  0  0  0  0  0  0  0  0  0
    4.7410  -18.1420   22.3349 N   0  0  0  0  0  0  0  0  0  0  0  0
    4.7754  -19.3714   22.8787 C   0  0  0  0  0  0  0  0  0  0  0  0
    5.7032  -19.3536   23.8385 N   0  0  0  0  0  0  0  0  0  0  0  0
    8.7033  -15.6421   25.5580 C   0  0  0  0  0  0  0  0  0  0  0  0
    9.3915  -14.6485   25.1246 O   0  0  0  0  0  0  0  0  0  0  0  0
    9.0326  -13.8319   27.9615 C   0  0  0  0  0  0  0  0  0  0  0  0
    9.6915  -15.1828   27.8236 C   0  0  2  0  0  0  0  0  0  0  0  0
    8.9671  -16.0338   26.8892 N   0  0  0  0  0  0  0  0  0  0  0  0
    9.9295  -15.7795   29.1387 C   0  0  0  0  0  0  0  0  0  0  0  0
   10.7433  -15.1699   30.0597 O   0  0  0  0  0  0  0  0  0  0  0  0
    9.3782  -16.8649   29.4217 O   0  0  0  0  0  0  0  0  0  0  0  0
  2  1  1  6
  3  2  1  0
  4  3  1  0
  5  4  1  0
  6  5  1  0
  6  7  1  0
  8  2  1  0
  9  8  2  0
 10  8  1  0
 11 10  1  0
 11 12  1  1
 12 13  1  0
 13 17  1  0
 14 13  2  0
 14 15  1  0
 15 16  1  0
 17 16  2  0
 18 19  2  0
 18 11  1  0
 21 20  1  1
 21 22  1  0
 22 18  1  0
 23 21  1  0
 24 23  1  0
 25 23  2  0
M  END
$$$$
