KHA.pdb
     RDKit          3D

 25 25  0  0  1  0  0  0  0  0999 V2000
    9.8368  -12.2511   19.4959 N   0  0  0  0  0  0  0  0  0  0  0  0
    8.8463  -13.2207   19.8955 C   0  0  1  0  0  0  0  0  0  0  0  0
    7.6121  -13.2274   19.0710 C   0  0  0  0  0  0  0  0  0  0  0  0
    7.7867  -12.9676   17.6076 C   0  0  0  0  0  0  0  0  0  0  0  0
    7.6577  -14.1572   16.7164 C   0  0  0  0  0  0  0  0  0  0  0  0
    7.8535  -13.6484   15.2740 C   0  0  0  0  0  0  0  0  0  0  0  0
    7.7544  -14.7915   14.3911 N   0  0  0  0  0  0  0  0  0  0  0  0
    9.4986  -14.5484   19.9791 C   0  0  0  0  0  0  0  0  0  0  0  0
    8.8616  -15.6137   20.1868 O   0  0  0  0  0  0  0  0  0  0  0  0
   10.8990  -14.6639   19.8239 N   0  0  0  0  0  0  0  0  0  0  0  0
   11.5643  -15.9834   19.7303 C   0  0  1  0  0  0  0  0  0  0  0  0
   12.5464  -15.9693   18.6204 C   0  0  0  0  0  0  0  0  0  0  0  0
   13.1399  -17.2664   18.2961 C   0  0  0  0  0  0  0  0  0  0  0  0
   12.8455  -18.4821   18.9283 C   0  0  0  0  0  0  0  0  0  0  0  0
   13.5621  -19.4611   18.3892 N   0  0  0  0  0  0  0  0  0  0  0  0
   14.3257  -18.9336   17.4161 C   0  0  0  0  0  0  0  0  0  0  0  0
   14.0632  -17.6253   17.3725 N   0  0  0  0  0  0  0  0  0  0  0  0
   12.0254  -16.4082   21.0541 C   0  0  0  0  0  0  0  0  0  0  0  0
   12.8423  -15.6265   21.6625 O   0  0  0  0  0  0  0  0  0  0  0  0
   11.0890  -18.5424   23.9305 C   0  0  0  0  0  0  0  0  0  0  0  0
   12.1514  -17.8676   23.0974 C   0  0  2  0  0  0  0  0  0  0  0  0
   11.6702  -17.5838   21.7520 N   0  0  0  0  0  0  0  0  0  0  0  0
   13.4075  -18.6166   23.1543 C   0  0  0  0  0  0  0  0  0  0  0  0
   13.9648  -19.1580   22.0237 O   0  0  0  0  0  0  0  0  0  0  0  0
   13.9781  -18.7622   24.2567 O   0  0  0  0  0  0  0  0  0  0  0  0
  2  1  1  6
  3  2  1  0
  4  3  1  0
  5  4  1  0
  6  5  1  0
  6  7  1  0
  8  2  1  0
  9  8  2  0
 10  8  1  0
 11 10  1  0
 11 12  1  6
 12 13  1  0
 13 17  1  0
 14 13  2  0
 14 15  1  0
 15 16  1  0
 17 16  2  0
 18 19  2  0
 18 11  1  0
 21 20  1  1
 21 22  1  0
 22 18  1  0
 23 21  1  0
 24 23  1  0
 25 23  2  0
M  END
$$$$
