KHA.pdb
     RDKit          3D

 25 25  0  0  1  0  0  0  0  0999 V2000
   11.5010  -20.4552   18.3005 N   0  0  0  0  0  0  0  0  0  0  0  0
   10.3819  -20.1646   19.1630 C   0  0  1  0  0  0  0  0  0  0  0  0
   10.2441  -21.0690   20.3319 C   0  0  0  0  0  0  0  0  0  0  0  0
    9.4950  -22.3443   20.1031 C   0  0  0  0  0  0  0  0  0  0  0  0
    8.0961  -22.3780   20.6206 C   0  0  0  0  0  0  0  0  0  0  0  0
    7.5035  -23.7368   20.1959 C   0  0  0  0  0  0  0  0  0  0  0  0
    6.1781  -23.8333   20.7702 N   0  0  0  0  0  0  0  0  0  0  0  0
   10.4400  -18.7324   19.5379 C   0  0  0  0  0  0  0  0  0  0  0  0
   11.5142  -18.1399   19.8189 O   0  0  0  0  0  0  0  0  0  0  0  0
    9.2551  -17.9631   19.5935 N   0  0  0  0  0  0  0  0  0  0  0  0
    9.2784  -16.5244   19.9428 C   0  0  1  0  0  0  0  0  0  0  0  0
    8.1522  -15.8306   19.2742 C   0  0  0  0  0  0  0  0  0  0  0  0
    8.0006  -14.4161   19.6148 C   0  0  0  0  0  0  0  0  0  0  0  0
    8.8379  -13.6857   20.4692 C   0  0  0  0  0  0  0  0  0  0  0  0
    8.4144  -12.4306   20.5585 N   0  0  0  0  0  0  0  0  0  0  0  0
    7.3192  -12.3029   19.7886 C   0  0  0  0  0  0  0  0  0  0  0  0
    7.0850  -13.4940   19.2330 N   0  0  0  0  0  0  0  0  0  0  0  0
    9.4270  -16.3616   21.3908 C   0  0  0  0  0  0  0  0  0  0  0  0
    8.7382  -17.1476   22.1368 O   0  0  0  0  0  0  0  0  0  0  0  0
    8.8667  -15.3207   24.0903 C   0  0  0  0  0  0  0  0  0  0  0  0
   10.2661  -15.3312   23.5251 C   0  0  2  0  0  0  0  0  0  0  0  0
   10.2510  -15.4387   22.0723 N   0  0  0  0  0  0  0  0  0  0  0  0
   11.0919  -16.3299   24.2054 C   0  0  0  0  0  0  0  0  0  0  0  0
   11.6950  -17.3473   23.5102 O   0  0  0  0  0  0  0  0  0  0  0  0
   11.2466  -16.2487   25.4429 O   0  0  0  0  0  0  0  0  0  0  0  0
  2  1  1  1
  3  2  1  0
  4  3  1  0
  5  4  1  0
  6  5  1  0
  6  7  1  0
  8  2  1  0
  9  8  2  0
 10  8  1  0
 11 10  1  0
 11 12  1  1
 12 13  1  0
 13 17  1  0
 14 13  2  0
 14 15  1  0
 15 16  1  0
 17 16  2  0
 18 19  2  0
 18 11  1  0
 21 20  1  1
 21 22  1  0
 22 18  1  0
 23 21  1  0
 24 23  1  0
 25 23  2  0
M  END
$$$$
