KHA.pdb
     RDKit          3D

 25 25  0  0  1  0  0  0  0  0999 V2000
    8.7467  -18.0362   17.9458 N   0  0  0  0  0  0  0  0  0  0  0  0
    9.6654  -17.0230   18.4041 C   0  0  1  0  0  0  0  0  0  0  0  0
    9.2519  -15.6278   18.1114 C   0  0  0  0  0  0  0  0  0  0  0  0
    8.6023  -15.3897   16.7843 C   0  0  0  0  0  0  0  0  0  0  0  0
    8.1934  -13.9825   16.5041 C   0  0  0  0  0  0  0  0  0  0  0  0
    7.4935  -13.9941   15.1301 C   0  0  0  0  0  0  0  0  0  0  0  0
    7.0222  -12.6503   14.8694 N   0  0  0  0  0  0  0  0  0  0  0  0
    9.9441  -17.2593   19.8400 C   0  0  0  0  0  0  0  0  0  0  0  0
    9.1629  -17.8949   20.5947 O   0  0  0  0  0  0  0  0  0  0  0  0
   11.1316  -16.7633   20.4251 N   0  0  0  0  0  0  0  0  0  0  0  0
   11.5076  -17.0929   21.8188 C   0  0  1  0  0  0  0  0  0  0  0  0
   12.9842  -17.1111   21.9460 C   0  0  0  0  0  0  0  0  0  0  0  0
   13.6315  -18.3525   21.5220 C   0  0  0  0  0  0  0  0  0  0  0  0
   12.9733  -19.5255   21.1280 C   0  0  0  0  0  0  0  0  0  0  0  0
   13.8603  -20.4599   20.8076 N   0  0  0  0  0  0  0  0  0  0  0  0
   15.0907  -19.9442   20.9766 C   0  0  0  0  0  0  0  0  0  0  0  0
   14.9381  -18.6881   21.4025 N   0  0  0  0  0  0  0  0  0  0  0  0
   10.7448  -16.2632   22.7543 C   0  0  0  0  0  0  0  0  0  0  0  0
   10.4592  -15.0710   22.3725 O   0  0  0  0  0  0  0  0  0  0  0  0
    8.2281  -15.2776   24.0921 C   0  0  0  0  0  0  0  0  0  0  0  0
    9.4547  -15.7314   24.8456 C   0  0  2  0  0  0  0  0  0  0  0  0
   10.2748  -16.6232   24.0368 N   0  0  0  0  0  0  0  0  0  0  0  0
    9.0887  -16.2589   26.1609 C   0  0  0  0  0  0  0  0  0  0  0  0
    9.4360  -17.5311   26.5389 O   0  0  0  0  0  0  0  0  0  0  0  0
    8.4478  -15.5316   26.9498 O   0  0  0  0  0  0  0  0  0  0  0  0
  2  1  1  1
  3  2  1  0
  4  3  1  0
  5  4  1  0
  6  5  1  0
  6  7  1  0
  8  2  1  0
  9  8  2  0
 10  8  1  0
 11 10  1  0
 11 12  1  6
 12 13  1  0
 13 17  1  0
 14 13  2  0
 14 15  1  0
 15 16  1  0
 17 16  2  0
 18 19  2  0
 18 11  1  0
 21 20  1  6
 21 22  1  0
 22 18  1  0
 23 21  1  0
 24 23  1  0
 25 23  2  0
M  END
$$$$
