KHA.pdb
     RDKit          3D

 25 25  0  0  1  0  0  0  0  0999 V2000
    9.5891  -19.6298   16.8984 N   0  0  0  0  0  0  0  0  0  0  0  0
    9.2410  -18.4486   17.6495 C   0  0  1  0  0  0  0  0  0  0  0  0
    8.0717  -18.6045   18.5504 C   0  0  0  0  0  0  0  0  0  0  0  0
    7.0555  -19.6285   18.1524 C   0  0  0  0  0  0  0  0  0  0  0  0
    5.6284  -19.2166   18.2926 C   0  0  0  0  0  0  0  0  0  0  0  0
    4.7774  -20.4306   17.8683 C   0  0  0  0  0  0  0  0  0  0  0  0
    3.3862  -20.0392   17.9537 N   0  0  0  0  0  0  0  0  0  0  0  0
   10.4544  -17.9639   18.3480 C   0  0  0  0  0  0  0  0  0  0  0  0
   11.3225  -18.7366   18.8309 O   0  0  0  0  0  0  0  0  0  0  0  0
   10.6822  -16.5768   18.4985 N   0  0  0  0  0  0  0  0  0  0  0  0
   11.9287  -16.0552   19.1040 C   0  0  1  0  0  0  0  0  0  0  0  0
   12.4100  -14.8882   18.3275 C   0  0  0  0  0  0  0  0  0  0  0  0
   13.7439  -14.4069   18.6868 C   0  0  0  0  0  0  0  0  0  0  0  0
   14.5614  -14.9375   19.6941 C   0  0  0  0  0  0  0  0  0  0  0  0
   15.7042  -14.2645   19.7548 N   0  0  0  0  0  0  0  0  0  0  0  0
   15.6725  -13.3008   18.8175 C   0  0  0  0  0  0  0  0  0  0  0  0
   14.4984  -13.3982   18.1895 N   0  0  0  0  0  0  0  0  0  0  0  0
   11.7571  -15.8983   20.5501 C   0  0  0  0  0  0  0  0  0  0  0  0
   10.5858  -15.5727   20.9635 O   0  0  0  0  0  0  0  0  0  0  0  0
   11.4084  -17.2878   23.2183 C   0  0  0  0  0  0  0  0  0  0  0  0
   12.3905  -16.1693   22.9680 C   0  0  2  0  0  0  0  0  0  0  0  0
   12.7340  -16.0707   21.5558 N   0  0  0  0  0  0  0  0  0  0  0  0
   13.5367  -16.2747   23.8721 C   0  0  0  0  0  0  0  0  0  0  0  0
   13.3699  -16.2881   25.2337 O   0  0  0  0  0  0  0  0  0  0  0  0
   14.6864  -16.3535   23.3882 O   0  0  0  0  0  0  0  0  0  0  0  0
  2  1  1  1
  3  2  1  0
  4  3  1  0
  5  4  1  0
  6  5  1  0
  6  7  1  0
  8  2  1  0
  9  8  2  0
 10  8  1  0
 11 10  1  0
 11 12  1  6
 12 13  1  0
 13 17  1  0
 14 13  2  0
 14 15  1  0
 15 16  1  0
 17 16  2  0
 18 19  2  0
 18 11  1  0
 21 20  1  6
 21 22  1  0
 22 18  1  0
 23 21  1  0
 24 23  1  0
 25 23  2  0
M  END
$$$$
