VIG.pdb
     RDKit          3D

 20 19  0  0  1  0  0  0  0  0999 V2000
   17.5062  -10.7616  -18.5223 C   0  0  0  0  0  0  0  0  0  0  0  0
   17.0929  -12.0279  -17.8025 C   0  0  1  0  0  0  0  0  0  0  0  0
   16.4916  -12.9497  -18.8422 C   0  0  0  0  0  0  0  0  0  0  0  0
   18.2750  -12.7480  -17.2050 C   0  0  2  0  0  0  0  0  0  0  0  0
   17.8382  -13.9788  -16.6258 N   0  0  0  0  0  0  0  0  0  0  0  0
   18.9554  -11.8683  -16.1694 C   0  0  0  0  0  0  0  0  0  0  0  0
   18.3550  -11.7317  -15.0889 O   0  0  0  0  0  0  0  0  0  0  0  0
   24.1135  -12.5500  -15.0119 C   0  0  0  0  0  0  0  0  0  0  0  0
   22.6064  -12.2285  -15.0681 C   0  0  0  0  0  0  0  0  0  0  0  0
   22.3813  -10.7858  -15.3482 C   0  0  2  0  0  0  0  0  0  0  0  0
   23.1666   -9.8811  -14.4327 C   0  0  0  0  0  0  0  0  0  0  0  0
   20.9843  -10.3780  -15.6278 C   0  0  2  0  0  0  0  0  0  0  0  0
   20.1837  -11.2564  -16.4327 N   0  0  0  0  0  0  0  0  0  0  0  0
   20.7708   -8.9566  -15.8784 C   0  0  0  0  0  0  0  0  0  0  0  0
   21.0833   -8.4302  -16.9736 O   0  0  0  0  0  0  0  0  0  0  0  0
   20.2002   -8.1091  -14.8934 N   0  0  0  0  0  0  0  0  0  0  0  0
   19.9384   -6.6985  -15.1442 C   0  0  0  0  0  0  0  0  0  0  0  0
   21.1011   -5.9137  -14.6707 C   0  0  0  0  0  0  0  0  0  0  0  0
   22.1014   -6.4614  -14.1371 O   0  0  0  0  0  0  0  0  0  0  0  0
   21.0460   -4.5180  -14.8412 O   0  0  0  0  0  0  0  0  0  0  0  0
  2  4  1  0
  2  1  1  6
  3  2  1  0
  4  5  1  1
  6  4  1  0
  6  7  2  0
  8  9  1  0
  9 10  1  0
 10 11  1  1
 10 12  1  0
 12 13  1  6
 12 14  1  0
 13  6  1  0
 14 15  2  0
 14 16  1  0
 16 17  1  0
 17 18  1  0
 18 20  1  0
 19 18  2  0
M  END
$$$$
