VIG.pdb
     RDKit          3D

 20 19  0  0  1  0  0  0  0  0999 V2000
   20.2382  -12.7375  -21.2752 C   0  0  0  0  0  0  0  0  0  0  0  0
   20.1067  -11.8830  -20.0323 C   0  0  1  0  0  0  0  0  0  0  0  0
   18.6287  -11.6253  -19.8289 C   0  0  0  0  0  0  0  0  0  0  0  0
   20.6034  -12.5981  -18.8015 C   0  0  2  0  0  0  0  0  0  0  0  0
   19.9718  -13.8761  -18.7073 N   0  0  0  0  0  0  0  0  0  0  0  0
   20.3295  -11.7611  -17.5631 C   0  0  0  0  0  0  0  0  0  0  0  0
   19.2526  -11.9814  -16.9817 O   0  0  0  0  0  0  0  0  0  0  0  0
   24.2084  -11.5019  -14.7849 C   0  0  0  0  0  0  0  0  0  0  0  0
   22.6938  -11.3044  -14.5731 C   0  0  0  0  0  0  0  0  0  0  0  0
   22.2690   -9.9480  -15.0094 C   0  0  2  0  0  0  0  0  0  0  0  0
   22.1722   -8.9681  -13.8675 C   0  0  0  0  0  0  0  0  0  0  0  0
   21.1816   -9.8885  -16.0144 C   0  0  2  0  0  0  0  0  0  0  0  0
   21.2454  -10.8042  -17.1180 N   0  0  0  0  0  0  0  0  0  0  0  0
   20.6978   -8.5549  -16.3552 C   0  0  0  0  0  0  0  0  0  0  0  0
   21.3310   -7.8091  -17.1408 O   0  0  0  0  0  0  0  0  0  0  0  0
   19.4899   -8.0447  -15.8123 N   0  0  0  0  0  0  0  0  0  0  0  0
   18.9755   -6.7299  -16.1699 C   0  0  0  0  0  0  0  0  0  0  0  0
   19.5875   -5.7258  -15.2704 C   0  0  0  0  0  0  0  0  0  0  0  0
   19.3104   -5.6743  -14.0432 O   0  0  0  0  0  0  0  0  0  0  0  0
   20.5003   -4.8214  -15.8441 O   0  0  0  0  0  0  0  0  0  0  0  0
  2  4  1  0
  2  1  1  6
  3  2  1  0
  4  5  1  1
  6  4  1  0
  6  7  2  0
  8  9  1  0
  9 10  1  0
 10 11  1  1
 10 12  1  0
 12 13  1  6
 12 14  1  0
 13  6  1  0
 14 15  2  0
 14 16  1  0
 16 17  1  0
 17 18  1  0
 18 20  1  0
 19 18  2  0
M  END
$$$$
