VIG.pdb
     RDKit          3D

 20 19  0  0  1  0  0  0  0  0999 V2000
   29.3278  -11.2787  -18.3152 C   0  0  0  0  0  0  0  0  0  0  0  0
   27.8498  -11.5775  -18.1788 C   0  0  1  0  0  0  0  0  0  0  0  0
   27.6566  -12.2408  -16.8316 C   0  0  0  0  0  0  0  0  0  0  0  0
   27.0185  -10.3198  -18.1747 C   0  0  2  0  0  0  0  0  0  0  0  0
   27.5105   -9.4285  -17.1724 N   0  0  0  0  0  0  0  0  0  0  0  0
   25.5569  -10.6588  -17.9340 C   0  0  0  0  0  0  0  0  0  0  0  0
   24.9917  -11.3092  -18.8307 O   0  0  0  0  0  0  0  0  0  0  0  0
   24.6606  -13.0965  -14.1637 C   0  0  0  0  0  0  0  0  0  0  0  0
   23.7328  -12.7148  -15.3349 C   0  0  0  0  0  0  0  0  0  0  0  0
   23.2656  -11.3093  -15.2059 C   0  0  2  0  0  0  0  0  0  0  0  0
   21.8939  -11.2015  -14.5893 C   0  0  0  0  0  0  0  0  0  0  0  0
   23.5359  -10.4157  -16.3568 C   0  0  2  0  0  0  0  0  0  0  0  0
   24.9019  -10.2553  -16.7674 N   0  0  0  0  0  0  0  0  0  0  0  0
   22.7311   -9.2007  -16.4262 C   0  0  0  0  0  0  0  0  0  0  0  0
   21.4992   -9.2433  -16.6603 O   0  0  0  0  0  0  0  0  0  0  0  0
   23.3081   -7.9188  -16.2317 N   0  0  0  0  0  0  0  0  0  0  0  0
   22.5003   -6.7087  -16.1658 C   0  0  0  0  0  0  0  0  0  0  0  0
   22.2196   -6.4085  -14.7434 C   0  0  0  0  0  0  0  0  0  0  0  0
   22.4678   -7.2352  -13.8268 O   0  0  0  0  0  0  0  0  0  0  0  0
   21.6592   -5.1512  -14.4511 O   0  0  0  0  0  0  0  0  0  0  0  0
  2  4  1  0
  2  1  1  1
  3  2  1  0
  4  5  1  1
  6  4  1  0
  6  7  2  0
  8  9  1  0
  9 10  1  0
 10 11  1  6
 10 12  1  0
 12 13  1  1
 12 14  1  0
 13  6  1  0
 14 15  2  0
 14 16  1  0
 16 17  1  0
 17 18  1  0
 18 20  1  0
 19 18  2  0
M  END
$$$$
