VIG.pdb
     RDKit          3D

 20 19  0  0  1  0  0  0  0  0999 V2000
   24.3068   -7.2138  -18.2300 C   0  0  0  0  0  0  0  0  0  0  0  0
   23.7609   -8.4505  -18.9118 C   0  0  1  0  0  0  0  0  0  0  0  0
   24.9290   -9.1284  -19.5963 C   0  0  0  0  0  0  0  0  0  0  0  0
   23.1965   -9.4373  -17.9216 C   0  0  2  0  0  0  0  0  0  0  0  0
   23.0046  -10.6985  -18.5647 N   0  0  0  0  0  0  0  0  0  0  0  0
   21.8910   -8.9136  -17.3464 C   0  0  0  0  0  0  0  0  0  0  0  0
   20.9681   -8.7341  -18.1603 O   0  0  0  0  0  0  0  0  0  0  0  0
   18.6937  -11.3852  -14.9088 C   0  0  0  0  0  0  0  0  0  0  0  0
   18.9965  -10.0257  -15.5704 C   0  0  0  0  0  0  0  0  0  0  0  0
   19.7094   -9.1234  -14.6279 C   0  0  2  0  0  0  0  0  0  0  0  0
   18.8198   -8.6045  -13.5267 C   0  0  0  0  0  0  0  0  0  0  0  0
   20.6412   -8.1418  -15.2314 C   0  0  2  0  0  0  0  0  0  0  0  0
   21.7534   -8.6543  -15.9802 N   0  0  0  0  0  0  0  0  0  0  0  0
   20.9398   -6.9635  -14.4245 C   0  0  0  0  0  0  0  0  0  0  0  0
   20.0435   -6.3648  -13.7823 O   0  0  0  0  0  0  0  0  0  0  0  0
   22.2575   -6.4446  -14.3318 N   0  0  0  0  0  0  0  0  0  0  0  0
   22.5720   -5.2706  -13.5292 C   0  0  0  0  0  0  0  0  0  0  0  0
   22.1186   -4.0663  -14.2612 C   0  0  0  0  0  0  0  0  0  0  0  0
   21.5249   -4.1444  -15.3688 O   0  0  0  0  0  0  0  0  0  0  0  0
   22.3787   -2.8177  -13.6667 O   0  0  0  0  0  0  0  0  0  0  0  0
  2  4  1  0
  2  1  1  1
  3  2  1  0
  4  5  1  6
  6  4  1  0
  6  7  2  0
  8  9  1  0
  9 10  1  0
 10 11  1  6
 10 12  1  0
 12 13  1  1
 12 14  1  0
 13  6  1  0
 14 15  2  0
 14 16  1  0
 16 17  1  0
 17 18  1  0
 18 20  1  0
 19 18  2  0
M  END
$$$$
