VIG.pdb
     RDKit          3D

 20 19  0  0  1  0  0  0  0  0999 V2000
   22.4734  -22.2328  -15.0129 C   0  0  0  0  0  0  0  0  0  0  0  0
   23.4239  -22.5666  -13.8827 C   0  0  1  0  0  0  0  0  0  0  0  0
   23.6360  -24.0654  -13.9132 C   0  0  0  0  0  0  0  0  0  0  0  0
   24.7749  -21.9257  -14.0746 C   0  0  2  0  0  0  0  0  0  0  0  0
   25.7131  -22.5162  -13.1734 N   0  0  0  0  0  0  0  0  0  0  0  0
   24.6784  -20.4249  -13.8562 C   0  0  0  0  0  0  0  0  0  0  0  0
   24.5307  -20.0523  -12.6790 O   0  0  0  0  0  0  0  0  0  0  0  0
   28.3791  -17.8124  -16.0615 C   0  0  0  0  0  0  0  0  0  0  0  0
   27.2868  -17.8129  -14.9730 C   0  0  0  0  0  0  0  0  0  0  0  0
   25.9665  -17.4394  -15.5455 C   0  0  2  0  0  0  0  0  0  0  0  0
   25.8421  -15.9616  -15.8177 C   0  0  0  0  0  0  0  0  0  0  0  0
   24.7792  -18.0954  -14.9490 C   0  0  2  0  0  0  0  0  0  0  0  0
   24.7532  -19.5304  -14.9271 N   0  0  0  0  0  0  0  0  0  0  0  0
   23.4928  -17.4660  -15.2280 C   0  0  0  0  0  0  0  0  0  0  0  0
   23.2792  -16.2610  -14.9512 O   0  0  0  0  0  0  0  0  0  0  0  0
   22.4284  -18.1906  -15.8246 N   0  0  0  0  0  0  0  0  0  0  0  0
   21.1323  -17.5820  -16.0916 C   0  0  0  0  0  0  0  0  0  0  0  0
   21.0695  -17.2216  -17.5262 C   0  0  0  0  0  0  0  0  0  0  0  0
   20.0283  -16.7425  -18.0475 O   0  0  0  0  0  0  0  0  0  0  0  0
   22.2291  -17.4368  -18.2937 O   0  0  0  0  0  0  0  0  0  0  0  0
  2  4  1  0
  2  1  1  6
  3  2  1  0
  4  5  1  1
  6  4  1  0
  6  7  2  0
  8  9  1  0
  9 10  1  0
 10 11  1  1
 10 12  1  0
 12 13  1  6
 12 14  1  0
 13  6  1  0
 14 15  2  0
 14 16  1  0
 16 17  1  0
 17 18  1  0
 18 20  1  0
 19 18  2  0
M  END
$$$$
