VIG.pdb
     RDKit          3D

 20 19  0  0  1  0  0  0  0  0999 V2000
   27.3148  -10.3551  -15.2897 C   0  0  0  0  0  0  0  0  0  0  0  0
   27.1394  -11.3340  -16.4313 C   0  0  1  0  0  0  0  0  0  0  0  0
   28.1528  -12.4396  -16.2237 C   0  0  0  0  0  0  0  0  0  0  0  0
   25.7758  -11.9771  -16.4178 C   0  0  2  0  0  0  0  0  0  0  0  0
   25.7544  -13.0648  -17.3437 N   0  0  0  0  0  0  0  0  0  0  0  0
   24.7089  -10.9497  -16.7577 C   0  0  0  0  0  0  0  0  0  0  0  0
   24.7517  -10.4770  -17.9071 O   0  0  0  0  0  0  0  0  0  0  0  0
   20.3231  -12.3121  -16.3621 C   0  0  0  0  0  0  0  0  0  0  0  0
   21.0530  -11.1171  -17.0078 C   0  0  0  0  0  0  0  0  0  0  0  0
   21.3107  -10.0484  -16.0067 C   0  0  2  0  0  0  0  0  0  0  0  0
   20.2469   -8.9799  -16.0024 C   0  0  0  0  0  0  0  0  0  0  0  0
   22.7106   -9.5762  -15.8910 C   0  0  2  0  0  0  0  0  0  0  0  0
   23.7439  -10.5701  -15.8211 N   0  0  0  0  0  0  0  0  0  0  0  0
   22.9246   -8.4123  -15.0377 C   0  0  0  0  0  0  0  0  0  0  0  0
   23.1027   -8.5302  -13.8013 O   0  0  0  0  0  0  0  0  0  0  0  0
   22.9405   -7.0970  -15.5704 N   0  0  0  0  0  0  0  0  0  0  0  0
   23.2640   -5.9353  -14.7536 C   0  0  0  0  0  0  0  0  0  0  0  0
   22.0004   -5.2723  -14.3590 C   0  0  0  0  0  0  0  0  0  0  0  0
   21.9870   -4.2395  -13.6390 O   0  0  0  0  0  0  0  0  0  0  0  0
   20.8023   -5.8457  -14.8235 O   0  0  0  0  0  0  0  0  0  0  0  0
  2  4  1  0
  2  1  1  1
  3  2  1  0
  4  5  1  6
  6  4  1  0
  6  7  2  0
  8  9  1  0
  9 10  1  0
 10 11  1  6
 10 12  1  0
 12 13  1  1
 12 14  1  0
 13  6  1  0
 14 15  2  0
 14 16  1  0
 16 17  1  0
 17 18  1  0
 18 20  1  0
 19 18  2  0
M  END
$$$$
