VIG.pdb
     RDKit          3D

 20 19  0  0  1  0  0  0  0  0999 V2000
   19.9286  -20.0801  -17.6342 C   0  0  0  0  0  0  0  0  0  0  0  0
   20.5250  -18.8661  -16.9540 C   0  0  1  0  0  0  0  0  0  0  0  0
   19.6183  -18.5224  -15.7912 C   0  0  0  0  0  0  0  0  0  0  0  0
   21.8887  -19.1548  -16.3798 C   0  0  2  0  0  0  0  0  0  0  0  0
   21.8070  -20.2810  -15.5047 N   0  0  0  0  0  0  0  0  0  0  0  0
   22.4186  -17.9325  -15.6486 C   0  0  0  0  0  0  0  0  0  0  0  0
   22.2239  -17.9030  -14.4208 O   0  0  0  0  0  0  0  0  0  0  0  0
   27.4795  -14.7290  -15.4397 C   0  0  0  0  0  0  0  0  0  0  0  0
   25.9534  -14.6280  -15.2427 C   0  0  0  0  0  0  0  0  0  0  0  0
   25.2552  -15.7539  -15.9174 C   0  0  2  0  0  0  0  0  0  0  0  0
   25.8518  -16.0939  -17.2597 C   0  0  0  0  0  0  0  0  0  0  0  0
   23.7752  -15.7524  -15.8424 C   0  0  2  0  0  0  0  0  0  0  0  0
   23.0835  -16.9109  -16.3320 N   0  0  0  0  0  0  0  0  0  0  0  0
   23.1211  -14.4817  -16.1362 C   0  0  0  0  0  0  0  0  0  0  0  0
   23.4983  -13.4114  -15.6009 O   0  0  0  0  0  0  0  0  0  0  0  0
   22.0301  -14.4026  -17.0403 N   0  0  0  0  0  0  0  0  0  0  0  0
   21.4457  -13.1292  -17.4381 C   0  0  0  0  0  0  0  0  0  0  0  0
   20.1425  -12.9761  -16.7524 C   0  0  0  0  0  0  0  0  0  0  0  0
   19.6964  -13.8529  -15.9667 O   0  0  0  0  0  0  0  0  0  0  0  0
   19.4132  -11.8015  -17.0144 O   0  0  0  0  0  0  0  0  0  0  0  0
  2  4  1  0
  2  1  1  1
  3  2  1  0
  4  5  1  1
  6  4  1  0
  6  7  2  0
  8  9  1  0
  9 10  1  0
 10 11  1  6
 10 12  1  0
 12 13  1  6
 12 14  1  0
 13  6  1  0
 14 15  2  0
 14 16  1  0
 16 17  1  0
 17 18  1  0
 18 20  1  0
 19 18  2  0
M  END
$$$$
