VIG.pdb
     RDKit          3D

 20 19  0  0  1  0  0  0  0  0999 V2000
   19.8920   -8.7644  -20.8969 C   0  0  0  0  0  0  0  0  0  0  0  0
   19.8564   -8.2525  -19.4725 C   0  0  1  0  0  0  0  0  0  0  0  0
   18.5412   -7.5227  -19.2991 C   0  0  0  0  0  0  0  0  0  0  0  0
   19.8726   -9.3773  -18.4687 C   0  0  2  0  0  0  0  0  0  0  0  0
   18.7502  -10.2319  -18.6949 N   0  0  0  0  0  0  0  0  0  0  0  0
   19.8573   -8.8185  -17.0556 C   0  0  0  0  0  0  0  0  0  0  0  0
   18.7399   -8.7191  -16.5191 O   0  0  0  0  0  0  0  0  0  0  0  0
   22.4928   -9.6989  -11.8075 C   0  0  0  0  0  0  0  0  0  0  0  0
   22.1109   -8.5292  -12.7369 C   0  0  0  0  0  0  0  0  0  0  0  0
   21.8028   -9.0181  -14.1068 C   0  0  2  0  0  0  0  0  0  0  0  0
   22.8511   -9.9599  -14.6430 C   0  0  0  0  0  0  0  0  0  0  0  0
   21.2760   -8.0154  -15.0623 C   0  0  2  0  0  0  0  0  0  0  0  0
   21.0394   -8.4432  -16.4119 N   0  0  0  0  0  0  0  0  0  0  0  0
   21.8158   -6.6658  -14.9358 C   0  0  0  0  0  0  0  0  0  0  0  0
   23.0306   -6.4245  -15.1361 O   0  0  0  0  0  0  0  0  0  0  0  0
   20.9889   -5.5684  -14.5806 N   0  0  0  0  0  0  0  0  0  0  0  0
   21.4959   -4.2042  -14.5240 C   0  0  0  0  0  0  0  0  0  0  0  0
   20.3675   -3.2964  -14.2164 C   0  0  0  0  0  0  0  0  0  0  0  0
   19.1765   -3.7033  -14.1794 O   0  0  0  0  0  0  0  0  0  0  0  0
   20.6790   -1.9475  -13.9643 O   0  0  0  0  0  0  0  0  0  0  0  0
  2  4  1  0
  2  1  1  6
  3  2  1  0
  4  5  1  6
  6  4  1  0
  6  7  2  0
  8  9  1  0
  9 10  1  0
 10 11  1  6
 10 12  1  0
 12 13  1  6
 12 14  1  0
 13  6  1  0
 14 15  2  0
 14 16  1  0
 16 17  1  0
 17 18  1  0
 18 20  1  0
 19 18  2  0
M  END
$$$$
