MHM.pdb
     RDKit          3D

 27 27  0  0  1  0  0  0  0  0999 V2000
    8.0193  -11.8346   20.3911 C   0  0  0  0  0  0  0  0  0  0  0  0
    7.9965  -12.7752   18.8275 S   0  0  0  0  0  0  0  0  0  0  0  0
    7.4066  -14.4527   19.1043 C   0  0  0  0  0  0  0  0  0  0  0  0
    7.1832  -14.7743   20.5429 C   0  0  0  0  0  0  0  0  0  0  0  0
    8.4083  -15.4113   21.1299 C   0  0  2  0  0  0  0  0  0  0  0  0
    8.9461  -16.4562   20.3181 N   0  0  0  0  0  0  0  0  0  0  0  0
    8.0725  -15.8514   22.4977 C   0  0  0  0  0  0  0  0  0  0  0  0
    7.1797  -15.2269   23.1365 O   0  0  0  0  0  0  0  0  0  0  0  0
    8.7198  -16.9361   23.0956 N   0  0  0  0  0  0  0  0  0  0  0  0
    8.4194  -17.2866   24.4837 C   0  0  1  0  0  0  0  0  0  0  0  0
    8.5975  -18.7404   24.7325 C   0  0  0  0  0  0  0  0  0  0  0  0
    7.5873  -19.5421   24.0197 C   0  0  0  0  0  0  0  0  0  0  0  0
    6.2550  -19.6910   24.3724 C   0  0  0  0  0  0  0  0  0  0  0  0
    5.6627  -20.5134   23.5134 N   0  0  0  0  0  0  0  0  0  0  0  0
    6.6048  -20.8784   22.6334 C   0  0  0  0  0  0  0  0  0  0  0  0
    7.7638  -20.3094   22.9171 N   0  0  0  0  0  0  0  0  0  0  0  0
    9.3526  -16.5112   25.3355 C   0  0  0  0  0  0  0  0  0  0  0  0
   10.5852  -16.4264   25.0428 O   0  0  0  0  0  0  0  0  0  0  0  0
    5.9710  -11.2527   25.8694 C   0  0  0  0  0  0  0  0  0  0  0  0
    6.7159  -12.2548   27.1471 S   0  0  0  0  0  0  0  0  0  0  0  0
    8.2650  -12.9685   26.7904 C   0  0  0  0  0  0  0  0  0  0  0  0
    9.0536  -13.8063   27.6809 C   0  0  0  0  0  0  0  0  0  0  0  0
    9.7346  -15.0421   27.3197 C   0  0  2  0  0  0  0  0  0  0  0  0
    8.8316  -15.8680   26.4845 N   0  0  0  0  0  0  0  0  0  0  0  0
   10.2825  -15.9089   28.3592 C   0  0  0  0  0  0  0  0  0  0  0  0
    9.9022  -17.0348   28.6835 O   0  0  0  0  0  0  0  0  0  0  0  0
   11.3905  -15.4062   29.0954 O   0  0  0  0  0  0  0  0  0  0  0  0
  2  1  1  0
  3  2  1  0
  4  3  1  0
  4  5  1  0
  5  6  1  6
  7  5  1  0
  7  8  2  0
  9  7  1  0
 10  9  1  0
 10 11  1  6
 11 12  1  0
 12 13  2  0
 13 14  1  0
 15 14  1  0
 16 12  1  0
 16 15  2  0
 17 10  1  0
 18 17  2  0
 20 19  1  0
 21 20  1  0
 21 22  1  0
 23 22  1  1
 23 25  1  0
 23 24  1  0
 24 17  1  0
 25 27  1  0
 26 25  2  0
M  END
$$$$
