MHM.pdb
     RDKit          3D

 27 27  0  0  1  0  0  0  0  0999 V2000
    8.9489  -11.5550   20.7252 C   0  0  0  0  0  0  0  0  0  0  0  0
    7.5659  -11.9165   19.5909 S   0  0  0  0  0  0  0  0  0  0  0  0
    7.3840  -13.6915   19.3569 C   0  0  0  0  0  0  0  0  0  0  0  0
    7.7408  -14.4898   20.5645 C   0  0  0  0  0  0  0  0  0  0  0  0
    7.6642  -15.9569   20.2597 C   0  0  2  0  0  0  0  0  0  0  0  0
    6.3683  -16.3780   19.8311 N   0  0  0  0  0  0  0  0  0  0  0  0
    8.1503  -16.6868   21.4464 C   0  0  0  0  0  0  0  0  0  0  0  0
    7.3148  -17.2975   22.1703 O   0  0  0  0  0  0  0  0  0  0  0  0
    9.5065  -16.7132   21.7827 N   0  0  0  0  0  0  0  0  0  0  0  0
    9.9987  -17.7042   22.7397 C   0  0  1  0  0  0  0  0  0  0  0  0
   11.3166  -18.2540   22.3299 C   0  0  0  0  0  0  0  0  0  0  0  0
   11.8328  -19.2211   23.3145 C   0  0  0  0  0  0  0  0  0  0  0  0
   12.3512  -18.9256   24.5658 C   0  0  0  0  0  0  0  0  0  0  0  0
   12.7456  -20.0495   25.1542 N   0  0  0  0  0  0  0  0  0  0  0  0
   12.4817  -21.0382   24.2893 C   0  0  0  0  0  0  0  0  0  0  0  0
   11.9355  -20.5655   23.1821 N   0  0  0  0  0  0  0  0  0  0  0  0
   10.1238  -17.0159   24.0467 C   0  0  0  0  0  0  0  0  0  0  0  0
   10.9380  -17.4323   24.9276 O   0  0  0  0  0  0  0  0  0  0  0  0
    6.0582  -11.9144   27.0135 C   0  0  0  0  0  0  0  0  0  0  0  0
    6.4299  -12.2054   25.2904 S   0  0  0  0  0  0  0  0  0  0  0  0
    7.6189  -13.4282   24.9331 C   0  0  0  0  0  0  0  0  0  0  0  0
    7.9483  -14.5782   25.7613 C   0  0  0  0  0  0  0  0  0  0  0  0
    9.1591  -15.3828   25.6726 C   0  0  2  0  0  0  0  0  0  0  0  0
    9.3102  -15.8819   24.2858 N   0  0  0  0  0  0  0  0  0  0  0  0
    9.3524  -16.5191   26.5691 C   0  0  0  0  0  0  0  0  0  0  0  0
    8.8818  -17.6529   26.4658 O   0  0  0  0  0  0  0  0  0  0  0  0
   10.1826  -16.3067   27.7040 O   0  0  0  0  0  0  0  0  0  0  0  0
  2  1  1  0
  3  2  1  0
  4  3  1  0
  4  5  1  0
  5  6  1  1
  7  5  1  0
  7  8  2  0
  9  7  1  0
 10  9  1  0
 10 11  1  6
 11 12  1  0
 12 13  2  0
 13 14  1  0
 15 14  1  0
 16 12  1  0
 16 15  2  0
 17 10  1  0
 18 17  2  0
 20 19  1  0
 21 20  1  0
 21 22  1  0
 23 22  1  6
 23 25  1  0
 23 24  1  0
 24 17  1  0
 25 27  1  0
 26 25  2  0
M  END
$$$$
