MHM.pdb
     RDKit          3D

 27 27  0  0  1  0  0  0  0  0999 V2000
    9.0188  -11.6316   19.6571 C   0  0  0  0  0  0  0  0  0  0  0  0
    7.3306  -12.3208   19.7276 S   0  0  0  0  0  0  0  0  0  0  0  0
    7.3735  -14.1171   19.6280 C   0  0  0  0  0  0  0  0  0  0  0  0
    8.6336  -14.6495   19.0349 C   0  0  0  0  0  0  0  0  0  0  0  0
    8.5488  -16.1399   18.8844 C   0  0  2  0  0  0  0  0  0  0  0  0
    7.3248  -16.5794   18.2937 N   0  0  0  0  0  0  0  0  0  0  0  0
    8.8039  -16.7389   20.2086 C   0  0  0  0  0  0  0  0  0  0  0  0
    7.8220  -16.9956   20.9602 O   0  0  0  0  0  0  0  0  0  0  0  0
   10.1010  -17.0234   20.6438 N   0  0  0  0  0  0  0  0  0  0  0  0
   10.3128  -17.5896   21.9760 C   0  0  1  0  0  0  0  0  0  0  0  0
   11.6593  -18.2046   22.1021 C   0  0  0  0  0  0  0  0  0  0  0  0
   11.7650  -19.4482   21.3188 C   0  0  0  0  0  0  0  0  0  0  0  0
   10.7380  -20.3372   21.0418 C   0  0  0  0  0  0  0  0  0  0  0  0
   11.2178  -21.3571   20.3387 N   0  0  0  0  0  0  0  0  0  0  0  0
   12.5259  -21.1172   20.1749 C   0  0  0  0  0  0  0  0  0  0  0  0
   12.8749  -19.9808   20.7530 N   0  0  0  0  0  0  0  0  0  0  0  0
   10.1744  -16.4759   22.9446 C   0  0  0  0  0  0  0  0  0  0  0  0
   10.7532  -15.3633   22.7460 O   0  0  0  0  0  0  0  0  0  0  0  0
    6.1450  -11.3518   26.7635 C   0  0  0  0  0  0  0  0  0  0  0  0
    6.3732  -12.6873   25.5990 S   0  0  0  0  0  0  0  0  0  0  0  0
    7.7867  -13.6850   25.8065 C   0  0  0  0  0  0  0  0  0  0  0  0
    8.1845  -14.8021   24.9635 C   0  0  0  0  0  0  0  0  0  0  0  0
    9.3535  -15.6497   25.1546 C   0  0  2  0  0  0  0  0  0  0  0  0
    9.3793  -16.6870   24.0971 N   0  0  0  0  0  0  0  0  0  0  0  0
    9.5709  -16.3227   26.4321 C   0  0  0  0  0  0  0  0  0  0  0  0
    9.5528  -17.5328   26.6624 O   0  0  0  0  0  0  0  0  0  0  0  0
    9.8373  -15.4940   27.5566 O   0  0  0  0  0  0  0  0  0  0  0  0
  2  1  1  0
  3  2  1  0
  4  3  1  0
  4  5  1  0
  5  6  1  1
  7  5  1  0
  7  8  2  0
  9  7  1  0
 10  9  1  0
 10 11  1  6
 11 12  1  0
 12 13  2  0
 13 14  1  0
 15 14  1  0
 16 12  1  0
 16 15  2  0
 17 10  1  0
 18 17  2  0
 20 19  1  0
 21 20  1  0
 21 22  1  0
 23 22  1  1
 23 25  1  0
 23 24  1  0
 24 17  1  0
 25 27  1  0
 26 25  2  0
M  END
$$$$
