MHM.pdb
     RDKit          3D

 27 27  0  0  1  0  0  0  0  0999 V2000
    4.5759  -11.0402   26.9510 C   0  0  0  0  0  0  0  0  0  0  0  0
    6.1182  -11.8848   26.4633 S   0  0  0  0  0  0  0  0  0  0  0  0
    5.7630  -13.2866   25.3922 C   0  0  0  0  0  0  0  0  0  0  0  0
    6.9800  -14.0425   24.9795 C   0  0  0  0  0  0  0  0  0  0  0  0
    6.6005  -15.2056   24.1109 C   0  0  2  0  0  0  0  0  0  0  0  0
    5.7878  -16.1701   24.7813 N   0  0  0  0  0  0  0  0  0  0  0  0
    7.8438  -15.7759   23.5577 C   0  0  0  0  0  0  0  0  0  0  0  0
    8.2267  -16.9093   23.9625 O   0  0  0  0  0  0  0  0  0  0  0  0
    8.6006  -15.0904   22.6037 N   0  0  0  0  0  0  0  0  0  0  0  0
    9.7312  -15.7567   21.9572 C   0  0  1  0  0  0  0  0  0  0  0  0
   10.2294  -14.9827   20.7910 C   0  0  0  0  0  0  0  0  0  0  0  0
    9.1661  -14.7505   19.7978 C   0  0  0  0  0  0  0  0  0  0  0  0
    8.5338  -13.5453   19.5343 C   0  0  0  0  0  0  0  0  0  0  0  0
    7.6081  -13.7302   18.5995 N   0  0  0  0  0  0  0  0  0  0  0  0
    7.6541  -15.0302   18.2783 C   0  0  0  0  0  0  0  0  0  0  0  0
    8.5787  -15.6597   18.9829 N   0  0  0  0  0  0  0  0  0  0  0  0
   10.8008  -15.8770   22.9767 C   0  0  0  0  0  0  0  0  0  0  0  0
   11.6095  -14.9215   23.1892 O   0  0  0  0  0  0  0  0  0  0  0  0
   10.5519  -14.5793   29.9610 C   0  0  0  0  0  0  0  0  0  0  0  0
   10.6225  -14.5492   28.1761 S   0  0  0  0  0  0  0  0  0  0  0  0
   10.5097  -16.0814   27.3539 C   0  0  0  0  0  0  0  0  0  0  0  0
   10.4381  -16.2842   25.9150 C   0  0  0  0  0  0  0  0  0  0  0  0
   11.3788  -17.0477   25.1066 C   0  0  2  0  0  0  0  0  0  0  0  0
   10.8958  -17.0868   23.7065 N   0  0  0  0  0  0  0  0  0  0  0  0
   11.7321  -18.4130   25.4850 C   0  0  0  0  0  0  0  0  0  0  0  0
   11.3926  -19.4622   24.9358 O   0  0  0  0  0  0  0  0  0  0  0  0
   12.5697  -18.5666   26.6239 O   0  0  0  0  0  0  0  0  0  0  0  0
  2  1  1  0
  3  2  1  0
  4  3  1  0
  4  5  1  0
  5  6  1  1
  7  5  1  0
  7  8  2  0
  9  7  1  0
 10  9  1  0
 10 11  1  6
 11 12  1  0
 12 13  2  0
 13 14  1  0
 15 14  1  0
 16 12  1  0
 16 15  2  0
 17 10  1  0
 18 17  2  0
 20 19  1  0
 21 20  1  0
 21 22  1  0
 23 22  1  1
 23 25  1  0
 23 24  1  0
 24 17  1  0
 25 27  1  0
 26 25  2  0
M  END
$$$$
