MHM.pdb
     RDKit          3D

 27 27  0  0  1  0  0  0  0  0999 V2000
    8.8100  -11.3682   20.0234 C   0  0  0  0  0  0  0  0  0  0  0  0
    7.7069  -12.2227   18.8474 S   0  0  0  0  0  0  0  0  0  0  0  0
    8.1399  -13.9650   18.7220 C   0  0  0  0  0  0  0  0  0  0  0  0
    8.2135  -14.6555   20.0414 C   0  0  0  0  0  0  0  0  0  0  0  0
    8.6502  -16.0793   19.8599 C   0  0  2  0  0  0  0  0  0  0  0  0
    7.7428  -16.8529   19.0735 N   0  0  0  0  0  0  0  0  0  0  0  0
    8.8900  -16.6485   21.1999 C   0  0  0  0  0  0  0  0  0  0  0  0
    7.9009  -17.0364   21.8828 O   0  0  0  0  0  0  0  0  0  0  0  0
   10.1802  -16.7638   21.7243 N   0  0  0  0  0  0  0  0  0  0  0  0
   10.3828  -17.4115   23.0203 C   0  0  1  0  0  0  0  0  0  0  0  0
   11.6761  -18.1409   23.0720 C   0  0  0  0  0  0  0  0  0  0  0  0
   11.5814  -19.4627   22.4277 C   0  0  0  0  0  0  0  0  0  0  0  0
   10.4362  -20.0454   21.9074 C   0  0  0  0  0  0  0  0  0  0  0  0
   10.7320  -21.2527   21.4386 N   0  0  0  0  0  0  0  0  0  0  0  0
   12.0416  -21.4302   21.6595 C   0  0  0  0  0  0  0  0  0  0  0  0
   12.5698  -20.3721   22.2502 N   0  0  0  0  0  0  0  0  0  0  0  0
   10.3669  -16.3400   24.0447 C   0  0  0  0  0  0  0  0  0  0  0  0
   11.2192  -15.3992   24.0175 O   0  0  0  0  0  0  0  0  0  0  0  0
    5.8977  -11.9770   26.0054 C   0  0  0  0  0  0  0  0  0  0  0  0
    7.2598  -12.1131   27.1535 S   0  0  0  0  0  0  0  0  0  0  0  0
    7.9924  -13.6843   27.3292 C   0  0  0  0  0  0  0  0  0  0  0  0
    8.3441  -14.5966   26.2518 C   0  0  0  0  0  0  0  0  0  0  0  0
    9.4898  -15.4956   26.2261 C   0  0  2  0  0  0  0  0  0  0  0  0
    9.3754  -16.3948   25.0542 N   0  0  0  0  0  0  0  0  0  0  0  0
    9.7961  -16.3273   27.3866 C   0  0  0  0  0  0  0  0  0  0  0  0
    9.6318  -17.5418   27.5115 O   0  0  0  0  0  0  0  0  0  0  0  0
   10.3527  -15.6698   28.5180 O   0  0  0  0  0  0  0  0  0  0  0  0
  2  1  1  0
  3  2  1  0
  4  3  1  0
  4  5  1  0
  5  6  1  1
  7  5  1  0
  7  8  2  0
  9  7  1  0
 10  9  1  0
 10 11  1  6
 11 12  1  0
 12 13  2  0
 13 14  1  0
 15 14  1  0
 16 12  1  0
 16 15  2  0
 17 10  1  0
 18 17  2  0
 20 19  1  0
 21 20  1  0
 21 22  1  0
 23 22  1  1
 23 25  1  0
 23 24  1  0
 24 17  1  0
 25 27  1  0
 26 25  2  0
M  END
$$$$
