MHM.pdb
     RDKit          3D

 27 27  0  0  1  0  0  0  0  0999 V2000
    6.9021  -11.2996   27.4301 C   0  0  0  0  0  0  0  0  0  0  0  0
    5.8663  -11.6279   25.9641 S   0  0  0  0  0  0  0  0  0  0  0  0
    5.3618  -13.3547   25.9170 C   0  0  0  0  0  0  0  0  0  0  0  0
    6.0011  -14.1308   24.8161 C   0  0  0  0  0  0  0  0  0  0  0  0
    7.3731  -14.5799   25.2249 C   0  0  2  0  0  0  0  0  0  0  0  0
    8.2213  -13.5055   25.6327 N   0  0  0  0  0  0  0  0  0  0  0  0
    7.9333  -15.3746   24.1150 C   0  0  0  0  0  0  0  0  0  0  0  0
    7.3071  -16.3987   23.7225 O   0  0  0  0  0  0  0  0  0  0  0  0
    9.1349  -15.0193   23.4962 N   0  0  0  0  0  0  0  0  0  0  0  0
    9.7575  -15.9336   22.5388 C   0  0  1  0  0  0  0  0  0  0  0  0
   10.1736  -15.2286   21.2991 C   0  0  0  0  0  0  0  0  0  0  0  0
    9.0369  -14.5519   20.6502 C   0  0  0  0  0  0  0  0  0  0  0  0
    8.8422  -13.1832   20.5479 C   0  0  0  0  0  0  0  0  0  0  0  0
    7.6916  -12.9486   19.9267 N   0  0  0  0  0  0  0  0  0  0  0  0
    7.1677  -14.1485   19.6420 C   0  0  0  0  0  0  0  0  0  0  0  0
    7.9556  -15.1218   20.0658 N   0  0  0  0  0  0  0  0  0  0  0  0
   10.9437  -16.5175   23.2093 C   0  0  0  0  0  0  0  0  0  0  0  0
   12.1087  -16.0663   22.9829 O   0  0  0  0  0  0  0  0  0  0  0  0
   10.3262  -13.3713   27.9514 C   0  0  0  0  0  0  0  0  0  0  0  0
   10.6552  -14.9878   28.6373 S   0  0  0  0  0  0  0  0  0  0  0  0
   11.3794  -16.1649   27.5762 C   0  0  0  0  0  0  0  0  0  0  0  0
   10.9091  -16.5347   26.2500 C   0  0  0  0  0  0  0  0  0  0  0  0
   11.4556  -17.5893   25.4071 C   0  0  2  0  0  0  0  0  0  0  0  0
   10.7417  -17.5924   24.1088 N   0  0  0  0  0  0  0  0  0  0  0  0
   11.4933  -18.9676   25.8880 C   0  0  0  0  0  0  0  0  0  0  0  0
   10.7688  -19.9058   25.5529 O   0  0  0  0  0  0  0  0  0  0  0  0
   12.4815  -19.2804   26.8616 O   0  0  0  0  0  0  0  0  0  0  0  0
  2  1  1  0
  3  2  1  0
  4  3  1  0
  4  5  1  0
  5  6  1  6
  7  5  1  0
  7  8  2  0
  9  7  1  0
 10  9  1  0
 10 11  1  6
 11 12  1  0
 12 13  2  0
 13 14  1  0
 15 14  1  0
 16 12  1  0
 16 15  2  0
 17 10  1  0
 18 17  2  0
 20 19  1  0
 21 20  1  0
 21 22  1  0
 23 22  1  1
 23 25  1  0
 23 24  1  0
 24 17  1  0
 25 27  1  0
 26 25  2  0
M  END
$$$$
