MHM.pdb
     RDKit          3D

 27 27  0  0  1  0  0  0  0  0999 V2000
    7.4217  -11.5016   19.5459 C   0  0  0  0  0  0  0  0  0  0  0  0
    7.0484  -12.8091   18.3290 S   0  0  0  0  0  0  0  0  0  0  0  0
    8.0447  -14.2740   18.6453 C   0  0  0  0  0  0  0  0  0  0  0  0
    8.7777  -14.2254   19.9428 C   0  0  0  0  0  0  0  0  0  0  0  0
    9.6666  -15.4258   20.0835 C   0  0  2  0  0  0  0  0  0  0  0  0
    9.3523  -16.4726   19.1639 N   0  0  0  0  0  0  0  0  0  0  0  0
    9.6177  -15.8563   21.4941 C   0  0  0  0  0  0  0  0  0  0  0  0
    9.8020  -14.9960   22.4001 O   0  0  0  0  0  0  0  0  0  0  0  0
    9.3754  -17.1875   21.8435 N   0  0  0  0  0  0  0  0  0  0  0  0
   10.1871  -17.8263   22.8794 C   0  0  1  0  0  0  0  0  0  0  0  0
   11.5453  -18.1638   22.3809 C   0  0  0  0  0  0  0  0  0  0  0  0
   11.5152  -19.3059   21.4504 C   0  0  0  0  0  0  0  0  0  0  0  0
   10.6997  -20.4231   21.5436 C   0  0  0  0  0  0  0  0  0  0  0  0
   10.9778  -21.2542   20.5452 N   0  0  0  0  0  0  0  0  0  0  0  0
   11.9529  -20.6725   19.8337 C   0  0  0  0  0  0  0  0  0  0  0  0
   12.2899  -19.5064   20.3572 N   0  0  0  0  0  0  0  0  0  0  0  0
   10.2868  -16.8643   24.0029 C   0  0  0  0  0  0  0  0  0  0  0  0
   11.1353  -15.9200   23.9793 O   0  0  0  0  0  0  0  0  0  0  0  0
    7.0119  -11.4006   26.6772 C   0  0  0  0  0  0  0  0  0  0  0  0
    6.6666  -13.0860   27.1589 S   0  0  0  0  0  0  0  0  0  0  0  0
    8.0167  -14.1863   27.2113 C   0  0  0  0  0  0  0  0  0  0  0  0
    8.3490  -15.1912   26.2130 C   0  0  0  0  0  0  0  0  0  0  0  0
    9.4993  -16.0840   26.2417 C   0  0  2  0  0  0  0  0  0  0  0  0
    9.4103  -17.0277   25.1029 N   0  0  0  0  0  0  0  0  0  0  0  0
    9.7890  -16.8694   27.4381 C   0  0  0  0  0  0  0  0  0  0  0  0
    9.9629  -16.4612   28.5873 O   0  0  0  0  0  0  0  0  0  0  0  0
    9.8848  -18.2786   27.2728 O   0  0  0  0  0  0  0  0  0  0  0  0
  2  1  1  0
  3  2  1  0
  4  3  1  0
  4  5  1  0
  5  6  1  6
  7  5  1  0
  7  8  2  0
  9  7  1  0
 10  9  1  0
 10 11  1  6
 11 12  1  0
 12 13  2  0
 13 14  1  0
 15 14  1  0
 16 12  1  0
 16 15  2  0
 17 10  1  0
 18 17  2  0
 20 19  1  0
 21 20  1  0
 21 22  1  0
 23 22  1  1
 23 25  1  0
 23 24  1  0
 24 17  1  0
 25 27  1  0
 26 25  2  0
M  END
$$$$
