MHM.pdb
     RDKit          3D

 27 27  0  0  1  0  0  0  0  0999 V2000
    8.3012  -11.7771   19.1143 C   0  0  0  0  0  0  0  0  0  0  0  0
    7.2279  -13.2453   18.9648 S   0  0  0  0  0  0  0  0  0  0  0  0
    8.0131  -14.6841   19.7078 C   0  0  0  0  0  0  0  0  0  0  0  0
    8.9580  -14.3428   20.8095 C   0  0  0  0  0  0  0  0  0  0  0  0
    9.5740  -15.5900   21.3716 C   0  0  2  0  0  0  0  0  0  0  0  0
    9.4873  -16.7102   20.4896 N   0  0  0  0  0  0  0  0  0  0  0  0
    8.9592  -15.8383   22.6898 C   0  0  0  0  0  0  0  0  0  0  0  0
    8.4636  -14.8649   23.3237 O   0  0  0  0  0  0  0  0  0  0  0  0
    8.9169  -17.1195   23.2463 N   0  0  0  0  0  0  0  0  0  0  0  0
    8.3451  -17.3146   24.5787 C   0  0  1  0  0  0  0  0  0  0  0  0
    7.8823  -18.7124   24.7768 C   0  0  0  0  0  0  0  0  0  0  0  0
    6.8089  -19.0692   23.8325 C   0  0  0  0  0  0  0  0  0  0  0  0
    6.2430  -18.2396   22.8769 C   0  0  0  0  0  0  0  0  0  0  0  0
    5.2836  -18.8984   22.2362 N   0  0  0  0  0  0  0  0  0  0  0  0
    5.2434  -20.1231   22.7782 C   0  0  0  0  0  0  0  0  0  0  0  0
    6.1471  -20.2474   23.7350 N   0  0  0  0  0  0  0  0  0  0  0  0
    9.4118  -16.9931   25.5566 C   0  0  0  0  0  0  0  0  0  0  0  0
   10.1334  -17.9092   26.0591 O   0  0  0  0  0  0  0  0  0  0  0  0
    5.5503  -12.0940   26.5571 C   0  0  0  0  0  0  0  0  0  0  0  0
    6.9966  -12.2057   27.5998 S   0  0  0  0  0  0  0  0  0  0  0  0
    8.2771  -13.2601   27.0661 C   0  0  0  0  0  0  0  0  0  0  0  0
    8.8316  -14.3847   27.8041 C   0  0  0  0  0  0  0  0  0  0  0  0
    9.8654  -15.2963   27.3332 C   0  0  2  0  0  0  0  0  0  0  0  0
    9.6035  -15.6367   25.9152 N   0  0  0  0  0  0  0  0  0  0  0  0
   10.1198  -16.5469   28.0428 C   0  0  0  0  0  0  0  0  0  0  0  0
   11.0473  -16.8055   28.8112 O   0  0  0  0  0  0  0  0  0  0  0  0
    9.1926  -17.6042   27.8317 O   0  0  0  0  0  0  0  0  0  0  0  0
  2  1  1  0
  3  2  1  0
  4  3  1  0
  4  5  1  0
  5  6  1  6
  7  5  1  0
  7  8  2  0
  9  7  1  0
 10  9  1  0
 10 11  1  6
 11 12  1  0
 12 13  2  0
 13 14  1  0
 15 14  1  0
 16 12  1  0
 16 15  2  0
 17 10  1  0
 18 17  2  0
 20 19  1  0
 21 20  1  0
 21 22  1  0
 23 22  1  1
 23 25  1  0
 23 24  1  0
 24 17  1  0
 25 27  1  0
 26 25  2  0
M  END
$$$$
