MHM.pdb
     RDKit          3D

 27 27  0  0  1  0  0  0  0  0999 V2000
    7.8863  -11.5253   19.6572 C   0  0  0  0  0  0  0  0  0  0  0  0
    7.6460  -12.7247   18.3030 S   0  0  0  0  0  0  0  0  0  0  0  0
    7.9765  -14.3996   18.8722 C   0  0  0  0  0  0  0  0  0  0  0  0
    7.6508  -14.6132   20.3114 C   0  0  0  0  0  0  0  0  0  0  0  0
    8.7286  -15.4192   20.9746 C   0  0  2  0  0  0  0  0  0  0  0  0
    9.1454  -16.5476   20.2044 N   0  0  0  0  0  0  0  0  0  0  0  0
    8.2521  -15.7796   22.3239 C   0  0  0  0  0  0  0  0  0  0  0  0
    7.5965  -14.9271   22.9861 O   0  0  0  0  0  0  0  0  0  0  0  0
    8.5121  -17.0354   22.8790 N   0  0  0  0  0  0  0  0  0  0  0  0
    8.0470  -17.3426   24.2316 C   0  0  1  0  0  0  0  0  0  0  0  0
    8.0037  -18.8072   24.4766 C   0  0  0  0  0  0  0  0  0  0  0  0
    7.0551  -19.4822   23.5734 C   0  0  0  0  0  0  0  0  0  0  0  0
    5.7720  -19.0601   23.2617 C   0  0  0  0  0  0  0  0  0  0  0  0
    5.2074  -19.9399   22.4418 N   0  0  0  0  0  0  0  0  0  0  0  0
    6.1179  -20.9019   22.2395 C   0  0  0  0  0  0  0  0  0  0  0  0
    7.2306  -20.6486   22.9068 N   0  0  0  0  0  0  0  0  0  0  0  0
    8.9990  -16.7022   25.1704 C   0  0  0  0  0  0  0  0  0  0  0  0
   10.2385  -16.6418   24.9018 O   0  0  0  0  0  0  0  0  0  0  0  0
    6.1776  -12.0188   26.1267 C   0  0  0  0  0  0  0  0  0  0  0  0
    7.8501  -11.7002   26.6681 S   0  0  0  0  0  0  0  0  0  0  0  0
    8.9538  -13.0486   26.6628 C   0  0  0  0  0  0  0  0  0  0  0  0
    8.9615  -14.1598   27.6019 C   0  0  0  0  0  0  0  0  0  0  0  0
    9.4211  -15.5144   27.3272 C   0  0  2  0  0  0  0  0  0  0  0  0
    8.4880  -16.1601   26.3746 N   0  0  0  0  0  0  0  0  0  0  0  0
    9.6419  -16.4512   28.4253 C   0  0  0  0  0  0  0  0  0  0  0  0
    9.0281  -17.4916   28.6670 O   0  0  0  0  0  0  0  0  0  0  0  0
   10.6896  -16.1383   29.3345 O   0  0  0  0  0  0  0  0  0  0  0  0
  2  1  1  0
  3  2  1  0
  4  3  1  0
  4  5  1  0
  5  6  1  6
  7  5  1  0
  7  8  2  0
  9  7  1  0
 10  9  1  0
 10 11  1  1
 11 12  1  0
 12 13  2  0
 13 14  1  0
 15 14  1  0
 16 12  1  0
 16 15  2  0
 17 10  1  0
 18 17  2  0
 20 19  1  0
 21 20  1  0
 21 22  1  0
 23 22  1  1
 23 25  1  0
 23 24  1  0
 24 17  1  0
 25 27  1  0
 26 25  2  0
M  END
$$$$
