MHM.pdb
     RDKit          3D

 27 27  0  0  1  0  0  0  0  0999 V2000
   11.5970  -15.6815   15.1882 C   0  0  0  0  0  0  0  0  0  0  0  0
   11.2094  -17.4507   15.4108 S   0  0  0  0  0  0  0  0  0  0  0  0
   11.4342  -17.9388   17.1282 C   0  0  0  0  0  0  0  0  0  0  0  0
   11.9914  -16.8541   17.9862 C   0  0  0  0  0  0  0  0  0  0  0  0
   12.0869  -17.3149   19.4109 C   0  0  2  0  0  0  0  0  0  0  0  0
   11.6765  -18.6706   19.5950 N   0  0  0  0  0  0  0  0  0  0  0  0
   11.3295  -16.3596   20.2422 C   0  0  0  0  0  0  0  0  0  0  0  0
   11.6634  -15.1417   20.2278 O   0  0  0  0  0  0  0  0  0  0  0  0
   10.2597  -16.7740   21.0402 N   0  0  0  0  0  0  0  0  0  0  0  0
    9.4646  -15.7811   21.7627 C   0  0  1  0  0  0  0  0  0  0  0  0
    8.0398  -15.8094   21.3428 C   0  0  0  0  0  0  0  0  0  0  0  0
    7.8185  -15.0247   20.1155 C   0  0  0  0  0  0  0  0  0  0  0  0
    8.7756  -14.3131   19.4089 C   0  0  0  0  0  0  0  0  0  0  0  0
    8.1988  -13.7060   18.3776 N   0  0  0  0  0  0  0  0  0  0  0  0
    6.8992  -14.0278   18.4320 C   0  0  0  0  0  0  0  0  0  0  0  0
    6.6494  -14.8157   19.4636 N   0  0  0  0  0  0  0  0  0  0  0  0
    9.5722  -16.1092   23.2044 C   0  0  0  0  0  0  0  0  0  0  0  0
   10.0817  -17.2075   23.5869 O   0  0  0  0  0  0  0  0  0  0  0  0
   10.8281  -13.4349   30.2508 C   0  0  0  0  0  0  0  0  0  0  0  0
   10.6874  -13.2873   28.4760 S   0  0  0  0  0  0  0  0  0  0  0  0
    9.2494  -13.9398   27.7393 C   0  0  0  0  0  0  0  0  0  0  0  0
    9.0356  -14.1662   26.3181 C   0  0  0  0  0  0  0  0  0  0  0  0
    9.3500  -15.3847   25.5848 C   0  0  2  0  0  0  0  0  0  0  0  0
    9.0909  -15.1644   24.1428 N   0  0  0  0  0  0  0  0  0  0  0  0
    8.7168  -16.6475   25.9544 C   0  0  0  0  0  0  0  0  0  0  0  0
    9.0793  -17.4527   26.8134 O   0  0  0  0  0  0  0  0  0  0  0  0
    7.5370  -17.0051   25.2456 O   0  0  0  0  0  0  0  0  0  0  0  0
  2  1  1  0
  3  2  1  0
  4  3  1  0
  4  5  1  0
  5  6  1  6
  7  5  1  0
  7  8  2  0
  9  7  1  0
 10  9  1  0
 10 11  1  6
 11 12  1  0
 12 13  2  0
 13 14  1  0
 15 14  1  0
 16 12  1  0
 16 15  2  0
 17 10  1  0
 18 17  2  0
 20 19  1  0
 21 20  1  0
 21 22  1  0
 23 22  1  1
 23 25  1  0
 23 24  1  0
 24 17  1  0
 25 27  1  0
 26 25  2  0
M  END
$$$$
