MHM.pdb
     RDKit          3D

 27 27  0  0  1  0  0  0  0  0999 V2000
    8.8123  -11.8722   21.0964 C   0  0  0  0  0  0  0  0  0  0  0  0
    8.3214  -13.3931   20.2154 S   0  0  0  0  0  0  0  0  0  0  0  0
    7.1924  -14.3715   21.2187 C   0  0  0  0  0  0  0  0  0  0  0  0
    6.7285  -15.6187   20.5461 C   0  0  0  0  0  0  0  0  0  0  0  0
    7.9033  -16.4631   20.1484 C   0  0  2  0  0  0  0  0  0  0  0  0
    7.5517  -17.5560   19.2985 N   0  0  0  0  0  0  0  0  0  0  0  0
    8.5906  -16.8847   21.3841 C   0  0  0  0  0  0  0  0  0  0  0  0
    7.9184  -17.4478   22.2931 O   0  0  0  0  0  0  0  0  0  0  0  0
    9.9597  -16.6726   21.5671 N   0  0  0  0  0  0  0  0  0  0  0  0
   10.6073  -17.1262   22.7979 C   0  0  1  0  0  0  0  0  0  0  0  0
   12.0677  -17.3224   22.6084 C   0  0  0  0  0  0  0  0  0  0  0  0
   12.3634  -18.6081   21.9521 C   0  0  0  0  0  0  0  0  0  0  0  0
   11.4517  -19.6079   21.6506 C   0  0  0  0  0  0  0  0  0  0  0  0
   12.0901  -20.6306   21.0925 N   0  0  0  0  0  0  0  0  0  0  0  0
   13.3833  -20.2833   21.0429 C   0  0  0  0  0  0  0  0  0  0  0  0
   13.5696  -19.0775   21.5518 N   0  0  0  0  0  0  0  0  0  0  0  0
   10.3675  -16.0809   23.8214 C   0  0  0  0  0  0  0  0  0  0  0  0
   10.8239  -14.9054   23.6722 O   0  0  0  0  0  0  0  0  0  0  0  0
    6.1804  -11.1708   26.4734 C   0  0  0  0  0  0  0  0  0  0  0  0
    6.1265  -12.9434   26.6898 S   0  0  0  0  0  0  0  0  0  0  0  0
    7.6535  -13.7677   26.8484 C   0  0  0  0  0  0  0  0  0  0  0  0
    8.1978  -14.7577   25.9317 C   0  0  0  0  0  0  0  0  0  0  0  0
    9.4761  -15.4428   26.0662 C   0  0  2  0  0  0  0  0  0  0  0  0
    9.6161  -16.4295   24.9699 N   0  0  0  0  0  0  0  0  0  0  0  0
    9.8164  -16.1234   27.3124 C   0  0  0  0  0  0  0  0  0  0  0  0
    9.7482  -17.3284   27.5593 O   0  0  0  0  0  0  0  0  0  0  0  0
   10.2852  -15.3098   28.3804 O   0  0  0  0  0  0  0  0  0  0  0  0
  2  1  1  0
  3  2  1  0
  4  3  1  0
  4  5  1  0
  5  6  1  1
  7  5  1  0
  7  8  2  0
  9  7  1  0
 10  9  1  0
 10 11  1  6
 11 12  1  0
 12 13  2  0
 13 14  1  0
 15 14  1  0
 16 12  1  0
 16 15  2  0
 17 10  1  0
 18 17  2  0
 20 19  1  0
 21 20  1  0
 21 22  1  0
 23 22  1  1
 23 25  1  0
 23 24  1  0
 24 17  1  0
 25 27  1  0
 26 25  2  0
M  END
$$$$
