MHM.pdb
     RDKit          3D

 27 27  0  0  1  0  0  0  0  0999 V2000
    7.6663  -11.4486   25.3827 C   0  0  0  0  0  0  0  0  0  0  0  0
    6.0836  -12.3567   25.4061 S   0  0  0  0  0  0  0  0  0  0  0  0
    6.1150  -13.7175   24.2289 C   0  0  0  0  0  0  0  0  0  0  0  0
    7.3511  -14.5470   24.3123 C   0  0  0  0  0  0  0  0  0  0  0  0
    7.3602  -15.5783   23.2226 C   0  0  2  0  0  0  0  0  0  0  0  0
    6.1820  -16.3854   23.1986 N   0  0  0  0  0  0  0  0  0  0  0  0
    8.6014  -16.3643   23.3603 C   0  0  0  0  0  0  0  0  0  0  0  0
    8.6101  -17.3570   24.1410 O   0  0  0  0  0  0  0  0  0  0  0  0
    9.7585  -16.0326   22.6504 N   0  0  0  0  0  0  0  0  0  0  0  0
   10.9648  -16.8454   22.8063 C   0  0  1  0  0  0  0  0  0  0  0  0
   11.9861  -16.5125   21.7799 C   0  0  0  0  0  0  0  0  0  0  0  0
   11.6703  -17.1274   20.4786 C   0  0  0  0  0  0  0  0  0  0  0  0
   10.5829  -17.9382   20.1928 C   0  0  0  0  0  0  0  0  0  0  0  0
   10.6490  -18.3308   18.9254 N   0  0  0  0  0  0  0  0  0  0  0  0
   11.7597  -17.7781   18.4191 C   0  0  0  0  0  0  0  0  0  0  0  0
   12.3862  -17.0542   19.3307 N   0  0  0  0  0  0  0  0  0  0  0  0
   11.5006  -16.5662   24.1600 C   0  0  0  0  0  0  0  0  0  0  0  0
   12.0445  -15.4508   24.4287 O   0  0  0  0  0  0  0  0  0  0  0  0
   10.8210  -13.2393   30.1894 C   0  0  0  0  0  0  0  0  0  0  0  0
   10.0573  -14.4227   29.0903 S   0  0  0  0  0  0  0  0  0  0  0  0
   11.0885  -15.6528   28.4122 C   0  0  0  0  0  0  0  0  0  0  0  0
   10.9746  -16.2376   27.0849 C   0  0  0  0  0  0  0  0  0  0  0  0
   11.8226  -17.2843   26.5310 C   0  0  2  0  0  0  0  0  0  0  0  0
   11.3893  -17.5776   25.1448 N   0  0  0  0  0  0  0  0  0  0  0  0
   11.9598  -18.5616   27.2251 C   0  0  0  0  0  0  0  0  0  0  0  0
   11.5154  -18.8731   28.3311 O   0  0  0  0  0  0  0  0  0  0  0  0
   12.6926  -19.5800   26.5557 O   0  0  0  0  0  0  0  0  0  0  0  0
  2  1  1  0
  3  2  1  0
  4  3  1  0
  4  5  1  0
  5  6  1  1
  7  5  1  0
  7  8  2  0
  9  7  1  0
 10  9  1  0
 10 11  1  6
 11 12  1  0
 12 13  2  0
 13 14  1  0
 15 14  1  0
 16 12  1  0
 16 15  2  0
 17 10  1  0
 18 17  2  0
 20 19  1  0
 21 20  1  0
 21 22  1  0
 23 22  1  1
 23 25  1  0
 23 24  1  0
 24 17  1  0
 25 27  1  0
 26 25  2  0
M  END
$$$$
