MHM.pdb
     RDKit          3D

 27 27  0  0  1  0  0  0  0  0999 V2000
    8.2767  -11.5959   19.7667 C   0  0  0  0  0  0  0  0  0  0  0  0
    8.2920  -12.4057   18.1315 S   0  0  0  0  0  0  0  0  0  0  0  0
    8.5631  -14.1765   18.3026 C   0  0  0  0  0  0  0  0  0  0  0  0
    7.9550  -14.7545   19.5351 C   0  0  0  0  0  0  0  0  0  0  0  0
    8.1537  -16.2413   19.5653 C   0  0  2  0  0  0  0  0  0  0  0  0
    7.5273  -16.9175   18.4741 N   0  0  0  0  0  0  0  0  0  0  0  0
    7.7055  -16.7263   20.8848 C   0  0  0  0  0  0  0  0  0  0  0  0
    6.4779  -16.9654   21.0610 O   0  0  0  0  0  0  0  0  0  0  0  0
    8.6060  -16.9227   21.9353 N   0  0  0  0  0  0  0  0  0  0  0  0
    8.1179  -17.3880   23.2335 C   0  0  1  0  0  0  0  0  0  0  0  0
    8.3408  -18.8459   23.4120 C   0  0  0  0  0  0  0  0  0  0  0  0
    7.9167  -19.3017   24.7475 C   0  0  0  0  0  0  0  0  0  0  0  0
    6.6335  -19.2435   25.2689 C   0  0  0  0  0  0  0  0  0  0  0  0
    6.6423  -19.7155   26.5107 N   0  0  0  0  0  0  0  0  0  0  0  0
    7.9095  -20.0653   26.7699 C   0  0  0  0  0  0  0  0  0  0  0  0
    8.6890  -19.8264   25.7293 N   0  0  0  0  0  0  0  0  0  0  0  0
    8.8628  -16.6334   24.2695 C   0  0  0  0  0  0  0  0  0  0  0  0
   10.0902  -16.3485   24.1125 O   0  0  0  0  0  0  0  0  0  0  0  0
    6.0771  -10.8073   26.2116 C   0  0  0  0  0  0  0  0  0  0  0  0
    6.2990  -12.3685   27.0515 S   0  0  0  0  0  0  0  0  0  0  0  0
    7.6796  -13.3260   26.5896 C   0  0  0  0  0  0  0  0  0  0  0  0
    8.0839  -14.5946   27.1763 C   0  0  0  0  0  0  0  0  0  0  0  0
    8.9218  -15.6052   26.5455 C   0  0  2  0  0  0  0  0  0  0  0  0
    8.1681  -16.2394   25.4388 N   0  0  0  0  0  0  0  0  0  0  0  0
    9.5070  -16.6771   27.3460 C   0  0  0  0  0  0  0  0  0  0  0  0
    9.2538  -17.8818   27.2980 O   0  0  0  0  0  0  0  0  0  0  0  0
   10.4905  -16.3005   28.3015 O   0  0  0  0  0  0  0  0  0  0  0  0
  2  1  1  0
  3  2  1  0
  4  3  1  0
  4  5  1  0
  5  6  1  6
  7  5  1  0
  7  8  2  0
  9  7  1  0
 10  9  1  0
 10 11  1  1
 11 12  1  0
 12 13  2  0
 13 14  1  0
 15 14  1  0
 16 12  1  0
 16 15  2  0
 17 10  1  0
 18 17  2  0
 20 19  1  0
 21 20  1  0
 21 22  1  0
 23 22  1  1
 23 25  1  0
 23 24  1  0
 24 17  1  0
 25 27  1  0
 26 25  2  0
M  END
$$$$
