MHM.pdb
     RDKit          3D

 27 27  0  0  1  0  0  0  0  0999 V2000
    7.9515  -11.8200   20.9982 C   0  0  0  0  0  0  0  0  0  0  0  0
    8.1934  -12.0811   19.2084 S   0  0  0  0  0  0  0  0  0  0  0  0
    8.3039  -13.8375   18.8323 C   0  0  0  0  0  0  0  0  0  0  0  0
    8.3872  -14.7008   20.0450 C   0  0  0  0  0  0  0  0  0  0  0  0
    8.7506  -16.1048   19.6603 C   0  0  2  0  0  0  0  0  0  0  0  0
    7.8089  -16.7091   18.7724 N   0  0  0  0  0  0  0  0  0  0  0  0
    8.9526  -16.8720   20.9044 C   0  0  0  0  0  0  0  0  0  0  0  0
    7.9449  -17.3567   21.4914 O   0  0  0  0  0  0  0  0  0  0  0  0
   10.2274  -17.0691   21.4420 N   0  0  0  0  0  0  0  0  0  0  0  0
   10.3772  -17.7621   22.7217 C   0  0  1  0  0  0  0  0  0  0  0  0
   11.7717  -18.2297   22.9314 C   0  0  0  0  0  0  0  0  0  0  0  0
   11.9394  -18.8675   24.2491 C   0  0  0  0  0  0  0  0  0  0  0  0
   12.7681  -18.4365   25.2734 C   0  0  0  0  0  0  0  0  0  0  0  0
   12.6793  -19.2813   26.2949 N   0  0  0  0  0  0  0  0  0  0  0  0
   11.8098  -20.2302   25.9222 C   0  0  0  0  0  0  0  0  0  0  0  0
   11.3549  -20.0027   24.7020 N   0  0  0  0  0  0  0  0  0  0  0  0
   10.0048  -16.7950   23.7816 C   0  0  0  0  0  0  0  0  0  0  0  0
   10.3310  -15.5711   23.6915 O   0  0  0  0  0  0  0  0  0  0  0  0
    8.2017  -12.1595   25.8243 C   0  0  0  0  0  0  0  0  0  0  0  0
    6.8209  -13.0490   26.5270 S   0  0  0  0  0  0  0  0  0  0  0  0
    6.9214  -14.7886   26.5336 C   0  0  0  0  0  0  0  0  0  0  0  0
    7.7229  -15.6091   25.6385 C   0  0  0  0  0  0  0  0  0  0  0  0
    8.9352  -16.3350   25.9919 C   0  0  2  0  0  0  0  0  0  0  0  0
    9.2759  -17.2735   24.8973 N   0  0  0  0  0  0  0  0  0  0  0  0
    9.0045  -17.0816   27.2448 C   0  0  0  0  0  0  0  0  0  0  0  0
    9.5027  -16.7227   28.3128 O   0  0  0  0  0  0  0  0  0  0  0  0
    8.4310  -18.3829   27.2487 O   0  0  0  0  0  0  0  0  0  0  0  0
  2  1  1  0
  3  2  1  0
  4  3  1  0
  4  5  1  0
  5  6  1  1
  7  5  1  0
  7  8  2  0
  9  7  1  0
 10  9  1  0
 10 11  1  1
 11 12  1  0
 12 13  2  0
 13 14  1  0
 15 14  1  0
 16 12  1  0
 16 15  2  0
 17 10  1  0
 18 17  2  0
 20 19  1  0
 21 20  1  0
 21 22  1  0
 23 22  1  6
 23 25  1  0
 23 24  1  0
 24 17  1  0
 25 27  1  0
 26 25  2  0
M  END
$$$$
