MHM.pdb
     RDKit          3D

 27 27  0  0  1  0  0  0  0  0999 V2000
    6.5707  -12.5036   18.5366 C   0  0  0  0  0  0  0  0  0  0  0  0
    8.0604  -12.6401   17.4915 S   0  0  0  0  0  0  0  0  0  0  0  0
    9.3264  -13.6185   18.3153 C   0  0  0  0  0  0  0  0  0  0  0  0
    9.2247  -13.5909   19.8025 C   0  0  0  0  0  0  0  0  0  0  0  0
   10.2921  -14.4506   20.4130 C   0  0  2  0  0  0  0  0  0  0  0  0
   11.0645  -15.1642   19.4464 N   0  0  0  0  0  0  0  0  0  0  0  0
    9.6454  -15.3303   21.4056 C   0  0  0  0  0  0  0  0  0  0  0  0
    8.5970  -14.9285   21.9839 O   0  0  0  0  0  0  0  0  0  0  0  0
   10.1680  -16.5884   21.7168 N   0  0  0  0  0  0  0  0  0  0  0  0
    9.5753  -17.3741   22.7992 C   0  0  1  0  0  0  0  0  0  0  0  0
   10.0835  -18.7701   22.8045 C   0  0  0  0  0  0  0  0  0  0  0  0
    9.4475  -19.5848   21.7542 C   0  0  0  0  0  0  0  0  0  0  0  0
    8.5880  -19.1300   20.7663 C   0  0  0  0  0  0  0  0  0  0  0  0
    8.1911  -20.1570   20.0228 N   0  0  0  0  0  0  0  0  0  0  0  0
    8.7891  -21.2423   20.5327 C   0  0  0  0  0  0  0  0  0  0  0  0
    9.5453  -20.9233   21.5690 N   0  0  0  0  0  0  0  0  0  0  0  0
    9.9379  -16.7006   24.0690 C   0  0  0  0  0  0  0  0  0  0  0  0
   11.0880  -16.1869   24.2294 O   0  0  0  0  0  0  0  0  0  0  0  0
    6.9481  -11.5686   27.5854 C   0  0  0  0  0  0  0  0  0  0  0  0
    6.6236  -12.7670   26.3007 S   0  0  0  0  0  0  0  0  0  0  0  0
    7.8994  -13.8946   25.9301 C   0  0  0  0  0  0  0  0  0  0  0  0
    8.3049  -15.0337   26.7393 C   0  0  0  0  0  0  0  0  0  0  0  0
    9.3218  -16.0168   26.3915 C   0  0  2  0  0  0  0  0  0  0  0  0
    8.9666  -16.6461   25.0980 N   0  0  0  0  0  0  0  0  0  0  0  0
    9.6530  -17.0910   27.3234 C   0  0  0  0  0  0  0  0  0  0  0  0
    9.4634  -18.3001   27.1826 O   0  0  0  0  0  0  0  0  0  0  0  0
   10.2706  -16.7112   28.5468 O   0  0  0  0  0  0  0  0  0  0  0  0
  2  1  1  0
  3  2  1  0
  4  3  1  0
  4  5  1  0
  5  6  1  6
  7  5  1  0
  7  8  2  0
  9  7  1  0
 10  9  1  0
 10 11  1  1
 11 12  1  0
 12 13  2  0
 13 14  1  0
 15 14  1  0
 16 12  1  0
 16 15  2  0
 17 10  1  0
 18 17  2  0
 20 19  1  0
 21 20  1  0
 21 22  1  0
 23 22  1  1
 23 25  1  0
 23 24  1  0
 24 17  1  0
 25 27  1  0
 26 25  2  0
M  END
$$$$
