MHM.pdb
     RDKit          3D

 27 27  0  0  1  0  0  0  0  0999 V2000
    8.7987  -21.9185   21.8980 C   0  0  0  0  0  0  0  0  0  0  0  0
    9.2689  -22.9481   20.4667 S   0  0  0  0  0  0  0  0  0  0  0  0
    9.2457  -21.9775   18.9514 C   0  0  0  0  0  0  0  0  0  0  0  0
    8.0787  -21.0546   18.8547 C   0  0  0  0  0  0  0  0  0  0  0  0
    8.1417  -20.2681   17.5785 C   0  0  2  0  0  0  0  0  0  0  0  0
    8.8380  -20.9453   16.5312 N   0  0  0  0  0  0  0  0  0  0  0  0
    8.7122  -18.9448   17.8958 C   0  0  0  0  0  0  0  0  0  0  0  0
    9.9603  -18.7797   17.7953 O   0  0  0  0  0  0  0  0  0  0  0  0
    7.9044  -17.8800   18.3038 N   0  0  0  0  0  0  0  0  0  0  0  0
    8.5138  -16.5945   18.6446 C   0  0  1  0  0  0  0  0  0  0  0  0
    7.5154  -15.4943   18.6315 C   0  0  0  0  0  0  0  0  0  0  0  0
    8.1484  -14.1824   18.8538 C   0  0  0  0  0  0  0  0  0  0  0  0
    9.4728  -13.9537   19.1931 C   0  0  0  0  0  0  0  0  0  0  0  0
    9.6689  -12.6481   19.3415 N   0  0  0  0  0  0  0  0  0  0  0  0
    8.4883  -12.0619   19.1008 C   0  0  0  0  0  0  0  0  0  0  0  0
    7.5645  -12.9607   18.8072 N   0  0  0  0  0  0  0  0  0  0  0  0
    9.0894  -16.7371   20.0032 C   0  0  0  0  0  0  0  0  0  0  0  0
    8.3589  -17.0606   20.9901 O   0  0  0  0  0  0  0  0  0  0  0  0
   11.7242  -19.2984   26.2049 C   0  0  0  0  0  0  0  0  0  0  0  0
   10.9446  -19.1972   24.6007 S   0  0  0  0  0  0  0  0  0  0  0  0
   11.2556  -17.7645   23.6589 C   0  0  0  0  0  0  0  0  0  0  0  0
   10.6804  -17.4441   22.3615 C   0  0  0  0  0  0  0  0  0  0  0  0
   11.0118  -16.2914   21.5351 C   0  0  2  0  0  0  0  0  0  0  0  0
   10.4758  -16.5023   20.1701 N   0  0  0  0  0  0  0  0  0  0  0  0
   12.4006  -15.8622   21.3976 C   0  0  0  0  0  0  0  0  0  0  0  0
   13.1648  -15.4773   22.2838 O   0  0  0  0  0  0  0  0  0  0  0  0
   12.9526  -15.8860   20.0872 O   0  0  0  0  0  0  0  0  0  0  0  0
  2  1  1  0
  3  2  1  0
  4  3  1  0
  4  5  1  0
  5  6  1  6
  7  5  1  0
  7  8  2  0
  9  7  1  0
 10  9  1  0
 10 11  1  1
 11 12  1  0
 12 13  2  0
 13 14  1  0
 15 14  1  0
 16 12  1  0
 16 15  2  0
 17 10  1  0
 18 17  2  0
 20 19  1  0
 21 20  1  0
 21 22  1  0
 23 22  1  1
 23 25  1  0
 23 24  1  0
 24 17  1  0
 25 27  1  0
 26 25  2  0
M  END
$$$$
