FII.pdb
     RDKit          3D

 28 28  0  0  1  0  0  0  0  0999 V2000
    7.8592  -16.5898   19.0867 N   0  0  0  0  0  0  0  0  0  0  0  0
    8.0622  -15.7176   20.2127 C   0  0  1  0  0  0  0  0  0  0  0  0
    6.8541  -14.8707   20.5396 C   0  0  0  0  0  0  0  0  0  0  0  0
    7.1055  -14.0518   21.7468 C   0  0  0  0  0  0  0  0  0  0  0  0
    7.7081  -12.8253   21.5953 C   0  0  0  0  0  0  0  0  0  0  0  0
    7.9741  -12.0071   22.6637 C   0  0  0  0  0  0  0  0  0  0  0  0
    7.6293  -12.4265   23.9099 C   0  0  0  0  0  0  0  0  0  0  0  0
    7.0237  -13.6538   24.0867 C   0  0  0  0  0  0  0  0  0  0  0  0
    6.7577  -14.4742   23.0089 C   0  0  0  0  0  0  0  0  0  0  0  0
    8.4335  -16.5239   21.4033 C   0  0  0  0  0  0  0  0  0  0  0  0
    7.6810  -17.4389   21.8159 O   0  0  0  0  0  0  0  0  0  0  0  0
   12.1763  -19.8016   21.0623 C   0  0  0  0  0  0  0  0  0  0  0  0
   10.9251  -19.0469   21.5360 C   0  0  0  0  0  0  0  0  0  0  0  0
   11.2651  -18.0313   22.5739 C   0  0  2  0  0  0  0  0  0  0  0  0
   12.0447  -18.7051   23.6860 C   0  0  0  0  0  0  0  0  0  0  0  0
   10.1443  -17.2215   23.1201 C   0  0  2  0  0  0  0  0  0  0  0  0
    9.6368  -16.2891   22.1051 N   0  0  0  0  0  0  0  0  0  0  0  0
   10.5229  -16.3979   24.2858 C   0  0  0  0  0  0  0  0  0  0  0  0
   11.4130  -15.4883   24.1178 O   0  0  0  0  0  0  0  0  0  0  0  0
    9.3489  -12.4342   28.2744 C   0  0  0  0  0  0  0  0  0  0  0  0
   10.3101  -13.5550   27.8901 C   0  0  0  0  0  0  0  0  0  0  0  0
    9.7409  -14.4267   26.8205 C   0  0  2  0  0  0  0  0  0  0  0  0
    8.2712  -14.7190   27.0440 C   0  0  0  0  0  0  0  0  0  0  0  0
   10.5551  -15.6634   26.6459 C   0  0  2  0  0  0  0  0  0  0  0  0
    9.9948  -16.5072   25.5817 N   0  0  0  0  0  0  0  0  0  0  0  0
   10.6790  -16.4898   27.8552 C   0  0  0  0  0  0  0  0  0  0  0  0
   11.6279  -16.3078   28.8565 O   0  0  0  0  0  0  0  0  0  0  0  0
    9.8732  -17.4520   28.0248 O   0  0  0  0  0  0  0  0  0  0  0  0
  2  3  1  0
  2  1  1  6
  4  9  2  0
  4  3  1  0
  5  4  1  0
  6  7  1  0
  6  5  2  0
  7  8  2  0
  8  9  1  0
 10  2  1  0
 10 11  2  0
 12 13  1  0
 14 13  1  0
 14 15  1  1
 14 16  1  0
 16 17  1  6
 17 10  1  0
 18 16  1  0
 19 18  2  0
 20 21  1  0
 21 22  1  0
 22 24  1  0
 22 23  1  1
 24 25  1  6
 24 26  1  0
 25 18  1  0
 26 28  2  0
 26 27  1  0
M  END
$$$$
