FII.pdb
     RDKit          3D

 28 28  0  0  1  0  0  0  0  0999 V2000
    5.0741  -17.9985   25.1952 N   0  0  0  0  0  0  0  0  0  0  0  0
    5.6682  -16.6890   25.2395 C   0  0  1  0  0  0  0  0  0  0  0  0
    6.1293  -16.2871   26.6213 C   0  0  0  0  0  0  0  0  0  0  0  0
    6.2604  -14.8157   26.7172 C   0  0  0  0  0  0  0  0  0  0  0  0
    5.1204  -14.0492   26.6616 C   0  0  0  0  0  0  0  0  0  0  0  0
    5.1578  -12.6804   26.7443 C   0  0  0  0  0  0  0  0  0  0  0  0
    6.3625  -12.0669   26.8857 C   0  0  0  0  0  0  0  0  0  0  0  0
    7.5204  -12.8153   26.9437 C   0  0  0  0  0  0  0  0  0  0  0  0
    7.4784  -14.1926   26.8600 C   0  0  0  0  0  0  0  0  0  0  0  0
    6.8194  -16.6354   24.3027 C   0  0  0  0  0  0  0  0  0  0  0  0
    7.5831  -17.6218   24.1709 O   0  0  0  0  0  0  0  0  0  0  0  0
    8.7371  -12.9930   19.6208 C   0  0  0  0  0  0  0  0  0  0  0  0
    9.0322  -14.2036   20.5190 C   0  0  0  0  0  0  0  0  0  0  0  0
    7.9873  -14.3657   21.5707 C   0  0  2  0  0  0  0  0  0  0  0  0
    7.7189  -13.0177   22.2107 C   0  0  0  0  0  0  0  0  0  0  0  0
    8.2222  -15.4108   22.6017 C   0  0  2  0  0  0  0  0  0  0  0  0
    7.0904  -15.4808   23.5350 N   0  0  0  0  0  0  0  0  0  0  0  0
    9.4235  -15.1692   23.4257 C   0  0  0  0  0  0  0  0  0  0  0  0
    9.8496  -13.9629   23.5313 O   0  0  0  0  0  0  0  0  0  0  0  0
   10.0077  -13.5170   27.6550 C   0  0  0  0  0  0  0  0  0  0  0  0
   10.3874  -13.9535   26.2432 C   0  0  0  0  0  0  0  0  0  0  0  0
   11.0260  -15.3026   26.2364 C   0  0  2  0  0  0  0  0  0  0  0  0
   12.2090  -15.3792   27.1797 C   0  0  0  0  0  0  0  0  0  0  0  0
   11.3658  -15.7288   24.8487 C   0  0  2  0  0  0  0  0  0  0  0  0
   10.1573  -16.1419   24.1226 N   0  0  0  0  0  0  0  0  0  0  0  0
   12.3363  -16.8298   24.7676 C   0  0  0  0  0  0  0  0  0  0  0  0
   13.7137  -16.6964   24.9129 O   0  0  0  0  0  0  0  0  0  0  0  0
   11.9143  -18.0033   24.5467 O   0  0  0  0  0  0  0  0  0  0  0  0
  2  3  1  0
  2  1  1  1
  4  9  2  0
  4  3  1  0
  5  4  1  0
  6  7  1  0
  6  5  2  0
  7  8  2  0
  8  9  1  0
 10  2  1  0
 10 11  2  0
 12 13  1  0
 14 13  1  0
 14 15  1  1
 14 16  1  0
 16 17  1  1
 17 10  1  0
 18 16  1  0
 19 18  2  0
 20 21  1  0
 21 22  1  0
 22 24  1  0
 22 23  1  1
 24 25  1  1
 24 26  1  0
 25 18  1  0
 26 28  2  0
 26 27  1  0
M  END
$$$$
