FII.pdb
     RDKit          3D

 28 28  0  0  1  0  0  0  0  0999 V2000
    5.4159  -18.8573   23.5555 N   0  0  0  0  0  0  0  0  0  0  0  0
    5.7464  -17.5664   24.0979 C   0  0  1  0  0  0  0  0  0  0  0  0
    5.7084  -17.5238   25.6079 C   0  0  0  0  0  0  0  0  0  0  0  0
    5.9054  -16.1392   26.0932 C   0  0  0  0  0  0  0  0  0  0  0  0
    6.9364  -15.8898   26.9680 C   0  0  0  0  0  0  0  0  0  0  0  0
    7.1851  -14.6345   27.4622 C   0  0  0  0  0  0  0  0  0  0  0  0
    6.3842  -13.6079   27.0718 C   0  0  0  0  0  0  0  0  0  0  0  0
    5.3431  -13.8341   26.1948 C   0  0  0  0  0  0  0  0  0  0  0  0
    5.0961  -15.0988   25.6998 C   0  0  0  0  0  0  0  0  0  0  0  0
    7.0967  -17.1631   23.6289 C   0  0  0  0  0  0  0  0  0  0  0  0
    8.0200  -18.0072   23.5364 O   0  0  0  0  0  0  0  0  0  0  0  0
    7.3608  -12.5984   20.3672 C   0  0  0  0  0  0  0  0  0  0  0  0
    7.5497  -14.0475   20.8404 C   0  0  0  0  0  0  0  0  0  0  0  0
    8.5265  -14.1277   21.9646 C   0  0  2  0  0  0  0  0  0  0  0  0
    9.8741  -13.6269   21.4831 C   0  0  0  0  0  0  0  0  0  0  0  0
    8.6573  -15.4381   22.6544 C   0  0  2  0  0  0  0  0  0  0  0  0
    7.3836  -15.8260   23.2744 N   0  0  0  0  0  0  0  0  0  0  0  0
    9.6614  -15.4390   23.7371 C   0  0  0  0  0  0  0  0  0  0  0  0
   10.8853  -15.2103   23.4245 O   0  0  0  0  0  0  0  0  0  0  0  0
    9.1709  -12.5832   28.0566 C   0  0  0  0  0  0  0  0  0  0  0  0
    9.7222  -13.3624   26.8664 C   0  0  0  0  0  0  0  0  0  0  0  0
   10.1041  -14.7540   27.2478 C   0  0  2  0  0  0  0  0  0  0  0  0
   11.1375  -14.7794   28.3555 C   0  0  0  0  0  0  0  0  0  0  0  0
   10.5192  -15.5434   26.0531 C   0  0  2  0  0  0  0  0  0  0  0  0
    9.4081  -15.6634   25.0993 N   0  0  0  0  0  0  0  0  0  0  0  0
   11.0010  -16.8993   26.3534 C   0  0  0  0  0  0  0  0  0  0  0  0
   10.3583  -18.0778   25.9867 O   0  0  0  0  0  0  0  0  0  0  0  0
   12.0828  -17.0364   26.9974 O   0  0  0  0  0  0  0  0  0  0  0  0
  2  3  1  0
  2  1  1  1
  4  9  2  0
  4  3  1  0
  5  4  1  0
  6  7  1  0
  6  5  2  0
  7  8  2  0
  8  9  1  0
 10  2  1  0
 10 11  2  0
 12 13  1  0
 14 13  1  0
 14 15  1  6
 14 16  1  0
 16 17  1  1
 17 10  1  0
 18 16  1  0
 19 18  2  0
 20 21  1  0
 21 22  1  0
 22 24  1  0
 22 23  1  1
 24 25  1  6
 24 26  1  0
 25 18  1  0
 26 28  2  0
 26 27  1  0
M  END
$$$$
