FII.pdb
     RDKit          3D

 28 28  0  0  1  0  0  0  0  0999 V2000
    5.4021  -18.6036   24.5560 N   0  0  0  0  0  0  0  0  0  0  0  0
    5.8201  -17.2522   24.8181 C   0  0  1  0  0  0  0  0  0  0  0  0
    6.1135  -16.9885   26.2768 C   0  0  0  0  0  0  0  0  0  0  0  0
    6.3586  -15.5466   26.5046 C   0  0  0  0  0  0  0  0  0  0  0  0
    7.6442  -15.1304   26.7585 C   0  0  0  0  0  0  0  0  0  0  0  0
    7.9533  -13.8122   26.9789 C   0  0  0  0  0  0  0  0  0  0  0  0
    6.9536  -12.8918   26.9442 C   0  0  0  0  0  0  0  0  0  0  0  0
    5.6555  -13.2858   26.6915 C   0  0  0  0  0  0  0  0  0  0  0  0
    5.3486  -14.6134   26.4702 C   0  0  0  0  0  0  0  0  0  0  0  0
    7.0270  -16.9414   24.0104 C   0  0  0  0  0  0  0  0  0  0  0  0
    7.9768  -17.7578   23.9398 O   0  0  0  0  0  0  0  0  0  0  0  0
    8.5612  -12.8814   19.5477 C   0  0  0  0  0  0  0  0  0  0  0  0
    9.0086  -14.0422   20.4486 C   0  0  0  0  0  0  0  0  0  0  0  0
    8.0061  -14.3156   21.5185 C   0  0  2  0  0  0  0  0  0  0  0  0
    7.7077  -13.0248   22.2557 C   0  0  0  0  0  0  0  0  0  0  0  0
    8.3149  -15.4162   22.4690 C   0  0  2  0  0  0  0  0  0  0  0  0
    7.1445  -15.7257   23.3004 N   0  0  0  0  0  0  0  0  0  0  0  0
    9.4139  -15.0999   23.4032 C   0  0  0  0  0  0  0  0  0  0  0  0
    9.8118  -13.8816   23.4756 O   0  0  0  0  0  0  0  0  0  0  0  0
    9.2817  -13.5936   27.7477 C   0  0  0  0  0  0  0  0  0  0  0  0
    9.8368  -13.9481   26.3715 C   0  0  0  0  0  0  0  0  0  0  0  0
   10.7165  -15.1527   26.4256 C   0  0  2  0  0  0  0  0  0  0  0  0
   11.8489  -14.9887   27.4187 C   0  0  0  0  0  0  0  0  0  0  0  0
   11.1929  -15.5312   25.0645 C   0  0  2  0  0  0  0  0  0  0  0  0
   10.0763  -16.0120   24.2395 N   0  0  0  0  0  0  0  0  0  0  0  0
   12.2397  -16.5630   25.0480 C   0  0  0  0  0  0  0  0  0  0  0  0
   13.5904  -16.3384   25.2954 O   0  0  0  0  0  0  0  0  0  0  0  0
   11.9161  -17.7597   24.7891 O   0  0  0  0  0  0  0  0  0  0  0  0
  2  3  1  0
  2  1  1  1
  4  9  2  0
  4  3  1  0
  5  4  1  0
  6  7  1  0
  6  5  2  0
  7  8  2  0
  8  9  1  0
 10  2  1  0
 10 11  2  0
 12 13  1  0
 14 13  1  0
 14 15  1  1
 14 16  1  0
 16 17  1  1
 17 10  1  0
 18 16  1  0
 19 18  2  0
 20 21  1  0
 21 22  1  0
 22 24  1  0
 22 23  1  1
 24 25  1  6
 24 26  1  0
 25 18  1  0
 26 28  2  0
 26 27  1  0
M  END
$$$$
