FII.pdb
     RDKit          3D

 28 28  0  0  1  0  0  0  0  0999 V2000
    6.0273  -17.0340   20.8018 N   0  0  0  0  0  0  0  0  0  0  0  0
    6.9400  -16.2598   21.6002 C   0  0  1  0  0  0  0  0  0  0  0  0
    6.4982  -14.8280   21.7959 C   0  0  0  0  0  0  0  0  0  0  0  0
    7.0943  -13.9547   20.7599 C   0  0  0  0  0  0  0  0  0  0  0  0
    8.2890  -13.3315   21.0334 C   0  0  0  0  0  0  0  0  0  0  0  0
    8.9058  -12.5080   20.1261 C   0  0  0  0  0  0  0  0  0  0  0  0
    8.3134  -12.3047   18.9197 C   0  0  0  0  0  0  0  0  0  0  0  0
    7.1140  -12.9192   18.6226 C   0  0  0  0  0  0  0  0  0  0  0  0
    6.4965  -13.7472   19.5385 C   0  0  0  0  0  0  0  0  0  0  0  0
    7.1100  -16.9069   22.9261 C   0  0  0  0  0  0  0  0  0  0  0  0
    6.1249  -17.0837   23.6823 O   0  0  0  0  0  0  0  0  0  0  0  0
    9.0260  -21.7151   23.7773 C   0  0  0  0  0  0  0  0  0  0  0  0
    8.3299  -20.3461   23.8027 C   0  0  0  0  0  0  0  0  0  0  0  0
    9.1488  -19.3350   24.5318 C   0  0  2  0  0  0  0  0  0  0  0  0
    9.5605  -19.9089   25.8733 C   0  0  0  0  0  0  0  0  0  0  0  0
    8.5648  -17.9766   24.6868 C   0  0  2  0  0  0  0  0  0  0  0  0
    8.3767  -17.3415   23.3760 N   0  0  0  0  0  0  0  0  0  0  0  0
    9.4090  -17.0564   25.4749 C   0  0  0  0  0  0  0  0  0  0  0  0
   10.5367  -16.6975   24.9776 O   0  0  0  0  0  0  0  0  0  0  0  0
    7.7576  -12.6130   27.5289 C   0  0  0  0  0  0  0  0  0  0  0  0
    8.5896  -13.7398   26.9241 C   0  0  0  0  0  0  0  0  0  0  0  0
    9.4052  -14.4398   27.9599 C   0  0  2  0  0  0  0  0  0  0  0  0
   10.3733  -13.5033   28.6534 C   0  0  0  0  0  0  0  0  0  0  0  0
   10.0746  -15.6449   27.3920 C   0  0  2  0  0  0  0  0  0  0  0  0
    9.0953  -16.5201   26.7335 N   0  0  0  0  0  0  0  0  0  0  0  0
   10.8114  -16.4544   28.3731 C   0  0  0  0  0  0  0  0  0  0  0  0
   12.1638  -16.3182   28.6706 O   0  0  0  0  0  0  0  0  0  0  0  0
   10.1925  -17.3562   29.0116 O   0  0  0  0  0  0  0  0  0  0  0  0
  2  3  1  0
  2  1  1  6
  4  9  2  0
  4  3  1  0
  5  4  1  0
  6  7  1  0
  6  5  2  0
  7  8  2  0
  8  9  1  0
 10  2  1  0
 10 11  2  0
 12 13  1  0
 14 13  1  0
 14 15  1  1
 14 16  1  0
 16 17  1  6
 17 10  1  0
 18 16  1  0
 19 18  2  0
 20 21  1  0
 21 22  1  0
 22 24  1  0
 22 23  1  6
 24 25  1  1
 24 26  1  0
 25 18  1  0
 26 28  2  0
 26 27  1  0
M  END
$$$$
