FII.pdb
     RDKit          3D

 28 28  0  0  1  0  0  0  0  0999 V2000
   12.7037  -17.1563   19.4247 N   0  0  0  0  0  0  0  0  0  0  0  0
   11.7047  -17.6871   20.3135 C   0  0  1  0  0  0  0  0  0  0  0  0
   12.1779  -18.8899   21.0963 C   0  0  0  0  0  0  0  0  0  0  0  0
   12.3029  -20.0693   20.2105 C   0  0  0  0  0  0  0  0  0  0  0  0
   13.5607  -20.4811   19.8379 C   0  0  0  0  0  0  0  0  0  0  0  0
   13.7605  -21.5647   19.0209 C   0  0  0  0  0  0  0  0  0  0  0  0
   12.6776  -22.2500   18.5677 C   0  0  0  0  0  0  0  0  0  0  0  0
   11.4054  -21.8554   18.9281 C   0  0  0  0  0  0  0  0  0  0  0  0
   11.2086  -20.7642   19.7505 C   0  0  0  0  0  0  0  0  0  0  0  0
   11.2681  -16.6272   21.2577 C   0  0  0  0  0  0  0  0  0  0  0  0
   12.0480  -15.7002   21.5834 O   0  0  0  0  0  0  0  0  0  0  0  0
    6.4977  -14.1291   20.7679 C   0  0  0  0  0  0  0  0  0  0  0  0
    7.9700  -14.4763   21.0345 C   0  0  0  0  0  0  0  0  0  0  0  0
    8.1414  -15.1252   22.3664 C   0  0  2  0  0  0  0  0  0  0  0  0
    7.5624  -14.2182   23.4345 C   0  0  0  0  0  0  0  0  0  0  0  0
    9.5120  -15.5727   22.7290 C   0  0  2  0  0  0  0  0  0  0  0  0
    9.9704  -16.6278   21.8161 N   0  0  0  0  0  0  0  0  0  0  0  0
    9.6099  -16.1335   24.0916 C   0  0  0  0  0  0  0  0  0  0  0  0
    9.4551  -17.3997   24.2350 O   0  0  0  0  0  0  0  0  0  0  0  0
    9.9353  -13.3728   29.1465 C   0  0  0  0  0  0  0  0  0  0  0  0
    9.4875  -14.2534   27.9838 C   0  0  0  0  0  0  0  0  0  0  0  0
   10.5423  -15.2369   27.5991 C   0  0  2  0  0  0  0  0  0  0  0  0
   11.8534  -14.5616   27.2520 C   0  0  0  0  0  0  0  0  0  0  0  0
   10.0597  -16.1481   26.5222 C   0  0  2  0  0  0  0  0  0  0  0  0
    9.8650  -15.4099   25.2670 N   0  0  0  0  0  0  0  0  0  0  0  0
    8.8042  -16.8478   26.8305 C   0  0  0  0  0  0  0  0  0  0  0  0
    8.6885  -17.9577   27.6616 O   0  0  0  0  0  0  0  0  0  0  0  0
    7.7271  -16.4310   26.3109 O   0  0  0  0  0  0  0  0  0  0  0  0
  2  3  1  0
  2  1  1  1
  4  9  2  0
  4  3  1  0
  5  4  1  0
  6  7  1  0
  6  5  2  0
  7  8  2  0
  8  9  1  0
 10  2  1  0
 10 11  2  0
 12 13  1  0
 14 13  1  0
 14 15  1  1
 14 16  1  0
 16 17  1  6
 17 10  1  0
 18 16  1  0
 19 18  2  0
 20 21  1  0
 21 22  1  0
 22 24  1  0
 22 23  1  6
 24 25  1  6
 24 26  1  0
 25 18  1  0
 26 28  2  0
 26 27  1  0
M  END
$$$$
