FII.pdb
     RDKit          3D

 28 28  0  0  1  0  0  0  0  0999 V2000
    6.0725  -15.9109   21.1589 N   0  0  0  0  0  0  0  0  0  0  0  0
    5.9406  -16.1490   22.5716 C   0  0  1  0  0  0  0  0  0  0  0  0
    5.8995  -17.6164   22.9302 C   0  0  0  0  0  0  0  0  0  0  0  0
    4.6914  -18.2559   22.3620 C   0  0  0  0  0  0  0  0  0  0  0  0
    4.8316  -19.0570   21.2534 C   0  0  0  0  0  0  0  0  0  0  0  0
    3.7617  -19.6855   20.6685 C   0  0  0  0  0  0  0  0  0  0  0  0
    2.5257  -19.5076   21.2055 C   0  0  0  0  0  0  0  0  0  0  0  0
    2.3603  -18.7079   22.3178 C   0  0  0  0  0  0  0  0  0  0  0  0
    3.4396  -18.0772   22.9035 C   0  0  0  0  0  0  0  0  0  0  0  0
    7.0659  -15.4991   23.2907 C   0  0  0  0  0  0  0  0  0  0  0  0
    8.1755  -15.3371   22.7285 O   0  0  0  0  0  0  0  0  0  0  0  0
    6.2017  -11.4610   26.9223 C   0  0  0  0  0  0  0  0  0  0  0  0
    6.8976  -12.2627   25.8122 C   0  0  0  0  0  0  0  0  0  0  0  0
    7.5711  -13.4754   26.3601 C   0  0  2  0  0  0  0  0  0  0  0  0
    8.6888  -13.0413   27.2880 C   0  0  0  0  0  0  0  0  0  0  0  0
    8.0509  -14.4837   25.3787 C   0  0  2  0  0  0  0  0  0  0  0  0
    6.9250  -15.0452   24.6211 N   0  0  0  0  0  0  0  0  0  0  0  0
    8.7442  -15.6301   25.9996 C   0  0  0  0  0  0  0  0  0  0  0  0
    8.0524  -16.4327   26.7243 O   0  0  0  0  0  0  0  0  0  0  0  0
   12.5206  -18.1535   23.2174 C   0  0  0  0  0  0  0  0  0  0  0  0
   11.3447  -17.7390   24.0966 C   0  0  0  0  0  0  0  0  0  0  0  0
   11.7101  -17.7431   25.5438 C   0  0  2  0  0  0  0  0  0  0  0  0
   12.2137  -19.0967   26.0017 C   0  0  0  0  0  0  0  0  0  0  0  0
   10.5888  -17.2307   26.3822 C   0  0  2  0  0  0  0  0  0  0  0  0
   10.1072  -15.9402   25.8713 N   0  0  0  0  0  0  0  0  0  0  0  0
   10.9188  -17.0555   27.8039 C   0  0  0  0  0  0  0  0  0  0  0  0
   10.7988  -18.0383   28.7815 O   0  0  0  0  0  0  0  0  0  0  0  0
   11.3464  -15.9309   28.1993 O   0  0  0  0  0  0  0  0  0  0  0  0
  2  3  1  0
  2  1  1  6
  4  9  2  0
  4  3  1  0
  5  4  1  0
  6  7  1  0
  6  5  2  0
  7  8  2  0
  8  9  1  0
 10  2  1  0
 10 11  2  0
 12 13  1  0
 14 13  1  0
 14 15  1  6
 14 16  1  0
 16 17  1  1
 17 10  1  0
 18 16  1  0
 19 18  2  0
 20 21  1  0
 21 22  1  0
 22 24  1  0
 22 23  1  1
 24 25  1  6
 24 26  1  0
 25 18  1  0
 26 28  2  0
 26 27  1  0
M  END
$$$$
