FII.pdb
     RDKit          3D

 28 28  0  0  1  0  0  0  0  0999 V2000
    5.2403  -18.1608   24.6994 N   0  0  0  0  0  0  0  0  0  0  0  0
    5.7193  -16.8071   24.7872 C   0  0  1  0  0  0  0  0  0  0  0  0
    5.6640  -16.2419   26.1876 C   0  0  0  0  0  0  0  0  0  0  0  0
    5.7990  -14.7681   26.1582 C   0  0  0  0  0  0  0  0  0  0  0  0
    6.8714  -14.2194   25.4954 C   0  0  0  0  0  0  0  0  0  0  0  0
    7.0665  -12.8635   25.4220 C   0  0  0  0  0  0  0  0  0  0  0  0
    6.1687  -12.0404   26.0252 C   0  0  0  0  0  0  0  0  0  0  0  0
    5.0846  -12.5681   26.6965 C   0  0  0  0  0  0  0  0  0  0  0  0
    4.8918  -13.9331   26.7681 C   0  0  0  0  0  0  0  0  0  0  0  0
    7.1160  -16.7423   24.2863 C   0  0  0  0  0  0  0  0  0  0  0  0
    7.8872  -17.7234   24.4138 O   0  0  0  0  0  0  0  0  0  0  0  0
    7.8499  -12.7540   20.3742 C   0  0  0  0  0  0  0  0  0  0  0  0
    7.7657  -14.1549   20.9986 C   0  0  0  0  0  0  0  0  0  0  0  0
    8.8837  -14.3891   21.9576 C   0  0  2  0  0  0  0  0  0  0  0  0
   10.1993  -14.3196   21.2071 C   0  0  0  0  0  0  0  0  0  0  0  0
    8.8096  -15.6144   22.7962 C   0  0  2  0  0  0  0  0  0  0  0  0
    7.6182  -15.5828   23.6545 N   0  0  0  0  0  0  0  0  0  0  0  0
    9.9655  -15.7838   23.6994 C   0  0  0  0  0  0  0  0  0  0  0  0
   11.1402  -15.7838   23.1817 O   0  0  0  0  0  0  0  0  0  0  0  0
   10.3071  -14.3291   29.1578 C   0  0  0  0  0  0  0  0  0  0  0  0
   10.2025  -15.3047   27.9894 C   0  0  0  0  0  0  0  0  0  0  0  0
   11.2055  -15.0011   26.9264 C   0  0  2  0  0  0  0  0  0  0  0  0
   11.0683  -13.5875   26.3989 C   0  0  0  0  0  0  0  0  0  0  0  0
   11.1688  -16.0267   25.8450 C   0  0  2  0  0  0  0  0  0  0  0  0
    9.9095  -15.9424   25.0929 N   0  0  0  0  0  0  0  0  0  0  0  0
   11.3209  -17.4125   26.3112 C   0  0  0  0  0  0  0  0  0  0  0  0
   10.3828  -18.4249   26.1350 O   0  0  0  0  0  0  0  0  0  0  0  0
   12.3783  -17.7390   26.9269 O   0  0  0  0  0  0  0  0  0  0  0  0
  2  3  1  0
  2  1  1  1
  4  9  2  0
  4  3  1  0
  5  4  1  0
  6  7  1  0
  6  5  2  0
  7  8  2  0
  8  9  1  0
 10  2  1  0
 10 11  2  0
 12 13  1  0
 14 13  1  0
 14 15  1  6
 14 16  1  0
 16 17  1  1
 17 10  1  0
 18 16  1  0
 19 18  2  0
 20 21  1  0
 21 22  1  0
 22 24  1  0
 22 23  1  6
 24 25  1  1
 24 26  1  0
 25 18  1  0
 26 28  2  0
 26 27  1  0
M  END
$$$$
