FII.pdb
     RDKit          3D

 28 28  0  0  1  0  0  0  0  0999 V2000
    5.0312  -17.9241   23.8144 N   0  0  0  0  0  0  0  0  0  0  0  0
    5.5977  -16.6425   24.1406 C   0  0  1  0  0  0  0  0  0  0  0  0
    5.5968  -16.3470   25.6225 C   0  0  0  0  0  0  0  0  0  0  0  0
    6.0436  -14.9586   25.8753 C   0  0  0  0  0  0  0  0  0  0  0  0
    6.5430  -14.2272   24.8236 C   0  0  0  0  0  0  0  0  0  0  0  0
    6.9765  -12.9346   24.9759 C   0  0  0  0  0  0  0  0  0  0  0  0
    6.9083  -12.3631   26.2072 C   0  0  0  0  0  0  0  0  0  0  0  0
    6.4110  -13.0777   27.2779 C   0  0  0  0  0  0  0  0  0  0  0  0
    5.9758  -14.3782   27.1205 C   0  0  0  0  0  0  0  0  0  0  0  0
    6.9892  -16.5706   23.6263 C   0  0  0  0  0  0  0  0  0  0  0  0
    7.7396  -17.5748   23.6697 O   0  0  0  0  0  0  0  0  0  0  0  0
    8.0128  -12.4279   19.9717 C   0  0  0  0  0  0  0  0  0  0  0  0
    7.9180  -13.8544   20.5331 C   0  0  0  0  0  0  0  0  0  0  0  0
    8.9402  -14.0888   21.5935 C   0  0  2  0  0  0  0  0  0  0  0  0
   10.3219  -13.9762   20.9794 C   0  0  0  0  0  0  0  0  0  0  0  0
    8.8100  -15.3344   22.3945 C   0  0  2  0  0  0  0  0  0  0  0  0
    7.5096  -15.3782   23.0756 N   0  0  0  0  0  0  0  0  0  0  0  0
    9.8342  -15.4688   23.4497 C   0  0  0  0  0  0  0  0  0  0  0  0
   11.0610  -15.5805   23.0885 O   0  0  0  0  0  0  0  0  0  0  0  0
   11.0038  -13.2816   29.0173 C   0  0  0  0  0  0  0  0  0  0  0  0
   11.4443  -14.0873   27.7988 C   0  0  0  0  0  0  0  0  0  0  0  0
   10.3024  -14.3619   26.8775 C   0  0  2  0  0  0  0  0  0  0  0  0
    9.0928  -14.9022   27.6126 C   0  0  0  0  0  0  0  0  0  0  0  0
   10.7250  -15.2327   25.7435 C   0  0  2  0  0  0  0  0  0  0  0  0
    9.5989  -15.4818   24.8334 N   0  0  0  0  0  0  0  0  0  0  0  0
   11.2741  -16.5358   26.1448 C   0  0  0  0  0  0  0  0  0  0  0  0
   12.5199  -16.7340   26.7321 O   0  0  0  0  0  0  0  0  0  0  0  0
   10.5817  -17.5783   25.9509 O   0  0  0  0  0  0  0  0  0  0  0  0
  2  3  1  0
  2  1  1  1
  4  9  2  0
  4  3  1  0
  5  4  1  0
  6  7  1  0
  6  5  2  0
  7  8  2  0
  8  9  1  0
 10  2  1  0
 10 11  2  0
 12 13  1  0
 14 13  1  0
 14 15  1  6
 14 16  1  0
 16 17  1  1
 17 10  1  0
 18 16  1  0
 19 18  2  0
 20 21  1  0
 21 22  1  0
 22 24  1  0
 22 23  1  1
 24 25  1  6
 24 26  1  0
 25 18  1  0
 26 28  2  0
 26 27  1  0
M  END
$$$$
