FII.pdb
     RDKit          3D

 28 28  0  0  1  0  0  0  0  0999 V2000
    5.4201  -19.3324   23.4284 N   0  0  0  0  0  0  0  0  0  0  0  0
    5.7227  -18.0693   24.0470 C   0  0  1  0  0  0  0  0  0  0  0  0
    5.7646  -18.1364   25.5560 C   0  0  0  0  0  0  0  0  0  0  0  0
    5.9099  -16.7806   26.1321 C   0  0  0  0  0  0  0  0  0  0  0  0
    6.8526  -16.5806   27.1128 C   0  0  0  0  0  0  0  0  0  0  0  0
    7.0490  -15.3545   27.6956 C   0  0  0  0  0  0  0  0  0  0  0  0
    6.2851  -14.3069   27.2874 C   0  0  0  0  0  0  0  0  0  0  0  0
    5.3323  -14.4834   26.3049 C   0  0  0  0  0  0  0  0  0  0  0  0
    5.1378  -15.7190   25.7209 C   0  0  0  0  0  0  0  0  0  0  0  0
    7.0267  -17.5698   23.5412 C   0  0  0  0  0  0  0  0  0  0  0  0
    7.9575  -18.3676   23.2754 O   0  0  0  0  0  0  0  0  0  0  0  0
    7.0112  -12.9119   20.4369 C   0  0  0  0  0  0  0  0  0  0  0  0
    7.2324  -14.3429   20.9492 C   0  0  0  0  0  0  0  0  0  0  0  0
    8.2326  -14.3742   22.0551 C   0  0  2  0  0  0  0  0  0  0  0  0
    9.5258  -13.7508   21.5677 C   0  0  0  0  0  0  0  0  0  0  0  0
    8.4826  -15.6884   22.7036 C   0  0  2  0  0  0  0  0  0  0  0  0
    7.2601  -16.1905   23.3441 N   0  0  0  0  0  0  0  0  0  0  0  0
    9.5131  -15.6401   23.7601 C   0  0  0  0  0  0  0  0  0  0  0  0
   10.6325  -15.0751   23.4852 O   0  0  0  0  0  0  0  0  0  0  0  0
    8.1604  -13.5246   28.1064 C   0  0  0  0  0  0  0  0  0  0  0  0
    8.9549  -14.0344   26.9078 C   0  0  0  0  0  0  0  0  0  0  0  0
    9.8001  -15.2111   27.2669 C   0  0  2  0  0  0  0  0  0  0  0  0
   10.8175  -14.8776   28.3388 C   0  0  0  0  0  0  0  0  0  0  0  0
   10.4180  -15.8186   26.0536 C   0  0  2  0  0  0  0  0  0  0  0  0
    9.3888  -16.1542   25.0603 N   0  0  0  0  0  0  0  0  0  0  0  0
   11.2056  -17.0327   26.3112 C   0  0  0  0  0  0  0  0  0  0  0  0
   12.5263  -17.0533   26.7488 O   0  0  0  0  0  0  0  0  0  0  0  0
   10.6661  -18.1634   26.1268 O   0  0  0  0  0  0  0  0  0  0  0  0
  2  3  1  0
  2  1  1  6
  4  9  2  0
  4  3  1  0
  5  4  1  0
  6  7  1  0
  6  5  2  0
  7  8  2  0
  8  9  1  0
 10  2  1  0
 10 11  2  0
 12 13  1  0
 14 13  1  0
 14 15  1  6
 14 16  1  0
 16 17  1  1
 17 10  1  0
 18 16  1  0
 19 18  2  0
 20 21  1  0
 21 22  1  0
 22 24  1  0
 22 23  1  1
 24 25  1  6
 24 26  1  0
 25 18  1  0
 26 28  2  0
 26 27  1  0
M  END
$$$$
