FII.pdb
     RDKit          3D

 28 28  0  0  1  0  0  0  0  0999 V2000
    6.6335  -17.2079   20.7837 N   0  0  0  0  0  0  0  0  0  0  0  0
    6.1309  -16.8372   22.0798 C   0  0  1  0  0  0  0  0  0  0  0  0
    5.5593  -18.0012   22.8556 C   0  0  0  0  0  0  0  0  0  0  0  0
    4.2749  -18.4387   22.2640 C   0  0  0  0  0  0  0  0  0  0  0  0
    3.8402  -17.8279   21.1114 C   0  0  0  0  0  0  0  0  0  0  0  0
    2.6622  -18.1769   20.5015 C   0  0  0  0  0  0  0  0  0  0  0  0
    1.9038  -19.1582   21.0578 C   0  0  0  0  0  0  0  0  0  0  0  0
    2.3194  -19.7855   22.2146 C   0  0  0  0  0  0  0  0  0  0  0  0
    3.5056  -19.4313   22.8253 C   0  0  0  0  0  0  0  0  0  0  0  0
    7.2180  -16.2061   22.8707 C   0  0  0  0  0  0  0  0  0  0  0  0
    8.4143  -16.3062   22.5070 O   0  0  0  0  0  0  0  0  0  0  0  0
    7.7233  -12.0329   27.4744 C   0  0  0  0  0  0  0  0  0  0  0  0
    8.4046  -13.1690   26.6970 C   0  0  0  0  0  0  0  0  0  0  0  0
    7.4790  -13.7710   25.6944 C   0  0  2  0  0  0  0  0  0  0  0  0
    6.1898  -14.1652   26.3883 C   0  0  0  0  0  0  0  0  0  0  0  0
    8.0086  -14.8906   24.8720 C   0  0  2  0  0  0  0  0  0  0  0  0
    6.9429  -15.4779   24.0496 N   0  0  0  0  0  0  0  0  0  0  0  0
    8.5713  -15.9971   25.6716 C   0  0  0  0  0  0  0  0  0  0  0  0
    7.7544  -16.8295   26.2080 O   0  0  0  0  0  0  0  0  0  0  0  0
   12.4789  -18.6213   23.5194 C   0  0  0  0  0  0  0  0  0  0  0  0
   11.2400  -18.1791   24.2923 C   0  0  0  0  0  0  0  0  0  0  0  0
   11.5071  -18.0913   25.7582 C   0  0  2  0  0  0  0  0  0  0  0  0
   11.9744  -19.4126   26.3337 C   0  0  0  0  0  0  0  0  0  0  0  0
   10.3335  -17.5281   26.4850 C   0  0  2  0  0  0  0  0  0  0  0  0
    9.9342  -16.2388   25.9047 N   0  0  0  0  0  0  0  0  0  0  0  0
   10.5459  -17.3253   27.9253 C   0  0  0  0  0  0  0  0  0  0  0  0
   10.2920  -18.2710   28.9139 O   0  0  0  0  0  0  0  0  0  0  0  0
   10.9926  -16.2106   28.3276 O   0  0  0  0  0  0  0  0  0  0  0  0
  2  3  1  0
  2  1  1  6
  4  9  2  0
  4  3  1  0
  5  4  1  0
  6  7  1  0
  6  5  2  0
  7  8  2  0
  8  9  1  0
 10  2  1  0
 10 11  2  0
 12 13  1  0
 14 13  1  0
 14 15  1  1
 14 16  1  0
 16 17  1  1
 17 10  1  0
 18 16  1  0
 19 18  2  0
 20 21  1  0
 21 22  1  0
 22 24  1  0
 22 23  1  1
 24 25  1  6
 24 26  1  0
 25 18  1  0
 26 28  2  0
 26 27  1  0
M  END
$$$$
