RLK.pdb
     RDKit          3D

 29 28  0  0  1  0  0  0  0  0999 V2000
   13.7191  -13.3732  -13.6993 N   0  0  0  0  0  0  0  0  0  0  0  0
   13.5637  -11.9819  -13.7914 C   0  0  0  0  0  0  0  0  0  0  0  0
   12.6077  -11.3891  -13.1216 N   0  0  0  0  0  0  0  0  0  0  0  0
   14.4403  -11.2236  -14.6085 N   0  0  0  0  0  0  0  0  0  0  0  0
   14.5157  -11.3980  -16.0440 C   0  0  0  0  0  0  0  0  0  0  0  0
   15.8987  -11.7201  -16.4979 C   0  0  0  0  0  0  0  0  0  0  0  0
   16.8396  -10.5889  -16.6318 C   0  0  0  0  0  0  0  0  0  0  0  0
   18.1927  -10.7557  -16.0087 C   0  0  2  0  0  0  0  0  0  0  0  0
   18.4269  -12.0139  -15.3920 N   0  0  0  0  0  0  0  0  0  0  0  0
   18.5902   -9.5731  -15.2033 C   0  0  0  0  0  0  0  0  0  0  0  0
   18.1455   -9.4247  -14.0134 O   0  0  0  0  0  0  0  0  0  0  0  0
   12.5300  -10.3509  -13.1408 C   0  0  0  0  0  0  0  0  0  0  0  0
   23.4761   -6.3067  -14.3160 C   0  0  1  0  0  0  0  0  0  0  0  0
   21.9613   -6.2038  -14.1699 C   0  0  0  0  0  0  0  0  0  0  0  0
   21.6262   -5.7612  -12.8061 C   0  0  0  0  0  0  0  0  0  0  0  0
   21.2404   -7.3314  -14.7694 C   0  0  2  0  0  0  0  0  0  0  0  0
   19.7708   -7.3885  -14.7802 N   0  0  0  0  0  0  0  0  0  0  0  0
   19.4539   -8.5517  -15.6555 C   0  0  0  0  0  0  0  0  0  0  0  0
   19.0696   -6.2590  -15.3852 O   0  0  0  0  0  0  0  0  0  0  0  0
   19.1795   -6.0900  -16.6536 N   0  0  0  0  0  0  0  0  0  0  0  0
   18.2523   -5.3044  -14.7349 C   0  0  1  0  0  0  0  0  0  0  0  0
   17.6198   -4.1872  -15.5290 C   0  0  0  0  0  0  0  0  0  0  0  0
   16.1796   -4.3480  -15.1842 C   0  0  0  0  0  0  0  0  0  0  0  0
   15.1375   -3.4004  -15.5077 C   0  0  0  0  0  0  0  0  0  0  0  0
   13.7376   -3.6765  -15.1333 C   0  0  0  0  0  0  0  0  0  0  0  0
   12.8539   -2.5155  -15.6741 N   0  0  0  0  0  0  0  0  0  0  0  0
   11.4858   -2.7491  -15.3248 C   0  0  0  0  0  0  0  0  0  0  0  0
   18.2725   -2.9412  -15.1670 O   0  0  0  0  0  0  0  0  0  0  0  0
   19.0389   -2.7721  -14.1904 O   0  0  0  0  0  0  0  0  0  0  0  0
  2  3  2  0
  2  1  1  0
  4  2  1  0
  5  4  1  0
  6  5  1  0
  7  6  1  0
  8  7  1  0
  8  9  1  1
 10 17  1  0
 10  8  1  0
 11 10  2  0
 13 12  1  6
 14 13  1  0
 15 13  1  0
 16 15  1  1
 16 17  1  0
 18 19  2  0
 18 16  1  0
 20 18  1  0
 21 20  1  0
 21 27  1  0
 21 22  1  6
 23 22  1  0
 24 23  1  0
 25 26  1  0
 25 24  1  0
 27 29  1  0
 28 27  2  0
M  END
$$$$
