RLK.pdb
     RDKit          3D

 29 28  0  0  1  0  0  0  0  0999 V2000
   19.1438  -23.1897  -10.1723 N   0  0  0  0  0  0  0  0  0  0  0  0
   19.3377  -23.4437  -11.5385 C   0  0  0  0  0  0  0  0  0  0  0  0
   18.9318  -24.5772  -12.0527 N   0  0  0  0  0  0  0  0  0  0  0  0
   19.9718  -22.4742  -12.3563 N   0  0  0  0  0  0  0  0  0  0  0  0
   20.4212  -21.1958  -11.8458 C   0  0  0  0  0  0  0  0  0  0  0  0
   21.8833  -20.9917  -12.0534 C   0  0  0  0  0  0  0  0  0  0  0  0
   22.5973  -20.1877  -11.0402 C   0  0  0  0  0  0  0  0  0  0  0  0
   23.9460  -20.6815  -10.6109 C   0  0  2  0  0  0  0  0  0  0  0  0
   24.2723  -20.4502   -9.2478 N   0  0  0  0  0  0  0  0  0  0  0  0
   25.0100  -20.3278  -11.5846 C   0  0  0  0  0  0  0  0  0  0  0  0
   25.4180  -19.1197  -11.6828 O   0  0  0  0  0  0  0  0  0  0  0  0
   19.1127  -24.7834  -13.0572 C   0  0  0  0  0  0  0  0  0  0  0  0
   29.3991  -19.6885  -12.1843 C   0  0  1  0  0  0  0  0  0  0  0  0
   28.8366  -21.0611  -11.8289 C   0  0  0  0  0  0  0  0  0  0  0  0
   29.9131  -21.9122  -11.2951 C   0  0  0  0  0  0  0  0  0  0  0  0
   27.9182  -21.5938  -12.8405 C   0  0  2  0  0  0  0  0  0  0  0  0
   26.7670  -20.8156  -13.3225 N   0  0  0  0  0  0  0  0  0  0  0  0
   25.6390  -21.2485  -12.4508 C   0  0  0  0  0  0  0  0  0  0  0  0
   26.3137  -21.0807  -14.6855 O   0  0  0  0  0  0  0  0  0  0  0  0
   25.3423  -21.9048  -14.8487 N   0  0  0  0  0  0  0  0  0  0  0  0
   26.8163  -20.5215  -15.8842 C   0  0  1  0  0  0  0  0  0  0  0  0
   26.0004  -20.5978  -17.1520 C   0  0  0  0  0  0  0  0  0  0  0  0
   24.7529  -19.8886  -16.7526 C   0  0  0  0  0  0  0  0  0  0  0  0
   23.4226  -20.2322  -17.2007 C   0  0  0  0  0  0  0  0  0  0  0  0
   22.2655  -19.4110  -16.7970 C   0  0  0  0  0  0  0  0  0  0  0  0
   20.9960  -19.9925  -17.4838 N   0  0  0  0  0  0  0  0  0  0  0  0
   19.8426  -19.2557  -17.0658 C   0  0  0  0  0  0  0  0  0  0  0  0
   26.7861  -20.0367  -18.2370 O   0  0  0  0  0  0  0  0  0  0  0  0
   27.6461  -19.1321  -18.1276 O   0  0  0  0  0  0  0  0  0  0  0  0
  2  3  2  0
  2  1  1  0
  4  2  1  0
  5  4  1  0
  6  5  1  0
  7  6  1  0
  8  7  1  0
  8  9  1  1
 10 17  1  0
 10  8  1  0
 11 10  2  0
 13 12  1  1
 14 13  1  0
 15 13  1  0
 16 15  1  1
 16 17  1  0
 18 19  2  0
 18 16  1  0
 20 18  1  0
 21 20  1  0
 21 27  1  0
 21 22  1  6
 23 22  1  0
 24 23  1  0
 25 26  1  0
 25 24  1  0
 27 29  1  0
 28 27  2  0
M  END
$$$$
