RLK.pdb
     RDKit          3D

 29 28  0  0  1  0  0  0  0  0999 V2000
   30.0494  -19.6639  -18.7259 N   0  0  0  0  0  0  0  0  0  0  0  0
   29.3603  -19.0779  -19.7984 C   0  0  0  0  0  0  0  0  0  0  0  0
   30.0302  -18.4926  -20.7590 N   0  0  0  0  0  0  0  0  0  0  0  0
   27.9435  -19.1208  -19.8384 N   0  0  0  0  0  0  0  0  0  0  0  0
   27.1365  -19.3668  -18.6615 C   0  0  0  0  0  0  0  0  0  0  0  0
   27.4622  -20.6731  -18.0212 C   0  0  0  0  0  0  0  0  0  0  0  0
   26.5623  -21.1330  -16.9436 C   0  0  0  0  0  0  0  0  0  0  0  0
   25.8963  -20.0733  -16.1187 C   0  0  2  0  0  0  0  0  0  0  0  0
   26.7584  -19.0607  -15.6191 N   0  0  0  0  0  0  0  0  0  0  0  0
   24.9509  -20.6449  -15.1263 C   0  0  0  0  0  0  0  0  0  0  0  0
   24.3178  -21.7251  -15.3873 O   0  0  0  0  0  0  0  0  0  0  0  0
   29.5185  -18.0440  -21.5471 C   0  0  0  0  0  0  0  0  0  0  0  0
   25.6955  -22.4136  -11.1356 C   0  0  2  0  0  0  0  0  0  0  0  0
   25.5790  -20.8968  -11.0237 C   0  0  0  0  0  0  0  0  0  0  0  0
   26.0398  -20.4635   -9.6940 C   0  0  0  0  0  0  0  0  0  0  0  0
   24.3258  -20.3670  -11.5707 C   0  0  2  0  0  0  0  0  0  0  0  0
   23.8160  -20.7941  -12.8825 N   0  0  0  0  0  0  0  0  0  0  0  0
   24.6763  -20.0755  -13.8638 C   0  0  0  0  0  0  0  0  0  0  0  0
   22.4499  -20.4025  -13.2204 O   0  0  0  0  0  0  0  0  0  0  0  0
   22.1946  -19.1500  -13.3444 N   0  0  0  0  0  0  0  0  0  0  0  0
   21.3411  -21.2523  -13.4451 C   0  0  1  0  0  0  0  0  0  0  0  0
   19.9677  -20.6610  -13.6524 C   0  0  0  0  0  0  0  0  0  0  0  0
   19.4414  -21.4998  -14.7652 C   0  0  0  0  0  0  0  0  0  0  0  0
   18.4486  -21.0765  -15.7263 C   0  0  0  0  0  0  0  0  0  0  0  0
   17.2277  -21.8771  -15.9375 C   0  0  0  0  0  0  0  0  0  0  0  0
   16.3738  -21.1775  -17.0342 N   0  0  0  0  0  0  0  0  0  0  0  0
   15.2237  -21.9759  -17.3308 C   0  0  0  0  0  0  0  0  0  0  0  0
   19.2605  -20.6890  -12.3841 O   0  0  0  0  0  0  0  0  0  0  0  0
   19.4735  -21.4889  -11.4437 O   0  0  0  0  0  0  0  0  0  0  0  0
  2  3  2  0
  2  1  1  0
  4  2  1  0
  5  4  1  0
  6  5  1  0
  7  6  1  0
  8  7  1  0
  8  9  1  1
 10 17  1  0
 10  8  1  0
 11 10  2  0
 13 12  1  6
 14 13  1  0
 15 13  1  0
 16 15  1  1
 16 17  1  0
 18 19  2  0
 18 16  1  0
 20 18  1  0
 21 20  1  0
 21 27  1  0
 21 22  1  1
 23 22  1  0
 24 23  1  0
 25 26  1  0
 25 24  1  0
 27 29  1  0
 28 27  2  0
M  END
$$$$
