RLK.pdb
     RDKit          3D

 29 28  0  0  1  0  0  0  0  0999 V2000
   35.4532  -24.1080  -12.7920 N   0  0  0  0  0  0  0  0  0  0  0  0
   34.3122  -24.4556  -13.5307 C   0  0  0  0  0  0  0  0  0  0  0  0
   34.4447  -24.9716  -14.7267 N   0  0  0  0  0  0  0  0  0  0  0  0
   33.0216  -24.2472  -12.9812 N   0  0  0  0  0  0  0  0  0  0  0  0
   32.8101  -23.5587  -11.7249 C   0  0  0  0  0  0  0  0  0  0  0  0
   31.9072  -22.3820  -11.8754 C   0  0  0  0  0  0  0  0  0  0  0  0
   30.5725  -22.6327  -12.4571 C   0  0  0  0  0  0  0  0  0  0  0  0
   29.6766  -21.4441  -12.6344 C   0  0  2  0  0  0  0  0  0  0  0  0
   30.3291  -20.1823  -12.6111 N   0  0  0  0  0  0  0  0  0  0  0  0
   28.4491  -21.5365  -11.8038 C   0  0  0  0  0  0  0  0  0  0  0  0
   27.6491  -22.5245  -11.9436 O   0  0  0  0  0  0  0  0  0  0  0  0
   33.5979  -25.2230  -15.2780 C   0  0  0  0  0  0  0  0  0  0  0  0
   26.4980  -18.8553   -6.6739 C   0  0  1  0  0  0  0  0  0  0  0  0
   26.1200  -19.9093   -7.7097 C   0  0  0  0  0  0  0  0  0  0  0  0
   25.5129  -21.0686   -7.0348 C   0  0  0  0  0  0  0  0  0  0  0  0
   27.1504  -20.1168   -8.7323 C   0  0  2  0  0  0  0  0  0  0  0  0
   26.8528  -20.8039   -9.9981 N   0  0  0  0  0  0  0  0  0  0  0  0
   28.0697  -20.5872  -10.8298 C   0  0  0  0  0  0  0  0  0  0  0  0
   25.7508  -20.2721  -10.7960 O   0  0  0  0  0  0  0  0  0  0  0  0
   25.9801  -19.2455  -11.5328 N   0  0  0  0  0  0  0  0  0  0  0  0
   24.4262  -20.7638  -10.8708 C   0  0  1  0  0  0  0  0  0  0  0  0
   23.5087  -20.2942  -11.9738 C   0  0  0  0  0  0  0  0  0  0  0  0
   24.1446  -20.9016  -13.1761 C   0  0  0  0  0  0  0  0  0  0  0  0
   23.5977  -20.8639  -14.5132 C   0  0  0  0  0  0  0  0  0  0  0  0
   24.3073  -21.5213  -15.6269 C   0  0  0  0  0  0  0  0  0  0  0  0
   23.4987  -21.2692  -16.9323 N   0  0  0  0  0  0  0  0  0  0  0  0
   24.1314  -20.2396  -17.6990 C   0  0  0  0  0  0  0  0  0  0  0  0
   22.1524  -20.6957  -11.6437 O   0  0  0  0  0  0  0  0  0  0  0  0
   21.1149  -20.3398  -12.2491 O   0  0  0  0  0  0  0  0  0  0  0  0
  2  3  2  0
  2  1  1  0
  4  2  1  0
  5  4  1  0
  6  5  1  0
  7  6  1  0
  8  7  1  0
  8  9  1  1
 10 17  1  0
 10  8  1  0
 11 10  2  0
 13 12  1  6
 14 13  1  0
 15 13  1  0
 16 15  1  1
 16 17  1  0
 18 19  2  0
 18 16  1  0
 20 18  1  0
 21 20  1  0
 21 27  1  0
 21 22  1  1
 23 22  1  0
 24 23  1  0
 25 26  1  0
 25 24  1  0
 27 29  1  0
 28 27  2  0
M  END
$$$$
