RLK.pdb
     RDKit          3D

 29 28  0  0  1  0  0  0  0  0999 V2000
   15.2608  -28.1332  -15.1227 N   0  0  0  0  0  0  0  0  0  0  0  0
   14.7505  -28.6776  -13.9346 C   0  0  0  0  0  0  0  0  0  0  0  0
   14.2008  -29.8658  -13.9478 N   0  0  0  0  0  0  0  0  0  0  0  0
   14.8311  -27.9408  -12.7257 N   0  0  0  0  0  0  0  0  0  0  0  0
   15.4686  -26.6432  -12.6436 C   0  0  0  0  0  0  0  0  0  0  0  0
   16.8785  -26.7400  -12.1690 C   0  0  0  0  0  0  0  0  0  0  0  0
   17.6230  -25.4726  -12.0199 C   0  0  0  0  0  0  0  0  0  0  0  0
   19.0743  -25.5778  -11.6597 C   0  0  2  0  0  0  0  0  0  0  0  0
   19.6994  -26.8052  -12.0075 N   0  0  0  0  0  0  0  0  0  0  0  0
   19.3475  -25.0975  -10.2813 C   0  0  0  0  0  0  0  0  0  0  0  0
   19.8058  -25.9007   -9.3979 O   0  0  0  0  0  0  0  0  0  0  0  0
   13.8476  -30.2819  -13.0611 C   0  0  0  0  0  0  0  0  0  0  0  0
   21.8891  -21.7292   -8.0189 C   0  0  2  0  0  0  0  0  0  0  0  0
   20.6617  -21.2154   -8.7646 C   0  0  0  0  0  0  0  0  0  0  0  0
   20.6713  -19.7430   -8.7747 C   0  0  0  0  0  0  0  0  0  0  0  0
   19.4301  -21.9353   -8.4249 C   0  0  2  0  0  0  0  0  0  0  0  0
   19.3739  -23.4049   -8.4159 N   0  0  0  0  0  0  0  0  0  0  0  0
   19.1360  -23.7731   -9.8398 C   0  0  0  0  0  0  0  0  0  0  0  0
   18.2735  -24.0201   -7.6782 O   0  0  0  0  0  0  0  0  0  0  0  0
   17.0895  -23.9187   -8.1653 N   0  0  0  0  0  0  0  0  0  0  0  0
   18.3486  -24.7434   -6.4643 C   0  0  1  0  0  0  0  0  0  0  0  0
   17.0862  -25.2467   -5.8073 C   0  0  0  0  0  0  0  0  0  0  0  0
   17.6202  -26.2791   -4.8756 C   0  0  0  0  0  0  0  0  0  0  0  0
   16.8305  -27.0279   -3.9248 C   0  0  0  0  0  0  0  0  0  0  0  0
   17.4645  -28.0510   -3.0721 C   0  0  0  0  0  0  0  0  0  0  0  0
   18.6981  -27.4054   -2.3772 N   0  0  0  0  0  0  0  0  0  0  0  0
   19.3733  -28.3878   -1.5852 C   0  0  0  0  0  0  0  0  0  0  0  0
   16.3828  -24.1115   -5.2361 O   0  0  0  0  0  0  0  0  0  0  0  0
   15.1704  -24.0830   -4.9219 O   0  0  0  0  0  0  0  0  0  0  0  0
  2  3  2  0
  2  1  1  0
  4  2  1  0
  5  4  1  0
  6  5  1  0
  7  6  1  0
  8  7  1  0
  8  9  1  1
 10 17  1  0
 10  8  1  0
 11 10  2  0
 13 12  1  6
 14 13  1  0
 15 13  1  0
 16 15  1  6
 16 17  1  0
 18 19  2  0
 18 16  1  0
 20 18  1  0
 21 20  1  0
 21 27  1  0
 21 22  1  1
 23 22  1  0
 24 23  1  0
 25 26  1  0
 25 24  1  0
 27 29  1  0
 28 27  2  0
M  END
$$$$
