RLK.pdb
     RDKit          3D

 29 28  0  0  1  0  0  0  0  0999 V2000
   24.9665  -21.9258  -17.3971 N   0  0  0  0  0  0  0  0  0  0  0  0
   25.1301  -20.6951  -18.0506 C   0  0  0  0  0  0  0  0  0  0  0  0
   24.3708  -20.3972  -19.0747 N   0  0  0  0  0  0  0  0  0  0  0  0
   26.1156  -19.7798  -17.6014 N   0  0  0  0  0  0  0  0  0  0  0  0
   26.7624  -19.9002  -16.3113 C   0  0  0  0  0  0  0  0  0  0  0  0
   26.1246  -19.0317  -15.2811 C   0  0  0  0  0  0  0  0  0  0  0  0
   25.5502  -19.7068  -14.0991 C   0  0  0  0  0  0  0  0  0  0  0  0
   26.5119  -20.3950  -13.1780 C   0  0  2  0  0  0  0  0  0  0  0  0
   27.4480  -21.2567  -13.8100 N   0  0  0  0  0  0  0  0  0  0  0  0
   25.8373  -20.9622  -11.9828 C   0  0  0  0  0  0  0  0  0  0  0  0
   25.4828  -22.1909  -11.9652 O   0  0  0  0  0  0  0  0  0  0  0  0
   24.4723  -19.4721  -19.5418 C   0  0  0  0  0  0  0  0  0  0  0  0
   27.3799  -21.3731   -7.8115 C   0  0  2  0  0  0  0  0  0  0  0  0
   26.7430  -20.0159   -8.0928 C   0  0  0  0  0  0  0  0  0  0  0  0
   27.1562  -19.0532   -7.0582 C   0  0  0  0  0  0  0  0  0  0  0  0
   25.3331  -20.1047   -8.4863 C   0  0  2  0  0  0  0  0  0  0  0  0
   24.9048  -20.9051   -9.6435 N   0  0  0  0  0  0  0  0  0  0  0  0
   25.5386  -20.2321  -10.8117 C   0  0  0  0  0  0  0  0  0  0  0  0
   23.4757  -20.9187   -9.9455 O   0  0  0  0  0  0  0  0  0  0  0  0
   22.9801  -19.9078  -10.5635 N   0  0  0  0  0  0  0  0  0  0  0  0
   22.5416  -21.9379   -9.6443 C   0  0  1  0  0  0  0  0  0  0  0  0
   21.0905  -21.7668  -10.0234 C   0  0  0  0  0  0  0  0  0  0  0  0
   20.7983  -23.0628  -10.6971 C   0  0  0  0  0  0  0  0  0  0  0  0
   19.5048  -23.4632  -11.2021 C   0  0  0  0  0  0  0  0  0  0  0  0
   19.3120  -24.8104  -11.7712 C   0  0  0  0  0  0  0  0  0  0  0  0
   17.8603  -24.8989  -12.3247 N   0  0  0  0  0  0  0  0  0  0  0  0
   17.6570  -26.1748  -12.9403 C   0  0  0  0  0  0  0  0  0  0  0  0
   20.3395  -21.4370   -8.8247 O   0  0  0  0  0  0  0  0  0  0  0  0
   20.7574  -21.5356   -7.6477 O   0  0  0  0  0  0  0  0  0  0  0  0
  2  3  2  0
  2  1  1  0
  4  2  1  0
  5  4  1  0
  6  5  1  0
  7  6  1  0
  8  7  1  0
  8  9  1  6
 10 17  1  0
 10  8  1  0
 11 10  2  0
 13 12  1  6
 14 13  1  0
 15 13  1  0
 16 15  1  1
 16 17  1  0
 18 19  2  0
 18 16  1  0
 20 18  1  0
 21 20  1  0
 21 27  1  0
 21 22  1  1
 23 22  1  0
 24 23  1  0
 25 26  1  0
 25 24  1  0
 27 29  1  0
 28 27  2  0
M  END
$$$$
