RLK.pdb
     RDKit          3D

 29 28  0  0  1  0  0  0  0  0999 V2000
   26.5905  -15.8984  -19.3792 N   0  0  0  0  0  0  0  0  0  0  0  0
   25.9580  -17.1438  -19.2469 C   0  0  0  0  0  0  0  0  0  0  0  0
   24.8377  -17.3745  -19.8840 N   0  0  0  0  0  0  0  0  0  0  0  0
   26.5325  -18.1465  -18.4251 N   0  0  0  0  0  0  0  0  0  0  0  0
   27.7319  -17.9236  -17.6449 C   0  0  0  0  0  0  0  0  0  0  0  0
   28.1757  -19.1567  -16.9342 C   0  0  0  0  0  0  0  0  0  0  0  0
   27.2078  -19.7809  -16.0089 C   0  0  0  0  0  0  0  0  0  0  0  0
   27.6799  -20.9790  -15.2416 C   0  0  2  0  0  0  0  0  0  0  0  0
   28.1594  -22.0571  -16.0327 N   0  0  0  0  0  0  0  0  0  0  0  0
   26.7380  -21.3596  -14.1584 C   0  0  0  0  0  0  0  0  0  0  0  0
   25.8105  -22.2117  -14.3807 O   0  0  0  0  0  0  0  0  0  0  0  0
   24.4065  -18.3214  -19.8451 C   0  0  0  0  0  0  0  0  0  0  0  0
   24.0912  -20.7967   -9.3553 C   0  0  1  0  0  0  0  0  0  0  0  0
   25.5919  -21.0638   -9.2989 C   0  0  0  0  0  0  0  0  0  0  0  0
   26.1379  -20.5453   -8.0336 C   0  0  0  0  0  0  0  0  0  0  0  0
   26.2815  -20.7815  -10.5620 C   0  0  2  0  0  0  0  0  0  0  0  0
   25.7292  -21.2132  -11.8549 N   0  0  0  0  0  0  0  0  0  0  0  0
   26.7771  -20.8402  -12.8460 C   0  0  0  0  0  0  0  0  0  0  0  0
   24.5178  -20.5389  -12.3147 O   0  0  0  0  0  0  0  0  0  0  0  0
   24.6067  -19.3031  -12.6530 N   0  0  0  0  0  0  0  0  0  0  0  0
   23.2223  -21.0921  -12.4486 C   0  0  1  0  0  0  0  0  0  0  0  0
   22.0876  -20.2392  -12.9619 C   0  0  0  0  0  0  0  0  0  0  0  0
   22.2821  -20.3309  -14.4359 C   0  0  0  0  0  0  0  0  0  0  0  0
   21.3439  -19.8585  -15.4284 C   0  0  0  0  0  0  0  0  0  0  0  0
   21.6235  -20.0432  -16.8649 C   0  0  0  0  0  0  0  0  0  0  0  0
   20.4361  -19.4411  -17.6705 N   0  0  0  0  0  0  0  0  0  0  0  0
   20.6900  -19.5729  -19.0728 C   0  0  0  0  0  0  0  0  0  0  0  0
   20.8454  -20.7459  -12.4054 O   0  0  0  0  0  0  0  0  0  0  0  0
   19.7479  -20.1417  -12.3920 O   0  0  0  0  0  0  0  0  0  0  0  0
  2  3  2  0
  2  1  1  0
  4  2  1  0
  5  4  1  0
  6  5  1  0
  7  6  1  0
  8  7  1  0
  8  9  1  6
 10 17  1  0
 10  8  1  0
 11 10  2  0
 13 12  1  1
 14 13  1  0
 15 13  1  0
 16 15  1  1
 16 17  1  0
 18 19  2  0
 18 16  1  0
 20 18  1  0
 21 20  1  0
 21 27  1  0
 21 22  1  1
 23 22  1  0
 24 23  1  0
 25 26  1  0
 25 24  1  0
 27 29  1  0
 28 27  2  0
M  END
$$$$
