RLK.pdb
     RDKit          3D

 29 28  0  0  1  0  0  0  0  0999 V2000
   31.1759  -24.1140  -16.9575 N   0  0  0  0  0  0  0  0  0  0  0  0
   31.1885  -23.4978  -18.2179 C   0  0  0  0  0  0  0  0  0  0  0  0
   32.1229  -23.8049  -19.0820 N   0  0  0  0  0  0  0  0  0  0  0  0
   30.1915  -22.5461  -18.5512 N   0  0  0  0  0  0  0  0  0  0  0  0
   29.0817  -22.2382  -17.6735 C   0  0  0  0  0  0  0  0  0  0  0  0
   28.6627  -23.4181  -16.8643 C   0  0  0  0  0  0  0  0  0  0  0  0
   27.2482  -23.4710  -16.4409 C   0  0  0  0  0  0  0  0  0  0  0  0
   26.5886  -22.1644  -16.1175 C   0  0  2  0  0  0  0  0  0  0  0  0
   27.4392  -21.0274  -16.1589 N   0  0  0  0  0  0  0  0  0  0  0  0
   25.7149  -22.2571  -14.9202 C   0  0  0  0  0  0  0  0  0  0  0  0
   24.9083  -23.2404  -14.7855 O   0  0  0  0  0  0  0  0  0  0  0  0
   32.1801  -23.2912  -19.9859 C   0  0  0  0  0  0  0  0  0  0  0  0
   25.4268  -19.5634   -9.4081 C   0  0  1  0  0  0  0  0  0  0  0  0
   24.8637  -20.6891  -10.2697 C   0  0  0  0  0  0  0  0  0  0  0  0
   24.7952  -21.9289   -9.4785 C   0  0  0  0  0  0  0  0  0  0  0  0
   25.4202  -20.7183  -11.6262 C   0  0  2  0  0  0  0  0  0  0  0  0
   24.7941  -21.5053  -12.6994 N   0  0  0  0  0  0  0  0  0  0  0  0
   25.6945  -21.3129  -13.8705 C   0  0  0  0  0  0  0  0  0  0  0  0
   23.4785  -21.0677  -13.1590 O   0  0  0  0  0  0  0  0  0  0  0  0
   23.3643  -19.8702  -13.6091 N   0  0  0  0  0  0  0  0  0  0  0  0
   22.2801  -21.8197  -13.1817 C   0  0  1  0  0  0  0  0  0  0  0  0
   20.9819  -21.1577  -13.5756 C   0  0  0  0  0  0  0  0  0  0  0  0
   20.0689  -22.3286  -13.6957 C   0  0  0  0  0  0  0  0  0  0  0  0
   18.6384  -22.2502  -13.8857 C   0  0  0  0  0  0  0  0  0  0  0  0
   17.8226  -23.4789  -13.9147 C   0  0  0  0  0  0  0  0  0  0  0  0
   16.3339  -23.0672  -14.1039 N   0  0  0  0  0  0  0  0  0  0  0  0
   15.5072  -24.2354  -14.0991 C   0  0  0  0  0  0  0  0  0  0  0  0
   20.6647  -20.1448  -12.5841 O   0  0  0  0  0  0  0  0  0  0  0  0
   20.8977  -20.2235  -11.3556 O   0  0  0  0  0  0  0  0  0  0  0  0
  2  3  2  0
  2  1  1  0
  4  2  1  0
  5  4  1  0
  6  5  1  0
  7  6  1  0
  8  7  1  0
  8  9  1  1
 10 17  1  0
 10  8  1  0
 11 10  2  0
 13 12  1  1
 14 13  1  0
 15 13  1  0
 16 15  1  1
 16 17  1  0
 18 19  2  0
 18 16  1  0
 20 18  1  0
 21 20  1  0
 21 27  1  0
 21 22  1  1
 23 22  1  0
 24 23  1  0
 25 26  1  0
 25 24  1  0
 27 29  1  0
 28 27  2  0
M  END
$$$$
