RLK.pdb
     RDKit          3D

 29 28  0  0  1  0  0  0  0  0999 V2000
   36.9763  -32.3867    1.0789 N   0  0  0  0  0  0  0  0  0  0  0  0
   37.6760  -32.0108   -0.0776 C   0  0  0  0  0  0  0  0  0  0  0  0
   38.9691  -31.8143   -0.0197 N   0  0  0  0  0  0  0  0  0  0  0  0
   36.9820  -31.8448   -1.3030 N   0  0  0  0  0  0  0  0  0  0  0  0
   35.5541  -32.0523   -1.4257 C   0  0  0  0  0  0  0  0  0  0  0  0
   35.1947  -33.4991   -1.4146 C   0  0  0  0  0  0  0  0  0  0  0  0
   33.8129  -33.8484   -1.8037 C   0  0  0  0  0  0  0  0  0  0  0  0
   33.4717  -35.3072   -1.8546 C   0  0  2  0  0  0  0  0  0  0  0  0
   32.9564  -35.7680   -3.0957 N   0  0  0  0  0  0  0  0  0  0  0  0
   32.7188  -35.7504   -0.6538 C   0  0  0  0  0  0  0  0  0  0  0  0
   31.4887  -36.0865   -0.7520 O   0  0  0  0  0  0  0  0  0  0  0  0
   39.4692  -31.4182   -0.8426 C   0  0  0  0  0  0  0  0  0  0  0  0
   30.2624  -37.6547    3.0604 C   0  0  1  0  0  0  0  0  0  0  0  0
   31.0133  -38.4631    2.0071 C   0  0  0  0  0  0  0  0  0  0  0  0
   31.2004  -39.8431    2.4853 C   0  0  0  0  0  0  0  0  0  0  0  0
   32.1396  -37.7380    1.4102 C   0  0  1  0  0  0  0  0  0  0  0  0
   32.4422  -36.3466    1.7780 N   0  0  0  0  0  0  0  0  0  0  0  0
   33.2650  -35.8369    0.6454 C   0  0  0  0  0  0  0  0  0  0  0  0
   33.2670  -36.1410    2.9659 O   0  0  0  0  0  0  0  0  0  0  0  0
   34.4440  -36.6548    2.9795 N   0  0  0  0  0  0  0  0  0  0  0  0
   32.9288  -35.4185    4.1346 C   0  0  1  0  0  0  0  0  0  0  0  0
   33.9270  -35.2953    5.2602 C   0  0  0  0  0  0  0  0  0  0  0  0
   33.4097  -34.1075    5.9955 C   0  0  0  0  0  0  0  0  0  0  0  0
   33.9362  -33.6110    7.2463 C   0  0  0  0  0  0  0  0  0  0  0  0
   33.3680  -32.3980    7.8644 C   0  0  0  0  0  0  0  0  0  0  0  0
   34.2164  -32.0529    9.1224 N   0  0  0  0  0  0  0  0  0  0  0  0
   33.6760  -30.8933    9.7639 C   0  0  0  0  0  0  0  0  0  0  0  0
   33.9808  -36.5636    5.9658 O   0  0  0  0  0  0  0  0  0  0  0  0
   34.9177  -36.9548    6.7000 O   0  0  0  0  0  0  0  0  0  0  0  0
  2  3  2  0
  2  1  1  0
  4  2  1  0
  5  4  1  0
  6  5  1  0
  7  6  1  0
  8  7  1  0
  8  9  1  6
 10 17  1  0
 10  8  1  0
 11 10  2  0
 13 12  1  6
 14 13  1  0
 15 13  1  0
 16 15  1  6
 16 17  1  0
 18 19  2  0
 18 16  1  0
 20 18  1  0
 21 20  1  0
 21 27  1  0
 21 22  1  1
 23 22  1  0
 24 23  1  0
 25 26  1  0
 25 24  1  0
 27 29  1  0
 28 27  2  0
M  END
$$$$
