RLK.pdb
     RDKit          3D

 29 28  0  0  1  0  0  0  0  0999 V2000
   26.8519  -21.0063  -21.5863 N   0  0  0  0  0  0  0  0  0  0  0  0
   25.5680  -20.8470  -21.0435 C   0  0  0  0  0  0  0  0  0  0  0  0
   24.5165  -21.1512  -21.7617 N   0  0  0  0  0  0  0  0  0  0  0  0
   25.4135  -20.3576  -19.7215 N   0  0  0  0  0  0  0  0  0  0  0  0
   26.5362  -19.9417  -18.9069 C   0  0  0  0  0  0  0  0  0  0  0  0
   27.2395  -21.1011  -18.2876 C   0  0  0  0  0  0  0  0  0  0  0  0
   26.6999  -21.6055  -17.0080 C   0  0  0  0  0  0  0  0  0  0  0  0
   26.9098  -20.7456  -15.7983 C   0  0  2  0  0  0  0  0  0  0  0  0
   28.2617  -20.4128  -15.5163 N   0  0  0  0  0  0  0  0  0  0  0  0
   26.1172  -21.2125  -14.6325 C   0  0  0  0  0  0  0  0  0  0  0  0
   25.3269  -22.2113  -14.7488 O   0  0  0  0  0  0  0  0  0  0  0  0
   23.5632  -20.9556  -21.3913 C   0  0  0  0  0  0  0  0  0  0  0  0
   23.9853  -20.9905   -9.5257 C   0  0  1  0  0  0  0  0  0  0  0  0
   25.5009  -21.0518   -9.6865 C   0  0  0  0  0  0  0  0  0  0  0  0
   26.1471  -20.4898   -8.4887 C   0  0  0  0  0  0  0  0  0  0  0  0
   25.9617  -20.6524  -11.0202 C   0  0  2  0  0  0  0  0  0  0  0  0
   25.3248  -21.1672  -12.2418 N   0  0  0  0  0  0  0  0  0  0  0  0
   26.1604  -20.6246  -13.3495 C   0  0  0  0  0  0  0  0  0  0  0  0
   23.9702  -20.7015  -12.5280 O   0  0  0  0  0  0  0  0  0  0  0  0
   23.8044  -19.4564  -12.7959 N   0  0  0  0  0  0  0  0  0  0  0  0
   22.7833  -21.4712  -12.5583 C   0  0  1  0  0  0  0  0  0  0  0  0
   21.4555  -20.7998  -12.8127 C   0  0  0  0  0  0  0  0  0  0  0  0
   20.7825  -21.7866  -13.7027 C   0  0  0  0  0  0  0  0  0  0  0  0
   19.3977  -21.7269  -14.1117 C   0  0  0  0  0  0  0  0  0  0  0  0
   18.8316  -22.7766  -14.9798 C   0  0  0  0  0  0  0  0  0  0  0  0
   17.3844  -22.3562  -15.3672 N   0  0  0  0  0  0  0  0  0  0  0  0
   16.8349  -23.3095  -16.2824 C   0  0  0  0  0  0  0  0  0  0  0  0
   20.8381  -20.5052  -11.5315 O   0  0  0  0  0  0  0  0  0  0  0  0
   21.0491  -21.1164  -10.4584 O   0  0  0  0  0  0  0  0  0  0  0  0
  2  3  2  0
  2  1  1  0
  4  2  1  0
  5  4  1  0
  6  5  1  0
  7  6  1  0
  8  7  1  0
  8  9  1  1
 10 17  1  0
 10  8  1  0
 11 10  2  0
 13 12  1  1
 14 13  1  0
 15 13  1  0
 16 15  1  1
 16 17  1  0
 18 19  2  0
 18 16  1  0
 20 18  1  0
 21 20  1  0
 21 27  1  0
 21 22  1  1
 23 22  1  0
 24 23  1  0
 25 26  1  0
 25 24  1  0
 27 29  1  0
 28 27  2  0
M  END
$$$$
