RLK.pdb
     RDKit          3D

 29 28  0  0  1  0  0  0  0  0999 V2000
   29.4942  -23.2906  -17.6655 N   0  0  0  0  0  0  0  0  0  0  0  0
   29.5938  -22.4938  -18.8160 C   0  0  0  0  0  0  0  0  0  0  0  0
   30.4102  -22.8416  -19.7786 N   0  0  0  0  0  0  0  0  0  0  0  0
   28.8120  -21.3165  -18.9324 N   0  0  0  0  0  0  0  0  0  0  0  0
   27.7026  -21.0257  -18.0483 C   0  0  0  0  0  0  0  0  0  0  0  0
   27.4524  -22.1313  -17.0801 C   0  0  0  0  0  0  0  0  0  0  0  0
   26.3062  -21.9703  -16.1619 C   0  0  0  0  0  0  0  0  0  0  0  0
   26.0522  -23.0857  -15.1932 C   0  0  2  0  0  0  0  0  0  0  0  0
   25.8790  -24.3694  -15.7763 N   0  0  0  0  0  0  0  0  0  0  0  0
   25.0471  -22.7180  -14.1637 C   0  0  0  0  0  0  0  0  0  0  0  0
   23.8767  -23.2329  -14.1929 O   0  0  0  0  0  0  0  0  0  0  0  0
   30.4986  -22.2403  -20.6241 C   0  0  0  0  0  0  0  0  0  0  0  0
   25.0789  -19.7707   -8.7613 C   0  0  1  0  0  0  0  0  0  0  0  0
   24.2184  -20.5670   -9.7371 C   0  0  0  0  0  0  0  0  0  0  0  0
   23.4725  -21.6037   -9.0043 C   0  0  0  0  0  0  0  0  0  0  0  0
   24.9146  -20.9102  -10.9813 C   0  0  2  0  0  0  0  0  0  0  0  0
   24.2039  -21.5054  -12.1231 N   0  0  0  0  0  0  0  0  0  0  0  0
   25.2793  -21.8091  -13.1085 C   0  0  0  0  0  0  0  0  0  0  0  0
   23.2670  -20.6446  -12.8405 O   0  0  0  0  0  0  0  0  0  0  0  0
   23.7431  -19.8248  -13.7070 N   0  0  0  0  0  0  0  0  0  0  0  0
   21.8590  -20.6038  -12.7061 C   0  0  1  0  0  0  0  0  0  0  0  0
   21.0025  -20.1711  -13.8714 C   0  0  0  0  0  0  0  0  0  0  0  0
   21.4990  -21.0597  -14.9589 C   0  0  0  0  0  0  0  0  0  0  0  0
   20.9309  -21.1465  -16.2849 C   0  0  0  0  0  0  0  0  0  0  0  0
   21.5393  -22.0275  -17.2996 C   0  0  0  0  0  0  0  0  0  0  0  0
   20.6522  -21.9793  -18.5771 N   0  0  0  0  0  0  0  0  0  0  0  0
   21.2958  -22.6938  -19.6371 C   0  0  0  0  0  0  0  0  0  0  0  0
   19.6078  -20.2842  -13.4819 O   0  0  0  0  0  0  0  0  0  0  0  0
   18.6608  -19.6060  -13.9433 O   0  0  0  0  0  0  0  0  0  0  0  0
  2  3  2  0
  2  1  1  0
  4  2  1  0
  5  4  1  0
  6  5  1  0
  7  6  1  0
  8  7  1  0
  8  9  1  6
 10 17  1  0
 10  8  1  0
 11 10  2  0
 13 12  1  1
 14 13  1  0
 15 13  1  0
 16 15  1  1
 16 17  1  0
 18 19  2  0
 18 16  1  0
 20 18  1  0
 21 20  1  0
 21 27  1  0
 21 22  1  6
 23 22  1  0
 24 23  1  0
 25 26  1  0
 25 24  1  0
 27 29  1  0
 28 27  2  0
M  END
$$$$
