HPD.pdb
     RDKit          3D

 26 27  0  0  1  0  0  0  0  0999 V2000
   27.9570  -21.2652  -16.7952 N   0  0  0  0  0  0  0  0  0  0  0  0
   27.4840  -20.4800  -15.6420 C   0  0  1  0  0  0  0  0  0  0  0  0
   27.2546  -19.0654  -16.0258 C   0  0  0  0  0  0  0  0  0  0  0  0
   28.3601  -18.3868  -16.7053 C   0  0  0  0  0  0  0  0  0  0  0  0
   29.6281  -18.1454  -16.2648 C   0  0  0  0  0  0  0  0  0  0  0  0
   30.3392  -17.4763  -17.2068 N   0  0  0  0  0  0  0  0  0  0  0  0
   29.4843  -17.3134  -18.2288 C   0  0  0  0  0  0  0  0  0  0  0  0
   28.2883  -17.8557  -17.9433 N   0  0  0  0  0  0  0  0  0  0  0  0
   26.4116  -21.1582  -14.9230 C   0  0  0  0  0  0  0  0  0  0  0  0
   25.7209  -22.0115  -15.5825 O   0  0  0  0  0  0  0  0  0  0  0  0
   26.0659  -20.9648  -13.5768 N   0  0  0  0  0  0  0  0  0  0  0  0
   26.7208  -20.1114  -12.6217 C   0  0  0  0  0  0  0  0  0  0  0  0
   26.5618  -20.7871  -11.2701 C   0  0  0  0  0  0  0  0  0  0  0  0
   25.5786  -21.8905  -11.5039 C   0  0  0  0  0  0  0  0  0  0  0  0
   24.9783  -21.6093  -12.8763 C   0  0  1  0  0  0  0  0  0  0  0  0
   23.8730  -20.6057  -12.7636 C   0  0  0  0  0  0  0  0  0  0  0  0
   24.1070  -19.3531  -12.7070 O   0  0  0  0  0  0  0  0  0  0  0  0
   22.5011  -20.9714  -12.7121 N   0  0  0  0  0  0  0  0  0  0  0  0
   21.4975  -20.3142  -13.5586 C   0  0  1  0  0  0  0  0  0  0  0  0
   21.8437  -20.4354  -15.0022 C   0  0  0  0  0  0  0  0  0  0  0  0
   20.8098  -19.8090  -15.8357 C   0  0  0  0  0  0  0  0  0  0  0  0
   20.7808  -18.5620  -15.9764 O   0  0  0  0  0  0  0  0  0  0  0  0
   20.2042  -20.9492  -13.2878 C   0  0  0  0  0  0  0  0  0  0  0  0
   20.1313  -22.1795  -13.1077 O   0  0  0  0  0  0  0  0  0  0  0  0
   19.8273  -20.5404  -16.5013 O   0  0  0  0  0  0  0  0  0  0  0  0
   19.0530  -20.1937  -13.2290 O   0  0  0  0  0  0  0  0  0  0  0  0
  2  1  1  6
  3  2  1  0
  4  3  1  0
  5  4  2  0
  6  5  1  0
  7  6  1  0
  7  8  2  0
  8  4  1  0
  9  2  1  0
  9 11  1  0
 10  9  2  0
 11 15  1  0
 12 11  1  0
 12 13  1  0
 13 14  1  0
 15 16  1  1
 15 14  1  0
 16 17  2  0
 18 19  1  0
 18 16  1  0
 20 21  1  0
 19 20  1  6
 21 25  1  0
 22 21  2  0
 23 19  1  0
 24 23  2  0
 26 23  1  0
M  END
$$$$
