HPD.pdb
     RDKit          3D

 26 27  0  0  1  0  0  0  0  0999 V2000
   18.4881  -12.8222  -16.3456 N   0  0  0  0  0  0  0  0  0  0  0  0
   19.6447  -12.0079  -16.7574 C   0  0  1  0  0  0  0  0  0  0  0  0
   19.4184  -11.4095  -18.0959 C   0  0  0  0  0  0  0  0  0  0  0  0
   19.1199  -12.3420  -19.1848 C   0  0  0  0  0  0  0  0  0  0  0  0
   19.9633  -12.9052  -20.0967 C   0  0  0  0  0  0  0  0  0  0  0  0
   19.2765  -13.7107  -20.9453 N   0  0  0  0  0  0  0  0  0  0  0  0
   18.0006  -13.6295  -20.5363 C   0  0  0  0  0  0  0  0  0  0  0  0
   17.8888  -12.8096  -19.4774 N   0  0  0  0  0  0  0  0  0  0  0  0
   20.0892  -11.1143  -15.6939 C   0  0  0  0  0  0  0  0  0  0  0  0
   19.1876  -10.6527  -14.9101 O   0  0  0  0  0  0  0  0  0  0  0  0
   21.4113  -10.7135  -15.4479 N   0  0  0  0  0  0  0  0  0  0  0  0
   22.5858  -11.0728  -16.1970 C   0  0  0  0  0  0  0  0  0  0  0  0
   23.7305  -11.1109  -15.1984 C   0  0  0  0  0  0  0  0  0  0  0  0
   23.1722  -10.5065  -13.9486 C   0  0  0  0  0  0  0  0  0  0  0  0
   21.8557   -9.8627  -14.3672 C   0  0  1  0  0  0  0  0  0  0  0  0
   22.1035   -8.5062  -14.9501 C   0  0  0  0  0  0  0  0  0  0  0  0
   22.5627   -8.3567  -16.1307 O   0  0  0  0  0  0  0  0  0  0  0  0
   21.8482   -7.3027  -14.2395 N   0  0  0  0  0  0  0  0  0  0  0  0
   21.9315   -5.9908  -14.8934 C   0  0  1  0  0  0  0  0  0  0  0  0
   20.6445   -5.6310  -15.5511 C   0  0  0  0  0  0  0  0  0  0  0  0
   19.5374   -5.6926  -14.5885 C   0  0  0  0  0  0  0  0  0  0  0  0
   19.7406   -6.0920  -13.4160 O   0  0  0  0  0  0  0  0  0  0  0  0
   22.2739   -5.0035  -13.8652 C   0  0  0  0  0  0  0  0  0  0  0  0
   22.2126   -5.3035  -12.6578 O   0  0  0  0  0  0  0  0  0  0  0  0
   18.2326   -5.3219  -14.9098 O   0  0  0  0  0  0  0  0  0  0  0  0
   22.6678   -3.7315  -14.2207 O   0  0  0  0  0  0  0  0  0  0  0  0
  2  1  1  1
  3  2  1  0
  4  3  1  0
  5  4  2  0
  6  5  1  0
  7  6  1  0
  7  8  2  0
  8  4  1  0
  9  2  1  0
  9 11  1  0
 10  9  2  0
 11 15  1  0
 12 11  1  0
 12 13  1  0
 13 14  1  0
 15 16  1  6
 15 14  1  0
 16 17  2  0
 18 19  1  0
 18 16  1  0
 20 21  1  0
 19 20  1  1
 21 25  1  0
 22 21  2  0
 23 19  1  0
 24 23  2  0
 26 23  1  0
M  END
$$$$
