HPD.pdb
     RDKit          3D

 26 27  0  0  1  0  0  0  0  0999 V2000
   14.9117  -25.2362    2.1045 N   0  0  0  0  0  0  0  0  0  0  0  0
   16.2551  -24.6438    2.2246 C   0  0  1  0  0  0  0  0  0  0  0  0
   16.1843  -23.1627    2.1778 C   0  0  0  0  0  0  0  0  0  0  0  0
   15.4508  -22.5804    1.0520 C   0  0  0  0  0  0  0  0  0  0  0  0
   15.8055  -22.5001   -0.2625 C   0  0  0  0  0  0  0  0  0  0  0  0
   14.8390  -21.8722   -0.9781 N   0  0  0  0  0  0  0  0  0  0  0  0
   13.8891  -21.5706   -0.0788 C   0  0  0  0  0  0  0  0  0  0  0  0
   14.2416  -21.9900    1.1484 N   0  0  0  0  0  0  0  0  0  0  0  0
   17.0193  -25.2407    3.3141 C   0  0  0  0  0  0  0  0  0  0  0  0
   16.3639  -25.9294    4.1723 O   0  0  0  0  0  0  0  0  0  0  0  0
   18.4045  -25.1325    3.5101 N   0  0  0  0  0  0  0  0  0  0  0  0
   19.3450  -24.3990    2.7056 C   0  0  0  0  0  0  0  0  0  0  0  0
   20.6538  -25.1677    2.7763 C   0  0  0  0  0  0  0  0  0  0  0  0
   20.4451  -26.1863    3.8524 C   0  0  0  0  0  0  0  0  0  0  0  0
   19.1666  -25.7614    4.5650 C   0  0  1  0  0  0  0  0  0  0  0  0
   19.4657  -24.7032    5.5810 C   0  0  0  0  0  0  0  0  0  0  0  0
   19.2283  -23.4703    5.3557 O   0  0  0  0  0  0  0  0  0  0  0  0
   20.0284  -24.9921    6.8532 N   0  0  0  0  0  0  0  0  0  0  0  0
   19.5686  -24.3117    8.0701 C   0  0  1  0  0  0  0  0  0  0  0  0
   18.0836  -24.3451    8.1809 C   0  0  0  0  0  0  0  0  0  0  0  0
   17.6388  -23.6261    9.3815 C   0  0  0  0  0  0  0  0  0  0  0  0
   18.3701  -22.7472    9.8993 O   0  0  0  0  0  0  0  0  0  0  0  0
   20.1823  -24.9892    9.2161 C   0  0  0  0  0  0  0  0  0  0  0  0
   20.1143  -26.2281    9.3266 O   0  0  0  0  0  0  0  0  0  0  0  0
   16.4134  -23.8695    9.9998 O   0  0  0  0  0  0  0  0  0  0  0  0
   20.8420  -24.2650   10.1856 O   0  0  0  0  0  0  0  0  0  0  0  0
  2  1  1  1
  3  2  1  0
  4  3  1  0
  5  4  2  0
  6  5  1  0
  7  6  1  0
  7  8  2  0
  8  4  1  0
  9  2  1  0
  9 11  1  0
 10  9  2  0
 11 15  1  0
 12 11  1  0
 12 13  1  0
 13 14  1  0
 15 16  1  1
 15 14  1  0
 16 17  2  0
 18 19  1  0
 18 16  1  0
 20 21  1  0
 19 20  1  1
 21 25  1  0
 22 21  2  0
 23 19  1  0
 24 23  2  0
 26 23  1  0
M  END
$$$$
