HPD.pdb
     RDKit          3D

 26 27  0  0  1  0  0  0  0  0999 V2000
   27.1756  -20.1364  -17.9766 N   0  0  0  0  0  0  0  0  0  0  0  0
   26.9192  -19.5344  -16.6567 C   0  0  1  0  0  0  0  0  0  0  0  0
   26.3170  -18.1862  -16.8002 C   0  0  0  0  0  0  0  0  0  0  0  0
   27.0474  -17.2316  -17.6366 C   0  0  0  0  0  0  0  0  0  0  0  0
   26.6742  -16.6492  -18.8120 C   0  0  0  0  0  0  0  0  0  0  0  0
   27.6527  -15.8267  -19.2668 N   0  0  0  0  0  0  0  0  0  0  0  0
   28.6288  -15.9170  -18.3497 C   0  0  0  0  0  0  0  0  0  0  0  0
   28.2806  -16.7587  -17.3616 N   0  0  0  0  0  0  0  0  0  0  0  0
   26.2585  -20.4669  -15.7506 C   0  0  0  0  0  0  0  0  0  0  0  0
   25.4810  -21.3364  -16.2796 O   0  0  0  0  0  0  0  0  0  0  0  0
   26.3950  -20.5019  -14.3545 N   0  0  0  0  0  0  0  0  0  0  0  0
   27.1865  -19.6254  -13.5329 C   0  0  0  0  0  0  0  0  0  0  0  0
   27.6520  -20.4583  -12.3503 C   0  0  0  0  0  0  0  0  0  0  0  0
   26.8663  -21.7286  -12.4402 C   0  0  0  0  0  0  0  0  0  0  0  0
   25.7697  -21.4511  -13.4617 C   0  0  1  0  0  0  0  0  0  0  0  0
   24.6192  -20.7487  -12.8102 C   0  0  0  0  0  0  0  0  0  0  0  0
   24.7559  -19.6078  -12.2566 O   0  0  0  0  0  0  0  0  0  0  0  0
   23.3087  -21.2954  -12.7622 N   0  0  0  0  0  0  0  0  0  0  0  0
   22.1313  -20.5054  -13.1432 C   0  0  1  0  0  0  0  0  0  0  0  0
   22.3754  -19.7402  -14.3974 C   0  0  0  0  0  0  0  0  0  0  0  0
   21.1441  -19.0781  -14.8466 C   0  0  0  0  0  0  0  0  0  0  0  0
   20.7484  -18.0290  -14.2825 O   0  0  0  0  0  0  0  0  0  0  0  0
   21.0118  -21.4351  -13.3209 C   0  0  0  0  0  0  0  0  0  0  0  0
   19.8562  -21.0993  -12.9995 O   0  0  0  0  0  0  0  0  0  0  0  0
   20.3639  -19.5610  -15.8961 O   0  0  0  0  0  0  0  0  0  0  0  0
   21.2232  -22.6919  -13.8456 O   0  0  0  0  0  0  0  0  0  0  0  0
  2  1  1  6
  3  2  1  0
  4  3  1  0
  5  4  2  0
  6  5  1  0
  7  6  1  0
  7  8  2  0
  8  4  1  0
  9  2  1  0
  9 11  1  0
 10  9  2  0
 11 15  1  0
 12 11  1  0
 12 13  1  0
 13 14  1  0
 15 16  1  1
 15 14  1  0
 16 17  2  0
 18 19  1  0
 18 16  1  0
 20 21  1  0
 19 20  1  6
 21 25  1  0
 22 21  2  0
 23 19  1  0
 24 23  2  0
 26 23  1  0
M  END
$$$$
