HPD.pdb
     RDKit          3D

 26 27  0  0  1  0  0  0  0  0999 V2000
   23.8566  -13.3750  -19.2021 N   0  0  0  0  0  0  0  0  0  0  0  0
   24.5896  -12.1151  -18.9884 C   0  0  1  0  0  0  0  0  0  0  0  0
   24.6101  -11.3003  -20.2281 C   0  0  0  0  0  0  0  0  0  0  0  0
   25.0693  -11.9749  -21.4440 C   0  0  0  0  0  0  0  0  0  0  0  0
   26.3420  -12.2107  -21.8740 C   0  0  0  0  0  0  0  0  0  0  0  0
   26.3286  -12.8619  -23.0642 N   0  0  0  0  0  0  0  0  0  0  0  0
   25.0271  -13.0193  -23.3530 C   0  0  0  0  0  0  0  0  0  0  0  0
   24.2555  -12.4910  -22.3880 N   0  0  0  0  0  0  0  0  0  0  0  0
   24.1799  -11.4473  -17.7583 C   0  0  0  0  0  0  0  0  0  0  0  0
   22.9521  -11.5679  -17.4146 O   0  0  0  0  0  0  0  0  0  0  0  0
   25.0041  -10.6862  -16.9154 N   0  0  0  0  0  0  0  0  0  0  0  0
   26.3983  -10.3831  -17.0997 C   0  0  0  0  0  0  0  0  0  0  0  0
   26.9986  -10.2840  -15.7074 C   0  0  0  0  0  0  0  0  0  0  0  0
   25.8242  -10.2865  -14.7801 C   0  0  0  0  0  0  0  0  0  0  0  0
   24.6080  -10.0652  -15.6718 C   0  0  1  0  0  0  0  0  0  0  0  0
   24.4262   -8.6052  -15.9487 C   0  0  0  0  0  0  0  0  0  0  0  0
   25.3056   -7.9264  -16.5757 O   0  0  0  0  0  0  0  0  0  0  0  0
   23.2758   -7.8794  -15.5383 N   0  0  0  0  0  0  0  0  0  0  0  0
   23.0577   -6.4870  -15.9494 C   0  0  1  0  0  0  0  0  0  0  0  0
   21.9911   -6.3887  -16.9844 C   0  0  0  0  0  0  0  0  0  0  0  0
   20.7171   -6.9003  -16.4635 C   0  0  0  0  0  0  0  0  0  0  0  0
   20.6615   -8.0366  -15.9333 O   0  0  0  0  0  0  0  0  0  0  0  0
   22.6824   -5.7252  -14.7544 C   0  0  0  0  0  0  0  0  0  0  0  0
   22.6748   -4.4798  -14.7772 O   0  0  0  0  0  0  0  0  0  0  0  0
   19.5278   -6.1755  -16.5249 O   0  0  0  0  0  0  0  0  0  0  0  0
   22.3334   -6.3765  -13.5909 O   0  0  0  0  0  0  0  0  0  0  0  0
  2  1  1  6
  3  2  1  0
  4  3  1  0
  5  4  2  0
  6  5  1  0
  7  6  1  0
  7  8  2  0
  8  4  1  0
  9  2  1  0
  9 11  1  0
 10  9  2  0
 11 15  1  0
 12 11  1  0
 12 13  1  0
 13 14  1  0
 15 16  1  6
 15 14  1  0
 16 17  2  0
 18 19  1  0
 18 16  1  0
 20 21  1  0
 19 20  1  6
 21 25  1  0
 22 21  2  0
 23 19  1  0
 24 23  2  0
 26 23  1  0
M  END
$$$$
