HPD.pdb
     RDKit          3D

 26 27  0  0  1  0  0  0  0  0999 V2000
   21.2882  -12.8447  -17.9611 N   0  0  0  0  0  0  0  0  0  0  0  0
   21.5454  -11.4395  -18.3211 C   0  0  1  0  0  0  0  0  0  0  0  0
   20.4523  -10.9040  -19.1692 C   0  0  0  0  0  0  0  0  0  0  0  0
   20.1317  -11.6664  -20.3776 C   0  0  0  0  0  0  0  0  0  0  0  0
   20.7653  -11.6795  -21.5854 C   0  0  0  0  0  0  0  0  0  0  0  0
   20.1370  -12.5229  -22.4425 N   0  0  0  0  0  0  0  0  0  0  0  0
   19.1101  -13.0239  -21.7380 C   0  0  0  0  0  0  0  0  0  0  0  0
   19.0923  -12.5186  -20.4929 N   0  0  0  0  0  0  0  0  0  0  0  0
   21.9432  -10.6441  -17.1651 C   0  0  0  0  0  0  0  0  0  0  0  0
   21.4068  -10.9456  -16.0419 O   0  0  0  0  0  0  0  0  0  0  0  0
   22.8587   -9.5807  -17.1673 N   0  0  0  0  0  0  0  0  0  0  0  0
   23.5878   -9.0594  -18.2926 C   0  0  0  0  0  0  0  0  0  0  0  0
   24.9141   -8.5603  -17.7442 C   0  0  0  0  0  0  0  0  0  0  0  0
   24.7548   -8.5971  -16.2568 C   0  0  0  0  0  0  0  0  0  0  0  0
   23.2638   -8.8039  -16.0177 C   0  0  1  0  0  0  0  0  0  0  0  0
   22.5395   -7.4959  -16.0945 C   0  0  0  0  0  0  0  0  0  0  0  0
   22.3189   -6.9154  -17.2086 O   0  0  0  0  0  0  0  0  0  0  0  0
   22.0517   -6.8155  -14.9466 N   0  0  0  0  0  0  0  0  0  0  0  0
   21.2197   -5.6114  -15.0618 C   0  0  1  0  0  0  0  0  0  0  0  0
   20.1609   -5.5825  -14.0147 C   0  0  0  0  0  0  0  0  0  0  0  0
   19.1628   -6.6312  -14.2601 C   0  0  0  0  0  0  0  0  0  0  0  0
   18.9165   -7.0078  -15.4319 O   0  0  0  0  0  0  0  0  0  0  0  0
   22.1020   -4.4482  -14.9292 C   0  0  0  0  0  0  0  0  0  0  0  0
   23.2676   -4.5852  -14.5119 O   0  0  0  0  0  0  0  0  0  0  0  0
   18.4500   -7.2532  -13.2363 O   0  0  0  0  0  0  0  0  0  0  0  0
   21.6537   -3.1886  -15.2642 O   0  0  0  0  0  0  0  0  0  0  0  0
  2  1  1  1
  3  2  1  0
  4  3  1  0
  5  4  2  0
  6  5  1  0
  7  6  1  0
  7  8  2  0
  8  4  1  0
  9  2  1  0
  9 11  1  0
 10  9  2  0
 11 15  1  0
 12 11  1  0
 12 13  1  0
 13 14  1  0
 15 16  1  6
 15 14  1  0
 16 17  2  0
 18 19  1  0
 18 16  1  0
 20 21  1  0
 19 20  1  1
 21 25  1  0
 22 21  2  0
 23 19  1  0
 24 23  2  0
 26 23  1  0
M  END
$$$$
