HPD.pdb
     RDKit          3D

 26 27  0  0  1  0  0  0  0  0999 V2000
   21.7692  -13.2822  -17.4554 N   0  0  0  0  0  0  0  0  0  0  0  0
   21.7304  -11.9280  -18.0341 C   0  0  1  0  0  0  0  0  0  0  0  0
   20.4031  -11.6495  -18.6355 C   0  0  0  0  0  0  0  0  0  0  0  0
   19.9198  -12.6157  -19.6241 C   0  0  0  0  0  0  0  0  0  0  0  0
   19.1316  -13.7144  -19.4459 C   0  0  0  0  0  0  0  0  0  0  0  0
   18.9239  -14.3472  -20.6279 N   0  0  0  0  0  0  0  0  0  0  0  0
   19.5983  -13.6166  -21.5298 C   0  0  0  0  0  0  0  0  0  0  0  0
   20.2035  -12.5705  -20.9422 N   0  0  0  0  0  0  0  0  0  0  0  0
   22.2715  -10.9283  -17.1203 C   0  0  0  0  0  0  0  0  0  0  0  0
   21.8461  -10.9566  -15.9126 O   0  0  0  0  0  0  0  0  0  0  0  0
   23.2145   -9.9394  -17.4391 N   0  0  0  0  0  0  0  0  0  0  0  0
   23.8144   -9.6869  -18.7221 C   0  0  0  0  0  0  0  0  0  0  0  0
   25.2147   -9.1684  -18.4409 C   0  0  0  0  0  0  0  0  0  0  0  0
   25.2412   -8.9090  -16.9674 C   0  0  0  0  0  0  0  0  0  0  0  0
   23.7857   -8.9803  -16.5209 C   0  0  1  0  0  0  0  0  0  0  0  0
   23.1015   -7.6723  -16.7707 C   0  0  0  0  0  0  0  0  0  0  0  0
   22.8536   -7.2593  -17.9518 O   0  0  0  0  0  0  0  0  0  0  0  0
   22.6840   -6.8076  -15.7235 N   0  0  0  0  0  0  0  0  0  0  0  0
   21.8671   -5.6169  -15.9888 C   0  0  1  0  0  0  0  0  0  0  0  0
   20.5322   -5.7198  -15.3361 C   0  0  0  0  0  0  0  0  0  0  0  0
   20.6665   -6.2167  -13.9609 C   0  0  0  0  0  0  0  0  0  0  0  0
   21.5492   -5.7469  -13.2022 O   0  0  0  0  0  0  0  0  0  0  0  0
   22.5984   -4.4540  -15.4770 C   0  0  0  0  0  0  0  0  0  0  0  0
   23.5637   -4.6062  -14.7046 O   0  0  0  0  0  0  0  0  0  0  0  0
   19.8455   -7.2110  -13.4312 O   0  0  0  0  0  0  0  0  0  0  0  0
   22.2277   -3.1781  -15.8433 O   0  0  0  0  0  0  0  0  0  0  0  0
  2  1  1  1
  3  2  1  0
  4  3  1  0
  5  4  2  0
  6  5  1  0
  7  6  1  0
  7  8  2  0
  8  4  1  0
  9  2  1  0
  9 11  1  0
 10  9  2  0
 11 15  1  0
 12 11  1  0
 12 13  1  0
 13 14  1  0
 15 16  1  6
 15 14  1  0
 16 17  2  0
 18 19  1  0
 18 16  1  0
 20 21  1  0
 19 20  1  1
 21 25  1  0
 22 21  2  0
 23 19  1  0
 24 23  2  0
 26 23  1  0
M  END
$$$$
