HPD.pdb
     RDKit          3D

 26 27  0  0  1  0  0  0  0  0999 V2000
   16.3685  -19.0459    2.5687 N   0  0  0  0  0  0  0  0  0  0  0  0
   15.8070  -19.3396    3.8986 C   0  0  1  0  0  0  0  0  0  0  0  0
   15.8269  -20.7982    4.1689 C   0  0  0  0  0  0  0  0  0  0  0  0
   15.2256  -21.6587    3.1479 C   0  0  0  0  0  0  0  0  0  0  0  0
   15.8319  -22.4633    2.2286 C   0  0  0  0  0  0  0  0  0  0  0  0
   14.9054  -23.0878    1.4590 N   0  0  0  0  0  0  0  0  0  0  0  0
   13.7243  -22.6509    1.9237 C   0  0  0  0  0  0  0  0  0  0  0  0
   13.8991  -21.7898    2.9406 N   0  0  0  0  0  0  0  0  0  0  0  0
   16.3544  -18.4632    4.9278 C   0  0  0  0  0  0  0  0  0  0  0  0
   17.5103  -17.9589    4.7048 O   0  0  0  0  0  0  0  0  0  0  0  0
   15.7337  -18.1196    6.1385 N   0  0  0  0  0  0  0  0  0  0  0  0
   14.4281  -18.5171    6.5934 C   0  0  0  0  0  0  0  0  0  0  0  0
   13.9060  -17.3684    7.4401 C   0  0  0  0  0  0  0  0  0  0  0  0
   15.0830  -16.4643    7.6313 C   0  0  0  0  0  0  0  0  0  0  0  0
   16.2896  -17.2730    7.1697 C   0  0  1  0  0  0  0  0  0  0  0  0
   16.7625  -18.1729    8.2688 C   0  0  0  0  0  0  0  0  0  0  0  0
   16.4256  -19.4020    8.3215 O   0  0  0  0  0  0  0  0  0  0  0  0
   17.6099  -17.7286    9.3190 N   0  0  0  0  0  0  0  0  0  0  0  0
   18.8012  -18.4874    9.7195 C   0  0  1  0  0  0  0  0  0  0  0  0
   19.8860  -18.3668    8.7061 C   0  0  0  0  0  0  0  0  0  0  0  0
   21.1126  -19.0185    9.1822 C   0  0  0  0  0  0  0  0  0  0  0  0
   22.0044  -18.3461    9.7549 O   0  0  0  0  0  0  0  0  0  0  0  0
   19.2485  -17.9612   11.0126 C   0  0  0  0  0  0  0  0  0  0  0  0
   20.0278  -18.6208   11.7263 O   0  0  0  0  0  0  0  0  0  0  0  0
   21.3530  -20.3833    9.0311 O   0  0  0  0  0  0  0  0  0  0  0  0
   18.8131  -16.7308   11.4553 O   0  0  0  0  0  0  0  0  0  0  0  0
  2  1  1  6
  3  2  1  0
  4  3  1  0
  5  4  2  0
  6  5  1  0
  7  6  1  0
  7  8  2  0
  8  4  1  0
  9  2  1  0
  9 11  1  0
 10  9  2  0
 11 15  1  0
 12 11  1  0
 12 13  1  0
 13 14  1  0
 15 16  1  1
 15 14  1  0
 16 17  2  0
 18 19  1  0
 18 16  1  0
 20 21  1  0
 19 20  1  6
 21 25  1  0
 22 21  2  0
 23 19  1  0
 24 23  2  0
 26 23  1  0
M  END
$$$$
