HPD.pdb
     RDKit          3D

 26 27  0  0  1  0  0  0  0  0999 V2000
   17.3796  -11.4376  -15.1940 N   0  0  0  0  0  0  0  0  0  0  0  0
   18.3894  -10.6153  -15.8828 C   0  0  1  0  0  0  0  0  0  0  0  0
   17.7899   -9.9012  -17.0367 C   0  0  0  0  0  0  0  0  0  0  0  0
   17.0561  -10.7224  -18.0018 C   0  0  0  0  0  0  0  0  0  0  0  0
   17.5345  -11.5863  -18.9426 C   0  0  0  0  0  0  0  0  0  0  0  0
   16.5126  -12.1423  -19.6407 N   0  0  0  0  0  0  0  0  0  0  0  0
   15.4033  -11.6035  -19.1105 C   0  0  0  0  0  0  0  0  0  0  0  0
   15.7127  -10.7466  -18.1226 N   0  0  0  0  0  0  0  0  0  0  0  0
   19.1799   -9.8243  -14.9466 C   0  0  0  0  0  0  0  0  0  0  0  0
   18.6074   -9.4749  -13.8556 O   0  0  0  0  0  0  0  0  0  0  0  0
   20.5086   -9.4110  -15.1280 N   0  0  0  0  0  0  0  0  0  0  0  0
   21.3620   -9.6856  -16.2531 C   0  0  0  0  0  0  0  0  0  0  0  0
   22.7757   -9.7697  -15.7026 C   0  0  0  0  0  0  0  0  0  0  0  0
   22.6716   -9.2728  -14.2950 C   0  0  0  0  0  0  0  0  0  0  0  0
   21.2923   -8.6318  -14.1965 C   0  0  1  0  0  0  0  0  0  0  0  0
   21.3325   -7.2304  -14.7215 C   0  0  0  0  0  0  0  0  0  0  0  0
   21.1848   -6.9741  -15.9623 O   0  0  0  0  0  0  0  0  0  0  0  0
   21.5354   -6.0990  -13.8864 N   0  0  0  0  0  0  0  0  0  0  0  0
   21.1763   -4.7448  -14.3250 C   0  0  1  0  0  0  0  0  0  0  0  0
   20.5650   -3.9607  -13.2160 C   0  0  0  0  0  0  0  0  0  0  0  0
   20.2171   -2.6083  -13.6701 C   0  0  0  0  0  0  0  0  0  0  0  0
   21.0215   -1.6592  -13.5043 O   0  0  0  0  0  0  0  0  0  0  0  0
   22.4008   -4.0923  -14.7982 C   0  0  0  0  0  0  0  0  0  0  0  0
   23.5077   -4.4076  -14.3218 O   0  0  0  0  0  0  0  0  0  0  0  0
   19.0078   -2.3066  -14.2945 O   0  0  0  0  0  0  0  0  0  0  0  0
   22.3434   -3.1223  -15.7757 O   0  0  0  0  0  0  0  0  0  0  0  0
  2  1  1  1
  3  2  1  0
  4  3  1  0
  5  4  2  0
  6  5  1  0
  7  6  1  0
  7  8  2  0
  8  4  1  0
  9  2  1  0
  9 11  1  0
 10  9  2  0
 11 15  1  0
 12 11  1  0
 12 13  1  0
 13 14  1  0
 15 16  1  6
 15 14  1  0
 16 17  2  0
 18 19  1  0
 18 16  1  0
 20 21  1  0
 19 20  1  1
 21 25  1  0
 22 21  2  0
 23 19  1  0
 24 23  2  0
 26 23  1  0
M  END
$$$$
