HPD.pdb
     RDKit          3D

 26 27  0  0  1  0  0  0  0  0999 V2000
   23.0271  -20.1115  -13.4800 N   0  0  0  0  0  0  0  0  0  0  0  0
   24.3923  -19.5582  -13.4965 C   0  0  1  0  0  0  0  0  0  0  0  0
   25.3091  -20.3923  -12.6812 C   0  0  0  0  0  0  0  0  0  0  0  0
   24.9336  -20.5952  -11.2804 C   0  0  0  0  0  0  0  0  0  0  0  0
   23.9688  -21.4014  -10.7518 C   0  0  0  0  0  0  0  0  0  0  0  0
   23.9423  -21.2875   -9.4001 N   0  0  0  0  0  0  0  0  0  0  0  0
   24.9065  -20.3988   -9.1130 C   0  0  0  0  0  0  0  0  0  0  0  0
   25.5132  -19.9721  -10.2337 N   0  0  0  0  0  0  0  0  0  0  0  0
   24.8257  -19.2149  -14.8461 C   0  0  0  0  0  0  0  0  0  0  0  0
   24.2599  -19.8368  -15.8123 O   0  0  0  0  0  0  0  0  0  0  0  0
   25.8031  -18.2672  -15.1859 N   0  0  0  0  0  0  0  0  0  0  0  0
   26.5888  -17.4635  -14.2878 C   0  0  0  0  0  0  0  0  0  0  0  0
   26.8506  -16.1528  -15.0104 C   0  0  0  0  0  0  0  0  0  0  0  0
   26.4003  -16.3914  -16.4173 C   0  0  0  0  0  0  0  0  0  0  0  0
   26.2022  -17.8987  -16.5253 C   0  0  1  0  0  0  0  0  0  0  0  0
   27.5097  -18.5760  -16.7956 C   0  0  0  0  0  0  0  0  0  0  0  0
   28.4083  -18.6837  -15.8966 O   0  0  0  0  0  0  0  0  0  0  0  0
   27.8400  -19.1406  -18.0569 N   0  0  0  0  0  0  0  0  0  0  0  0
   28.3103  -20.5259  -18.1801 C   0  0  1  0  0  0  0  0  0  0  0  0
   27.6014  -21.4251  -17.2276 C   0  0  0  0  0  0  0  0  0  0  0  0
   28.0632  -22.8102  -17.3836 C   0  0  0  0  0  0  0  0  0  0  0  0
   27.5173  -23.5679  -18.2223 O   0  0  0  0  0  0  0  0  0  0  0  0
   28.0716  -20.9542  -19.5617 C   0  0  0  0  0  0  0  0  0  0  0  0
   26.9942  -20.6878  -20.1272 O   0  0  0  0  0  0  0  0  0  0  0  0
   29.1052  -23.3506  -16.6316 O   0  0  0  0  0  0  0  0  0  0  0  0
   29.0354  -21.6567  -20.2524 O   0  0  0  0  0  0  0  0  0  0  0  0
  2  1  1  6
  3  2  1  0
  4  3  1  0
  5  4  2  0
  6  5  1  0
  7  6  1  0
  7  8  2  0
  8  4  1  0
  9  2  1  0
  9 11  1  0
 10  9  2  0
 11 15  1  0
 12 11  1  0
 12 13  1  0
 13 14  1  0
 15 16  1  1
 15 14  1  0
 16 17  2  0
 18 19  1  0
 18 16  1  0
 20 21  1  0
 19 20  1  1
 21 25  1  0
 22 21  2  0
 23 19  1  0
 24 23  2  0
 26 23  1  0
M  END
$$$$
