HPD.pdb
     RDKit          3D

 26 27  0  0  1  0  0  0  0  0999 V2000
   20.5976  -13.7130  -17.3985 N   0  0  0  0  0  0  0  0  0  0  0  0
   19.8664  -12.4410  -17.2650 C   0  0  1  0  0  0  0  0  0  0  0  0
   19.0391  -12.4351  -16.0336 C   0  0  0  0  0  0  0  0  0  0  0  0
   18.1146  -13.5580  -15.8640 C   0  0  0  0  0  0  0  0  0  0  0  0
   16.9226  -13.7976  -16.4820 C   0  0  0  0  0  0  0  0  0  0  0  0
   16.3760  -14.9535  -16.0285 N   0  0  0  0  0  0  0  0  0  0  0  0
   17.2539  -15.4150  -15.1239 C   0  0  0  0  0  0  0  0  0  0  0  0
   18.3063  -14.5867  -15.0127 N   0  0  0  0  0  0  0  0  0  0  0  0
   20.7305  -11.2884  -17.4934 C   0  0  0  0  0  0  0  0  0  0  0  0
   21.9125  -11.3442  -17.0037 O   0  0  0  0  0  0  0  0  0  0  0  0
   20.3892  -10.1250  -18.1997 N   0  0  0  0  0  0  0  0  0  0  0  0
   19.1738   -9.8698  -18.9258 C   0  0  0  0  0  0  0  0  0  0  0  0
   19.5540   -8.9627  -20.0840 C   0  0  0  0  0  0  0  0  0  0  0  0
   20.9592   -8.5372  -19.7953 C   0  0  0  0  0  0  0  0  0  0  0  0
   21.2140   -8.9475  -18.3497 C   0  0  1  0  0  0  0  0  0  0  0  0
   20.6744   -7.9116  -17.4132 C   0  0  0  0  0  0  0  0  0  0  0  0
   19.5772   -8.0809  -16.7852 O   0  0  0  0  0  0  0  0  0  0  0  0
   21.3371   -6.6806  -17.1596 N   0  0  0  0  0  0  0  0  0  0  0  0
   21.1845   -5.9739  -15.8818 C   0  0  1  0  0  0  0  0  0  0  0  0
   22.2332   -6.3848  -14.9072 C   0  0  0  0  0  0  0  0  0  0  0  0
   22.0596   -5.6771  -13.6325 C   0  0  0  0  0  0  0  0  0  0  0  0
   21.1546   -6.0240  -12.8349 O   0  0  0  0  0  0  0  0  0  0  0  0
   21.2761   -4.5367  -16.1560 C   0  0  0  0  0  0  0  0  0  0  0  0
   21.9448   -4.1203  -17.1209 O   0  0  0  0  0  0  0  0  0  0  0  0
   22.8661   -4.6088  -13.2431 O   0  0  0  0  0  0  0  0  0  0  0  0
   20.6241   -3.6282  -15.3504 O   0  0  0  0  0  0  0  0  0  0  0  0
  2  1  1  1
  3  2  1  0
  4  3  1  0
  5  4  2  0
  6  5  1  0
  7  6  1  0
  7  8  2  0
  8  4  1  0
  9  2  1  0
  9 11  1  0
 10  9  2  0
 11 15  1  0
 12 11  1  0
 12 13  1  0
 13 14  1  0
 15 16  1  1
 15 14  1  0
 16 17  2  0
 18 19  1  0
 18 16  1  0
 20 21  1  0
 19 20  1  1
 21 25  1  0
 22 21  2  0
 23 19  1  0
 24 23  2  0
 26 23  1  0
M  END
$$$$
