HPD.pdb
     RDKit          3D

 26 27  0  0  1  0  0  0  0  0999 V2000
   19.9850  -12.9873  -15.9990 N   0  0  0  0  0  0  0  0  0  0  0  0
   19.4088  -11.6401  -15.8468 C   0  0  1  0  0  0  0  0  0  0  0  0
   18.0634  -11.7091  -15.2255 C   0  0  0  0  0  0  0  0  0  0  0  0
   17.0794  -12.5625  -15.8947 C   0  0  0  0  0  0  0  0  0  0  0  0
   16.3241  -12.3078  -17.0014 C   0  0  0  0  0  0  0  0  0  0  0  0
   15.5272  -13.3679  -17.2873 N   0  0  0  0  0  0  0  0  0  0  0  0
   15.8086  -14.2732  -16.3370 C   0  0  0  0  0  0  0  0  0  0  0  0
   16.7411  -13.8043  -15.4905 N   0  0  0  0  0  0  0  0  0  0  0  0
   20.3629  -10.7007  -15.2686 C   0  0  0  0  0  0  0  0  0  0  0  0
   21.0242  -11.1011  -14.2475 O   0  0  0  0  0  0  0  0  0  0  0  0
   20.6254   -9.4003  -15.7260 N   0  0  0  0  0  0  0  0  0  0  0  0
   20.0423   -8.7413  -16.8641 C   0  0  0  0  0  0  0  0  0  0  0  0
   21.1107   -7.8068  -17.4065 C   0  0  0  0  0  0  0  0  0  0  0  0
   22.1838   -7.8014  -16.3637 C   0  0  0  0  0  0  0  0  0  0  0  0
   21.5596   -8.4649  -15.1417 C   0  0  1  0  0  0  0  0  0  0  0  0
   20.7556   -7.4694  -14.3645 C   0  0  0  0  0  0  0  0  0  0  0  0
   19.5743   -7.1402  -14.7154 O   0  0  0  0  0  0  0  0  0  0  0  0
   21.2442   -6.8276  -13.1949 N   0  0  0  0  0  0  0  0  0  0  0  0
   20.3770   -5.9882  -12.3589 C   0  0  1  0  0  0  0  0  0  0  0  0
   20.3034   -6.5060  -10.9643 C   0  0  0  0  0  0  0  0  0  0  0  0
   19.4480   -5.6449  -10.1380 C   0  0  0  0  0  0  0  0  0  0  0  0
   18.7344   -4.7620  -10.6734 O   0  0  0  0  0  0  0  0  0  0  0  0
   20.9285   -4.6299  -12.3717 C   0  0  0  0  0  0  0  0  0  0  0  0
   20.1815   -3.6447  -12.2203 O   0  0  0  0  0  0  0  0  0  0  0  0
   19.3792   -5.7535   -8.7499 O   0  0  0  0  0  0  0  0  0  0  0  0
   22.2796   -4.4254  -12.5512 O   0  0  0  0  0  0  0  0  0  0  0  0
  2  1  1  1
  3  2  1  0
  4  3  1  0
  5  4  2  0
  6  5  1  0
  7  6  1  0
  7  8  2  0
  8  4  1  0
  9  2  1  0
  9 11  1  0
 10  9  2  0
 11 15  1  0
 12 11  1  0
 12 13  1  0
 13 14  1  0
 15 16  1  1
 15 14  1  0
 16 17  2  0
 18 19  1  0
 18 16  1  0
 20 21  1  0
 19 20  1  1
 21 25  1  0
 22 21  2  0
 23 19  1  0
 24 23  2  0
 26 23  1  0
M  END
$$$$
