HPD.pdb
     RDKit          3D

 26 27  0  0  1  0  0  0  0  0999 V2000
   14.2767   -9.3400  -12.6246 N   0  0  0  0  0  0  0  0  0  0  0  0
   15.1738   -8.5865  -11.7314 C   0  0  1  0  0  0  0  0  0  0  0  0
   16.4822   -8.3384  -12.3852 C   0  0  0  0  0  0  0  0  0  0  0  0
   17.1402   -9.4994  -12.9881 C   0  0  0  0  0  0  0  0  0  0  0  0
   17.5274  -10.6717  -12.4084 C   0  0  0  0  0  0  0  0  0  0  0  0
   18.1130  -11.4840  -13.3239 N   0  0  0  0  0  0  0  0  0  0  0  0
   18.0766  -10.7880  -14.4712 C   0  0  0  0  0  0  0  0  0  0  0  0
   17.4942   -9.5911  -14.2866 N   0  0  0  0  0  0  0  0  0  0  0  0
   14.5040   -7.4419  -11.1243 C   0  0  0  0  0  0  0  0  0  0  0  0
   13.6419   -6.8262  -11.8440 O   0  0  0  0  0  0  0  0  0  0  0  0
   14.7143   -6.9524   -9.8262 N   0  0  0  0  0  0  0  0  0  0  0  0
   15.7021   -7.3920   -8.8772 C   0  0  0  0  0  0  0  0  0  0  0  0
   15.0811   -7.2083   -7.5027 C   0  0  0  0  0  0  0  0  0  0  0  0
   13.8357   -6.4150   -7.7451 C   0  0  0  0  0  0  0  0  0  0  0  0
   13.9553   -5.9075   -9.1773 C   0  0  1  0  0  0  0  0  0  0  0  0
   14.7917   -4.6665   -9.2199 C   0  0  0  0  0  0  0  0  0  0  0  0
   16.0656   -4.7139   -9.1765 O   0  0  0  0  0  0  0  0  0  0  0  0
   14.2340   -3.3629   -9.3107 N   0  0  0  0  0  0  0  0  0  0  0  0
   15.0744   -2.1809   -9.5392 C   0  0  1  0  0  0  0  0  0  0  0  0
   14.3538   -1.1502  -10.3371 C   0  0  0  0  0  0  0  0  0  0  0  0
   14.2605   -1.5584  -11.7445 C   0  0  0  0  0  0  0  0  0  0  0  0
   14.7926   -2.6281  -12.1291 O   0  0  0  0  0  0  0  0  0  0  0  0
   15.4491   -1.6429   -8.2280 C   0  0  0  0  0  0  0  0  0  0  0  0
   14.9147   -2.0797   -7.1911 O   0  0  0  0  0  0  0  0  0  0  0  0
   13.5946   -0.8043  -12.7095 O   0  0  0  0  0  0  0  0  0  0  0  0
   16.3968   -0.6474   -8.1254 O   0  0  0  0  0  0  0  0  0  0  0  0
  2  1  1  6
  3  2  1  0
  4  3  1  0
  5  4  2  0
  6  5  1  0
  7  6  1  0
  7  8  2  0
  8  4  1  0
  9  2  1  0
  9 11  1  0
 10  9  2  0
 11 15  1  0
 12 11  1  0
 12 13  1  0
 13 14  1  0
 15 16  1  1
 15 14  1  0
 16 17  2  0
 18 19  1  0
 18 16  1  0
 20 21  1  0
 19 20  1  6
 21 25  1  0
 22 21  2  0
 23 19  1  0
 24 23  2  0
 26 23  1  0
M  END
$$$$
