HPD.pdb
     RDKit          3D

 26 27  0  0  1  0  0  0  0  0999 V2000
   25.7227  -15.8633  -20.3914 N   0  0  0  0  0  0  0  0  0  0  0  0
   25.0643  -15.5077  -19.1225 C   0  0  1  0  0  0  0  0  0  0  0  0
   23.8399  -14.7074  -19.3699 C   0  0  0  0  0  0  0  0  0  0  0  0
   24.0087  -13.4844  -20.1573 C   0  0  0  0  0  0  0  0  0  0  0  0
   24.5002  -12.2709  -19.7753 C   0  0  0  0  0  0  0  0  0  0  0  0
   24.4771  -11.3999  -20.8153 N   0  0  0  0  0  0  0  0  0  0  0  0
   23.9634  -12.1018  -21.8377 C   0  0  0  0  0  0  0  0  0  0  0  0
   23.6759  -13.3587  -21.4586 N   0  0  0  0  0  0  0  0  0  0  0  0
   24.9419  -16.6554  -18.2309 C   0  0  0  0  0  0  0  0  0  0  0  0
   24.7277  -17.7937  -18.7775 O   0  0  0  0  0  0  0  0  0  0  0  0
   25.0377  -16.6304  -16.8312 N   0  0  0  0  0  0  0  0  0  0  0  0
   25.3320  -15.4960  -15.9968 C   0  0  0  0  0  0  0  0  0  0  0  0
   26.0835  -16.0386  -14.7928 C   0  0  0  0  0  0  0  0  0  0  0  0
   25.9476  -17.5255  -14.8914 C   0  0  0  0  0  0  0  0  0  0  0  0
   24.8732  -17.7614  -15.9464 C   0  0  1  0  0  0  0  0  0  0  0  0
   23.5114  -17.6460  -15.3352 C   0  0  0  0  0  0  0  0  0  0  0  0
   22.9720  -16.5128  -15.1071 O   0  0  0  0  0  0  0  0  0  0  0  0
   22.7314  -18.7758  -14.9697 N   0  0  0  0  0  0  0  0  0  0  0  0
   21.2684  -18.7729  -15.0927 C   0  0  1  0  0  0  0  0  0  0  0  0
   20.8437  -18.9503  -16.5092 C   0  0  0  0  0  0  0  0  0  0  0  0
   20.3118  -17.6932  -17.0504 C   0  0  0  0  0  0  0  0  0  0  0  0
   20.8420  -17.1640  -18.0574 O   0  0  0  0  0  0  0  0  0  0  0  0
   20.7512  -19.8653  -14.2630 C   0  0  0  0  0  0  0  0  0  0  0  0
   19.7919  -19.6721  -13.4925 O   0  0  0  0  0  0  0  0  0  0  0  0
   19.2179  -17.0318  -16.4943 O   0  0  0  0  0  0  0  0  0  0  0  0
   21.3194  -21.1195  -14.3248 O   0  0  0  0  0  0  0  0  0  0  0  0
  2  1  1  6
  3  2  1  0
  4  3  1  0
  5  4  2  0
  6  5  1  0
  7  6  1  0
  7  8  2  0
  8  4  1  0
  9  2  1  0
  9 11  1  0
 10  9  2  0
 11 15  1  0
 12 11  1  0
 12 13  1  0
 13 14  1  0
 15 16  1  1
 15 14  1  0
 16 17  2  0
 18 19  1  0
 18 16  1  0
 20 21  1  0
 19 20  1  6
 21 25  1  0
 22 21  2  0
 23 19  1  0
 24 23  2  0
 26 23  1  0
M  END
$$$$
