HPD.pdb
     RDKit          3D

 26 27  0  0  1  0  0  0  0  0999 V2000
   24.1076  -19.4316  -18.0852 N   0  0  0  0  0  0  0  0  0  0  0  0
   24.7398  -18.7101  -16.9673 C   0  0  1  0  0  0  0  0  0  0  0  0
   23.8802  -17.5915  -16.5082 C   0  0  0  0  0  0  0  0  0  0  0  0
   23.4584  -16.6316  -17.5305 C   0  0  0  0  0  0  0  0  0  0  0  0
   22.2446  -16.4908  -18.1362 C   0  0  0  0  0  0  0  0  0  0  0  0
   22.2781  -15.4779  -19.0382 N   0  0  0  0  0  0  0  0  0  0  0  0
   23.5321  -15.0033  -18.9729 C   0  0  0  0  0  0  0  0  0  0  0  0
   24.2559  -15.6867  -18.0701 N   0  0  0  0  0  0  0  0  0  0  0  0
   25.2493  -19.6210  -15.9485 C   0  0  0  0  0  0  0  0  0  0  0  0
   24.5477  -20.6631  -15.6997 O   0  0  0  0  0  0  0  0  0  0  0  0
   26.4359  -19.4638  -15.2162 N   0  0  0  0  0  0  0  0  0  0  0  0
   27.4094  -18.4128  -15.3472 C   0  0  0  0  0  0  0  0  0  0  0  0
   28.7540  -19.0358  -15.0110 C   0  0  0  0  0  0  0  0  0  0  0  0
   28.4249  -20.3817  -14.4460 C   0  0  0  0  0  0  0  0  0  0  0  0
   26.9236  -20.3515  -14.1850 C   0  0  1  0  0  0  0  0  0  0  0  0
   26.6385  -19.6950  -12.8700 C   0  0  0  0  0  0  0  0  0  0  0  0
   26.5784  -18.4263  -12.7523 O   0  0  0  0  0  0  0  0  0  0  0  0
   26.4172  -20.4284  -11.6734 N   0  0  0  0  0  0  0  0  0  0  0  0
   25.1469  -20.3425  -10.9424 C   0  0  1  0  0  0  0  0  0  0  0  0
   23.9913  -20.6639  -11.8254 C   0  0  0  0  0  0  0  0  0  0  0  0
   22.7412  -20.6790  -11.0552 C   0  0  0  0  0  0  0  0  0  0  0  0
   22.4658  -19.7325  -10.2783 O   0  0  0  0  0  0  0  0  0  0  0  0
   25.2141  -21.2874   -9.8236 C   0  0  0  0  0  0  0  0  0  0  0  0
   25.5520  -22.4706  -10.0171 O   0  0  0  0  0  0  0  0  0  0  0  0
   21.8125  -21.7153  -11.1385 O   0  0  0  0  0  0  0  0  0  0  0  0
   24.9044  -20.8794   -8.5441 O   0  0  0  0  0  0  0  0  0  0  0  0
  2  1  1  6
  3  2  1  0
  4  3  1  0
  5  4  2  0
  6  5  1  0
  7  6  1  0
  7  8  2  0
  8  4  1  0
  9  2  1  0
  9 11  1  0
 10  9  2  0
 11 15  1  0
 12 11  1  0
 12 13  1  0
 13 14  1  0
 15 16  1  1
 15 14  1  0
 16 17  2  0
 18 19  1  0
 18 16  1  0
 20 21  1  0
 19 20  1  6
 21 25  1  0
 22 21  2  0
 23 19  1  0
 24 23  2  0
 26 23  1  0
M  END
$$$$
