HPD.pdb
     RDKit          3D

 26 27  0  0  1  0  0  0  0  0999 V2000
   20.9209  -13.1355  -15.4282 N   0  0  0  0  0  0  0  0  0  0  0  0
   20.9506  -11.8879  -16.2111 C   0  0  1  0  0  0  0  0  0  0  0  0
   19.6454  -11.6509  -16.8751 C   0  0  0  0  0  0  0  0  0  0  0  0
   19.0651  -12.7859  -17.5958 C   0  0  0  0  0  0  0  0  0  0  0  0
   19.4295  -13.3276  -18.7933 C   0  0  0  0  0  0  0  0  0  0  0  0
   18.6213  -14.3706  -19.1088 N   0  0  0  0  0  0  0  0  0  0  0  0
   17.7580  -14.4562  -18.0844 C   0  0  0  0  0  0  0  0  0  0  0  0
   18.0112  -13.5095  -17.1649 N   0  0  0  0  0  0  0  0  0  0  0  0
   21.5238  -10.7815  -15.4530 C   0  0  0  0  0  0  0  0  0  0  0  0
   21.1822  -10.6837  -14.2226 O   0  0  0  0  0  0  0  0  0  0  0  0
   22.4146   -9.8150  -15.9442 N   0  0  0  0  0  0  0  0  0  0  0  0
   22.9514   -9.7195  -17.2755 C   0  0  0  0  0  0  0  0  0  0  0  0
   24.3413   -9.1228  -17.1307 C   0  0  0  0  0  0  0  0  0  0  0  0
   24.4182   -8.6655  -15.7080 C   0  0  0  0  0  0  0  0  0  0  0  0
   22.9860   -8.7225  -15.1899 C   0  0  1  0  0  0  0  0  0  0  0  0
   22.2428   -7.4831  -15.5810 C   0  0  0  0  0  0  0  0  0  0  0  0
   21.6206   -7.3959  -16.6911 O   0  0  0  0  0  0  0  0  0  0  0  0
   22.1778   -6.3293  -14.7546 N   0  0  0  0  0  0  0  0  0  0  0  0
   21.2476   -5.2300  -15.0403 C   0  0  1  0  0  0  0  0  0  0  0  0
   20.2904   -5.0251  -13.9177 C   0  0  0  0  0  0  0  0  0  0  0  0
   19.3814   -3.9098  -14.2108 C   0  0  0  0  0  0  0  0  0  0  0  0
   18.7270   -3.8923  -15.2818 O   0  0  0  0  0  0  0  0  0  0  0  0
   22.0450   -4.0196  -15.2596 C   0  0  0  0  0  0  0  0  0  0  0  0
   23.1003   -3.8360  -14.6238 O   0  0  0  0  0  0  0  0  0  0  0  0
   19.1961   -2.8352  -13.3424 O   0  0  0  0  0  0  0  0  0  0  0  0
   21.6380   -3.0697  -16.1715 O   0  0  0  0  0  0  0  0  0  0  0  0
  2  1  1  1
  3  2  1  0
  4  3  1  0
  5  4  2  0
  6  5  1  0
  7  6  1  0
  7  8  2  0
  8  4  1  0
  9  2  1  0
  9 11  1  0
 10  9  2  0
 11 15  1  0
 12 11  1  0
 12 13  1  0
 13 14  1  0
 15 16  1  6
 15 14  1  0
 16 17  2  0
 18 19  1  0
 18 16  1  0
 20 21  1  0
 19 20  1  1
 21 25  1  0
 22 21  2  0
 23 19  1  0
 24 23  2  0
 26 23  1  0
M  END
$$$$
