DIQ.pdb
     RDKit          3D

 26 25  0  0  1  0  0  0  0  0999 V2000
   20.2840  -12.9164  -17.1555 N   0  0  0  0  0  0  0  0  0  0  0  0
   21.0644  -11.8690  -17.7847 C   0  0  1  0  0  0  0  0  0  0  0  0
   20.1768  -10.8917  -18.5154 C   0  0  0  0  0  0  0  0  0  0  0  0
   19.5163  -11.5055  -19.6832 C   0  0  0  0  0  0  0  0  0  0  0  0
   19.5987  -12.7407  -19.8987 O   0  0  0  0  0  0  0  0  0  0  0  0
   21.7709  -11.1303  -16.6923 C   0  0  0  0  0  0  0  0  0  0  0  0
   21.1959  -10.9146  -15.5955 O   0  0  0  0  0  0  0  0  0  0  0  0
   18.7802  -10.7549  -20.5900 O   0  0  0  0  0  0  0  0  0  0  0  0
   27.0780  -11.7782  -15.8896 C   0  0  0  0  0  0  0  0  0  0  0  0
   25.5714  -11.5929  -15.6301 C   0  0  0  0  0  0  0  0  0  0  0  0
   25.2861  -10.1504  -15.9281 C   0  0  2  0  0  0  0  0  0  0  0  0
   26.0253   -9.3100  -14.8909 C   0  0  0  0  0  0  0  0  0  0  0  0
   23.8477   -9.8812  -15.9197 C   0  0  2  0  0  0  0  0  0  0  0  0
   23.0720  -10.6633  -16.8559 N   0  0  0  0  0  0  0  0  0  0  0  0
   23.5742   -8.4560  -16.2791 C   0  0  0  0  0  0  0  0  0  0  0  0
   23.9110   -7.9041  -17.3473 O   0  0  0  0  0  0  0  0  0  0  0  0
   18.3977   -6.2052  -17.1006 N   0  0  0  0  0  0  0  0  0  0  0  0
   19.0866   -4.9918  -16.8172 C   0  0  0  0  0  0  0  0  0  0  0  0
   18.4198   -3.9117  -16.9269 O   0  0  0  0  0  0  0  0  0  0  0  0
   20.5042   -4.9634  -16.4082 C   0  0  0  0  0  0  0  0  0  0  0  0
   21.1451   -6.2709  -16.1851 C   0  0  0  0  0  0  0  0  0  0  0  0
   22.5575   -6.2317  -15.7570 C   0  0  2  0  0  0  0  0  0  0  0  0
   22.8796   -7.6388  -15.3520 N   0  0  0  0  0  0  0  0  0  0  0  0
   22.8098   -5.4465  -14.5544 C   0  0  0  0  0  0  0  0  0  0  0  0
   22.7905   -5.9892  -13.2861 O   0  0  0  0  0  0  0  0  0  0  0  0
   23.0628   -4.2039  -14.6398 O   0  0  0  0  0  0  0  0  0  0  0  0
  2  3  1  0
  2  1  1  1
  4  8  1  0
  4  3  1  0
  5  4  2  0
  6  2  1  0
  7  6  2  0
  9 10  1  0
 10 11  1  0
 11 13  1  0
 11 12  1  1
 13 14  1  6
 14  6  1  0
 15 13  1  0
 15 23  1  0
 16 15  2  0
 18 17  1  0
 19 18  2  0
 20 18  1  0
 22 21  1  1
 21 20  1  0
 22 24  1  0
 22 23  1  0
 24 25  1  0
 26 24  2  0
M  END
$$$$
