DIQ.pdb
     RDKit          3D

 26 25  0  0  1  0  0  0  0  0999 V2000
   27.0500  -19.8522  -16.2504 N   0  0  0  0  0  0  0  0  0  0  0  0
   26.5520  -21.1770  -16.5645 C   0  0  1  0  0  0  0  0  0  0  0  0
   27.6776  -22.1065  -16.9467 C   0  0  0  0  0  0  0  0  0  0  0  0
   28.4441  -21.6058  -18.1037 C   0  0  0  0  0  0  0  0  0  0  0  0
   27.8683  -21.2949  -19.1764 O   0  0  0  0  0  0  0  0  0  0  0  0
   25.9079  -21.7104  -15.3239 C   0  0  0  0  0  0  0  0  0  0  0  0
   25.5394  -22.9107  -15.2645 O   0  0  0  0  0  0  0  0  0  0  0  0
   29.8238  -21.4562  -18.0623 O   0  0  0  0  0  0  0  0  0  0  0  0
   28.2489  -20.3899  -11.4937 C   0  0  0  0  0  0  0  0  0  0  0  0
   27.2522  -21.5330  -11.7611 C   0  0  0  0  0  0  0  0  0  0  0  0
   25.8958  -20.8919  -11.7634 C   0  0  2  0  0  0  0  0  0  0  0  0
   25.1954  -21.2893  -10.4672 C   0  0  0  0  0  0  0  0  0  0  0  0
   25.1233  -21.2884  -12.9414 C   0  0  2  0  0  0  0  0  0  0  0  0
   25.6984  -20.9020  -14.2103 N   0  0  0  0  0  0  0  0  0  0  0  0
   23.7661  -20.6616  -12.9196 C   0  0  0  0  0  0  0  0  0  0  0  0
   23.5294  -19.4626  -12.6641 O   0  0  0  0  0  0  0  0  0  0  0  0
   18.7466  -23.2866  -15.7552 N   0  0  0  0  0  0  0  0  0  0  0  0
   18.2171  -22.1542  -15.0738 C   0  0  0  0  0  0  0  0  0  0  0  0
   16.9708  -21.9287  -15.2134 O   0  0  0  0  0  0  0  0  0  0  0  0
   19.0525  -21.2729  -14.2354 C   0  0  0  0  0  0  0  0  0  0  0  0
   20.4885  -21.5964  -14.1780 C   0  0  0  0  0  0  0  0  0  0  0  0
   21.2875  -20.8141  -13.2140 C   0  0  2  0  0  0  0  0  0  0  0  0
   22.6363  -21.4686  -13.2062 N   0  0  0  0  0  0  0  0  0  0  0  0
   20.8370  -20.9064  -11.8302 C   0  0  0  0  0  0  0  0  0  0  0  0
   20.0514  -19.9433  -11.2309 O   0  0  0  0  0  0  0  0  0  0  0  0
   21.1626  -21.9044  -11.1136 O   0  0  0  0  0  0  0  0  0  0  0  0
  2  3  1  0
  2  1  1  1
  4  8  1  0
  4  3  1  0
  5  4  2  0
  6  2  1  0
  7  6  2  0
  9 10  1  0
 10 11  1  0
 11 13  1  0
 11 12  1  1
 13 14  1  6
 14  6  1  0
 15 13  1  0
 15 23  1  0
 16 15  2  0
 18 17  1  0
 19 18  2  0
 20 18  1  0
 22 21  1  6
 21 20  1  0
 22 24  1  0
 22 23  1  0
 24 25  1  0
 26 24  2  0
M  END
$$$$
