DIQ.pdb
     RDKit          3D

 26 25  0  0  1  0  0  0  0  0999 V2000
   21.3537  -11.2657  -18.9355 N   0  0  0  0  0  0  0  0  0  0  0  0
   22.3039  -10.2840  -18.4503 C   0  0  1  0  0  0  0  0  0  0  0  0
   22.5721   -9.2241  -19.4902 C   0  0  0  0  0  0  0  0  0  0  0  0
   23.3944   -9.7333  -20.6044 C   0  0  0  0  0  0  0  0  0  0  0  0
   22.8768  -10.3835  -21.5468 O   0  0  0  0  0  0  0  0  0  0  0  0
   21.6840   -9.6229  -17.2599 C   0  0  0  0  0  0  0  0  0  0  0  0
   20.4636   -9.3217  -17.2636 O   0  0  0  0  0  0  0  0  0  0  0  0
   24.7651   -9.5203  -20.6635 O   0  0  0  0  0  0  0  0  0  0  0  0
   23.0318  -11.4200  -12.5120 C   0  0  0  0  0  0  0  0  0  0  0  0
   22.1465  -10.8311  -13.6260 C   0  0  0  0  0  0  0  0  0  0  0  0
   22.4762   -9.3681  -13.6709 C   0  0  2  0  0  0  0  0  0  0  0  0
   21.8964   -8.7257  -12.4141 C   0  0  0  0  0  0  0  0  0  0  0  0
   21.9568   -8.7442  -14.8885 C   0  0  2  0  0  0  0  0  0  0  0  0
   22.4321   -9.3232  -16.1249 N   0  0  0  0  0  0  0  0  0  0  0  0
   22.3506   -7.3034  -14.9540 C   0  0  0  0  0  0  0  0  0  0  0  0
   23.5120   -6.8805  -15.1311 O   0  0  0  0  0  0  0  0  0  0  0  0
   19.0198   -3.0298  -17.7861 N   0  0  0  0  0  0  0  0  0  0  0  0
   19.9281   -2.2398  -17.0257 C   0  0  0  0  0  0  0  0  0  0  0  0
   19.8930   -0.9802  -17.2139 O   0  0  0  0  0  0  0  0  0  0  0  0
   20.8703   -2.8304  -16.0556 C   0  0  0  0  0  0  0  0  0  0  0  0
   20.8326   -4.2967  -15.9193 C   0  0  0  0  0  0  0  0  0  0  0  0
   21.7540   -4.8752  -14.9212 C   0  0  2  0  0  0  0  0  0  0  0  0
   21.3469   -6.3134  -14.8048 N   0  0  0  0  0  0  0  0  0  0  0  0
   21.5995   -4.3490  -13.5700 C   0  0  0  0  0  0  0  0  0  0  0  0
   20.7123   -4.8784  -12.6555 O   0  0  0  0  0  0  0  0  0  0  0  0
   22.2967   -3.3597  -13.1821 O   0  0  0  0  0  0  0  0  0  0  0  0
  2  3  1  0
  2  1  1  6
  4  8  1  0
  4  3  1  0
  5  4  2  0
  6  2  1  0
  7  6  2  0
  9 10  1  0
 10 11  1  0
 11 13  1  0
 11 12  1  1
 13 14  1  6
 14  6  1  0
 15 13  1  0
 15 23  1  0
 16 15  2  0
 18 17  1  0
 19 18  2  0
 20 18  1  0
 22 21  1  6
 21 20  1  0
 22 24  1  0
 22 23  1  0
 24 25  1  0
 26 24  2  0
M  END
$$$$
