DIQ.pdb
     RDKit          3D

 26 25  0  0  1  0  0  0  0  0999 V2000
   28.2225  -21.6355  -15.4117 N   0  0  0  0  0  0  0  0  0  0  0  0
   27.4730  -20.5656  -14.7830 C   0  0  1  0  0  0  0  0  0  0  0  0
   26.8666  -19.6456  -15.8139 C   0  0  0  0  0  0  0  0  0  0  0  0
   27.8938  -18.9128  -16.5786 C   0  0  0  0  0  0  0  0  0  0  0  0
   28.6068  -19.4984  -17.4314 O   0  0  0  0  0  0  0  0  0  0  0  0
   26.3589  -21.2022  -14.0135 C   0  0  0  0  0  0  0  0  0  0  0  0
   25.7606  -22.2068  -14.4748 O   0  0  0  0  0  0  0  0  0  0  0  0
   28.1188  -17.5553  -16.3936 O   0  0  0  0  0  0  0  0  0  0  0  0
   26.3920  -20.5103   -8.5842 C   0  0  0  0  0  0  0  0  0  0  0  0
   26.2629  -21.2868   -9.9079 C   0  0  0  0  0  0  0  0  0  0  0  0
   24.9801  -20.8160  -10.5272 C   0  0  2  0  0  0  0  0  0  0  0  0
   23.8316  -21.3953   -9.7062 C   0  0  0  0  0  0  0  0  0  0  0  0
   24.8942  -21.2095  -11.9341 C   0  0  2  0  0  0  0  0  0  0  0  0
   25.9547  -20.7058  -12.7775 N   0  0  0  0  0  0  0  0  0  0  0  0
   23.6298  -20.7013  -12.5492 C   0  0  0  0  0  0  0  0  0  0  0  0
   23.3171  -19.4981  -12.6653 O   0  0  0  0  0  0  0  0  0  0  0  0
   20.1355  -24.1433  -16.5510 N   0  0  0  0  0  0  0  0  0  0  0  0
   19.3416  -22.9902  -16.2914 C   0  0  0  0  0  0  0  0  0  0  0  0
   18.2408  -22.8940  -16.9257 O   0  0  0  0  0  0  0  0  0  0  0  0
   19.7520  -21.9461  -15.3327 C   0  0  0  0  0  0  0  0  0  0  0  0
   21.0634  -22.1319  -14.6877 C   0  0  0  0  0  0  0  0  0  0  0  0
   21.4449  -21.1068  -13.6960 C   0  0  2  0  0  0  0  0  0  0  0  0
   22.6891  -21.6368  -13.0489 N   0  0  0  0  0  0  0  0  0  0  0  0
   20.5070  -20.9470  -12.5909 C   0  0  0  0  0  0  0  0  0  0  0  0
   20.5011  -21.7736  -11.4862 O   0  0  0  0  0  0  0  0  0  0  0  0
   19.6425  -20.0155  -12.6114 O   0  0  0  0  0  0  0  0  0  0  0  0
  2  3  1  0
  2  1  1  6
  4  8  1  0
  4  3  1  0
  5  4  2  0
  6  2  1  0
  7  6  2  0
  9 10  1  0
 10 11  1  0
 11 13  1  0
 11 12  1  1
 13 14  1  6
 14  6  1  0
 15 13  1  0
 15 23  1  0
 16 15  2  0
 18 17  1  0
 19 18  2  0
 20 18  1  0
 22 21  1  6
 21 20  1  0
 22 24  1  0
 22 23  1  0
 24 25  1  0
 26 24  2  0
M  END
$$$$
