DIQ.pdb
     RDKit          3D

 26 25  0  0  1  0  0  0  0  0999 V2000
   22.1175  -15.1780  -17.0247 N   0  0  0  0  0  0  0  0  0  0  0  0
   22.5914  -14.0300  -17.7727 C   0  0  1  0  0  0  0  0  0  0  0  0
   21.4823  -13.4172  -18.5919 C   0  0  0  0  0  0  0  0  0  0  0  0
   20.9673  -14.3470  -19.6152 C   0  0  0  0  0  0  0  0  0  0  0  0
   21.6480  -15.3320  -19.9964 O   0  0  0  0  0  0  0  0  0  0  0  0
   23.0501  -13.0139  -16.7749 C   0  0  0  0  0  0  0  0  0  0  0  0
   22.4720  -12.9079  -15.6638 O   0  0  0  0  0  0  0  0  0  0  0  0
   19.7190  -14.1791  -20.1993 O   0  0  0  0  0  0  0  0  0  0  0  0
   28.2385  -11.9448  -15.8771 C   0  0  0  0  0  0  0  0  0  0  0  0
   26.7316  -12.1479  -15.6327 C   0  0  0  0  0  0  0  0  0  0  0  0
   26.0643  -10.9290  -16.1981 C   0  0  2  0  0  0  0  0  0  0  0  0
   26.4951   -9.7334  -15.3535 C   0  0  0  0  0  0  0  0  0  0  0  0
   24.6091  -11.0824  -16.2194 C   0  0  2  0  0  0  0  0  0  0  0  0
   24.1185  -12.1633  -17.0445 N   0  0  0  0  0  0  0  0  0  0  0  0
   23.9551   -9.8506  -16.7583 C   0  0  0  0  0  0  0  0  0  0  0  0
   24.0994   -9.4050  -17.9157 O   0  0  0  0  0  0  0  0  0  0  0  0
   18.2558   -8.8946  -17.2004 N   0  0  0  0  0  0  0  0  0  0  0  0
   18.7141   -7.5508  -17.3074 C   0  0  0  0  0  0  0  0  0  0  0  0
   17.8486   -6.6704  -17.6223 O   0  0  0  0  0  0  0  0  0  0  0  0
   20.1194   -7.1720  -17.0639 C   0  0  0  0  0  0  0  0  0  0  0  0
   21.0343   -8.2646  -16.6907 C   0  0  0  0  0  0  0  0  0  0  0  0
   22.4428   -7.8797  -16.4723 C   0  0  2  0  0  0  0  0  0  0  0  0
   23.0975   -9.1057  -15.9101 N   0  0  0  0  0  0  0  0  0  0  0  0
   22.6463   -6.8632  -15.4468 C   0  0  0  0  0  0  0  0  0  0  0  0
   22.5231   -7.1233  -14.0974 O   0  0  0  0  0  0  0  0  0  0  0  0
   22.9522   -5.6735  -15.7731 O   0  0  0  0  0  0  0  0  0  0  0  0
  2  3  1  0
  2  1  1  1
  4  8  1  0
  4  3  1  0
  5  4  2  0
  6  2  1  0
  7  6  2  0
  9 10  1  0
 10 11  1  0
 11 13  1  0
 11 12  1  1
 13 14  1  6
 14  6  1  0
 15 13  1  0
 15 23  1  0
 16 15  2  0
 18 17  1  0
 19 18  2  0
 20 18  1  0
 22 21  1  1
 21 20  1  0
 22 24  1  0
 22 23  1  0
 24 25  1  0
 26 24  2  0
M  END
$$$$
