DIQ.pdb
     RDKit          3D

 26 25  0  0  1  0  0  0  0  0999 V2000
   27.3870  -20.8109  -15.9288 N   0  0  0  0  0  0  0  0  0  0  0  0
   26.8218  -22.1339  -16.1077 C   0  0  1  0  0  0  0  0  0  0  0  0
   27.9015  -23.1872  -16.1495 C   0  0  0  0  0  0  0  0  0  0  0  0
   28.9546  -22.8658  -17.1316 C   0  0  0  0  0  0  0  0  0  0  0  0
   28.8737  -21.8426  -17.8564 O   0  0  0  0  0  0  0  0  0  0  0  0
   25.9521  -22.4048  -14.9209 C   0  0  0  0  0  0  0  0  0  0  0  0
   25.4836  -23.5547  -14.7252 O   0  0  0  0  0  0  0  0  0  0  0  0
   30.0733  -23.6707  -17.2997 O   0  0  0  0  0  0  0  0  0  0  0  0
   25.3140  -20.6822   -9.1973 C   0  0  0  0  0  0  0  0  0  0  0  0
   24.5084  -21.1546  -10.4218 C   0  0  0  0  0  0  0  0  0  0  0  0
   25.4353  -21.0117  -11.5929 C   0  0  2  0  0  0  0  0  0  0  0  0
   25.8014  -19.5353  -11.7141 C   0  0  0  0  0  0  0  0  0  0  0  0
   24.8223  -21.5215  -12.8201 C   0  0  2  0  0  0  0  0  0  0  0  0
   25.6375  -21.4022  -14.0080 N   0  0  0  0  0  0  0  0  0  0  0  0
   23.5643  -20.7763  -13.1321 C   0  0  0  0  0  0  0  0  0  0  0  0
   23.4948  -19.5589  -13.4006 O   0  0  0  0  0  0  0  0  0  0  0  0
   20.3197  -22.1588  -17.6669 N   0  0  0  0  0  0  0  0  0  0  0  0
   19.4290  -21.2604  -17.0137 C   0  0  0  0  0  0  0  0  0  0  0  0
   18.4146  -20.8699  -17.6785 O   0  0  0  0  0  0  0  0  0  0  0  0
   19.6475  -20.7950  -15.6305 C   0  0  0  0  0  0  0  0  0  0  0  0
   20.9005  -21.2268  -14.9872 C   0  0  0  0  0  0  0  0  0  0  0  0
   21.1083  -20.7594  -13.6022 C   0  0  2  0  0  0  0  0  0  0  0  0
   22.3342  -21.4811  -13.1289 N   0  0  0  0  0  0  0  0  0  0  0  0
   20.0704  -21.1610  -12.6598 C   0  0  0  0  0  0  0  0  0  0  0  0
   19.0031  -20.3515  -12.3293 O   0  0  0  0  0  0  0  0  0  0  0  0
   20.1179  -22.3004  -12.0988 O   0  0  0  0  0  0  0  0  0  0  0  0
  2  3  1  0
  2  1  1  1
  4  8  1  0
  4  3  1  0
  5  4  2  0
  6  2  1  0
  7  6  2  0
  9 10  1  0
 10 11  1  0
 11 13  1  0
 11 12  1  6
 13 14  1  6
 14  6  1  0
 15 13  1  0
 15 23  1  0
 16 15  2  0
 18 17  1  0
 19 18  2  0
 20 18  1  0
 22 21  1  6
 21 20  1  0
 22 24  1  0
 22 23  1  0
 24 25  1  0
 26 24  2  0
M  END
$$$$
