DIQ.pdb
     RDKit          3D

 26 25  0  0  1  0  0  0  0  0999 V2000
   28.1637  -37.5408   -5.1954 N   0  0  0  0  0  0  0  0  0  0  0  0
   28.5929  -37.8175   -3.8385 C   0  0  1  0  0  0  0  0  0  0  0  0
   30.0982  -37.8465   -3.7378 C   0  0  0  0  0  0  0  0  0  0  0  0
   30.6710  -39.0764   -4.3177 C   0  0  0  0  0  0  0  0  0  0  0  0
   31.7192  -39.0390   -5.0094 O   0  0  0  0  0  0  0  0  0  0  0  0
   28.0900  -36.6990   -2.9814 C   0  0  0  0  0  0  0  0  0  0  0  0
   28.5842  -36.4985   -1.8432 O   0  0  0  0  0  0  0  0  0  0  0  0
   30.0845  -40.3206   -4.1284 O   0  0  0  0  0  0  0  0  0  0  0  0
   25.5066  -32.4416   -5.4406 C   0  0  0  0  0  0  0  0  0  0  0  0
   26.4717  -33.3219   -4.6249 C   0  0  0  0  0  0  0  0  0  0  0  0
   25.6638  -33.8450   -3.4739 C   0  0  2  0  0  0  0  0  0  0  0  0
   25.2027  -32.6455   -2.6510 C   0  0  0  0  0  0  0  0  0  0  0  0
   26.4378  -34.7905   -2.6687 C   0  0  2  0  0  0  0  0  0  0  0  0
   27.0695  -35.8566   -3.4132 N   0  0  0  0  0  0  0  0  0  0  0  0
   25.5614  -35.4762   -1.6702 C   0  0  0  0  0  0  0  0  0  0  0  0
   24.7026  -36.3419   -1.9386 O   0  0  0  0  0  0  0  0  0  0  0  0
   27.2204  -36.2727    4.3249 N   0  0  0  0  0  0  0  0  0  0  0  0
   25.8709  -36.7245    4.2804 C   0  0  0  0  0  0  0  0  0  0  0  0
   25.3888  -37.2058    5.3572 O   0  0  0  0  0  0  0  0  0  0  0  0
   25.0490  -36.6434    3.0576 C   0  0  0  0  0  0  0  0  0  0  0  0
   25.7023  -36.0677    1.8694 C   0  0  0  0  0  0  0  0  0  0  0  0
   24.8359  -35.8677    0.6907 C   0  0  2  0  0  0  0  0  0  0  0  0
   25.6911  -35.1363   -0.3000 N   0  0  0  0  0  0  0  0  0  0  0  0
   23.7018  -34.9778    0.9102 C   0  0  0  0  0  0  0  0  0  0  0  0
   23.8214  -33.6037    0.9427 O   0  0  0  0  0  0  0  0  0  0  0  0
   22.5358  -35.4534    1.0826 O   0  0  0  0  0  0  0  0  0  0  0  0
  2  3  1  0
  2  1  1  6
  4  8  1  0
  4  3  1  0
  5  4  2  0
  6  2  1  0
  7  6  2  0
  9 10  1  0
 10 11  1  0
 11 13  1  0
 11 12  1  1
 13 14  1  6
 14  6  1  0
 15 13  1  0
 15 23  1  0
 16 15  2  0
 18 17  1  0
 19 18  2  0
 20 18  1  0
 22 21  1  1
 21 20  1  0
 22 24  1  0
 22 23  1  0
 24 25  1  0
 26 24  2  0
M  END
$$$$
