DIQ.pdb
     RDKit          3D

 26 25  0  0  1  0  0  0  0  0999 V2000
   17.9339  -12.3314  -15.6167 N   0  0  0  0  0  0  0  0  0  0  0  0
   18.4258  -11.2852  -16.4914 C   0  0  1  0  0  0  0  0  0  0  0  0
   17.3208  -10.3329  -16.8777 C   0  0  0  0  0  0  0  0  0  0  0  0
   16.2686  -10.9946  -17.6726 C   0  0  0  0  0  0  0  0  0  0  0  0
   16.5157  -12.0306  -18.3393 O   0  0  0  0  0  0  0  0  0  0  0  0
   19.4552  -10.5177  -15.7235 C   0  0  0  0  0  0  0  0  0  0  0  0
   19.3012  -10.3010  -14.4950 O   0  0  0  0  0  0  0  0  0  0  0  0
   14.9690  -10.5086  -17.7212 O   0  0  0  0  0  0  0  0  0  0  0  0
   23.2921  -11.1691  -13.8789 C   0  0  0  0  0  0  0  0  0  0  0  0
   23.0994  -11.3483  -15.3963 C   0  0  0  0  0  0  0  0  0  0  0  0
   23.0260   -9.9596  -15.9594 C   0  0  2  0  0  0  0  0  0  0  0  0
   24.1544   -9.1468  -15.3312 C   0  0  0  0  0  0  0  0  0  0  0  0
   21.7171   -9.3544  -15.7102 C   0  0  2  0  0  0  0  0  0  0  0  0
   20.6017  -10.0246  -16.3399 N   0  0  0  0  0  0  0  0  0  0  0  0
   21.6751   -7.9527  -16.2288 C   0  0  0  0  0  0  0  0  0  0  0  0
   21.9180   -7.6113  -17.4050 O   0  0  0  0  0  0  0  0  0  0  0  0
   17.1773   -4.1086  -15.3689 N   0  0  0  0  0  0  0  0  0  0  0  0
   18.2115   -3.2162  -15.7705 C   0  0  0  0  0  0  0  0  0  0  0  0
   17.8802   -2.0017  -15.9669 O   0  0  0  0  0  0  0  0  0  0  0  0
   19.6090   -3.6543  -15.9511 C   0  0  0  0  0  0  0  0  0  0  0  0
   19.8834   -5.0797  -15.7004 C   0  0  0  0  0  0  0  0  0  0  0  0
   21.2851   -5.5075  -15.8794 C   0  0  2  0  0  0  0  0  0  0  0  0
   21.3371   -6.9041  -15.3367 N   0  0  0  0  0  0  0  0  0  0  0  0
   22.2551   -4.7744  -15.0743 C   0  0  0  0  0  0  0  0  0  0  0  0
   22.5471   -5.1041  -13.7668 O   0  0  0  0  0  0  0  0  0  0  0  0
   22.8790   -3.7822  -15.5657 O   0  0  0  0  0  0  0  0  0  0  0  0
  2  3  1  0
  2  1  1  1
  4  8  1  0
  4  3  1  0
  5  4  2  0
  6  2  1  0
  7  6  2  0
  9 10  1  0
 10 11  1  0
 11 13  1  0
 11 12  1  1
 13 14  1  6
 14  6  1  0
 15 13  1  0
 15 23  1  0
 16 15  2  0
 18 17  1  0
 19 18  2  0
 20 18  1  0
 22 21  1  1
 21 20  1  0
 22 24  1  0
 22 23  1  0
 24 25  1  0
 26 24  2  0
M  END
$$$$
