DIQ.pdb
     RDKit          3D

 26 25  0  0  1  0  0  0  0  0999 V2000
   13.7668   -8.4710   -7.1483 N   0  0  0  0  0  0  0  0  0  0  0  0
   14.1037   -7.5356   -8.2034 C   0  0  1  0  0  0  0  0  0  0  0  0
   14.7428   -6.2887   -7.6433 C   0  0  0  0  0  0  0  0  0  0  0  0
   13.7463   -5.3575   -7.0803 C   0  0  0  0  0  0  0  0  0  0  0  0
   12.5251   -5.6522   -7.0572 O   0  0  0  0  0  0  0  0  0  0  0  0
   15.1009   -8.2127   -9.0896 C   0  0  0  0  0  0  0  0  0  0  0  0
   16.0930   -8.8046   -8.5943 O   0  0  0  0  0  0  0  0  0  0  0  0
   14.1074   -4.1241   -6.5549 O   0  0  0  0  0  0  0  0  0  0  0  0
   12.9492  -10.7059  -11.7211 C   0  0  0  0  0  0  0  0  0  0  0  0
   14.4713  -10.9292  -11.6511 C   0  0  0  0  0  0  0  0  0  0  0  0
   15.0826   -9.7626  -12.3695 C   0  0  2  0  0  0  0  0  0  0  0  0
   16.0079  -10.3185  -13.4482 C   0  0  0  0  0  0  0  0  0  0  0  0
   15.7962   -8.8833  -11.4426 C   0  0  2  0  0  0  0  0  0  0  0  0
   14.9625   -8.2066  -10.4747 N   0  0  0  0  0  0  0  0  0  0  0  0
   16.4998   -7.7922  -12.1842 C   0  0  0  0  0  0  0  0  0  0  0  0
   15.9510   -6.7841  -12.6757 O   0  0  0  0  0  0  0  0  0  0  0  0
   22.8097   -7.0246  -12.0275 N   0  0  0  0  0  0  0  0  0  0  0  0
   22.3457   -6.0288  -12.9333 C   0  0  0  0  0  0  0  0  0  0  0  0
   23.2230   -5.2528  -13.4348 O   0  0  0  0  0  0  0  0  0  0  0  0
   20.9216   -5.8879  -13.2931 C   0  0  0  0  0  0  0  0  0  0  0  0
   19.9822   -6.7893  -12.6037 C   0  0  0  0  0  0  0  0  0  0  0  0
   18.5918   -6.7733  -13.0999 C   0  0  2  0  0  0  0  0  0  0  0  0
   17.9034   -7.8818  -12.3617 N   0  0  0  0  0  0  0  0  0  0  0  0
   18.4406   -7.1313  -14.5053 C   0  0  0  0  0  0  0  0  0  0  0  0
   18.3011   -6.1937  -15.5078 O   0  0  0  0  0  0  0  0  0  0  0  0
   18.4329   -8.3517  -14.8602 O   0  0  0  0  0  0  0  0  0  0  0  0
  2  3  1  0
  2  1  1  1
  4  8  1  0
  4  3  1  0
  5  4  2  0
  6  2  1  0
  7  6  2  0
  9 10  1  0
 10 11  1  0
 11 13  1  0
 11 12  1  6
 13 14  1  1
 14  6  1  0
 15 13  1  0
 15 23  1  0
 16 15  2  0
 18 17  1  0
 19 18  2  0
 20 18  1  0
 22 21  1  1
 21 20  1  0
 22 24  1  0
 22 23  1  0
 24 25  1  0
 26 24  2  0
M  END
$$$$
