DIQ.pdb
     RDKit          3D

 26 25  0  0  1  0  0  0  0  0999 V2000
   21.4832  -20.6031  -11.0059 N   0  0  0  0  0  0  0  0  0  0  0  0
   22.1980  -21.2794  -12.0705 C   0  0  1  0  0  0  0  0  0  0  0  0
   21.3442  -21.4020  -13.3086 C   0  0  0  0  0  0  0  0  0  0  0  0
   20.1563  -22.2477  -13.0839 C   0  0  0  0  0  0  0  0  0  0  0  0
   19.0063  -21.7454  -13.0208 O   0  0  0  0  0  0  0  0  0  0  0  0
   23.3876  -20.4365  -12.4062 C   0  0  0  0  0  0  0  0  0  0  0  0
   23.2972  -19.1828  -12.4122 O   0  0  0  0  0  0  0  0  0  0  0  0
   20.2522  -23.6245  -12.9327 O   0  0  0  0  0  0  0  0  0  0  0  0
   28.2789  -21.7772  -10.5831 C   0  0  0  0  0  0  0  0  0  0  0  0
   27.0164  -21.0008  -11.0012 C   0  0  0  0  0  0  0  0  0  0  0  0
   27.0609  -20.9372  -12.4995 C   0  0  2  0  0  0  0  0  0  0  0  0
   28.3134  -20.1586  -12.8913 C   0  0  0  0  0  0  0  0  0  0  0  0
   25.8481  -20.3224  -13.0408 C   0  0  2  0  0  0  0  0  0  0  0  0
   24.6170  -21.0090  -12.7200 N   0  0  0  0  0  0  0  0  0  0  0  0
   25.8966  -20.2827  -14.5346 C   0  0  0  0  0  0  0  0  0  0  0  0
   25.7585  -21.2695  -15.2871 O   0  0  0  0  0  0  0  0  0  0  0  0
   22.9899  -18.0589  -18.5242 N   0  0  0  0  0  0  0  0  0  0  0  0
   24.1513  -17.5243  -19.1508 C   0  0  0  0  0  0  0  0  0  0  0  0
   24.0461  -17.2007  -20.3786 O   0  0  0  0  0  0  0  0  0  0  0  0
   25.4255  -17.3394  -18.4298 C   0  0  0  0  0  0  0  0  0  0  0  0
   25.4283  -17.7109  -17.0043 C   0  0  0  0  0  0  0  0  0  0  0  0
   26.0642  -19.0023  -16.6759 C   0  0  2  0  0  0  0  0  0  0  0  0
   26.1174  -19.0390  -15.1781 N   0  0  0  0  0  0  0  0  0  0  0  0
   27.4586  -19.1183  -17.0865 C   0  0  0  0  0  0  0  0  0  0  0  0
   28.5066  -18.6378  -16.3285 O   0  0  0  0  0  0  0  0  0  0  0  0
   27.7602  -19.6816  -18.1852 O   0  0  0  0  0  0  0  0  0  0  0  0
  2  3  1  0
  2  1  1  1
  4  8  1  0
  4  3  1  0
  5  4  2  0
  6  2  1  0
  7  6  2  0
  9 10  1  0
 10 11  1  0
 11 13  1  0
 11 12  1  1
 13 14  1  6
 14  6  1  0
 15 13  1  0
 15 23  1  0
 16 15  2  0
 18 17  1  0
 19 18  2  0
 20 18  1  0
 22 21  1  1
 21 20  1  0
 22 24  1  0
 22 23  1  0
 24 25  1  0
 26 24  2  0
M  END
$$$$
