DIQ.pdb
     RDKit          3D

 26 25  0  0  1  0  0  0  0  0999 V2000
   20.7674  -13.3013  -17.8576 N   0  0  0  0  0  0  0  0  0  0  0  0
   21.3251  -12.0270  -18.2665 C   0  0  1  0  0  0  0  0  0  0  0  0
   20.2531  -11.1079  -18.7983 C   0  0  0  0  0  0  0  0  0  0  0  0
   19.6303  -11.6327  -20.0287 C   0  0  0  0  0  0  0  0  0  0  0  0
   20.1449  -12.5916  -20.6567 O   0  0  0  0  0  0  0  0  0  0  0  0
   21.9182  -11.3949  -17.0471 C   0  0  0  0  0  0  0  0  0  0  0  0
   21.4686  -11.6699  -15.9059 O   0  0  0  0  0  0  0  0  0  0  0  0
   18.4583  -11.0970  -20.5454 O   0  0  0  0  0  0  0  0  0  0  0  0
   26.9759  -11.4883  -15.8988 C   0  0  0  0  0  0  0  0  0  0  0  0
   25.4373  -11.4361  -15.8602 C   0  0  0  0  0  0  0  0  0  0  0  0
   25.0806   -9.9842  -15.9858 C   0  0  2  0  0  0  0  0  0  0  0  0
   25.6897   -9.2546  -14.7920 C   0  0  0  0  0  0  0  0  0  0  0  0
   23.6307   -9.7979  -16.0537 C   0  0  2  0  0  0  0  0  0  0  0  0
   22.9734  -10.4918  -17.1383 N   0  0  0  0  0  0  0  0  0  0  0  0
   23.2914   -8.3550  -16.2493 C   0  0  0  0  0  0  0  0  0  0  0  0
   23.7120   -7.6347  -17.1784 O   0  0  0  0  0  0  0  0  0  0  0  0
   17.7794   -5.9030  -16.0446 N   0  0  0  0  0  0  0  0  0  0  0  0
   18.6784   -5.4546  -17.0534 C   0  0  0  0  0  0  0  0  0  0  0  0
   18.1617   -4.9374  -18.0969 O   0  0  0  0  0  0  0  0  0  0  0  0
   20.1433   -5.5681  -16.9156 C   0  0  0  0  0  0  0  0  0  0  0  0
   20.6341   -6.2340  -15.6966 C   0  0  0  0  0  0  0  0  0  0  0  0
   22.1007   -6.2765  -15.5314 C   0  0  2  0  0  0  0  0  0  0  0  0
   22.4256   -7.7248  -15.3203 N   0  0  0  0  0  0  0  0  0  0  0  0
   22.5992   -5.6189  -14.3292 C   0  0  0  0  0  0  0  0  0  0  0  0
   22.8598   -4.2654  -14.2674 O   0  0  0  0  0  0  0  0  0  0  0  0
   22.8146   -6.2905  -13.2718 O   0  0  0  0  0  0  0  0  0  0  0  0
  2  3  1  0
  2  1  1  1
  4  8  1  0
  4  3  1  0
  5  4  2  0
  6  2  1  0
  7  6  2  0
  9 10  1  0
 10 11  1  0
 11 13  1  0
 11 12  1  1
 13 14  1  6
 14  6  1  0
 15 13  1  0
 15 23  1  0
 16 15  2  0
 18 17  1  0
 19 18  2  0
 20 18  1  0
 22 21  1  1
 21 20  1  0
 22 24  1  0
 22 23  1  0
 24 25  1  0
 26 24  2  0
M  END
$$$$
