DIQ.pdb
     RDKit          3D

 26 25  0  0  1  0  0  0  0  0999 V2000
   28.4550  -21.0850  -15.0016 N   0  0  0  0  0  0  0  0  0  0  0  0
   27.8278  -20.1304  -14.1088 C   0  0  1  0  0  0  0  0  0  0  0  0
   27.1095  -19.0514  -14.8813 C   0  0  0  0  0  0  0  0  0  0  0  0
   28.0324  -18.2515  -15.7090 C   0  0  0  0  0  0  0  0  0  0  0  0
   29.1479  -17.8830  -15.2633 O   0  0  0  0  0  0  0  0  0  0  0  0
   26.8142  -20.8810  -13.3042 C   0  0  0  0  0  0  0  0  0  0  0  0
   26.3080  -21.9420  -13.7494 O   0  0  0  0  0  0  0  0  0  0  0  0
   27.7150  -17.8717  -17.0062 O   0  0  0  0  0  0  0  0  0  0  0  0
   27.0354  -20.1865   -7.9994 C   0  0  0  0  0  0  0  0  0  0  0  0
   26.7726  -21.1132   -9.2009 C   0  0  0  0  0  0  0  0  0  0  0  0
   25.4738  -20.6486   -9.7910 C   0  0  2  0  0  0  0  0  0  0  0  0
   24.3463  -21.2741   -8.9748 C   0  0  0  0  0  0  0  0  0  0  0  0
   25.3783  -21.0014  -11.2080 C   0  0  2  0  0  0  0  0  0  0  0  0
   26.4042  -20.4314  -12.0522 N   0  0  0  0  0  0  0  0  0  0  0  0
   24.0851  -20.5231  -11.7862 C   0  0  0  0  0  0  0  0  0  0  0  0
   23.7356  -19.3282  -11.8810 O   0  0  0  0  0  0  0  0  0  0  0  0
   21.7110  -20.8322  -16.7317 N   0  0  0  0  0  0  0  0  0  0  0  0
   20.4717  -21.1613  -16.1129 C   0  0  0  0  0  0  0  0  0  0  0  0
   19.4130  -20.9195  -16.7793 O   0  0  0  0  0  0  0  0  0  0  0  0
   20.3936  -21.7603  -14.7665 C   0  0  0  0  0  0  0  0  0  0  0  0
   21.6706  -21.9249  -14.0507 C   0  0  0  0  0  0  0  0  0  0  0  0
   21.9162  -20.9782  -12.9446 C   0  0  2  0  0  0  0  0  0  0  0  0
   23.1593  -21.4799  -12.2731 N   0  0  0  0  0  0  0  0  0  0  0  0
   20.9084  -20.9954  -11.8908 C   0  0  0  0  0  0  0  0  0  0  0  0
   19.8151  -20.1539  -11.8844 O   0  0  0  0  0  0  0  0  0  0  0  0
   21.0085  -21.8086  -10.9192 O   0  0  0  0  0  0  0  0  0  0  0  0
  2  3  1  0
  2  1  1  6
  4  8  1  0
  4  3  1  0
  5  4  2  0
  6  2  1  0
  7  6  2  0
  9 10  1  0
 10 11  1  0
 11 13  1  0
 11 12  1  1
 13 14  1  6
 14  6  1  0
 15 13  1  0
 15 23  1  0
 16 15  2  0
 18 17  1  0
 19 18  2  0
 20 18  1  0
 22 21  1  6
 21 20  1  0
 22 24  1  0
 22 23  1  0
 24 25  1  0
 26 24  2  0
M  END
$$$$
