DIQ.pdb
     RDKit          3D

 26 25  0  0  1  0  0  0  0  0999 V2000
   28.1423  -21.8131  -16.5953 N   0  0  0  0  0  0  0  0  0  0  0  0
   27.7057  -20.6601  -15.8326 C   0  0  1  0  0  0  0  0  0  0  0  0
   26.9865  -19.6658  -16.7107 C   0  0  0  0  0  0  0  0  0  0  0  0
   27.9051  -18.9714  -17.6331 C   0  0  0  0  0  0  0  0  0  0  0  0
   28.2234  -19.4819  -18.7362 O   0  0  0  0  0  0  0  0  0  0  0  0
   26.7412  -21.1545  -14.8013 C   0  0  0  0  0  0  0  0  0  0  0  0
   25.9225  -22.0661  -15.0817 O   0  0  0  0  0  0  0  0  0  0  0  0
   28.4558  -17.7338  -17.3286 O   0  0  0  0  0  0  0  0  0  0  0  0
   28.7807  -20.8595  -11.3246 C   0  0  0  0  0  0  0  0  0  0  0  0
   27.5496  -21.5876  -10.7537 C   0  0  0  0  0  0  0  0  0  0  0  0
   26.3757  -20.7142  -11.0854 C   0  0  2  0  0  0  0  0  0  0  0  0
   25.3192  -20.9317  -10.0061 C   0  0  0  0  0  0  0  0  0  0  0  0
   25.8558  -21.0088  -12.4212 C   0  0  2  0  0  0  0  0  0  0  0  0
   26.7205  -20.6247  -13.5143 N   0  0  0  0  0  0  0  0  0  0  0  0
   24.5729  -20.2797  -12.6621 C   0  0  0  0  0  0  0  0  0  0  0  0
   24.4309  -19.0396  -12.6294 O   0  0  0  0  0  0  0  0  0  0  0  0
   21.0421  -21.2452  -17.3495 N   0  0  0  0  0  0  0  0  0  0  0  0
   20.2032  -20.4256  -16.5424 C   0  0  0  0  0  0  0  0  0  0  0  0
   19.1147  -20.0221  -17.0674 O   0  0  0  0  0  0  0  0  0  0  0  0
   20.5551  -20.0533  -15.1585 C   0  0  0  0  0  0  0  0  0  0  0  0
   21.8562  -20.5358  -14.6639 C   0  0  0  0  0  0  0  0  0  0  0  0
   22.1394  -20.2785  -13.2379 C   0  0  2  0  0  0  0  0  0  0  0  0
   23.4051  -21.0294  -12.9519 N   0  0  0  0  0  0  0  0  0  0  0  0
   21.1686  -20.8469  -12.3101 C   0  0  0  0  0  0  0  0  0  0  0  0
   20.0899  -20.1369  -11.8245 O   0  0  0  0  0  0  0  0  0  0  0  0
   21.2892  -22.0470  -11.9093 O   0  0  0  0  0  0  0  0  0  0  0  0
  2  3  1  0
  2  1  1  6
  4  8  1  0
  4  3  1  0
  5  4  2  0
  6  2  1  0
  7  6  2  0
  9 10  1  0
 10 11  1  0
 11 13  1  0
 11 12  1  1
 13 14  1  6
 14  6  1  0
 15 13  1  0
 15 23  1  0
 16 15  2  0
 18 17  1  0
 19 18  2  0
 20 18  1  0
 22 21  1  6
 21 20  1  0
 22 24  1  0
 22 23  1  0
 24 25  1  0
 26 24  2  0
M  END
$$$$
