MRP.pdb
     RDKit          3D

 27 27  0  0  1  0  0  0  0  0999 V2000
    8.4564  -11.6498   19.0760 C   0  0  0  0  0  0  0  0  0  0  0  0
    7.2061  -12.9182   19.2570 S   0  0  0  0  0  0  0  0  0  0  0  0
    7.6739  -14.2728   20.3277 C   0  0  0  0  0  0  0  0  0  0  0  0
    9.1262  -14.5787   20.3828 C   0  0  0  0  0  0  0  0  0  0  0  0
    9.5262  -15.7032   21.2865 C   0  0  2  0  0  0  0  0  0  0  0  0
    8.8328  -16.9202   20.9470 N   0  0  0  0  0  0  0  0  0  0  0  0
    9.2528  -15.3275   22.7213 C   0  0  0  0  0  0  0  0  0  0  0  0
    9.8642  -14.3078   23.1272 O   0  0  0  0  0  0  0  0  0  0  0  0
    8.4746  -21.0583   24.9005 N   0  0  0  0  0  0  0  0  0  0  0  0
    7.9294  -20.6757   26.1575 C   0  0  0  0  0  0  0  0  0  0  0  0
    8.5217  -20.9842   27.2806 N   0  0  0  0  0  0  0  0  0  0  0  0
    6.7132  -19.9417   26.1741 N   0  0  0  0  0  0  0  0  0  0  0  0
    6.8060  -18.4970   26.4428 C   0  0  0  0  0  0  0  0  0  0  0  0
    6.9228  -17.8357   25.0931 C   0  0  0  0  0  0  0  0  0  0  0  0
    6.7210  -16.3609   25.2212 C   0  0  0  0  0  0  0  0  0  0  0  0
    7.9731  -15.6204   24.8392 C   0  0  2  0  0  0  0  0  0  0  0  0
    8.3690  -16.0927   23.5108 N   0  0  0  0  0  0  0  0  0  0  0  0
    9.1121  -15.9829   25.7358 C   0  0  0  0  0  0  0  0  0  0  0  0
    9.8753  -16.9648   25.4376 O   0  0  0  0  0  0  0  0  0  0  0  0
    8.1459  -20.5691   28.1576 N   0  0  0  0  0  0  0  0  0  0  0  0
    9.3924  -15.2679   26.9296 C   0  0  0  0  0  0  0  0  0  0  0  0
    8.7038  -14.0664   27.3453 C   0  0  0  0  0  0  0  0  0  0  0  0
    9.7145  -13.3702   28.2606 C   0  0  0  0  0  0  0  0  0  0  0  0
   10.2242  -14.5958   29.0075 C   0  0  2  0  0  0  0  0  0  0  0  0
   10.3995  -15.5926   27.9059 C   0  0  0  0  0  0  0  0  0  0  0  0
   10.2611  -16.9958   28.3925 O   0  0  0  0  0  0  0  0  0  0  0  0
    9.2955  -17.6527   27.9640 O   0  0  0  0  0  0  0  0  0  0  0  0
  2  1  1  0
  3  2  1  0
  3  4  1  0
  4  5  1  0
  5  6  1  6
  7  8  2  0
  7  5  1  0
 10  9  1  0
 10 12  1  0
 11 10  2  0
 13 12  1  0
 13 14  1  0
 14 15  1  0
 16 15  1  1
 16 17  1  0
 17  7  1  0
 18 19  2  0
 18 16  1  0
 20 18  1  0
 21 20  1  0
 22 23  1  0
 22 21  1  0
 23 24  1  0
 24 20  1  0
 24 25  1  1
 25 27  1  0
 26 25  2  0
M  END
$$$$
