MRP.pdb
     RDKit          3D

 27 27  0  0  1  0  0  0  0  0999 V2000
    4.9350  -10.9285   27.4485 C   0  0  0  0  0  0  0  0  0  0  0  0
    6.5423  -11.6597   27.7432 S   0  0  0  0  0  0  0  0  0  0  0  0
    7.1815  -12.6205   26.3764 C   0  0  0  0  0  0  0  0  0  0  0  0
    6.4162  -13.8474   26.0376 C   0  0  0  0  0  0  0  0  0  0  0  0
    7.2108  -15.1132   25.9497 C   0  0  2  0  0  0  0  0  0  0  0  0
    8.5551  -14.9226   26.4331 N   0  0  0  0  0  0  0  0  0  0  0  0
    7.2317  -15.6052   24.5241 C   0  0  0  0  0  0  0  0  0  0  0  0
    6.1615  -16.1324   24.1304 O   0  0  0  0  0  0  0  0  0  0  0  0
    8.6549  -14.3443   15.2992 N   0  0  0  0  0  0  0  0  0  0  0  0
    8.5783  -13.8152   16.6174 C   0  0  0  0  0  0  0  0  0  0  0  0
    8.4642  -12.5314   16.8320 N   0  0  0  0  0  0  0  0  0  0  0  0
    8.6282  -14.7170   17.7140 N   0  0  0  0  0  0  0  0  0  0  0  0
    8.5012  -14.1397   19.0626 C   0  0  0  0  0  0  0  0  0  0  0  0
    8.4211  -15.3137   20.0051 C   0  0  0  0  0  0  0  0  0  0  0  0
    8.4238  -14.8398   21.4220 C   0  0  0  0  0  0  0  0  0  0  0  0
    8.4185  -16.0071   22.3703 C   0  0  2  0  0  0  0  0  0  0  0  0
    8.3884  -15.4626   23.7294 N   0  0  0  0  0  0  0  0  0  0  0  0
    9.6962  -16.7776   22.2887 C   0  0  0  0  0  0  0  0  0  0  0  0
   10.7670  -16.2990   22.7985 O   0  0  0  0  0  0  0  0  0  0  0  0
    8.4753  -12.2012   17.8187 N   0  0  0  0  0  0  0  0  0  0  0  0
    9.7752  -18.0470   21.6584 C   0  0  0  0  0  0  0  0  0  0  0  0
    8.6338  -18.8017   21.1912 C   0  0  0  0  0  0  0  0  0  0  0  0
    9.1324  -20.2492   21.1961 C   0  0  0  0  0  0  0  0  0  0  0  0
   10.5284  -20.0089   20.6364 C   0  0  2  0  0  0  0  0  0  0  0  0
   10.9742  -18.7993   21.3951 C   0  0  0  0  0  0  0  0  0  0  0  0
   11.9712  -17.9946   20.6312 O   0  0  0  0  0  0  0  0  0  0  0  0
   11.5275  -17.1553   19.8274 O   0  0  0  0  0  0  0  0  0  0  0  0
  2  1  1  0
  3  2  1  0
  3  4  1  0
  4  5  1  0
  5  6  1  6
  7  8  2  0
  7  5  1  0
 10  9  1  0
 10 12  1  0
 11 10  2  0
 13 12  1  0
 13 14  1  0
 14 15  1  0
 16 15  1  6
 16 17  1  0
 17  7  1  0
 18 19  2  0
 18 16  1  0
 20 18  1  0
 21 20  1  0
 22 23  1  0
 22 21  1  0
 23 24  1  0
 24 20  1  0
 24 25  1  6
 25 27  1  0
 26 25  2  0
M  END
$$$$
