MRP.pdb
     RDKit          3D

 27 27  0  0  1  0  0  0  0  0999 V2000
   10.1626  -12.9023   28.3156 C   0  0  0  0  0  0  0  0  0  0  0  0
   10.3831  -14.2688   29.4509 S   0  0  0  0  0  0  0  0  0  0  0  0
    9.5381  -15.7719   28.9748 C   0  0  0  0  0  0  0  0  0  0  0  0
    9.4519  -16.0278   27.5144 C   0  0  0  0  0  0  0  0  0  0  0  0
    8.6080  -17.1932   27.1010 C   0  0  2  0  0  0  0  0  0  0  0  0
    8.9148  -18.3653   27.8815 N   0  0  0  0  0  0  0  0  0  0  0  0
    8.8092  -17.4743   25.6329 C   0  0  0  0  0  0  0  0  0  0  0  0
    9.4366  -18.5323   25.3776 O   0  0  0  0  0  0  0  0  0  0  0  0
    7.3634  -12.7116   18.4251 N   0  0  0  0  0  0  0  0  0  0  0  0
    7.9824  -12.6835   19.7055 C   0  0  0  0  0  0  0  0  0  0  0  0
    8.3073  -11.5567   20.2818 N   0  0  0  0  0  0  0  0  0  0  0  0
    8.2459  -13.9172   20.3587 N   0  0  0  0  0  0  0  0  0  0  0  0
    7.2433  -14.9845   20.2046 C   0  0  0  0  0  0  0  0  0  0  0  0
    7.7678  -16.1567   20.9944 C   0  0  0  0  0  0  0  0  0  0  0  0
    7.7208  -15.8564   22.4573 C   0  0  0  0  0  0  0  0  0  0  0  0
    8.5068  -16.8778   23.2325 C   0  0  2  0  0  0  0  0  0  0  0  0
    8.3122  -16.5876   24.6547 N   0  0  0  0  0  0  0  0  0  0  0  0
    9.9748  -16.7217   23.0015 C   0  0  0  0  0  0  0  0  0  0  0  0
   10.5935  -15.7065   23.4729 O   0  0  0  0  0  0  0  0  0  0  0  0
    8.8543  -11.6035   21.1657 N   0  0  0  0  0  0  0  0  0  0  0  0
   10.7305  -17.6730   22.2674 C   0  0  0  0  0  0  0  0  0  0  0  0
   10.2118  -18.9326   21.7825 C   0  0  0  0  0  0  0  0  0  0  0  0
   11.4599  -19.8096   21.6514 C   0  0  0  0  0  0  0  0  0  0  0  0
   12.4049  -18.7706   21.0623 C   0  0  2  0  0  0  0  0  0  0  0  0
   12.1183  -17.5649   21.9000 C   0  0  0  0  0  0  0  0  0  0  0  0
   12.3957  -16.2951   21.1682 O   0  0  0  0  0  0  0  0  0  0  0  0
   11.4484  -15.7773   20.5502 O   0  0  0  0  0  0  0  0  0  0  0  0
  2  1  1  0
  3  2  1  0
  3  4  1  0
  4  5  1  0
  5  6  1  1
  7  8  2  0
  7  5  1  0
 10  9  1  0
 10 12  1  0
 11 10  2  0
 13 12  1  0
 13 14  1  0
 14 15  1  0
 16 15  1  6
 16 17  1  0
 17  7  1  0
 18 19  2  0
 18 16  1  0
 20 18  1  0
 21 20  1  0
 22 23  1  0
 22 21  1  0
 23 24  1  0
 24 20  1  0
 24 25  1  6
 25 27  1  0
 26 25  2  0
M  END
$$$$
