MRP.pdb
     RDKit          3D

 27 27  0  0  1  0  0  0  0  0999 V2000
    8.0330  -11.1394   19.1951 C   0  0  0  0  0  0  0  0  0  0  0  0
    9.1969  -12.2641   18.4300 S   0  0  0  0  0  0  0  0  0  0  0  0
    8.9447  -13.9862   18.8434 C   0  0  0  0  0  0  0  0  0  0  0  0
    7.9894  -14.2502   19.9495 C   0  0  0  0  0  0  0  0  0  0  0  0
    7.7987  -15.6873   20.3229 C   0  0  2  0  0  0  0  0  0  0  0  0
    6.9981  -16.3808   19.3456 N   0  0  0  0  0  0  0  0  0  0  0  0
    7.1588  -15.7805   21.6855 C   0  0  0  0  0  0  0  0  0  0  0  0
    5.9131  -15.6177   21.6975 O   0  0  0  0  0  0  0  0  0  0  0  0
    7.2706  -21.6135   27.6201 N   0  0  0  0  0  0  0  0  0  0  0  0
    7.8260  -20.4614   28.2428 C   0  0  0  0  0  0  0  0  0  0  0  0
    8.4432  -20.5376   29.3919 N   0  0  0  0  0  0  0  0  0  0  0  0
    7.6981  -19.2078   27.5868 N   0  0  0  0  0  0  0  0  0  0  0  0
    6.8642  -19.1682   26.3739 C   0  0  0  0  0  0  0  0  0  0  0  0
    6.8140  -17.7200   25.9581 C   0  0  0  0  0  0  0  0  0  0  0  0
    7.3380  -17.5632   24.5678 C   0  0  0  0  0  0  0  0  0  0  0  0
    7.3054  -16.1189   24.1498 C   0  0  2  0  0  0  0  0  0  0  0  0
    7.9398  -16.0334   22.8327 N   0  0  0  0  0  0  0  0  0  0  0  0
    8.1544  -15.2761   25.0453 C   0  0  0  0  0  0  0  0  0  0  0  0
    9.4068  -15.5126   25.1501 O   0  0  0  0  0  0  0  0  0  0  0  0
    8.8468  -19.6628   29.7851 N   0  0  0  0  0  0  0  0  0  0  0  0
    7.6205  -14.1988   25.7999 C   0  0  0  0  0  0  0  0  0  0  0  0
    6.2740  -13.6906   25.6620 C   0  0  0  0  0  0  0  0  0  0  0  0
    6.3812  -12.2466   26.1596 C   0  0  0  0  0  0  0  0  0  0  0  0
    7.2914  -12.4875   27.3568 C   0  0  2  0  0  0  0  0  0  0  0  0
    8.3129  -13.4273   26.7991 C   0  0  0  0  0  0  0  0  0  0  0  0
    8.9066  -14.2997   27.8533 O   0  0  0  0  0  0  0  0  0  0  0  0
    8.5451  -15.4897   27.8755 O   0  0  0  0  0  0  0  0  0  0  0  0
  2  1  1  0
  3  2  1  0
  3  4  1  0
  4  5  1  0
  5  6  1  6
  7  8  2  0
  7  5  1  0
 10  9  1  0
 10 12  1  0
 11 10  2  0
 13 12  1  0
 13 14  1  0
 14 15  1  0
 16 15  1  1
 16 17  1  0
 17  7  1  0
 18 19  2  0
 18 16  1  0
 20 18  1  0
 21 20  1  0
 22 23  1  0
 22 21  1  0
 23 24  1  0
 24 20  1  0
 24 25  1  1
 25 27  1  0
 26 25  2  0
M  END
$$$$
