MRP.pdb
     RDKit          3D

 27 27  0  0  1  0  0  0  0  0999 V2000
    8.9528  -11.4681   19.6231 C   0  0  0  0  0  0  0  0  0  0  0  0
    8.7537  -12.5822   18.2360 S   0  0  0  0  0  0  0  0  0  0  0  0
    8.2064  -14.2267   18.6787 C   0  0  0  0  0  0  0  0  0  0  0  0
    7.9238  -14.4456   20.1202 C   0  0  0  0  0  0  0  0  0  0  0  0
    7.6021  -15.8521   20.5197 C   0  0  2  0  0  0  0  0  0  0  0  0
    6.7077  -16.4734   19.5757 N   0  0  0  0  0  0  0  0  0  0  0  0
    6.9970  -15.8650   21.9012 C   0  0  0  0  0  0  0  0  0  0  0  0
    5.7769  -15.5691   21.9473 O   0  0  0  0  0  0  0  0  0  0  0  0
    7.7002  -21.8241   27.1425 N   0  0  0  0  0  0  0  0  0  0  0  0
    8.2346  -20.6927   27.8192 C   0  0  0  0  0  0  0  0  0  0  0  0
    8.9755  -20.8236   28.8874 N   0  0  0  0  0  0  0  0  0  0  0  0
    7.9467  -19.3987   27.3085 N   0  0  0  0  0  0  0  0  0  0  0  0
    6.6429  -19.2129   26.6499 C   0  0  0  0  0  0  0  0  0  0  0  0
    6.6149  -17.7762   26.1942 C   0  0  0  0  0  0  0  0  0  0  0  0
    7.2164  -17.6545   24.8320 C   0  0  0  0  0  0  0  0  0  0  0  0
    7.1732  -16.2270   24.3602 C   0  0  2  0  0  0  0  0  0  0  0  0
    7.7804  -16.1913   23.0280 N   0  0  0  0  0  0  0  0  0  0  0  0
    8.0390  -15.3502   25.2054 C   0  0  0  0  0  0  0  0  0  0  0  0
    9.3055  -15.5269   25.2244 O   0  0  0  0  0  0  0  0  0  0  0  0
    9.3380  -19.9574   29.3359 N   0  0  0  0  0  0  0  0  0  0  0  0
    7.5062  -14.3048   26.0041 C   0  0  0  0  0  0  0  0  0  0  0  0
    6.1031  -13.9626   26.0755 C   0  0  0  0  0  0  0  0  0  0  0  0
    6.1121  -12.4926   26.5033 C   0  0  0  0  0  0  0  0  0  0  0  0
    7.2254  -12.5660   27.5400 C   0  0  2  0  0  0  0  0  0  0  0  0
    8.2508  -13.4090   26.8502 C   0  0  0  0  0  0  0  0  0  0  0  0
    9.1083  -14.1526   27.8181 O   0  0  0  0  0  0  0  0  0  0  0  0
    9.9336  -13.4897   28.4713 O   0  0  0  0  0  0  0  0  0  0  0  0
  2  1  1  0
  3  2  1  0
  3  4  1  0
  4  5  1  0
  5  6  1  6
  7  8  2  0
  7  5  1  0
 10  9  1  0
 10 12  1  0
 11 10  2  0
 13 12  1  0
 13 14  1  0
 14 15  1  0
 16 15  1  1
 16 17  1  0
 17  7  1  0
 18 19  2  0
 18 16  1  0
 20 18  1  0
 21 20  1  0
 22 23  1  0
 22 21  1  0
 23 24  1  0
 24 20  1  0
 24 25  1  1
 25 27  1  0
 26 25  2  0
M  END
$$$$
