MRP.pdb
     RDKit          3D

 27 27  0  0  1  0  0  0  0  0999 V2000
   10.0998  -13.1307   28.6988 C   0  0  0  0  0  0  0  0  0  0  0  0
   10.4364  -14.7364   29.4154 S   0  0  0  0  0  0  0  0  0  0  0  0
    9.6141  -16.0994   28.5994 C   0  0  0  0  0  0  0  0  0  0  0  0
    9.1851  -15.8485   27.1998 C   0  0  0  0  0  0  0  0  0  0  0  0
    8.0333  -16.6695   26.7092 C   0  0  2  0  0  0  0  0  0  0  0  0
    8.0476  -17.9899   27.2866 N   0  0  0  0  0  0  0  0  0  0  0  0
    8.0719  -16.7556   25.2040 C   0  0  0  0  0  0  0  0  0  0  0  0
    8.1761  -17.9195   24.7429 O   0  0  0  0  0  0  0  0  0  0  0  0
    7.9503  -13.5244   16.6119 N   0  0  0  0  0  0  0  0  0  0  0  0
    8.3376  -13.4542   17.9788 C   0  0  0  0  0  0  0  0  0  0  0  0
    8.7079  -12.3270   18.5262 N   0  0  0  0  0  0  0  0  0  0  0  0
    8.3152  -14.6457   18.7521 N   0  0  0  0  0  0  0  0  0  0  0  0
    8.6809  -14.5290   20.1737 C   0  0  0  0  0  0  0  0  0  0  0  0
    7.3773  -14.4655   20.9283 C   0  0  0  0  0  0  0  0  0  0  0  0
    7.6348  -14.3587   22.3961 C   0  0  0  0  0  0  0  0  0  0  0  0
    8.0738  -15.6846   22.9541 C   0  0  2  0  0  0  0  0  0  0  0  0
    7.9934  -15.5900   24.4133 N   0  0  0  0  0  0  0  0  0  0  0  0
    9.5155  -15.9458   22.6606 C   0  0  0  0  0  0  0  0  0  0  0  0
   10.4210  -15.2240   23.2033 O   0  0  0  0  0  0  0  0  0  0  0  0
    9.0212  -12.3489   19.5182 N   0  0  0  0  0  0  0  0  0  0  0  0
    9.9339  -16.9846   21.7884 C   0  0  0  0  0  0  0  0  0  0  0  0
    9.0435  -17.9362   21.1622 C   0  0  0  0  0  0  0  0  0  0  0  0
    9.9443  -19.1421   20.8823 C   0  0  0  0  0  0  0  0  0  0  0  0
   11.1810  -18.3937   20.4027 C   0  0  2  0  0  0  0  0  0  0  0  0
   11.2872  -17.2803   21.3962 C   0  0  0  0  0  0  0  0  0  0  0  0
   11.9681  -16.0824   20.8248 O   0  0  0  0  0  0  0  0  0  0  0  0
   11.2428  -15.1829   20.3642 O   0  0  0  0  0  0  0  0  0  0  0  0
  2  1  1  0
  3  2  1  0
  3  4  1  0
  4  5  1  0
  5  6  1  1
  7  8  2  0
  7  5  1  0
 10  9  1  0
 10 12  1  0
 11 10  2  0
 13 12  1  0
 13 14  1  0
 14 15  1  0
 16 15  1  6
 16 17  1  0
 17  7  1  0
 18 19  2  0
 18 16  1  0
 20 18  1  0
 21 20  1  0
 22 23  1  0
 22 21  1  0
 23 24  1  0
 24 20  1  0
 24 25  1  6
 25 27  1  0
 26 25  2  0
M  END
$$$$
