MRP.pdb
     RDKit          3D

 27 27  0  0  1  0  0  0  0  0999 V2000
    8.6987  -11.6400   19.8998 C   0  0  0  0  0  0  0  0  0  0  0  0
    8.0602  -12.7322   18.6332 S   0  0  0  0  0  0  0  0  0  0  0  0
    7.5874  -14.3539   19.2222 C   0  0  0  0  0  0  0  0  0  0  0  0
    8.6183  -15.0803   20.0067 C   0  0  0  0  0  0  0  0  0  0  0  0
    8.1814  -16.3699   20.6290 C   0  0  2  0  0  0  0  0  0  0  0  0
    7.4682  -17.1923   19.6844 N   0  0  0  0  0  0  0  0  0  0  0  0
    7.3196  -16.0893   21.8345 C   0  0  0  0  0  0  0  0  0  0  0  0
    6.0870  -16.2512   21.6532 O   0  0  0  0  0  0  0  0  0  0  0  0
    6.6457  -21.5543   26.4022 N   0  0  0  0  0  0  0  0  0  0  0  0
    7.9726  -21.2088   26.0233 C   0  0  0  0  0  0  0  0  0  0  0  0
    8.9669  -22.0410   26.1844 N   0  0  0  0  0  0  0  0  0  0  0  0
    8.2042  -19.9261   25.4581 N   0  0  0  0  0  0  0  0  0  0  0  0
    7.0586  -19.0030   25.3993 C   0  0  0  0  0  0  0  0  0  0  0  0
    7.6040  -17.7070   24.8555 C   0  0  0  0  0  0  0  0  0  0  0  0
    6.5038  -16.7082   24.7000 C   0  0  0  0  0  0  0  0  0  0  0  0
    7.0476  -15.3937   24.2117 C   0  0  2  0  0  0  0  0  0  0  0  0
    7.8978  -15.6785   23.0538 N   0  0  0  0  0  0  0  0  0  0  0  0
    7.9600  -14.7760   25.2211 C   0  0  0  0  0  0  0  0  0  0  0  0
    9.1280  -15.2611   25.4111 O   0  0  0  0  0  0  0  0  0  0  0  0
    9.9085  -21.7413   25.8583 N   0  0  0  0  0  0  0  0  0  0  0  0
    7.5801  -13.6477   25.9940 C   0  0  0  0  0  0  0  0  0  0  0  0
    6.3305  -12.9357   25.8441 C   0  0  0  0  0  0  0  0  0  0  0  0
    6.6459  -11.5375   26.3822 C   0  0  0  0  0  0  0  0  0  0  0  0
    7.4809  -11.9432   27.5896 C   0  0  2  0  0  0  0  0  0  0  0  0
    8.3591  -13.0152   27.0264 C   0  0  0  0  0  0  0  0  0  0  0  0
    8.7883  -13.9929   28.0679 O   0  0  0  0  0  0  0  0  0  0  0  0
    8.2512  -15.1148   28.0492 O   0  0  0  0  0  0  0  0  0  0  0  0
  2  1  1  0
  3  2  1  0
  3  4  1  0
  4  5  1  0
  5  6  1  6
  7  8  2  0
  7  5  1  0
 10  9  1  0
 10 12  1  0
 11 10  2  0
 13 12  1  0
 13 14  1  0
 14 15  1  0
 16 15  1  1
 16 17  1  0
 17  7  1  0
 18 19  2  0
 18 16  1  0
 20 18  1  0
 21 20  1  0
 22 23  1  0
 22 21  1  0
 23 24  1  0
 24 20  1  0
 24 25  1  1
 25 27  1  0
 26 25  2  0
M  END
$$$$
