MRP.pdb
     RDKit          3D

 27 27  0  0  1  0  0  0  0  0999 V2000
    9.9716  -12.8577   29.0288 C   0  0  0  0  0  0  0  0  0  0  0  0
   10.7438  -14.3585   29.6255 S   0  0  0  0  0  0  0  0  0  0  0  0
    9.9316  -15.8662   29.1084 C   0  0  0  0  0  0  0  0  0  0  0  0
    9.8614  -16.0900   27.6419 C   0  0  0  0  0  0  0  0  0  0  0  0
    9.0944  -17.2967   27.1981 C   0  0  2  0  0  0  0  0  0  0  0  0
    9.6500  -18.5045   27.7545 N   0  0  0  0  0  0  0  0  0  0  0  0
    9.0845  -17.3702   25.6917 C   0  0  0  0  0  0  0  0  0  0  0  0
    9.4257  -18.4807   25.2137 O   0  0  0  0  0  0  0  0  0  0  0  0
    7.6391  -13.2518   17.2390 N   0  0  0  0  0  0  0  0  0  0  0  0
    7.7574  -13.0963   18.6481 C   0  0  0  0  0  0  0  0  0  0  0  0
    8.4268  -12.1036   19.1712 N   0  0  0  0  0  0  0  0  0  0  0  0
    7.1270  -14.0504   19.4910 N   0  0  0  0  0  0  0  0  0  0  0  0
    7.2790  -13.8650   20.9438 C   0  0  0  0  0  0  0  0  0  0  0  0
    7.9380  -15.1226   21.4507 C   0  0  0  0  0  0  0  0  0  0  0  0
    8.0018  -15.1068   22.9433 C   0  0  0  0  0  0  0  0  0  0  0  0
    8.6895  -16.3419   23.4566 C   0  0  2  0  0  0  0  0  0  0  0  0
    8.7124  -16.2508   24.9181 N   0  0  0  0  0  0  0  0  0  0  0  0
   10.1261  -16.3725   23.0467 C   0  0  0  0  0  0  0  0  0  0  0  0
   10.9598  -15.5568   23.5711 O   0  0  0  0  0  0  0  0  0  0  0  0
    8.4941  -12.0566   20.2085 N   0  0  0  0  0  0  0  0  0  0  0  0
   10.6178  -17.2893   22.0810 C   0  0  0  0  0  0  0  0  0  0  0  0
    9.7927  -18.2103   21.3316 C   0  0  0  0  0  0  0  0  0  0  0  0
   10.7610  -19.3333   20.9505 C   0  0  0  0  0  0  0  0  0  0  0  0
   11.9681  -18.4777   20.5892 C   0  0  2  0  0  0  0  0  0  0  0  0
   11.9934  -17.4743   21.6984 C   0  0  0  0  0  0  0  0  0  0  0  0
   12.6244  -16.1898   21.2779 O   0  0  0  0  0  0  0  0  0  0  0  0
   11.8625  -15.2424   21.0146 O   0  0  0  0  0  0  0  0  0  0  0  0
  2  1  1  0
  3  2  1  0
  3  4  1  0
  4  5  1  0
  5  6  1  1
  7  8  2  0
  7  5  1  0
 10  9  1  0
 10 12  1  0
 11 10  2  0
 13 12  1  0
 13 14  1  0
 14 15  1  0
 16 15  1  6
 16 17  1  0
 17  7  1  0
 18 19  2  0
 18 16  1  0
 20 18  1  0
 21 20  1  0
 22 23  1  0
 22 21  1  0
 23 24  1  0
 24 20  1  0
 24 25  1  6
 25 27  1  0
 26 25  2  0
M  END
$$$$
