MRP.pdb
     RDKit          3D

 27 27  0  0  1  0  0  0  0  0999 V2000
    9.2210  -11.5280   20.0422 C   0  0  0  0  0  0  0  0  0  0  0  0
    8.4772  -12.4680   18.7125 S   0  0  0  0  0  0  0  0  0  0  0  0
    8.8890  -14.2089   18.7149 C   0  0  0  0  0  0  0  0  0  0  0  0
    9.2242  -14.7899   20.0399 C   0  0  0  0  0  0  0  0  0  0  0  0
    8.5545  -16.0859   20.3766 C   0  0  2  0  0  0  0  0  0  0  0  0
    7.7660  -16.5707   19.2719 N   0  0  0  0  0  0  0  0  0  0  0  0
    7.6902  -15.9115   21.6002 C   0  0  0  0  0  0  0  0  0  0  0  0
    6.4834  -15.6547   21.3636 O   0  0  0  0  0  0  0  0  0  0  0  0
    8.9587  -20.2239   26.4813 N   0  0  0  0  0  0  0  0  0  0  0  0
    8.3484  -19.7766   27.6859 C   0  0  0  0  0  0  0  0  0  0  0  0
    8.8147  -20.1226   28.8564 N   0  0  0  0  0  0  0  0  0  0  0  0
    7.2074  -18.9350   27.5963 N   0  0  0  0  0  0  0  0  0  0  0  0
    6.4573  -18.9558   26.3293 C   0  0  0  0  0  0  0  0  0  0  0  0
    6.4817  -17.5388   25.8153 C   0  0  0  0  0  0  0  0  0  0  0  0
    7.2605  -17.4644   24.5424 C   0  0  0  0  0  0  0  0  0  0  0  0
    7.3623  -16.0412   24.0669 C   0  0  2  0  0  0  0  0  0  0  0  0
    8.2389  -16.0368   22.8938 N   0  0  0  0  0  0  0  0  0  0  0  0
    8.0559  -15.1816   25.0733 C   0  0  0  0  0  0  0  0  0  0  0  0
    9.3039  -15.3421   25.3020 O   0  0  0  0  0  0  0  0  0  0  0  0
    8.3275  -19.7575   29.7003 N   0  0  0  0  0  0  0  0  0  0  0  0
    7.3760  -14.1704   25.8014 C   0  0  0  0  0  0  0  0  0  0  0  0
    5.9959  -13.7956   25.5885 C   0  0  0  0  0  0  0  0  0  0  0  0
    5.9313  -12.3536   26.0990 C   0  0  0  0  0  0  0  0  0  0  0  0
    6.7911  -12.5168   27.3455 C   0  0  2  0  0  0  0  0  0  0  0  0
    7.9306  -13.3453   26.8429 C   0  0  0  0  0  0  0  0  0  0  0  0
    8.5466  -14.1665   27.9251 O   0  0  0  0  0  0  0  0  0  0  0  0
    9.2360  -13.5676   28.7697 O   0  0  0  0  0  0  0  0  0  0  0  0
  2  1  1  0
  3  2  1  0
  3  4  1  0
  4  5  1  0
  5  6  1  6
  7  8  2  0
  7  5  1  0
 10  9  1  0
 10 12  1  0
 11 10  2  0
 13 12  1  0
 13 14  1  0
 14 15  1  0
 16 15  1  1
 16 17  1  0
 17  7  1  0
 18 19  2  0
 18 16  1  0
 20 18  1  0
 21 20  1  0
 22 23  1  0
 22 21  1  0
 23 24  1  0
 24 20  1  0
 24 25  1  1
 25 27  1  0
 26 25  2  0
M  END
$$$$
