MRP.pdb
     RDKit          3D

 27 27  0  0  1  0  0  0  0  0999 V2000
    8.7756  -11.4266   19.8457 C   0  0  0  0  0  0  0  0  0  0  0  0
    8.9382  -12.5295   18.4450 S   0  0  0  0  0  0  0  0  0  0  0  0
    8.5916  -14.2463   18.8091 C   0  0  0  0  0  0  0  0  0  0  0  0
    7.7139  -14.4919   19.9817 C   0  0  0  0  0  0  0  0  0  0  0  0
    7.5575  -15.9219   20.3964 C   0  0  2  0  0  0  0  0  0  0  0  0
    6.7234  -16.6473   19.4716 N   0  0  0  0  0  0  0  0  0  0  0  0
    6.9792  -15.9900   21.7877 C   0  0  0  0  0  0  0  0  0  0  0  0
    5.7297  -15.8743   21.8478 O   0  0  0  0  0  0  0  0  0  0  0  0
    9.2448  -20.7296   25.2624 N   0  0  0  0  0  0  0  0  0  0  0  0
    9.2166  -20.3795   26.6409 C   0  0  0  0  0  0  0  0  0  0  0  0
    9.8955  -21.0542   27.5303 N   0  0  0  0  0  0  0  0  0  0  0  0
    8.4278  -19.2683   27.0424 N   0  0  0  0  0  0  0  0  0  0  0  0
    7.0291  -19.2386   26.5833 C   0  0  0  0  0  0  0  0  0  0  0  0
    6.7921  -17.8367   26.0817 C   0  0  0  0  0  0  0  0  0  0  0  0
    7.3730  -17.6719   24.7151 C   0  0  0  0  0  0  0  0  0  0  0  0
    7.2407  -16.2470   24.2523 C   0  0  2  0  0  0  0  0  0  0  0  0
    7.8168  -16.1716   22.9081 N   0  0  0  0  0  0  0  0  0  0  0  0
    8.0740  -15.3272   25.0843 C   0  0  0  0  0  0  0  0  0  0  0  0
    9.3470  -15.4489   25.0950 O   0  0  0  0  0  0  0  0  0  0  0  0
    9.8246  -20.7552   28.5245 N   0  0  0  0  0  0  0  0  0  0  0  0
    7.5024  -14.2996   25.8794 C   0  0  0  0  0  0  0  0  0  0  0  0
    6.1024  -13.9384   25.8680 C   0  0  0  0  0  0  0  0  0  0  0  0
    6.1018  -12.4830   26.3432 C   0  0  0  0  0  0  0  0  0  0  0  0
    7.1418  -12.6063   27.4490 C   0  0  2  0  0  0  0  0  0  0  0  0
    8.2001  -13.4425   26.8022 C   0  0  0  0  0  0  0  0  0  0  0  0
    8.9807  -14.2295   27.8004 O   0  0  0  0  0  0  0  0  0  0  0  0
    9.7533  -13.5976   28.5429 O   0  0  0  0  0  0  0  0  0  0  0  0
  2  1  1  0
  3  2  1  0
  3  4  1  0
  4  5  1  0
  5  6  1  6
  7  8  2  0
  7  5  1  0
 10  9  1  0
 10 12  1  0
 11 10  2  0
 13 12  1  0
 13 14  1  0
 14 15  1  0
 16 15  1  1
 16 17  1  0
 17  7  1  0
 18 19  2  0
 18 16  1  0
 20 18  1  0
 21 20  1  0
 22 23  1  0
 22 21  1  0
 23 24  1  0
 24 20  1  0
 24 25  1  1
 25 27  1  0
 26 25  2  0
M  END
$$$$
