MRP.pdb
     RDKit          3D

 27 27  0  0  1  0  0  0  0  0999 V2000
    6.6167  -12.2815   19.3876 C   0  0  0  0  0  0  0  0  0  0  0  0
    8.3931  -12.4827   19.2929 S   0  0  0  0  0  0  0  0  0  0  0  0
    8.9281  -14.1064   18.7661 C   0  0  0  0  0  0  0  0  0  0  0  0
    8.4003  -15.2469   19.5574 C   0  0  0  0  0  0  0  0  0  0  0  0
    9.2009  -15.6371   20.7608 C   0  0  2  0  0  0  0  0  0  0  0  0
    9.4572  -17.0551   20.7823 N   0  0  0  0  0  0  0  0  0  0  0  0
    8.4760  -15.2168   22.0149 C   0  0  0  0  0  0  0  0  0  0  0  0
    8.4103  -13.9755   22.1974 O   0  0  0  0  0  0  0  0  0  0  0  0
    7.7073  -21.4608   26.3722 N   0  0  0  0  0  0  0  0  0  0  0  0
    7.3072  -20.5653   27.4025 C   0  0  0  0  0  0  0  0  0  0  0  0
    7.4919  -20.8503   28.6642 N   0  0  0  0  0  0  0  0  0  0  0  0
    6.6949  -19.3375   27.0339 N   0  0  0  0  0  0  0  0  0  0  0  0
    6.3838  -19.1455   25.6076 C   0  0  0  0  0  0  0  0  0  0  0  0
    7.2546  -18.0037   25.1483 C   0  0  0  0  0  0  0  0  0  0  0  0
    6.4121  -16.9046   24.5876 C   0  0  0  0  0  0  0  0  0  0  0  0
    7.2729  -15.7600   24.1282 C   0  0  2  0  0  0  0  0  0  0  0  0
    7.9286  -16.1800   22.8880 N   0  0  0  0  0  0  0  0  0  0  0  0
    8.3879  -15.5007   25.0886 C   0  0  0  0  0  0  0  0  0  0  0  0
    9.4389  -16.2289   25.0623 O   0  0  0  0  0  0  0  0  0  0  0  0
    7.2625  -20.1173   29.3662 N   0  0  0  0  0  0  0  0  0  0  0  0
    8.3319  -14.4567   26.0488 C   0  0  0  0  0  0  0  0  0  0  0  0
    7.2469  -13.5082   26.1647 C   0  0  0  0  0  0  0  0  0  0  0  0
    7.8981  -12.2963   26.8365 C   0  0  0  0  0  0  0  0  0  0  0  0
    8.7545  -13.0362   27.8556 C   0  0  2  0  0  0  0  0  0  0  0  0
    9.3291  -14.1521   27.0416 C   0  0  0  0  0  0  0  0  0  0  0  0
    9.6555  -15.3444   27.8765 O   0  0  0  0  0  0  0  0  0  0  0  0
    8.9168  -16.3384   27.7602 O   0  0  0  0  0  0  0  0  0  0  0  0
  2  1  1  0
  3  2  1  0
  3  4  1  0
  4  5  1  0
  5  6  1  1
  7  8  2  0
  7  5  1  0
 10  9  1  0
 10 12  1  0
 11 10  2  0
 13 12  1  0
 13 14  1  0
 14 15  1  0
 16 15  1  1
 16 17  1  0
 17  7  1  0
 18 19  2  0
 18 16  1  0
 20 18  1  0
 21 20  1  0
 22 23  1  0
 22 21  1  0
 23 24  1  0
 24 20  1  0
 24 25  1  1
 25 27  1  0
 26 25  2  0
M  END
$$$$
