MRP.pdb
     RDKit          3D

 27 27  0  0  1  0  0  0  0  0999 V2000
    8.3373  -11.2877   19.3597 C   0  0  0  0  0  0  0  0  0  0  0  0
    7.8602  -12.6400   18.2880 S   0  0  0  0  0  0  0  0  0  0  0  0
    7.9517  -14.2565   19.0488 C   0  0  0  0  0  0  0  0  0  0  0  0
    8.3729  -14.2756   20.4728 C   0  0  0  0  0  0  0  0  0  0  0  0
    8.5281  -15.6292   21.0931 C   0  0  2  0  0  0  0  0  0  0  0  0
    8.0698  -16.6680   20.2055 N   0  0  0  0  0  0  0  0  0  0  0  0
    7.7721  -15.6833   22.3971 C   0  0  0  0  0  0  0  0  0  0  0  0
    6.6845  -15.0546   22.4048 O   0  0  0  0  0  0  0  0  0  0  0  0
    5.9884  -22.5061   24.5932 N   0  0  0  0  0  0  0  0  0  0  0  0
    5.3963  -21.6853   23.5936 C   0  0  0  0  0  0  0  0  0  0  0  0
    4.3067  -22.0477   22.9702 N   0  0  0  0  0  0  0  0  0  0  0  0
    6.0164  -20.4466   23.2784 N   0  0  0  0  0  0  0  0  0  0  0  0
    6.0638  -19.4308   24.3434 C   0  0  0  0  0  0  0  0  0  0  0  0
    7.4175  -18.7777   24.2269 C   0  0  0  0  0  0  0  0  0  0  0  0
    7.6076  -17.7832   25.3256 C   0  0  0  0  0  0  0  0  0  0  0  0
    7.5790  -16.3815   24.7812 C   0  0  2  0  0  0  0  0  0  0  0  0
    8.2859  -16.3989   23.4988 N   0  0  0  0  0  0  0  0  0  0  0  0
    8.3640  -15.4484   25.6449 C   0  0  0  0  0  0  0  0  0  0  0  0
    9.6365  -15.5563   25.7139 O   0  0  0  0  0  0  0  0  0  0  0  0
    4.0087  -21.4856   22.1468 N   0  0  0  0  0  0  0  0  0  0  0  0
    7.7462  -14.4228   26.4074 C   0  0  0  0  0  0  0  0  0  0  0  0
    6.3825  -13.9773   26.2275 C   0  0  0  0  0  0  0  0  0  0  0  0
    6.3963  -12.5461   26.7712 C   0  0  0  0  0  0  0  0  0  0  0  0
    7.2678  -12.7793   27.9983 C   0  0  2  0  0  0  0  0  0  0  0  0
    8.3573  -13.6498   27.4571 C   0  0  0  0  0  0  0  0  0  0  0  0
    8.9507  -14.5246   28.5096 O   0  0  0  0  0  0  0  0  0  0  0  0
    8.6611  -15.7338   28.4726 O   0  0  0  0  0  0  0  0  0  0  0  0
  2  1  1  0
  3  2  1  0
  3  4  1  0
  4  5  1  0
  5  6  1  6
  7  8  2  0
  7  5  1  0
 10  9  1  0
 10 12  1  0
 11 10  2  0
 13 12  1  0
 13 14  1  0
 14 15  1  0
 16 15  1  1
 16 17  1  0
 17  7  1  0
 18 19  2  0
 18 16  1  0
 20 18  1  0
 21 20  1  0
 22 23  1  0
 22 21  1  0
 23 24  1  0
 24 20  1  0
 24 25  1  1
 25 27  1  0
 26 25  2  0
M  END
$$$$
