MRP.pdb
     RDKit          3D

 27 27  0  0  1  0  0  0  0  0999 V2000
    8.4859  -11.4393   19.8978 C   0  0  0  0  0  0  0  0  0  0  0  0
    9.2080  -12.7502   18.9154 S   0  0  0  0  0  0  0  0  0  0  0  0
    8.1453  -14.1694   18.6774 C   0  0  0  0  0  0  0  0  0  0  0  0
    7.3201  -14.5602   19.8487 C   0  0  0  0  0  0  0  0  0  0  0  0
    7.8123  -15.7349   20.6356 C   0  0  2  0  0  0  0  0  0  0  0  0
    7.5319  -16.9749   19.9567 N   0  0  0  0  0  0  0  0  0  0  0  0
    7.1805  -15.7332   22.0051 C   0  0  0  0  0  0  0  0  0  0  0  0
    5.9270  -15.8165   22.0099 O   0  0  0  0  0  0  0  0  0  0  0  0
    7.0699  -22.2636   25.1402 N   0  0  0  0  0  0  0  0  0  0  0  0
    6.0890  -21.7742   24.2336 C   0  0  0  0  0  0  0  0  0  0  0  0
    5.2274  -22.5739   23.6634 N   0  0  0  0  0  0  0  0  0  0  0  0
    6.0594  -20.3818   23.9533 N   0  0  0  0  0  0  0  0  0  0  0  0
    6.9666  -19.5221   24.7317 C   0  0  0  0  0  0  0  0  0  0  0  0
    6.7172  -18.1169   24.2458 C   0  0  0  0  0  0  0  0  0  0  0  0
    7.5934  -17.1538   24.9785 C   0  0  0  0  0  0  0  0  0  0  0  0
    7.3611  -15.7503   24.4903 C   0  0  2  0  0  0  0  0  0  0  0  0
    7.9770  -15.6435   23.1660 N   0  0  0  0  0  0  0  0  0  0  0  0
    8.0855  -14.7549   25.3371 C   0  0  0  0  0  0  0  0  0  0  0  0
    9.3588  -14.6595   25.2668 O   0  0  0  0  0  0  0  0  0  0  0  0
    4.5678  -22.1630   22.9714 N   0  0  0  0  0  0  0  0  0  0  0  0
    7.4072  -13.8892   26.2346 C   0  0  0  0  0  0  0  0  0  0  0  0
    5.9791  -13.6630   26.2322 C   0  0  0  0  0  0  0  0  0  0  0  0
    5.8321  -12.2821   26.8769 C   0  0  0  0  0  0  0  0  0  0  0  0
    6.8649  -12.4392   27.9851 C   0  0  2  0  0  0  0  0  0  0  0  0
    8.0071  -13.0877   27.2693 C   0  0  0  0  0  0  0  0  0  0  0  0
    8.8472  -13.9123   28.1856 O   0  0  0  0  0  0  0  0  0  0  0  0
    8.6718  -15.1436   28.1627 O   0  0  0  0  0  0  0  0  0  0  0  0
  2  1  1  0
  3  2  1  0
  3  4  1  0
  4  5  1  0
  5  6  1  6
  7  8  2  0
  7  5  1  0
 10  9  1  0
 10 12  1  0
 11 10  2  0
 13 12  1  0
 13 14  1  0
 14 15  1  0
 16 15  1  1
 16 17  1  0
 17  7  1  0
 18 19  2  0
 18 16  1  0
 20 18  1  0
 21 20  1  0
 22 23  1  0
 22 21  1  0
 23 24  1  0
 24 20  1  0
 24 25  1  1
 25 27  1  0
 26 25  2  0
M  END
$$$$
