MRP.pdb
     RDKit          3D

 27 27  0  0  1  0  0  0  0  0999 V2000
    7.9876  -10.9608   26.5581 C   0  0  0  0  0  0  0  0  0  0  0  0
    6.8103  -11.7855   27.6253 S   0  0  0  0  0  0  0  0  0  0  0  0
    6.0263  -13.2187   26.8964 C   0  0  0  0  0  0  0  0  0  0  0  0
    6.8607  -13.9953   25.9444 C   0  0  0  0  0  0  0  0  0  0  0  0
    6.1779  -15.1320   25.2494 C   0  0  2  0  0  0  0  0  0  0  0  0
    5.7066  -16.1152   26.1919 N   0  0  0  0  0  0  0  0  0  0  0  0
    7.1220  -15.7663   24.2589 C   0  0  0  0  0  0  0  0  0  0  0  0
    7.4679  -16.9420   24.5356 O   0  0  0  0  0  0  0  0  0  0  0  0
    9.6334  -14.4100   16.2469 N   0  0  0  0  0  0  0  0  0  0  0  0
    8.6597  -14.0035   17.2009 C   0  0  0  0  0  0  0  0  0  0  0  0
    7.8538  -13.0015   16.9690 N   0  0  0  0  0  0  0  0  0  0  0  0
    8.5747  -14.7141   18.4282 N   0  0  0  0  0  0  0  0  0  0  0  0
    7.2293  -14.9271   18.9874 C   0  0  0  0  0  0  0  0  0  0  0  0
    7.2927  -14.4289   20.4088 C   0  0  0  0  0  0  0  0  0  0  0  0
    8.6262  -14.7405   21.0064 C   0  0  0  0  0  0  0  0  0  0  0  0
    8.4776  -15.6819   22.1699 C   0  0  2  0  0  0  0  0  0  0  0  0
    7.5573  -15.0552   23.1211 N   0  0  0  0  0  0  0  0  0  0  0  0
    9.7644  -15.8305   22.9148 C   0  0  0  0  0  0  0  0  0  0  0  0
   10.1864  -14.8814   23.6609 O   0  0  0  0  0  0  0  0  0  0  0  0
    7.1235  -12.7913   17.6797 N   0  0  0  0  0  0  0  0  0  0  0  0
   10.5558  -17.0059   22.8308 C   0  0  0  0  0  0  0  0  0  0  0  0
   10.1087  -18.2546   22.2552 C   0  0  0  0  0  0  0  0  0  0  0  0
   10.9923  -19.3025   22.9372 C   0  0  0  0  0  0  0  0  0  0  0  0
   12.3130  -18.5450   22.8968 C   0  0  2  0  0  0  0  0  0  0  0  0
   11.9044  -17.1662   23.3086 C   0  0  0  0  0  0  0  0  0  0  0  0
   12.8127  -16.1225   22.7511 O   0  0  0  0  0  0  0  0  0  0  0  0
   12.4445  -15.5455   21.7124 O   0  0  0  0  0  0  0  0  0  0  0  0
  2  1  1  0
  3  2  1  0
  3  4  1  0
  4  5  1  0
  5  6  1  1
  7  8  2  0
  7  5  1  0
 10  9  1  0
 10 12  1  0
 11 10  2  0
 13 12  1  0
 13 14  1  0
 14 15  1  0
 16 15  1  6
 16 17  1  0
 17  7  1  0
 18 19  2  0
 18 16  1  0
 20 18  1  0
 21 20  1  0
 22 23  1  0
 22 21  1  0
 23 24  1  0
 24 20  1  0
 24 25  1  6
 25 27  1  0
 26 25  2  0
M  END
$$$$
