MRP.pdb
     RDKit          3D

 27 27  0  0  1  0  0  0  0  0999 V2000
    8.4923  -11.5339   19.4737 C   0  0  0  0  0  0  0  0  0  0  0  0
    8.5740  -12.6043   18.0410 S   0  0  0  0  0  0  0  0  0  0  0  0
    7.8139  -14.2075   18.2692 C   0  0  0  0  0  0  0  0  0  0  0  0
    7.2137  -14.4518   19.6054 C   0  0  0  0  0  0  0  0  0  0  0  0
    8.1785  -14.7041   20.7221 C   0  0  2  0  0  0  0  0  0  0  0  0
    9.0393  -15.8220   20.4282 N   0  0  0  0  0  0  0  0  0  0  0  0
    7.4231  -14.9476   22.0046 C   0  0  0  0  0  0  0  0  0  0  0  0
    6.5411  -14.0932   22.2698 O   0  0  0  0  0  0  0  0  0  0  0  0
    7.0058  -20.0768   29.3983 N   0  0  0  0  0  0  0  0  0  0  0  0
    7.4834  -20.5778   28.1555 C   0  0  0  0  0  0  0  0  0  0  0  0
    8.2540  -21.6313   28.0953 N   0  0  0  0  0  0  0  0  0  0  0  0
    7.1043  -19.9058   26.9627 N   0  0  0  0  0  0  0  0  0  0  0  0
    7.6441  -18.5515   26.7560 C   0  0  0  0  0  0  0  0  0  0  0  0
    6.6266  -17.8295   25.9097 C   0  0  0  0  0  0  0  0  0  0  0  0
    7.1515  -17.6349   24.5244 C   0  0  0  0  0  0  0  0  0  0  0  0
    7.1350  -16.1778   24.1523 C   0  0  2  0  0  0  0  0  0  0  0  0
    7.7186  -16.0646   22.8139 N   0  0  0  0  0  0  0  0  0  0  0  0
    8.0373  -15.3817   25.0382 C   0  0  0  0  0  0  0  0  0  0  0  0
    9.2697  -15.7033   25.1531 O   0  0  0  0  0  0  0  0  0  0  0  0
    8.5665  -21.9510   27.1557 N   0  0  0  0  0  0  0  0  0  0  0  0
    7.5772  -14.2574   25.7725 C   0  0  0  0  0  0  0  0  0  0  0  0
    6.2513  -13.6920   25.6589 C   0  0  0  0  0  0  0  0  0  0  0  0
    6.4397  -12.2395   26.1048 C   0  0  0  0  0  0  0  0  0  0  0  0
    7.3759  -12.4840   27.2809 C   0  0  2  0  0  0  0  0  0  0  0  0
    8.3354  -13.4873   26.7238 C   0  0  0  0  0  0  0  0  0  0  0  0
    8.9226  -14.3522   27.7878 O   0  0  0  0  0  0  0  0  0  0  0  0
    8.4640  -15.5030   27.9014 O   0  0  0  0  0  0  0  0  0  0  0  0
  2  1  1  0
  3  2  1  0
  3  4  1  0
  4  5  1  0
  5  6  1  6
  7  8  2  0
  7  5  1  0
 10  9  1  0
 10 12  1  0
 11 10  2  0
 13 12  1  0
 13 14  1  0
 14 15  1  0
 16 15  1  1
 16 17  1  0
 17  7  1  0
 18 19  2  0
 18 16  1  0
 20 18  1  0
 21 20  1  0
 22 23  1  0
 22 21  1  0
 23 24  1  0
 24 20  1  0
 24 25  1  1
 25 27  1  0
 26 25  2  0
M  END
$$$$
