MRP.pdb
     RDKit          3D

 27 27  0  0  1  0  0  0  0  0999 V2000
    7.8264  -11.7797   26.2094 C   0  0  0  0  0  0  0  0  0  0  0  0
    7.3502  -12.6022   27.7265 S   0  0  0  0  0  0  0  0  0  0  0  0
    6.4831  -14.1490   27.4905 C   0  0  0  0  0  0  0  0  0  0  0  0
    7.2911  -15.2614   26.9288 C   0  0  0  0  0  0  0  0  0  0  0  0
    6.5337  -16.3005   26.1620 C   0  0  2  0  0  0  0  0  0  0  0  0
    6.5409  -17.5675   26.8488 N   0  0  0  0  0  0  0  0  0  0  0  0
    7.1248  -16.4492   24.7824 C   0  0  0  0  0  0  0  0  0  0  0  0
    7.5165  -17.6082   24.4966 O   0  0  0  0  0  0  0  0  0  0  0  0
    6.8748  -13.8684   17.6811 N   0  0  0  0  0  0  0  0  0  0  0  0
    8.2803  -13.7695   17.4856 C   0  0  0  0  0  0  0  0  0  0  0  0
    8.8341  -14.0815   16.3440 N   0  0  0  0  0  0  0  0  0  0  0  0
    9.0854  -13.3194   18.5661 N   0  0  0  0  0  0  0  0  0  0  0  0
    8.4000  -13.0276   19.8362 C   0  0  0  0  0  0  0  0  0  0  0  0
    8.0247  -14.3674   20.4167 C   0  0  0  0  0  0  0  0  0  0  0  0
    7.6055  -14.2136   21.8424 C   0  0  0  0  0  0  0  0  0  0  0  0
    7.8680  -15.4798   22.6106 C   0  0  2  0  0  0  0  0  0  0  0  0
    7.2108  -15.3424   23.9121 N   0  0  0  0  0  0  0  0  0  0  0  0
    9.3211  -15.6328   22.9234 C   0  0  0  0  0  0  0  0  0  0  0  0
    9.8916  -14.8223   23.7316 O   0  0  0  0  0  0  0  0  0  0  0  0
    9.8723  -14.0472   16.2825 N   0  0  0  0  0  0  0  0  0  0  0  0
   10.1135  -16.6627   22.3522 C   0  0  0  0  0  0  0  0  0  0  0  0
    9.5966  -17.7308   21.5262 C   0  0  0  0  0  0  0  0  0  0  0  0
   10.6298  -18.8481   21.6938 C   0  0  0  0  0  0  0  0  0  0  0  0
   11.8925  -17.9984   21.6366 C   0  0  2  0  0  0  0  0  0  0  0  0
   11.5349  -16.8340   22.5048 C   0  0  0  0  0  0  0  0  0  0  0  0
   12.2812  -15.6002   22.1231 O   0  0  0  0  0  0  0  0  0  0  0  0
   11.7961  -14.9010   21.2158 O   0  0  0  0  0  0  0  0  0  0  0  0
  2  1  1  0
  3  2  1  0
  3  4  1  0
  4  5  1  0
  5  6  1  1
  7  8  2  0
  7  5  1  0
 10  9  1  0
 10 12  1  0
 11 10  2  0
 13 12  1  0
 13 14  1  0
 14 15  1  0
 16 15  1  6
 16 17  1  0
 17  7  1  0
 18 19  2  0
 18 16  1  0
 20 18  1  0
 21 20  1  0
 22 23  1  0
 22 21  1  0
 23 24  1  0
 24 20  1  0
 24 25  1  6
 25 27  1  0
 26 25  2  0
M  END
$$$$
