CHM.pdb
     RDKit          3D

 25 25  0  0  1  0  0  0  0  0999 V2000
   23.8669  -13.5729  -17.6059 N   0  0  0  0  0  0  0  0  0  0  0  0
   24.1300  -12.5442  -16.6252 C   0  0  1  0  0  0  0  0  0  0  0  0
   25.5658  -12.1007  -16.6859 C   0  0  0  0  0  0  0  0  0  0  0  0
   26.6873  -13.3610  -16.0282 S   0  0  0  0  0  0  0  0  0  0  0  0
   23.1794  -11.4172  -16.7227 C   0  0  0  0  0  0  0  0  0  0  0  0
   22.8952  -10.9892  -17.8639 O   0  0  0  0  0  0  0  0  0  0  0  0
   22.5736  -10.7950  -15.6101 N   0  0  0  0  0  0  0  0  0  0  0  0
   21.6165   -9.7148  -15.7086 C   0  0  1  0  0  0  0  0  0  0  0  0
   20.4413  -10.0415  -14.8052 C   0  0  0  0  0  0  0  0  0  0  0  0
   19.5597  -11.0741  -15.4065 C   0  0  0  0  0  0  0  0  0  0  0  0
   18.9554  -11.0114  -16.6461 C   0  0  0  0  0  0  0  0  0  0  0  0
   18.2291  -12.1413  -16.8418 N   0  0  0  0  0  0  0  0  0  0  0  0
   18.3667  -12.9092  -15.7505 C   0  0  0  0  0  0  0  0  0  0  0  0
   19.1690  -12.2614  -14.8897 N   0  0  0  0  0  0  0  0  0  0  0  0
   22.1751   -8.4210  -15.2749 C   0  0  0  0  0  0  0  0  0  0  0  0
   22.8925   -8.4023  -14.2423 O   0  0  0  0  0  0  0  0  0  0  0  0
   23.6427   -0.7729  -16.8002 C   0  0  0  0  0  0  0  0  0  0  0  0
   22.7454   -2.2430  -17.3657 S   0  0  0  0  0  0  0  0  0  0  0  0
   23.0309   -3.5645  -16.1896 C   0  0  0  0  0  0  0  0  0  0  0  0
   22.4367   -4.8825  -16.6215 C   0  0  0  0  0  0  0  0  0  0  0  0
   22.5650   -5.9470  -15.5605 C   0  0  2  0  0  0  0  0  0  0  0  0
   21.9602   -7.1879  -15.9429 N   0  0  0  0  0  0  0  0  0  0  0  0
   21.9103   -5.4378  -14.3373 C   0  0  0  0  0  0  0  0  0  0  0  0
   20.6949   -5.6879  -14.1638 O   0  0  0  0  0  0  0  0  0  0  0  0
   22.5556   -4.6951  -13.3593 O   0  0  0  0  0  0  0  0  0  0  0  0
  2  1  1  6
  3  2  1  0
  4  3  1  0
  5  2  1  0
  5  6  2  0
  7  5  1  0
  8  7  1  0
  8  9  1  1
 10  9  1  0
 10 14  1  0
 11 12  1  0
 11 10  2  0
 12 13  1  0
 13 14  2  0
 15  8  1  0
 16 15  2  0
 18 17  1  0
 19 18  1  0
 20 19  1  0
 21 20  1  6
 21 22  1  0
 22 15  1  0
 23 21  1  0
 24 23  2  0
 25 23  1  0
M  END
$$$$
