CHM.pdb
     RDKit          3D

 25 25  0  0  1  0  0  0  0  0999 V2000
   24.5931  -19.5558  -20.7526 N   0  0  0  0  0  0  0  0  0  0  0  0
   23.6369  -19.6828  -19.6762 C   0  0  1  0  0  0  0  0  0  0  0  0
   22.5361  -20.6381  -20.0474 C   0  0  0  0  0  0  0  0  0  0  0  0
   20.9281  -20.0858  -19.4246 S   0  0  0  0  0  0  0  0  0  0  0  0
   24.2792  -20.0235  -18.3899 C   0  0  0  0  0  0  0  0  0  0  0  0
   25.2067  -20.8637  -18.4041 O   0  0  0  0  0  0  0  0  0  0  0  0
   23.9119  -19.4607  -17.1488 N   0  0  0  0  0  0  0  0  0  0  0  0
   24.6216  -19.6977  -15.9108 C   0  0  1  0  0  0  0  0  0  0  0  0
   25.4288  -18.4545  -15.5840 C   0  0  0  0  0  0  0  0  0  0  0  0
   26.7529  -18.4697  -16.2563 C   0  0  0  0  0  0  0  0  0  0  0  0
   27.2503  -19.4769  -17.0586 C   0  0  0  0  0  0  0  0  0  0  0  0
   28.4896  -19.1284  -17.4888 N   0  0  0  0  0  0  0  0  0  0  0  0
   28.7774  -17.9243  -16.9722 C   0  0  0  0  0  0  0  0  0  0  0  0
   27.7280  -17.5327  -16.2309 N   0  0  0  0  0  0  0  0  0  0  0  0
   23.7144  -19.9592  -14.7783 C   0  0  0  0  0  0  0  0  0  0  0  0
   22.7738  -19.1501  -14.5742 O   0  0  0  0  0  0  0  0  0  0  0  0
   27.5514  -20.7884   -9.7324 C   0  0  0  0  0  0  0  0  0  0  0  0
   25.7925  -20.3514   -9.7683 S   0  0  0  0  0  0  0  0  0  0  0  0
   25.0664  -21.0578  -11.2464 C   0  0  0  0  0  0  0  0  0  0  0  0
   23.6566  -20.5838  -11.5004 C   0  0  0  0  0  0  0  0  0  0  0  0
   23.0395  -21.2363  -12.7123 C   0  0  2  0  0  0  0  0  0  0  0  0
   23.8271  -21.0651  -13.8965 N   0  0  0  0  0  0  0  0  0  0  0  0
   21.7080  -20.6285  -12.9158 C   0  0  0  0  0  0  0  0  0  0  0  0
   21.6167  -19.3790  -12.9142 O   0  0  0  0  0  0  0  0  0  0  0  0
   20.5416  -21.3540  -13.1103 O   0  0  0  0  0  0  0  0  0  0  0  0
  2  1  1  6
  3  2  1  0
  4  3  1  0
  5  2  1  0
  5  6  2  0
  7  5  1  0
  8  7  1  0
  8  9  1  1
 10  9  1  0
 10 14  1  0
 11 12  1  0
 11 10  2  0
 12 13  1  0
 13 14  2  0
 15  8  1  0
 16 15  2  0
 18 17  1  0
 19 18  1  0
 20 19  1  0
 21 20  1  1
 21 22  1  0
 22 15  1  0
 23 21  1  0
 24 23  2  0
 25 23  1  0
M  END
$$$$
