CHM.pdb
     RDKit          3D

 25 25  0  0  1  0  0  0  0  0999 V2000
   28.4223  -23.5679  -16.9592 N   0  0  0  0  0  0  0  0  0  0  0  0
   27.3133  -24.4812  -16.8015 C   0  0  1  0  0  0  0  0  0  0  0  0
   26.0621  -23.9159  -17.4155 C   0  0  0  0  0  0  0  0  0  0  0  0
   25.3550  -22.5919  -16.4029 S   0  0  0  0  0  0  0  0  0  0  0  0
   27.6277  -25.8388  -17.2928 C   0  0  0  0  0  0  0  0  0  0  0  0
   28.1852  -25.9421  -18.4085 O   0  0  0  0  0  0  0  0  0  0  0  0
   27.3384  -27.0238  -16.5827 N   0  0  0  0  0  0  0  0  0  0  0  0
   27.6972  -28.3487  -17.0389 C   0  0  1  0  0  0  0  0  0  0  0  0
   27.9947  -29.2032  -15.8201 C   0  0  0  0  0  0  0  0  0  0  0  0
   28.3938  -30.5815  -16.2027 C   0  0  0  0  0  0  0  0  0  0  0  0
   28.4734  -31.0824  -17.4866 C   0  0  0  0  0  0  0  0  0  0  0  0
   28.8725  -32.3786  -17.4316 N   0  0  0  0  0  0  0  0  0  0  0  0
   29.0441  -32.6985  -16.1403 C   0  0  0  0  0  0  0  0  0  0  0  0
   28.7544  -31.6125  -15.4049 N   0  0  0  0  0  0  0  0  0  0  0  0
   26.6125  -29.0010  -17.7953 C   0  0  0  0  0  0  0  0  0  0  0  0
   25.4589  -29.0011  -17.2949 O   0  0  0  0  0  0  0  0  0  0  0  0
   24.0009  -32.2032  -24.5701 C   0  0  0  0  0  0  0  0  0  0  0  0
   25.4433  -31.4907  -23.7348 S   0  0  0  0  0  0  0  0  0  0  0  0
   24.9776  -31.0865  -22.0523 C   0  0  0  0  0  0  0  0  0  0  0  0
   26.1191  -30.5301  -21.2374 C   0  0  0  0  0  0  0  0  0  0  0  0
   25.7046  -30.1802  -19.8299 C   0  0  2  0  0  0  0  0  0  0  0  0
   26.7777  -29.6326  -19.0550 N   0  0  0  0  0  0  0  0  0  0  0  0
   25.2175  -31.4189  -19.1880 C   0  0  0  0  0  0  0  0  0  0  0  0
   24.0193  -31.4708  -18.8256 O   0  0  0  0  0  0  0  0  0  0  0  0
   26.0037  -32.5384  -18.9573 O   0  0  0  0  0  0  0  0  0  0  0  0
  2  1  1  6
  3  2  1  0
  4  3  1  0
  5  2  1  0
  5  6  2  0
  7  5  1  0
  8  7  1  0
  8  9  1  1
 10  9  1  0
 10 14  1  0
 11 12  1  0
 11 10  2  0
 12 13  1  0
 13 14  2  0
 15  8  1  0
 16 15  2  0
 18 17  1  0
 19 18  1  0
 20 19  1  0
 21 20  1  6
 21 22  1  0
 22 15  1  0
 23 21  1  0
 24 23  2  0
 25 23  1  0
M  END
$$$$
