CHM.pdb
     RDKit          3D

 25 25  0  0  1  0  0  0  0  0999 V2000
   26.4823  -18.2889  -15.9595 N   0  0  0  0  0  0  0  0  0  0  0  0
   27.2733  -18.7307  -14.8334 C   0  0  1  0  0  0  0  0  0  0  0  0
   28.1104  -17.6045  -14.2919 C   0  0  0  0  0  0  0  0  0  0  0  0
   27.1060  -16.1519  -13.8926 S   0  0  0  0  0  0  0  0  0  0  0  0
   26.4543  -19.3853  -13.7923 C   0  0  0  0  0  0  0  0  0  0  0  0
   25.3251  -18.9039  -13.5483 O   0  0  0  0  0  0  0  0  0  0  0  0
   26.8663  -20.5178  -13.0577 N   0  0  0  0  0  0  0  0  0  0  0  0
   26.0385  -21.1965  -12.0847 C   0  0  1  0  0  0  0  0  0  0  0  0
   26.1167  -22.6878  -12.3563 C   0  0  0  0  0  0  0  0  0  0  0  0
   25.2268  -23.0872  -13.4760 C   0  0  0  0  0  0  0  0  0  0  0  0
   24.4206  -22.2477  -14.2183 C   0  0  0  0  0  0  0  0  0  0  0  0
   23.7585  -22.9800  -15.1499 N   0  0  0  0  0  0  0  0  0  0  0  0
   24.1338  -24.2597  -15.0055 C   0  0  0  0  0  0  0  0  0  0  0  0
   25.0180  -24.3182  -13.9961 N   0  0  0  0  0  0  0  0  0  0  0  0
   26.4862  -20.9645  -10.6991 C   0  0  0  0  0  0  0  0  0  0  0  0
   27.6897  -20.6531  -10.5102 O   0  0  0  0  0  0  0  0  0  0  0  0
   28.6752  -19.9519   -4.6201 C   0  0  0  0  0  0  0  0  0  0  0  0
   28.5553  -19.2871   -6.3023 S   0  0  0  0  0  0  0  0  0  0  0  0
   26.8313  -18.9450   -6.6515 C   0  0  0  0  0  0  0  0  0  0  0  0
   26.4326  -19.2874   -8.0659 C   0  0  0  0  0  0  0  0  0  0  0  0
   26.0637  -20.7414   -8.2240 C   0  0  2  0  0  0  0  0  0  0  0  0
   25.6515  -21.0680   -9.5564 N   0  0  0  0  0  0  0  0  0  0  0  0
   24.9589  -21.0253   -7.2845 C   0  0  0  0  0  0  0  0  0  0  0  0
   23.7899  -21.0638   -7.7335 O   0  0  0  0  0  0  0  0  0  0  0  0
   25.1295  -21.2542   -5.9269 O   0  0  0  0  0  0  0  0  0  0  0  0
  2  1  1  6
  3  2  1  0
  4  3  1  0
  5  2  1  0
  5  6  2  0
  7  5  1  0
  8  7  1  0
  8  9  1  6
 10  9  1  0
 10 14  1  0
 11 12  1  0
 11 10  2  0
 12 13  1  0
 13 14  2  0
 15  8  1  0
 16 15  2  0
 18 17  1  0
 19 18  1  0
 20 19  1  0
 21 20  1  6
 21 22  1  0
 22 15  1  0
 23 21  1  0
 24 23  2  0
 25 23  1  0
M  END
$$$$
