CHM.pdb
     RDKit          3D

 25 25  0  0  1  0  0  0  0  0999 V2000
   27.3313  -20.2423  -17.3373 N   0  0  0  0  0  0  0  0  0  0  0  0
   27.3784  -21.0887  -16.1666 C   0  0  1  0  0  0  0  0  0  0  0  0
   28.7985  -21.4353  -15.8128 C   0  0  0  0  0  0  0  0  0  0  0  0
   28.8918  -22.4300  -14.3027 S   0  0  0  0  0  0  0  0  0  0  0  0
   26.6293  -20.5173  -15.0284 C   0  0  0  0  0  0  0  0  0  0  0  0
   26.8488  -19.3232  -14.7245 O   0  0  0  0  0  0  0  0  0  0  0  0
   25.6835  -21.2340  -14.2642 N   0  0  0  0  0  0  0  0  0  0  0  0
   24.9317  -20.6658  -13.1669 C   0  0  1  0  0  0  0  0  0  0  0  0
   23.4833  -21.0949  -13.3146 C   0  0  0  0  0  0  0  0  0  0  0  0
   22.7480  -20.2207  -14.2635 C   0  0  0  0  0  0  0  0  0  0  0  0
   23.2660  -19.1392  -14.9473 C   0  0  0  0  0  0  0  0  0  0  0  0
   22.2900  -18.5938  -15.7169 N   0  0  0  0  0  0  0  0  0  0  0  0
   21.1726  -19.3117  -15.5287 C   0  0  0  0  0  0  0  0  0  0  0  0
   21.4544  -20.2900  -14.6525 N   0  0  0  0  0  0  0  0  0  0  0  0
   25.4096  -21.1302  -11.8516 C   0  0  0  0  0  0  0  0  0  0  0  0
   25.7782  -22.3276  -11.7448 O   0  0  0  0  0  0  0  0  0  0  0  0
   28.3054  -19.5865   -4.6841 C   0  0  0  0  0  0  0  0  0  0  0  0
   28.1851  -19.0668   -6.4165 S   0  0  0  0  0  0  0  0  0  0  0  0
   27.1141  -20.2173   -7.2770 C   0  0  0  0  0  0  0  0  0  0  0  0
   26.7794  -19.7801   -8.6818 C   0  0  0  0  0  0  0  0  0  0  0  0
   25.9177  -20.7835   -9.4069 C   0  0  2  0  0  0  0  0  0  0  0  0
   25.4840  -20.3182  -10.6904 N   0  0  0  0  0  0  0  0  0  0  0  0
   24.7384  -21.0537   -8.5582 C   0  0  0  0  0  0  0  0  0  0  0  0
   24.9091  -21.6656   -7.4783 O   0  0  0  0  0  0  0  0  0  0  0  0
   23.4436  -20.6725   -8.8787 O   0  0  0  0  0  0  0  0  0  0  0  0
  2  1  1  6
  3  2  1  0
  4  3  1  0
  5  2  1  0
  5  6  2  0
  7  5  1  0
  8  7  1  0
  8  9  1  6
 10  9  1  0
 10 14  1  0
 11 12  1  0
 11 10  2  0
 12 13  1  0
 13 14  2  0
 15  8  1  0
 16 15  2  0
 18 17  1  0
 19 18  1  0
 20 19  1  0
 21 20  1  1
 21 22  1  0
 22 15  1  0
 23 21  1  0
 24 23  2  0
 25 23  1  0
M  END
$$$$
