CHM.pdb
     RDKit          3D

 25 25  0  0  1  0  0  0  0  0999 V2000
   18.0077  -11.7244  -15.6666 N   0  0  0  0  0  0  0  0  0  0  0  0
   17.2608  -10.5696  -15.2220 C   0  0  1  0  0  0  0  0  0  0  0  0
   15.7839  -10.8537  -15.2235 C   0  0  0  0  0  0  0  0  0  0  0  0
   15.0288  -10.4799  -16.8263 S   0  0  0  0  0  0  0  0  0  0  0  0
   17.7418  -10.0537  -13.9237 C   0  0  0  0  0  0  0  0  0  0  0  0
   17.9439  -10.8794  -13.0052 O   0  0  0  0  0  0  0  0  0  0  0  0
   17.9870   -8.6897  -13.6563 N   0  0  0  0  0  0  0  0  0  0  0  0
   18.4384   -8.1838  -12.3785 C   0  0  1  0  0  0  0  0  0  0  0  0
   19.6277   -7.2733  -12.6247 C   0  0  0  0  0  0  0  0  0  0  0  0
   20.7944   -8.0274  -13.1495 C   0  0  0  0  0  0  0  0  0  0  0  0
   21.3697   -7.8791  -14.3956 C   0  0  0  0  0  0  0  0  0  0  0  0
   22.4121   -8.7413  -14.5068 N   0  0  0  0  0  0  0  0  0  0  0  0
   22.5006   -9.4256  -13.3565 C   0  0  0  0  0  0  0  0  0  0  0  0
   21.5239   -8.9914  -12.5430 N   0  0  0  0  0  0  0  0  0  0  0  0
   17.4032   -7.3981  -11.6820 C   0  0  0  0  0  0  0  0  0  0  0  0
   16.8458   -6.4634  -12.3118 O   0  0  0  0  0  0  0  0  0  0  0  0
   11.7115   -7.1667   -6.2616 C   0  0  0  0  0  0  0  0  0  0  0  0
   13.0901   -8.1373   -6.9273 S   0  0  0  0  0  0  0  0  0  0  0  0
   14.0214   -7.0968   -8.0503 C   0  0  0  0  0  0  0  0  0  0  0  0
   15.1609   -7.8210   -8.7239 C   0  0  0  0  0  0  0  0  0  0  0  0
   15.8899   -6.9498   -9.7164 C   0  0  2  0  0  0  0  0  0  0  0  0
   16.9881   -7.6223  -10.3439 N   0  0  0  0  0  0  0  0  0  0  0  0
   16.3908   -5.7664   -8.9867 C   0  0  0  0  0  0  0  0  0  0  0  0
   15.5619   -4.9111   -8.5981 O   0  0  0  0  0  0  0  0  0  0  0  0
   17.7285   -5.5360   -8.7000 O   0  0  0  0  0  0  0  0  0  0  0  0
  2  1  1  1
  3  2  1  0
  4  3  1  0
  5  2  1  0
  5  6  2  0
  7  5  1  0
  8  7  1  0
  8  9  1  6
 10  9  1  0
 10 14  1  0
 11 12  1  0
 11 10  2  0
 12 13  1  0
 13 14  2  0
 15  8  1  0
 16 15  2  0
 18 17  1  0
 19 18  1  0
 20 19  1  0
 21 20  1  1
 21 22  1  0
 22 15  1  0
 23 21  1  0
 24 23  2  0
 25 23  1  0
M  END
$$$$
