CHM.pdb
     RDKit          3D

 25 25  0  0  1  0  0  0  0  0999 V2000
   25.4122  -14.2694  -17.1091 N   0  0  0  0  0  0  0  0  0  0  0  0
   25.2322  -13.3826  -15.9820 C   0  0  1  0  0  0  0  0  0  0  0  0
   26.5095  -12.6554  -15.6633 C   0  0  0  0  0  0  0  0  0  0  0  0
   27.8199  -13.7927  -15.1459 S   0  0  0  0  0  0  0  0  0  0  0  0
   24.0846  -12.4696  -16.1617 C   0  0  0  0  0  0  0  0  0  0  0  0
   23.8768  -12.0102  -17.3072 O   0  0  0  0  0  0  0  0  0  0  0  0
   23.2100  -12.0844  -15.1230 N   0  0  0  0  0  0  0  0  0  0  0  0
   22.0095  -11.3027  -15.3239 C   0  0  1  0  0  0  0  0  0  0  0  0
   20.9153  -11.8843  -14.4472 C   0  0  0  0  0  0  0  0  0  0  0  0
   20.2270  -13.0195  -15.1125 C   0  0  0  0  0  0  0  0  0  0  0  0
   20.4980  -13.5143  -16.3724 C   0  0  0  0  0  0  0  0  0  0  0  0
   19.6618  -14.5522  -16.6292 N   0  0  0  0  0  0  0  0  0  0  0  0
   18.8738  -14.7168  -15.5562 C   0  0  0  0  0  0  0  0  0  0  0  0
   19.2186  -13.7911  -14.6462 N   0  0  0  0  0  0  0  0  0  0  0  0
   22.1853   -9.8874  -14.9497 C   0  0  0  0  0  0  0  0  0  0  0  0
   22.7992   -9.6289  -13.8832 O   0  0  0  0  0  0  0  0  0  0  0  0
   23.9554   -2.5749  -16.7408 C   0  0  0  0  0  0  0  0  0  0  0  0
   23.6600   -4.2521  -17.3620 S   0  0  0  0  0  0  0  0  0  0  0  0
   22.8682   -5.2020  -16.0652 C   0  0  0  0  0  0  0  0  0  0  0  0
   22.6698   -6.6530  -16.4285 C   0  0  0  0  0  0  0  0  0  0  0  0
   21.9195   -7.4153  -15.3650 C   0  0  2  0  0  0  0  0  0  0  0  0
   21.7085   -8.7892  -15.7111 N   0  0  0  0  0  0  0  0  0  0  0  0
   20.6134   -6.7498  -15.1778 C   0  0  0  0  0  0  0  0  0  0  0  0
   20.5648   -5.7238  -14.4603 O   0  0  0  0  0  0  0  0  0  0  0  0
   19.4266   -7.1876  -15.7475 O   0  0  0  0  0  0  0  0  0  0  0  0
  2  1  1  6
  3  2  1  0
  4  3  1  0
  5  2  1  0
  5  6  2  0
  7  5  1  0
  8  7  1  0
  8  9  1  1
 10  9  1  0
 10 14  1  0
 11 12  1  0
 11 10  2  0
 12 13  1  0
 13 14  2  0
 15  8  1  0
 16 15  2  0
 18 17  1  0
 19 18  1  0
 20 19  1  0
 21 20  1  6
 21 22  1  0
 22 15  1  0
 23 21  1  0
 24 23  2  0
 25 23  1  0
M  END
$$$$
