CHM.pdb
     RDKit          3D

 25 25  0  0  1  0  0  0  0  0999 V2000
   17.1673  -12.6785    5.1853 N   0  0  0  0  0  0  0  0  0  0  0  0
   17.8671  -13.6967    4.4353 C   0  0  1  0  0  0  0  0  0  0  0  0
   19.2495  -13.2342    4.0648 C   0  0  0  0  0  0  0  0  0  0  0  0
   20.0690  -12.3930    5.4429 S   0  0  0  0  0  0  0  0  0  0  0  0
   17.8677  -15.0034    5.1249 C   0  0  0  0  0  0  0  0  0  0  0  0
   17.7773  -15.0056    6.3732 O   0  0  0  0  0  0  0  0  0  0  0  0
   17.9636  -16.2468    4.4638 N   0  0  0  0  0  0  0  0  0  0  0  0
   18.0476  -17.5207    5.1439 C   0  0  1  0  0  0  0  0  0  0  0  0
   17.8632  -18.6193    4.1128 C   0  0  0  0  0  0  0  0  0  0  0  0
   16.4356  -18.7841    3.7386 C   0  0  0  0  0  0  0  0  0  0  0  0
   15.3582  -18.1552    4.3294 C   0  0  0  0  0  0  0  0  0  0  0  0
   14.2179  -18.5597    3.7141 N   0  0  0  0  0  0  0  0  0  0  0  0
   14.5599  -19.4285    2.7509 C   0  0  0  0  0  0  0  0  0  0  0  0
   15.8966  -19.5597    2.7703 N   0  0  0  0  0  0  0  0  0  0  0  0
   19.3520  -17.7288    5.7990 C   0  0  0  0  0  0  0  0  0  0  0  0
   20.3722  -17.2315    5.2578 O   0  0  0  0  0  0  0  0  0  0  0  0
   24.2753  -15.6846   10.8275 C   0  0  0  0  0  0  0  0  0  0  0  0
   22.7700  -15.5084    9.8329 S   0  0  0  0  0  0  0  0  0  0  0  0
   22.3354  -17.1189    9.1783 C   0  0  0  0  0  0  0  0  0  0  0  0
   21.1191  -17.0887    8.2859 C   0  0  0  0  0  0  0  0  0  0  0  0
   20.7546  -18.4559    7.7633 C   0  0  2  0  0  0  0  0  0  0  0  0
   19.5402  -18.4543    7.0037 N   0  0  0  0  0  0  0  0  0  0  0  0
   20.6041  -19.3525    8.9284 C   0  0  0  0  0  0  0  0  0  0  0  0
   19.4758  -19.4487    9.4644 O   0  0  0  0  0  0  0  0  0  0  0  0
   21.6364  -20.1017    9.4739 O   0  0  0  0  0  0  0  0  0  0  0  0
  2  1  1  1
  3  2  1  0
  4  3  1  0
  5  2  1  0
  5  6  2  0
  7  5  1  0
  8  7  1  0
  8  9  1  6
 10  9  1  0
 10 14  1  0
 11 12  1  0
 11 10  2  0
 12 13  1  0
 13 14  2  0
 15  8  1  0
 16 15  2  0
 18 17  1  0
 19 18  1  0
 20 19  1  0
 21 20  1  1
 21 22  1  0
 22 15  1  0
 23 21  1  0
 24 23  2  0
 25 23  1  0
M  END
$$$$
