CHM.pdb
     RDKit          3D

 25 25  0  0  1  0  0  0  0  0999 V2000
   27.2703  -17.4582  -17.3439 N   0  0  0  0  0  0  0  0  0  0  0  0
   26.8487  -17.5671  -15.9657 C   0  0  1  0  0  0  0  0  0  0  0  0
   26.4722  -16.2201  -15.4126 C   0  0  0  0  0  0  0  0  0  0  0  0
   27.9181  -15.1501  -15.2055 S   0  0  0  0  0  0  0  0  0  0  0  0
   25.7871  -18.5779  -15.7800 C   0  0  0  0  0  0  0  0  0  0  0  0
   24.8232  -18.5668  -16.5782 O   0  0  0  0  0  0  0  0  0  0  0  0
   25.7933  -19.5532  -14.7597 N   0  0  0  0  0  0  0  0  0  0  0  0
   24.7934  -20.5897  -14.6249 C   0  0  1  0  0  0  0  0  0  0  0  0
   25.4266  -21.7656  -13.9036 C   0  0  0  0  0  0  0  0  0  0  0  0
   26.2814  -22.5695  -14.8137 C   0  0  0  0  0  0  0  0  0  0  0  0
   25.9713  -23.8043  -15.3474 C   0  0  0  0  0  0  0  0  0  0  0  0
   27.0001  -24.2189  -16.1299 N   0  0  0  0  0  0  0  0  0  0  0  0
   27.9468  -23.2691  -16.0966 C   0  0  0  0  0  0  0  0  0  0  0  0
   27.5085  -22.2784  -15.3025 N   0  0  0  0  0  0  0  0  0  0  0  0
   23.6254  -20.1519  -13.8386 C   0  0  0  0  0  0  0  0  0  0  0  0
   23.8209  -19.7440  -12.6653 O   0  0  0  0  0  0  0  0  0  0  0  0
   17.0531  -16.1747  -13.1070 C   0  0  0  0  0  0  0  0  0  0  0  0
   18.4121  -16.6832  -14.1935 S   0  0  0  0  0  0  0  0  0  0  0  0
   19.2907  -18.0307  -13.4040 C   0  0  0  0  0  0  0  0  0  0  0  0
   20.4962  -18.4923  -14.1853 C   0  0  0  0  0  0  0  0  0  0  0  0
   21.1625  -19.6923  -13.5600 C   0  0  2  0  0  0  0  0  0  0  0  0
   22.2884  -20.1578  -14.3134 N   0  0  0  0  0  0  0  0  0  0  0  0
   20.1522  -20.7672  -13.4718 C   0  0  0  0  0  0  0  0  0  0  0  0
   20.1306  -21.6399  -14.3704 O   0  0  0  0  0  0  0  0  0  0  0  0
   19.2176  -20.8767  -12.4524 O   0  0  0  0  0  0  0  0  0  0  0  0
  2  1  1  6
  3  2  1  0
  4  3  1  0
  5  2  1  0
  5  6  2  0
  7  5  1  0
  8  7  1  0
  8  9  1  1
 10  9  1  0
 10 14  1  0
 11 12  1  0
 11 10  2  0
 12 13  1  0
 13 14  2  0
 15  8  1  0
 16 15  2  0
 18 17  1  0
 19 18  1  0
 20 19  1  0
 21 20  1  6
 21 22  1  0
 22 15  1  0
 23 21  1  0
 24 23  2  0
 25 23  1  0
M  END
$$$$
