CHM.pdb
     RDKit          3D

 25 25  0  0  1  0  0  0  0  0999 V2000
   20.4814  -12.6537  -19.4789 N   0  0  0  0  0  0  0  0  0  0  0  0
   21.4726  -11.7211  -18.9922 C   0  0  1  0  0  0  0  0  0  0  0  0
   22.3355  -11.2205  -20.1177 C   0  0  0  0  0  0  0  0  0  0  0  0
   23.6283  -10.0991  -19.5264 S   0  0  0  0  0  0  0  0  0  0  0  0
   20.8746  -10.6263  -18.2004 C   0  0  0  0  0  0  0  0  0  0  0  0
   20.0244   -9.8976  -18.7593 O   0  0  0  0  0  0  0  0  0  0  0  0
   21.2027  -10.3524  -16.8552 N   0  0  0  0  0  0  0  0  0  0  0  0
   20.6479   -9.2544  -16.0943 C   0  0  1  0  0  0  0  0  0  0  0  0
   20.1367   -9.8048  -14.7753 C   0  0  0  0  0  0  0  0  0  0  0  0
   18.8227  -10.4777  -14.9361 C   0  0  0  0  0  0  0  0  0  0  0  0
   18.0977  -10.5857  -16.1058 C   0  0  0  0  0  0  0  0  0  0  0  0
   16.9515  -11.2679  -15.8544 N   0  0  0  0  0  0  0  0  0  0  0  0
   16.9447  -11.5888  -14.5519 C   0  0  0  0  0  0  0  0  0  0  0  0
   18.0739  -11.1104  -14.0041 N   0  0  0  0  0  0  0  0  0  0  0  0
   21.6461   -8.2117  -15.7933 C   0  0  0  0  0  0  0  0  0  0  0  0
   22.8301   -8.3983  -16.1733 O   0  0  0  0  0  0  0  0  0  0  0  0
   26.5974   -4.8111  -18.0810 C   0  0  0  0  0  0  0  0  0  0  0  0
   24.7965   -4.6270  -17.9865 S   0  0  0  0  0  0  0  0  0  0  0  0
   24.2381   -5.3354  -16.4381 C   0  0  0  0  0  0  0  0  0  0  0  0
   22.7352   -5.3728  -16.3099 C   0  0  0  0  0  0  0  0  0  0  0  0
   22.2846   -5.9141  -14.9760 C   0  0  2  0  0  0  0  0  0  0  0  0
   21.3650   -7.0052  -15.1015 N   0  0  0  0  0  0  0  0  0  0  0  0
   21.6363   -4.8073  -14.2422 C   0  0  0  0  0  0  0  0  0  0  0  0
   20.3923   -4.8373  -14.0959 O   0  0  0  0  0  0  0  0  0  0  0  0
   22.3175   -3.7275  -13.6993 O   0  0  0  0  0  0  0  0  0  0  0  0
  2  1  1  6
  3  2  1  0
  4  3  1  0
  5  2  1  0
  5  6  2  0
  7  5  1  0
  8  7  1  0
  8  9  1  1
 10  9  1  0
 10 14  1  0
 11 12  1  0
 11 10  2  0
 12 13  1  0
 13 14  2  0
 15  8  1  0
 16 15  2  0
 18 17  1  0
 19 18  1  0
 20 19  1  0
 21 20  1  6
 21 22  1  0
 22 15  1  0
 23 21  1  0
 24 23  2  0
 25 23  1  0
M  END
$$$$
