TPI.pdb
     RDKit          3D

 23 23  0  0  1  0  0  0  0  0999 V2000
   18.5627  -20.1066  -12.9184 C   0  0  0  0  0  0  0  0  0  0  0  0
   19.4631  -20.8643  -13.8753 C   0  0  1  0  0  0  0  0  0  0  0  0
   19.4277  -20.1925  -15.0919 O   0  0  0  0  0  0  0  0  0  0  0  0
   20.8634  -20.8379  -13.2721 C   0  0  2  0  0  0  0  0  0  0  0  0
   21.7815  -21.2198  -14.2861 N   0  0  0  0  0  0  0  0  0  0  0  0
   20.9354  -21.5797  -12.0106 C   0  0  0  0  0  0  0  0  0  0  0  0
   21.1062  -22.8448  -12.1457 O   0  0  0  0  0  0  0  0  0  0  0  0
   20.8410  -21.0757  -10.7095 N   0  0  0  0  0  0  0  0  0  0  0  0
   20.5237  -19.7726  -10.1706 C   0  0  0  0  0  0  0  0  0  0  0  0
   21.6531  -19.5542   -9.1866 C   0  0  0  0  0  0  0  0  0  0  0  0
   21.7823  -20.9259   -8.5637 C   0  0  0  0  0  0  0  0  0  0  0  0
   21.0768  -21.8799   -9.4996 C   0  0  1  0  0  0  0  0  0  0  0  0
   19.7893  -22.3174   -8.9090 C   0  0  0  0  0  0  0  0  0  0  0  0
   18.7661  -21.6296   -9.1562 O   0  0  0  0  0  0  0  0  0  0  0  0
   16.3797  -26.8943   -9.3504 C   0  0  0  0  0  0  0  0  0  0  0  0
   16.6285  -25.7505   -8.4092 C   0  0  0  0  0  0  0  0  0  0  0  0
   17.9689  -25.1573   -8.6263 C   0  0  2  0  0  0  0  0  0  0  0  0
   19.0570  -26.2207   -8.3913 C   0  0  0  0  0  0  0  0  0  0  0  0
   18.3436  -24.0009   -7.7564 C   0  0  2  0  0  0  0  0  0  0  0  0
   19.6317  -23.4422   -8.0956 N   0  0  0  0  0  0  0  0  0  0  0  0
   18.1569  -24.2025   -6.3133 C   0  0  0  0  0  0  0  0  0  0  0  0
   19.2423  -24.2733   -5.4489 O   0  0  0  0  0  0  0  0  0  0  0  0
   17.0269  -24.3253   -5.7550 O   0  0  0  0  0  0  0  0  0  0  0  0
  2  1  1  1
  3  2  1  0
  4  2  1  0
  4  5  1  6
  6  4  1  0
  7  6  2  0
  8  6  1  0
  8 12  1  0
  9 10  1  0
  9  8  1  0
 10 11  1  0
 11 12  1  0
 12 13  1  1
 13 14  2  0
 16 15  1  0
 17 16  1  0
 17 18  1  1
 19 20  1  1
 19 17  1  0
 20 13  1  0
 21 19  1  0
 22 21  1  0
 23 21  2  0
M  END
$$$$
