TPI.pdb
     RDKit          3D

 23 23  0  0  1  0  0  0  0  0999 V2000
   23.7160  -18.2318  -14.5628 C   0  0  0  0  0  0  0  0  0  0  0  0
   23.5712  -18.6684  -16.0080 C   0  0  1  0  0  0  0  0  0  0  0  0
   23.0109  -17.6038  -16.7047 O   0  0  0  0  0  0  0  0  0  0  0  0
   24.9757  -18.9796  -16.5139 C   0  0  2  0  0  0  0  0  0  0  0  0
   24.8921  -19.2194  -17.9112 N   0  0  0  0  0  0  0  0  0  0  0  0
   25.6357  -20.0122  -15.7108 C   0  0  0  0  0  0  0  0  0  0  0  0
   25.3643  -21.2161  -16.0640 O   0  0  0  0  0  0  0  0  0  0  0  0
   26.5059  -19.8365  -14.6302 N   0  0  0  0  0  0  0  0  0  0  0  0
   26.9541  -18.6752  -13.8956 C   0  0  0  0  0  0  0  0  0  0  0  0
   28.4555  -18.8679  -13.8854 C   0  0  0  0  0  0  0  0  0  0  0  0
   28.5688  -20.3548  -13.6358 C   0  0  0  0  0  0  0  0  0  0  0  0
   27.2132  -20.9391  -13.9593 C   0  0  1  0  0  0  0  0  0  0  0  0
   26.5103  -21.3224  -12.7115 C   0  0  0  0  0  0  0  0  0  0  0  0
   27.1142  -22.0747  -11.9049 O   0  0  0  0  0  0  0  0  0  0  0  0
   26.3932  -19.4141   -8.1792 C   0  0  0  0  0  0  0  0  0  0  0  0
   25.7472  -19.5059   -9.5321 C   0  0  0  0  0  0  0  0  0  0  0  0
   25.5595  -20.9169   -9.9437 C   0  0  2  0  0  0  0  0  0  0  0  0
   26.9074  -21.5198  -10.3791 C   0  0  0  0  0  0  0  0  0  0  0  0
   24.6215  -21.1689  -11.0801 C   0  0  2  0  0  0  0  0  0  0  0  0
   25.2220  -20.9063  -12.3674 N   0  0  0  0  0  0  0  0  0  0  0  0
   23.2771  -20.5950  -10.9355 C   0  0  0  0  0  0  0  0  0  0  0  0
   22.4492  -20.9550   -9.8794 O   0  0  0  0  0  0  0  0  0  0  0  0
   22.7765  -19.7515  -11.7366 O   0  0  0  0  0  0  0  0  0  0  0  0
  2  1  1  1
  3  2  1  0
  4  2  1  0
  4  5  1  6
  6  4  1  0
  7  6  2  0
  8  6  1  0
  8 12  1  0
  9 10  1  0
  9  8  1  0
 10 11  1  0
 11 12  1  0
 12 13  1  1
 13 14  2  0
 16 15  1  0
 17 16  1  0
 17 18  1  6
 19 20  1  6
 19 17  1  0
 20 13  1  0
 21 19  1  0
 22 21  1  0
 23 21  2  0
M  END
$$$$
