TPI.pdb
     RDKit          3D

 23 23  0  0  1  0  0  0  0  0999 V2000
   23.7302  -19.9556  -15.1440 C   0  0  0  0  0  0  0  0  0  0  0  0
   23.8582  -21.3006  -15.8331 C   0  0  1  0  0  0  0  0  0  0  0  0
   23.1272  -21.2288  -17.0135 O   0  0  0  0  0  0  0  0  0  0  0  0
   25.3423  -21.5079  -16.1161 C   0  0  2  0  0  0  0  0  0  0  0  0
   25.4620  -22.5562  -17.0667 N   0  0  0  0  0  0  0  0  0  0  0  0
   26.1248  -21.6477  -14.8853 C   0  0  0  0  0  0  0  0  0  0  0  0
   26.2343  -22.8532  -14.4578 O   0  0  0  0  0  0  0  0  0  0  0  0
   26.7494  -20.6399  -14.1437 N   0  0  0  0  0  0  0  0  0  0  0  0
   26.7846  -19.1996  -14.2591 C   0  0  0  0  0  0  0  0  0  0  0  0
   28.2679  -18.9115  -14.1689 C   0  0  0  0  0  0  0  0  0  0  0  0
   28.6979  -19.8713  -13.0826 C   0  0  0  0  0  0  0  0  0  0  0  0
   27.5905  -20.8925  -12.9626 C   0  0  1  0  0  0  0  0  0  0  0  0
   26.8177  -20.6653  -11.7179 C   0  0  0  0  0  0  0  0  0  0  0  0
   25.8197  -19.9026  -11.7774 O   0  0  0  0  0  0  0  0  0  0  0  0
   27.0238  -19.4679   -5.9067 C   0  0  0  0  0  0  0  0  0  0  0  0
   26.2381  -20.2512   -6.9192 C   0  0  0  0  0  0  0  0  0  0  0  0
   26.9729  -20.3625   -8.2011 C   0  0  2  0  0  0  0  0  0  0  0  0
   27.2791  -18.9584   -8.7533 C   0  0  0  0  0  0  0  0  0  0  0  0
   26.2852  -21.0891   -9.3118 C   0  0  2  0  0  0  0  0  0  0  0  0
   27.1202  -21.2395  -10.4809 N   0  0  0  0  0  0  0  0  0  0  0  0
   24.9229  -20.6358   -9.6223 C   0  0  0  0  0  0  0  0  0  0  0  0
   24.6936  -19.6149  -10.5363 O   0  0  0  0  0  0  0  0  0  0  0  0
   23.8774  -21.1221   -9.0988 O   0  0  0  0  0  0  0  0  0  0  0  0
  2  1  1  6
  3  2  1  0
  4  2  1  0
  4  5  1  6
  6  4  1  0
  7  6  2  0
  8  6  1  0
  8 12  1  0
  9 10  1  0
  9  8  1  0
 10 11  1  0
 11 12  1  0
 12 13  1  1
 13 14  2  0
 16 15  1  0
 17 16  1  0
 17 18  1  6
 19 20  1  6
 19 17  1  0
 20 13  1  0
 21 19  1  0
 22 21  1  0
 23 21  2  0
M  END
$$$$
