TPI.pdb
     RDKit          3D

 23 23  0  0  1  0  0  0  0  0999 V2000
   18.0641  -12.1706  -14.4182 C   0  0  0  0  0  0  0  0  0  0  0  0
   16.7086  -12.0365  -15.0853 C   0  0  1  0  0  0  0  0  0  0  0  0
   16.2324  -13.3231  -15.3105 O   0  0  0  0  0  0  0  0  0  0  0  0
   15.8133  -11.2808  -14.1092 C   0  0  2  0  0  0  0  0  0  0  0  0
   14.4771  -11.3761  -14.5808 N   0  0  0  0  0  0  0  0  0  0  0  0
   16.3147   -9.9326  -13.8304 C   0  0  0  0  0  0  0  0  0  0  0  0
   16.2197   -9.1149  -14.8154 O   0  0  0  0  0  0  0  0  0  0  0  0
   16.8708   -9.4501  -12.6414 N   0  0  0  0  0  0  0  0  0  0  0  0
   17.2189  -10.0728  -11.3843 C   0  0  0  0  0  0  0  0  0  0  0  0
   16.5735   -9.1412  -10.3809 C   0  0  0  0  0  0  0  0  0  0  0  0
   16.8792   -7.7882  -10.9828 C   0  0  0  0  0  0  0  0  0  0  0  0
   17.2508   -8.0449  -12.4249 C   0  0  1  0  0  0  0  0  0  0  0  0
   18.7102   -7.8673  -12.6165 C   0  0  0  0  0  0  0  0  0  0  0  0
   19.4766   -8.7364  -12.1282 O   0  0  0  0  0  0  0  0  0  0  0  0
   22.7332   -7.9497  -16.6089 C   0  0  0  0  0  0  0  0  0  0  0  0
   22.5062   -7.2903  -15.2786 C   0  0  0  0  0  0  0  0  0  0  0  0
   21.0709   -7.3023  -14.9104 C   0  0  2  0  0  0  0  0  0  0  0  0
   20.2573   -6.5054  -15.9462 C   0  0  0  0  0  0  0  0  0  0  0  0
   20.7105   -6.7189  -13.5821 C   0  0  2  0  0  0  0  0  0  0  0  0
   19.2957   -6.8005  -13.3026 N   0  0  0  0  0  0  0  0  0  0  0  0
   21.2883   -5.4008  -13.2875 C   0  0  0  0  0  0  0  0  0  0  0  0
   22.6404   -5.2533  -13.0043 O   0  0  0  0  0  0  0  0  0  0  0  0
   20.6227   -4.3236  -13.2672 O   0  0  0  0  0  0  0  0  0  0  0  0
  2  1  1  1
  3  2  1  0
  4  2  1  0
  4  5  1  6
  6  4  1  0
  7  6  2  0
  8  6  1  0
  8 12  1  0
  9 10  1  0
  9  8  1  0
 10 11  1  0
 11 12  1  0
 12 13  1  1
 13 14  2  0
 16 15  1  0
 17 16  1  0
 17 18  1  6
 19 20  1  6
 19 17  1  0
 20 13  1  0
 21 19  1  0
 22 21  1  0
 23 21  2  0
M  END
$$$$
