TPI.pdb
     RDKit          3D

 23 23  0  0  1  0  0  0  0  0999 V2000
   25.9218  -16.0977  -16.7385 C   0  0  0  0  0  0  0  0  0  0  0  0
   25.8239  -17.0844  -15.5908 C   0  0  1  0  0  0  0  0  0  0  0  0
   25.0015  -16.5129  -14.6266 O   0  0  0  0  0  0  0  0  0  0  0  0
   25.2043  -18.3566  -16.1593 C   0  0  2  0  0  0  0  0  0  0  0  0
   23.9933  -17.9985  -16.8090 N   0  0  0  0  0  0  0  0  0  0  0  0
   25.1200  -19.4242  -15.1593 C   0  0  0  0  0  0  0  0  0  0  0  0
   23.9262  -19.7067  -14.7813 O   0  0  0  0  0  0  0  0  0  0  0  0
   26.1683  -20.1507  -14.5858 N   0  0  0  0  0  0  0  0  0  0  0  0
   27.6061  -20.0937  -14.7218 C   0  0  0  0  0  0  0  0  0  0  0  0
   27.9582  -21.5455  -14.9661 C   0  0  0  0  0  0  0  0  0  0  0  0
   27.0401  -22.2484  -13.9918 C   0  0  0  0  0  0  0  0  0  0  0  0
   25.9759  -21.2428  -13.6180 C   0  0  1  0  0  0  0  0  0  0  0  0
   26.1962  -20.7548  -12.2355 C   0  0  0  0  0  0  0  0  0  0  0  0
   27.0949  -19.8946  -12.0527 O   0  0  0  0  0  0  0  0  0  0  0  0
   23.3111  -17.9507   -9.0881 C   0  0  0  0  0  0  0  0  0  0  0  0
   23.9457  -18.9594  -10.0023 C   0  0  0  0  0  0  0  0  0  0  0  0
   25.3081  -19.3188   -9.5435 C   0  0  2  0  0  0  0  0  0  0  0  0
   26.3505  -18.4380  -10.2559 C   0  0  0  0  0  0  0  0  0  0  0  0
   25.7480  -20.7284   -9.7756 C   0  0  2  0  0  0  0  0  0  0  0  0
   25.4746  -21.1839  -11.1189 N   0  0  0  0  0  0  0  0  0  0  0  0
   25.3584  -21.6958   -8.7411 C   0  0  0  0  0  0  0  0  0  0  0  0
   24.7198  -22.8850   -9.0699 O   0  0  0  0  0  0  0  0  0  0  0  0
   25.5653  -21.5311   -7.5026 O   0  0  0  0  0  0  0  0  0  0  0  0
  2  1  1  6
  3  2  1  0
  4  2  1  0
  4  5  1  1
  6  4  1  0
  7  6  2  0
  8  6  1  0
  8 12  1  0
  9 10  1  0
  9  8  1  0
 10 11  1  0
 11 12  1  0
 12 13  1  1
 13 14  2  0
 16 15  1  0
 17 16  1  0
 17 18  1  6
 19 20  1  6
 19 17  1  0
 20 13  1  0
 21 19  1  0
 22 21  1  0
 23 21  2  0
M  END
$$$$
