TPI.pdb
     RDKit          3D

 23 23  0  0  1  0  0  0  0  0999 V2000
   23.5141  -12.7238  -19.4673 C   0  0  0  0  0  0  0  0  0  0  0  0
   23.1722  -13.9702  -18.6737 C   0  0  1  0  0  0  0  0  0  0  0  0
   23.3141  -15.0551  -19.5312 O   0  0  0  0  0  0  0  0  0  0  0  0
   24.1701  -14.0436  -17.5228 C   0  0  2  0  0  0  0  0  0  0  0  0
   24.1077  -15.3525  -16.9752 N   0  0  0  0  0  0  0  0  0  0  0  0
   24.0105  -12.9319  -16.5818 C   0  0  0  0  0  0  0  0  0  0  0  0
   23.0501  -13.0781  -15.7427 O   0  0  0  0  0  0  0  0  0  0  0  0
   24.7685  -11.7596  -16.4984 N   0  0  0  0  0  0  0  0  0  0  0  0
   25.8876  -11.2455  -17.2551 C   0  0  0  0  0  0  0  0  0  0  0  0
   26.8567  -10.8550  -16.1598 C   0  0  0  0  0  0  0  0  0  0  0  0
   25.9282  -10.2359  -15.1396 C   0  0  0  0  0  0  0  0  0  0  0  0
   24.5370  -10.7028  -15.5007 C   0  0  1  0  0  0  0  0  0  0  0  0
   23.7620   -9.5882  -16.0965 C   0  0  0  0  0  0  0  0  0  0  0  0
   23.9033   -9.3663  -17.3262 O   0  0  0  0  0  0  0  0  0  0  0  0
   18.6201  -10.0352  -16.2414 C   0  0  0  0  0  0  0  0  0  0  0  0
   19.7545   -9.3205  -15.5642 C   0  0  0  0  0  0  0  0  0  0  0  0
   20.7319   -8.8059  -16.5518 C   0  0  2  0  0  0  0  0  0  0  0  0
   21.4017   -9.9807  -17.2876 C   0  0  0  0  0  0  0  0  0  0  0  0
   21.8539   -7.9738  -16.0197 C   0  0  2  0  0  0  0  0  0  0  0  0
   22.8839   -8.7652  -15.3874 N   0  0  0  0  0  0  0  0  0  0  0  0
   21.4576   -6.7973  -15.2345 C   0  0  0  0  0  0  0  0  0  0  0  0
   20.9548   -5.6569  -15.8483 O   0  0  0  0  0  0  0  0  0  0  0  0
   21.5394   -6.7268  -13.9727 O   0  0  0  0  0  0  0  0  0  0  0  0
  2  1  1  6
  3  2  1  0
  4  2  1  0
  4  5  1  1
  6  4  1  0
  7  6  2  0
  8  6  1  0
  8 12  1  0
  9 10  1  0
  9  8  1  0
 10 11  1  0
 11 12  1  0
 12 13  1  6
 13 14  2  0
 16 15  1  0
 17 16  1  0
 17 18  1  1
 19 20  1  1
 19 17  1  0
 20 13  1  0
 21 19  1  0
 22 21  1  0
 23 21  2  0
M  END
$$$$
