TPI.pdb
     RDKit          3D

 23 23  0  0  1  0  0  0  0  0999 V2000
   24.1955  -19.4875  -11.9191 C   0  0  0  0  0  0  0  0  0  0  0  0
   23.6948  -20.8803  -12.2501 C   0  0  1  0  0  0  0  0  0  0  0  0
   22.7065  -20.7424  -13.2181 O   0  0  0  0  0  0  0  0  0  0  0  0
   24.8900  -21.6582  -12.7903 C   0  0  2  0  0  0  0  0  0  0  0  0
   24.3969  -22.8297  -13.4238 N   0  0  0  0  0  0  0  0  0  0  0  0
   25.9283  -21.8508  -11.7746 C   0  0  0  0  0  0  0  0  0  0  0  0
   25.7674  -22.8905  -11.0391 O   0  0  0  0  0  0  0  0  0  0  0  0
   27.0460  -21.0486  -11.5239 N   0  0  0  0  0  0  0  0  0  0  0  0
   27.5394  -19.8228  -12.1098 C   0  0  0  0  0  0  0  0  0  0  0  0
   28.9906  -20.1616  -12.3756 C   0  0  0  0  0  0  0  0  0  0  0  0
   29.3569  -20.9292  -11.1255 C   0  0  0  0  0  0  0  0  0  0  0  0
   28.0501  -21.3418  -10.4885 C   0  0  1  0  0  0  0  0  0  0  0  0
   27.7944  -20.5307   -9.2742 C   0  0  0  0  0  0  0  0  0  0  0  0
   27.0490  -19.5242   -9.3865 O   0  0  0  0  0  0  0  0  0  0  0  0
   28.6831  -20.8606   -3.1175 C   0  0  0  0  0  0  0  0  0  0  0  0
   27.9328  -20.2600   -4.2718 C   0  0  0  0  0  0  0  0  0  0  0  0
   28.4385  -20.7726   -5.5669 C   0  0  2  0  0  0  0  0  0  0  0  0
   29.9615  -20.5655   -5.6538 C   0  0  0  0  0  0  0  0  0  0  0  0
   27.8776  -20.1492   -6.8043 C   0  0  2  0  0  0  0  0  0  0  0  0
   28.3240  -20.8057   -8.0111 N   0  0  0  0  0  0  0  0  0  0  0  0
   27.9594  -18.6841   -6.8728 C   0  0  0  0  0  0  0  0  0  0  0  0
   27.0988  -17.8788   -6.1373 O   0  0  0  0  0  0  0  0  0  0  0  0
   28.7945  -18.0534   -7.5859 O   0  0  0  0  0  0  0  0  0  0  0  0
  2  1  1  6
  3  2  1  0
  4  2  1  0
  4  5  1  1
  6  4  1  0
  7  6  2  0
  8  6  1  0
  8 12  1  0
  9 10  1  0
  9  8  1  0
 10 11  1  0
 11 12  1  0
 12 13  1  1
 13 14  2  0
 16 15  1  0
 17 16  1  0
 17 18  1  1
 19 20  1  6
 19 17  1  0
 20 13  1  0
 21 19  1  0
 22 21  1  0
 23 21  2  0
M  END
$$$$
