TPI.pdb
     RDKit          3D

 23 23  0  0  1  0  0  0  0  0999 V2000
   24.2655  -19.0943  -13.3365 C   0  0  0  0  0  0  0  0  0  0  0  0
   23.4930  -20.3704  -13.6106 C   0  0  1  0  0  0  0  0  0  0  0  0
   22.6109  -20.1013  -14.6508 O   0  0  0  0  0  0  0  0  0  0  0  0
   24.5182  -21.4239  -14.0164 C   0  0  2  0  0  0  0  0  0  0  0  0
   23.8162  -22.5143  -14.5953 N   0  0  0  0  0  0  0  0  0  0  0  0
   25.4417  -21.7450  -12.9251 C   0  0  0  0  0  0  0  0  0  0  0  0
   25.0950  -22.7562  -12.2143 O   0  0  0  0  0  0  0  0  0  0  0  0
   26.6279  -21.0893  -12.5808 N   0  0  0  0  0  0  0  0  0  0  0  0
   27.3290  -19.9517  -13.1317 C   0  0  0  0  0  0  0  0  0  0  0  0
   28.7411  -20.4820  -13.2586 C   0  0  0  0  0  0  0  0  0  0  0  0
   28.8890  -21.2621  -11.9718 C   0  0  0  0  0  0  0  0  0  0  0  0
   27.4872  -21.4868  -11.4540 C   0  0  1  0  0  0  0  0  0  0  0  0
   27.2318  -20.6220  -10.2772 C   0  0  0  0  0  0  0  0  0  0  0  0
   26.4163  -19.6742  -10.4110 O   0  0  0  0  0  0  0  0  0  0  0  0
   28.4211  -20.6217   -4.1602 C   0  0  0  0  0  0  0  0  0  0  0  0
   27.3943  -20.6052   -5.2563 C   0  0  0  0  0  0  0  0  0  0  0  0
   28.0271  -20.7513   -6.5882 C   0  0  2  0  0  0  0  0  0  0  0  0
   29.1672  -19.7284   -6.7419 C   0  0  0  0  0  0  0  0  0  0  0  0
   27.1459  -20.5520   -7.7791 C   0  0  2  0  0  0  0  0  0  0  0  0
   27.8342  -20.7856   -9.0274 N   0  0  0  0  0  0  0  0  0  0  0  0
   26.3415  -19.3229   -7.7776 C   0  0  0  0  0  0  0  0  0  0  0  0
   25.0750  -19.2908   -7.2074 O   0  0  0  0  0  0  0  0  0  0  0  0
   26.7233  -18.2252   -8.2807 O   0  0  0  0  0  0  0  0  0  0  0  0
  2  1  1  6
  3  2  1  0
  4  2  1  0
  4  5  1  1
  6  4  1  0
  7  6  2  0
  8  6  1  0
  8 12  1  0
  9 10  1  0
  9  8  1  0
 10 11  1  0
 11 12  1  0
 12 13  1  1
 13 14  2  0
 16 15  1  0
 17 16  1  0
 17 18  1  6
 19 20  1  6
 19 17  1  0
 20 13  1  0
 21 19  1  0
 22 21  1  0
 23 21  2  0
M  END
$$$$
