MAT.pdb
     RDKit          3D

 21 20  0  0  1  0  0  0  0  0999 V2000
    7.0969  -11.3741   27.2451 C   0  0  0  0  0  0  0  0  0  0  0  0
    5.9388  -11.5968   25.9184 S   0  0  0  0  0  0  0  0  0  0  0  0
    5.9421  -13.1655   25.0873 C   0  0  0  0  0  0  0  0  0  0  0  0
    7.0958  -14.0795   25.3684 C   0  0  0  0  0  0  0  0  0  0  0  0
    7.0095  -15.3379   24.5901 C   0  0  2  0  0  0  0  0  0  0  0  0
    5.7969  -16.0548   24.9295 N   0  0  0  0  0  0  0  0  0  0  0  0
    8.2134  -16.2216   24.8345 C   0  0  0  0  0  0  0  0  0  0  0  0
    8.2433  -16.9115   25.8850 O   0  0  0  0  0  0  0  0  0  0  0  0
   11.3806  -17.0593   22.9522 C   0  0  0  0  0  0  0  0  0  0  0  0
   10.4445  -17.0300   24.1534 C   0  0  2  0  0  0  0  0  0  0  0  0
    9.2678  -16.2542   23.8890 N   0  0  0  0  0  0  0  0  0  0  0  0
   11.1723  -16.5423   25.3651 C   0  0  0  0  0  0  0  0  0  0  0  0
   11.9679  -15.5912   25.2478 O   0  0  0  0  0  0  0  0  0  0  0  0
   10.2656  -14.6022   27.9454 C   0  0  0  0  0  0  0  0  0  0  0  0
   10.5795  -15.9077   28.6095 C   0  0  1  0  0  0  0  0  0  0  0  0
    9.4427  -16.7235   28.6426 O   0  0  0  0  0  0  0  0  0  0  0  0
   11.6316  -16.7113   27.8403 C   0  0  2  0  0  0  0  0  0  0  0  0
   10.9677  -17.1409   26.6166 N   0  0  0  0  0  0  0  0  0  0  0  0
   12.0805  -17.8385   28.6561 C   0  0  0  0  0  0  0  0  0  0  0  0
   11.7659  -19.0066   28.3441 O   0  0  0  0  0  0  0  0  0  0  0  0
   12.8546  -17.6214   29.7757 O   0  0  0  0  0  0  0  0  0  0  0  0
  2  1  1  0
  3  4  1  0
  3  2  1  0
  4  5  1  0
  5  7  1  0
  5  6  1  1
  7 11  1  0
  7  8  2  0
 10  9  1  6
 10 12  1  0
 11 10  1  0
 12 18  1  0
 12 13  2  0
 15 17  1  0
 15 14  1  6
 16 15  1  0
 17 19  1  0
 17 18  1  6
 19 21  1  0
 20 19  2  0
M  END
$$$$
