MAT.pdb
     RDKit          3D

 21 20  0  0  1  0  0  0  0  0999 V2000
    8.8895  -11.4098   20.0115 C   0  0  0  0  0  0  0  0  0  0  0  0
    8.6320  -13.1330   19.6718 S   0  0  0  0  0  0  0  0  0  0  0  0
    6.9808  -13.7611   19.8466 C   0  0  0  0  0  0  0  0  0  0  0  0
    6.7706  -15.2119   19.5360 C   0  0  0  0  0  0  0  0  0  0  0  0
    7.7916  -16.0713   20.1807 C   0  0  2  0  0  0  0  0  0  0  0  0
    7.7526  -17.4052   19.6162 N   0  0  0  0  0  0  0  0  0  0  0  0
    7.5878  -16.1418   21.6785 C   0  0  0  0  0  0  0  0  0  0  0  0
    6.4167  -16.2776   22.1151 O   0  0  0  0  0  0  0  0  0  0  0  0
    9.4128  -17.4583   24.4223 C   0  0  0  0  0  0  0  0  0  0  0  0
    8.5411  -16.3018   23.9502 C   0  0  2  0  0  0  0  0  0  0  0  0
    8.7035  -16.0548   22.5470 N   0  0  0  0  0  0  0  0  0  0  0  0
    8.8162  -15.0795   24.7663 C   0  0  0  0  0  0  0  0  0  0  0  0
    9.8524  -14.4260   24.5419 O   0  0  0  0  0  0  0  0  0  0  0  0
    5.9988  -12.4312   25.7515 C   0  0  0  0  0  0  0  0  0  0  0  0
    6.7130  -12.9963   26.9408 C   0  0  1  0  0  0  0  0  0  0  0  0
    6.0401  -14.1252   27.4224 O   0  0  0  0  0  0  0  0  0  0  0  0
    8.1223  -13.4835   26.5932 C   0  0  2  0  0  0  0  0  0  0  0  0
    7.9266  -14.6694   25.7697 N   0  0  0  0  0  0  0  0  0  0  0  0
    8.8579  -13.7739   27.8229 C   0  0  0  0  0  0  0  0  0  0  0  0
    9.1988  -14.9456   28.0911 O   0  0  0  0  0  0  0  0  0  0  0  0
    9.1811  -12.7575   28.6960 O   0  0  0  0  0  0  0  0  0  0  0  0
  2  1  1  0
  3  4  1  0
  3  2  1  0
  4  5  1  0
  5  7  1  0
  5  6  1  6
  7 11  1  0
  7  8  2  0
 10  9  1  1
 10 12  1  0
 11 10  1  0
 12 18  1  0
 12 13  2  0
 15 17  1  0
 15 14  1  6
 16 15  1  0
 17 19  1  0
 17 18  1  6
 19 21  1  0
 20 19  2  0
M  END
$$$$
