MAT.pdb
     RDKit          3D

 21 20  0  0  1  0  0  0  0  0999 V2000
    6.1494  -11.5442   26.3193 C   0  0  0  0  0  0  0  0  0  0  0  0
    7.6297  -12.4469   26.6999 S   0  0  0  0  0  0  0  0  0  0  0  0
    7.5309  -14.2193   26.6856 C   0  0  0  0  0  0  0  0  0  0  0  0
    7.5077  -14.8865   25.3440 C   0  0  0  0  0  0  0  0  0  0  0  0
    7.3491  -16.3558   25.4572 C   0  0  2  0  0  0  0  0  0  0  0  0
    8.4234  -16.9159   26.2520 N   0  0  0  0  0  0  0  0  0  0  0  0
    7.3212  -17.0145   24.0952 C   0  0  0  0  0  0  0  0  0  0  0  0
    8.3473  -17.6299   23.7094 O   0  0  0  0  0  0  0  0  0  0  0  0
    4.6546  -17.7843   21.5619 C   0  0  0  0  0  0  0  0  0  0  0  0
    6.0908  -17.6308   22.0455 C   0  0  2  0  0  0  0  0  0  0  0  0
    6.1570  -16.9266   23.2930 N   0  0  0  0  0  0  0  0  0  0  0  0
    6.9247  -16.9758   20.9914 C   0  0  0  0  0  0  0  0  0  0  0  0
    7.0148  -17.5157   19.8727 O   0  0  0  0  0  0  0  0  0  0  0  0
    6.6082  -13.4077   20.0423 C   0  0  0  0  0  0  0  0  0  0  0  0
    8.0572  -13.6209   20.3563 C   0  0  1  0  0  0  0  0  0  0  0  0
    8.3344  -13.2262   21.6703 O   0  0  0  0  0  0  0  0  0  0  0  0
    8.4547  -15.0978   20.2855 C   0  0  2  0  0  0  0  0  0  0  0  0
    7.5974  -15.7730   21.2508 N   0  0  0  0  0  0  0  0  0  0  0  0
    9.8742  -15.2394   20.6057 C   0  0  0  0  0  0  0  0  0  0  0  0
   10.2275  -15.7623   21.6839 O   0  0  0  0  0  0  0  0  0  0  0  0
   10.8339  -14.7972   19.7206 O   0  0  0  0  0  0  0  0  0  0  0  0
  2  1  1  0
  3  4  1  0
  3  2  1  0
  4  5  1  0
  5  7  1  0
  5  6  1  1
  7 11  1  0
  7  8  2  0
 10  9  1  6
 10 12  1  0
 11 10  1  0
 12 18  1  0
 12 13  2  0
 15 17  1  0
 15 14  1  1
 16 15  1  0
 17 19  1  0
 17 18  1  1
 19 21  1  0
 20 19  2  0
M  END
$$$$
