MAT.pdb
     RDKit          3D

 21 20  0  0  1  0  0  0  0  0999 V2000
    7.2776  -11.2934   26.9088 C   0  0  0  0  0  0  0  0  0  0  0  0
    5.7122  -11.9721   26.4191 S   0  0  0  0  0  0  0  0  0  0  0  0
    5.7326  -13.4974   25.5110 C   0  0  0  0  0  0  0  0  0  0  0  0
    7.0011  -14.2940   25.5516 C   0  0  0  0  0  0  0  0  0  0  0  0
    6.9354  -15.4877   24.6756 C   0  0  2  0  0  0  0  0  0  0  0  0
    5.8352  -16.3421   25.0746 N   0  0  0  0  0  0  0  0  0  0  0  0
    8.2307  -16.2695   24.7099 C   0  0  0  0  0  0  0  0  0  0  0  0
    8.3622  -17.1675   25.5797 O   0  0  0  0  0  0  0  0  0  0  0  0
   11.3755  -16.3999   22.6287 C   0  0  0  0  0  0  0  0  0  0  0  0
   10.5163  -16.6554   23.8602 C   0  0  2  0  0  0  0  0  0  0  0  0
    9.2547  -15.9790   23.7752 N   0  0  0  0  0  0  0  0  0  0  0  0
   11.2649  -16.2839   25.1000 C   0  0  0  0  0  0  0  0  0  0  0  0
   12.2046  -15.4708   25.0155 O   0  0  0  0  0  0  0  0  0  0  0  0
   10.4337  -14.1583   27.5369 C   0  0  0  0  0  0  0  0  0  0  0  0
   10.4966  -15.4781   28.2426 C   0  0  1  0  0  0  0  0  0  0  0  0
    9.2665  -16.1396   28.1496 O   0  0  0  0  0  0  0  0  0  0  0  0
   11.5154  -16.4277   27.6065 C   0  0  2  0  0  0  0  0  0  0  0  0
   10.9205  -16.8378   26.3414 N   0  0  0  0  0  0  0  0  0  0  0  0
   11.7570  -17.5583   28.5015 C   0  0  0  0  0  0  0  0  0  0  0  0
   11.3599  -18.7020   28.1927 O   0  0  0  0  0  0  0  0  0  0  0  0
   12.4247  -17.3715   29.6927 O   0  0  0  0  0  0  0  0  0  0  0  0
  2  1  1  0
  3  4  1  0
  3  2  1  0
  4  5  1  0
  5  7  1  0
  5  6  1  1
  7 11  1  0
  7  8  2  0
 10  9  1  6
 10 12  1  0
 11 10  1  0
 12 18  1  0
 12 13  2  0
 15 17  1  0
 15 14  1  6
 16 15  1  0
 17 19  1  0
 17 18  1  6
 19 21  1  0
 20 19  2  0
M  END
$$$$
