MAT.pdb
     RDKit          3D

 21 20  0  0  1  0  0  0  0  0999 V2000
    7.1208  -10.8614   26.1944 C   0  0  0  0  0  0  0  0  0  0  0  0
    5.6301  -11.8229   26.2596 S   0  0  0  0  0  0  0  0  0  0  0  0
    5.6401  -13.3999   25.4445 C   0  0  0  0  0  0  0  0  0  0  0  0
    6.9167  -14.1827   25.4977 C   0  0  0  0  0  0  0  0  0  0  0  0
    6.8539  -15.4050   24.6617 C   0  0  2  0  0  0  0  0  0  0  0  0
    5.7486  -16.2428   25.0813 N   0  0  0  0  0  0  0  0  0  0  0  0
    8.1467  -16.1883   24.7311 C   0  0  0  0  0  0  0  0  0  0  0  0
    8.2963  -17.0100   25.6708 O   0  0  0  0  0  0  0  0  0  0  0  0
   11.2352  -16.5052   22.5829 C   0  0  0  0  0  0  0  0  0  0  0  0
   10.3918  -16.6936   23.8372 C   0  0  2  0  0  0  0  0  0  0  0  0
    9.1486  -15.9841   23.7507 N   0  0  0  0  0  0  0  0  0  0  0  0
   11.1733  -16.3017   25.0501 C   0  0  0  0  0  0  0  0  0  0  0  0
   12.0449  -15.4181   24.9458 O   0  0  0  0  0  0  0  0  0  0  0  0
   10.3995  -14.3126   27.6371 C   0  0  0  0  0  0  0  0  0  0  0  0
   10.5719  -15.6583   28.2719 C   0  0  1  0  0  0  0  0  0  0  0  0
    9.3722  -16.3777   28.2229 O   0  0  0  0  0  0  0  0  0  0  0  0
   11.5928  -16.5238   27.5283 C   0  0  2  0  0  0  0  0  0  0  0  0
   10.9345  -16.9146   26.2886 N   0  0  0  0  0  0  0  0  0  0  0  0
   11.9543  -17.6746   28.3544 C   0  0  0  0  0  0  0  0  0  0  0  0
   11.5818  -18.8229   28.0324 O   0  0  0  0  0  0  0  0  0  0  0  0
   12.7088  -17.5019   29.4949 O   0  0  0  0  0  0  0  0  0  0  0  0
  2  1  1  0
  3  4  1  0
  3  2  1  0
  4  5  1  0
  5  7  1  0
  5  6  1  1
  7 11  1  0
  7  8  2  0
 10  9  1  6
 10 12  1  0
 11 10  1  0
 12 18  1  0
 12 13  2  0
 15 17  1  0
 15 14  1  6
 16 15  1  0
 17 19  1  0
 17 18  1  6
 19 21  1  0
 20 19  2  0
M  END
$$$$
