MAT.pdb
     RDKit          3D

 21 20  0  0  1  0  0  0  0  0999 V2000
    6.8133  -11.0282   26.0928 C   0  0  0  0  0  0  0  0  0  0  0  0
    5.4856  -12.1625   26.4114 S   0  0  0  0  0  0  0  0  0  0  0  0
    5.5384  -13.7329   25.5853 C   0  0  0  0  0  0  0  0  0  0  0  0
    6.8585  -14.4415   25.5593 C   0  0  0  0  0  0  0  0  0  0  0  0
    6.8194  -15.6577   24.7130 C   0  0  2  0  0  0  0  0  0  0  0  0
    5.8706  -16.6119   25.2506 N   0  0  0  0  0  0  0  0  0  0  0  0
    8.1859  -16.2985   24.6041 C   0  0  0  0  0  0  0  0  0  0  0  0
    8.3855  -17.3833   25.2072 O   0  0  0  0  0  0  0  0  0  0  0  0
   11.2797  -15.6708   22.5479 C   0  0  0  0  0  0  0  0  0  0  0  0
   10.4680  -16.3178   23.6626 C   0  0  2  0  0  0  0  0  0  0  0  0
    9.1988  -15.6734   23.8360 N   0  0  0  0  0  0  0  0  0  0  0  0
   11.2584  -16.3416   24.9317 C   0  0  0  0  0  0  0  0  0  0  0  0
   12.4452  -16.7177   24.8953 O   0  0  0  0  0  0  0  0  0  0  0  0
   10.7483  -13.5300   27.7853 C   0  0  0  0  0  0  0  0  0  0  0  0
   10.6320  -14.9340   28.2945 C   0  0  1  0  0  0  0  0  0  0  0  0
    9.2974  -15.3548   28.2632 O   0  0  0  0  0  0  0  0  0  0  0  0
   11.3916  -15.9335   27.4180 C   0  0  2  0  0  0  0  0  0  0  0  0
   10.6796  -15.9483   26.1469 N   0  0  0  0  0  0  0  0  0  0  0  0
   11.4030  -17.2440   28.0660 C   0  0  0  0  0  0  0  0  0  0  0  0
   10.7700  -18.1988   27.5672 O   0  0  0  0  0  0  0  0  0  0  0  0
   12.1122  -17.4368   29.2320 O   0  0  0  0  0  0  0  0  0  0  0  0
  2  1  1  0
  3  4  1  0
  3  2  1  0
  4  5  1  0
  5  7  1  0
  5  6  1  1
  7 11  1  0
  7  8  2  0
 10  9  1  6
 10 12  1  0
 11 10  1  0
 12 18  1  0
 12 13  2  0
 15 17  1  0
 15 14  1  6
 16 15  1  0
 17 19  1  0
 17 18  1  6
 19 21  1  0
 20 19  2  0
M  END
$$$$
