MAT.pdb
     RDKit          3D

 21 20  0  0  1  0  0  0  0  0999 V2000
    7.0933  -10.5656   26.0849 C   0  0  0  0  0  0  0  0  0  0  0  0
    6.5914  -12.2505   26.3301 S   0  0  0  0  0  0  0  0  0  0  0  0
    5.9857  -13.1354   24.9153 C   0  0  0  0  0  0  0  0  0  0  0  0
    7.0097  -13.6792   23.9661 C   0  0  0  0  0  0  0  0  0  0  0  0
    7.3896  -15.0729   24.2978 C   0  0  2  0  0  0  0  0  0  0  0  0
    6.3618  -15.6928   25.1095 N   0  0  0  0  0  0  0  0  0  0  0  0
    8.7170  -15.1255   25.0224 C   0  0  0  0  0  0  0  0  0  0  0  0
    9.7474  -14.7506   24.4074 O   0  0  0  0  0  0  0  0  0  0  0  0
   10.1480  -14.7464   28.2004 C   0  0  0  0  0  0  0  0  0  0  0  0
   10.0371  -15.7094   27.0254 C   0  0  2  0  0  0  0  0  0  0  0  0
    8.7725  -15.5891   26.3599 N   0  0  0  0  0  0  0  0  0  0  0  0
   10.2971  -17.1105   27.4780 C   0  0  0  0  0  0  0  0  0  0  0  0
    9.3513  -17.7828   27.9305 O   0  0  0  0  0  0  0  0  0  0  0  0
   14.1648  -18.7751   26.6397 C   0  0  0  0  0  0  0  0  0  0  0  0
   12.8470  -19.4783   26.5269 C   0  0  1  0  0  0  0  0  0  0  0  0
   13.0178  -20.8600   26.6721 O   0  0  0  0  0  0  0  0  0  0  0  0
   11.8759  -19.0721   27.6387 C   0  0  2  0  0  0  0  0  0  0  0  0
   11.5824  -17.6655   27.3974 N   0  0  0  0  0  0  0  0  0  0  0  0
   12.5009  -19.2956   28.9414 C   0  0  0  0  0  0  0  0  0  0  0  0
   12.8886  -18.3268   29.6285 O   0  0  0  0  0  0  0  0  0  0  0  0
   12.6673  -20.5768   29.4218 O   0  0  0  0  0  0  0  0  0  0  0  0
  2  1  1  0
  3  4  1  0
  3  2  1  0
  4  5  1  0
  5  7  1  0
  5  6  1  1
  7 11  1  0
  7  8  2  0
 10  9  1  1
 10 12  1  0
 11 10  1  0
 12 18  1  0
 12 13  2  0
 15 17  1  0
 15 14  1  1
 16 15  1  0
 17 19  1  0
 17 18  1  6
 19 21  1  0
 20 19  2  0
M  END
$$$$
