MAT.pdb
     RDKit          3D

 21 20  0  0  1  0  0  0  0  0999 V2000
    6.0814  -10.6790   28.0069 C   0  0  0  0  0  0  0  0  0  0  0  0
    7.1519  -11.8613   27.2275 S   0  0  0  0  0  0  0  0  0  0  0  0
    6.3862  -13.1982   26.3457 C   0  0  0  0  0  0  0  0  0  0  0  0
    7.2814  -14.0577   25.5061 C   0  0  0  0  0  0  0  0  0  0  0  0
    6.5421  -15.1726   24.8680 C   0  0  2  0  0  0  0  0  0  0  0  0
    6.1690  -16.1596   25.8611 N   0  0  0  0  0  0  0  0  0  0  0  0
    7.3626  -15.8265   23.7776 C   0  0  0  0  0  0  0  0  0  0  0  0
    7.9633  -16.8981   24.0448 O   0  0  0  0  0  0  0  0  0  0  0  0
    8.0857  -15.1070   20.1391 C   0  0  0  0  0  0  0  0  0  0  0  0
    8.2584  -15.8143   21.4771 C   0  0  2  0  0  0  0  0  0  0  0  0
    7.4370  -15.2280   22.4959 N   0  0  0  0  0  0  0  0  0  0  0  0
    9.7012  -15.8355   21.8689 C   0  0  0  0  0  0  0  0  0  0  0  0
   10.2587  -14.7642   22.1733 O   0  0  0  0  0  0  0  0  0  0  0  0
   11.7098  -17.7934   24.5399 C   0  0  0  0  0  0  0  0  0  0  0  0
   12.0434  -18.2390   23.1492 C   0  0  1  0  0  0  0  0  0  0  0  0
   11.1759  -19.2598   22.7432 O   0  0  0  0  0  0  0  0  0  0  0  0
   11.8587  -17.1192   22.1215 C   0  0  2  0  0  0  0  0  0  0  0  0
   10.4216  -17.0384   21.8955 N   0  0  0  0  0  0  0  0  0  0  0  0
   12.5972  -17.4457   20.9027 C   0  0  0  0  0  0  0  0  0  0  0  0
   11.9970  -17.8979   19.9046 O   0  0  0  0  0  0  0  0  0  0  0  0
   13.9614  -17.2571   20.8450 O   0  0  0  0  0  0  0  0  0  0  0  0
  2  1  1  0
  3  4  1  0
  3  2  1  0
  4  5  1  0
  5  7  1  0
  5  6  1  1
  7 11  1  0
  7  8  2  0
 10  9  1  6
 10 12  1  0
 11 10  1  0
 12 18  1  0
 12 13  2  0
 15 17  1  0
 15 14  1  1
 16 15  1  0
 17 19  1  0
 17 18  1  6
 19 21  1  0
 20 19  2  0
M  END
$$$$
