MAT.pdb
     RDKit          3D

 21 20  0  0  1  0  0  0  0  0999 V2000
    6.8852  -11.5606   25.9113 C   0  0  0  0  0  0  0  0  0  0  0  0
    5.9031  -12.8943   26.5496 S   0  0  0  0  0  0  0  0  0  0  0  0
    6.1078  -14.4900   25.7991 C   0  0  0  0  0  0  0  0  0  0  0  0
    7.0202  -14.5697   24.6130 C   0  0  0  0  0  0  0  0  0  0  0  0
    7.0900  -15.9419   24.0573 C   0  0  2  0  0  0  0  0  0  0  0  0
    6.0772  -16.7809   24.6656 N   0  0  0  0  0  0  0  0  0  0  0  0
    8.4578  -16.5539   24.2682 C   0  0  0  0  0  0  0  0  0  0  0  0
    8.5463  -17.5841   24.9832 O   0  0  0  0  0  0  0  0  0  0  0  0
   11.8732  -16.0278   22.7723 C   0  0  0  0  0  0  0  0  0  0  0  0
   10.8755  -16.6007   23.7705 C   0  0  2  0  0  0  0  0  0  0  0  0
    9.5953  -15.9633   23.6648 N   0  0  0  0  0  0  0  0  0  0  0  0
   11.4260  -16.5177   25.1582 C   0  0  0  0  0  0  0  0  0  0  0  0
   12.5948  -16.8944   25.3662 O   0  0  0  0  0  0  0  0  0  0  0  0
   10.4174  -13.4865   27.6531 C   0  0  0  0  0  0  0  0  0  0  0  0
   10.2111  -14.8520   28.2333 C   0  0  1  0  0  0  0  0  0  0  0  0
    8.9053  -15.2931   27.9894 O   0  0  0  0  0  0  0  0  0  0  0  0
   11.1195  -15.9006   27.5854 C   0  0  2  0  0  0  0  0  0  0  0  0
   10.6450  -16.0249   26.2135 N   0  0  0  0  0  0  0  0  0  0  0  0
   11.0220  -17.1579   28.3251 C   0  0  0  0  0  0  0  0  0  0  0  0
   10.4906  -18.1587   27.7988 O   0  0  0  0  0  0  0  0  0  0  0  0
   11.5156  -17.2492   29.6088 O   0  0  0  0  0  0  0  0  0  0  0  0
  2  1  1  0
  3  4  1  0
  3  2  1  0
  4  5  1  0
  5  7  1  0
  5  6  1  1
  7 11  1  0
  7  8  2  0
 10  9  1  6
 10 12  1  0
 11 10  1  0
 12 18  1  0
 12 13  2  0
 15 17  1  0
 15 14  1  6
 16 15  1  0
 17 19  1  0
 17 18  1  6
 19 21  1  0
 20 19  2  0
M  END
$$$$
