MAT.pdb
     RDKit          3D

 21 20  0  0  1  0  0  0  0  0999 V2000
    6.4347  -10.5095   26.5322 C   0  0  0  0  0  0  0  0  0  0  0  0
    7.0748  -11.9413   25.7008 S   0  0  0  0  0  0  0  0  0  0  0  0
    5.9017  -13.1428   25.1250 C   0  0  0  0  0  0  0  0  0  0  0  0
    6.4557  -14.4191   24.5687 C   0  0  0  0  0  0  0  0  0  0  0  0
    7.8862  -14.2907   24.2030 C   0  0  2  0  0  0  0  0  0  0  0  0
    8.0378  -14.3009   22.7620 N   0  0  0  0  0  0  0  0  0  0  0  0
    8.7139  -15.4005   24.8139 C   0  0  0  0  0  0  0  0  0  0  0  0
    8.7110  -15.5272   26.0646 O   0  0  0  0  0  0  0  0  0  0  0  0
   10.9528  -18.1424   23.4857 C   0  0  0  0  0  0  0  0  0  0  0  0
   10.1612  -17.3820   24.5417 C   0  0  2  0  0  0  0  0  0  0  0  0
    9.4646  -16.2627   23.9774 N   0  0  0  0  0  0  0  0  0  0  0  0
   11.0584  -16.9708   25.6649 C   0  0  0  0  0  0  0  0  0  0  0  0
   12.0562  -16.2692   25.4129 O   0  0  0  0  0  0  0  0  0  0  0  0
   11.1744  -14.6450   28.1909 C   0  0  0  0  0  0  0  0  0  0  0  0
   11.0249  -15.9633   28.8864 C   0  0  1  0  0  0  0  0  0  0  0  0
    9.6726  -16.3102   28.9878 O   0  0  0  0  0  0  0  0  0  0  0  0
   11.6784  -17.1076   28.1068 C   0  0  2  0  0  0  0  0  0  0  0  0
   10.7874  -17.3649   26.9831 N   0  0  0  0  0  0  0  0  0  0  0  0
   11.8274  -18.2721   28.9782 C   0  0  0  0  0  0  0  0  0  0  0  0
   11.1400  -19.2969   28.7829 O   0  0  0  0  0  0  0  0  0  0  0  0
   12.7274  -18.2486   30.0219 O   0  0  0  0  0  0  0  0  0  0  0  0
  2  1  1  0
  3  4  1  0
  3  2  1  0
  4  5  1  0
  5  7  1  0
  5  6  1  6
  7 11  1  0
  7  8  2  0
 10  9  1  6
 10 12  1  0
 11 10  1  0
 12 18  1  0
 12 13  2  0
 15 17  1  0
 15 14  1  6
 16 15  1  0
 17 19  1  0
 17 18  1  6
 19 21  1  0
 20 19  2  0
M  END
$$$$
