MAT.pdb
     RDKit          3D

 21 20  0  0  1  0  0  0  0  0999 V2000
    8.3527  -11.5566   19.9749 C   0  0  0  0  0  0  0  0  0  0  0  0
    8.4843  -12.7619   18.6784 S   0  0  0  0  0  0  0  0  0  0  0  0
    7.4385  -14.1925   18.7852 C   0  0  0  0  0  0  0  0  0  0  0  0
    6.9852  -14.6005   20.1540 C   0  0  0  0  0  0  0  0  0  0  0  0
    7.5931  -15.8830   20.5809 C   0  0  2  0  0  0  0  0  0  0  0  0
    6.9222  -16.9943   19.9372 N   0  0  0  0  0  0  0  0  0  0  0  0
    7.5337  -16.0487   22.0839 C   0  0  0  0  0  0  0  0  0  0  0  0
    6.4158  -15.9517   22.6507 O   0  0  0  0  0  0  0  0  0  0  0  0
    9.5245  -17.6928   24.6622 C   0  0  0  0  0  0  0  0  0  0  0  0
    8.6615  -16.5144   24.2301 C   0  0  2  0  0  0  0  0  0  0  0  0
    8.7209  -16.3062   22.8125 N   0  0  0  0  0  0  0  0  0  0  0  0
    9.0458  -15.2853   24.9899 C   0  0  0  0  0  0  0  0  0  0  0  0
   10.0862  -14.6799   24.6700 O   0  0  0  0  0  0  0  0  0  0  0  0
    6.7619  -12.2425   25.8202 C   0  0  0  0  0  0  0  0  0  0  0  0
    7.2484  -12.9189   27.0651 C   0  0  1  0  0  0  0  0  0  0  0  0
    6.3470  -13.9126   27.4640 O   0  0  0  0  0  0  0  0  0  0  0  0
    8.5795  -13.6439   26.8486 C   0  0  2  0  0  0  0  0  0  0  0  0
    8.2526  -14.8156   26.0467 N   0  0  0  0  0  0  0  0  0  0  0  0
    9.1608  -13.9983   28.1424 C   0  0  0  0  0  0  0  0  0  0  0  0
    9.5851  -13.1066   28.9077 O   0  0  0  0  0  0  0  0  0  0  0  0
    9.2452  -15.3189   28.5283 O   0  0  0  0  0  0  0  0  0  0  0  0
  2  1  1  0
  3  4  1  0
  3  2  1  0
  4  5  1  0
  5  7  1  0
  5  6  1  6
  7 11  1  0
  7  8  2  0
 10  9  1  6
 10 12  1  0
 11 10  1  0
 12 18  1  0
 12 13  2  0
 15 17  1  0
 15 14  1  6
 16 15  1  0
 17 19  1  0
 17 18  1  6
 19 21  1  0
 20 19  2  0
M  END
$$$$
