MAT.pdb
     RDKit          3D

 21 20  0  0  1  0  0  0  0  0999 V2000
    7.1866  -10.7827   26.7613 C   0  0  0  0  0  0  0  0  0  0  0  0
    6.0007  -11.8362   27.5581 S   0  0  0  0  0  0  0  0  0  0  0  0
    5.7716  -13.4625   26.8843 C   0  0  0  0  0  0  0  0  0  0  0  0
    6.8575  -13.9874   25.9951 C   0  0  0  0  0  0  0  0  0  0  0  0
    6.4765  -15.2654   25.3485 C   0  0  2  0  0  0  0  0  0  0  0  0
    6.3238  -16.3056   26.3457 N   0  0  0  0  0  0  0  0  0  0  0  0
    7.5001  -15.6891   24.3176 C   0  0  0  0  0  0  0  0  0  0  0  0
    8.3135  -16.5975   24.6235 O   0  0  0  0  0  0  0  0  0  0  0  0
    8.2421  -14.7673   20.7267 C   0  0  0  0  0  0  0  0  0  0  0  0
    8.4158  -15.5363   22.0300 C   0  0  2  0  0  0  0  0  0  0  0  0
    7.5217  -15.0637   23.0468 N   0  0  0  0  0  0  0  0  0  0  0  0
    9.8422  -15.4850   22.4752 C   0  0  0  0  0  0  0  0  0  0  0  0
   10.3128  -14.4000   22.8659 O   0  0  0  0  0  0  0  0  0  0  0  0
   11.3377  -17.8260   25.1140 C   0  0  0  0  0  0  0  0  0  0  0  0
   12.0696  -17.9641   23.8143 C   0  0  1  0  0  0  0  0  0  0  0  0
   11.4774  -18.9565   23.0245 O   0  0  0  0  0  0  0  0  0  0  0  0
   12.0045  -16.6861   22.9736 C   0  0  2  0  0  0  0  0  0  0  0  0
   10.6435  -16.6358   22.4560 N   0  0  0  0  0  0  0  0  0  0  0  0
   13.0041  -16.7485   21.9085 C   0  0  0  0  0  0  0  0  0  0  0  0
   12.6580  -16.9955   20.7336 O   0  0  0  0  0  0  0  0  0  0  0  0
   14.3360  -16.5353   22.1919 O   0  0  0  0  0  0  0  0  0  0  0  0
  2  1  1  0
  3  4  1  0
  3  2  1  0
  4  5  1  0
  5  7  1  0
  5  6  1  1
  7 11  1  0
  7  8  2  0
 10  9  1  6
 10 12  1  0
 11 10  1  0
 12 18  1  0
 12 13  2  0
 15 17  1  0
 15 14  1  1
 16 15  1  0
 17 19  1  0
 17 18  1  6
 19 21  1  0
 20 19  2  0
M  END
$$$$
