MAT.pdb
     RDKit          3D

 21 20  0  0  1  0  0  0  0  0999 V2000
    5.3845  -11.5747   25.9374 C   0  0  0  0  0  0  0  0  0  0  0  0
    7.1501  -11.7276   25.8355 S   0  0  0  0  0  0  0  0  0  0  0  0
    7.8054  -12.7900   24.5733 C   0  0  0  0  0  0  0  0  0  0  0  0
    6.8151  -13.5582   23.7519 C   0  0  0  0  0  0  0  0  0  0  0  0
    7.4721  -14.3382   22.6764 C   0  0  2  0  0  0  0  0  0  0  0  0
    6.4771  -14.8980   21.7841 N   0  0  0  0  0  0  0  0  0  0  0  0
    8.3327  -15.4456   23.2447 C   0  0  0  0  0  0  0  0  0  0  0  0
    7.7830  -16.3197   23.9617 O   0  0  0  0  0  0  0  0  0  0  0  0
   11.6539  -16.9297   22.5905 C   0  0  0  0  0  0  0  0  0  0  0  0
   10.5488  -16.4921   23.5430 C   0  0  2  0  0  0  0  0  0  0  0  0
    9.7204  -15.4759   22.9619 N   0  0  0  0  0  0  0  0  0  0  0  0
   11.1332  -16.0551   24.8481 C   0  0  0  0  0  0  0  0  0  0  0  0
   12.0636  -15.2271   24.8444 O   0  0  0  0  0  0  0  0  0  0  0  0
   10.3485  -13.9383   27.3634 C   0  0  0  0  0  0  0  0  0  0  0  0
   10.3118  -15.2793   28.0299 C   0  0  1  0  0  0  0  0  0  0  0  0
    9.0330  -15.8392   27.9283 O   0  0  0  0  0  0  0  0  0  0  0  0
   11.2487  -16.2867   27.3579 C   0  0  2  0  0  0  0  0  0  0  0  0
   10.6468  -16.5649   26.0606 N   0  0  0  0  0  0  0  0  0  0  0  0
   11.3590  -17.4840   28.1896 C   0  0  0  0  0  0  0  0  0  0  0  0
   10.8468  -18.5603   27.8152 O   0  0  0  0  0  0  0  0  0  0  0  0
   12.0288  -17.4350   29.3933 O   0  0  0  0  0  0  0  0  0  0  0  0
  2  1  1  0
  3  4  1  0
  3  2  1  0
  4  5  1  0
  5  7  1  0
  5  6  1  6
  7 11  1  0
  7  8  2  0
 10  9  1  6
 10 12  1  0
 11 10  1  0
 12 18  1  0
 12 13  2  0
 15 17  1  0
 15 14  1  6
 16 15  1  0
 17 19  1  0
 17 18  1  6
 19 21  1  0
 20 19  2  0
M  END
$$$$
