MAT.pdb
     RDKit          3D

 21 20  0  0  1  0  0  0  0  0999 V2000
    7.6053  -11.2955   27.7345 C   0  0  0  0  0  0  0  0  0  0  0  0
    5.9390  -11.5286   27.1687 S   0  0  0  0  0  0  0  0  0  0  0  0
    5.5643  -13.0537   26.3411 C   0  0  0  0  0  0  0  0  0  0  0  0
    6.6719  -13.6903   25.5580 C   0  0  0  0  0  0  0  0  0  0  0  0
    6.2476  -14.9645   24.9311 C   0  0  2  0  0  0  0  0  0  0  0  0
    5.9541  -15.9513   25.9507 N   0  0  0  0  0  0  0  0  0  0  0  0
    7.3075  -15.4972   23.9915 C   0  0  0  0  0  0  0  0  0  0  0  0
    8.1160  -16.3545   24.4293 O   0  0  0  0  0  0  0  0  0  0  0  0
    8.2688  -14.9033   20.3846 C   0  0  0  0  0  0  0  0  0  0  0  0
    8.2779  -15.6267   21.7251 C   0  0  2  0  0  0  0  0  0  0  0  0
    7.3674  -15.0269   22.6566 N   0  0  0  0  0  0  0  0  0  0  0  0
    9.6691  -15.6910   22.2692 C   0  0  0  0  0  0  0  0  0  0  0  0
   10.1989  -14.6467   22.6937 O   0  0  0  0  0  0  0  0  0  0  0  0
   10.9033  -18.0917   25.0193 C   0  0  0  0  0  0  0  0  0  0  0  0
   11.6372  -18.3184   23.7332 C   0  0  1  0  0  0  0  0  0  0  0  0
   10.9652  -19.2627   22.9485 O   0  0  0  0  0  0  0  0  0  0  0  0
   11.7051  -17.0532   22.8736 C   0  0  2  0  0  0  0  0  0  0  0  0
   10.3724  -16.9037   22.3042 N   0  0  0  0  0  0  0  0  0  0  0  0
   12.7349  -17.2120   21.8481 C   0  0  0  0  0  0  0  0  0  0  0  0
   12.4146  -17.4713   20.6686 O   0  0  0  0  0  0  0  0  0  0  0  0
   14.0673  -17.0769   22.1742 O   0  0  0  0  0  0  0  0  0  0  0  0
  2  1  1  0
  3  4  1  0
  3  2  1  0
  4  5  1  0
  5  7  1  0
  5  6  1  1
  7 11  1  0
  7  8  2  0
 10  9  1  6
 10 12  1  0
 11 10  1  0
 12 18  1  0
 12 13  2  0
 15 17  1  0
 15 14  1  1
 16 15  1  0
 17 19  1  0
 17 18  1  6
 19 21  1  0
 20 19  2  0
M  END
$$$$
