CVR.pdb
     RDKit          3D

 25 24  0  0  1  0  0  0  0  0999 V2000
   25.9631  -20.2472  -16.1162 N   0  0  0  0  0  0  0  0  0  0  0  0
   25.2625  -21.3151  -15.4431 C   0  0  1  0  0  0  0  0  0  0  0  0
   26.2536  -22.1889  -14.7205 C   0  0  0  0  0  0  0  0  0  0  0  0
   27.4360  -22.9496  -15.8485 S   0  0  0  0  0  0  0  0  0  0  0  0
   24.1874  -20.8204  -14.5598 C   0  0  0  0  0  0  0  0  0  0  0  0
   24.3971  -19.7075  -13.9887 O   0  0  0  0  0  0  0  0  0  0  0  0
   21.0275  -19.6135  -15.5573 C   0  0  0  0  0  0  0  0  0  0  0  0
   21.6411  -19.5426  -14.2018 C   0  0  2  0  0  0  0  0  0  0  0  0
   22.8897  -18.6514  -14.2591 C   0  0  0  0  0  0  0  0  0  0  0  0
   21.9199  -20.8375  -13.5312 C   0  0  2  0  0  0  0  0  0  0  0  0
   22.9790  -21.4900  -14.3205 N   0  0  0  0  0  0  0  0  0  0  0  0
   20.7742  -21.7426  -13.3578 C   0  0  0  0  0  0  0  0  0  0  0  0
   19.7758  -21.5830  -14.1479 O   0  0  0  0  0  0  0  0  0  0  0  0
   17.7833  -25.5036   -8.3787 N   0  0  0  0  0  0  0  0  0  0  0  0
   18.2398  -25.0475   -7.1208 C   0  0  0  0  0  0  0  0  0  0  0  0
   18.1592  -25.8303   -6.0965 N   0  0  0  0  0  0  0  0  0  0  0  0
   18.7874  -23.7560   -6.9280 N   0  0  0  0  0  0  0  0  0  0  0  0
   18.9866  -22.8157   -7.9870 C   0  0  0  0  0  0  0  0  0  0  0  0
   19.0635  -23.4254   -9.3647 C   0  0  0  0  0  0  0  0  0  0  0  0
   19.1830  -22.4411  -10.4744 C   0  0  0  0  0  0  0  0  0  0  0  0
   19.3588  -23.0962  -11.8262 C   0  0  2  0  0  0  0  0  0  0  0  0
   20.6474  -22.7777  -12.4127 N   0  0  0  0  0  0  0  0  0  0  0  0
   18.2395  -22.7450  -12.7287 C   0  0  0  0  0  0  0  0  0  0  0  0
   17.5705  -23.6747  -13.2321 O   0  0  0  0  0  0  0  0  0  0  0  0
   17.8989  -21.4436  -13.0418 O   0  0  0  0  0  0  0  0  0  0  0  0
  2  1  1  1
  2  3  1  0
  3  4  1  0
  5  2  1  0
  6  5  2  0
  8  7  1  6
  8  9  1  0
  8 10  1  0
 10 11  1  6
 11  5  1  0
 12 10  1  0
 12 22  1  0
 13 12  2  0
 15 16  2  0
 15 14  1  0
 17 15  1  0
 18 17  1  0
 19 18  1  0
 20 19  1  0
 21 20  1  1
 21 22  1  0
 21 23  1  0
 23 25  1  0
 24 23  2  0
M  END
$$$$
