CVR.pdb
     RDKit          3D

 25 24  0  0  1  0  0  0  0  0999 V2000
   26.3797  -21.5845  -15.3096 N   0  0  0  0  0  0  0  0  0  0  0  0
   25.1209  -22.2708  -15.4799 C   0  0  1  0  0  0  0  0  0  0  0  0
   25.2634  -23.7006  -15.0290 C   0  0  0  0  0  0  0  0  0  0  0  0
   26.4640  -24.6082  -16.0208 S   0  0  0  0  0  0  0  0  0  0  0  0
   23.9999  -21.5728  -14.8189 C   0  0  0  0  0  0  0  0  0  0  0  0
   24.2708  -20.9795  -13.7311 O   0  0  0  0  0  0  0  0  0  0  0  0
   21.3724  -19.2569  -16.6135 C   0  0  0  0  0  0  0  0  0  0  0  0
   21.7006  -19.3822  -15.1660 C   0  0  2  0  0  0  0  0  0  0  0  0
   23.0429  -18.6897  -14.8913 C   0  0  0  0  0  0  0  0  0  0  0  0
   21.6604  -20.7510  -14.5926 C   0  0  2  0  0  0  0  0  0  0  0  0
   22.6871  -21.5275  -15.3091 N   0  0  0  0  0  0  0  0  0  0  0  0
   20.3633  -21.4415  -14.6424 C   0  0  0  0  0  0  0  0  0  0  0  0
   19.9842  -21.8960  -15.7810 O   0  0  0  0  0  0  0  0  0  0  0  0
   18.1403  -26.5541   -8.6074 N   0  0  0  0  0  0  0  0  0  0  0  0
   18.6075  -26.7246   -9.9308 C   0  0  0  0  0  0  0  0  0  0  0  0
   18.8676  -27.9142  -10.3617 N   0  0  0  0  0  0  0  0  0  0  0  0
   18.8071  -25.6389  -10.8175 N   0  0  0  0  0  0  0  0  0  0  0  0
   18.5393  -24.2770  -10.4724 C   0  0  0  0  0  0  0  0  0  0  0  0
   18.8282  -23.2810  -11.5680 C   0  0  0  0  0  0  0  0  0  0  0  0
   17.9300  -23.3795  -12.7504 C   0  0  0  0  0  0  0  0  0  0  0  0
   18.1968  -22.3075  -13.7834 C   0  0  2  0  0  0  0  0  0  0  0  0
   19.4801  -21.6646  -13.5695 N   0  0  0  0  0  0  0  0  0  0  0  0
   17.0879  -21.3278  -13.8212 C   0  0  0  0  0  0  0  0  0  0  0  0
   17.3195  -20.1564  -13.4478 O   0  0  0  0  0  0  0  0  0  0  0  0
   15.8127  -21.6437  -14.2473 O   0  0  0  0  0  0  0  0  0  0  0  0
  2  1  1  1
  2  3  1  0
  3  4  1  0
  5  2  1  0
  6  5  2  0
  8  7  1  6
  8  9  1  0
  8 10  1  0
 10 11  1  6
 11  5  1  0
 12 10  1  0
 12 22  1  0
 13 12  2  0
 15 16  2  0
 15 14  1  0
 17 15  1  0
 18 17  1  0
 19 18  1  0
 20 19  1  0
 21 20  1  1
 21 22  1  0
 21 23  1  0
 23 25  1  0
 24 23  2  0
M  END
$$$$
