CVR.pdb
     RDKit          3D

 25 24  0  0  1  0  0  0  0  0999 V2000
   14.1410  -13.8556  -12.4177 N   0  0  0  0  0  0  0  0  0  0  0  0
   15.4156  -13.1793  -12.4688 C   0  0  1  0  0  0  0  0  0  0  0  0
   16.2816  -13.8187  -13.5221 C   0  0  0  0  0  0  0  0  0  0  0  0
   17.0597  -15.3339  -12.9324 S   0  0  0  0  0  0  0  0  0  0  0  0
   15.2772  -11.7205  -12.6520 C   0  0  0  0  0  0  0  0  0  0  0  0
   14.4147  -11.3403  -13.5006 O   0  0  0  0  0  0  0  0  0  0  0  0
   15.2491   -7.2416  -10.8986 C   0  0  0  0  0  0  0  0  0  0  0  0
   15.3592   -8.7265  -10.9406 C   0  0  2  0  0  0  0  0  0  0  0  0
   16.2282   -9.2013   -9.7676 C   0  0  0  0  0  0  0  0  0  0  0  0
   15.7984   -9.3231  -12.2272 C   0  0  2  0  0  0  0  0  0  0  0  0
   16.0229  -10.7547  -11.9615 N   0  0  0  0  0  0  0  0  0  0  0  0
   16.9853   -8.7225  -12.8536 C   0  0  0  0  0  0  0  0  0  0  0  0
   18.1264   -9.0055  -12.3394 O   0  0  0  0  0  0  0  0  0  0  0  0
   20.1580   -8.3229  -20.7052 N   0  0  0  0  0  0  0  0  0  0  0  0
   18.9451   -8.2188  -19.9863 C   0  0  0  0  0  0  0  0  0  0  0  0
   17.8323   -8.5002  -20.5788 N   0  0  0  0  0  0  0  0  0  0  0  0
   18.8917   -7.8146  -18.6304 N   0  0  0  0  0  0  0  0  0  0  0  0
   20.0361   -7.3853  -17.8878 C   0  0  0  0  0  0  0  0  0  0  0  0
   19.7653   -7.0746  -16.4367 C   0  0  0  0  0  0  0  0  0  0  0  0
   18.4631   -7.5813  -15.9248 C   0  0  0  0  0  0  0  0  0  0  0  0
   18.2639   -7.3094  -14.4505 C   0  0  2  0  0  0  0  0  0  0  0  0
   17.0123   -7.8628  -13.9676 N   0  0  0  0  0  0  0  0  0  0  0  0
   18.3742   -5.8613  -14.1645 C   0  0  0  0  0  0  0  0  0  0  0  0
   17.3195   -5.1980  -14.0512 O   0  0  0  0  0  0  0  0  0  0  0  0
   19.5823   -5.2084  -14.0176 O   0  0  0  0  0  0  0  0  0  0  0  0
  2  1  1  6
  2  3  1  0
  3  4  1  0
  5  2  1  0
  6  5  2  0
  8  7  1  6
  8  9  1  0
  8 10  1  0
 10 11  1  1
 11  5  1  0
 12 10  1  0
 12 22  1  0
 13 12  2  0
 15 16  2  0
 15 14  1  0
 17 15  1  0
 18 17  1  0
 19 18  1  0
 20 19  1  0
 21 20  1  6
 21 22  1  0
 21 23  1  0
 23 25  1  0
 24 23  2  0
M  END
$$$$
