CVR.pdb
     RDKit          3D

 25 24  0  0  1  0  0  0  0  0999 V2000
   25.7345  -20.4880   -8.6013 N   0  0  0  0  0  0  0  0  0  0  0  0
   24.8891  -20.9580   -9.6732 C   0  0  1  0  0  0  0  0  0  0  0  0
   23.4464  -20.7054   -9.3227 C   0  0  0  0  0  0  0  0  0  0  0  0
   22.9349  -21.6191   -7.8555 S   0  0  0  0  0  0  0  0  0  0  0  0
   25.2659  -20.3906  -10.9836 C   0  0  0  0  0  0  0  0  0  0  0  0
   25.4996  -19.1444  -11.0099 O   0  0  0  0  0  0  0  0  0  0  0  0
   27.6009  -20.7669  -15.1724 C   0  0  0  0  0  0  0  0  0  0  0  0
   26.8850  -21.3112  -13.9849 C   0  0  2  0  0  0  0  0  0  0  0  0
   26.3844  -22.7272  -14.3030 C   0  0  0  0  0  0  0  0  0  0  0  0
   25.8093  -20.4632  -13.4124 C   0  0  2  0  0  0  0  0  0  0  0  0
   25.3781  -21.1283  -12.1706 N   0  0  0  0  0  0  0  0  0  0  0  0
   24.6546  -20.1977  -14.2830 C   0  0  0  0  0  0  0  0  0  0  0  0
   23.7343  -21.0910  -14.3254 O   0  0  0  0  0  0  0  0  0  0  0  0
   18.6669  -14.2029  -16.6735 N   0  0  0  0  0  0  0  0  0  0  0  0
   19.7069  -14.2761  -15.7186 C   0  0  0  0  0  0  0  0  0  0  0  0
   19.7240  -13.4376  -14.7362 N   0  0  0  0  0  0  0  0  0  0  0  0
   20.7444  -15.2370  -15.7896 N   0  0  0  0  0  0  0  0  0  0  0  0
   21.1525  -15.8714  -17.0047 C   0  0  0  0  0  0  0  0  0  0  0  0
   21.5989  -17.3039  -16.8484 C   0  0  0  0  0  0  0  0  0  0  0  0
   22.7378  -17.5015  -15.9110 C   0  0  0  0  0  0  0  0  0  0  0  0
   23.2370  -18.9288  -15.8837 C   0  0  2  0  0  0  0  0  0  0  0  0
   24.4409  -19.0604  -15.0841 N   0  0  0  0  0  0  0  0  0  0  0  0
   23.4279  -19.4442  -17.2580 C   0  0  0  0  0  0  0  0  0  0  0  0
   24.5417  -19.2787  -17.8033 O   0  0  0  0  0  0  0  0  0  0  0  0
   22.4380  -20.0970  -17.9661 O   0  0  0  0  0  0  0  0  0  0  0  0
  2  1  1  1
  2  3  1  0
  3  4  1  0
  5  2  1  0
  6  5  2  0
  8  7  1  6
  8  9  1  0
  8 10  1  0
 10 11  1  1
 11  5  1  0
 12 10  1  0
 12 22  1  0
 13 12  2  0
 15 16  2  0
 15 14  1  0
 17 15  1  0
 18 17  1  0
 19 18  1  0
 20 19  1  0
 21 20  1  6
 21 22  1  0
 21 23  1  0
 23 25  1  0
 24 23  2  0
M  END
$$$$
