CVR.pdb
     RDKit          3D

 25 24  0  0  1  0  0  0  0  0999 V2000
   28.9584  -19.7115  -15.8910 N   0  0  0  0  0  0  0  0  0  0  0  0
   28.3191  -19.1469  -14.7260 C   0  0  1  0  0  0  0  0  0  0  0  0
   27.8143  -17.7656  -15.0500 C   0  0  0  0  0  0  0  0  0  0  0  0
   27.1622  -16.9234  -13.5960 S   0  0  0  0  0  0  0  0  0  0  0  0
   27.2671  -20.0245  -14.1747 C   0  0  0  0  0  0  0  0  0  0  0  0
   26.5944  -20.6926  -15.0172 O   0  0  0  0  0  0  0  0  0  0  0  0
   25.1699  -22.2201  -10.2401 C   0  0  0  0  0  0  0  0  0  0  0  0
   26.0970  -21.2680  -10.9132 C   0  0  2  0  0  0  0  0  0  0  0  0
   26.0793  -19.9298  -10.1611 C   0  0  0  0  0  0  0  0  0  0  0  0
   25.9099  -21.0804  -12.3739 C   0  0  2  0  0  0  0  0  0  0  0  0
   26.9745  -20.1602  -12.8103 N   0  0  0  0  0  0  0  0  0  0  0  0
   24.5935  -20.5876  -12.8053 C   0  0  0  0  0  0  0  0  0  0  0  0
   24.4478  -19.3168  -12.9080 O   0  0  0  0  0  0  0  0  0  0  0  0
   19.0251  -21.8152  -19.5046 N   0  0  0  0  0  0  0  0  0  0  0  0
   18.4373  -20.8731  -18.6294 C   0  0  0  0  0  0  0  0  0  0  0  0
   17.3368  -20.2909  -18.9732 N   0  0  0  0  0  0  0  0  0  0  0  0
   19.0059  -20.5327  -17.3782 N   0  0  0  0  0  0  0  0  0  0  0  0
   20.2344  -21.0808  -16.8928 C   0  0  0  0  0  0  0  0  0  0  0  0
   20.6236  -20.6261  -15.5081 C   0  0  0  0  0  0  0  0  0  0  0  0
   21.9371  -21.1385  -15.0317 C   0  0  0  0  0  0  0  0  0  0  0  0
   22.2446  -20.7354  -13.6068 C   0  0  2  0  0  0  0  0  0  0  0  0
   23.4615  -21.3611  -13.1235 N   0  0  0  0  0  0  0  0  0  0  0  0
   21.0913  -21.0146  -12.7221 C   0  0  0  0  0  0  0  0  0  0  0  0
   21.0852  -22.0869  -12.0775 O   0  0  0  0  0  0  0  0  0  0  0  0
   20.0237  -20.1509  -12.5744 O   0  0  0  0  0  0  0  0  0  0  0  0
  2  1  1  6
  2  3  1  0
  3  4  1  0
  5  2  1  0
  6  5  2  0
  8  7  1  1
  8  9  1  0
  8 10  1  0
 10 11  1  1
 11  5  1  0
 12 10  1  0
 12 22  1  0
 13 12  2  0
 15 16  2  0
 15 14  1  0
 17 15  1  0
 18 17  1  0
 19 18  1  0
 20 19  1  0
 21 20  1  6
 21 22  1  0
 21 23  1  0
 23 25  1  0
 24 23  2  0
M  END
$$$$
