CVR.pdb
     RDKit          3D

 25 24  0  0  1  0  0  0  0  0999 V2000
   26.6923  -23.2022  -17.2226 N   0  0  0  0  0  0  0  0  0  0  0  0
   25.2508  -23.1237  -17.2015 C   0  0  1  0  0  0  0  0  0  0  0  0
   24.6708  -24.5100  -17.2987 C   0  0  0  0  0  0  0  0  0  0  0  0
   22.8699  -24.4986  -17.2253 S   0  0  0  0  0  0  0  0  0  0  0  0
   24.7403  -22.3717  -16.0376 C   0  0  0  0  0  0  0  0  0  0  0  0
   25.3907  -22.5006  -14.9564 O   0  0  0  0  0  0  0  0  0  0  0  0
   22.1648  -19.0153  -16.2374 C   0  0  0  0  0  0  0  0  0  0  0  0
   23.1227  -19.4069  -15.1660 C   0  0  2  0  0  0  0  0  0  0  0  0
   24.5104  -18.8407  -15.4983 C   0  0  0  0  0  0  0  0  0  0  0  0
   23.1846  -20.8508  -14.8266 C   0  0  2  0  0  0  0  0  0  0  0  0
   23.6085  -21.5444  -16.0553 N   0  0  0  0  0  0  0  0  0  0  0  0
   21.9513  -21.4499  -14.2957 C   0  0  0  0  0  0  0  0  0  0  0  0
   21.0389  -21.7617  -15.1424 O   0  0  0  0  0  0  0  0  0  0  0  0
   19.4311  -24.5165   -7.7814 N   0  0  0  0  0  0  0  0  0  0  0  0
   18.2521  -25.0848   -8.3161 C   0  0  0  0  0  0  0  0  0  0  0  0
   17.3446  -25.5317   -7.5130 N   0  0  0  0  0  0  0  0  0  0  0  0
   18.0164  -25.1894   -9.7083 N   0  0  0  0  0  0  0  0  0  0  0  0
   18.8802  -24.6283  -10.7006 C   0  0  0  0  0  0  0  0  0  0  0  0
   18.9770  -23.1232  -10.6734 C   0  0  0  0  0  0  0  0  0  0  0  0
   20.2967  -22.5773  -11.0919 C   0  0  0  0  0  0  0  0  0  0  0  0
   20.3428  -22.2070  -12.5575 C   0  0  2  0  0  0  0  0  0  0  0  0
   21.6547  -21.7246  -12.9475 N   0  0  0  0  0  0  0  0  0  0  0  0
   19.2766  -21.2345  -12.8866 C   0  0  0  0  0  0  0  0  0  0  0  0
   19.4656  -20.0304  -12.6044 O   0  0  0  0  0  0  0  0  0  0  0  0
   18.0857  -21.5913  -13.4882 O   0  0  0  0  0  0  0  0  0  0  0  0
  2  1  1  1
  2  3  1  0
  3  4  1  0
  5  2  1  0
  6  5  2  0
  8  7  1  6
  8  9  1  0
  8 10  1  0
 10 11  1  6
 11  5  1  0
 12 10  1  0
 12 22  1  0
 13 12  2  0
 15 16  2  0
 15 14  1  0
 17 15  1  0
 18 17  1  0
 19 18  1  0
 20 19  1  0
 21 20  1  1
 21 22  1  0
 21 23  1  0
 23 25  1  0
 24 23  2  0
M  END
$$$$
