CVR.pdb
     RDKit          3D

 25 24  0  0  1  0  0  0  0  0999 V2000
   28.3584  -18.9554  -15.5542 N   0  0  0  0  0  0  0  0  0  0  0  0
   27.3802  -18.5767  -14.5621 C   0  0  1  0  0  0  0  0  0  0  0  0
   26.4689  -17.5220  -15.1322 C   0  0  0  0  0  0  0  0  0  0  0  0
   27.1788  -15.8703  -15.0032 S   0  0  0  0  0  0  0  0  0  0  0  0
   26.6429  -19.7361  -14.0206 C   0  0  0  0  0  0  0  0  0  0  0  0
   26.4765  -20.7145  -14.8101 O   0  0  0  0  0  0  0  0  0  0  0  0
   25.0396  -20.1356   -9.9490 C   0  0  0  0  0  0  0  0  0  0  0  0
   25.6639  -21.1628  -10.8287 C   0  0  2  0  0  0  0  0  0  0  0  0
   27.1645  -21.2497  -10.5167 C   0  0  0  0  0  0  0  0  0  0  0  0
   25.4119  -21.0302  -12.2858 C   0  0  2  0  0  0  0  0  0  0  0  0
   26.1289  -19.8182  -12.7187 N   0  0  0  0  0  0  0  0  0  0  0  0
   24.0028  -20.9720  -12.7017 C   0  0  0  0  0  0  0  0  0  0  0  0
   23.5035  -19.8105  -12.9211 O   0  0  0  0  0  0  0  0  0  0  0  0
   17.5001  -26.2656  -16.2650 N   0  0  0  0  0  0  0  0  0  0  0  0
   17.0465  -24.9313  -16.1523 C   0  0  0  0  0  0  0  0  0  0  0  0
   15.8689  -24.6247  -16.5854 N   0  0  0  0  0  0  0  0  0  0  0  0
   17.8326  -23.9018  -15.5805 N   0  0  0  0  0  0  0  0  0  0  0  0
   19.1560  -24.1044  -15.0774 C   0  0  0  0  0  0  0  0  0  0  0  0
   19.7827  -22.8870  -14.4446 C   0  0  0  0  0  0  0  0  0  0  0  0
   21.1869  -23.0760  -13.9895 C   0  0  0  0  0  0  0  0  0  0  0  0
   21.7589  -21.8473  -13.3183 C   0  0  2  0  0  0  0  0  0  0  0  0
   23.1291  -22.0593  -12.8901 N   0  0  0  0  0  0  0  0  0  0  0  0
   20.8928  -21.4089  -12.2009 C   0  0  0  0  0  0  0  0  0  0  0  0
   21.1476  -21.8337  -11.0521 O   0  0  0  0  0  0  0  0  0  0  0  0
   19.8190  -20.5559  -12.3650 O   0  0  0  0  0  0  0  0  0  0  0  0
  2  1  1  6
  2  3  1  0
  3  4  1  0
  5  2  1  0
  6  5  2  0
  8  7  1  1
  8  9  1  0
  8 10  1  0
 10 11  1  1
 11  5  1  0
 12 10  1  0
 12 22  1  0
 13 12  2  0
 15 16  2  0
 15 14  1  0
 17 15  1  0
 18 17  1  0
 19 18  1  0
 20 19  1  0
 21 20  1  1
 21 22  1  0
 21 23  1  0
 23 25  1  0
 24 23  2  0
M  END
$$$$
