CVR.pdb
     RDKit          3D

 25 24  0  0  1  0  0  0  0  0999 V2000
   23.3614  -17.6061  -15.3811 N   0  0  0  0  0  0  0  0  0  0  0  0
   22.8382  -16.4908  -16.1341 C   0  0  1  0  0  0  0  0  0  0  0  0
   21.3804  -16.7247  -16.4308 C   0  0  0  0  0  0  0  0  0  0  0  0
   21.1371  -18.0313  -17.6482 S   0  0  0  0  0  0  0  0  0  0  0  0
   23.0852  -15.1937  -15.4728 C   0  0  0  0  0  0  0  0  0  0  0  0
   22.7190  -15.1017  -14.2620 O   0  0  0  0  0  0  0  0  0  0  0  0
   25.6992  -12.0939  -16.9280 C   0  0  0  0  0  0  0  0  0  0  0  0
   25.3102  -12.4569  -15.5366 C   0  0  2  0  0  0  0  0  0  0  0  0
   26.2767  -13.5244  -15.0048 C   0  0  0  0  0  0  0  0  0  0  0  0
   23.8927  -12.8430  -15.3233 C   0  0  2  0  0  0  0  0  0  0  0  0
   23.6853  -14.0856  -16.0873 N   0  0  0  0  0  0  0  0  0  0  0  0
   22.8812  -11.8396  -15.6863 C   0  0  0  0  0  0  0  0  0  0  0  0
   22.6232  -11.6918  -16.9346 O   0  0  0  0  0  0  0  0  0  0  0  0
   14.9176   -8.5042  -13.3433 N   0  0  0  0  0  0  0  0  0  0  0  0
   15.3135   -8.0281  -14.6143 C   0  0  0  0  0  0  0  0  0  0  0  0
   14.4585   -7.3961  -15.3477 N   0  0  0  0  0  0  0  0  0  0  0  0
   16.6196   -8.2146  -15.1282 N   0  0  0  0  0  0  0  0  0  0  0  0
   17.6343   -8.9648  -14.4552 C   0  0  0  0  0  0  0  0  0  0  0  0
   18.9474   -9.0516  -15.1927 C   0  0  0  0  0  0  0  0  0  0  0  0
   19.9350   -9.9911  -14.5955 C   0  0  0  0  0  0  0  0  0  0  0  0
   21.2629   -9.9881  -15.3195 C   0  0  2  0  0  0  0  0  0  0  0  0
   22.1540  -11.0134  -14.8091 N   0  0  0  0  0  0  0  0  0  0  0  0
   21.8827   -8.6448  -15.2730 C   0  0  0  0  0  0  0  0  0  0  0  0
   21.4951   -7.7848  -16.0948 O   0  0  0  0  0  0  0  0  0  0  0  0
   22.8664   -8.2957  -14.3685 O   0  0  0  0  0  0  0  0  0  0  0  0
  2  1  1  1
  2  3  1  0
  3  4  1  0
  5  2  1  0
  6  5  2  0
  8  7  1  6
  8  9  1  0
  8 10  1  0
 10 11  1  6
 11  5  1  0
 12 10  1  0
 12 22  1  0
 13 12  2  0
 15 16  2  0
 15 14  1  0
 17 15  1  0
 18 17  1  0
 19 18  1  0
 20 19  1  0
 21 20  1  1
 21 22  1  0
 21 23  1  0
 23 25  1  0
 24 23  2  0
M  END
$$$$
