CVR.pdb
     RDKit          3D

 25 24  0  0  1  0  0  0  0  0999 V2000
   31.6019  -16.9439  -19.9356 N   0  0  0  0  0  0  0  0  0  0  0  0
   30.2914  -17.5405  -19.8296 C   0  0  1  0  0  0  0  0  0  0  0  0
   30.3978  -19.0275  -20.0423 C   0  0  0  0  0  0  0  0  0  0  0  0
   28.8230  -19.8645  -19.7811 S   0  0  0  0  0  0  0  0  0  0  0  0
   29.6096  -17.1919  -18.5669 C   0  0  0  0  0  0  0  0  0  0  0  0
   30.3373  -17.1482  -17.5290 O   0  0  0  0  0  0  0  0  0  0  0  0
   26.1124  -14.9622  -18.3923 C   0  0  0  0  0  0  0  0  0  0  0  0
   27.1474  -15.1354  -17.3351 C   0  0  2  0  0  0  0  0  0  0  0  0
   28.2712  -14.1135  -17.5571 C   0  0  0  0  0  0  0  0  0  0  0  0
   27.6812  -16.5080  -17.1479 C   0  0  2  0  0  0  0  0  0  0  0  0
   28.2406  -16.9130  -18.4492 N   0  0  0  0  0  0  0  0  0  0  0  0
   26.7301  -17.5170  -16.6588 C   0  0  0  0  0  0  0  0  0  0  0  0
   25.9916  -18.0989  -17.5321 O   0  0  0  0  0  0  0  0  0  0  0  0
   23.4160  -23.4999  -12.4882 N   0  0  0  0  0  0  0  0  0  0  0  0
   22.8306  -22.5491  -11.6209 C   0  0  0  0  0  0  0  0  0  0  0  0
   21.6450  -22.7632  -11.1551 N   0  0  0  0  0  0  0  0  0  0  0  0
   23.4906  -21.3575  -11.2346 N   0  0  0  0  0  0  0  0  0  0  0  0
   24.7357  -20.9273  -11.7915 C   0  0  0  0  0  0  0  0  0  0  0  0
   24.6515  -20.4295  -13.2131 C   0  0  0  0  0  0  0  0  0  0  0  0
   25.6664  -19.4024  -13.5733 C   0  0  0  0  0  0  0  0  0  0  0  0
   25.4973  -18.8757  -14.9808 C   0  0  2  0  0  0  0  0  0  0  0  0
   26.5364  -17.9230  -15.3252 N   0  0  0  0  0  0  0  0  0  0  0  0
   24.1433  -18.3081  -15.1693 C   0  0  0  0  0  0  0  0  0  0  0  0
   23.2009  -19.0933  -15.4152 O   0  0  0  0  0  0  0  0  0  0  0  0
   23.8708  -16.9566  -15.0876 O   0  0  0  0  0  0  0  0  0  0  0  0
  2  1  1  1
  2  3  1  0
  3  4  1  0
  5  2  1  0
  6  5  2  0
  8  7  1  6
  8  9  1  0
  8 10  1  0
 10 11  1  6
 11  5  1  0
 12 10  1  0
 12 22  1  0
 13 12  2  0
 15 16  2  0
 15 14  1  0
 17 15  1  0
 18 17  1  0
 19 18  1  0
 20 19  1  0
 21 20  1  1
 21 22  1  0
 21 23  1  0
 23 25  1  0
 24 23  2  0
M  END
$$$$
