CVR.pdb
     RDKit          3D

 25 24  0  0  1  0  0  0  0  0999 V2000
   26.0655  -23.2516  -15.7245 N   0  0  0  0  0  0  0  0  0  0  0  0
   24.6389  -23.4545  -15.8149 C   0  0  1  0  0  0  0  0  0  0  0  0
   24.3307  -24.9224  -15.6801 C   0  0  0  0  0  0  0  0  0  0  0  0
   24.6638  -25.8280  -17.2025 S   0  0  0  0  0  0  0  0  0  0  0  0
   23.8854  -22.6226  -14.8552 C   0  0  0  0  0  0  0  0  0  0  0  0
   24.4546  -22.3895  -13.7460 O   0  0  0  0  0  0  0  0  0  0  0  0
   20.8303  -19.0583  -13.7640 C   0  0  0  0  0  0  0  0  0  0  0  0
   21.5407  -20.0257  -14.6462 C   0  0  2  0  0  0  0  0  0  0  0  0
   20.7285  -20.2248  -15.9336 C   0  0  0  0  0  0  0  0  0  0  0  0
   21.9276  -21.3216  -14.0340 C   0  0  2  0  0  0  0  0  0  0  0  0
   22.6107  -22.0881  -15.0905 N   0  0  0  0  0  0  0  0  0  0  0  0
   20.8398  -22.1147  -13.4429 C   0  0  0  0  0  0  0  0  0  0  0  0
   20.0167  -22.6759  -14.2516 O   0  0  0  0  0  0  0  0  0  0  0  0
   18.2094  -25.9515   -5.6009 N   0  0  0  0  0  0  0  0  0  0  0  0
   17.1415  -25.9552   -6.5275 C   0  0  0  0  0  0  0  0  0  0  0  0
   15.9970  -26.4368   -6.1719 N   0  0  0  0  0  0  0  0  0  0  0  0
   17.2693  -25.4503   -7.8441 N   0  0  0  0  0  0  0  0  0  0  0  0
   18.4602  -24.8348   -8.3426 C   0  0  0  0  0  0  0  0  0  0  0  0
   18.3356  -24.2524   -9.7285 C   0  0  0  0  0  0  0  0  0  0  0  0
   19.5457  -23.5334  -10.2119 C   0  0  0  0  0  0  0  0  0  0  0  0
   19.4044  -23.0311  -11.6314 C   0  0  2  0  0  0  0  0  0  0  0  0
   20.5966  -22.3318  -12.0737 N   0  0  0  0  0  0  0  0  0  0  0  0
   18.1900  -22.1970  -11.7743 C   0  0  0  0  0  0  0  0  0  0  0  0
   18.2131  -21.0337  -11.3146 O   0  0  0  0  0  0  0  0  0  0  0  0
   17.0351  -22.6401  -12.3886 O   0  0  0  0  0  0  0  0  0  0  0  0
  2  1  1  1
  2  3  1  0
  3  4  1  0
  5  2  1  0
  6  5  2  0
  8  7  1  1
  8  9  1  0
  8 10  1  0
 10 11  1  6
 11  5  1  0
 12 10  1  0
 12 22  1  0
 13 12  2  0
 15 16  2  0
 15 14  1  0
 17 15  1  0
 18 17  1  0
 19 18  1  0
 20 19  1  0
 21 20  1  1
 21 22  1  0
 21 23  1  0
 23 25  1  0
 24 23  2  0
M  END
$$$$
