CVR.pdb
     RDKit          3D

 25 24  0  0  1  0  0  0  0  0999 V2000
   28.2330  -20.8931  -15.7884 N   0  0  0  0  0  0  0  0  0  0  0  0
   26.9655  -20.3617  -15.3460 C   0  0  1  0  0  0  0  0  0  0  0  0
   25.9845  -20.3861  -16.4883 C   0  0  0  0  0  0  0  0  0  0  0  0
   24.9808  -18.8903  -16.5523 S   0  0  0  0  0  0  0  0  0  0  0  0
   26.4543  -21.0434  -14.1398 C   0  0  0  0  0  0  0  0  0  0  0  0
   26.5384  -22.3088  -14.1316 O   0  0  0  0  0  0  0  0  0  0  0  0
   25.5447  -21.2035   -9.3845 C   0  0  0  0  0  0  0  0  0  0  0  0
   25.8162  -20.5000  -10.6691 C   0  0  2  0  0  0  0  0  0  0  0  0
   25.2827  -19.0633  -10.5801 C   0  0  0  0  0  0  0  0  0  0  0  0
   25.3601  -21.1803  -11.9074 C   0  0  2  0  0  0  0  0  0  0  0  0
   25.8957  -20.3921  -13.0310 N   0  0  0  0  0  0  0  0  0  0  0  0
   23.9089  -21.3661  -12.0532 C   0  0  0  0  0  0  0  0  0  0  0  0
   23.2873  -20.5483  -12.8222 O   0  0  0  0  0  0  0  0  0  0  0  0
   16.1303  -24.2645   -9.5049 N   0  0  0  0  0  0  0  0  0  0  0  0
   17.2028  -25.1844   -9.4584 C   0  0  0  0  0  0  0  0  0  0  0  0
   16.9757  -26.4335   -9.6962 N   0  0  0  0  0  0  0  0  0  0  0  0
   18.5311  -24.7964   -9.1587 N   0  0  0  0  0  0  0  0  0  0  0  0
   18.9354  -23.4367   -8.9765 C   0  0  0  0  0  0  0  0  0  0  0  0
   19.5770  -22.8027  -10.1857 C   0  0  0  0  0  0  0  0  0  0  0  0
   21.0650  -22.7898  -10.1650 C   0  0  0  0  0  0  0  0  0  0  0  0
   21.6670  -22.2514  -11.4437 C   0  0  2  0  0  0  0  0  0  0  0  0
   23.1147  -22.3521  -11.4386 N   0  0  0  0  0  0  0  0  0  0  0  0
   21.2108  -20.8660  -11.6956 C   0  0  0  0  0  0  0  0  0  0  0  0
   21.6792  -19.9496  -10.9843 O   0  0  0  0  0  0  0  0  0  0  0  0
   20.2947  -20.5369  -12.6754 O   0  0  0  0  0  0  0  0  0  0  0  0
  2  1  1  6
  2  3  1  0
  3  4  1  0
  5  2  1  0
  6  5  2  0
  8  7  1  1
  8  9  1  0
  8 10  1  0
 10 11  1  6
 11  5  1  0
 12 10  1  0
 12 22  1  0
 13 12  2  0
 15 16  2  0
 15 14  1  0
 17 15  1  0
 18 17  1  0
 19 18  1  0
 20 19  1  0
 21 20  1  1
 21 22  1  0
 21 23  1  0
 23 25  1  0
 24 23  2  0
M  END
$$$$
