ADL.pdb
     RDKit          3D

 22 21  0  0  1  0  0  0  0  0999 V2000
    7.6191  -12.2641   19.6222 C   0  0  0  0  0  0  0  0  0  0  0  0
    8.4985  -13.4753   19.4051 C   0  0  2  0  0  0  0  0  0  0  0  0
    8.1318  -14.1031   18.1522 N   0  0  0  0  0  0  0  0  0  0  0  0
    8.2926  -14.3950   20.5534 C   0  0  0  0  0  0  0  0  0  0  0  0
    7.1517  -14.4738   21.0596 O   0  0  0  0  0  0  0  0  0  0  0  0
    9.3245  -15.1788   21.0937 N   0  0  0  0  0  0  0  0  0  0  0  0
    9.0989  -16.1863   22.1567 C   0  0  1  0  0  0  0  0  0  0  0  0
    9.9560  -17.3368   21.8084 C   0  0  0  0  0  0  0  0  0  0  0  0
    9.9607  -18.4928   22.6965 C   0  0  0  0  0  0  0  0  0  0  0  0
    9.1069  -18.8342   23.5275 O   0  0  0  0  0  0  0  0  0  0  0  0
    9.3335  -15.5787   23.4804 C   0  0  0  0  0  0  0  0  0  0  0  0
   10.4420  -15.0630   23.7527 O   0  0  0  0  0  0  0  0  0  0  0  0
   11.1075  -19.3137   22.5667 O   0  0  0  0  0  0  0  0  0  0  0  0
    5.8939  -12.1948   26.1968 C   0  0  0  0  0  0  0  0  0  0  0  0
    7.1552  -12.8641   25.7482 C   0  0  1  0  0  0  0  0  0  0  0  0
    8.3035  -11.8561   25.7716 C   0  0  0  0  0  0  0  0  0  0  0  0
    7.5131  -14.1635   26.3137 C   0  0  0  0  0  0  0  0  0  0  0  0
    8.6404  -14.9693   25.8523 C   0  0  2  0  0  0  0  0  0  0  0  0
    8.3533  -15.5350   24.5084 N   0  0  0  0  0  0  0  0  0  0  0  0
    9.0494  -16.0921   26.6838 C   0  0  0  0  0  0  0  0  0  0  0  0
    9.8723  -16.0384   27.8112 O   0  0  0  0  0  0  0  0  0  0  0  0
    8.6316  -17.2625   26.3688 O   0  0  0  0  0  0  0  0  0  0  0  0
  2  1  1  1
  2  4  1  0
  3  2  1  0
  4  6  1  0
  4  5  2  0
  6  7  1  0
  7 11  1  0
  7  8  1  6
  9  8  1  0
 10  9  2  0
 11 12  2  0
 11 19  1  0
 13  9  1  0
 15 14  1  1
 16 15  1  0
 18 17  1  1
 17 15  1  0
 18 20  1  0
 19 18  1  0
 20 21  1  0
 22 20  2  0
M  END
$$$$
