ADL.pdb
     RDKit          3D

 22 21  0  0  1  0  0  0  0  0999 V2000
    7.4034  -13.0165   18.4500 C   0  0  0  0  0  0  0  0  0  0  0  0
    8.6863  -13.3244   19.1894 C   0  0  2  0  0  0  0  0  0  0  0  0
    9.6097  -13.9695   18.2785 N   0  0  0  0  0  0  0  0  0  0  0  0
    8.3473  -14.2082   20.3343 C   0  0  0  0  0  0  0  0  0  0  0  0
    7.4460  -13.8468   21.1225 O   0  0  0  0  0  0  0  0  0  0  0  0
    8.9960  -15.4312   20.5683 N   0  0  0  0  0  0  0  0  0  0  0  0
    8.6344  -16.3339   21.6863 C   0  0  1  0  0  0  0  0  0  0  0  0
    9.3669  -17.5919   21.4400 C   0  0  0  0  0  0  0  0  0  0  0  0
    8.9226  -18.4517   20.3499 C   0  0  0  0  0  0  0  0  0  0  0  0
    7.8060  -18.5095   19.8152 O   0  0  0  0  0  0  0  0  0  0  0  0
    8.9028  -15.6676   22.9748 C   0  0  0  0  0  0  0  0  0  0  0  0
   10.0633  -15.2971   23.2662 O   0  0  0  0  0  0  0  0  0  0  0  0
    9.9248  -19.3246   19.8603 O   0  0  0  0  0  0  0  0  0  0  0  0
    8.0567  -11.8002   26.7684 C   0  0  0  0  0  0  0  0  0  0  0  0
    7.0259  -12.8814   26.6753 C   0  0  1  0  0  0  0  0  0  0  0  0
    5.6437  -12.2936   26.9565 C   0  0  0  0  0  0  0  0  0  0  0  0
    7.0473  -13.7905   25.5311 C   0  0  0  0  0  0  0  0  0  0  0  0
    8.1824  -14.6443   25.1911 C   0  0  2  0  0  0  0  0  0  0  0  0
    7.8995  -15.4058   23.9467 N   0  0  0  0  0  0  0  0  0  0  0  0
    8.6042  -15.6273   26.1786 C   0  0  0  0  0  0  0  0  0  0  0  0
    8.1380  -16.9383   26.3017 O   0  0  0  0  0  0  0  0  0  0  0  0
    9.4879  -15.2797   27.0399 O   0  0  0  0  0  0  0  0  0  0  0  0
  2  1  1  6
  2  4  1  0
  3  2  1  0
  4  6  1  0
  4  5  2  0
  6  7  1  0
  7 11  1  0
  7  8  1  6
  9  8  1  0
 10  9  2  0
 11 12  2  0
 11 19  1  0
 13  9  1  0
 15 14  1  6
 16 15  1  0
 18 17  1  1
 17 15  1  0
 18 20  1  0
 19 18  1  0
 20 21  1  0
 22 20  2  0
M  END
$$$$
