ADL.pdb
     RDKit          3D

 22 21  0  0  1  0  0  0  0  0999 V2000
    6.3846  -20.2091   22.1468 C   0  0  0  0  0  0  0  0  0  0  0  0
    6.4609  -19.1827   23.2551 C   0  0  2  0  0  0  0  0  0  0  0  0
    5.3879  -18.2251   23.0825 N   0  0  0  0  0  0  0  0  0  0  0  0
    7.7915  -18.5272   23.1732 C   0  0  0  0  0  0  0  0  0  0  0  0
    8.8026  -19.1818   23.5098 O   0  0  0  0  0  0  0  0  0  0  0  0
    7.9612  -17.2044   22.7342 N   0  0  0  0  0  0  0  0  0  0  0  0
    9.2842  -16.5401   22.6705 C   0  0  1  0  0  0  0  0  0  0  0  0
    9.2781  -15.7512   21.4226 C   0  0  0  0  0  0  0  0  0  0  0  0
    9.3316  -16.4626   20.1514 C   0  0  0  0  0  0  0  0  0  0  0  0
    9.9835  -17.4749   19.8575 O   0  0  0  0  0  0  0  0  0  0  0  0
    9.5260  -15.7856   23.9148 C   0  0  0  0  0  0  0  0  0  0  0  0
   10.6311  -15.2308   24.1141 O   0  0  0  0  0  0  0  0  0  0  0  0
    8.5191  -15.8952   19.1396 O   0  0  0  0  0  0  0  0  0  0  0  0
    5.4124  -13.0038   26.4233 C   0  0  0  0  0  0  0  0  0  0  0  0
    6.7654  -13.3769   25.9033 C   0  0  1  0  0  0  0  0  0  0  0  0
    7.4883  -12.1218   25.4160 C   0  0  0  0  0  0  0  0  0  0  0  0
    7.6145  -14.2639   26.6961 C   0  0  0  0  0  0  0  0  0  0  0  0
    8.8375  -14.8838   26.1932 C   0  0  2  0  0  0  0  0  0  0  0  0
    8.5567  -15.6374   24.9435 N   0  0  0  0  0  0  0  0  0  0  0  0
    9.5339  -15.8096   27.0748 C   0  0  0  0  0  0  0  0  0  0  0  0
    9.7300  -17.1761   26.8616 O   0  0  0  0  0  0  0  0  0  0  0  0
   10.0219  -15.3528   28.1688 O   0  0  0  0  0  0  0  0  0  0  0  0
  2  1  1  6
  2  4  1  0
  3  2  1  0
  4  6  1  0
  4  5  2  0
  6  7  1  0
  7 11  1  0
  7  8  1  6
  9  8  1  0
 10  9  2  0
 11 12  2  0
 11 19  1  0
 13  9  1  0
 15 14  1  1
 16 15  1  0
 18 17  1  1
 17 15  1  0
 18 20  1  0
 19 18  1  0
 20 21  1  0
 22 20  2  0
M  END
$$$$
