ADL.pdb
     RDKit          3D

 22 21  0  0  1  0  0  0  0  0999 V2000
    8.3485  -12.1973   19.5139 C   0  0  0  0  0  0  0  0  0  0  0  0
    8.7293  -13.5317   18.9123 C   0  0  2  0  0  0  0  0  0  0  0  0
    8.0531  -13.6831   17.6403 N   0  0  0  0  0  0  0  0  0  0  0  0
    8.3247  -14.5917   19.8713 C   0  0  0  0  0  0  0  0  0  0  0  0
    7.6373  -15.5481   19.4507 O   0  0  0  0  0  0  0  0  0  0  0  0
    8.6816  -14.5647   21.2289 N   0  0  0  0  0  0  0  0  0  0  0  0
    8.7948  -15.7885   22.0567 C   0  0  1  0  0  0  0  0  0  0  0  0
    9.7612  -16.6585   21.3575 C   0  0  0  0  0  0  0  0  0  0  0  0
   10.0362  -17.9777   21.9136 C   0  0  0  0  0  0  0  0  0  0  0  0
    9.3178  -18.6752   22.6440 O   0  0  0  0  0  0  0  0  0  0  0  0
    9.1351  -15.4241   23.4451 C   0  0  0  0  0  0  0  0  0  0  0  0
   10.2682  -14.9667   23.7200 O   0  0  0  0  0  0  0  0  0  0  0  0
   11.3008  -18.5027   21.5516 O   0  0  0  0  0  0  0  0  0  0  0  0
    5.7419  -12.3290   26.4580 C   0  0  0  0  0  0  0  0  0  0  0  0
    6.9904  -12.9556   25.9204 C   0  0  1  0  0  0  0  0  0  0  0  0
    8.1254  -11.9326   25.9444 C   0  0  0  0  0  0  0  0  0  0  0  0
    7.3901  -14.2762   26.4023 C   0  0  0  0  0  0  0  0  0  0  0  0
    8.5369  -15.0184   25.8855 C   0  0  2  0  0  0  0  0  0  0  0  0
    8.2337  -15.5603   24.5353 N   0  0  0  0  0  0  0  0  0  0  0  0
    9.0198  -16.1438   26.6727 C   0  0  0  0  0  0  0  0  0  0  0  0
    9.8901  -16.0857   27.7637 O   0  0  0  0  0  0  0  0  0  0  0  0
    8.6275  -17.3210   26.3503 O   0  0  0  0  0  0  0  0  0  0  0  0
  2  1  1  1
  2  4  1  0
  3  2  1  0
  4  6  1  0
  4  5  2  0
  6  7  1  0
  7 11  1  0
  7  8  1  6
  9  8  1  0
 10  9  2  0
 11 12  2  0
 11 19  1  0
 13  9  1  0
 15 14  1  1
 16 15  1  0
 18 17  1  1
 17 15  1  0
 18 20  1  0
 19 18  1  0
 20 21  1  0
 22 20  2  0
M  END
$$$$
