ADL.pdb
     RDKit          3D

 22 21  0  0  1  0  0  0  0  0999 V2000
    8.4890  -12.1555   19.8713 C   0  0  0  0  0  0  0  0  0  0  0  0
    8.3230  -13.5737   19.3726 C   0  0  2  0  0  0  0  0  0  0  0  0
    7.1196  -13.6511   18.5700 N   0  0  0  0  0  0  0  0  0  0  0  0
    8.2418  -14.4635   20.5593 C   0  0  0  0  0  0  0  0  0  0  0  0
    7.1173  -14.7024   21.0520 O   0  0  0  0  0  0  0  0  0  0  0  0
    9.3737  -15.0470   21.1505 N   0  0  0  0  0  0  0  0  0  0  0  0
    9.2877  -16.1064   22.1830 C   0  0  1  0  0  0  0  0  0  0  0  0
   10.2934  -17.1189   21.8047 C   0  0  0  0  0  0  0  0  0  0  0  0
    9.8815  -18.2160   20.9377 C   0  0  0  0  0  0  0  0  0  0  0  0
    8.7368  -18.5424   20.5926 O   0  0  0  0  0  0  0  0  0  0  0  0
    9.4378  -15.5115   23.5245 C   0  0  0  0  0  0  0  0  0  0  0  0
   10.4998  -14.9290   23.8435 O   0  0  0  0  0  0  0  0  0  0  0  0
   10.9572  -18.9921   20.4411 O   0  0  0  0  0  0  0  0  0  0  0  0
    5.8307  -12.3060   26.2318 C   0  0  0  0  0  0  0  0  0  0  0  0
    7.1294  -12.9297   25.8261 C   0  0  1  0  0  0  0  0  0  0  0  0
    8.2581  -11.9136   25.9960 C   0  0  0  0  0  0  0  0  0  0  0  0
    7.4680  -14.2610   26.3253 C   0  0  0  0  0  0  0  0  0  0  0  0
    8.6371  -15.0204   25.8901 C   0  0  2  0  0  0  0  0  0  0  0  0
    8.4239  -15.5536   24.5194 N   0  0  0  0  0  0  0  0  0  0  0  0
    9.0436  -16.1555   26.7059 C   0  0  0  0  0  0  0  0  0  0  0  0
    9.0395  -17.4996   26.3255 O   0  0  0  0  0  0  0  0  0  0  0  0
    9.4449  -15.9286   27.9022 O   0  0  0  0  0  0  0  0  0  0  0  0
  2  1  1  1
  2  4  1  0
  3  2  1  0
  4  6  1  0
  4  5  2  0
  6  7  1  0
  7 11  1  0
  7  8  1  6
  9  8  1  0
 10  9  2  0
 11 12  2  0
 11 19  1  0
 13  9  1  0
 15 14  1  1
 16 15  1  0
 18 17  1  1
 17 15  1  0
 18 20  1  0
 19 18  1  0
 20 21  1  0
 22 20  2  0
M  END
$$$$
