ADL.pdb
     RDKit          3D

 22 21  0  0  1  0  0  0  0  0999 V2000
    6.6727  -20.5936   22.2635 C   0  0  0  0  0  0  0  0  0  0  0  0
    6.7727  -19.5648   23.3676 C   0  0  2  0  0  0  0  0  0  0  0  0
    5.6260  -18.6830   23.2927 N   0  0  0  0  0  0  0  0  0  0  0  0
    8.0436  -18.8195   23.1772 C   0  0  0  0  0  0  0  0  0  0  0  0
    9.1228  -19.4458   23.2618 O   0  0  0  0  0  0  0  0  0  0  0  0
    8.0837  -17.4424   22.9066 N   0  0  0  0  0  0  0  0  0  0  0  0
    9.3498  -16.6870   22.7583 C   0  0  1  0  0  0  0  0  0  0  0  0
    9.2098  -15.9089   21.5115 C   0  0  0  0  0  0  0  0  0  0  0  0
   10.3728  -15.7743   20.6430 C   0  0  0  0  0  0  0  0  0  0  0  0
   11.5286  -16.1818   20.8280 O   0  0  0  0  0  0  0  0  0  0  0  0
    9.6151  -15.9089   23.9832 C   0  0  0  0  0  0  0  0  0  0  0  0
   10.6536  -15.2154   24.0801 O   0  0  0  0  0  0  0  0  0  0  0  0
   10.1126  -15.0808   19.4359 O   0  0  0  0  0  0  0  0  0  0  0  0
    5.7774  -13.0589   26.0712 C   0  0  0  0  0  0  0  0  0  0  0  0
    7.1926  -13.4377   25.7648 C   0  0  1  0  0  0  0  0  0  0  0  0
    7.9687  -12.1969   25.3250 C   0  0  0  0  0  0  0  0  0  0  0  0
    7.9272  -14.2758   26.7104 C   0  0  0  0  0  0  0  0  0  0  0  0
    9.0568  -15.1239   26.3391 C   0  0  2  0  0  0  0  0  0  0  0  0
    8.7423  -15.8892   25.1045 N   0  0  0  0  0  0  0  0  0  0  0  0
    9.5124  -16.1028   27.3156 C   0  0  0  0  0  0  0  0  0  0  0  0
    9.6047  -17.4843   27.1305 O   0  0  0  0  0  0  0  0  0  0  0  0
    9.8651  -15.6831   28.4744 O   0  0  0  0  0  0  0  0  0  0  0  0
  2  1  1  6
  2  4  1  0
  3  2  1  0
  4  6  1  0
  4  5  2  0
  6  7  1  0
  7 11  1  0
  7  8  1  6
  9  8  1  0
 10  9  2  0
 11 12  2  0
 11 19  1  0
 13  9  1  0
 15 14  1  1
 16 15  1  0
 18 17  1  1
 17 15  1  0
 18 20  1  0
 19 18  1  0
 20 21  1  0
 22 20  2  0
M  END
$$$$
