ADL.pdb
     RDKit          3D

 22 21  0  0  1  0  0  0  0  0999 V2000
    8.3147  -12.2837   19.9612 C   0  0  0  0  0  0  0  0  0  0  0  0
    8.3033  -13.7231   19.4971 C   0  0  2  0  0  0  0  0  0  0  0  0
    7.2096  -13.9072   18.5653 N   0  0  0  0  0  0  0  0  0  0  0  0
    8.1441  -14.5838   20.6974 C   0  0  0  0  0  0  0  0  0  0  0  0
    6.9912  -14.7943   21.1339 O   0  0  0  0  0  0  0  0  0  0  0  0
    9.2331  -15.1704   21.3617 N   0  0  0  0  0  0  0  0  0  0  0  0
    9.0741  -16.0968   22.5072 C   0  0  1  0  0  0  0  0  0  0  0  0
   10.0187  -17.2047   22.2622 C   0  0  0  0  0  0  0  0  0  0  0  0
    9.7703  -18.0914   21.1321 C   0  0  0  0  0  0  0  0  0  0  0  0
    8.6928  -18.5603   20.7381 O   0  0  0  0  0  0  0  0  0  0  0  0
    9.2499  -15.3615   23.7739 C   0  0  0  0  0  0  0  0  0  0  0  0
   10.3095  -14.7326   23.9991 O   0  0  0  0  0  0  0  0  0  0  0  0
   10.9366  -18.4444   20.4103 O   0  0  0  0  0  0  0  0  0  0  0  0
    5.5087  -12.2459   26.5023 C   0  0  0  0  0  0  0  0  0  0  0  0
    6.7898  -12.8179   25.9809 C   0  0  1  0  0  0  0  0  0  0  0  0
    7.8100  -11.6958   25.7932 C   0  0  0  0  0  0  0  0  0  0  0  0
    7.3492  -14.0098   26.6155 C   0  0  0  0  0  0  0  0  0  0  0  0
    8.5339  -14.7112   26.1282 C   0  0  2  0  0  0  0  0  0  0  0  0
    8.2644  -15.3138   24.7967 N   0  0  0  0  0  0  0  0  0  0  0  0
    9.0684  -15.7833   26.9554 C   0  0  0  0  0  0  0  0  0  0  0  0
    9.8497  -15.6393   28.1044 O   0  0  0  0  0  0  0  0  0  0  0  0
    8.8176  -16.9935   26.6147 O   0  0  0  0  0  0  0  0  0  0  0  0
  2  1  1  1
  2  4  1  0
  3  2  1  0
  4  6  1  0
  4  5  2  0
  6  7  1  0
  7 11  1  0
  7  8  1  6
  9  8  1  0
 10  9  2  0
 11 12  2  0
 11 19  1  0
 13  9  1  0
 15 14  1  1
 16 15  1  0
 18 17  1  1
 17 15  1  0
 18 20  1  0
 19 18  1  0
 20 21  1  0
 22 20  2  0
M  END
$$$$
