ADL.pdb
     RDKit          3D

 22 21  0  0  1  0  0  0  0  0999 V2000
   10.4041  -19.0320   29.4601 C   0  0  0  0  0  0  0  0  0  0  0  0
   10.6354  -19.3571   28.0012 C   0  0  2  0  0  0  0  0  0  0  0  0
   11.9649  -19.9116   27.8490 N   0  0  0  0  0  0  0  0  0  0  0  0
   10.4808  -18.0984   27.2276 C   0  0  0  0  0  0  0  0  0  0  0  0
   10.4499  -17.0139   27.8496 O   0  0  0  0  0  0  0  0  0  0  0  0
   10.3679  -18.0755   25.8283 N   0  0  0  0  0  0  0  0  0  0  0  0
   10.4298  -16.8252   25.0354 C   0  0  1  0  0  0  0  0  0  0  0  0
   11.2705  -17.1348   23.8619 C   0  0  0  0  0  0  0  0  0  0  0  0
   12.7082  -17.2774   24.0562 C   0  0  0  0  0  0  0  0  0  0  0  0
   13.4574  -16.6265   24.7986 O   0  0  0  0  0  0  0  0  0  0  0  0
    9.0644  -16.3464   24.7481 C   0  0  0  0  0  0  0  0  0  0  0  0
    8.1217  -17.1611   24.6200 O   0  0  0  0  0  0  0  0  0  0  0  0
   13.2950  -18.3052   23.2783 O   0  0  0  0  0  0  0  0  0  0  0  0
    8.4703  -12.4159   26.5793 C   0  0  0  0  0  0  0  0  0  0  0  0
    7.1548  -12.7320   25.9392 C   0  0  1  0  0  0  0  0  0  0  0  0
    6.1561  -11.6177   26.2492 C   0  0  0  0  0  0  0  0  0  0  0  0
    7.1264  -13.1640   24.5432 C   0  0  0  0  0  0  0  0  0  0  0  0
    7.3983  -14.5316   24.1088 C   0  0  2  0  0  0  0  0  0  0  0  0
    8.7293  -14.9732   24.6007 N   0  0  0  0  0  0  0  0  0  0  0  0
    7.3888  -14.7970   22.6774 C   0  0  0  0  0  0  0  0  0  0  0  0
    6.2639  -15.0024   21.8751 O   0  0  0  0  0  0  0  0  0  0  0  0
    8.5137  -14.8604   22.0658 O   0  0  0  0  0  0  0  0  0  0  0  0
  2  1  1  1
  2  4  1  0
  3  2  1  0
  4  6  1  0
  4  5  2  0
  6  7  1  0
  7 11  1  0
  7  8  1  6
  9  8  1  0
 10  9  2  0
 11 12  2  0
 11 19  1  0
 13  9  1  0
 15 14  1  6
 16 15  1  0
 18 17  1  6
 17 15  1  0
 18 20  1  0
 19 18  1  0
 20 21  1  0
 22 20  2  0
M  END
$$$$
