ADL.pdb
     RDKit          3D

 22 21  0  0  1  0  0  0  0  0999 V2000
    7.3082  -13.1995   18.4260 C   0  0  0  0  0  0  0  0  0  0  0  0
    8.5931  -13.2906   19.2185 C   0  0  2  0  0  0  0  0  0  0  0  0
    9.6485  -13.7671   18.3483 N   0  0  0  0  0  0  0  0  0  0  0  0
    8.3607  -14.2241   20.3506 C   0  0  0  0  0  0  0  0  0  0  0  0
    7.3714  -14.0316   21.0911 O   0  0  0  0  0  0  0  0  0  0  0  0
    9.2045  -15.3124   20.6237 N   0  0  0  0  0  0  0  0  0  0  0  0
    8.9593  -16.2636   21.7331 C   0  0  1  0  0  0  0  0  0  0  0  0
    9.8290  -17.4261   21.4654 C   0  0  0  0  0  0  0  0  0  0  0  0
    9.5659  -18.2312   20.2789 C   0  0  0  0  0  0  0  0  0  0  0  0
    8.4851  -18.6821   19.8732 O   0  0  0  0  0  0  0  0  0  0  0  0
    9.1612  -15.5858   23.0277 C   0  0  0  0  0  0  0  0  0  0  0  0
   10.2578  -15.0419   23.2932 O   0  0  0  0  0  0  0  0  0  0  0  0
   10.7204  -18.5179   19.5103 O   0  0  0  0  0  0  0  0  0  0  0  0
    8.2935  -11.9152   26.9161 C   0  0  0  0  0  0  0  0  0  0  0  0
    7.2228  -12.9395   26.7051 C   0  0  1  0  0  0  0  0  0  0  0  0
    5.8520  -12.2887   26.8850 C   0  0  0  0  0  0  0  0  0  0  0  0
    7.2980  -13.8204   25.5412 C   0  0  0  0  0  0  0  0  0  0  0  0
    8.3810  -14.7726   25.3098 C   0  0  2  0  0  0  0  0  0  0  0  0
    8.1612  -15.5024   24.0340 N   0  0  0  0  0  0  0  0  0  0  0  0
    8.6083  -15.7921   26.3239 C   0  0  0  0  0  0  0  0  0  0  0  0
    7.8870  -16.9764   26.4917 O   0  0  0  0  0  0  0  0  0  0  0  0
    9.5568  -15.6073   27.1663 O   0  0  0  0  0  0  0  0  0  0  0  0
  2  1  1  6
  2  4  1  0
  3  2  1  0
  4  6  1  0
  4  5  2  0
  6  7  1  0
  7 11  1  0
  7  8  1  6
  9  8  1  0
 10  9  2  0
 11 12  2  0
 11 19  1  0
 13  9  1  0
 15 14  1  6
 16 15  1  0
 18 17  1  1
 17 15  1  0
 18 20  1  0
 19 18  1  0
 20 21  1  0
 22 20  2  0
M  END
$$$$
