ADL.pdb
     RDKit          3D

 22 21  0  0  1  0  0  0  0  0999 V2000
    6.6876  -19.4083   20.5011 C   0  0  0  0  0  0  0  0  0  0  0  0
    6.7221  -18.1386   21.3223 C   0  0  2  0  0  0  0  0  0  0  0  0
    6.6071  -17.0012   20.4327 N   0  0  0  0  0  0  0  0  0  0  0  0
    8.0071  -18.1169   22.0673 C   0  0  0  0  0  0  0  0  0  0  0  0
    8.2378  -19.0314   22.8888 O   0  0  0  0  0  0  0  0  0  0  0  0
    8.9726  -17.1135   21.8880 N   0  0  0  0  0  0  0  0  0  0  0  0
   10.2462  -17.0765   22.6446 C   0  0  1  0  0  0  0  0  0  0  0  0
   11.2885  -16.7252   21.6598 C   0  0  0  0  0  0  0  0  0  0  0  0
   12.6629  -16.5834   22.1245 C   0  0  0  0  0  0  0  0  0  0  0  0
   13.2848  -17.2910   22.9299 O   0  0  0  0  0  0  0  0  0  0  0  0
   10.1148  -16.1715   23.8021 C   0  0  0  0  0  0  0  0  0  0  0  0
   11.1117  -15.9010   24.5105 O   0  0  0  0  0  0  0  0  0  0  0  0
   13.3501  -15.4806   21.5611 O   0  0  0  0  0  0  0  0  0  0  0  0
    8.0722  -11.7156   26.6438 C   0  0  0  0  0  0  0  0  0  0  0  0
    7.2137  -12.9091   26.3631 C   0  0  1  0  0  0  0  0  0  0  0  0
    5.7526  -12.4736   26.2607 C   0  0  0  0  0  0  0  0  0  0  0  0
    7.6144  -13.8450   25.3143 C   0  0  0  0  0  0  0  0  0  0  0  0
    8.7686  -14.7342   25.4146 C   0  0  2  0  0  0  0  0  0  0  0  0
    8.8902  -15.5608   24.1856 N   0  0  0  0  0  0  0  0  0  0  0  0
    8.8047  -15.6659   26.5327 C   0  0  0  0  0  0  0  0  0  0  0  0
    8.3500  -16.9866   26.5323 O   0  0  0  0  0  0  0  0  0  0  0  0
    9.2926  -15.2574   27.6457 O   0  0  0  0  0  0  0  0  0  0  0  0
  2  1  1  6
  2  4  1  0
  3  2  1  0
  4  6  1  0
  4  5  2  0
  6  7  1  0
  7 11  1  0
  7  8  1  6
  9  8  1  0
 10  9  2  0
 11 12  2  0
 11 19  1  0
 13  9  1  0
 15 14  1  6
 16 15  1  0
 18 17  1  6
 17 15  1  0
 18 20  1  0
 19 18  1  0
 20 21  1  0
 22 20  2  0
M  END
$$$$
