ADL.pdb
     RDKit          3D

 22 21  0  0  1  0  0  0  0  0999 V2000
    7.2144  -12.8755   19.3411 C   0  0  0  0  0  0  0  0  0  0  0  0
    8.5547  -13.1692   19.9773 C   0  0  2  0  0  0  0  0  0  0  0  0
    9.4330  -13.7426   18.9782 N   0  0  0  0  0  0  0  0  0  0  0  0
    8.3243  -14.1117   21.1022 C   0  0  0  0  0  0  0  0  0  0  0  0
    7.4096  -13.8587   21.9168 O   0  0  0  0  0  0  0  0  0  0  0  0
    9.0898  -15.2737   21.2889 N   0  0  0  0  0  0  0  0  0  0  0  0
    8.8523  -16.2251   22.3999 C   0  0  1  0  0  0  0  0  0  0  0  0
    9.5739  -17.4597   22.0328 C   0  0  0  0  0  0  0  0  0  0  0  0
    9.2500  -18.1020   20.7648 C   0  0  0  0  0  0  0  0  0  0  0  0
    8.1526  -18.5168   20.3651 O   0  0  0  0  0  0  0  0  0  0  0  0
    9.2374  -15.6044   23.6815 C   0  0  0  0  0  0  0  0  0  0  0  0
   10.4069  -15.1928   23.8594 O   0  0  0  0  0  0  0  0  0  0  0  0
   10.3595  -18.2571   19.8983 O   0  0  0  0  0  0  0  0  0  0  0  0
    5.6211  -12.6235   26.4100 C   0  0  0  0  0  0  0  0  0  0  0  0
    6.9643  -13.0512   25.9071 C   0  0  1  0  0  0  0  0  0  0  0  0
    7.7887  -11.8174   25.5419 C   0  0  0  0  0  0  0  0  0  0  0  0
    7.7206  -14.0527   26.6563 C   0  0  0  0  0  0  0  0  0  0  0  0
    8.7794  -14.8747   26.0765 C   0  0  2  0  0  0  0  0  0  0  0  0
    8.3411  -15.4335   24.7710 N   0  0  0  0  0  0  0  0  0  0  0  0
    9.2580  -16.0051   26.8590 C   0  0  0  0  0  0  0  0  0  0  0  0
    9.1833  -17.3546   26.5062 O   0  0  0  0  0  0  0  0  0  0  0  0
    9.8023  -15.7679   27.9953 O   0  0  0  0  0  0  0  0  0  0  0  0
  2  1  1  6
  2  4  1  0
  3  2  1  0
  4  6  1  0
  4  5  2  0
  6  7  1  0
  7 11  1  0
  7  8  1  6
  9  8  1  0
 10  9  2  0
 11 12  2  0
 11 19  1  0
 13  9  1  0
 15 14  1  1
 16 15  1  0
 18 17  1  1
 17 15  1  0
 18 20  1  0
 19 18  1  0
 20 21  1  0
 22 20  2  0
M  END
$$$$
