LFS.pdb
     RDKit          3D

 26 26  0  0  1  0  0  0  0  0999 V2000
    6.9873  -13.0361   18.3196 C   0  0  0  0  0  0  0  0  0  0  0  0
    7.9544  -14.1678   18.6335 C   0  0  1  0  0  0  0  0  0  0  0  0
    9.0958  -14.0470   17.6425 C   0  0  0  0  0  0  0  0  0  0  0  0
    8.5210  -14.0404   20.0204 C   0  0  0  0  0  0  0  0  0  0  0  0
    7.5526  -14.5650   21.0624 C   0  0  2  0  0  0  0  0  0  0  0  0
    6.3537  -13.7884   21.1348 N   0  0  0  0  0  0  0  0  0  0  0  0
    8.2217  -14.5741   22.3841 C   0  0  0  0  0  0  0  0  0  0  0  0
    8.8935  -13.5845   22.7273 O   0  0  0  0  0  0  0  0  0  0  0  0
    8.1202  -15.6748   23.2690 N   0  0  0  0  0  0  0  0  0  0  0  0
    8.7340  -15.6194   24.5496 C   0  0  1  0  0  0  0  0  0  0  0  0
    7.7816  -15.4794   25.6989 C   0  0  0  0  0  0  0  0  0  0  0  0
    7.3884  -14.0920   25.9800 C   0  0  0  0  0  0  0  0  0  0  0  0
    8.2758  -13.1572   26.4715 C   0  0  0  0  0  0  0  0  0  0  0  0
    7.8808  -11.8421   26.7321 C   0  0  0  0  0  0  0  0  0  0  0  0
    6.5857  -11.4469   26.5019 C   0  0  0  0  0  0  0  0  0  0  0  0
    5.6876  -12.3708   26.0105 C   0  0  0  0  0  0  0  0  0  0  0  0
    6.0908  -13.6652   25.7579 C   0  0  0  0  0  0  0  0  0  0  0  0
    9.4831  -16.9071   24.7653 C   0  0  0  0  0  0  0  0  0  0  0  0
    8.9108  -18.0295   24.6146 O   0  0  0  0  0  0  0  0  0  0  0  0
   13.0989  -16.9557   23.7915 O   0  0  0  0  0  0  0  0  0  0  0  0
   13.0488  -17.7816   24.8971 C   0  0  0  0  0  0  0  0  0  0  0  0
   11.6320  -18.1326   25.2847 C   0  0  2  0  0  0  0  0  0  0  0  0
   10.8387  -16.9265   25.1401 N   0  0  0  0  0  0  0  0  0  0  0  0
   11.6388  -18.4736   26.7295 C   0  0  0  0  0  0  0  0  0  0  0  0
   12.3074  -19.5564   27.2761 O   0  0  0  0  0  0  0  0  0  0  0  0
   10.9942  -17.7293   27.5084 O   0  0  0  0  0  0  0  0  0  0  0  0
  2  1  1  6
  2  4  1  0
  2  3  1  0
  5  4  1  0
  5  6  1  1
  7  5  1  0
  8  7  2  0
  9  7  1  0
 10  9  1  0
 10 11  1  1
 11 12  1  0
 12 17  2  0
 13 12  1  0
 13 14  2  0
 14 15  1  0
 15 16  2  0
 17 16  1  0
 18 23  1  0
 18 10  1  0
 19 18  2  0
 20 21  1  0
 22 21  1  1
 22 24  1  0
 22 23  1  0
 24 25  1  0
 26 24  2  0
M  END
$$$$
