LFS.pdb
     RDKit          3D

 26 26  0  0  1  0  0  0  0  0999 V2000
    7.4913  -12.1183   19.3421 C   0  0  0  0  0  0  0  0  0  0  0  0
    7.6557  -13.5939   19.6738 C   0  0  1  0  0  0  0  0  0  0  0  0
    8.1984  -14.2591   18.4237 C   0  0  0  0  0  0  0  0  0  0  0  0
    8.6469  -13.8024   20.7850 C   0  0  0  0  0  0  0  0  0  0  0  0
    8.6511  -15.2430   21.2575 C   0  0  2  0  0  0  0  0  0  0  0  0
    7.3904  -15.8881   21.0566 N   0  0  0  0  0  0  0  0  0  0  0  0
    9.0068  -15.2799   22.6952 C   0  0  0  0  0  0  0  0  0  0  0  0
   10.0692  -14.7499   23.0679 O   0  0  0  0  0  0  0  0  0  0  0  0
    8.1745  -15.8999   23.6585 N   0  0  0  0  0  0  0  0  0  0  0  0
    8.5782  -15.9553   25.0200 C   0  0  1  0  0  0  0  0  0  0  0  0
    7.4804  -15.7159   26.0125 C   0  0  0  0  0  0  0  0  0  0  0  0
    7.2480  -14.2963   26.3114 C   0  0  0  0  0  0  0  0  0  0  0  0
    8.2721  -13.4331   26.6416 C   0  0  0  0  0  0  0  0  0  0  0  0
    8.0291  -12.0857   26.9224 C   0  0  0  0  0  0  0  0  0  0  0  0
    6.7507  -11.5856   26.8752 C   0  0  0  0  0  0  0  0  0  0  0  0
    5.7170  -12.4371   26.5465 C   0  0  0  0  0  0  0  0  0  0  0  0
    5.9711  -13.7644   26.2718 C   0  0  0  0  0  0  0  0  0  0  0  0
    9.1127  -17.3357   25.2935 C   0  0  0  0  0  0  0  0  0  0  0  0
    8.4397  -18.3687   24.9936 O   0  0  0  0  0  0  0  0  0  0  0  0
   13.0439  -17.8038   25.7132 O   0  0  0  0  0  0  0  0  0  0  0  0
   12.2690  -18.9234   25.4826 C   0  0  0  0  0  0  0  0  0  0  0  0
   10.9329  -18.8479   26.1822 C   0  0  2  0  0  0  0  0  0  0  0  0
   10.3704  -17.5431   25.8883 N   0  0  0  0  0  0  0  0  0  0  0  0
   11.1942  -18.8855   27.6431 C   0  0  0  0  0  0  0  0  0  0  0  0
   10.9272  -17.8423   28.5142 O   0  0  0  0  0  0  0  0  0  0  0  0
   11.6911  -19.9348   28.1208 O   0  0  0  0  0  0  0  0  0  0  0  0
  2  1  1  6
  2  4  1  0
  2  3  1  0
  5  4  1  0
  5  6  1  1
  7  5  1  0
  8  7  2  0
  9  7  1  0
 10  9  1  0
 10 11  1  1
 11 12  1  0
 12 17  2  0
 13 12  1  0
 13 14  2  0
 14 15  1  0
 15 16  2  0
 17 16  1  0
 18 23  1  0
 18 10  1  0
 19 18  2  0
 20 21  1  0
 22 21  1  6
 22 24  1  0
 22 23  1  0
 24 25  1  0
 26 24  2  0
M  END
$$$$
