LFS.pdb
     RDKit          3D

 26 26  0  0  1  0  0  0  0  0999 V2000
    9.8045  -20.4479   19.2407 C   0  0  0  0  0  0  0  0  0  0  0  0
    9.0252  -19.1457   19.1339 C   0  0  1  0  0  0  0  0  0  0  0  0
    7.5588  -19.5084   19.2670 C   0  0  0  0  0  0  0  0  0  0  0  0
    9.3779  -18.1990   20.2475 C   0  0  0  0  0  0  0  0  0  0  0  0
    8.5466  -16.9329   20.1794 C   0  0  2  0  0  0  0  0  0  0  0  0
    8.8585  -16.1348   19.0341 N   0  0  0  0  0  0  0  0  0  0  0  0
    8.7665  -16.1425   21.4130 C   0  0  0  0  0  0  0  0  0  0  0  0
    9.8027  -15.4614   21.5168 O   0  0  0  0  0  0  0  0  0  0  0  0
    7.8333  -16.1384   22.4779 N   0  0  0  0  0  0  0  0  0  0  0  0
    8.0837  -15.3637   23.6428 C   0  0  1  0  0  0  0  0  0  0  0  0
    6.8558  -14.8621   24.3415 C   0  0  0  0  0  0  0  0  0  0  0  0
    7.1377  -13.9515   25.4595 C   0  0  0  0  0  0  0  0  0  0  0  0
    7.2862  -12.5912   25.2856 C   0  0  0  0  0  0  0  0  0  0  0  0
    7.5542  -11.7425   26.3632 C   0  0  0  0  0  0  0  0  0  0  0  0
    7.6771  -12.2499   27.6336 C   0  0  0  0  0  0  0  0  0  0  0  0
    7.5311  -13.6081   27.8224 C   0  0  0  0  0  0  0  0  0  0  0  0
    7.2668  -14.4340   26.7501 C   0  0  0  0  0  0  0  0  0  0  0  0
    8.8184  -16.2293   24.6312 C   0  0  0  0  0  0  0  0  0  0  0  0
    8.3228  -17.3251   25.0356 O   0  0  0  0  0  0  0  0  0  0  0  0
   12.6591  -15.2050   25.3622 O   0  0  0  0  0  0  0  0  0  0  0  0
   12.3334  -16.5394   25.5045 C   0  0  0  0  0  0  0  0  0  0  0  0
   10.9074  -16.7341   25.9618 C   0  0  2  0  0  0  0  0  0  0  0  0
   10.0759  -15.8678   25.1474 N   0  0  0  0  0  0  0  0  0  0  0  0
   10.8163  -16.2327   27.3562 C   0  0  0  0  0  0  0  0  0  0  0  0
   11.5053  -16.7722   28.4297 O   0  0  0  0  0  0  0  0  0  0  0  0
   10.0630  -15.2528   27.5765 O   0  0  0  0  0  0  0  0  0  0  0  0
  2  1  1  1
  2  4  1  0
  2  3  1  0
  5  4  1  0
  5  6  1  6
  7  5  1  0
  8  7  2  0
  9  7  1  0
 10  9  1  0
 10 11  1  1
 11 12  1  0
 12 17  2  0
 13 12  1  0
 13 14  2  0
 14 15  1  0
 15 16  2  0
 17 16  1  0
 18 23  1  0
 18 10  1  0
 19 18  2  0
 20 21  1  0
 22 21  1  6
 22 24  1  0
 22 23  1  0
 24 25  1  0
 26 24  2  0
M  END
$$$$
