LFS.pdb
     RDKit          3D

 26 26  0  0  1  0  0  0  0  0999 V2000
    9.2392  -13.3221   18.6424 C   0  0  0  0  0  0  0  0  0  0  0  0
    8.2037  -13.2640   19.7555 C   0  0  1  0  0  0  0  0  0  0  0  0
    7.2721  -12.1159   19.4184 C   0  0  0  0  0  0  0  0  0  0  0  0
    7.3897  -14.5266   19.8180 C   0  0  0  0  0  0  0  0  0  0  0  0
    8.1818  -15.6639   20.4327 C   0  0  2  0  0  0  0  0  0  0  0  0
    7.4748  -16.9067   20.3931 N   0  0  0  0  0  0  0  0  0  0  0  0
    8.5106  -15.3216   21.8361 C   0  0  0  0  0  0  0  0  0  0  0  0
    9.3876  -14.4676   22.0595 O   0  0  0  0  0  0  0  0  0  0  0  0
    7.8573  -15.9368   22.9314 N   0  0  0  0  0  0  0  0  0  0  0  0
    8.2620  -15.6408   24.2611 C   0  0  1  0  0  0  0  0  0  0  0  0
    7.1374  -15.4532   25.2346 C   0  0  0  0  0  0  0  0  0  0  0  0
    7.2362  -14.2199   26.0271 C   0  0  0  0  0  0  0  0  0  0  0  0
    8.2288  -14.0207   26.9640 C   0  0  0  0  0  0  0  0  0  0  0  0
    8.3046  -12.8396   27.7073 C   0  0  0  0  0  0  0  0  0  0  0  0
    7.3819  -11.8397   27.5191 C   0  0  0  0  0  0  0  0  0  0  0  0
    6.3839  -12.0250   26.5857 C   0  0  0  0  0  0  0  0  0  0  0  0
    6.3210  -13.1955   25.8592 C   0  0  0  0  0  0  0  0  0  0  0  0
    9.0827  -16.7963   24.7685 C   0  0  0  0  0  0  0  0  0  0  0  0
    8.6223  -17.9786   24.7602 O   0  0  0  0  0  0  0  0  0  0  0  0
   12.8807  -17.1609   24.0838 O   0  0  0  0  0  0  0  0  0  0  0  0
   12.6590  -17.3107   25.4386 C   0  0  0  0  0  0  0  0  0  0  0  0
   11.2322  -17.6994   25.7448 C   0  0  2  0  0  0  0  0  0  0  0  0
   10.3849  -16.6213   25.2705 N   0  0  0  0  0  0  0  0  0  0  0  0
   11.0909  -17.7406   27.2220 C   0  0  0  0  0  0  0  0  0  0  0  0
   11.7431  -18.6420   28.0470 O   0  0  0  0  0  0  0  0  0  0  0  0
   10.3279  -16.9009   27.7595 O   0  0  0  0  0  0  0  0  0  0  0  0
  2  1  1  6
  2  4  1  0
  2  3  1  0
  5  4  1  0
  5  6  1  1
  7  5  1  0
  8  7  2  0
  9  7  1  0
 10  9  1  0
 10 11  1  1
 11 12  1  0
 12 17  2  0
 13 12  1  0
 13 14  2  0
 14 15  1  0
 15 16  2  0
 17 16  1  0
 18 23  1  0
 18 10  1  0
 19 18  2  0
 20 21  1  0
 22 21  1  1
 22 24  1  0
 22 23  1  0
 24 25  1  0
 26 24  2  0
M  END
$$$$
