LFS.pdb
     RDKit          3D

 26 26  0  0  1  0  0  0  0  0999 V2000
    7.5484  -20.4325   19.3131 C   0  0  0  0  0  0  0  0  0  0  0  0
    8.0935  -19.0260   19.1151 C   0  0  1  0  0  0  0  0  0  0  0  0
    7.0513  -18.2682   18.3156 C   0  0  0  0  0  0  0  0  0  0  0  0
    8.2842  -18.3185   20.4281 C   0  0  0  0  0  0  0  0  0  0  0  0
    8.7446  -16.8887   20.2226 C   0  0  2  0  0  0  0  0  0  0  0  0
    9.9913  -16.8104   19.5259 N   0  0  0  0  0  0  0  0  0  0  0  0
    8.8678  -16.2255   21.5416 C   0  0  0  0  0  0  0  0  0  0  0  0
    9.9385  -16.3222   22.1681 O   0  0  0  0  0  0  0  0  0  0  0  0
    7.8040  -15.4847   22.1113 N   0  0  0  0  0  0  0  0  0  0  0  0
    7.9691  -14.8563   23.3752 C   0  0  1  0  0  0  0  0  0  0  0  0
    6.9752  -13.7748   23.6754 C   0  0  0  0  0  0  0  0  0  0  0  0
    7.0972  -13.2136   25.0278 C   0  0  0  0  0  0  0  0  0  0  0  0
    8.2291  -12.5498   25.4533 C   0  0  0  0  0  0  0  0  0  0  0  0
    8.3245  -12.0233   26.7444 C   0  0  0  0  0  0  0  0  0  0  0  0
    7.2816  -12.1568   27.6282 C   0  0  0  0  0  0  0  0  0  0  0  0
    6.1437  -12.8180   27.2165 C   0  0  0  0  0  0  0  0  0  0  0  0
    6.0630  -13.3326   25.9395 C   0  0  0  0  0  0  0  0  0  0  0  0
    7.8019  -15.9036   24.4436 C   0  0  0  0  0  0  0  0  0  0  0  0
    6.6825  -16.4695   24.6348 O   0  0  0  0  0  0  0  0  0  0  0  0
   10.5642  -18.3461   24.9894 O   0  0  0  0  0  0  0  0  0  0  0  0
    9.3718  -18.5989   25.6386 C   0  0  0  0  0  0  0  0  0  0  0  0
    8.7864  -17.3552   26.2638 C   0  0  2  0  0  0  0  0  0  0  0  0
    8.8678  -16.2998   25.2714 N   0  0  0  0  0  0  0  0  0  0  0  0
    9.6757  -16.9617   27.3855 C   0  0  0  0  0  0  0  0  0  0  0  0
    9.8323  -17.6890   28.5538 O   0  0  0  0  0  0  0  0  0  0  0  0
   10.3301  -15.8970   27.2663 O   0  0  0  0  0  0  0  0  0  0  0  0
  2  1  1  1
  2  4  1  0
  2  3  1  0
  5  4  1  0
  5  6  1  1
  7  5  1  0
  8  7  2  0
  9  7  1  0
 10  9  1  0
 10 11  1  1
 11 12  1  0
 12 17  2  0
 13 12  1  0
 13 14  2  0
 14 15  1  0
 15 16  2  0
 17 16  1  0
 18 23  1  0
 18 10  1  0
 19 18  2  0
 20 21  1  0
 22 21  1  6
 22 24  1  0
 22 23  1  0
 24 25  1  0
 26 24  2  0
M  END
$$$$
