LFS.pdb
     RDKit          3D

 26 26  0  0  1  0  0  0  0  0999 V2000
    8.8549  -20.7077   19.9027 C   0  0  0  0  0  0  0  0  0  0  0  0
    8.9465  -19.2334   19.5384 C   0  0  1  0  0  0  0  0  0  0  0  0
    7.5801  -18.8323   19.0173 C   0  0  0  0  0  0  0  0  0  0  0  0
    9.2580  -18.3864   20.7410 C   0  0  0  0  0  0  0  0  0  0  0  0
    9.2440  -16.9104   20.3949 C   0  0  2  0  0  0  0  0  0  0  0  0
   10.3288  -16.5390   19.5397 N   0  0  0  0  0  0  0  0  0  0  0  0
    9.3017  -16.1191   21.6460 C   0  0  0  0  0  0  0  0  0  0  0  0
   10.4109  -15.8696   22.1517 O   0  0  0  0  0  0  0  0  0  0  0  0
    8.1328  -15.6380   22.2841 N   0  0  0  0  0  0  0  0  0  0  0  0
    8.2325  -14.9113   23.5013 C   0  0  1  0  0  0  0  0  0  0  0  0
    7.0164  -14.1103   23.8579 C   0  0  0  0  0  0  0  0  0  0  0  0
    7.1148  -13.4244   25.1535 C   0  0  0  0  0  0  0  0  0  0  0  0
    6.4670  -13.8808   26.2826 C   0  0  0  0  0  0  0  0  0  0  0  0
    6.5740  -13.2131   27.5057 C   0  0  0  0  0  0  0  0  0  0  0  0
    7.3352  -12.0747   27.6117 C   0  0  0  0  0  0  0  0  0  0  0  0
    7.9885  -11.6068   26.4911 C   0  0  0  0  0  0  0  0  0  0  0  0
    7.8742  -12.2757   25.2905 C   0  0  0  0  0  0  0  0  0  0  0  0
    8.4416  -15.8975   24.6192 C   0  0  0  0  0  0  0  0  0  0  0  0
    7.6305  -16.8550   24.8065 O   0  0  0  0  0  0  0  0  0  0  0  0
   12.0525  -16.7665   25.5642 O   0  0  0  0  0  0  0  0  0  0  0  0
   11.0352  -17.5792   26.0244 C   0  0  0  0  0  0  0  0  0  0  0  0
    9.8501  -16.7858   26.5209 C   0  0  2  0  0  0  0  0  0  0  0  0
    9.5348  -15.8049   25.4994 N   0  0  0  0  0  0  0  0  0  0  0  0
   10.2922  -16.0318   27.7209 C   0  0  0  0  0  0  0  0  0  0  0  0
   10.7126  -16.6173   28.9036 O   0  0  0  0  0  0  0  0  0  0  0  0
   10.2841  -14.7780   27.6587 O   0  0  0  0  0  0  0  0  0  0  0  0
  2  1  1  1
  2  4  1  0
  2  3  1  0
  5  4  1  0
  5  6  1  6
  7  5  1  0
  8  7  2  0
  9  7  1  0
 10  9  1  0
 10 11  1  1
 11 12  1  0
 12 17  2  0
 13 12  1  0
 13 14  2  0
 14 15  1  0
 15 16  2  0
 17 16  1  0
 18 23  1  0
 18 10  1  0
 19 18  2  0
 20 21  1  0
 22 21  1  6
 22 24  1  0
 22 23  1  0
 24 25  1  0
 26 24  2  0
M  END
$$$$
