LFS.pdb
     RDKit          3D

 26 26  0  0  1  0  0  0  0  0999 V2000
    9.7747  -21.8364   21.0571 C   0  0  0  0  0  0  0  0  0  0  0  0
    8.7205  -20.7658   20.8183 C   0  0  1  0  0  0  0  0  0  0  0  0
    7.4251  -21.2990   21.3990 C   0  0  0  0  0  0  0  0  0  0  0  0
    9.0628  -19.4862   21.5299 C   0  0  0  0  0  0  0  0  0  0  0  0
    7.9860  -18.4381   21.3289 C   0  0  2  0  0  0  0  0  0  0  0  0
    7.9029  -17.9926   19.9722 N   0  0  0  0  0  0  0  0  0  0  0  0
    8.2615  -17.2845   22.2167 C   0  0  0  0  0  0  0  0  0  0  0  0
    9.0762  -16.4196   21.8472 O   0  0  0  0  0  0  0  0  0  0  0  0
    7.6259  -17.1361   23.4733 N   0  0  0  0  0  0  0  0  0  0  0  0
    7.9202  -16.0133   24.2933 C   0  0  1  0  0  0  0  0  0  0  0  0
    6.7480  -15.4581   25.0452 C   0  0  0  0  0  0  0  0  0  0  0  0
    7.0666  -14.2725   25.8523 C   0  0  0  0  0  0  0  0  0  0  0  0
    7.6188  -14.3632   27.1132 C   0  0  0  0  0  0  0  0  0  0  0  0
    7.9143  -13.2223   27.8644 C   0  0  0  0  0  0  0  0  0  0  0  0
    7.6585  -11.9714   27.3581 C   0  0  0  0  0  0  0  0  0  0  0  0
    7.1065  -11.8655   26.0988 C   0  0  0  0  0  0  0  0  0  0  0  0
    6.8200  -12.9997   25.3685 C   0  0  0  0  0  0  0  0  0  0  0  0
    8.9308  -16.4392   25.3244 C   0  0  0  0  0  0  0  0  0  0  0  0
    8.7179  -17.4407   26.0738 O   0  0  0  0  0  0  0  0  0  0  0  0
   12.8722  -16.0990   24.4415 O   0  0  0  0  0  0  0  0  0  0  0  0
   12.5170  -15.6057   25.6815 C   0  0  0  0  0  0  0  0  0  0  0  0
   11.2841  -16.2809   26.2335 C   0  0  2  0  0  0  0  0  0  0  0  0
   10.1461  -15.7541   25.5037 N   0  0  0  0  0  0  0  0  0  0  0  0
   11.1321  -15.8428   27.6437 C   0  0  0  0  0  0  0  0  0  0  0  0
   12.0335  -16.1304   28.6553 O   0  0  0  0  0  0  0  0  0  0  0  0
   10.1171  -15.1655   27.9389 O   0  0  0  0  0  0  0  0  0  0  0  0
  2  1  1  1
  2  4  1  0
  2  3  1  0
  5  4  1  0
  5  6  1  6
  7  5  1  0
  8  7  2  0
  9  7  1  0
 10  9  1  0
 10 11  1  1
 11 12  1  0
 12 17  2  0
 13 12  1  0
 13 14  2  0
 14 15  1  0
 15 16  2  0
 17 16  1  0
 18 23  1  0
 18 10  1  0
 19 18  2  0
 20 21  1  0
 22 21  1  6
 22 24  1  0
 22 23  1  0
 24 25  1  0
 26 24  2  0
M  END
$$$$
