LFS.pdb
     RDKit          3D

 26 26  0  0  1  0  0  0  0  0999 V2000
   10.7106  -21.1306   20.8642 C   0  0  0  0  0  0  0  0  0  0  0  0
   10.0748  -19.8668   20.3047 C   0  0  1  0  0  0  0  0  0  0  0  0
    8.5857  -20.1380   20.2115 C   0  0  0  0  0  0  0  0  0  0  0  0
   10.2820  -18.6929   21.2212 C   0  0  0  0  0  0  0  0  0  0  0  0
    9.4669  -17.4946   20.7758 C   0  0  2  0  0  0  0  0  0  0  0  0
    9.9693  -16.9085   19.5717 N   0  0  0  0  0  0  0  0  0  0  0  0
    9.4617  -16.4833   21.8584 C   0  0  0  0  0  0  0  0  0  0  0  0
   10.4583  -15.7532   22.0071 O   0  0  0  0  0  0  0  0  0  0  0  0
    8.3569  -16.3220   22.7293 N   0  0  0  0  0  0  0  0  0  0  0  0
    8.4033  -15.3536   23.7684 C   0  0  1  0  0  0  0  0  0  0  0  0
    7.0862  -14.7162   24.0945 C   0  0  0  0  0  0  0  0  0  0  0  0
    7.1436  -13.7747   25.2210 C   0  0  0  0  0  0  0  0  0  0  0  0
    7.6641  -12.5034   25.0961 C   0  0  0  0  0  0  0  0  0  0  0  0
    7.7093  -11.6233   26.1809 C   0  0  0  0  0  0  0  0  0  0  0  0
    7.2310  -12.0092   27.4092 C   0  0  0  0  0  0  0  0  0  0  0  0
    6.7078  -13.2774   27.5488 C   0  0  0  0  0  0  0  0  0  0  0  0
    6.6694  -14.1356   26.4700 C   0  0  0  0  0  0  0  0  0  0  0  0
    8.8735  -16.0374   25.0244 C   0  0  0  0  0  0  0  0  0  0  0  0
    8.2598  -17.0464   25.4883 O   0  0  0  0  0  0  0  0  0  0  0  0
   12.7147  -15.3411   26.2050 O   0  0  0  0  0  0  0  0  0  0  0  0
   12.0646  -16.5279   26.4805 C   0  0  0  0  0  0  0  0  0  0  0  0
   10.6128  -16.3150   26.8374 C   0  0  2  0  0  0  0  0  0  0  0  0
   10.0035  -15.5945   25.7353 N   0  0  0  0  0  0  0  0  0  0  0  0
   10.5732  -15.4134   28.0161 C   0  0  0  0  0  0  0  0  0  0  0  0
   10.9854  -15.7695   29.2896 O   0  0  0  0  0  0  0  0  0  0  0  0
   10.1363  -14.2488   27.8464 O   0  0  0  0  0  0  0  0  0  0  0  0
  2  1  1  1
  2  4  1  0
  2  3  1  0
  5  4  1  0
  5  6  1  6
  7  5  1  0
  8  7  2  0
  9  7  1  0
 10  9  1  0
 10 11  1  1
 11 12  1  0
 12 17  2  0
 13 12  1  0
 13 14  2  0
 14 15  1  0
 15 16  2  0
 17 16  1  0
 18 23  1  0
 18 10  1  0
 19 18  2  0
 20 21  1  0
 22 21  1  6
 22 24  1  0
 22 23  1  0
 24 25  1  0
 26 24  2  0
M  END
$$$$
