LFS.pdb
     RDKit          3D

 26 26  0  0  1  0  0  0  0  0999 V2000
    6.1138  -15.2539   19.1821 C   0  0  0  0  0  0  0  0  0  0  0  0
    7.3951  -15.8465   19.7493 C   0  0  1  0  0  0  0  0  0  0  0  0
    7.8856  -16.8628   18.7363 C   0  0  0  0  0  0  0  0  0  0  0  0
    8.4603  -14.7987   19.9171 C   0  0  0  0  0  0  0  0  0  0  0  0
    8.0286  -13.7250   20.8966 C   0  0  2  0  0  0  0  0  0  0  0  0
    8.4819  -12.4230   20.5156 N   0  0  0  0  0  0  0  0  0  0  0  0
    8.5487  -14.0602   22.2427 C   0  0  0  0  0  0  0  0  0  0  0  0
    9.6986  -13.6994   22.5524 O   0  0  0  0  0  0  0  0  0  0  0  0
    7.7771  -14.7788   23.1878 N   0  0  0  0  0  0  0  0  0  0  0  0
    8.3109  -15.0670   24.4730 C   0  0  1  0  0  0  0  0  0  0  0  0
    7.3293  -14.9594   25.6011 C   0  0  0  0  0  0  0  0  0  0  0  0
    7.1318  -13.5876   26.0888 C   0  0  0  0  0  0  0  0  0  0  0  0
    8.1805  -12.7904   26.4982 C   0  0  0  0  0  0  0  0  0  0  0  0
    7.9705  -11.4877   26.9590 C   0  0  0  0  0  0  0  0  0  0  0  0
    6.7009  -10.9666   27.0149 C   0  0  0  0  0  0  0  0  0  0  0  0
    5.6429  -11.7522   26.6087 C   0  0  0  0  0  0  0  0  0  0  0  0
    5.8644  -13.0359   26.1563 C   0  0  0  0  0  0  0  0  0  0  0  0
    8.8050  -16.4889   24.4661 C   0  0  0  0  0  0  0  0  0  0  0  0
    8.0142  -17.4547   24.2389 O   0  0  0  0  0  0  0  0  0  0  0  0
   12.8188  -17.0310   24.4536 O   0  0  0  0  0  0  0  0  0  0  0  0
   12.0374  -18.0448   23.9353 C   0  0  0  0  0  0  0  0  0  0  0  0
   10.7021  -18.1509   24.6328 C   0  0  2  0  0  0  0  0  0  0  0  0
   10.1527  -16.8102   24.7089 N   0  0  0  0  0  0  0  0  0  0  0  0
   10.9633  -18.5895   26.0268 C   0  0  0  0  0  0  0  0  0  0  0  0
   11.5245  -19.8075   26.3731 O   0  0  0  0  0  0  0  0  0  0  0  0
   10.6540  -17.8023   26.9545 O   0  0  0  0  0  0  0  0  0  0  0  0
  2  1  1  6
  2  4  1  0
  2  3  1  0
  5  4  1  0
  5  6  1  6
  7  5  1  0
  8  7  2  0
  9  7  1  0
 10  9  1  0
 10 11  1  1
 11 12  1  0
 12 17  2  0
 13 12  1  0
 13 14  2  0
 14 15  1  0
 15 16  2  0
 17 16  1  0
 18 23  1  0
 18 10  1  0
 19 18  2  0
 20 21  1  0
 22 21  1  6
 22 24  1  0
 22 23  1  0
 24 25  1  0
 26 24  2  0
M  END
$$$$
