LFS.pdb
     RDKit          3D

 26 26  0  0  1  0  0  0  0  0999 V2000
   10.2836  -21.0978   20.2946 C   0  0  0  0  0  0  0  0  0  0  0  0
    9.5805  -19.8087   19.8968 C   0  0  1  0  0  0  0  0  0  0  0  0
    8.2675  -20.2137   19.2553 C   0  0  0  0  0  0  0  0  0  0  0  0
    9.2739  -18.9550   21.0960 C   0  0  0  0  0  0  0  0  0  0  0  0
    8.5417  -17.6883   20.6988 C   0  0  2  0  0  0  0  0  0  0  0  0
    8.9965  -17.1628   19.4486 N   0  0  0  0  0  0  0  0  0  0  0  0
    8.7207  -16.6720   21.7618 C   0  0  0  0  0  0  0  0  0  0  0  0
    9.7620  -15.9909   21.7764 O   0  0  0  0  0  0  0  0  0  0  0  0
    7.7429  -16.4521   22.7620 N   0  0  0  0  0  0  0  0  0  0  0  0
    7.9899  -15.5232   23.8089 C   0  0  1  0  0  0  0  0  0  0  0  0
    6.7594  -14.9534   24.4484 C   0  0  0  0  0  0  0  0  0  0  0  0
    7.0388  -14.0067   25.5367 C   0  0  0  0  0  0  0  0  0  0  0  0
    7.2981  -12.6715   25.3067 C   0  0  0  0  0  0  0  0  0  0  0  0
    7.5615  -11.7876   26.3568 C   0  0  0  0  0  0  0  0  0  0  0  0
    7.5682  -12.2340   27.6557 C   0  0  0  0  0  0  0  0  0  0  0  0
    7.3107  -13.5664   27.9006 C   0  0  0  0  0  0  0  0  0  0  0  0
    7.0523  -14.4276   26.8550 C   0  0  0  0  0  0  0  0  0  0  0  0
    8.7500  -16.2349   24.8959 C   0  0  0  0  0  0  0  0  0  0  0  0
    8.2838  -17.2806   25.4427 O   0  0  0  0  0  0  0  0  0  0  0  0
   12.6483  -15.1918   25.2520 O   0  0  0  0  0  0  0  0  0  0  0  0
   12.2667  -16.4883   25.5354 C   0  0  0  0  0  0  0  0  0  0  0  0
   10.9031  -16.5547   26.1809 C   0  0  2  0  0  0  0  0  0  0  0  0
   10.0001  -15.7788   25.3518 N   0  0  0  0  0  0  0  0  0  0  0  0
   10.9963  -15.8562   27.4875 C   0  0  0  0  0  0  0  0  0  0  0  0
   10.2892  -14.7116   27.8165 O   0  0  0  0  0  0  0  0  0  0  0  0
   11.7689  -16.3362   28.3528 O   0  0  0  0  0  0  0  0  0  0  0  0
  2  1  1  1
  2  4  1  0
  2  3  1  0
  5  4  1  0
  5  6  1  6
  7  5  1  0
  8  7  2  0
  9  7  1  0
 10  9  1  0
 10 11  1  1
 11 12  1  0
 12 17  2  0
 13 12  1  0
 13 14  2  0
 14 15  1  0
 15 16  2  0
 17 16  1  0
 18 23  1  0
 18 10  1  0
 19 18  2  0
 20 21  1  0
 22 21  1  6
 22 24  1  0
 22 23  1  0
 24 25  1  0
 26 24  2  0
M  END
$$$$
