LFS.pdb
     RDKit          3D

 26 26  0  0  1  0  0  0  0  0999 V2000
    7.8500  -11.8712   19.2025 C   0  0  0  0  0  0  0  0  0  0  0  0
    7.7952  -13.3441   19.5795 C   0  0  1  0  0  0  0  0  0  0  0  0
    8.4050  -14.1088   18.4207 C   0  0  0  0  0  0  0  0  0  0  0  0
    8.6097  -13.6289   20.8108 C   0  0  0  0  0  0  0  0  0  0  0  0
    8.4899  -15.0816   21.2278 C   0  0  2  0  0  0  0  0  0  0  0  0
    7.1582  -15.5836   21.0845 N   0  0  0  0  0  0  0  0  0  0  0  0
    8.9255  -15.2183   22.6372 C   0  0  0  0  0  0  0  0  0  0  0  0
   10.0615  -14.8251   22.9586 O   0  0  0  0  0  0  0  0  0  0  0  0
    8.0885  -15.7830   23.6299 N   0  0  0  0  0  0  0  0  0  0  0  0
    8.5248  -15.8425   24.9811 C   0  0  1  0  0  0  0  0  0  0  0  0
    7.4535  -15.5950   26.0002 C   0  0  0  0  0  0  0  0  0  0  0  0
    7.1863  -14.1717   26.2486 C   0  0  0  0  0  0  0  0  0  0  0  0
    8.1620  -13.3025   26.6905 C   0  0  0  0  0  0  0  0  0  0  0  0
    7.8864  -11.9518   26.9206 C   0  0  0  0  0  0  0  0  0  0  0  0
    6.6237  -11.4544   26.7094 C   0  0  0  0  0  0  0  0  0  0  0  0
    5.6383  -12.3118   26.2675 C   0  0  0  0  0  0  0  0  0  0  0  0
    5.9240  -13.6424   26.0445 C   0  0  0  0  0  0  0  0  0  0  0  0
    9.0547  -17.2274   25.2409 C   0  0  0  0  0  0  0  0  0  0  0  0
    8.3253  -18.2503   25.0638 O   0  0  0  0  0  0  0  0  0  0  0  0
   13.0581  -17.6412   25.5533 O   0  0  0  0  0  0  0  0  0  0  0  0
   12.3083  -18.7458   25.2002 C   0  0  0  0  0  0  0  0  0  0  0  0
   10.9594  -18.7618   25.8790 C   0  0  2  0  0  0  0  0  0  0  0  0
   10.3698  -17.4500   25.6877 N   0  0  0  0  0  0  0  0  0  0  0  0
   11.1976  -18.9191   27.3358 C   0  0  0  0  0  0  0  0  0  0  0  0
   11.7236  -20.0565   27.9257 O   0  0  0  0  0  0  0  0  0  0  0  0
   10.9018  -17.9550   28.0835 O   0  0  0  0  0  0  0  0  0  0  0  0
  2  1  1  6
  2  4  1  0
  2  3  1  0
  5  4  1  0
  5  6  1  1
  7  5  1  0
  8  7  2  0
  9  7  1  0
 10  9  1  0
 10 11  1  1
 11 12  1  0
 12 17  2  0
 13 12  1  0
 13 14  2  0
 14 15  1  0
 15 16  2  0
 17 16  1  0
 18 23  1  0
 18 10  1  0
 19 18  2  0
 20 21  1  0
 22 21  1  6
 22 24  1  0
 22 23  1  0
 24 25  1  0
 26 24  2  0
M  END
$$$$
