LFS.pdb
     RDKit          3D

 26 26  0  0  1  0  0  0  0  0999 V2000
    7.3727  -12.2576   19.1558 C   0  0  0  0  0  0  0  0  0  0  0  0
    7.5185  -13.7641   19.3102 C   0  0  1  0  0  0  0  0  0  0  0  0
    7.4398  -14.3503   17.9138 C   0  0  0  0  0  0  0  0  0  0  0  0
    8.8519  -14.1316   19.8996 C   0  0  0  0  0  0  0  0  0  0  0  0
    8.7807  -15.4491   20.6465 C   0  0  2  0  0  0  0  0  0  0  0  0
    7.4712  -16.0237   20.6181 N   0  0  0  0  0  0  0  0  0  0  0  0
    9.2002  -15.2328   22.0508 C   0  0  0  0  0  0  0  0  0  0  0  0
   10.3139  -14.7257   22.2767 O   0  0  0  0  0  0  0  0  0  0  0  0
    8.3724  -15.5855   23.1441 N   0  0  0  0  0  0  0  0  0  0  0  0
    8.8186  -15.3680   24.4757 C   0  0  1  0  0  0  0  0  0  0  0  0
    7.7542  -14.9177   25.4308 C   0  0  0  0  0  0  0  0  0  0  0  0
    8.2739  -14.4503   26.7232 C   0  0  0  0  0  0  0  0  0  0  0  0
    8.4768  -13.1140   26.9987 C   0  0  0  0  0  0  0  0  0  0  0  0
    8.9721  -12.6907   28.2352 C   0  0  0  0  0  0  0  0  0  0  0  0
    9.2712  -13.6063   29.2143 C   0  0  0  0  0  0  0  0  0  0  0  0
    9.0733  -14.9457   28.9528 C   0  0  0  0  0  0  0  0  0  0  0  0
    8.5839  -15.3495   27.7284 C   0  0  0  0  0  0  0  0  0  0  0  0
    9.3524  -16.6707   25.0088 C   0  0  0  0  0  0  0  0  0  0  0  0
    8.6495  -17.7265   24.9786 O   0  0  0  0  0  0  0  0  0  0  0  0
   13.3087  -17.0337   25.2772 O   0  0  0  0  0  0  0  0  0  0  0  0
   12.5411  -18.1814   25.2476 C   0  0  0  0  0  0  0  0  0  0  0  0
   11.2436  -18.0210   26.0034 C   0  0  2  0  0  0  0  0  0  0  0  0
   10.6422  -16.7774   25.5598 N   0  0  0  0  0  0  0  0  0  0  0  0
   11.5842  -17.8474   27.4379 C   0  0  0  0  0  0  0  0  0  0  0  0
   12.1463  -18.8310   28.2346 O   0  0  0  0  0  0  0  0  0  0  0  0
   11.3463  -16.7327   27.9641 O   0  0  0  0  0  0  0  0  0  0  0  0
  2  1  1  6
  2  4  1  0
  2  3  1  0
  5  4  1  0
  5  6  1  1
  7  5  1  0
  8  7  2  0
  9  7  1  0
 10  9  1  0
 10 11  1  1
 11 12  1  0
 12 17  2  0
 13 12  1  0
 13 14  2  0
 14 15  1  0
 15 16  2  0
 17 16  1  0
 18 23  1  0
 18 10  1  0
 19 18  2  0
 20 21  1  0
 22 21  1  6
 22 24  1  0
 22 23  1  0
 24 25  1  0
 26 24  2  0
M  END
$$$$
