NLS.pdb
     RDKit          3D

 23 22  0  0  1  0  0  0  0  0999 V2000
    7.2796  -19.0353   21.1936 N   0  0  0  0  0  0  0  0  0  0  0  0
    7.7680  -17.7174   21.0240 C   0  0  0  0  0  0  0  0  0  0  0  0
    9.0408  -17.6086   21.0321 O   0  0  0  0  0  0  0  0  0  0  0  0
    6.8938  -16.5123   20.8463 C   0  0  0  0  0  0  0  0  0  0  0  0
    7.7638  -15.2902   21.0274 C   0  0  2  0  0  0  0  0  0  0  0  0
    8.7658  -15.2680   20.0013 N   0  0  0  0  0  0  0  0  0  0  0  0
    8.2538  -15.0851   22.3820 C   0  0  0  0  0  0  0  0  0  0  0  0
    9.5158  -15.2206   22.5412 O   0  0  0  0  0  0  0  0  0  0  0  0
    8.2436  -11.7196   25.7213 C   0  0  0  0  0  0  0  0  0  0  0  0
    7.0045  -12.5401   25.5872 C   0  0  2  0  0  0  0  0  0  0  0  0
    5.9438  -12.0419   26.5481 C   0  0  0  0  0  0  0  0  0  0  0  0
    7.2200  -13.9984   25.8245 C   0  0  0  0  0  0  0  0  0  0  0  0
    8.1591  -14.6376   24.7875 C   0  0  2  0  0  0  0  0  0  0  0  0
    7.4561  -14.7555   23.5266 N   0  0  0  0  0  0  0  0  0  0  0  0
    8.4455  -15.9824   25.3121 C   0  0  0  0  0  0  0  0  0  0  0  0
    7.5374  -16.8399   25.4448 O   0  0  0  0  0  0  0  0  0  0  0  0
   12.2706  -17.4681   25.3358 O   0  0  0  0  0  0  0  0  0  0  0  0
   11.1522  -18.2966   25.2691 C   0  0  0  0  0  0  0  0  0  0  0  0
   10.0593  -17.6642   26.1315 C   0  0  2  0  0  0  0  0  0  0  0  0
    9.7899  -16.3125   25.6646 N   0  0  0  0  0  0  0  0  0  0  0  0
   10.4352  -17.6215   27.5513 C   0  0  0  0  0  0  0  0  0  0  0  0
   10.4861  -16.5238   28.1412 O   0  0  0  0  0  0  0  0  0  0  0  0
   10.7322  -18.7812   28.2386 O   0  0  0  0  0  0  0  0  0  0  0  0
  2  3  2  0
  2  1  1  0
  4  2  1  0
  5  4  1  0
  5  6  1  6
  7  5  1  0
  7  8  2  0
 10  9  1  1
 10 11  1  0
 10 12  1  0
 13 12  1  1
 13 15  1  0
 13 14  1  0
 14  7  1  0
 15 20  1  0
 16 15  2  0
 18 17  1  0
 19 18  1  6
 19 21  1  0
 20 19  1  0
 21 22  2  0
 21 23  1  0
M  END
$$$$
