NLS.pdb
     RDKit          3D

 23 22  0  0  1  0  0  0  0  0999 V2000
   10.8628  -16.2879   18.7972 N   0  0  0  0  0  0  0  0  0  0  0  0
    9.7476  -15.8717   19.5635 C   0  0  0  0  0  0  0  0  0  0  0  0
    8.6097  -16.1803   19.0718 O   0  0  0  0  0  0  0  0  0  0  0  0
    9.8486  -15.1228   20.8585 C   0  0  0  0  0  0  0  0  0  0  0  0
    9.2619  -16.0022   21.9381 C   0  0  2  0  0  0  0  0  0  0  0  0
    7.9539  -16.4331   21.5368 N   0  0  0  0  0  0  0  0  0  0  0  0
    9.3536  -15.4588   23.2847 C   0  0  0  0  0  0  0  0  0  0  0  0
   10.5057  -15.0221   23.6287 O   0  0  0  0  0  0  0  0  0  0  0  0
    8.1143  -12.0026   25.9494 C   0  0  0  0  0  0  0  0  0  0  0  0
    7.0457  -13.0258   25.7555 C   0  0  2  0  0  0  0  0  0  0  0  0
    5.7649  -12.5749   26.4283 C   0  0  0  0  0  0  0  0  0  0  0  0
    7.4079  -14.3793   26.2716 C   0  0  0  0  0  0  0  0  0  0  0  0
    8.6476  -14.9687   25.5775 C   0  0  2  0  0  0  0  0  0  0  0  0
    8.2846  -15.3788   24.2366 N   0  0  0  0  0  0  0  0  0  0  0  0
    8.9984  -16.1572   26.3713 C   0  0  0  0  0  0  0  0  0  0  0  0
    8.9134  -16.1554   27.6244 O   0  0  0  0  0  0  0  0  0  0  0  0
   10.5154  -19.4972   24.4809 O   0  0  0  0  0  0  0  0  0  0  0  0
    9.8046  -19.7463   25.6533 C   0  0  0  0  0  0  0  0  0  0  0  0
    9.8505  -18.4728   26.4984 C   0  0  2  0  0  0  0  0  0  0  0  0
    9.4333  -17.3360   25.6915 N   0  0  0  0  0  0  0  0  0  0  0  0
   11.1937  -18.2188   27.0372 C   0  0  0  0  0  0  0  0  0  0  0  0
   11.8094  -17.1898   26.6943 O   0  0  0  0  0  0  0  0  0  0  0  0
   11.7810  -19.1052   27.9175 O   0  0  0  0  0  0  0  0  0  0  0  0
  2  3  2  0
  2  1  1  0
  4  2  1  0
  5  4  1  0
  5  6  1  6
  7  5  1  0
  7  8  2  0
 10  9  1  1
 10 11  1  0
 10 12  1  0
 13 12  1  1
 13 15  1  0
 13 14  1  0
 14  7  1  0
 15 20  1  0
 16 15  2  0
 18 17  1  0
 19 18  1  6
 19 21  1  0
 20 19  1  0
 21 22  2  0
 21 23  1  0
M  END
$$$$
