NLS.pdb
     RDKit          3D

 23 22  0  0  1  0  0  0  0  0999 V2000
    8.3191  -17.5204   18.6261 N   0  0  0  0  0  0  0  0  0  0  0  0
    9.1667  -16.3865   18.6396 C   0  0  0  0  0  0  0  0  0  0  0  0
    9.6616  -16.0694   17.5054 O   0  0  0  0  0  0  0  0  0  0  0  0
    9.4870  -15.5899   19.8687 C   0  0  0  0  0  0  0  0  0  0  0  0
    8.7967  -16.2579   21.0350 C   0  0  2  0  0  0  0  0  0  0  0  0
    7.4447  -16.5672   20.6691 N   0  0  0  0  0  0  0  0  0  0  0  0
    8.9572  -15.5769   22.3108 C   0  0  0  0  0  0  0  0  0  0  0  0
   10.1639  -15.4047   22.6990 O   0  0  0  0  0  0  0  0  0  0  0  0
    6.2216  -12.6767   27.0971 C   0  0  0  0  0  0  0  0  0  0  0  0
    7.3905  -13.3369   26.4458 C   0  0  2  0  0  0  0  0  0  0  0  0
    8.5769  -12.3943   26.4269 C   0  0  0  0  0  0  0  0  0  0  0  0
    7.1214  -13.7974   25.0512 C   0  0  0  0  0  0  0  0  0  0  0  0
    8.2863  -14.6070   24.4566 C   0  0  2  0  0  0  0  0  0  0  0  0
    7.8984  -15.0983   23.1505 N   0  0  0  0  0  0  0  0  0  0  0  0
    8.4637  -15.7458   25.3716 C   0  0  0  0  0  0  0  0  0  0  0  0
    7.4915  -16.4575   25.7265 O   0  0  0  0  0  0  0  0  0  0  0  0
   12.1464  -17.3736   25.6404 O   0  0  0  0  0  0  0  0  0  0  0  0
   11.0029  -18.1530   25.8036 C   0  0  0  0  0  0  0  0  0  0  0  0
    9.9723  -17.3066   26.5516 C   0  0  2  0  0  0  0  0  0  0  0  0
    9.7752  -16.0460   25.8518 N   0  0  0  0  0  0  0  0  0  0  0  0
   10.3847  -17.0342   27.9353 C   0  0  0  0  0  0  0  0  0  0  0  0
   10.5384  -15.8548   28.3104 O   0  0  0  0  0  0  0  0  0  0  0  0
   10.6037  -18.0680   28.8236 O   0  0  0  0  0  0  0  0  0  0  0  0
  2  3  2  0
  2  1  1  0
  4  2  1  0
  5  4  1  0
  5  6  1  6
  7  5  1  0
  7  8  2  0
 10  9  1  6
 10 11  1  0
 10 12  1  0
 13 12  1  1
 13 15  1  0
 13 14  1  0
 14  7  1  0
 15 20  1  0
 16 15  2  0
 18 17  1  0
 19 18  1  6
 19 21  1  0
 20 19  1  0
 21 22  2  0
 21 23  1  0
M  END
$$$$
