NLS.pdb
     RDKit          3D

 23 22  0  0  1  0  0  0  0  0999 V2000
    8.2787  -12.5899   17.8105 N   0  0  0  0  0  0  0  0  0  0  0  0
    8.0828  -13.5451   18.8368 C   0  0  0  0  0  0  0  0  0  0  0  0
    7.7253  -14.7037   18.4343 O   0  0  0  0  0  0  0  0  0  0  0  0
    8.2685  -13.2614   20.2972 C   0  0  0  0  0  0  0  0  0  0  0  0
    8.1883  -14.5808   21.0294 C   0  0  2  0  0  0  0  0  0  0  0  0
    6.9210  -15.1951   20.7575 N   0  0  0  0  0  0  0  0  0  0  0  0
    8.5650  -14.5234   22.4337 C   0  0  0  0  0  0  0  0  0  0  0  0
    9.7873  -14.2277   22.6679 O   0  0  0  0  0  0  0  0  0  0  0  0
    8.2614  -11.8450   25.9393 C   0  0  0  0  0  0  0  0  0  0  0  0
    7.0481  -12.6780   25.6930 C   0  0  2  0  0  0  0  0  0  0  0  0
    5.9278  -12.2530   26.6208 C   0  0  0  0  0  0  0  0  0  0  0  0
    7.2802  -14.1434   25.8610 C   0  0  0  0  0  0  0  0  0  0  0  0
    8.3085  -14.7013   24.8622 C   0  0  2  0  0  0  0  0  0  0  0  0
    7.6996  -14.7694   23.5498 N   0  0  0  0  0  0  0  0  0  0  0  0
    8.5971  -16.0645   25.3357 C   0  0  0  0  0  0  0  0  0  0  0  0
    7.6971  -16.9380   25.4029 O   0  0  0  0  0  0  0  0  0  0  0  0
   11.7220  -17.3488   24.2996 O   0  0  0  0  0  0  0  0  0  0  0  0
   11.4882  -18.2378   25.3469 C   0  0  0  0  0  0  0  0  0  0  0  0
   10.2218  -17.7755   26.0685 C   0  0  2  0  0  0  0  0  0  0  0  0
    9.9347  -16.3937   25.7141 N   0  0  0  0  0  0  0  0  0  0  0  0
   10.3496  -17.8858   27.5281 C   0  0  0  0  0  0  0  0  0  0  0  0
   10.2053  -16.8696   28.2366 O   0  0  0  0  0  0  0  0  0  0  0  0
   10.6271  -19.1001   28.1232 O   0  0  0  0  0  0  0  0  0  0  0  0
  2  3  2  0
  2  1  1  0
  4  2  1  0
  5  4  1  0
  5  6  1  1
  7  5  1  0
  7  8  2  0
 10  9  1  1
 10 11  1  0
 10 12  1  0
 13 12  1  1
 13 15  1  0
 13 14  1  0
 14  7  1  0
 15 20  1  0
 16 15  2  0
 18 17  1  0
 19 18  1  6
 19 21  1  0
 20 19  1  0
 21 22  2  0
 21 23  1  0
M  END
$$$$
