NLS.pdb
     RDKit          3D

 23 22  0  0  1  0  0  0  0  0999 V2000
    7.6827  -17.4622   18.1600 N   0  0  0  0  0  0  0  0  0  0  0  0
    7.1457  -17.0828   19.4137 C   0  0  0  0  0  0  0  0  0  0  0  0
    5.8761  -16.9432   19.4369 O   0  0  0  0  0  0  0  0  0  0  0  0
    7.9677  -16.8508   20.6460 C   0  0  0  0  0  0  0  0  0  0  0  0
    7.7165  -15.4312   21.0984 C   0  0  2  0  0  0  0  0  0  0  0  0
    8.1008  -14.5277   20.0528 N   0  0  0  0  0  0  0  0  0  0  0  0
    8.2335  -15.1113   22.4203 C   0  0  0  0  0  0  0  0  0  0  0  0
    9.5081  -15.0950   22.5277 O   0  0  0  0  0  0  0  0  0  0  0  0
    8.0711  -11.6713   25.7330 C   0  0  0  0  0  0  0  0  0  0  0  0
    6.8921  -12.5807   25.6366 C   0  0  2  0  0  0  0  0  0  0  0  0
    5.8270  -12.1590   26.6287 C   0  0  0  0  0  0  0  0  0  0  0  0
    7.2209  -14.0187   25.8679 C   0  0  0  0  0  0  0  0  0  0  0  0
    8.1840  -14.5863   24.8114 C   0  0  2  0  0  0  0  0  0  0  0  0
    7.4497  -14.8240   23.5857 N   0  0  0  0  0  0  0  0  0  0  0  0
    8.6383  -15.8725   25.3634 C   0  0  0  0  0  0  0  0  0  0  0  0
    7.8691  -16.8630   25.4325 O   0  0  0  0  0  0  0  0  0  0  0  0
   12.2257  -18.8553   25.8738 O   0  0  0  0  0  0  0  0  0  0  0  0
   11.7896  -17.5957   25.4675 C   0  0  0  0  0  0  0  0  0  0  0  0
   10.4702  -17.3118   26.1863 C   0  0  2  0  0  0  0  0  0  0  0  0
    9.9878  -15.9894   25.8172 N   0  0  0  0  0  0  0  0  0  0  0  0
   10.6128  -17.3863   27.6468 C   0  0  0  0  0  0  0  0  0  0  0  0
   10.3992  -16.3705   28.3381 O   0  0  0  0  0  0  0  0  0  0  0  0
   10.9799  -18.5666   28.2614 O   0  0  0  0  0  0  0  0  0  0  0  0
  2  3  2  0
  2  1  1  0
  4  2  1  0
  5  4  1  0
  5  6  1  6
  7  5  1  0
  7  8  2  0
 10  9  1  1
 10 11  1  0
 10 12  1  0
 13 12  1  1
 13 15  1  0
 13 14  1  0
 14  7  1  0
 15 20  1  0
 16 15  2  0
 18 17  1  0
 19 18  1  6
 19 21  1  0
 20 19  1  0
 21 22  2  0
 21 23  1  0
M  END
$$$$
