NLS.pdb
     RDKit          3D

 23 22  0  0  1  0  0  0  0  0999 V2000
    8.9310  -19.7997   15.5782 N   0  0  0  0  0  0  0  0  0  0  0  0
    9.1836  -20.2966   16.8795 C   0  0  0  0  0  0  0  0  0  0  0  0
    8.9565  -21.5442   17.0341 O   0  0  0  0  0  0  0  0  0  0  0  0
    9.6794  -19.4578   18.0191 C   0  0  0  0  0  0  0  0  0  0  0  0
    9.7588  -18.0301   17.5306 C   0  0  2  0  0  0  0  0  0  0  0  0
   10.6484  -17.9644   16.4074 N   0  0  0  0  0  0  0  0  0  0  0  0
    9.9945  -17.0412   18.5715 C   0  0  0  0  0  0  0  0  0  0  0  0
   11.2142  -16.6946   18.7406 O   0  0  0  0  0  0  0  0  0  0  0  0
    8.7596  -12.7067   19.5740 C   0  0  0  0  0  0  0  0  0  0  0  0
    7.7744  -13.7559   19.9676 C   0  0  2  0  0  0  0  0  0  0  0  0
    6.5176  -13.1104   20.5157 C   0  0  0  0  0  0  0  0  0  0  0  0
    8.2968  -14.7231   20.9781 C   0  0  0  0  0  0  0  0  0  0  0  0
    9.4757  -15.5577   20.4491 C   0  0  2  0  0  0  0  0  0  0  0  0
    8.9956  -16.4407   19.4063 N   0  0  0  0  0  0  0  0  0  0  0  0
    9.9196  -16.3603   21.5999 C   0  0  0  0  0  0  0  0  0  0  0  0
    9.3848  -17.4635   21.8733 O   0  0  0  0  0  0  0  0  0  0  0  0
   13.3203  -17.1277   24.9010 O   0  0  0  0  0  0  0  0  0  0  0  0
   12.9182  -16.3332   23.8292 C   0  0  0  0  0  0  0  0  0  0  0  0
   11.4835  -16.7278   23.4769 C   0  0  2  0  0  0  0  0  0  0  0  0
   10.9893  -15.8704   22.4101 N   0  0  0  0  0  0  0  0  0  0  0  0
   10.5856  -16.6276   24.6356 C   0  0  0  0  0  0  0  0  0  0  0  0
   10.8032  -17.3276   25.6446 O   0  0  0  0  0  0  0  0  0  0  0  0
    9.5052  -15.7684   24.6198 O   0  0  0  0  0  0  0  0  0  0  0  0
  2  3  2  0
  2  1  1  0
  4  2  1  0
  5  4  1  0
  5  6  1  6
  7  5  1  0
  7  8  2  0
 10  9  1  1
 10 11  1  0
 10 12  1  0
 13 12  1  1
 13 15  1  0
 13 14  1  0
 14  7  1  0
 15 20  1  0
 16 15  2  0
 18 17  1  0
 19 18  1  1
 19 21  1  0
 20 19  1  0
 21 22  2  0
 21 23  1  0
M  END
$$$$
