NLS.pdb
     RDKit          3D

 23 22  0  0  1  0  0  0  0  0999 V2000
    7.3619  -16.0374   18.7004 N   0  0  0  0  0  0  0  0  0  0  0  0
    7.2088  -17.0884   19.6363 C   0  0  0  0  0  0  0  0  0  0  0  0
    6.5755  -18.1095   19.2022 O   0  0  0  0  0  0  0  0  0  0  0  0
    7.7328  -17.0479   21.0405 C   0  0  0  0  0  0  0  0  0  0  0  0
    8.1688  -15.6287   21.3212 C   0  0  2  0  0  0  0  0  0  0  0  0
    9.1685  -15.2446   20.3670 N   0  0  0  0  0  0  0  0  0  0  0  0
    8.4965  -15.3547   22.7122 C   0  0  0  0  0  0  0  0  0  0  0  0
    9.7220  -15.5252   23.0367 O   0  0  0  0  0  0  0  0  0  0  0  0
    8.1902  -11.8453   25.8943 C   0  0  0  0  0  0  0  0  0  0  0  0
    6.9459  -12.6287   25.6400 C   0  0  2  0  0  0  0  0  0  0  0  0
    5.7979  -12.0593   26.4488 C   0  0  0  0  0  0  0  0  0  0  0  0
    7.0767  -14.0833   25.9508 C   0  0  0  0  0  0  0  0  0  0  0  0
    8.1161  -14.7901   25.0642 C   0  0  2  0  0  0  0  0  0  0  0  0
    7.5789  -14.9235   23.7257 N   0  0  0  0  0  0  0  0  0  0  0  0
    8.2771  -16.1265   25.6590 C   0  0  0  0  0  0  0  0  0  0  0  0
    7.3205  -16.9388   25.7115 O   0  0  0  0  0  0  0  0  0  0  0  0
   11.6487  -18.0178   25.3574 O   0  0  0  0  0  0  0  0  0  0  0  0
   10.4796  -18.7039   25.6802 C   0  0  0  0  0  0  0  0  0  0  0  0
    9.7113  -17.8529   26.6919 C   0  0  2  0  0  0  0  0  0  0  0  0
    9.5553  -16.5016   26.1748 N   0  0  0  0  0  0  0  0  0  0  0  0
   10.3908  -17.7992   27.9935 C   0  0  0  0  0  0  0  0  0  0  0  0
   10.7604  -16.6987   28.4494 O   0  0  0  0  0  0  0  0  0  0  0  0
   10.6245  -18.9517   28.7166 O   0  0  0  0  0  0  0  0  0  0  0  0
  2  3  2  0
  2  1  1  0
  4  2  1  0
  5  4  1  0
  5  6  1  6
  7  5  1  0
  7  8  2  0
 10  9  1  1
 10 11  1  0
 10 12  1  0
 13 12  1  1
 13 15  1  0
 13 14  1  0
 14  7  1  0
 15 20  1  0
 16 15  2  0
 18 17  1  0
 19 18  1  6
 19 21  1  0
 20 19  1  0
 21 22  2  0
 21 23  1  0
M  END
$$$$
