NLS.pdb
     RDKit          3D

 23 22  0  0  1  0  0  0  0  0999 V2000
    7.0496  -13.2234   18.0999 N   0  0  0  0  0  0  0  0  0  0  0  0
    8.1684  -13.6204   18.8710 C   0  0  0  0  0  0  0  0  0  0  0  0
    9.0455  -14.3007   18.2387 O   0  0  0  0  0  0  0  0  0  0  0  0
    8.3502  -13.2905   20.3223 C   0  0  0  0  0  0  0  0  0  0  0  0
    8.1777  -14.5721   21.1039 C   0  0  2  0  0  0  0  0  0  0  0  0
    6.8832  -15.1237   20.8261 N   0  0  0  0  0  0  0  0  0  0  0  0
    8.5264  -14.4789   22.5135 C   0  0  0  0  0  0  0  0  0  0  0  0
    9.7597  -14.2505   22.7653 O   0  0  0  0  0  0  0  0  0  0  0  0
    7.9154  -11.8250   26.0209 C   0  0  0  0  0  0  0  0  0  0  0  0
    6.7917  -12.7832   25.8067 C   0  0  2  0  0  0  0  0  0  0  0  0
    5.6555  -12.4745   26.7607 C   0  0  0  0  0  0  0  0  0  0  0  0
    7.1819  -14.2148   25.9726 C   0  0  0  0  0  0  0  0  0  0  0  0
    8.2215  -14.6723   24.9352 C   0  0  2  0  0  0  0  0  0  0  0  0
    7.6230  -14.6230   23.6172 N   0  0  0  0  0  0  0  0  0  0  0  0
    8.5157  -16.0714   25.2838 C   0  0  0  0  0  0  0  0  0  0  0  0
    7.6227  -16.9542   25.2564 O   0  0  0  0  0  0  0  0  0  0  0  0
   12.3105  -17.4907   25.1974 O   0  0  0  0  0  0  0  0  0  0  0  0
   11.2280  -18.3636   25.1084 C   0  0  0  0  0  0  0  0  0  0  0  0
   10.1168  -17.8109   26.0017 C   0  0  2  0  0  0  0  0  0  0  0  0
    9.8510  -16.4243   25.6488 N   0  0  0  0  0  0  0  0  0  0  0  0
   10.4660  -17.8908   27.4266 C   0  0  0  0  0  0  0  0  0  0  0  0
   10.5062  -16.8479   28.1094 O   0  0  0  0  0  0  0  0  0  0  0  0
   10.7499  -19.1058   28.0173 O   0  0  0  0  0  0  0  0  0  0  0  0
  2  3  2  0
  2  1  1  0
  4  2  1  0
  5  4  1  0
  5  6  1  1
  7  5  1  0
  7  8  2  0
 10  9  1  1
 10 11  1  0
 10 12  1  0
 13 12  1  1
 13 15  1  0
 13 14  1  0
 14  7  1  0
 15 20  1  0
 16 15  2  0
 18 17  1  0
 19 18  1  6
 19 21  1  0
 20 19  1  0
 21 22  2  0
 21 23  1  0
M  END
$$$$
