NLS.pdb
     RDKit          3D

 23 22  0  0  1  0  0  0  0  0999 V2000
    9.9134  -16.5176   17.5540 N   0  0  0  0  0  0  0  0  0  0  0  0
    8.7614  -16.0626   18.2396 C   0  0  0  0  0  0  0  0  0  0  0  0
    7.6520  -16.4946   17.7763 O   0  0  0  0  0  0  0  0  0  0  0  0
    8.7949  -15.1427   19.4231 C   0  0  0  0  0  0  0  0  0  0  0  0
    8.2954  -15.9218   20.6175 C   0  0  2  0  0  0  0  0  0  0  0  0
    6.9614  -16.3804   20.3576 N   0  0  0  0  0  0  0  0  0  0  0  0
    8.4895  -15.2632   21.9004 C   0  0  0  0  0  0  0  0  0  0  0  0
    9.6960  -14.9465   22.1837 O   0  0  0  0  0  0  0  0  0  0  0  0
    5.9655  -12.4937   26.8509 C   0  0  0  0  0  0  0  0  0  0  0  0
    7.0936  -13.1891   26.1652 C   0  0  2  0  0  0  0  0  0  0  0  0
    8.3019  -12.2771   26.0955 C   0  0  0  0  0  0  0  0  0  0  0  0
    6.7637  -13.6546   24.7854 C   0  0  0  0  0  0  0  0  0  0  0  0
    7.9093  -14.4494   24.1357 C   0  0  2  0  0  0  0  0  0  0  0  0
    7.4638  -14.9514   22.8522 N   0  0  0  0  0  0  0  0  0  0  0  0
    8.1491  -15.5819   25.0442 C   0  0  0  0  0  0  0  0  0  0  0  0
    7.2010  -16.2731   25.4925 O   0  0  0  0  0  0  0  0  0  0  0  0
   11.7509  -17.2545   24.9307 O   0  0  0  0  0  0  0  0  0  0  0  0
   10.6686  -18.0357   25.3309 C   0  0  0  0  0  0  0  0  0  0  0  0
    9.7267  -17.1391   26.1353 C   0  0  2  0  0  0  0  0  0  0  0  0
    9.4932  -15.9000   25.4089 N   0  0  0  0  0  0  0  0  0  0  0  0
   10.2672  -16.8274   27.4656 C   0  0  0  0  0  0  0  0  0  0  0  0
   10.4949  -15.6407   27.7743 O   0  0  0  0  0  0  0  0  0  0  0  0
   10.5255  -17.8322   28.3763 O   0  0  0  0  0  0  0  0  0  0  0  0
  2  3  2  0
  2  1  1  0
  4  2  1  0
  5  4  1  0
  5  6  1  6
  7  5  1  0
  7  8  2  0
 10  9  1  6
 10 11  1  0
 10 12  1  0
 13 12  1  1
 13 15  1  0
 13 14  1  0
 14  7  1  0
 15 20  1  0
 16 15  2  0
 18 17  1  0
 19 18  1  6
 19 21  1  0
 20 19  1  0
 21 22  2  0
 21 23  1  0
M  END
$$$$
