NLS.pdb
     RDKit          3D

 23 22  0  0  1  0  0  0  0  0999 V2000
    6.9167  -18.3536   20.0503 N   0  0  0  0  0  0  0  0  0  0  0  0
    7.6012  -18.8871   21.1687 C   0  0  0  0  0  0  0  0  0  0  0  0
    7.1935  -20.0349   21.5536 O   0  0  0  0  0  0  0  0  0  0  0  0
    8.7240  -18.1917   21.8786 C   0  0  0  0  0  0  0  0  0  0  0  0
    8.5427  -16.7064   21.6684 C   0  0  2  0  0  0  0  0  0  0  0  0
    9.2872  -16.2990   20.5121 N   0  0  0  0  0  0  0  0  0  0  0  0
    8.7434  -15.8927   22.8579 C   0  0  0  0  0  0  0  0  0  0  0  0
    9.9512  -15.5424   23.0921 O   0  0  0  0  0  0  0  0  0  0  0  0
    6.2454  -12.7939   27.4348 C   0  0  0  0  0  0  0  0  0  0  0  0
    7.2875  -12.7664   26.3671 C   0  0  2  0  0  0  0  0  0  0  0  0
    7.4831  -11.3493   25.8670 C   0  0  0  0  0  0  0  0  0  0  0  0
    6.9787  -13.6480   25.2022 C   0  0  0  0  0  0  0  0  0  0  0  0
    8.1445  -14.5832   24.8382 C   0  0  2  0  0  0  0  0  0  0  0  0
    7.7230  -15.4652   23.7695 N   0  0  0  0  0  0  0  0  0  0  0  0
    8.3903  -15.3750   26.0540 C   0  0  0  0  0  0  0  0  0  0  0  0
    8.6771  -14.8250   27.1461 O   0  0  0  0  0  0  0  0  0  0  0  0
    8.2527  -19.5573   25.9732 O   0  0  0  0  0  0  0  0  0  0  0  0
    7.7952  -18.9015   27.1144 C   0  0  0  0  0  0  0  0  0  0  0  0
    8.5255  -17.5606   27.1982 C   0  0  2  0  0  0  0  0  0  0  0  0
    8.2871  -16.7980   25.9820 N   0  0  0  0  0  0  0  0  0  0  0  0
    9.9723  -17.7335   27.3870 C   0  0  0  0  0  0  0  0  0  0  0  0
   10.7569  -17.3797   26.4845 O   0  0  0  0  0  0  0  0  0  0  0  0
   10.4722  -18.2825   28.5508 O   0  0  0  0  0  0  0  0  0  0  0  0
  2  3  2  0
  2  1  1  0
  4  2  1  0
  5  4  1  0
  5  6  1  6
  7  5  1  0
  7  8  2  0
 10  9  1  1
 10 11  1  0
 10 12  1  0
 13 12  1  1
 13 15  1  0
 13 14  1  0
 14  7  1  0
 15 20  1  0
 16 15  2  0
 18 17  1  0
 19 18  1  6
 19 21  1  0
 20 19  1  0
 21 22  2  0
 21 23  1  0
M  END
$$$$
