NLS.pdb
     RDKit          3D

 23 22  0  0  1  0  0  0  0  0999 V2000
    7.6336  -19.3641   19.9726 N   0  0  0  0  0  0  0  0  0  0  0  0
    8.7278  -18.4665   20.0069 C   0  0  0  0  0  0  0  0  0  0  0  0
    9.2826  -18.2488   18.8770 O   0  0  0  0  0  0  0  0  0  0  0  0
    9.2312  -17.8004   21.2523 C   0  0  0  0  0  0  0  0  0  0  0  0
    8.6683  -16.3983   21.2760 C   0  0  2  0  0  0  0  0  0  0  0  0
    9.0828  -15.7033   20.0917 N   0  0  0  0  0  0  0  0  0  0  0  0
    8.8728  -15.6796   22.5245 C   0  0  0  0  0  0  0  0  0  0  0  0
   10.0641  -15.7050   22.9898 O   0  0  0  0  0  0  0  0  0  0  0  0
    6.2790  -12.3429   27.1206 C   0  0  0  0  0  0  0  0  0  0  0  0
    7.4089  -13.0989   26.5057 C   0  0  2  0  0  0  0  0  0  0  0  0
    8.6319  -12.2106   26.3976 C   0  0  0  0  0  0  0  0  0  0  0  0
    7.0974  -13.6529   25.1546 C   0  0  0  0  0  0  0  0  0  0  0  0
    8.2763  -14.4294   24.5436 C   0  0  2  0  0  0  0  0  0  0  0  0
    7.8709  -14.9659   23.2607 N   0  0  0  0  0  0  0  0  0  0  0  0
    8.5256  -15.5387   25.4778 C   0  0  0  0  0  0  0  0  0  0  0  0
    7.6404  -16.3935   25.7296 O   0  0  0  0  0  0  0  0  0  0  0  0
   11.6567  -18.6762   26.8707 O   0  0  0  0  0  0  0  0  0  0  0  0
   11.3300  -17.5488   26.1198 C   0  0  0  0  0  0  0  0  0  0  0  0
   10.1311  -16.8795   26.7927 C   0  0  2  0  0  0  0  0  0  0  0  0
    9.8086  -15.6425   26.0974 N   0  0  0  0  0  0  0  0  0  0  0  0
   10.3884  -16.5871   28.2095 C   0  0  0  0  0  0  0  0  0  0  0  0
   10.4021  -15.4029   28.6004 O   0  0  0  0  0  0  0  0  0  0  0  0
   10.6150  -17.6073   29.1115 O   0  0  0  0  0  0  0  0  0  0  0  0
  2  3  2  0
  2  1  1  0
  4  2  1  0
  5  4  1  0
  5  6  1  6
  7  5  1  0
  7  8  2  0
 10  9  1  6
 10 11  1  0
 10 12  1  0
 13 12  1  1
 13 15  1  0
 13 14  1  0
 14  7  1  0
 15 20  1  0
 16 15  2  0
 18 17  1  0
 19 18  1  6
 19 21  1  0
 20 19  1  0
 21 22  2  0
 21 23  1  0
M  END
$$$$
