NLS.pdb
     RDKit          3D

 23 22  0  0  1  0  0  0  0  0999 V2000
    9.1776  -16.3807   19.5549 N   0  0  0  0  0  0  0  0  0  0  0  0
    8.2554  -15.3092   19.4806 C   0  0  0  0  0  0  0  0  0  0  0  0
    8.2638  -14.6656   18.3772 O   0  0  0  0  0  0  0  0  0  0  0  0
    7.3222  -14.9236   20.5890 C   0  0  0  0  0  0  0  0  0  0  0  0
    7.5597  -15.8793   21.7351 C   0  0  2  0  0  0  0  0  0  0  0  0
    6.3498  -16.6000   22.0071 N   0  0  0  0  0  0  0  0  0  0  0  0
    8.2092  -15.2903   22.8963 C   0  0  0  0  0  0  0  0  0  0  0  0
    9.4350  -14.9607   22.7379 O   0  0  0  0  0  0  0  0  0  0  0  0
    7.7023  -11.5991   25.0760 C   0  0  0  0  0  0  0  0  0  0  0  0
    6.8489  -12.6754   25.6587 C   0  0  2  0  0  0  0  0  0  0  0  0
    5.9352  -12.0976   26.7207 C   0  0  0  0  0  0  0  0  0  0  0  0
    7.6256  -13.8023   26.2555 C   0  0  0  0  0  0  0  0  0  0  0  0
    8.4740  -14.5560   25.2171 C   0  0  2  0  0  0  0  0  0  0  0  0
    7.6030  -15.0586   24.1747 N   0  0  0  0  0  0  0  0  0  0  0  0
    9.0563  -15.6896   25.9529 C   0  0  0  0  0  0  0  0  0  0  0  0
    9.4264  -15.5734   27.1475 O   0  0  0  0  0  0  0  0  0  0  0  0
   10.1720  -20.3697   26.0211 O   0  0  0  0  0  0  0  0  0  0  0  0
    9.4725  -19.3689   25.3497 C   0  0  0  0  0  0  0  0  0  0  0  0
    9.8243  -18.0371   26.0135 C   0  0  2  0  0  0  0  0  0  0  0  0
    9.1889  -16.9472   25.2883 N   0  0  0  0  0  0  0  0  0  0  0  0
   11.2754  -17.8107   26.0565 C   0  0  0  0  0  0  0  0  0  0  0  0
   11.9459  -18.2945   26.9901 O   0  0  0  0  0  0  0  0  0  0  0  0
   11.9040  -17.0695   25.0761 O   0  0  0  0  0  0  0  0  0  0  0  0
  2  3  2  0
  2  1  1  0
  4  2  1  0
  5  4  1  0
  5  6  1  1
  7  5  1  0
  7  8  2  0
 10  9  1  1
 10 11  1  0
 10 12  1  0
 13 12  1  1
 13 15  1  0
 13 14  1  0
 14  7  1  0
 15 20  1  0
 16 15  2  0
 18 17  1  0
 19 18  1  6
 19 21  1  0
 20 19  1  0
 21 22  2  0
 21 23  1  0
M  END
$$$$
