NLS.pdb
     RDKit          3D

 23 22  0  0  1  0  0  0  0  0999 V2000
    8.8695  -19.4863   19.5267 N   0  0  0  0  0  0  0  0  0  0  0  0
    8.1434  -18.5587   20.3118 C   0  0  0  0  0  0  0  0  0  0  0  0
    6.9165  -18.4188   19.9846 O   0  0  0  0  0  0  0  0  0  0  0  0
    8.7302  -17.7775   21.4490 C   0  0  0  0  0  0  0  0  0  0  0  0
    8.2705  -16.3457   21.3008 C   0  0  2  0  0  0  0  0  0  0  0  0
    8.7462  -15.8242   20.0521 N   0  0  0  0  0  0  0  0  0  0  0  0
    8.5142  -15.5032   22.4618 C   0  0  0  0  0  0  0  0  0  0  0  0
    9.7412  -15.2339   22.7033 O   0  0  0  0  0  0  0  0  0  0  0  0
    6.0908  -12.0493   27.0492 C   0  0  0  0  0  0  0  0  0  0  0  0
    7.2282  -12.7273   26.3613 C   0  0  2  0  0  0  0  0  0  0  0  0
    8.2852  -11.7112   25.9784 C   0  0  0  0  0  0  0  0  0  0  0  0
    6.8265  -13.4855   25.1394 C   0  0  0  0  0  0  0  0  0  0  0  0
    7.9988  -14.2502   24.5013 C   0  0  2  0  0  0  0  0  0  0  0  0
    7.5154  -14.9663   23.3389 N   0  0  0  0  0  0  0  0  0  0  0  0
    8.4244  -15.2170   25.5259 C   0  0  0  0  0  0  0  0  0  0  0  0
    7.6535  -16.1215   25.9323 O   0  0  0  0  0  0  0  0  0  0  0  0
   11.6831  -16.4239   25.0667 O   0  0  0  0  0  0  0  0  0  0  0  0
   11.6066  -16.6546   26.4388 C   0  0  0  0  0  0  0  0  0  0  0  0
   10.2211  -16.2053   26.9042 C   0  0  2  0  0  0  0  0  0  0  0  0
    9.7481  -15.1225   26.0548 N   0  0  0  0  0  0  0  0  0  0  0  0
   10.2300  -15.7564   28.3032 C   0  0  0  0  0  0  0  0  0  0  0  0
    9.8883  -14.5885   28.5765 O   0  0  0  0  0  0  0  0  0  0  0  0
   10.6119  -16.6118   29.3172 O   0  0  0  0  0  0  0  0  0  0  0  0
  2  3  2  0
  2  1  1  0
  4  2  1  0
  5  4  1  0
  5  6  1  6
  7  5  1  0
  7  8  2  0
 10  9  1  6
 10 11  1  0
 10 12  1  0
 13 12  1  1
 13 15  1  0
 13 14  1  0
 14  7  1  0
 15 20  1  0
 16 15  2  0
 18 17  1  0
 19 18  1  6
 19 21  1  0
 20 19  1  0
 21 22  2  0
 21 23  1  0
M  END
$$$$
