NLS.pdb
     RDKit          3D

 23 22  0  0  1  0  0  0  0  0999 V2000
    4.3393  -20.7693   21.8879 N   0  0  0  0  0  0  0  0  0  0  0  0
    4.8301  -20.0050   22.9738 C   0  0  0  0  0  0  0  0  0  0  0  0
    4.0451  -19.9294   23.9787 O   0  0  0  0  0  0  0  0  0  0  0  0
    6.1630  -19.3186   22.9854 C   0  0  0  0  0  0  0  0  0  0  0  0
    5.9157  -17.8438   22.7687 C   0  0  2  0  0  0  0  0  0  0  0  0
    5.6495  -17.6091   21.3789 N   0  0  0  0  0  0  0  0  0  0  0  0
    6.9056  -16.9639   23.3712 C   0  0  0  0  0  0  0  0  0  0  0  0
    8.0278  -16.8925   22.7613 O   0  0  0  0  0  0  0  0  0  0  0  0
    7.4020  -12.4004   24.7278 C   0  0  0  0  0  0  0  0  0  0  0  0
    6.6411  -13.2967   25.6467 C   0  0  2  0  0  0  0  0  0  0  0  0
    6.1443  -12.5130   26.8449 C   0  0  0  0  0  0  0  0  0  0  0  0
    7.4285  -14.4685   26.1328 C   0  0  0  0  0  0  0  0  0  0  0  0
    7.8691  -15.4033   24.9935 C   0  0  2  0  0  0  0  0  0  0  0  0
    6.7316  -16.1920   24.5666 N   0  0  0  0  0  0  0  0  0  0  0  0
    8.8765  -16.2898   25.5974 C   0  0  0  0  0  0  0  0  0  0  0  0
    8.5818  -17.0720   26.5350 O   0  0  0  0  0  0  0  0  0  0  0  0
   12.9027  -16.2906   24.3575 O   0  0  0  0  0  0  0  0  0  0  0  0
   12.2061  -17.4957   24.4235 C   0  0  0  0  0  0  0  0  0  0  0  0
   11.1112  -17.3368   25.4791 C   0  0  2  0  0  0  0  0  0  0  0  0
   10.2122  -16.2601   25.0918 N   0  0  0  0  0  0  0  0  0  0  0  0
   11.6670  -17.0507   26.8088 C   0  0  0  0  0  0  0  0  0  0  0  0
   12.4678  -17.8543   27.3266 O   0  0  0  0  0  0  0  0  0  0  0  0
   11.3129  -15.9036   27.4905 O   0  0  0  0  0  0  0  0  0  0  0  0
  2  3  2  0
  2  1  1  0
  4  2  1  0
  5  4  1  0
  5  6  1  6
  7  5  1  0
  7  8  2  0
 10  9  1  6
 10 11  1  0
 10 12  1  0
 13 12  1  1
 13 15  1  0
 13 14  1  0
 14  7  1  0
 15 20  1  0
 16 15  2  0
 18 17  1  0
 19 18  1  6
 19 21  1  0
 20 19  1  0
 21 22  2  0
 21 23  1  0
M  END
$$$$
