HHT.pdb
     RDKit          3D

 28 29  0  0  1  0  0  0  0  0999 V2000
   18.1258  -13.8841  -18.1421 N   0  0  0  0  0  0  0  0  0  0  0  0
   17.8068  -13.0265  -17.0594 C   0  0  1  0  0  0  0  0  0  0  0  0
   18.2293  -13.6760  -15.7566 C   0  0  0  0  0  0  0  0  0  0  0  0
   17.5136  -14.9599  -15.5598 C   0  0  0  0  0  0  0  0  0  0  0  0
   16.1770  -15.1144  -15.2365 C   0  0  0  0  0  0  0  0  0  0  0  0
   15.8963  -16.4138  -15.1439 N   0  0  0  0  0  0  0  0  0  0  0  0
   17.0197  -17.0979  -15.3997 C   0  0  0  0  0  0  0  0  0  0  0  0
   18.0072  -16.2234  -15.6534 N   0  0  0  0  0  0  0  0  0  0  0  0
   18.4083  -11.6631  -17.1943 C   0  0  0  0  0  0  0  0  0  0  0  0
   19.6490  -11.4977  -17.2680 O   0  0  0  0  0  0  0  0  0  0  0  0
   17.5770  -10.5144  -17.2417 N   0  0  0  0  0  0  0  0  0  0  0  0
   17.9748   -9.1591  -17.3959 C   0  0  1  0  0  0  0  0  0  0  0  0
   16.9494   -8.2790  -18.0199 C   0  0  0  0  0  0  0  0  0  0  0  0
   17.4533   -6.8795  -18.1913 C   0  0  0  0  0  0  0  0  0  0  0  0
   17.2061   -5.7545  -17.4732 C   0  0  0  0  0  0  0  0  0  0  0  0
   17.8901   -4.7045  -18.0034 N   0  0  0  0  0  0  0  0  0  0  0  0
   18.5622   -5.1927  -19.0563 C   0  0  0  0  0  0  0  0  0  0  0  0
   18.3010   -6.5009  -19.1711 N   0  0  0  0  0  0  0  0  0  0  0  0
   18.6533   -8.5584  -16.2043 C   0  0  0  0  0  0  0  0  0  0  0  0
   18.1664   -8.5295  -15.0498 O   0  0  0  0  0  0  0  0  0  0  0  0
   21.9241   -9.5889  -14.8202 C   0  0  0  0  0  0  0  0  0  0  0  0
   22.0175   -8.1246  -15.0755 C   0  0  1  0  0  0  0  0  0  0  0  0
   22.7614   -7.9638  -16.2660 O   0  0  0  0  0  0  0  0  0  0  0  0
   20.6767   -7.4361  -15.1971 C   0  0  2  0  0  0  0  0  0  0  0  0
   19.9369   -7.9710  -16.3418 N   0  0  0  0  0  0  0  0  0  0  0  0
   20.7573   -5.9798  -15.2255 C   0  0  0  0  0  0  0  0  0  0  0  0
   21.2480   -5.1860  -14.2092 O   0  0  0  0  0  0  0  0  0  0  0  0
   20.3512   -5.3365  -16.2564 O   0  0  0  0  0  0  0  0  0  0  0  0
  2  9  1  0
  2  1  1  6
  3  2  1  0
  4  5  2  0
  4  3  1  0
  6  5  1  0
  7  8  2  0
  7  6  1  0
  8  4  1  0
  9 11  1  0
 10  9  2  0
 11 12  1  0
 12 13  1  1
 13 14  1  0
 14 15  2  0
 14 18  1  0
 15 16  1  0
 16 17  1  0
 18 17  2  0
 19 20  2  0
 19 12  1  0
 22 21  1  6
 22 24  1  0
 23 22  1  0
 24 26  1  0
 24 25  1  6
 25 19  1  0
 26 27  1  0
 28 26  2  0
M  END
$$$$
