HHT.pdb
     RDKit          3D

 28 29  0  0  1  0  0  0  0  0999 V2000
   24.6156  -28.0568  -16.1646 N   0  0  0  0  0  0  0  0  0  0  0  0
   23.2258  -27.9393  -16.4180 C   0  0  1  0  0  0  0  0  0  0  0  0
   22.6166  -29.3207  -16.5530 C   0  0  0  0  0  0  0  0  0  0  0  0
   23.2428  -30.0574  -17.6774 C   0  0  0  0  0  0  0  0  0  0  0  0
   23.0206  -29.8420  -19.0262 C   0  0  0  0  0  0  0  0  0  0  0  0
   23.7603  -30.6954  -19.7335 N   0  0  0  0  0  0  0  0  0  0  0  0
   24.4522  -31.4539  -18.8724 C   0  0  0  0  0  0  0  0  0  0  0  0
   24.1445  -31.0737  -17.6214 N   0  0  0  0  0  0  0  0  0  0  0  0
   22.5058  -27.1389  -15.3789 C   0  0  0  0  0  0  0  0  0  0  0  0
   22.4674  -27.5036  -14.1799 O   0  0  0  0  0  0  0  0  0  0  0  0
   21.8425  -25.9359  -15.7330 N   0  0  0  0  0  0  0  0  0  0  0  0
   21.0882  -25.0778  -14.8883 C   0  0  1  0  0  0  0  0  0  0  0  0
   20.7114  -23.7761  -15.5038 C   0  0  0  0  0  0  0  0  0  0  0  0
   20.0357  -22.8741  -14.5180 C   0  0  0  0  0  0  0  0  0  0  0  0
   19.7140  -23.0693  -13.2139 C   0  0  0  0  0  0  0  0  0  0  0  0
   19.1030  -21.9608  -12.7145 N   0  0  0  0  0  0  0  0  0  0  0  0
   19.0508  -21.0791  -13.7236 C   0  0  0  0  0  0  0  0  0  0  0  0
   19.6113  -21.6264  -14.8095 N   0  0  0  0  0  0  0  0  0  0  0  0
   19.9772  -25.7441  -14.1379 C   0  0  0  0  0  0  0  0  0  0  0  0
   19.0649  -26.4183  -14.6709 O   0  0  0  0  0  0  0  0  0  0  0  0
   20.5224  -28.1035  -11.2777 C   0  0  0  0  0  0  0  0  0  0  0  0
   19.5192  -27.1039  -10.8170 C   0  0  1  0  0  0  0  0  0  0  0  0
   20.1867  -26.2367   -9.9231 O   0  0  0  0  0  0  0  0  0  0  0  0
   18.8812  -26.3135  -11.9373 C   0  0  2  0  0  0  0  0  0  0  0  0
   19.9113  -25.6340  -12.7254 N   0  0  0  0  0  0  0  0  0  0  0  0
   17.8326  -25.3998  -11.4971 C   0  0  0  0  0  0  0  0  0  0  0  0
   16.6420  -25.7729  -10.9083 O   0  0  0  0  0  0  0  0  0  0  0  0
   17.9804  -24.1361  -11.6479 O   0  0  0  0  0  0  0  0  0  0  0  0
  2  9  1  0
  2  1  1  1
  3  2  1  0
  4  5  2  0
  4  3  1  0
  6  5  1  0
  7  8  2  0
  7  6  1  0
  8  4  1  0
  9 11  1  0
 10  9  2  0
 11 12  1  0
 12 13  1  6
 13 14  1  0
 14 15  2  0
 14 18  1  0
 15 16  1  0
 16 17  1  0
 18 17  2  0
 19 20  2  0
 19 12  1  0
 22 21  1  6
 22 24  1  0
 23 22  1  0
 24 26  1  0
 24 25  1  1
 25 19  1  0
 26 27  1  0
 28 26  2  0
M  END
$$$$
