HHT.pdb
     RDKit          3D

 28 29  0  0  1  0  0  0  0  0999 V2000
   27.5866  -23.5881  -16.6997 N   0  0  0  0  0  0  0  0  0  0  0  0
   26.7889  -22.4807  -17.0829 C   0  0  1  0  0  0  0  0  0  0  0  0
   26.3403  -22.6523  -18.5205 C   0  0  0  0  0  0  0  0  0  0  0  0
   27.3120  -22.0223  -19.4469 C   0  0  0  0  0  0  0  0  0  0  0  0
   28.4434  -21.3095  -19.0910 C   0  0  0  0  0  0  0  0  0  0  0  0
   29.0669  -20.8982  -20.1946 N   0  0  0  0  0  0  0  0  0  0  0  0
   28.3639  -21.3291  -21.2507 C   0  0  0  0  0  0  0  0  0  0  0  0
   27.2964  -22.0127  -20.8066 N   0  0  0  0  0  0  0  0  0  0  0  0
   25.6149  -22.2636  -16.1809 C   0  0  0  0  0  0  0  0  0  0  0  0
   24.8696  -23.2106  -15.8347 O   0  0  0  0  0  0  0  0  0  0  0  0
   25.3163  -20.9654  -15.6929 N   0  0  0  0  0  0  0  0  0  0  0  0
   24.2864  -20.5923  -14.7881 C   0  0  1  0  0  0  0  0  0  0  0  0
   24.7123  -19.6493  -13.7182 C   0  0  0  0  0  0  0  0  0  0  0  0
   24.9353  -20.3550  -12.4165 C   0  0  0  0  0  0  0  0  0  0  0  0
   24.7671  -21.6577  -12.0747 C   0  0  0  0  0  0  0  0  0  0  0  0
   25.0973  -21.8420  -10.7675 N   0  0  0  0  0  0  0  0  0  0  0  0
   25.4711  -20.6397  -10.3059 C   0  0  0  0  0  0  0  0  0  0  0  0
   25.3745  -19.7437  -11.2962 N   0  0  0  0  0  0  0  0  0  0  0  0
   22.9781  -20.2428  -15.4264 C   0  0  0  0  0  0  0  0  0  0  0  0
   22.8159  -19.3108  -16.2486 O   0  0  0  0  0  0  0  0  0  0  0  0
   20.8227  -22.5911  -17.4056 C   0  0  0  0  0  0  0  0  0  0  0  0
   19.9642  -21.9963  -16.3441 C   0  0  1  0  0  0  0  0  0  0  0  0
   19.8080  -22.9823  -15.3442 O   0  0  0  0  0  0  0  0  0  0  0  0
   20.5216  -20.7246  -15.7449 C   0  0  2  0  0  0  0  0  0  0  0  0
   21.8145  -20.9901  -15.1112 N   0  0  0  0  0  0  0  0  0  0  0  0
   19.5994  -20.0370  -14.8477 C   0  0  0  0  0  0  0  0  0  0  0  0
   18.3343  -19.5998  -15.1824 O   0  0  0  0  0  0  0  0  0  0  0  0
   19.9453  -19.7942  -13.6381 O   0  0  0  0  0  0  0  0  0  0  0  0
  2  9  1  0
  2  1  1  1
  3  2  1  0
  4  5  2  0
  4  3  1  0
  6  5  1  0
  7  8  2  0
  7  6  1  0
  8  4  1  0
  9 11  1  0
 10  9  2  0
 11 12  1  0
 12 13  1  6
 13 14  1  0
 14 15  2  0
 14 18  1  0
 15 16  1  0
 16 17  1  0
 18 17  2  0
 19 20  2  0
 19 12  1  0
 22 21  1  6
 22 24  1  0
 23 22  1  0
 24 26  1  0
 24 25  1  1
 25 19  1  0
 26 27  1  0
 28 26  2  0
M  END
$$$$
