HHT.pdb
     RDKit          3D

 28 29  0  0  1  0  0  0  0  0999 V2000
   25.0249  -19.4401  -17.1418 N   0  0  0  0  0  0  0  0  0  0  0  0
   23.7714  -18.9560  -16.6903 C   0  0  1  0  0  0  0  0  0  0  0  0
   22.9338  -18.5308  -17.8799 C   0  0  0  0  0  0  0  0  0  0  0  0
   22.8499  -17.0520  -17.9545 C   0  0  0  0  0  0  0  0  0  0  0  0
   23.2777  -16.1550  -16.9915 C   0  0  0  0  0  0  0  0  0  0  0  0
   23.0376  -14.9135  -17.4121 N   0  0  0  0  0  0  0  0  0  0  0  0
   22.4659  -14.9908  -18.6215 C   0  0  0  0  0  0  0  0  0  0  0  0
   22.3479  -16.2855  -18.9592 N   0  0  0  0  0  0  0  0  0  0  0  0
   23.0316  -19.9436  -15.8439 C   0  0  0  0  0  0  0  0  0  0  0  0
   23.0001  -21.1629  -16.1344 O   0  0  0  0  0  0  0  0  0  0  0  0
   22.3412  -19.5156  -14.6808 N   0  0  0  0  0  0  0  0  0  0  0  0
   21.5879  -20.3100  -13.7752 C   0  0  1  0  0  0  0  0  0  0  0  0
   21.9361  -20.1150  -12.3414 C   0  0  0  0  0  0  0  0  0  0  0  0
   23.2242  -20.7922  -11.9888 C   0  0  0  0  0  0  0  0  0  0  0  0
   24.1154  -21.4603  -12.7646 C   0  0  0  0  0  0  0  0  0  0  0  0
   25.1494  -21.9103  -12.0031 N   0  0  0  0  0  0  0  0  0  0  0  0
   24.8876  -21.5131  -10.7492 C   0  0  0  0  0  0  0  0  0  0  0  0
   23.7300  -20.8403  -10.7383 N   0  0  0  0  0  0  0  0  0  0  0  0
   20.1163  -20.3570  -14.0464 C   0  0  0  0  0  0  0  0  0  0  0  0
   19.3442  -19.3747  -13.9460 O   0  0  0  0  0  0  0  0  0  0  0  0
   18.5193  -22.5802  -17.0827 C   0  0  0  0  0  0  0  0  0  0  0  0
   17.8498  -22.7833  -15.7680 C   0  0  1  0  0  0  0  0  0  0  0  0
   18.3317  -24.0056  -15.2482 O   0  0  0  0  0  0  0  0  0  0  0  0
   18.0855  -21.6631  -14.7799 C   0  0  2  0  0  0  0  0  0  0  0  0
   19.5089  -21.5739  -14.4485 N   0  0  0  0  0  0  0  0  0  0  0  0
   17.2464  -21.7357  -13.5887 C   0  0  0  0  0  0  0  0  0  0  0  0
   15.8670  -21.7073  -13.5791 O   0  0  0  0  0  0  0  0  0  0  0  0
   17.7862  -21.8341  -12.4309 O   0  0  0  0  0  0  0  0  0  0  0  0
  2  9  1  0
  2  1  1  6
  3  2  1  0
  4  5  2  0
  4  3  1  0
  6  5  1  0
  7  8  2  0
  7  6  1  0
  8  4  1  0
  9 11  1  0
 10  9  2  0
 11 12  1  0
 12 13  1  1
 13 14  1  0
 14 15  2  0
 14 18  1  0
 15 16  1  0
 16 17  1  0
 18 17  2  0
 19 20  2  0
 19 12  1  0
 22 21  1  6
 22 24  1  0
 23 22  1  0
 24 26  1  0
 24 25  1  1
 25 19  1  0
 26 27  1  0
 28 26  2  0
M  END
$$$$
