HHT.pdb
     RDKit          3D

 28 29  0  0  1  0  0  0  0  0999 V2000
   43.3115  -10.5888   -7.0824 N   0  0  0  0  0  0  0  0  0  0  0  0
   42.7113   -9.3460   -6.7588 C   0  0  1  0  0  0  0  0  0  0  0  0
   43.7717   -8.2633   -6.7294 C   0  0  0  0  0  0  0  0  0  0  0  0
   44.7668   -8.5391   -5.6648 C   0  0  0  0  0  0  0  0  0  0  0  0
   46.1020   -8.8522   -5.8491 C   0  0  0  0  0  0  0  0  0  0  0  0
   46.6777   -9.0316   -4.6608 N   0  0  0  0  0  0  0  0  0  0  0  0
   45.7451   -8.8416   -3.7176 C   0  0  0  0  0  0  0  0  0  0  0  0
   44.5814   -8.5419   -4.3177 N   0  0  0  0  0  0  0  0  0  0  0  0
   41.5964   -8.9743   -7.6849 C   0  0  0  0  0  0  0  0  0  0  0  0
   41.6551   -9.2180   -8.9134 O   0  0  0  0  0  0  0  0  0  0  0  0
   40.4351   -8.3299   -7.1863 N   0  0  0  0  0  0  0  0  0  0  0  0
   39.3033   -7.8862   -7.9218 C   0  0  1  0  0  0  0  0  0  0  0  0
   37.9949   -8.3549   -7.3894 C   0  0  0  0  0  0  0  0  0  0  0  0
   37.9348   -9.8489   -7.3083 C   0  0  0  0  0  0  0  0  0  0  0  0
   38.8566  -10.7916   -7.6305 C   0  0  0  0  0  0  0  0  0  0  0  0
   38.3563  -12.0335   -7.3879 N   0  0  0  0  0  0  0  0  0  0  0  0
   37.1161  -11.8479   -6.9125 C   0  0  0  0  0  0  0  0  0  0  0  0
   36.8605  -10.5345   -6.8637 N   0  0  0  0  0  0  0  0  0  0  0  0
   39.3246   -6.4393   -8.3058 C   0  0  0  0  0  0  0  0  0  0  0  0
   39.4705   -5.4924   -7.4977 O   0  0  0  0  0  0  0  0  0  0  0  0
   41.5120   -5.1541  -11.1958 C   0  0  0  0  0  0  0  0  0  0  0  0
   40.1402   -4.5983  -11.3603 C   0  0  1  0  0  0  0  0  0  0  0  0
   39.5302   -5.3191  -12.4115 O   0  0  0  0  0  0  0  0  0  0  0  0
   39.2929   -4.6753  -10.1101 C   0  0  2  0  0  0  0  0  0  0  0  0
   39.1747   -6.0654   -9.6657 N   0  0  0  0  0  0  0  0  0  0  0  0
   37.9933   -4.0240  -10.2324 C   0  0  0  0  0  0  0  0  0  0  0  0
   37.7914   -2.6785  -10.4619 O   0  0  0  0  0  0  0  0  0  0  0  0
   36.9192   -4.7141  -10.1250 O   0  0  0  0  0  0  0  0  0  0  0  0
  2  9  1  0
  2  1  1  6
  3  2  1  0
  4  5  2  0
  4  3  1  0
  6  5  1  0
  7  8  2  0
  7  6  1  0
  8  4  1  0
  9 11  1  0
 10  9  2  0
 11 12  1  0
 12 13  1  1
 13 14  1  0
 14 15  2  0
 14 18  1  0
 15 16  1  0
 16 17  1  0
 18 17  2  0
 19 20  2  0
 19 12  1  0
 22 21  1  1
 22 24  1  0
 23 22  1  0
 24 26  1  0
 24 25  1  6
 25 19  1  0
 26 27  1  0
 28 26  2  0
M  END
$$$$
