HHT.pdb
     RDKit          3D

 28 29  0  0  1  0  0  0  0  0999 V2000
   22.3853  -15.1776  -18.1075 N   0  0  0  0  0  0  0  0  0  0  0  0
   21.6327  -14.3869  -17.2032 C   0  0  1  0  0  0  0  0  0  0  0  0
   21.8815  -14.8624  -15.7856 C   0  0  0  0  0  0  0  0  0  0  0  0
   21.4989  -16.2879  -15.6409 C   0  0  0  0  0  0  0  0  0  0  0  0
   20.2706  -16.8447  -15.9510 C   0  0  0  0  0  0  0  0  0  0  0  0
   20.3032  -18.1508  -15.6885 N   0  0  0  0  0  0  0  0  0  0  0  0
   21.5220  -18.4468  -15.2172 C   0  0  0  0  0  0  0  0  0  0  0  0
   22.2552  -17.3218  -15.1847 N   0  0  0  0  0  0  0  0  0  0  0  0
   21.9132  -12.9227  -17.3307 C   0  0  0  0  0  0  0  0  0  0  0  0
   23.0060  -12.4296  -16.9636 O   0  0  0  0  0  0  0  0  0  0  0  0
   20.9362  -12.0504  -17.8758 N   0  0  0  0  0  0  0  0  0  0  0  0
   21.0585  -10.6578  -18.1294 C   0  0  1  0  0  0  0  0  0  0  0  0
   20.5947  -10.2297  -19.4773 C   0  0  0  0  0  0  0  0  0  0  0  0
   21.4147  -10.8494  -20.5662 C   0  0  0  0  0  0  0  0  0  0  0  0
   22.5510  -10.4212  -21.1726 C   0  0  0  0  0  0  0  0  0  0  0  0
   22.9423  -11.3208  -22.1157 N   0  0  0  0  0  0  0  0  0  0  0  0
   22.0359  -12.3088  -22.0852 C   0  0  0  0  0  0  0  0  0  0  0  0
   21.1162  -12.0273  -21.1537 N   0  0  0  0  0  0  0  0  0  0  0  0
   20.6029   -9.7683  -17.0146 C   0  0  0  0  0  0  0  0  0  0  0  0
   19.4563   -9.7945  -16.5090 O   0  0  0  0  0  0  0  0  0  0  0  0
   21.8302   -9.7407  -13.6927 C   0  0  0  0  0  0  0  0  0  0  0  0
   21.9510   -8.3174  -14.1140 C   0  0  1  0  0  0  0  0  0  0  0  0
   23.3204   -8.0815  -14.3700 O   0  0  0  0  0  0  0  0  0  0  0  0
   21.1215   -7.9643  -15.3281 C   0  0  2  0  0  0  0  0  0  0  0  0
   21.4949   -8.8158  -16.4591 N   0  0  0  0  0  0  0  0  0  0  0  0
   21.1478   -6.5472  -15.6736 C   0  0  0  0  0  0  0  0  0  0  0  0
   21.7283   -6.0102  -16.8042 O   0  0  0  0  0  0  0  0  0  0  0  0
   20.6012   -5.6887  -14.8953 O   0  0  0  0  0  0  0  0  0  0  0  0
  2  9  1  0
  2  1  1  6
  3  2  1  0
  4  5  2  0
  4  3  1  0
  6  5  1  0
  7  8  2  0
  7  6  1  0
  8  4  1  0
  9 11  1  0
 10  9  2  0
 11 12  1  0
 12 13  1  6
 13 14  1  0
 14 15  2  0
 14 18  1  0
 15 16  1  0
 16 17  1  0
 18 17  2  0
 19 20  2  0
 19 12  1  0
 22 21  1  6
 22 24  1  0
 23 22  1  0
 24 26  1  0
 24 25  1  6
 25 19  1  0
 26 27  1  0
 28 26  2  0
M  END
$$$$
