HHT.pdb
     RDKit          3D

 28 29  0  0  1  0  0  0  0  0999 V2000
   17.2033  -21.3603  -16.5480 N   0  0  0  0  0  0  0  0  0  0  0  0
   16.2007  -20.4803  -17.0274 C   0  0  1  0  0  0  0  0  0  0  0  0
   15.4181  -19.9179  -15.8575 C   0  0  0  0  0  0  0  0  0  0  0  0
   14.6487  -20.9913  -15.1827 C   0  0  0  0  0  0  0  0  0  0  0  0
   13.6527  -21.7680  -15.7478 C   0  0  0  0  0  0  0  0  0  0  0  0
   13.1949  -22.6247  -14.8356 N   0  0  0  0  0  0  0  0  0  0  0  0
   13.8722  -22.4175  -13.6982 C   0  0  0  0  0  0  0  0  0  0  0  0
   14.7574  -21.4274  -13.8993 N   0  0  0  0  0  0  0  0  0  0  0  0
   16.7462  -19.3795  -17.8816 C   0  0  0  0  0  0  0  0  0  0  0  0
   17.7825  -18.7514  -17.5597 O   0  0  0  0  0  0  0  0  0  0  0  0
   16.0938  -19.0185  -19.0885 N   0  0  0  0  0  0  0  0  0  0  0  0
   16.4777  -18.0146  -20.0178 C   0  0  1  0  0  0  0  0  0  0  0  0
   16.4962  -18.4587  -21.4382 C   0  0  0  0  0  0  0  0  0  0  0  0
   17.5865  -19.4532  -21.6919 C   0  0  0  0  0  0  0  0  0  0  0  0
   18.9054  -19.4228  -21.3727 C   0  0  0  0  0  0  0  0  0  0  0  0
   19.5157  -20.5582  -21.8086 N   0  0  0  0  0  0  0  0  0  0  0  0
   18.5601  -21.2899  -22.4001 C   0  0  0  0  0  0  0  0  0  0  0  0
   17.3988  -20.6271  -22.3310 N   0  0  0  0  0  0  0  0  0  0  0  0
   15.8420  -16.6763  -19.8035 C   0  0  0  0  0  0  0  0  0  0  0  0
   14.6059  -16.4800  -19.7367 O   0  0  0  0  0  0  0  0  0  0  0  0
   16.1015  -14.4073  -16.9281 C   0  0  0  0  0  0  0  0  0  0  0  0
   16.5653  -13.6350  -18.1139 C   0  0  1  0  0  0  0  0  0  0  0  0
   17.9775  -13.6269  -18.0698 O   0  0  0  0  0  0  0  0  0  0  0  0
   16.0844  -14.1916  -19.4352 C   0  0  2  0  0  0  0  0  0  0  0  0
   16.6534  -15.5219  -19.6591 N   0  0  0  0  0  0  0  0  0  0  0  0
   16.3034  -13.3010  -20.5696 C   0  0  0  0  0  0  0  0  0  0  0  0
   15.6435  -12.1095  -20.7902 O   0  0  0  0  0  0  0  0  0  0  0  0
   17.1688  -13.6051  -21.4641 O   0  0  0  0  0  0  0  0  0  0  0  0
  2  9  1  0
  2  1  1  1
  3  2  1  0
  4  5  2  0
  4  3  1  0
  6  5  1  0
  7  8  2  0
  7  6  1  0
  8  4  1  0
  9 11  1  0
 10  9  2  0
 11 12  1  0
 12 13  1  6
 13 14  1  0
 14 15  2  0
 14 18  1  0
 15 16  1  0
 16 17  1  0
 18 17  2  0
 19 20  2  0
 19 12  1  0
 22 21  1  1
 22 24  1  0
 23 22  1  0
 24 26  1  0
 24 25  1  6
 25 19  1  0
 26 27  1  0
 28 26  2  0
M  END
$$$$
