HHT.pdb
     RDKit          3D

 28 29  0  0  1  0  0  0  0  0999 V2000
   16.2121  -18.6092    2.0614 N   0  0  0  0  0  0  0  0  0  0  0  0
   16.2038  -19.0071    3.4219 C   0  0  1  0  0  0  0  0  0  0  0  0
   16.2646  -20.5191    3.5083 C   0  0  0  0  0  0  0  0  0  0  0  0
   15.0703  -21.1247    2.8708 C   0  0  0  0  0  0  0  0  0  0  0  0
   15.0602  -21.9420    1.7543 C   0  0  0  0  0  0  0  0  0  0  0  0
   13.8041  -22.2908    1.4783 N   0  0  0  0  0  0  0  0  0  0  0  0
   13.0068  -21.7176    2.3900 C   0  0  0  0  0  0  0  0  0  0  0  0
   13.7668  -21.0074    3.2399 N   0  0  0  0  0  0  0  0  0  0  0  0
   17.3037  -18.3833    4.2220 C   0  0  0  0  0  0  0  0  0  0  0  0
   18.4802  -18.3319    3.7916 O   0  0  0  0  0  0  0  0  0  0  0  0
   17.0352  -17.8306    5.5007 N   0  0  0  0  0  0  0  0  0  0  0  0
   17.9373  -17.1464    6.3591 C   0  0  1  0  0  0  0  0  0  0  0  0
   17.4647  -15.8121    6.8190 C   0  0  0  0  0  0  0  0  0  0  0  0
   17.8294  -14.7322    5.8480 C   0  0  0  0  0  0  0  0  0  0  0  0
   18.5377  -14.7828    4.6913 C   0  0  0  0  0  0  0  0  0  0  0  0
   18.6165  -13.5415    4.1394 N   0  0  0  0  0  0  0  0  0  0  0  0
   17.9494  -12.7240    4.9672 C   0  0  0  0  0  0  0  0  0  0  0  0
   17.4750  -13.4382    5.9957 N   0  0  0  0  0  0  0  0  0  0  0  0
   18.5441  -17.9864    7.4397 C   0  0  0  0  0  0  0  0  0  0  0  0
   17.9713  -18.9547    7.9922 O   0  0  0  0  0  0  0  0  0  0  0  0
   21.9674  -19.7657    7.4096 C   0  0  0  0  0  0  0  0  0  0  0  0
   21.8927  -18.8605    8.5899 C   0  0  1  0  0  0  0  0  0  0  0  0
   22.6466  -17.7090    8.2704 O   0  0  0  0  0  0  0  0  0  0  0  0
   20.4834  -18.4742    8.9789 C   0  0  2  0  0  0  0  0  0  0  0  0
   19.8554  -17.7064    7.9019 N   0  0  0  0  0  0  0  0  0  0  0  0
   20.3876  -17.7959   10.2669 C   0  0  0  0  0  0  0  0  0  0  0  0
   20.7545  -18.3338   11.4833 O   0  0  0  0  0  0  0  0  0  0  0  0
   19.9308  -16.6005   10.3280 O   0  0  0  0  0  0  0  0  0  0  0  0
  2  9  1  0
  2  1  1  6
  3  2  1  0
  4  5  2  0
  4  3  1  0
  6  5  1  0
  7  8  2  0
  7  6  1  0
  8  4  1  0
  9 11  1  0
 10  9  2  0
 11 12  1  0
 12 13  1  1
 13 14  1  0
 14 15  2  0
 14 18  1  0
 15 16  1  0
 16 17  1  0
 18 17  2  0
 19 20  2  0
 19 12  1  0
 22 21  1  6
 22 24  1  0
 23 22  1  0
 24 26  1  0
 24 25  1  6
 25 19  1  0
 26 27  1  0
 28 26  2  0
M  END
$$$$
