HHT.pdb
     RDKit          3D

 28 29  0  0  1  0  0  0  0  0999 V2000
   24.7798  -29.4185  -16.4082 N   0  0  0  0  0  0  0  0  0  0  0  0
   24.2458  -30.6967  -16.1075 C   0  0  1  0  0  0  0  0  0  0  0  0
   24.3685  -31.5958  -17.3216 C   0  0  0  0  0  0  0  0  0  0  0  0
   23.6418  -31.0130  -18.4756 C   0  0  0  0  0  0  0  0  0  0  0  0
   22.2883  -30.7322  -18.5375 C   0  0  0  0  0  0  0  0  0  0  0  0
   22.0023  -30.2168  -19.7326 N   0  0  0  0  0  0  0  0  0  0  0  0
   23.1387  -30.1596  -20.4401 C   0  0  0  0  0  0  0  0  0  0  0  0
   24.1399  -30.6409  -19.6850 N   0  0  0  0  0  0  0  0  0  0  0  0
   24.8801  -31.3302  -14.9094 C   0  0  0  0  0  0  0  0  0  0  0  0
   26.0872  -31.1400  -14.6285 O   0  0  0  0  0  0  0  0  0  0  0  0
   24.1197  -32.1704  -14.0559 N   0  0  0  0  0  0  0  0  0  0  0  0
   24.5295  -32.7675  -12.8335 C   0  0  1  0  0  0  0  0  0  0  0  0
   25.1325  -31.8234  -11.8536 C   0  0  0  0  0  0  0  0  0  0  0  0
   25.5345  -32.5202  -10.5907 C   0  0  0  0  0  0  0  0  0  0  0  0
   26.4457  -33.5021  -10.3718 C   0  0  0  0  0  0  0  0  0  0  0  0
   26.4712  -33.8270   -9.0507 N   0  0  0  0  0  0  0  0  0  0  0  0
   25.5665  -33.0355   -8.4561 C   0  0  0  0  0  0  0  0  0  0  0  0
   25.0018  -32.2486   -9.3806 N   0  0  0  0  0  0  0  0  0  0  0  0
   23.5465  -33.7251  -12.2352 C   0  0  0  0  0  0  0  0  0  0  0  0
   22.3749  -33.4259  -11.9052 O   0  0  0  0  0  0  0  0  0  0  0  0
   22.4811  -36.9939  -13.6981 C   0  0  0  0  0  0  0  0  0  0  0  0
   22.9151  -37.2787  -12.3023 C   0  0  1  0  0  0  0  0  0  0  0  0
   24.1766  -37.9095  -12.3869 O   0  0  0  0  0  0  0  0  0  0  0  0
   22.9998  -36.0510  -11.4234 C   0  0  2  0  0  0  0  0  0  0  0  0
   23.9203  -35.0743  -12.0086 N   0  0  0  0  0  0  0  0  0  0  0  0
   23.3168  -36.3397  -10.0290 C   0  0  0  0  0  0  0  0  0  0  0  0
   22.5016  -37.0195   -9.1476 O   0  0  0  0  0  0  0  0  0  0  0  0
   24.4321  -35.9506   -9.5327 O   0  0  0  0  0  0  0  0  0  0  0  0
  2  9  1  0
  2  1  1  6
  3  2  1  0
  4  5  2  0
  4  3  1  0
  6  5  1  0
  7  8  2  0
  7  6  1  0
  8  4  1  0
  9 11  1  0
 10  9  2  0
 11 12  1  0
 12 13  1  1
 13 14  1  0
 14 15  2  0
 14 18  1  0
 15 16  1  0
 16 17  1  0
 18 17  2  0
 19 20  2  0
 19 12  1  0
 22 21  1  6
 22 24  1  0
 23 22  1  0
 24 26  1  0
 24 25  1  6
 25 19  1  0
 26 27  1  0
 28 26  2  0
M  END
$$$$
