HHT.pdb
     RDKit          3D

 28 29  0  0  1  0  0  0  0  0999 V2000
   26.3137  -33.1590  -15.0417 N   0  0  0  0  0  0  0  0  0  0  0  0
   25.7205  -34.1196  -14.1846 C   0  0  1  0  0  0  0  0  0  0  0  0
   26.1271  -35.5118  -14.6251 C   0  0  0  0  0  0  0  0  0  0  0  0
   25.6085  -35.7991  -15.9845 C   0  0  0  0  0  0  0  0  0  0  0  0
   26.3507  -35.8630  -17.1507 C   0  0  0  0  0  0  0  0  0  0  0  0
   25.5403  -36.1437  -18.1706 N   0  0  0  0  0  0  0  0  0  0  0  0
   24.2957  -36.2615  -17.6884 C   0  0  0  0  0  0  0  0  0  0  0  0
   24.3272  -36.0539  -16.3618 N   0  0  0  0  0  0  0  0  0  0  0  0
   26.0493  -33.9004  -12.7415 C   0  0  0  0  0  0  0  0  0  0  0  0
   27.2098  -33.6039  -12.3707 O   0  0  0  0  0  0  0  0  0  0  0  0
   25.0425  -34.0257  -11.7499 N   0  0  0  0  0  0  0  0  0  0  0  0
   25.1842  -33.8801  -10.3437 C   0  0  1  0  0  0  0  0  0  0  0  0
   24.3499  -32.8031   -9.7443 C   0  0  0  0  0  0  0  0  0  0  0  0
   24.5118  -32.7420   -8.2570 C   0  0  0  0  0  0  0  0  0  0  0  0
   25.5549  -32.3238   -7.4957 C   0  0  0  0  0  0  0  0  0  0  0  0
   25.2481  -32.4511   -6.1761 N   0  0  0  0  0  0  0  0  0  0  0  0
   24.0050  -32.9522   -6.1305 C   0  0  0  0  0  0  0  0  0  0  0  0
   23.5601  -33.1279   -7.3812 N   0  0  0  0  0  0  0  0  0  0  0  0
   25.1768  -35.1618   -9.5700 C   0  0  0  0  0  0  0  0  0  0  0  0
   24.3964  -36.1181   -9.7880 O   0  0  0  0  0  0  0  0  0  0  0  0
   27.5637  -38.0746   -6.3197 C   0  0  0  0  0  0  0  0  0  0  0  0
   27.4616  -36.8158   -7.1089 C   0  0  1  0  0  0  0  0  0  0  0  0
   28.4059  -36.9117   -8.1557 O   0  0  0  0  0  0  0  0  0  0  0  0
   26.0818  -36.5528   -7.6690 C   0  0  2  0  0  0  0  0  0  0  0  0
   26.0985  -35.3540   -8.5093 N   0  0  0  0  0  0  0  0  0  0  0  0
   25.0306  -36.5024   -6.6587 C   0  0  0  0  0  0  0  0  0  0  0  0
   24.3739  -37.5958   -6.1324 O   0  0  0  0  0  0  0  0  0  0  0  0
   24.6484  -35.3734   -6.1888 O   0  0  0  0  0  0  0  0  0  0  0  0
  2  9  1  0
  2  1  1  6
  3  2  1  0
  4  5  2  0
  4  3  1  0
  6  5  1  0
  7  8  2  0
  7  6  1  0
  8  4  1  0
  9 11  1  0
 10  9  2  0
 11 12  1  0
 12 13  1  1
 13 14  1  0
 14 15  2  0
 14 18  1  0
 15 16  1  0
 16 17  1  0
 18 17  2  0
 19 20  2  0
 19 12  1  0
 22 21  1  6
 22 24  1  0
 23 22  1  0
 24 26  1  0
 24 25  1  1
 25 19  1  0
 26 27  1  0
 28 26  2  0
M  END
$$$$
