HHT.pdb
     RDKit          3D

 28 29  0  0  1  0  0  0  0  0999 V2000
   16.8152  -10.6579  -17.2439 N   0  0  0  0  0  0  0  0  0  0  0  0
   17.2607  -10.1117  -16.0140 C   0  0  1  0  0  0  0  0  0  0  0  0
   18.2822  -11.0399  -15.3874 C   0  0  0  0  0  0  0  0  0  0  0  0
   17.6934  -12.3814  -15.1572 C   0  0  0  0  0  0  0  0  0  0  0  0
   16.7709  -12.7176  -14.1821 C   0  0  0  0  0  0  0  0  0  0  0  0
   16.4770  -14.0132  -14.2855 N   0  0  0  0  0  0  0  0  0  0  0  0
   17.1881  -14.5178  -15.3030 C   0  0  0  0  0  0  0  0  0  0  0  0
   17.9297  -13.5342  -15.8385 N   0  0  0  0  0  0  0  0  0  0  0  0
   17.8128   -8.7279  -16.1525 C   0  0  0  0  0  0  0  0  0  0  0  0
   18.6245   -8.4334  -17.0617 O   0  0  0  0  0  0  0  0  0  0  0  0
   17.4252   -7.7075  -15.2464 N   0  0  0  0  0  0  0  0  0  0  0  0
   17.8408   -6.3488  -15.2374 C   0  0  1  0  0  0  0  0  0  0  0  0
   16.7285   -5.3601  -15.2180 C   0  0  0  0  0  0  0  0  0  0  0  0
   15.8096   -5.5395  -16.3865 C   0  0  0  0  0  0  0  0  0  0  0  0
   14.5518   -6.0450  -16.4552 C   0  0  0  0  0  0  0  0  0  0  0  0
   14.1059   -6.0101  -17.7403 N   0  0  0  0  0  0  0  0  0  0  0  0
   15.1013   -5.4778  -18.4644 C   0  0  0  0  0  0  0  0  0  0  0  0
   16.1271   -5.1938  -17.6520 N   0  0  0  0  0  0  0  0  0  0  0  0
   18.9561   -6.0336  -14.2898 C   0  0  0  0  0  0  0  0  0  0  0  0
   18.8720   -6.1159  -13.0420 O   0  0  0  0  0  0  0  0  0  0  0  0
   22.1459   -7.8099  -14.3295 C   0  0  0  0  0  0  0  0  0  0  0  0
   22.4974   -6.3635  -14.3775 C   0  0  1  0  0  0  0  0  0  0  0  0
   22.8609   -6.0752  -15.7122 O   0  0  0  0  0  0  0  0  0  0  0  0
   21.3832   -5.4459  -13.9268 C   0  0  2  0  0  0  0  0  0  0  0  0
   20.2133   -5.6103  -14.7917 N   0  0  0  0  0  0  0  0  0  0  0  0
   21.7806   -4.0481  -13.7980 C   0  0  0  0  0  0  0  0  0  0  0  0
   21.2325   -2.9930  -14.4979 O   0  0  0  0  0  0  0  0  0  0  0  0
   22.7118   -3.7204  -12.9813 O   0  0  0  0  0  0  0  0  0  0  0  0
  2  9  1  0
  2  1  1  6
  3  2  1  0
  4  5  2  0
  4  3  1  0
  6  5  1  0
  7  8  2  0
  7  6  1  0
  8  4  1  0
  9 11  1  0
 10  9  2  0
 11 12  1  0
 12 13  1  1
 13 14  1  0
 14 15  2  0
 14 18  1  0
 15 16  1  0
 16 17  1  0
 18 17  2  0
 19 20  2  0
 19 12  1  0
 22 21  1  6
 22 24  1  0
 23 22  1  0
 24 26  1  0
 24 25  1  6
 25 19  1  0
 26 27  1  0
 28 26  2  0
M  END
$$$$
