HHT.pdb
     RDKit          3D

 28 29  0  0  1  0  0  0  0  0999 V2000
   21.3242  -11.1929  -19.2292 N   0  0  0  0  0  0  0  0  0  0  0  0
   22.2104  -10.3116  -18.5603 C   0  0  1  0  0  0  0  0  0  0  0  0
   23.1057   -9.6270  -19.5738 C   0  0  0  0  0  0  0  0  0  0  0  0
   23.9552  -10.6218  -20.2726 C   0  0  0  0  0  0  0  0  0  0  0  0
   23.7862  -11.0823  -21.5665 C   0  0  0  0  0  0  0  0  0  0  0  0
   24.7424  -11.9679  -21.8444 N   0  0  0  0  0  0  0  0  0  0  0  0
   25.5215  -12.0877  -20.7609 C   0  0  0  0  0  0  0  0  0  0  0  0
   25.0513  -11.2740  -19.8012 N   0  0  0  0  0  0  0  0  0  0  0  0
   21.5040   -9.3049  -17.7079 C   0  0  0  0  0  0  0  0  0  0  0  0
   20.8208   -8.3823  -18.2121 O   0  0  0  0  0  0  0  0  0  0  0  0
   21.5941   -9.3736  -16.2938 N   0  0  0  0  0  0  0  0  0  0  0  0
   20.9387   -8.5495  -15.3398 C   0  0  1  0  0  0  0  0  0  0  0  0
   20.3846   -9.2788  -14.1667 C   0  0  0  0  0  0  0  0  0  0  0  0
   19.2043  -10.1186  -14.5455 C   0  0  0  0  0  0  0  0  0  0  0  0
   18.5515  -10.2473  -15.7286 C   0  0  0  0  0  0  0  0  0  0  0  0
   17.5270  -11.1337  -15.6006 N   0  0  0  0  0  0  0  0  0  0  0  0
   17.5539  -11.5509  -14.3263 C   0  0  0  0  0  0  0  0  0  0  0  0
   18.5622  -10.9417  -13.6898 N   0  0  0  0  0  0  0  0  0  0  0  0
   21.6630   -7.2871  -14.9890 C   0  0  0  0  0  0  0  0  0  0  0  0
   22.8089   -7.2433  -14.4831 O   0  0  0  0  0  0  0  0  0  0  0  0
   22.6582   -4.5310  -17.2448 C   0  0  0  0  0  0  0  0  0  0  0  0
   21.8322   -3.9174  -16.1681 C   0  0  1  0  0  0  0  0  0  0  0  0
   20.5516   -3.6843  -16.7178 O   0  0  0  0  0  0  0  0  0  0  0  0
   21.7219   -4.7652  -14.9208 C   0  0  2  0  0  0  0  0  0  0  0  0
   21.0514   -6.0300  -15.2283 N   0  0  0  0  0  0  0  0  0  0  0  0
   21.1098   -4.0787  -13.7884 C   0  0  0  0  0  0  0  0  0  0  0  0
   19.9179   -4.4304  -13.1890 O   0  0  0  0  0  0  0  0  0  0  0  0
   21.6865   -3.0582  -13.2712 O   0  0  0  0  0  0  0  0  0  0  0  0
  2  9  1  0
  2  1  1  6
  3  2  1  0
  4  5  2  0
  4  3  1  0
  6  5  1  0
  7  8  2  0
  7  6  1  0
  8  4  1  0
  9 11  1  0
 10  9  2  0
 11 12  1  0
 12 13  1  1
 13 14  1  0
 14 15  2  0
 14 18  1  0
 15 16  1  0
 16 17  1  0
 18 17  2  0
 19 20  2  0
 19 12  1  0
 22 21  1  6
 22 24  1  0
 23 22  1  0
 24 26  1  0
 24 25  1  6
 25 19  1  0
 26 27  1  0
 28 26  2  0
M  END
$$$$
