HHT.pdb
     RDKit          3D

 28 29  0  0  1  0  0  0  0  0999 V2000
   23.5711  -13.2455  -17.3669 N   0  0  0  0  0  0  0  0  0  0  0  0
   23.7601  -12.2859  -16.3408 C   0  0  1  0  0  0  0  0  0  0  0  0
   25.2278  -11.9168  -16.2559 C   0  0  0  0  0  0  0  0  0  0  0  0
   26.0577  -13.1288  -16.0522 C   0  0  0  0  0  0  0  0  0  0  0  0
   26.0538  -13.9498  -14.9383 C   0  0  0  0  0  0  0  0  0  0  0  0
   26.9303  -14.9371  -15.1189 N   0  0  0  0  0  0  0  0  0  0  0  0
   27.4975  -14.7706  -16.3214 C   0  0  0  0  0  0  0  0  0  0  0  0
   26.9738  -13.6751  -16.8957 N   0  0  0  0  0  0  0  0  0  0  0  0
   22.9132  -11.0650  -16.5164 C   0  0  0  0  0  0  0  0  0  0  0  0
   22.7526  -10.5341  -17.6409 O   0  0  0  0  0  0  0  0  0  0  0  0
   22.2665  -10.4745  -15.4002 N   0  0  0  0  0  0  0  0  0  0  0  0
   21.3853   -9.3600  -15.3952 C   0  0  1  0  0  0  0  0  0  0  0  0
   19.9912   -9.6735  -14.9788 C   0  0  0  0  0  0  0  0  0  0  0  0
   19.3673  -10.7034  -15.8688 C   0  0  0  0  0  0  0  0  0  0  0  0
   18.7920  -10.5857  -17.0925 C   0  0  0  0  0  0  0  0  0  0  0  0
   18.3584  -11.8020  -17.5217 N   0  0  0  0  0  0  0  0  0  0  0  0
   18.6720  -12.6719  -16.5503 C   0  0  0  0  0  0  0  0  0  0  0  0
   19.2790  -12.0132  -15.5551 N   0  0  0  0  0  0  0  0  0  0  0  0
   21.9425   -8.1145  -14.7791 C   0  0  0  0  0  0  0  0  0  0  0  0
   22.4471   -8.0537  -13.6334 O   0  0  0  0  0  0  0  0  0  0  0  0
   24.4166   -5.7718  -16.7481 C   0  0  0  0  0  0  0  0  0  0  0  0
   23.2956   -4.9882  -16.1589 C   0  0  1  0  0  0  0  0  0  0  0  0
   22.3867   -4.7226  -17.2076 O   0  0  0  0  0  0  0  0  0  0  0  0
   22.5912   -5.6876  -15.0180 C   0  0  2  0  0  0  0  0  0  0  0  0
   21.9211   -6.8954  -15.5037 N   0  0  0  0  0  0  0  0  0  0  0  0
   21.6914   -4.8263  -14.2586 C   0  0  0  0  0  0  0  0  0  0  0  0
   22.0756   -3.7427  -13.4958 O   0  0  0  0  0  0  0  0  0  0  0  0
   20.4304   -5.0528  -14.2668 O   0  0  0  0  0  0  0  0  0  0  0  0
  2  9  1  0
  2  1  1  6
  3  2  1  0
  4  5  2  0
  4  3  1  0
  6  5  1  0
  7  8  2  0
  7  6  1  0
  8  4  1  0
  9 11  1  0
 10  9  2  0
 11 12  1  0
 12 13  1  1
 13 14  1  0
 14 15  2  0
 14 18  1  0
 15 16  1  0
 16 17  1  0
 18 17  2  0
 19 20  2  0
 19 12  1  0
 22 21  1  6
 22 24  1  0
 23 22  1  0
 24 26  1  0
 24 25  1  6
 25 19  1  0
 26 27  1  0
 28 26  2  0
M  END
$$$$
