RRK.pdb
     RDKit          3D

 32 31  0  0  1  0  0  0  0  0999 V2000
   29.2677  -27.2464  -17.1213 N   0  0  0  0  0  0  0  0  0  0  0  0
   28.0909  -28.0359  -17.2285 C   0  0  0  0  0  0  0  0  0  0  0  0
   28.1717  -29.3174  -17.3109 N   0  0  0  0  0  0  0  0  0  0  0  0
   26.7907  -27.4573  -17.2519 N   0  0  0  0  0  0  0  0  0  0  0  0
   26.5608  -26.0465  -17.1753 C   0  0  0  0  0  0  0  0  0  0  0  0
   26.8458  -25.4839  -15.8008 C   0  0  0  0  0  0  0  0  0  0  0  0
   25.5513  -25.2619  -15.0119 C   0  0  0  0  0  0  0  0  0  0  0  0
   24.8589  -24.1048  -15.7271 C   0  0  2  0  0  0  0  0  0  0  0  0
   25.7906  -22.9937  -15.7227 N   0  0  0  0  0  0  0  0  0  0  0  0
   23.5739  -23.7364  -15.0795 C   0  0  0  0  0  0  0  0  0  0  0  0
   23.6361  -22.9769  -14.0910 O   0  0  0  0  0  0  0  0  0  0  0  0
   27.3797  -29.9465  -17.4616 N   0  0  0  0  0  0  0  0  0  0  0  0
   16.0138  -20.7413  -17.2735 C   0  0  0  0  0  0  0  0  0  0  0  0
   17.2710  -20.9176  -17.9021 N   0  0  0  0  0  0  0  0  0  0  0  0
   17.6837  -19.9903  -18.7316 N   0  0  0  0  0  0  0  0  0  0  0  0
   18.0622  -22.0518  -17.6443 C   0  0  0  0  0  0  0  0  0  0  0  0
   17.6667  -23.0672  -16.7446 C   0  0  0  0  0  0  0  0  0  0  0  0
   18.6172  -23.4069  -15.6288 C   0  0  0  0  0  0  0  0  0  0  0  0
   19.9930  -23.6438  -16.1699 C   0  0  1  0  0  0  0  0  0  0  0  0
   21.0341  -23.9268  -15.0935 N   0  0  0  0  0  0  0  0  0  0  0  0
   22.3428  -24.2075  -15.5402 C   0  0  0  0  0  0  0  0  0  0  0  0
   20.4454  -24.7706  -14.0673 O   0  0  0  0  0  0  0  0  0  0  0  0
   20.4104  -26.0189  -14.3004 N   0  0  0  0  0  0  0  0  0  0  0  0
   18.5939  -20.0876  -19.2105 C   0  0  2  0  0  0  0  0  0  0  0  0
   19.9087  -24.3413  -12.8383 C   0  0  0  0  0  0  0  0  0  0  0  0
   19.3655  -25.1577  -11.8042 C   0  0  0  0  0  0  0  0  0  0  0  0
   19.0132  -24.4048  -10.5374 C   0  0  0  0  0  0  0  0  0  0  0  0
   18.5269  -25.3245   -9.4529 C   0  0  0  0  0  0  0  0  0  0  0  0
   18.2381  -24.5052   -8.2205 N   0  0  0  0  0  0  0  0  0  0  0  0
   17.8595  -25.3367   -7.0219 C   0  0  0  0  0  0  0  0  0  0  0  0
   17.6483  -24.4558   -5.8758 O   0  0  0  0  0  0  0  0  0  0  0  0
   18.1239  -25.8672  -12.2175 O   0  0  0  0  0  0  0  0  0  0  0  0
  2  3  2  0
  2  1  1  0
  4  2  1  0
  5  4  1  0
  6  7  1  0
  6  5  1  0
  8 10  1  0
  8  7  1  0
  8  9  1  1
 10 11  2  0
 13 15  1  0
 13 12  1  0
 14 13  2  0
 16 15  1  0
 17 16  1  0
 17 18  1  0
 19 18  1  1
 20 10  1  0
 20 19  1  0
 21 23  1  0
 21 19  1  0
 22 21  2  0
 24 25  1  6
 24 23  1  0
 25 26  1  0
 26 27  1  0
 27 28  1  0
 28 29  1  0
 30 24  1  0
 30 31  1  0
 32 30  2  0
M  END
$$$$
