RRK.pdb
     RDKit          3D

 32 31  0  0  1  0  0  0  0  0999 V2000
   17.9890  -27.1205   -9.2501 N   0  0  0  0  0  0  0  0  0  0  0  0
   16.6301  -26.7283   -9.3886 C   0  0  0  0  0  0  0  0  0  0  0  0
   15.7492  -27.5681   -9.8062 N   0  0  0  0  0  0  0  0  0  0  0  0
   16.1871  -25.4113   -9.0801 N   0  0  0  0  0  0  0  0  0  0  0  0
   16.2951  -24.3153   -9.9946 C   0  0  0  0  0  0  0  0  0  0  0  0
   17.4661  -23.4104   -9.6833 C   0  0  0  0  0  0  0  0  0  0  0  0
   17.5597  -22.2573  -10.6877 C   0  0  0  0  0  0  0  0  0  0  0  0
   18.5483  -22.7460  -11.7429 C   0  0  2  0  0  0  0  0  0  0  0  0
   19.8290  -22.8930  -11.0789 N   0  0  0  0  0  0  0  0  0  0  0  0
   18.6403  -21.8146  -12.8963 C   0  0  0  0  0  0  0  0  0  0  0  0
   17.5979  -21.6283  -13.5572 O   0  0  0  0  0  0  0  0  0  0  0  0
   14.7594  -27.3563   -9.9511 N   0  0  0  0  0  0  0  0  0  0  0  0
   24.8154  -22.4114  -13.7969 C   0  0  0  0  0  0  0  0  0  0  0  0
   25.4508  -21.8199  -14.9162 N   0  0  0  0  0  0  0  0  0  0  0  0
   26.4410  -22.4681  -15.4798 N   0  0  0  0  0  0  0  0  0  0  0  0
   25.0329  -20.5739  -15.4176 C   0  0  0  0  0  0  0  0  0  0  0  0
   23.9161  -19.8805  -14.8989 C   0  0  0  0  0  0  0  0  0  0  0  0
   22.5858  -20.5816  -14.9507 C   0  0  0  0  0  0  0  0  0  0  0  0
   21.5150  -19.7115  -14.3692 C   0  0  1  0  0  0  0  0  0  0  0  0
   20.1366  -20.3616  -14.3580 N   0  0  0  0  0  0  0  0  0  0  0  0
   19.8285  -21.1677  -13.2417 C   0  0  0  0  0  0  0  0  0  0  0  0
   19.8295  -20.8571  -15.6892 O   0  0  0  0  0  0  0  0  0  0  0  0
   20.0154  -22.0963  -15.8978 N   0  0  0  0  0  0  0  0  0  0  0  0
   26.9382  -22.0594  -16.2880 C   0  0  2  0  0  0  0  0  0  0  0  0
   19.3458  -20.0988  -16.7725 C   0  0  0  0  0  0  0  0  0  0  0  0
   18.4444  -20.5284  -17.7894 C   0  0  0  0  0  0  0  0  0  0  0  0
   17.7545  -21.8446  -17.4938 C   0  0  0  0  0  0  0  0  0  0  0  0
   16.9388  -22.3269  -18.6602 C   0  0  0  0  0  0  0  0  0  0  0  0
   16.2763  -23.6267  -18.2797 N   0  0  0  0  0  0  0  0  0  0  0  0
   16.8159  -24.8177  -19.0292 C   0  0  0  0  0  0  0  0  0  0  0  0
   16.0582  -26.0069  -18.6474 O   0  0  0  0  0  0  0  0  0  0  0  0
   17.3571  -19.5465  -18.0531 O   0  0  0  0  0  0  0  0  0  0  0  0
  2  3  2  0
  2  1  1  0
  4  2  1  0
  5  4  1  0
  6  7  1  0
  6  5  1  0
  8 10  1  0
  8  7  1  0
  8  9  1  1
 10 11  2  0
 13 15  1  0
 13 12  1  0
 14 13  2  0
 16 15  1  0
 17 16  1  0
 17 18  1  0
 19 18  1  1
 20 10  1  0
 20 19  1  0
 21 23  1  0
 21 19  1  0
 22 21  2  0
 24 25  1  1
 24 23  1  0
 25 26  1  0
 26 27  1  0
 27 28  1  0
 28 29  1  0
 30 24  1  0
 30 31  1  0
 32 30  2  0
M  END
$$$$
