RRK.pdb
     RDKit          3D

 32 31  0  0  1  0  0  0  0  0999 V2000
   21.5630  -27.9488  -13.8101 N   0  0  0  0  0  0  0  0  0  0  0  0
   21.4654  -26.6172  -14.2969 C   0  0  0  0  0  0  0  0  0  0  0  0
   21.8771  -26.3247  -15.4804 N   0  0  0  0  0  0  0  0  0  0  0  0
   20.9200  -25.5623  -13.5123 N   0  0  0  0  0  0  0  0  0  0  0  0
   20.6003  -25.7047  -12.1242 C   0  0  0  0  0  0  0  0  0  0  0  0
   19.2060  -25.2202  -11.7952 C   0  0  0  0  0  0  0  0  0  0  0  0
   18.3638  -26.3357  -11.1677 C   0  0  0  0  0  0  0  0  0  0  0  0
   19.0000  -26.5752   -9.8011 C   0  0  2  0  0  0  0  0  0  0  0  0
   19.6856  -27.8506   -9.8774 N   0  0  0  0  0  0  0  0  0  0  0  0
   17.9949  -26.5654   -8.7074 C   0  0  0  0  0  0  0  0  0  0  0  0
   17.1081  -27.4429   -8.7465 O   0  0  0  0  0  0  0  0  0  0  0  0
   21.9312  -25.3790  -15.8654 N   0  0  0  0  0  0  0  0  0  0  0  0
   14.4516  -22.7074   -2.4358 C   0  0  0  0  0  0  0  0  0  0  0  0
   14.5294  -23.9530   -1.7655 N   0  0  0  0  0  0  0  0  0  0  0  0
   13.9080  -24.0782   -0.6181 N   0  0  0  0  0  0  0  0  0  0  0  0
   15.2479  -25.0315   -2.3125 C   0  0  0  0  0  0  0  0  0  0  0  0
   16.4459  -24.8565   -3.0413 C   0  0  0  0  0  0  0  0  0  0  0  0
   16.3205  -24.4496   -4.4845 C   0  0  0  0  0  0  0  0  0  0  0  0
   17.3384  -25.1645   -5.3180 C   0  0  1  0  0  0  0  0  0  0  0  0
   16.9995  -25.1975   -6.8034 N   0  0  0  0  0  0  0  0  0  0  0  0
   18.0235  -25.6263   -7.6745 C   0  0  0  0  0  0  0  0  0  0  0  0
   16.2353  -24.0103   -7.1473 O   0  0  0  0  0  0  0  0  0  0  0  0
   16.7138  -22.8926   -6.7791 N   0  0  0  0  0  0  0  0  0  0  0  0
   13.9596  -24.9658   -0.0920 C   0  0  2  0  0  0  0  0  0  0  0  0
   15.0151  -23.9757   -7.8491 C   0  0  0  0  0  0  0  0  0  0  0  0
   13.8636  -23.1968   -7.5353 C   0  0  0  0  0  0  0  0  0  0  0  0
   12.5991  -24.0077   -7.3372 C   0  0  0  0  0  0  0  0  0  0  0  0
   11.4024  -23.1329   -7.0899 C   0  0  0  0  0  0  0  0  0  0  0  0
   10.1700  -24.0008   -7.0581 N   0  0  0  0  0  0  0  0  0  0  0  0
    9.6029  -24.2888   -8.4244 C   0  0  0  0  0  0  0  0  0  0  0  0
    8.3413  -25.0103   -8.2766 O   0  0  0  0  0  0  0  0  0  0  0  0
   14.0301  -22.3888   -6.2962 O   0  0  0  0  0  0  0  0  0  0  0  0
  2  3  2  0
  2  1  1  0
  4  2  1  0
  5  4  1  0
  6  7  1  0
  6  5  1  0
  8 10  1  0
  8  7  1  0
  8  9  1  6
 10 11  2  0
 13 15  1  0
 13 12  1  0
 14 13  2  0
 16 15  1  0
 17 16  1  0
 17 18  1  0
 19 18  1  1
 20 10  1  0
 20 19  1  0
 21 23  1  0
 21 19  1  0
 22 21  2  0
 24 25  1  1
 24 23  1  0
 25 26  1  0
 26 27  1  0
 27 28  1  0
 28 29  1  0
 30 24  1  0
 30 31  1  0
 32 30  2  0
M  END
$$$$
