RRK.pdb
     RDKit          3D

 32 31  0  0  1  0  0  0  0  0999 V2000
   22.1696  -21.2509   -7.7978 N   0  0  0  0  0  0  0  0  0  0  0  0
   23.5812  -21.2896   -7.6382 C   0  0  0  0  0  0  0  0  0  0  0  0
   24.1016  -21.3855   -6.4654 N   0  0  0  0  0  0  0  0  0  0  0  0
   24.4705  -21.2230   -8.7475 N   0  0  0  0  0  0  0  0  0  0  0  0
   24.1722  -20.5009   -9.9470 C   0  0  0  0  0  0  0  0  0  0  0  0
   25.3278  -20.4890  -10.9223 C   0  0  0  0  0  0  0  0  0  0  0  0
   25.4601  -21.8342  -11.6436 C   0  0  0  0  0  0  0  0  0  0  0  0
   26.5999  -21.6268  -12.6375 C   0  0  2  0  0  0  0  0  0  0  0  0
   27.7078  -21.0636  -11.8906 N   0  0  0  0  0  0  0  0  0  0  0  0
   26.2039  -20.7456  -13.7657 C   0  0  0  0  0  0  0  0  0  0  0  0
   27.0193  -19.8649  -14.1085 O   0  0  0  0  0  0  0  0  0  0  0  0
   25.1049  -21.3896   -6.2675 N   0  0  0  0  0  0  0  0  0  0  0  0
   24.6117  -22.1513  -19.5864 C   0  0  0  0  0  0  0  0  0  0  0  0
   24.7064  -21.1785  -20.6116 N   0  0  0  0  0  0  0  0  0  0  0  0
   24.2116  -21.4707  -21.7898 N   0  0  0  0  0  0  0  0  0  0  0  0
   25.3092  -19.9292  -20.3778 C   0  0  0  0  0  0  0  0  0  0  0  0
   25.8662  -19.5748  -19.1283 C   0  0  0  0  0  0  0  0  0  0  0  0
   24.9234  -19.4641  -17.9608 C   0  0  0  0  0  0  0  0  0  0  0  0
   25.4218  -20.2808  -16.8091 C   0  0  2  0  0  0  0  0  0  0  0  0
   24.5014  -20.2523  -15.5947 N   0  0  0  0  0  0  0  0  0  0  0  0
   24.9806  -20.8800  -14.4254 C   0  0  0  0  0  0  0  0  0  0  0  0
   23.1364  -20.5094  -16.0216 O   0  0  0  0  0  0  0  0  0  0  0  0
   22.8538  -21.7022  -16.3553 N   0  0  0  0  0  0  0  0  0  0  0  0
   24.3560  -20.8316  -22.5885 C   0  0  2  0  0  0  0  0  0  0  0  0
   22.0941  -19.5662  -16.1026 C   0  0  0  0  0  0  0  0  0  0  0  0
   20.7284  -19.8179  -16.4231 C   0  0  0  0  0  0  0  0  0  0  0  0
   19.8900  -18.5681  -16.5990 C   0  0  0  0  0  0  0  0  0  0  0  0
   18.4550  -18.8917  -16.9064 C   0  0  0  0  0  0  0  0  0  0  0  0
   17.6868  -17.6005  -17.0327 N   0  0  0  0  0  0  0  0  0  0  0  0
   16.2363  -17.7975  -17.3915 C   0  0  0  0  0  0  0  0  0  0  0  0
   15.6152  -16.4930  -17.6071 O   0  0  0  0  0  0  0  0  0  0  0  0
   20.5623  -20.6022  -17.6773 O   0  0  0  0  0  0  0  0  0  0  0  0
  2  3  2  0
  2  1  1  0
  4  2  1  0
  5  4  1  0
  6  7  1  0
  6  5  1  0
  8 10  1  0
  8  7  1  0
  8  9  1  1
 10 11  2  0
 13 15  1  0
 13 12  1  0
 14 13  2  0
 16 15  1  0
 17 16  1  0
 17 18  1  0
 19 18  1  1
 20 10  1  0
 20 19  1  0
 21 23  1  0
 21 19  1  0
 22 21  2  0
 24 25  1  6
 24 23  1  0
 25 26  1  0
 26 27  1  0
 27 28  1  0
 28 29  1  0
 30 24  1  0
 30 31  1  0
 32 30  2  0
M  END
$$$$
