RRK.pdb
     RDKit          3D

 32 31  0  0  1  0  0  0  0  0999 V2000
   12.0280  -23.8876   -3.5117 N   0  0  0  0  0  0  0  0  0  0  0  0
   13.2662  -23.3041   -3.1296 C   0  0  0  0  0  0  0  0  0  0  0  0
   13.2910  -22.2832   -2.3468 N   0  0  0  0  0  0  0  0  0  0  0  0
   14.5150  -23.8102   -3.5880 N   0  0  0  0  0  0  0  0  0  0  0  0
   14.7005  -25.1628   -4.0183 C   0  0  0  0  0  0  0  0  0  0  0  0
   16.1413  -25.4742   -4.3559 C   0  0  0  0  0  0  0  0  0  0  0  0
   16.5194  -24.9268   -5.7360 C   0  0  0  0  0  0  0  0  0  0  0  0
   17.9422  -25.4270   -5.9712 C   0  0  2  0  0  0  0  0  0  0  0  0
   18.8003  -24.6851   -5.0680 N   0  0  0  0  0  0  0  0  0  0  0  0
   18.3678  -25.2571   -7.3842 C   0  0  0  0  0  0  0  0  0  0  0  0
   18.7951  -24.1319   -7.7146 O   0  0  0  0  0  0  0  0  0  0  0  0
   14.1384  -21.8009   -2.0386 N   0  0  0  0  0  0  0  0  0  0  0  0
   20.4104  -28.2720  -14.8979 C   0  0  0  0  0  0  0  0  0  0  0  0
   21.6320  -28.2176  -14.1828 N   0  0  0  0  0  0  0  0  0  0  0  0
   22.7166  -27.8774  -14.8356 N   0  0  0  0  0  0  0  0  0  0  0  0
   21.6863  -28.5144  -12.8089 C   0  0  0  0  0  0  0  0  0  0  0  0
   20.5263  -28.7167  -12.0275 C   0  0  0  0  0  0  0  0  0  0  0  0
   19.7401  -27.4958  -11.6334 C   0  0  0  0  0  0  0  0  0  0  0  0
   19.4866  -27.4929  -10.1578 C   0  0  1  0  0  0  0  0  0  0  0  0
   18.6413  -26.3166   -9.6841 N   0  0  0  0  0  0  0  0  0  0  0  0
   18.3005  -26.2957   -8.3150 C   0  0  0  0  0  0  0  0  0  0  0  0
   17.6097  -26.0399  -10.6695 O   0  0  0  0  0  0  0  0  0  0  0  0
   16.6038  -26.8157  -10.6814 N   0  0  0  0  0  0  0  0  0  0  0  0
   23.6365  -27.9025  -14.3661 C   0  0  2  0  0  0  0  0  0  0  0  0
   17.6145  -24.9959  -11.6142 C   0  0  0  0  0  0  0  0  0  0  0  0
   16.6205  -24.7205  -12.5978 C   0  0  0  0  0  0  0  0  0  0  0  0
   16.4042  -23.2453  -12.8676 C   0  0  0  0  0  0  0  0  0  0  0  0
   15.4294  -22.6335  -11.9011 C   0  0  0  0  0  0  0  0  0  0  0  0
   15.3621  -21.1496  -12.1598 N   0  0  0  0  0  0  0  0  0  0  0  0
   14.5008  -20.4063  -11.1714 C   0  0  0  0  0  0  0  0  0  0  0  0
   14.6369  -18.9703  -11.4030 O   0  0  0  0  0  0  0  0  0  0  0  0
   16.9243  -25.3378  -13.9178 O   0  0  0  0  0  0  0  0  0  0  0  0
  2  3  2  0
  2  1  1  0
  4  2  1  0
  5  4  1  0
  6  7  1  0
  6  5  1  0
  8 10  1  0
  8  7  1  0
  8  9  1  1
 10 11  2  0
 13 15  1  0
 13 12  1  0
 14 13  2  0
 16 15  1  0
 17 16  1  0
 17 18  1  0
 19 18  1  1
 20 10  1  0
 20 19  1  0
 21 23  1  0
 21 19  1  0
 22 21  2  0
 24 25  1  6
 24 23  1  0
 25 26  1  0
 26 27  1  0
 27 28  1  0
 28 29  1  0
 30 24  1  0
 30 31  1  0
 32 30  2  0
M  END
$$$$
