RRK.pdb
     RDKit          3D

 32 31  0  0  1  0  0  0  0  0999 V2000
   27.1044  -25.4904  -17.5964 N   0  0  0  0  0  0  0  0  0  0  0  0
   25.7208  -25.6712  -17.3268 C   0  0  0  0  0  0  0  0  0  0  0  0
   24.9961  -26.3993  -18.1015 N   0  0  0  0  0  0  0  0  0  0  0  0
   25.0818  -25.0646  -16.2089 N   0  0  0  0  0  0  0  0  0  0  0  0
   25.7109  -24.0714  -15.3923 C   0  0  0  0  0  0  0  0  0  0  0  0
   24.8808  -23.6997  -14.1841 C   0  0  0  0  0  0  0  0  0  0  0  0
   24.1222  -22.3885  -14.4131 C   0  0  0  0  0  0  0  0  0  0  0  0
   24.6196  -21.4589  -13.3094 C   0  0  2  0  0  0  0  0  0  0  0  0
   25.6260  -22.1931  -12.5672 N   0  0  0  0  0  0  0  0  0  0  0  0
   23.5177  -21.0041  -12.4232 C   0  0  0  0  0  0  0  0  0  0  0  0
   23.8074  -20.1648  -11.5459 O   0  0  0  0  0  0  0  0  0  0  0  0
   23.9925  -26.5585  -17.9871 N   0  0  0  0  0  0  0  0  0  0  0  0
   18.7401  -19.2192  -17.1151 C   0  0  0  0  0  0  0  0  0  0  0  0
   17.8853  -18.2921  -16.4696 N   0  0  0  0  0  0  0  0  0  0  0  0
   16.7418  -18.0027  -17.0413 N   0  0  0  0  0  0  0  0  0  0  0  0
   18.2451  -17.6983  -15.2462 C   0  0  0  0  0  0  0  0  0  0  0  0
   19.4474  -18.0112  -14.5727 C   0  0  0  0  0  0  0  0  0  0  0  0
   19.5164  -19.3390  -13.8683 C   0  0  0  0  0  0  0  0  0  0  0  0
   20.8355  -19.4945  -13.1772 C   0  0  1  0  0  0  0  0  0  0  0  0
   20.9783  -20.8086  -12.4187 N   0  0  0  0  0  0  0  0  0  0  0  0
   22.2117  -21.4815  -12.5495 C   0  0  0  0  0  0  0  0  0  0  0  0
   19.7461  -21.5692  -12.5413 O   0  0  0  0  0  0  0  0  0  0  0  0
   19.4648  -22.0253  -13.6931 N   0  0  0  0  0  0  0  0  0  0  0  0
   16.1194  -17.2886  -16.6290 C   0  0  2  0  0  0  0  0  0  0  0  0
   18.8314  -21.8510  -11.5087 C   0  0  0  0  0  0  0  0  0  0  0  0
   17.7034  -22.7198  -11.5714 C   0  0  0  0  0  0  0  0  0  0  0  0
   17.2492  -23.2478  -10.2258 C   0  0  0  0  0  0  0  0  0  0  0  0
   18.3206  -24.0535   -9.5466 C   0  0  0  0  0  0  0  0  0  0  0  0
   17.8444  -24.4188   -8.1634 N   0  0  0  0  0  0  0  0  0  0  0  0
   18.8582  -25.1978   -7.3655 C   0  0  0  0  0  0  0  0  0  0  0  0
   18.3008  -25.5016   -6.0498 O   0  0  0  0  0  0  0  0  0  0  0  0
   16.5088  -22.0759  -12.1829 O   0  0  0  0  0  0  0  0  0  0  0  0
  2  3  2  0
  2  1  1  0
  4  2  1  0
  5  4  1  0
  6  7  1  0
  6  5  1  0
  8 10  1  0
  8  7  1  0
  8  9  1  1
 10 11  2  0
 13 15  1  0
 13 12  1  0
 14 13  2  0
 16 15  1  0
 17 16  1  0
 17 18  1  0
 19 18  1  1
 20 10  1  0
 20 19  1  0
 21 23  1  0
 21 19  1  0
 22 21  2  0
 24 25  1  6
 24 23  1  0
 25 26  1  0
 26 27  1  0
 27 28  1  0
 28 29  1  0
 30 24  1  0
 30 31  1  0
 32 30  2  0
M  END
$$$$
