RRK.pdb
     RDKit          3D

 32 31  0  0  1  0  0  0  0  0999 V2000
   16.2363  -31.3607   -9.8984 N   0  0  0  0  0  0  0  0  0  0  0  0
   17.5349  -31.9379   -9.8896 C   0  0  0  0  0  0  0  0  0  0  0  0
   17.6965  -33.1820  -10.1751 N   0  0  0  0  0  0  0  0  0  0  0  0
   18.6972  -31.1818   -9.5681 N   0  0  0  0  0  0  0  0  0  0  0  0
   18.7903  -29.7674   -9.7680 C   0  0  0  0  0  0  0  0  0  0  0  0
   18.9862  -29.3963  -11.2208 C   0  0  0  0  0  0  0  0  0  0  0  0
   18.3905  -28.0184  -11.5276 C   0  0  0  0  0  0  0  0  0  0  0  0
   19.4940  -27.0314  -11.1565 C   0  0  2  0  0  0  0  0  0  0  0  0
   19.3153  -26.7136   -9.7530 N   0  0  0  0  0  0  0  0  0  0  0  0
   19.4553  -25.8078  -11.9978 C   0  0  0  0  0  0  0  0  0  0  0  0
   18.9008  -24.8024  -11.5084 O   0  0  0  0  0  0  0  0  0  0  0  0
   18.5875  -33.6822  -10.1340 N   0  0  0  0  0  0  0  0  0  0  0  0
   24.8333  -22.7015  -16.0603 C   0  0  0  0  0  0  0  0  0  0  0  0
   25.3873  -24.0043  -16.0110 N   0  0  0  0  0  0  0  0  0  0  0  0
   26.6788  -24.1209  -15.8192 N   0  0  0  0  0  0  0  0  0  0  0  0
   24.5791  -25.1462  -16.1582 C   0  0  0  0  0  0  0  0  0  0  0  0
   23.1794  -25.0700  -16.3374 C   0  0  0  0  0  0  0  0  0  0  0  0
   22.3264  -25.0573  -15.0979 C   0  0  0  0  0  0  0  0  0  0  0  0
   20.8805  -24.9202  -15.4616 C   0  0  2  0  0  0  0  0  0  0  0  0
   19.9601  -24.7498  -14.2589 N   0  0  0  0  0  0  0  0  0  0  0  0
   20.0079  -25.7643  -13.2794 C   0  0  0  0  0  0  0  0  0  0  0  0
   18.6653  -24.2690  -14.7105 O   0  0  0  0  0  0  0  0  0  0  0  0
   17.8081  -25.1480  -15.0368 N   0  0  0  0  0  0  0  0  0  0  0  0
   27.1127  -25.0558  -15.7491 C   0  0  1  0  0  0  0  0  0  0  0  0
   18.2657  -22.9235  -14.8228 C   0  0  0  0  0  0  0  0  0  0  0  0
   16.9584  -22.4351  -15.1118 C   0  0  0  0  0  0  0  0  0  0  0  0
   15.9074  -22.8312  -14.0948 C   0  0  0  0  0  0  0  0  0  0  0  0
   16.2431  -22.3356  -12.7163 C   0  0  0  0  0  0  0  0  0  0  0  0
   15.2085  -22.8577  -11.7518 N   0  0  0  0  0  0  0  0  0  0  0  0
   15.4574  -22.4463  -10.3235 C   0  0  0  0  0  0  0  0  0  0  0  0
   14.3886  -22.9755   -9.4798 O   0  0  0  0  0  0  0  0  0  0  0  0
   16.9011  -20.9504  -15.2027 O   0  0  0  0  0  0  0  0  0  0  0  0
  2  3  2  0
  2  1  1  0
  4  2  1  0
  5  4  1  0
  6  7  1  0
  6  5  1  0
  8 10  1  0
  8  7  1  0
  8  9  1  1
 10 11  2  0
 13 15  1  0
 13 12  1  0
 14 13  2  0
 16 15  1  0
 17 16  1  0
 17 18  1  0
 19 18  1  1
 20 10  1  0
 20 19  1  0
 21 23  1  0
 21 19  1  0
 22 21  2  0
 24 25  1  6
 24 23  1  0
 25 26  1  0
 26 27  1  0
 27 28  1  0
 28 29  1  0
 30 24  1  0
 30 31  1  0
 32 30  2  0
M  END
$$$$
