RRK.pdb
     RDKit          3D

 32 31  0  0  1  0  0  0  0  0999 V2000
   20.0574  -23.6199   -7.9235 N   0  0  0  0  0  0  0  0  0  0  0  0
   18.9673  -24.0104   -8.7474 C   0  0  0  0  0  0  0  0  0  0  0  0
   18.0883  -24.8435   -8.3127 N   0  0  0  0  0  0  0  0  0  0  0  0
   18.8001  -23.5099  -10.0692 N   0  0  0  0  0  0  0  0  0  0  0  0
   19.6243  -22.4804  -10.6259 C   0  0  0  0  0  0  0  0  0  0  0  0
   20.7463  -23.0298  -11.4780 C   0  0  0  0  0  0  0  0  0  0  0  0
   21.4919  -21.9069  -12.2066 C   0  0  0  0  0  0  0  0  0  0  0  0
   22.4627  -21.3529  -11.1672 C   0  0  2  0  0  0  0  0  0  0  0  0
   21.7252  -20.3815  -10.3829 N   0  0  0  0  0  0  0  0  0  0  0  0
   23.6638  -20.7434  -11.7936 C   0  0  0  0  0  0  0  0  0  0  0  0
   23.5950  -19.5324  -12.0881 O   0  0  0  0  0  0  0  0  0  0  0  0
   17.2418  -25.1189   -8.8161 N   0  0  0  0  0  0  0  0  0  0  0  0
   31.9731  -20.9858  -10.3160 C   0  0  0  0  0  0  0  0  0  0  0  0
   30.9589  -21.9372  -10.0462 N   0  0  0  0  0  0  0  0  0  0  0  0
   31.2948  -23.0397   -9.4218 N   0  0  0  0  0  0  0  0  0  0  0  0
   29.6250  -21.7096  -10.4306 C   0  0  0  0  0  0  0  0  0  0  0  0
   29.1090  -20.4139  -10.6584 C   0  0  0  0  0  0  0  0  0  0  0  0
   27.6608  -20.3091  -11.0528 C   0  0  0  0  0  0  0  0  0  0  0  0
   27.3199  -21.3558  -12.0678 C   0  0  2  0  0  0  0  0  0  0  0  0
   25.9870  -21.1189  -12.7677 N   0  0  0  0  0  0  0  0  0  0  0  0
   24.8256  -21.4744  -12.0494 C   0  0  0  0  0  0  0  0  0  0  0  0
   26.1003  -21.5146  -14.1613 O   0  0  0  0  0  0  0  0  0  0  0  0
   26.3129  -22.7454  -14.3935 N   0  0  0  0  0  0  0  0  0  0  0  0
   30.5831  -23.7602   -9.2176 C   0  0  1  0  0  0  0  0  0  0  0  0
   25.9980  -20.6680  -15.2817 C   0  0  0  0  0  0  0  0  0  0  0  0
   26.0721  -21.0441  -16.6544 C   0  0  0  0  0  0  0  0  0  0  0  0
   25.1419  -20.2669  -17.5635 C   0  0  0  0  0  0  0  0  0  0  0  0
   23.7040  -20.4068  -17.1497 C   0  0  0  0  0  0  0  0  0  0  0  0
   22.8508  -19.5960  -18.0919 N   0  0  0  0  0  0  0  0  0  0  0  0
   21.3911  -19.5798  -17.7171 C   0  0  0  0  0  0  0  0  0  0  0  0
   20.6653  -18.7275  -18.6558 O   0  0  0  0  0  0  0  0  0  0  0  0
   27.4360  -20.8803  -17.2277 O   0  0  0  0  0  0  0  0  0  0  0  0
  2  3  2  0
  2  1  1  0
  4  2  1  0
  5  4  1  0
  6  7  1  0
  6  5  1  0
  8 10  1  0
  8  7  1  0
  8  9  1  6
 10 11  2  0
 13 15  1  0
 13 12  1  0
 14 13  2  0
 16 15  1  0
 17 16  1  0
 17 18  1  0
 19 18  1  1
 20 10  1  0
 20 19  1  0
 21 23  1  0
 21 19  1  0
 22 21  2  0
 24 25  1  6
 24 23  1  0
 25 26  1  0
 26 27  1  0
 27 28  1  0
 28 29  1  0
 30 24  1  0
 30 31  1  0
 32 30  2  0
M  END
$$$$
