RRK.pdb
     RDKit          3D

 32 31  0  0  1  0  0  0  0  0999 V2000
   17.9808  -21.8519  -19.4736 N   0  0  0  0  0  0  0  0  0  0  0  0
   17.1719  -21.2663  -18.4625 C   0  0  0  0  0  0  0  0  0  0  0  0
   15.8930  -21.2212  -18.5965 N   0  0  0  0  0  0  0  0  0  0  0  0
   17.7275  -20.7098  -17.2762 N   0  0  0  0  0  0  0  0  0  0  0  0
   18.2433  -21.5073  -16.2051 C   0  0  0  0  0  0  0  0  0  0  0  0
   19.3233  -22.4635  -16.6589 C   0  0  0  0  0  0  0  0  0  0  0  0
   20.2781  -22.8085  -15.5114 C   0  0  0  0  0  0  0  0  0  0  0  0
   20.7926  -21.4580  -15.0203 C   0  0  2  0  0  0  0  0  0  0  0  0
   21.0124  -20.6415  -16.1983 N   0  0  0  0  0  0  0  0  0  0  0  0
   22.0337  -21.5921  -14.2152 C   0  0  0  0  0  0  0  0  0  0  0  0
   21.9782  -22.3287  -13.2091 O   0  0  0  0  0  0  0  0  0  0  0  0
   15.2548  -20.7250  -17.9703 N   0  0  0  0  0  0  0  0  0  0  0  0
   29.2280  -19.1232  -17.1046 C   0  0  0  0  0  0  0  0  0  0  0  0
   28.2018  -18.2225  -16.7274 N   0  0  0  0  0  0  0  0  0  0  0  0
   27.9248  -17.2270  -17.5339 N   0  0  0  0  0  0  0  0  0  0  0  0
   27.4920  -18.3885  -15.5243 C   0  0  0  0  0  0  0  0  0  0  0  0
   27.8992  -19.2946  -14.5192 C   0  0  0  0  0  0  0  0  0  0  0  0
   26.8164  -19.9833  -13.7335 C   0  0  0  0  0  0  0  0  0  0  0  0
   25.5914  -20.1577  -14.5765 C   0  0  1  0  0  0  0  0  0  0  0  0
   24.4321  -20.8207  -13.8421 N   0  0  0  0  0  0  0  0  0  0  0  0
   23.2177  -20.9328  -14.5517 C   0  0  0  0  0  0  0  0  0  0  0  0
   24.4025  -20.3488  -12.4680 O   0  0  0  0  0  0  0  0  0  0  0  0
   24.0921  -19.1305  -12.2856 N   0  0  0  0  0  0  0  0  0  0  0  0
   27.1863  -16.5476  -17.2883 C   0  0  2  0  0  0  0  0  0  0  0  0
   24.6844  -21.1089  -11.3168 C   0  0  0  0  0  0  0  0  0  0  0  0
   24.6651  -20.6614   -9.9638 C   0  0  0  0  0  0  0  0  0  0  0  0
   24.2743  -21.7280   -8.9612 C   0  0  0  0  0  0  0  0  0  0  0  0
   24.1587  -21.1758   -7.5683 C   0  0  0  0  0  0  0  0  0  0  0  0
   23.7248  -22.2858   -6.6448 N   0  0  0  0  0  0  0  0  0  0  0  0
   23.5856  -21.8518   -5.2083 C   0  0  0  0  0  0  0  0  0  0  0  0
   23.2766  -23.0176   -4.3839 O   0  0  0  0  0  0  0  0  0  0  0  0
   25.9806  -20.1340   -9.5087 O   0  0  0  0  0  0  0  0  0  0  0  0
  2  3  2  0
  2  1  1  0
  4  2  1  0
  5  4  1  0
  6  7  1  0
  6  5  1  0
  8 10  1  0
  8  7  1  0
  8  9  1  6
 10 11  2  0
 13 15  1  0
 13 12  1  0
 14 13  2  0
 16 15  1  0
 17 16  1  0
 17 18  1  0
 19 18  1  6
 20 10  1  0
 20 19  1  0
 21 23  1  0
 21 19  1  0
 22 21  2  0
 24 25  1  1
 24 23  1  0
 25 26  1  0
 26 27  1  0
 27 28  1  0
 28 29  1  0
 30 24  1  0
 30 31  1  0
 32 30  2  0
M  END
$$$$
