RRK.pdb
     RDKit          3D

 32 31  0  0  1  0  0  0  0  0999 V2000
   13.6948  -24.3913  -10.6130 N   0  0  0  0  0  0  0  0  0  0  0  0
   13.7500  -23.4547   -9.5457 C   0  0  0  0  0  0  0  0  0  0  0  0
   12.6671  -23.0277   -8.9973 N   0  0  0  0  0  0  0  0  0  0  0  0
   14.9829  -22.9516   -9.0430 N   0  0  0  0  0  0  0  0  0  0  0  0
   16.2444  -23.2021   -9.6716 C   0  0  0  0  0  0  0  0  0  0  0  0
   16.9465  -24.4157   -9.1050 C   0  0  0  0  0  0  0  0  0  0  0  0
   17.6242  -24.0926   -7.7694 C   0  0  0  0  0  0  0  0  0  0  0  0
   18.3318  -25.3862   -7.3747 C   0  0  2  0  0  0  0  0  0  0  0  0
   18.3076  -26.2479   -8.5406 N   0  0  0  0  0  0  0  0  0  0  0  0
   17.6901  -26.0395   -6.2052 C   0  0  0  0  0  0  0  0  0  0  0  0
   16.6174  -26.6430   -6.4126 O   0  0  0  0  0  0  0  0  0  0  0  0
   12.6259  -22.3809   -8.2063 N   0  0  0  0  0  0  0  0  0  0  0  0
   20.7612  -27.2580    2.1976 C   0  0  0  0  0  0  0  0  0  0  0  0
   19.6047  -28.0678    2.0823 N   0  0  0  0  0  0  0  0  0  0  0  0
   19.3451  -28.9169    3.0466 N   0  0  0  0  0  0  0  0  0  0  0  0
   18.7513  -27.9657    0.9688 C   0  0  0  0  0  0  0  0  0  0  0  0
   19.1622  -27.3903   -0.2548 C   0  0  0  0  0  0  0  0  0  0  0  0
   18.1326  -27.2874   -1.3472 C   0  0  0  0  0  0  0  0  0  0  0  0
   18.7229  -26.6383   -2.5605 C   0  0  2  0  0  0  0  0  0  0  0  0
   17.7200  -26.4190   -3.6868 N   0  0  0  0  0  0  0  0  0  0  0  0
   18.2454  -25.9922   -4.9249 C   0  0  0  0  0  0  0  0  0  0  0  0
   16.5415  -25.7544   -3.1566 O   0  0  0  0  0  0  0  0  0  0  0  0
   16.4915  -24.4907   -3.2774 N   0  0  0  0  0  0  0  0  0  0  0  0
   18.5293  -29.5473    2.9799 C   0  0  2  0  0  0  0  0  0  0  0  0
   15.4478  -26.3729   -2.5211 C   0  0  0  0  0  0  0  0  0  0  0  0
   14.0638  -26.1425   -2.7716 C   0  0  0  0  0  0  0  0  0  0  0  0
   13.7885  -25.2193   -3.9410 C   0  0  0  0  0  0  0  0  0  0  0  0
   12.7890  -24.1524   -3.5927 C   0  0  0  0  0  0  0  0  0  0  0  0
   12.5075  -23.3348   -4.8278 N   0  0  0  0  0  0  0  0  0  0  0  0
   11.5775  -22.1748   -4.5809 C   0  0  0  0  0  0  0  0  0  0  0  0
   11.3802  -21.4450   -5.8309 O   0  0  0  0  0  0  0  0  0  0  0  0
   13.3090  -27.3945   -3.0518 O   0  0  0  0  0  0  0  0  0  0  0  0
  2  3  2  0
  2  1  1  0
  4  2  1  0
  5  4  1  0
  6  7  1  0
  6  5  1  0
  8 10  1  0
  8  7  1  0
  8  9  1  6
 10 11  2  0
 13 15  1  0
 13 12  1  0
 14 13  2  0
 16 15  1  0
 17 16  1  0
 17 18  1  0
 19 18  1  6
 20 10  1  0
 20 19  1  0
 21 23  1  0
 21 19  1  0
 22 21  2  0
 24 25  1  1
 24 23  1  0
 25 26  1  0
 26 27  1  0
 27 28  1  0
 28 29  1  0
 30 24  1  0
 30 31  1  0
 32 30  2  0
M  END
$$$$
