RRK.pdb
     RDKit          3D

 32 31  0  0  1  0  0  0  0  0999 V2000
   18.2402  -17.5245  -25.0821 N   0  0  0  0  0  0  0  0  0  0  0  0
   19.6229  -17.2230  -24.9521 C   0  0  0  0  0  0  0  0  0  0  0  0
   20.4042  -17.2970  -25.9717 N   0  0  0  0  0  0  0  0  0  0  0  0
   20.1994  -16.8343  -23.7102 N   0  0  0  0  0  0  0  0  0  0  0  0
   19.4377  -16.6823  -22.5077 C   0  0  0  0  0  0  0  0  0  0  0  0
   20.3011  -16.3632  -21.3079 C   0  0  0  0  0  0  0  0  0  0  0  0
   20.6420  -14.8706  -21.2496 C   0  0  0  0  0  0  0  0  0  0  0  0
   21.3527  -14.6907  -19.9109 C   0  0  2  0  0  0  0  0  0  0  0  0
   22.5364  -15.5272  -19.9508 N   0  0  0  0  0  0  0  0  0  0  0  0
   20.4789  -15.0434  -18.7626 C   0  0  0  0  0  0  0  0  0  0  0  0
   20.9425  -15.8431  -17.9240 O   0  0  0  0  0  0  0  0  0  0  0  0
   21.4098  -17.1121  -25.9546 N   0  0  0  0  0  0  0  0  0  0  0  0
   15.2305   -9.7093  -14.3604 C   0  0  0  0  0  0  0  0  0  0  0  0
   16.2292   -9.8812  -15.3502 N   0  0  0  0  0  0  0  0  0  0  0  0
   16.6458   -8.8215  -15.9996 N   0  0  0  0  0  0  0  0  0  0  0  0
   16.7670  -11.1504  -15.6304 C   0  0  0  0  0  0  0  0  0  0  0  0
   16.0242  -12.3427  -15.4762 C   0  0  0  0  0  0  0  0  0  0  0  0
   16.6952  -13.6285  -15.8770 C   0  0  0  0  0  0  0  0  0  0  0  0
   17.5528  -13.4143  -17.0855 C   0  0  2  0  0  0  0  0  0  0  0  0
   18.2615  -14.6755  -17.5648 N   0  0  0  0  0  0  0  0  0  0  0  0
   19.1952  -14.5155  -18.6105 C   0  0  0  0  0  0  0  0  0  0  0  0
   17.3031  -15.7653  -17.6386 O   0  0  0  0  0  0  0  0  0  0  0  0
   16.4742  -15.7371  -18.6009 N   0  0  0  0  0  0  0  0  0  0  0  0
   17.3760   -8.9089  -16.7252 C   0  0  2  0  0  0  0  0  0  0  0  0
   17.2016  -16.8511  -16.7479 C   0  0  0  0  0  0  0  0  0  0  0  0
   16.2878  -17.9423  -16.8217 C   0  0  0  0  0  0  0  0  0  0  0  0
   16.4990  -19.0034  -15.7609 C   0  0  0  0  0  0  0  0  0  0  0  0
   15.7866  -20.2835  -16.0958 C   0  0  0  0  0  0  0  0  0  0  0  0
   16.2119  -21.3430  -15.1109 N   0  0  0  0  0  0  0  0  0  0  0  0
   15.6799  -22.7148  -15.4376 C   0  0  0  0  0  0  0  0  0  0  0  0
   16.2691  -23.6875  -14.5206 O   0  0  0  0  0  0  0  0  0  0  0  0
   14.8664  -17.5176  -16.6986 O   0  0  0  0  0  0  0  0  0  0  0  0
  2  3  2  0
  2  1  1  0
  4  2  1  0
  5  4  1  0
  6  7  1  0
  6  5  1  0
  8 10  1  0
  8  7  1  0
  8  9  1  6
 10 11  2  0
 13 15  1  0
 13 12  1  0
 14 13  2  0
 16 15  1  0
 17 16  1  0
 17 18  1  0
 19 18  1  1
 20 10  1  0
 20 19  1  0
 21 23  1  0
 21 19  1  0
 22 21  2  0
 24 25  1  1
 24 23  1  0
 25 26  1  0
 26 27  1  0
 27 28  1  0
 28 29  1  0
 30 24  1  0
 30 31  1  0
 32 30  2  0
M  END
$$$$
