RRK.pdb
     RDKit          3D

 32 31  0  0  1  0  0  0  0  0999 V2000
   23.1090  -16.9953  -17.3504 N   0  0  0  0  0  0  0  0  0  0  0  0
   22.9581  -18.2378  -18.0233 C   0  0  0  0  0  0  0  0  0  0  0  0
   21.7888  -18.6634  -18.3505 N   0  0  0  0  0  0  0  0  0  0  0  0
   24.0725  -19.0571  -18.3591 N   0  0  0  0  0  0  0  0  0  0  0  0
   25.4235  -18.7108  -18.0364 C   0  0  0  0  0  0  0  0  0  0  0  0
   26.2126  -19.8831  -17.4982 C   0  0  0  0  0  0  0  0  0  0  0  0
   25.6601  -20.3520  -16.1483 C   0  0  0  0  0  0  0  0  0  0  0  0
   26.6610  -21.3987  -15.6661 C   0  0  2  0  0  0  0  0  0  0  0  0
   26.6074  -22.4953  -16.6133 N   0  0  0  0  0  0  0  0  0  0  0  0
   26.3650  -21.8607  -14.2857 C   0  0  0  0  0  0  0  0  0  0  0  0
   25.5185  -22.7697  -14.1630 O   0  0  0  0  0  0  0  0  0  0  0  0
   21.6001  -19.5397  -18.8426 N   0  0  0  0  0  0  0  0  0  0  0  0
   31.3533  -23.0921   -8.5101 C   0  0  0  0  0  0  0  0  0  0  0  0
   31.6507  -22.4383   -9.7311 N   0  0  0  0  0  0  0  0  0  0  0  0
   32.6586  -22.8829  -10.4417 N   0  0  0  0  0  0  0  0  0  0  0  0
   30.8870  -21.3445  -10.1773 C   0  0  0  0  0  0  0  0  0  0  0  0
   29.5958  -21.0630   -9.6767 C   0  0  0  0  0  0  0  0  0  0  0  0
   28.4261  -21.6441  -10.4239 C   0  0  0  0  0  0  0  0  0  0  0  0
   27.4791  -20.5595  -10.8345 C   0  0  2  0  0  0  0  0  0  0  0  0
   26.4726  -20.9938  -11.8933 N   0  0  0  0  0  0  0  0  0  0  0  0
   26.9938  -21.3160  -13.1643 C   0  0  0  0  0  0  0  0  0  0  0  0
   25.2944  -20.1472  -11.8106 O   0  0  0  0  0  0  0  0  0  0  0  0
   25.3356  -19.0427  -12.4368 N   0  0  0  0  0  0  0  0  0  0  0  0
   32.9169  -22.4177  -11.3272 C   0  0  1  0  0  0  0  0  0  0  0  0
   24.1098  -20.4300  -11.1040 C   0  0  0  0  0  0  0  0  0  0  0  0
   22.7816  -20.0641  -11.4691 C   0  0  0  0  0  0  0  0  0  0  0  0
   22.2718  -20.7436  -12.7237 C   0  0  0  0  0  0  0  0  0  0  0  0
   20.8910  -20.2799  -13.0935 C   0  0  0  0  0  0  0  0  0  0  0  0
   20.4429  -21.0322  -14.3209 N   0  0  0  0  0  0  0  0  0  0  0  0
   19.0631  -20.6483  -14.7902 C   0  0  0  0  0  0  0  0  0  0  0  0
   18.6716  -21.5237  -15.8922 O   0  0  0  0  0  0  0  0  0  0  0  0
   21.7841  -20.3656  -10.4061 O   0  0  0  0  0  0  0  0  0  0  0  0
  2  3  2  0
  2  1  1  0
  4  2  1  0
  5  4  1  0
  6  7  1  0
  6  5  1  0
  8 10  1  0
  8  7  1  0
  8  9  1  6
 10 11  2  0
 13 15  1  0
 13 12  1  0
 14 13  2  0
 16 15  1  0
 17 16  1  0
 17 18  1  0
 19 18  1  1
 20 10  1  0
 20 19  1  0
 21 23  1  0
 21 19  1  0
 22 21  2  0
 24 25  1  1
 24 23  1  0
 25 26  1  0
 26 27  1  0
 27 28  1  0
 28 29  1  0
 30 24  1  0
 30 31  1  0
 32 30  2  0
M  END
$$$$
