RRK.pdb
     RDKit          3D

 32 31  0  0  1  0  0  0  0  0999 V2000
   28.9595  -20.9194  -19.6291 N   0  0  0  0  0  0  0  0  0  0  0  0
   29.8668  -19.8497  -19.4012 C   0  0  0  0  0  0  0  0  0  0  0  0
   31.1317  -20.0733  -19.3267 N   0  0  0  0  0  0  0  0  0  0  0  0
   29.4277  -18.5049  -19.2448 N   0  0  0  0  0  0  0  0  0  0  0  0
   28.1169  -18.1584  -18.7856 C   0  0  0  0  0  0  0  0  0  0  0  0
   27.2467  -19.3705  -18.5396 C   0  0  0  0  0  0  0  0  0  0  0  0
   25.7849  -18.9693  -18.3173 C   0  0  0  0  0  0  0  0  0  0  0  0
   25.6593  -18.7970  -16.8059 C   0  0  2  0  0  0  0  0  0  0  0  0
   26.7333  -19.5657  -16.2073 N   0  0  0  0  0  0  0  0  0  0  0  0
   24.3329  -19.2363  -16.3018 C   0  0  0  0  0  0  0  0  0  0  0  0
   23.3279  -18.7029  -16.8150 O   0  0  0  0  0  0  0  0  0  0  0  0
   31.8449  -19.3590  -19.1630 N   0  0  0  0  0  0  0  0  0  0  0  0
   23.0727  -25.7786  -16.3063 C   0  0  0  0  0  0  0  0  0  0  0  0
   24.3431  -26.0829  -15.7586 N   0  0  0  0  0  0  0  0  0  0  0  0
   25.0903  -26.9626  -16.3799 N   0  0  0  0  0  0  0  0  0  0  0  0
   24.7989  -25.4584  -14.5834 C   0  0  0  0  0  0  0  0  0  0  0  0
   24.1093  -24.3853  -13.9752 C   0  0  0  0  0  0  0  0  0  0  0  0
   23.8752  -23.1558  -14.8103 C   0  0  0  0  0  0  0  0  0  0  0  0
   23.2158  -22.0884  -13.9932 C   0  0  2  0  0  0  0  0  0  0  0  0
   23.0346  -20.7713  -14.7381 N   0  0  0  0  0  0  0  0  0  0  0  0
   24.1956  -20.1999  -15.3006 C   0  0  0  0  0  0  0  0  0  0  0  0
   22.1228  -19.9203  -13.9923 O   0  0  0  0  0  0  0  0  0  0  0  0
   22.4659  -19.6082  -12.8097 N   0  0  0  0  0  0  0  0  0  0  0  0
   25.9822  -27.2758  -15.9629 C   0  0  2  0  0  0  0  0  0  0  0  0
   20.8946  -19.4066  -14.4510 C   0  0  0  0  0  0  0  0  0  0  0  0
   20.0393  -18.4886  -13.7750 C   0  0  0  0  0  0  0  0  0  0  0  0
   19.2930  -17.5421  -14.6930 C   0  0  0  0  0  0  0  0  0  0  0  0
   18.2472  -18.2531  -15.5049 C   0  0  0  0  0  0  0  0  0  0  0  0
   17.5926  -17.2555  -16.4266 N   0  0  0  0  0  0  0  0  0  0  0  0
   16.5447  -17.8638  -17.3229 C   0  0  0  0  0  0  0  0  0  0  0  0
   15.8827  -16.8007  -18.0751 O   0  0  0  0  0  0  0  0  0  0  0  0
   19.0000  -19.1638  -12.9506 O   0  0  0  0  0  0  0  0  0  0  0  0
  2  3  2  0
  2  1  1  0
  4  2  1  0
  5  4  1  0
  6  7  1  0
  6  5  1  0
  8 10  1  0
  8  7  1  0
  8  9  1  1
 10 11  2  0
 13 15  1  0
 13 12  1  0
 14 13  2  0
 16 15  1  0
 17 16  1  0
 17 18  1  0
 19 18  1  6
 20 10  1  0
 20 19  1  0
 21 23  1  0
 21 19  1  0
 22 21  2  0
 24 25  1  1
 24 23  1  0
 25 26  1  0
 26 27  1  0
 27 28  1  0
 28 29  1  0
 30 24  1  0
 30 31  1  0
 32 30  2  0
M  END
$$$$
