FNF.pdb
     RDKit          3D

 31 32  0  0  1  0  0  0  0  0999 V2000
   24.8946  -17.8241  -17.0341 N   0  0  0  0  0  0  0  0  0  0  0  0
   25.8006  -18.7032  -16.3038 C   0  0  1  0  0  0  0  0  0  0  0  0
   26.3556  -17.8563  -15.1442 C   0  0  0  0  0  0  0  0  0  0  0  0
   27.3175  -16.8452  -15.7168 C   0  0  0  0  0  0  0  0  0  0  0  0
   28.4347  -17.2830  -16.3736 C   0  0  0  0  0  0  0  0  0  0  0  0
   29.3169  -16.3976  -16.9063 C   0  0  0  0  0  0  0  0  0  0  0  0
   29.0804  -15.0345  -16.7812 C   0  0  0  0  0  0  0  0  0  0  0  0
   27.9568  -14.5931  -16.1203 C   0  0  0  0  0  0  0  0  0  0  0  0
   27.0865  -15.5048  -15.5946 C   0  0  0  0  0  0  0  0  0  0  0  0
   25.0161  -19.8384  -15.7696 C   0  0  0  0  0  0  0  0  0  0  0  0
   23.7781  -19.7151  -15.4764 O   0  0  0  0  0  0  0  0  0  0  0  0
   24.9747  -25.9896  -15.1152 N   0  0  0  0  0  0  0  0  0  0  0  0
   24.4221  -24.6742  -15.3474 C   0  0  0  0  0  0  0  0  0  0  0  0
   23.1692  -24.5212  -15.2732 O   0  0  0  0  0  0  0  0  0  0  0  0
   25.2877  -23.5328  -15.6641 C   0  0  0  0  0  0  0  0  0  0  0  0
   24.7631  -22.2636  -15.0776 C   0  0  2  0  0  0  0  0  0  0  0  0
   25.5684  -21.1267  -15.5481 N   0  0  0  0  0  0  0  0  0  0  0  0
   24.7736  -22.2514  -13.5747 C   0  0  0  0  0  0  0  0  0  0  0  0
   24.1815  -23.0976  -12.8692 O   0  0  0  0  0  0  0  0  0  0  0  0
   25.4833  -21.2461  -12.8281 N   0  0  0  0  0  0  0  0  0  0  0  0
   25.4906  -21.3403  -11.3865 C   0  0  1  0  0  0  0  0  0  0  0  0
   26.6095  -20.4037  -10.9314 C   0  0  0  0  0  0  0  0  0  0  0  0
   26.6739  -20.2468   -9.4735 C   0  0  0  0  0  0  0  0  0  0  0  0
   25.9071  -19.2452   -8.9020 C   0  0  0  0  0  0  0  0  0  0  0  0
   25.9624  -19.1013   -7.5323 C   0  0  0  0  0  0  0  0  0  0  0  0
   26.7464  -19.9142   -6.7378 C   0  0  0  0  0  0  0  0  0  0  0  0
   27.5173  -20.9198   -7.3055 C   0  0  0  0  0  0  0  0  0  0  0  0
   27.4567  -21.0574   -8.6754 C   0  0  0  0  0  0  0  0  0  0  0  0
   24.1856  -20.9171  -10.8581 C   0  0  0  0  0  0  0  0  0  0  0  0
   23.3389  -20.0797  -11.5729 O   0  0  0  0  0  0  0  0  0  0  0  0
   23.8085  -21.3103   -9.7363 O   0  0  0  0  0  0  0  0  0  0  0  0
  2  1  1  6
  3  4  1  0
  3  2  1  0
  4  5  2  0
  5  6  1  0
  7  6  2  0
  8  7  1  0
  9  8  2  0
  9  4  1  0
 10 11  2  0
 10  2  1  0
 13 12  1  0
 14 13  2  0
 15 13  1  0
 16 15  1  6
 16 17  1  0
 17 10  1  0
 18 19  2  0
 18 16  1  0
 20 18  1  0
 21 22  1  1
 21 20  1  0
 23 28  1  0
 23 22  1  0
 24 23  2  0
 25 26  2  0
 25 24  1  0
 26 27  1  0
 27 28  2  0
 29 21  1  0
 30 29  1  0
 31 29  2  0
M  END
$$$$
