FNF.pdb
     RDKit          3D

 31 32  0  0  1  0  0  0  0  0999 V2000
   25.0742  -18.1579  -15.0333 N   0  0  0  0  0  0  0  0  0  0  0  0
   26.1861  -18.7998  -14.3414 C   0  0  1  0  0  0  0  0  0  0  0  0
   27.1153  -17.6552  -13.8982 C   0  0  0  0  0  0  0  0  0  0  0  0
   27.8219  -17.1216  -15.1194 C   0  0  0  0  0  0  0  0  0  0  0  0
   27.6125  -15.8241  -15.4992 C   0  0  0  0  0  0  0  0  0  0  0  0
   28.2391  -15.3119  -16.5905 C   0  0  0  0  0  0  0  0  0  0  0  0
   29.1001  -16.1154  -17.3270 C   0  0  0  0  0  0  0  0  0  0  0  0
   29.3112  -17.4210  -16.9459 C   0  0  0  0  0  0  0  0  0  0  0  0
   28.6686  -17.9103  -15.8446 C   0  0  0  0  0  0  0  0  0  0  0  0
   25.6507  -19.5035  -13.1549 C   0  0  0  0  0  0  0  0  0  0  0  0
   24.7900  -18.9550  -12.3853 O   0  0  0  0  0  0  0  0  0  0  0  0
   23.5122  -21.9962  -13.5024 N   0  0  0  0  0  0  0  0  0  0  0  0
   24.2069  -23.1326  -12.9406 C   0  0  0  0  0  0  0  0  0  0  0  0
   23.8801  -24.2926  -13.3231 O   0  0  0  0  0  0  0  0  0  0  0  0
   25.2707  -22.9556  -11.9460 C   0  0  0  0  0  0  0  0  0  0  0  0
   25.4870  -21.5143  -11.6205 C   0  0  2  0  0  0  0  0  0  0  0  0
   26.0436  -20.8172  -12.7895 N   0  0  0  0  0  0  0  0  0  0  0  0
   26.4191  -21.2974  -10.4615 C   0  0  0  0  0  0  0  0  0  0  0  0
   27.5899  -21.7357  -10.4204 O   0  0  0  0  0  0  0  0  0  0  0  0
   26.0217  -20.5519   -9.2962 N   0  0  0  0  0  0  0  0  0  0  0  0
   26.7258  -20.7896   -8.0572 C   0  0  1  0  0  0  0  0  0  0  0  0
   27.5660  -19.5333   -7.8289 C   0  0  0  0  0  0  0  0  0  0  0  0
   28.1794  -19.4833   -6.4964 C   0  0  0  0  0  0  0  0  0  0  0  0
   27.9089  -18.3780   -5.7072 C   0  0  0  0  0  0  0  0  0  0  0  0
   28.4797  -18.3334   -4.4533 C   0  0  0  0  0  0  0  0  0  0  0  0
   29.2950  -19.3421   -3.9794 C   0  0  0  0  0  0  0  0  0  0  0  0
   29.5697  -20.4524   -4.7665 C   0  0  0  0  0  0  0  0  0  0  0  0
   28.9954  -20.4897   -6.0187 C   0  0  0  0  0  0  0  0  0  0  0  0
   25.7569  -20.9946   -6.9709 C   0  0  0  0  0  0  0  0  0  0  0  0
   26.1316  -21.5174   -5.7398 O   0  0  0  0  0  0  0  0  0  0  0  0
   24.5575  -20.6970   -7.1390 O   0  0  0  0  0  0  0  0  0  0  0  0
  2  1  1  1
  3  4  1  0
  3  2  1  0
  4  5  2  0
  5  6  1  0
  7  6  2  0
  8  7  1  0
  9  8  2  0
  9  4  1  0
 10 11  2  0
 10  2  1  0
 13 12  1  0
 14 13  2  0
 15 13  1  0
 16 15  1  6
 16 17  1  0
 17 10  1  0
 18 19  2  0
 18 16  1  0
 20 18  1  0
 21 22  1  1
 21 20  1  0
 23 28  1  0
 23 22  1  0
 24 23  2  0
 25 26  2  0
 25 24  1  0
 26 27  1  0
 27 28  2  0
 29 21  1  0
 30 29  1  0
 31 29  2  0
M  END
$$$$
