FNF.pdb
     RDKit          3D

 31 32  0  0  1  0  0  0  0  0999 V2000
   21.1772   -9.8147  -17.2018 N   0  0  0  0  0  0  0  0  0  0  0  0
   20.9330   -9.5955  -15.7808 C   0  0  1  0  0  0  0  0  0  0  0  0
   22.2123   -8.9336  -15.2373 C   0  0  0  0  0  0  0  0  0  0  0  0
   23.3370   -9.9345  -15.3296 C   0  0  0  0  0  0  0  0  0  0  0  0
   23.3927  -10.9622  -14.4284 C   0  0  0  0  0  0  0  0  0  0  0  0
   24.3892  -11.8837  -14.4890 C   0  0  0  0  0  0  0  0  0  0  0  0
   25.3606  -11.7792  -15.4764 C   0  0  0  0  0  0  0  0  0  0  0  0
   25.3056  -10.7455  -16.3834 C   0  0  0  0  0  0  0  0  0  0  0  0
   24.2928   -9.8332  -16.2997 C   0  0  0  0  0  0  0  0  0  0  0  0
   19.7877   -8.6686  -15.6439 C   0  0  0  0  0  0  0  0  0  0  0  0
   19.5665   -7.7491  -16.5039 O   0  0  0  0  0  0  0  0  0  0  0  0
   15.2871   -6.4626  -14.5478 N   0  0  0  0  0  0  0  0  0  0  0  0
   15.2228   -7.9029  -14.4435 C   0  0  0  0  0  0  0  0  0  0  0  0
   14.0888   -8.4537  -14.3461 O   0  0  0  0  0  0  0  0  0  0  0  0
   16.4419   -8.7191  -14.4490 C   0  0  0  0  0  0  0  0  0  0  0  0
   17.6716   -7.8731  -14.4978 C   0  0  2  0  0  0  0  0  0  0  0  0
   18.8641   -8.7306  -14.5683 N   0  0  0  0  0  0  0  0  0  0  0  0
   17.8198   -6.9661  -13.3085 C   0  0  0  0  0  0  0  0  0  0  0  0
   16.9684   -6.1123  -12.9759 O   0  0  0  0  0  0  0  0  0  0  0  0
   18.9741   -7.0209  -12.4506 N   0  0  0  0  0  0  0  0  0  0  0  0
   19.0968   -6.0341  -11.4025 C   0  0  1  0  0  0  0  0  0  0  0  0
   18.5969   -4.7296  -12.0226 C   0  0  0  0  0  0  0  0  0  0  0  0
   18.7650   -3.5691  -11.1399 C   0  0  0  0  0  0  0  0  0  0  0  0
   17.7299   -3.2700  -10.2699 C   0  0  0  0  0  0  0  0  0  0  0  0
   17.8898   -2.1839   -9.4363 C   0  0  0  0  0  0  0  0  0  0  0  0
   19.0315   -1.4073   -9.4500 C   0  0  0  0  0  0  0  0  0  0  0  0
   20.0722   -1.7025  -10.3205 C   0  0  0  0  0  0  0  0  0  0  0  0
   19.9049   -2.7897  -11.1505 C   0  0  0  0  0  0  0  0  0  0  0  0
   18.2747   -6.4330  -10.2510 C   0  0  0  0  0  0  0  0  0  0  0  0
   18.6651   -6.1745   -8.9433 O   0  0  0  0  0  0  0  0  0  0  0  0
   17.1906   -7.0226  -10.4315 O   0  0  0  0  0  0  0  0  0  0  0  0
  2  1  1  6
  3  4  1  0
  3  2  1  0
  4  5  2  0
  5  6  1  0
  7  6  2  0
  8  7  1  0
  9  8  2  0
  9  4  1  0
 10 11  2  0
 10  2  1  0
 13 12  1  0
 14 13  2  0
 15 13  1  0
 16 15  1  1
 16 17  1  0
 17 10  1  0
 18 19  2  0
 18 16  1  0
 20 18  1  0
 21 22  1  6
 21 20  1  0
 23 28  1  0
 23 22  1  0
 24 23  2  0
 25 26  2  0
 25 24  1  0
 26 27  1  0
 27 28  2  0
 29 21  1  0
 30 29  1  0
 31 29  2  0
M  END
$$$$
