FNF.pdb
     RDKit          3D

 31 32  0  0  1  0  0  0  0  0999 V2000
   16.9656   -9.9150  -14.2084 N   0  0  0  0  0  0  0  0  0  0  0  0
   17.3540   -8.5171  -14.3568 C   0  0  1  0  0  0  0  0  0  0  0  0
   16.5372   -7.9837  -15.5478 C   0  0  0  0  0  0  0  0  0  0  0  0
   17.1030   -8.5801  -16.8125 C   0  0  0  0  0  0  0  0  0  0  0  0
   16.5029   -9.6815  -17.3587 C   0  0  0  0  0  0  0  0  0  0  0  0
   16.9845  -10.2381  -18.5007 C   0  0  0  0  0  0  0  0  0  0  0  0
   18.0977   -9.6821  -19.1181 C   0  0  0  0  0  0  0  0  0  0  0  0
   18.7022   -8.5741  -18.5692 C   0  0  0  0  0  0  0  0  0  0  0  0
   18.1973   -8.0347  -17.4207 C   0  0  0  0  0  0  0  0  0  0  0  0
   16.9750   -7.7961  -13.1214 C   0  0  0  0  0  0  0  0  0  0  0  0
   15.9034   -8.0798  -12.4849 O   0  0  0  0  0  0  0  0  0  0  0  0
   18.7704   -4.2655   -8.6255 N   0  0  0  0  0  0  0  0  0  0  0  0
   18.0005   -5.3990   -9.0856 C   0  0  0  0  0  0  0  0  0  0  0  0
   16.9860   -5.7535   -8.4192 O   0  0  0  0  0  0  0  0  0  0  0  0
   18.3792   -6.1311  -10.2992 C   0  0  0  0  0  0  0  0  0  0  0  0
   17.3412   -6.0053  -11.3655 C   0  0  2  0  0  0  0  0  0  0  0  0
   17.7592   -6.7557  -12.5591 N   0  0  0  0  0  0  0  0  0  0  0  0
   17.0778   -4.5841  -11.7775 C   0  0  0  0  0  0  0  0  0  0  0  0
   17.5346   -4.0674  -12.8210 O   0  0  0  0  0  0  0  0  0  0  0  0
   16.2621   -3.7022  -10.9848 N   0  0  0  0  0  0  0  0  0  0  0  0
   16.0790   -2.3433  -11.4401 C   0  0  1  0  0  0  0  0  0  0  0  0
   15.3087   -2.4637  -12.7548 C   0  0  0  0  0  0  0  0  0  0  0  0
   14.9563   -1.1641  -13.3386 C   0  0  0  0  0  0  0  0  0  0  0  0
   13.6592   -0.7124  -13.1619 C   0  0  0  0  0  0  0  0  0  0  0  0
   13.3293    0.5110  -13.7047 C   0  0  0  0  0  0  0  0  0  0  0  0
   14.2418    1.2765  -14.4032 C   0  0  0  0  0  0  0  0  0  0  0  0
   15.5436    0.8284  -14.5835 C   0  0  0  0  0  0  0  0  0  0  0  0
   15.8657   -0.3955  -14.0380 C   0  0  0  0  0  0  0  0  0  0  0  0
   15.3173   -1.5855  -10.4369 C   0  0  0  0  0  0  0  0  0  0  0  0
   15.4256   -0.2058  -10.3187 O   0  0  0  0  0  0  0  0  0  0  0  0
   14.5452   -2.1800   -9.6585 O   0  0  0  0  0  0  0  0  0  0  0  0
  2  1  1  1
  3  4  1  0
  3  2  1  0
  4  5  2  0
  5  6  1  0
  7  6  2  0
  8  7  1  0
  9  8  2  0
  9  4  1  0
 10 11  2  0
 10  2  1  0
 13 12  1  0
 14 13  2  0
 15 13  1  0
 16 15  1  1
 16 17  1  0
 17 10  1  0
 18 19  2  0
 18 16  1  0
 20 18  1  0
 21 22  1  6
 21 20  1  0
 23 28  1  0
 23 22  1  0
 24 23  2  0
 25 26  2  0
 25 24  1  0
 26 27  1  0
 27 28  2  0
 29 21  1  0
 30 29  1  0
 31 29  2  0
M  END
$$$$
