FNF.pdb
     RDKit          3D

 31 32  0  0  1  0  0  0  0  0999 V2000
   26.5041  -19.8776  -15.2693 N   0  0  0  0  0  0  0  0  0  0  0  0
   27.1119  -19.1909  -14.1353 C   0  0  1  0  0  0  0  0  0  0  0  0
   27.1890  -17.7079  -14.5411 C   0  0  0  0  0  0  0  0  0  0  0  0
   28.1872  -17.5776  -15.6644 C   0  0  0  0  0  0  0  0  0  0  0  0
   27.7512  -17.2041  -16.9061 C   0  0  0  0  0  0  0  0  0  0  0  0
   28.6263  -17.0715  -17.9369 C   0  0  0  0  0  0  0  0  0  0  0  0
   29.9768  -17.3186  -17.7260 C   0  0  0  0  0  0  0  0  0  0  0  0
   30.4165  -17.6948  -16.4772 C   0  0  0  0  0  0  0  0  0  0  0  0
   29.5153  -17.8203  -15.4587 C   0  0  0  0  0  0  0  0  0  0  0  0
   26.2203  -19.3483  -12.9648 C   0  0  0  0  0  0  0  0  0  0  0  0
   25.0547  -18.8244  -12.9382 O   0  0  0  0  0  0  0  0  0  0  0  0
   22.6350  -19.3206  -10.7395 N   0  0  0  0  0  0  0  0  0  0  0  0
   23.2399  -20.6028  -10.4576 C   0  0  0  0  0  0  0  0  0  0  0  0
   22.7023  -21.3491   -9.5900 O   0  0  0  0  0  0  0  0  0  0  0  0
   24.4532  -21.0395  -11.1571 C   0  0  0  0  0  0  0  0  0  0  0  0
   25.6600  -20.2986  -10.6829 C   0  0  2  0  0  0  0  0  0  0  0  0
   26.5846  -20.0811  -11.8055 N   0  0  0  0  0  0  0  0  0  0  0  0
   26.4098  -21.0136   -9.5940 C   0  0  0  0  0  0  0  0  0  0  0  0
   27.3931  -21.7582   -9.8014 O   0  0  0  0  0  0  0  0  0  0  0  0
   26.0422  -20.8855   -8.2083 N   0  0  0  0  0  0  0  0  0  0  0  0
   26.8553  -21.5541   -7.2187 C   0  0  1  0  0  0  0  0  0  0  0  0
   28.2322  -20.8990   -7.3253 C   0  0  0  0  0  0  0  0  0  0  0  0
   28.6012  -20.1330   -6.1290 C   0  0  0  0  0  0  0  0  0  0  0  0
   29.2483  -20.8098   -5.1087 C   0  0  0  0  0  0  0  0  0  0  0  0
   29.6007  -20.0896   -3.9874 C   0  0  0  0  0  0  0  0  0  0  0  0
   29.3289  -18.7414   -3.8631 C   0  0  0  0  0  0  0  0  0  0  0  0
   28.6802  -18.0580   -4.8829 C   0  0  0  0  0  0  0  0  0  0  0  0
   28.3312  -18.7849   -6.0005 C   0  0  0  0  0  0  0  0  0  0  0  0
   26.2680  -21.3599   -5.8851 C   0  0  0  0  0  0  0  0  0  0  0  0
   25.1609  -20.5467   -5.6801 O   0  0  0  0  0  0  0  0  0  0  0  0
   26.7637  -21.9331   -4.8946 O   0  0  0  0  0  0  0  0  0  0  0  0
  2  1  1  6
  3  4  1  0
  3  2  1  0
  4  5  2  0
  5  6  1  0
  7  6  2  0
  8  7  1  0
  9  8  2  0
  9  4  1  0
 10 11  2  0
 10  2  1  0
 13 12  1  0
 14 13  2  0
 15 13  1  0
 16 15  1  6
 16 17  1  0
 17 10  1  0
 18 19  2  0
 18 16  1  0
 20 18  1  0
 21 22  1  1
 21 20  1  0
 23 28  1  0
 23 22  1  0
 24 23  2  0
 25 26  2  0
 25 24  1  0
 26 27  1  0
 27 28  2  0
 29 21  1  0
 30 29  1  0
 31 29  2  0
M  END
$$$$
