FNF.pdb
     RDKit          3D

 31 32  0  0  1  0  0  0  0  0999 V2000
   26.9156  -19.9759  -18.5705 N   0  0  0  0  0  0  0  0  0  0  0  0
   26.7064  -20.3441  -17.1750 C   0  0  1  0  0  0  0  0  0  0  0  0
   26.6766  -19.0168  -16.3956 C   0  0  0  0  0  0  0  0  0  0  0  0
   27.9275  -18.2441  -16.7323 C   0  0  0  0  0  0  0  0  0  0  0  0
   29.1485  -18.7930  -16.4504 C   0  0  0  0  0  0  0  0  0  0  0  0
   30.2937  -18.1250  -16.7475 C   0  0  0  0  0  0  0  0  0  0  0  0
   30.2220  -16.8722  -17.3430 C   0  0  0  0  0  0  0  0  0  0  0  0
   28.9941  -16.3190  -17.6268 C   0  0  0  0  0  0  0  0  0  0  0  0
   27.8588  -17.0122  -17.3178 C   0  0  0  0  0  0  0  0  0  0  0  0
   25.3964  -21.0235  -17.0653 C   0  0  0  0  0  0  0  0  0  0  0  0
   24.7734  -21.4433  -18.0995 O   0  0  0  0  0  0  0  0  0  0  0  0
   24.2061  -26.0854  -15.1241 N   0  0  0  0  0  0  0  0  0  0  0  0
   23.7509  -24.8559  -15.7329 C   0  0  0  0  0  0  0  0  0  0  0  0
   22.5770  -24.8093  -16.2006 O   0  0  0  0  0  0  0  0  0  0  0  0
   24.6244  -23.6800  -15.8125 C   0  0  0  0  0  0  0  0  0  0  0  0
   23.8636  -22.4125  -15.6006 C   0  0  2  0  0  0  0  0  0  0  0  0
   24.7457  -21.2578  -15.8262 N   0  0  0  0  0  0  0  0  0  0  0  0
   23.2799  -22.2902  -14.2210 C   0  0  0  0  0  0  0  0  0  0  0  0
   23.8675  -22.6657  -13.1826 O   0  0  0  0  0  0  0  0  0  0  0  0
   21.9790  -21.7176  -13.9945 N   0  0  0  0  0  0  0  0  0  0  0  0
   21.7468  -21.0118  -12.7554 C   0  0  1  0  0  0  0  0  0  0  0  0
   22.7823  -19.8877  -12.7369 C   0  0  0  0  0  0  0  0  0  0  0  0
   23.9795  -20.2184  -11.9548 C   0  0  0  0  0  0  0  0  0  0  0  0
   23.8098  -20.4943  -10.6084 C   0  0  0  0  0  0  0  0  0  0  0  0
   24.9329  -20.8109   -9.8748 C   0  0  0  0  0  0  0  0  0  0  0  0
   26.1921  -20.8578  -10.4396 C   0  0  0  0  0  0  0  0  0  0  0  0
   26.3680  -20.5818  -11.7890 C   0  0  0  0  0  0  0  0  0  0  0  0
   25.2405  -20.2662  -12.5157 C   0  0  0  0  0  0  0  0  0  0  0  0
   20.3758  -20.4817  -12.7394 C   0  0  0  0  0  0  0  0  0  0  0  0
   19.5372  -20.5768  -13.8425 O   0  0  0  0  0  0  0  0  0  0  0  0
   19.9328  -19.9258  -11.7146 O   0  0  0  0  0  0  0  0  0  0  0  0
  2  1  1  6
  3  4  1  0
  3  2  1  0
  4  5  2  0
  5  6  1  0
  7  6  2  0
  8  7  1  0
  9  8  2  0
  9  4  1  0
 10 11  2  0
 10  2  1  0
 13 12  1  0
 14 13  2  0
 15 13  1  0
 16 15  1  1
 16 17  1  0
 17 10  1  0
 18 19  2  0
 18 16  1  0
 20 18  1  0
 21 22  1  6
 21 20  1  0
 23 28  1  0
 23 22  1  0
 24 23  2  0
 25 26  2  0
 25 24  1  0
 26 27  1  0
 27 28  2  0
 29 21  1  0
 30 29  1  0
 31 29  2  0
M  END
$$$$
