FNF.pdb
     RDKit          3D

 31 32  0  0  1  0  0  0  0  0999 V2000
   37.5139  -23.8151    5.4844 N   0  0  0  0  0  0  0  0  0  0  0  0
   36.5087  -22.9112    6.0317 C   0  0  1  0  0  0  0  0  0  0  0  0
   35.2940  -23.0240    5.0927 C   0  0  0  0  0  0  0  0  0  0  0  0
   34.2568  -22.0249    5.5413 C   0  0  0  0  0  0  0  0  0  0  0  0
   34.3984  -20.7106    5.1890 C   0  0  0  0  0  0  0  0  0  0  0  0
   33.4778  -19.7876    5.5719 C   0  0  0  0  0  0  0  0  0  0  0  0
   32.3828  -20.1843    6.3290 C   0  0  0  0  0  0  0  0  0  0  0  0
   32.2396  -21.5063    6.6841 C   0  0  0  0  0  0  0  0  0  0  0  0
   33.1797  -22.4133    6.2857 C   0  0  0  0  0  0  0  0  0  0  0  0
   36.1458  -23.3852    7.3857 C   0  0  0  0  0  0  0  0  0  0  0  0
   36.0746  -24.6317    7.6599 O   0  0  0  0  0  0  0  0  0  0  0  0
   35.9210  -21.9515   13.2512 N   0  0  0  0  0  0  0  0  0  0  0  0
   36.3112  -22.8128   12.1578 C   0  0  0  0  0  0  0  0  0  0  0  0
   36.5133  -24.0385   12.3939 O   0  0  0  0  0  0  0  0  0  0  0  0
   36.4730  -22.2865   10.7980 C   0  0  0  0  0  0  0  0  0  0  0  0
   35.5841  -22.9893    9.8254 C   0  0  2  0  0  0  0  0  0  0  0  0
   35.8567  -22.5079    8.4629 N   0  0  0  0  0  0  0  0  0  0  0  0
   34.1204  -22.7928   10.1046 C   0  0  0  0  0  0  0  0  0  0  0  0
   33.6001  -21.6781   10.3311 O   0  0  0  0  0  0  0  0  0  0  0  0
   33.1967  -23.8963   10.1279 N   0  0  0  0  0  0  0  0  0  0  0  0
   31.8374  -23.6439   10.5474 C   0  0  1  0  0  0  0  0  0  0  0  0
   31.0517  -23.4407    9.2521 C   0  0  0  0  0  0  0  0  0  0  0  0
   30.5431  -22.0730    9.0939 C   0  0  0  0  0  0  0  0  0  0  0  0
   31.4054  -21.1250    8.5691 C   0  0  0  0  0  0  0  0  0  0  0  0
   30.9264  -19.8418    8.4145 C   0  0  0  0  0  0  0  0  0  0  0  0
   29.6374  -19.4903    8.7631 C   0  0  0  0  0  0  0  0  0  0  0  0
   28.7687  -20.4367    9.2900 C   0  0  0  0  0  0  0  0  0  0  0  0
   29.2549  -21.7172    9.4414 C   0  0  0  0  0  0  0  0  0  0  0  0
   31.3338  -24.7968   11.3078 C   0  0  0  0  0  0  0  0  0  0  0  0
   30.1375  -24.7481   12.0117 O   0  0  0  0  0  0  0  0  0  0  0  0
   31.9850  -25.8600   11.3348 O   0  0  0  0  0  0  0  0  0  0  0  0
  2  1  1  6
  3  4  1  0
  3  2  1  0
  4  5  2  0
  5  6  1  0
  7  6  2  0
  8  7  1  0
  9  8  2  0
  9  4  1  0
 10 11  2  0
 10  2  1  0
 13 12  1  0
 14 13  2  0
 15 13  1  0
 16 15  1  1
 16 17  1  0
 17 10  1  0
 18 19  2  0
 18 16  1  0
 20 18  1  0
 21 22  1  6
 21 20  1  0
 23 28  1  0
 23 22  1  0
 24 23  2  0
 25 26  2  0
 25 24  1  0
 26 27  1  0
 27 28  2  0
 29 21  1  0
 30 29  1  0
 31 29  2  0
M  END
$$$$
