FNF.pdb
     RDKit          3D

 31 32  0  0  1  0  0  0  0  0999 V2000
   28.4588  -25.7916  -18.2341 N   0  0  0  0  0  0  0  0  0  0  0  0
   27.5470  -26.5895  -17.4223 C   0  0  1  0  0  0  0  0  0  0  0  0
   28.4394  -27.3619  -16.4338 C   0  0  0  0  0  0  0  0  0  0  0  0
   29.1500  -28.4539  -17.1940 C   0  0  0  0  0  0  0  0  0  0  0  0
   28.4835  -29.6148  -17.4756 C   0  0  0  0  0  0  0  0  0  0  0  0
   29.0936  -30.6145  -18.1643 C   0  0  0  0  0  0  0  0  0  0  0  0
   30.4076  -30.4544  -18.5854 C   0  0  0  0  0  0  0  0  0  0  0  0
   31.0791  -29.2868  -18.3024 C   0  0  0  0  0  0  0  0  0  0  0  0
   30.4418  -28.2980  -17.6087 C   0  0  0  0  0  0  0  0  0  0  0  0
   26.6553  -25.6681  -16.6837 C   0  0  0  0  0  0  0  0  0  0  0  0
   27.1200  -24.6853  -16.0113 O   0  0  0  0  0  0  0  0  0  0  0  0
   22.7968  -22.9953  -14.6485 N   0  0  0  0  0  0  0  0  0  0  0  0
   22.8495  -22.9913  -16.0930 C   0  0  0  0  0  0  0  0  0  0  0  0
   22.1585  -22.1398  -16.7226 O   0  0  0  0  0  0  0  0  0  0  0  0
   23.6837  -23.9513  -16.8244 C   0  0  0  0  0  0  0  0  0  0  0  0
   24.3700  -24.9021  -15.8997 C   0  0  2  0  0  0  0  0  0  0  0  0
   25.2427  -25.8024  -16.6679 N   0  0  0  0  0  0  0  0  0  0  0  0
   23.4193  -25.7466  -15.0985 C   0  0  0  0  0  0  0  0  0  0  0  0
   22.4524  -25.2832  -14.4544 O   0  0  0  0  0  0  0  0  0  0  0  0
   23.5569  -27.1771  -15.0181 N   0  0  0  0  0  0  0  0  0  0  0  0
   22.3585  -27.9836  -15.0439 C   0  0  1  0  0  0  0  0  0  0  0  0
   21.5983  -27.5284  -16.2893 C   0  0  0  0  0  0  0  0  0  0  0  0
   20.3499  -28.2690  -16.5066 C   0  0  0  0  0  0  0  0  0  0  0  0
   19.1817  -27.7163  -16.0092 C   0  0  0  0  0  0  0  0  0  0  0  0
   18.0080  -28.4083  -16.2183 C   0  0  0  0  0  0  0  0  0  0  0  0
   17.9734  -29.6108  -16.8961 C   0  0  0  0  0  0  0  0  0  0  0  0
   19.1417  -30.1697  -17.3967 C   0  0  0  0  0  0  0  0  0  0  0  0
   20.3108  -29.4719  -17.1837 C   0  0  0  0  0  0  0  0  0  0  0  0
   22.7227  -29.4055  -15.1247 C   0  0  0  0  0  0  0  0  0  0  0  0
   24.0427  -29.8213  -15.2427 O   0  0  0  0  0  0  0  0  0  0  0  0
   21.8352  -30.2809  -15.0883 O   0  0  0  0  0  0  0  0  0  0  0  0
  2  1  1  6
  3  4  1  0
  3  2  1  0
  4  5  2  0
  5  6  1  0
  7  6  2  0
  8  7  1  0
  9  8  2  0
  9  4  1  0
 10 11  2  0
 10  2  1  0
 13 12  1  0
 14 13  2  0
 15 13  1  0
 16 15  1  6
 16 17  1  0
 17 10  1  0
 18 19  2  0
 18 16  1  0
 20 18  1  0
 21 22  1  6
 21 20  1  0
 23 28  1  0
 23 22  1  0
 24 23  2  0
 25 26  2  0
 25 24  1  0
 26 27  1  0
 27 28  2  0
 29 21  1  0
 30 29  1  0
 31 29  2  0
M  END
$$$$
