FNF.pdb
     RDKit          3D

 31 32  0  0  1  0  0  0  0  0999 V2000
   20.9730  -14.5632  -19.3894 N   0  0  0  0  0  0  0  0  0  0  0  0
   21.1396  -14.8419  -17.9676 C   0  0  1  0  0  0  0  0  0  0  0  0
   19.7211  -14.8135  -17.3702 C   0  0  0  0  0  0  0  0  0  0  0  0
   19.2045  -13.3985  -17.4488 C   0  0  0  0  0  0  0  0  0  0  0  0
   18.1354  -13.1210  -18.2559 C   0  0  0  0  0  0  0  0  0  0  0  0
   17.6425  -11.8580  -18.3433 C   0  0  0  0  0  0  0  0  0  0  0  0
   18.2317  -10.8394  -17.6052 C   0  0  0  0  0  0  0  0  0  0  0  0
   19.3075  -11.1174  -16.7930 C   0  0  0  0  0  0  0  0  0  0  0  0
   19.7827  -12.3959  -16.7238 C   0  0  0  0  0  0  0  0  0  0  0  0
   21.7207  -16.1953  -17.8247 C   0  0  0  0  0  0  0  0  0  0  0  0
   21.3113  -17.1760  -18.5349 O   0  0  0  0  0  0  0  0  0  0  0  0
   26.4470  -18.5454  -18.1148 N   0  0  0  0  0  0  0  0  0  0  0  0
   25.5644  -17.5350  -17.5767 C   0  0  0  0  0  0  0  0  0  0  0  0
   25.5133  -16.4081  -18.1480 O   0  0  0  0  0  0  0  0  0  0  0  0
   24.7406  -17.8001  -16.3921 C   0  0  0  0  0  0  0  0  0  0  0  0
   23.2880  -17.8615  -16.7332 C   0  0  2  0  0  0  0  0  0  0  0  0
   22.7586  -16.5006  -16.9064 N   0  0  0  0  0  0  0  0  0  0  0  0
   22.4584  -18.5545  -15.6889 C   0  0  0  0  0  0  0  0  0  0  0  0
   22.3349  -18.1428  -14.5142 O   0  0  0  0  0  0  0  0  0  0  0  0
   21.7309  -19.7629  -15.9754 N   0  0  0  0  0  0  0  0  0  0  0  0
   20.8626  -20.2992  -14.9528 C   0  0  1  0  0  0  0  0  0  0  0  0
   19.8501  -19.1902  -14.6678 C   0  0  0  0  0  0  0  0  0  0  0  0
   19.6768  -18.9208  -13.2354 C   0  0  0  0  0  0  0  0  0  0  0  0
   18.8472  -19.7676  -12.5196 C   0  0  0  0  0  0  0  0  0  0  0  0
   18.6889  -19.5188  -11.1730 C   0  0  0  0  0  0  0  0  0  0  0  0
   19.3240  -18.4695  -10.5387 C   0  0  0  0  0  0  0  0  0  0  0  0
   20.1567  -17.6173  -11.2517 C   0  0  0  0  0  0  0  0  0  0  0  0
   20.3099  -17.8726  -12.5973 C   0  0  0  0  0  0  0  0  0  0  0  0
   20.2039  -21.5146  -15.4528 C   0  0  0  0  0  0  0  0  0  0  0  0
   19.6658  -22.4656  -14.5954 O   0  0  0  0  0  0  0  0  0  0  0  0
   20.1152  -21.7173  -16.6802 O   0  0  0  0  0  0  0  0  0  0  0  0
  2  1  1  6
  3  4  1  0
  3  2  1  0
  4  5  2  0
  5  6  1  0
  7  6  2  0
  8  7  1  0
  9  8  2  0
  9  4  1  0
 10 11  2  0
 10  2  1  0
 13 12  1  0
 14 13  2  0
 15 13  1  0
 16 15  1  1
 16 17  1  0
 17 10  1  0
 18 19  2  0
 18 16  1  0
 20 18  1  0
 21 22  1  6
 21 20  1  0
 23 28  1  0
 23 22  1  0
 24 23  2  0
 25 26  2  0
 25 24  1  0
 26 27  1  0
 27 28  2  0
 29 21  1  0
 30 29  1  0
 31 29  2  0
M  END
$$$$
