FNF.pdb
     RDKit          3D

 31 32  0  0  1  0  0  0  0  0999 V2000
   33.0306  -27.1772  -19.2048 N   0  0  0  0  0  0  0  0  0  0  0  0
   31.6956  -27.6911  -18.9210 C   0  0  1  0  0  0  0  0  0  0  0  0
   31.5782  -27.7162  -17.3862 C   0  0  0  0  0  0  0  0  0  0  0  0
   30.2366  -28.3038  -17.0254 C   0  0  0  0  0  0  0  0  0  0  0  0
   30.0403  -29.6513  -17.1556 C   0  0  0  0  0  0  0  0  0  0  0  0
   28.8456  -30.2119  -16.8325 C   0  0  0  0  0  0  0  0  0  0  0  0
   27.8142  -29.4069  -16.3661 C   0  0  0  0  0  0  0  0  0  0  0  0
   28.0106  -28.0509  -16.2350 C   0  0  0  0  0  0  0  0  0  0  0  0
   29.2215  -27.5137  -16.5667 C   0  0  0  0  0  0  0  0  0  0  0  0
   30.7051  -26.7490  -19.4878 C   0  0  0  0  0  0  0  0  0  0  0  0
   30.8063  -25.4872  -19.3101 O   0  0  0  0  0  0  0  0  0  0  0  0
   27.4097  -24.2632  -22.4069 N   0  0  0  0  0  0  0  0  0  0  0  0
   27.7959  -25.4908  -23.0650 C   0  0  0  0  0  0  0  0  0  0  0  0
   27.5037  -25.6422  -24.2859 O   0  0  0  0  0  0  0  0  0  0  0  0
   28.5121  -26.5469  -22.3410 C   0  0  0  0  0  0  0  0  0  0  0  0
   28.6635  -26.2171  -20.8924 C   0  0  2  0  0  0  0  0  0  0  0  0
   29.5898  -27.1674  -20.2589 N   0  0  0  0  0  0  0  0  0  0  0  0
   27.3670  -26.2540  -20.1331 C   0  0  0  0  0  0  0  0  0  0  0  0
   26.3503  -25.6042  -20.4628 O   0  0  0  0  0  0  0  0  0  0  0  0
   27.2013  -27.0588  -18.9514 N   0  0  0  0  0  0  0  0  0  0  0  0
   25.9006  -27.0955  -18.3236 C   0  0  1  0  0  0  0  0  0  0  0  0
   25.5287  -28.5768  -18.2632 C   0  0  0  0  0  0  0  0  0  0  0  0
   25.1518  -29.1312  -19.5689 C   0  0  0  0  0  0  0  0  0  0  0  0
   26.0831  -29.9198  -20.2235 C   0  0  0  0  0  0  0  0  0  0  0  0
   25.7275  -30.4458  -21.4470 C   0  0  0  0  0  0  0  0  0  0  0  0
   24.4934  -30.2090  -22.0194 C   0  0  0  0  0  0  0  0  0  0  0  0
   23.5560  -29.4189  -21.3676 C   0  0  0  0  0  0  0  0  0  0  0  0
   23.9189  -28.8967  -20.1449 C   0  0  0  0  0  0  0  0  0  0  0  0
   25.9849  -26.5059  -16.9797 C   0  0  0  0  0  0  0  0  0  0  0  0
   24.9083  -26.5178  -16.1022 O   0  0  0  0  0  0  0  0  0  0  0  0
   27.0457  -25.9738  -16.5962 O   0  0  0  0  0  0  0  0  0  0  0  0
  2  1  1  1
  3  4  1  0
  3  2  1  0
  4  5  2  0
  5  6  1  0
  7  6  2  0
  8  7  1  0
  9  8  2  0
  9  4  1  0
 10 11  2  0
 10  2  1  0
 13 12  1  0
 14 13  2  0
 15 13  1  0
 16 15  1  6
 16 17  1  0
 17 10  1  0
 18 19  2  0
 18 16  1  0
 20 18  1  0
 21 22  1  1
 21 20  1  0
 23 28  1  0
 23 22  1  0
 24 23  2  0
 25 26  2  0
 25 24  1  0
 26 27  1  0
 27 28  2  0
 29 21  1  0
 30 29  1  0
 31 29  2  0
M  END
$$$$
