FNF.pdb
     RDKit          3D

 31 32  0  0  1  0  0  0  0  0999 V2000
   16.3430  -13.6850    7.4329 N   0  0  0  0  0  0  0  0  0  0  0  0
   16.8046  -14.7786    6.5855 C   0  0  1  0  0  0  0  0  0  0  0  0
   18.3344  -14.8164    6.7534 C   0  0  0  0  0  0  0  0  0  0  0  0
   18.9099  -13.5776    6.1133 C   0  0  0  0  0  0  0  0  0  0  0  0
   18.3575  -13.1062    4.9540 C   0  0  0  0  0  0  0  0  0  0  0  0
   18.8487  -11.9892    4.3566 C   0  0  0  0  0  0  0  0  0  0  0  0
   19.9230  -11.3209    4.9300 C   0  0  0  0  0  0  0  0  0  0  0  0
   20.4796  -11.7945    6.0962 C   0  0  0  0  0  0  0  0  0  0  0  0
   19.9660  -12.9194    6.6758 C   0  0  0  0  0  0  0  0  0  0  0  0
   16.2104  -16.0375    7.0872 C   0  0  0  0  0  0  0  0  0  0  0  0
   15.0443  -16.0634    7.6101 O   0  0  0  0  0  0  0  0  0  0  0  0
   14.7529  -20.6908    5.6578 N   0  0  0  0  0  0  0  0  0  0  0  0
   14.8061  -19.4992    4.8413 C   0  0  0  0  0  0  0  0  0  0  0  0
   14.1504  -19.4752    3.7603 O   0  0  0  0  0  0  0  0  0  0  0  0
   15.6016  -18.3356    5.2480 C   0  0  0  0  0  0  0  0  0  0  0  0
   16.2035  -18.5251    6.6015 C   0  0  2  0  0  0  0  0  0  0  0  0
   16.8772  -17.2886    7.0251 N   0  0  0  0  0  0  0  0  0  0  0  0
   17.2054  -19.6441    6.6579 C   0  0  0  0  0  0  0  0  0  0  0  0
   16.9214  -20.8423    6.4388 O   0  0  0  0  0  0  0  0  0  0  0  0
   18.5903  -19.4086    6.9713 N   0  0  0  0  0  0  0  0  0  0  0  0
   19.5658  -20.3841    6.5421 C   0  0  1  0  0  0  0  0  0  0  0  0
   20.4606  -19.6429    5.5490 C   0  0  0  0  0  0  0  0  0  0  0  0
   19.7460  -19.2031    4.3448 C   0  0  0  0  0  0  0  0  0  0  0  0
   19.2808  -20.1815    3.4821 C   0  0  0  0  0  0  0  0  0  0  0  0
   18.6042  -19.7693    2.3541 C   0  0  0  0  0  0  0  0  0  0  0  0
   18.3859  -18.4351    2.0731 C   0  0  0  0  0  0  0  0  0  0  0  0
   18.8503  -17.4501    2.9344 C   0  0  0  0  0  0  0  0  0  0  0  0
   19.5256  -17.8700    4.0599 C   0  0  0  0  0  0  0  0  0  0  0  0
   20.3300  -20.8613    7.7037 C   0  0  0  0  0  0  0  0  0  0  0  0
   21.3562  -21.7889    7.5786 O   0  0  0  0  0  0  0  0  0  0  0  0
   20.0649  -20.4333    8.8446 O   0  0  0  0  0  0  0  0  0  0  0  0
  2  1  1  1
  3  4  1  0
  3  2  1  0
  4  5  2  0
  5  6  1  0
  7  6  2  0
  8  7  1  0
  9  8  2  0
  9  4  1  0
 10 11  2  0
 10  2  1  0
 13 12  1  0
 14 13  2  0
 15 13  1  0
 16 15  1  6
 16 17  1  0
 17 10  1  0
 18 19  2  0
 18 16  1  0
 20 18  1  0
 21 22  1  6
 21 20  1  0
 23 28  1  0
 23 22  1  0
 24 23  2  0
 25 26  2  0
 25 24  1  0
 26 27  1  0
 27 28  2  0
 29 21  1  0
 30 29  1  0
 31 29  2  0
M  END
$$$$
