FNF.pdb
     RDKit          3D

 31 32  0  0  1  0  0  0  0  0999 V2000
   23.7679  -20.6273  -15.3524 N   0  0  0  0  0  0  0  0  0  0  0  0
   24.5337  -19.6858  -14.5437 C   0  0  1  0  0  0  0  0  0  0  0  0
   23.4935  -18.9024  -13.7224 C   0  0  0  0  0  0  0  0  0  0  0  0
   22.7950  -17.9353  -14.6455 C   0  0  0  0  0  0  0  0  0  0  0  0
   21.4809  -18.1448  -14.9627 C   0  0  0  0  0  0  0  0  0  0  0  0
   20.8218  -17.2882  -15.7861 C   0  0  0  0  0  0  0  0  0  0  0  0
   21.4910  -16.1897  -16.3104 C   0  0  0  0  0  0  0  0  0  0  0  0
   22.8132  -15.9783  -15.9921 C   0  0  0  0  0  0  0  0  0  0  0  0
   23.4515  -16.8549  -15.1619 C   0  0  0  0  0  0  0  0  0  0  0  0
   25.4131  -20.4589  -13.6389 C   0  0  0  0  0  0  0  0  0  0  0  0
   25.0460  -21.5811  -13.1491 O   0  0  0  0  0  0  0  0  0  0  0  0
   30.2514  -22.3817  -11.6252 N   0  0  0  0  0  0  0  0  0  0  0  0
   29.8343  -21.0070  -11.4643 C   0  0  0  0  0  0  0  0  0  0  0  0
   30.2266  -20.3699  -10.4449 O   0  0  0  0  0  0  0  0  0  0  0  0
   28.9731  -20.3543  -12.4565 C   0  0  0  0  0  0  0  0  0  0  0  0
   27.5461  -20.7679  -12.3052 C   0  0  2  0  0  0  0  0  0  0  0  0
   26.7074  -20.0218  -13.2552 N   0  0  0  0  0  0  0  0  0  0  0  0
   27.0015  -20.5384  -10.9233 C   0  0  0  0  0  0  0  0  0  0  0  0
   26.5460  -19.4421  -10.5295 O   0  0  0  0  0  0  0  0  0  0  0  0
   26.9626  -21.5872   -9.9383 N   0  0  0  0  0  0  0  0  0  0  0  0
   26.6148  -21.2393   -8.5798 C   0  0  1  0  0  0  0  0  0  0  0  0
   27.5044  -20.0455   -8.2338 C   0  0  0  0  0  0  0  0  0  0  0  0
   27.8086  -19.9482   -6.8013 C   0  0  0  0  0  0  0  0  0  0  0  0
   27.5609  -18.7387   -6.1740 C   0  0  0  0  0  0  0  0  0  0  0  0
   27.8406  -18.6485   -4.8272 C   0  0  0  0  0  0  0  0  0  0  0  0
   28.3497  -19.7119   -4.1084 C   0  0  0  0  0  0  0  0  0  0  0  0
   28.6001  -20.9268   -4.7323 C   0  0  0  0  0  0  0  0  0  0  0  0
   28.3179  -21.0090   -6.0787 C   0  0  0  0  0  0  0  0  0  0  0  0
   25.1893  -20.8869   -8.5106 C   0  0  0  0  0  0  0  0  0  0  0  0
   24.4021  -21.2175   -7.4151 O   0  0  0  0  0  0  0  0  0  0  0  0
   24.6510  -20.2729   -9.4532 O   0  0  0  0  0  0  0  0  0  0  0  0
  2  1  1  6
  3  4  1  0
  3  2  1  0
  4  5  2  0
  5  6  1  0
  7  6  2  0
  8  7  1  0
  9  8  2  0
  9  4  1  0
 10 11  2  0
 10  2  1  0
 13 12  1  0
 14 13  2  0
 15 13  1  0
 16 15  1  1
 16 17  1  0
 17 10  1  0
 18 19  2  0
 18 16  1  0
 20 18  1  0
 21 22  1  6
 21 20  1  0
 23 28  1  0
 23 22  1  0
 24 23  2  0
 25 26  2  0
 25 24  1  0
 26 27  1  0
 27 28  2  0
 29 21  1  0
 30 29  1  0
 31 29  2  0
M  END
$$$$
