FNF.pdb
     RDKit          3D

 31 32  0  0  1  0  0  0  0  0999 V2000
   27.8731  -20.8032  -18.3907 N   0  0  0  0  0  0  0  0  0  0  0  0
   26.9832  -20.1935  -17.4092 C   0  0  1  0  0  0  0  0  0  0  0  0
   26.7349  -18.7587  -17.9091 C   0  0  0  0  0  0  0  0  0  0  0  0
   28.0468  -18.0147  -17.8774 C   0  0  0  0  0  0  0  0  0  0  0  0
   28.5843  -17.5576  -19.0494 C   0  0  0  0  0  0  0  0  0  0  0  0
   29.7610  -16.8784  -19.0536 C   0  0  0  0  0  0  0  0  0  0  0  0
   30.4236  -16.6472  -17.8548 C   0  0  0  0  0  0  0  0  0  0  0  0
   29.8837  -17.1070  -16.6752 C   0  0  0  0  0  0  0  0  0  0  0  0
   28.6994  -17.7867  -16.6997 C   0  0  0  0  0  0  0  0  0  0  0  0
   25.7125  -20.9519  -17.4002 C   0  0  0  0  0  0  0  0  0  0  0  0
   25.2053  -21.4176  -18.4771 O   0  0  0  0  0  0  0  0  0  0  0  0
   25.4300  -25.1362  -14.6085 N   0  0  0  0  0  0  0  0  0  0  0  0
   25.6263  -23.9861  -15.4618 C   0  0  0  0  0  0  0  0  0  0  0  0
   26.6859  -23.3084  -15.3317 O   0  0  0  0  0  0  0  0  0  0  0  0
   24.6232  -23.6031  -16.4615 C   0  0  0  0  0  0  0  0  0  0  0  0
   23.9821  -22.2966  -16.1268 C   0  0  2  0  0  0  0  0  0  0  0  0
   24.9756  -21.2162  -16.2167 N   0  0  0  0  0  0  0  0  0  0  0  0
   23.3801  -22.2624  -14.7500 C   0  0  0  0  0  0  0  0  0  0  0  0
   22.5384  -23.0914  -14.3393 O   0  0  0  0  0  0  0  0  0  0  0  0
   23.7407  -21.2542  -13.7881 N   0  0  0  0  0  0  0  0  0  0  0  0
   22.8600  -21.0326  -12.6644 C   0  0  1  0  0  0  0  0  0  0  0  0
   23.5412  -19.9465  -11.8322 C   0  0  0  0  0  0  0  0  0  0  0  0
   24.8077  -20.3861  -11.2348 C   0  0  0  0  0  0  0  0  0  0  0  0
   25.7346  -20.9891  -12.0684 C   0  0  0  0  0  0  0  0  0  0  0  0
   26.9268  -21.3966  -11.5091 C   0  0  0  0  0  0  0  0  0  0  0  0
   27.2093  -21.2208  -10.1690 C   0  0  0  0  0  0  0  0  0  0  0  0
   26.2835  -20.6170   -9.3286 C   0  0  0  0  0  0  0  0  0  0  0  0
   25.0941  -20.2123   -9.8952 C   0  0  0  0  0  0  0  0  0  0  0  0
   21.5433  -20.5938  -13.1490 C   0  0  0  0  0  0  0  0  0  0  0  0
   20.3943  -20.7283  -12.3804 O   0  0  0  0  0  0  0  0  0  0  0  0
   21.4327  -20.0830  -14.2813 O   0  0  0  0  0  0  0  0  0  0  0  0
  2  1  1  6
  3  4  1  0
  3  2  1  0
  4  5  2  0
  5  6  1  0
  7  6  2  0
  8  7  1  0
  9  8  2  0
  9  4  1  0
 10 11  2  0
 10  2  1  0
 13 12  1  0
 14 13  2  0
 15 13  1  0
 16 15  1  1
 16 17  1  0
 17 10  1  0
 18 19  2  0
 18 16  1  0
 20 18  1  0
 21 22  1  1
 21 20  1  0
 23 28  1  0
 23 22  1  0
 24 23  2  0
 25 26  2  0
 25 24  1  0
 26 27  1  0
 27 28  2  0
 29 21  1  0
 30 29  1  0
 31 29  2  0
M  END
$$$$
