FNF.pdb
     RDKit          3D

 31 32  0  0  1  0  0  0  0  0999 V2000
   22.8520  -11.0963  -17.8408 N   0  0  0  0  0  0  0  0  0  0  0  0
   22.4165  -10.2531  -18.9482 C   0  0  1  0  0  0  0  0  0  0  0  0
   21.7228  -11.2008  -19.9435 C   0  0  0  0  0  0  0  0  0  0  0  0
   22.7766  -12.0787  -20.5714 C   0  0  0  0  0  0  0  0  0  0  0  0
   22.9612  -13.3472  -20.0936 C   0  0  0  0  0  0  0  0  0  0  0  0
   23.8976  -14.1647  -20.6421 C   0  0  0  0  0  0  0  0  0  0  0  0
   24.6746  -13.7059  -21.6982 C   0  0  0  0  0  0  0  0  0  0  0  0
   24.4897  -12.4298  -22.1794 C   0  0  0  0  0  0  0  0  0  0  0  0
   23.5413  -11.6292  -21.6097 C   0  0  0  0  0  0  0  0  0  0  0  0
   21.4431   -9.2680  -18.4269 C   0  0  0  0  0  0  0  0  0  0  0  0
   20.7981   -8.4888  -19.2085 O   0  0  0  0  0  0  0  0  0  0  0  0
   21.2959   -9.9814  -14.8013 N   0  0  0  0  0  0  0  0  0  0  0  0
   19.8783   -9.7148  -14.7089 C   0  0  0  0  0  0  0  0  0  0  0  0
   19.2058  -10.3118  -13.8198 O   0  0  0  0  0  0  0  0  0  0  0  0
   19.2222   -8.7733  -15.6228 C   0  0  0  0  0  0  0  0  0  0  0  0
   20.2039   -8.1186  -16.5381 C   0  0  2  0  0  0  0  0  0  0  0  0
   21.1559   -9.1180  -17.0453 N   0  0  0  0  0  0  0  0  0  0  0  0
   20.9895   -7.0179  -15.8822 C   0  0  0  0  0  0  0  0  0  0  0  0
   20.4676   -6.0083  -15.3598 O   0  0  0  0  0  0  0  0  0  0  0  0
   22.4263   -7.0520  -15.8053 N   0  0  0  0  0  0  0  0  0  0  0  0
   23.1280   -5.8179  -15.5367 C   0  0  1  0  0  0  0  0  0  0  0  0
   23.8546   -5.4810  -16.8385 C   0  0  0  0  0  0  0  0  0  0  0  0
   24.5390   -4.1833  -16.7985 C   0  0  0  0  0  0  0  0  0  0  0  0
   24.0514   -3.1759  -17.6141 C   0  0  0  0  0  0  0  0  0  0  0  0
   24.6900   -1.9550  -17.5724 C   0  0  0  0  0  0  0  0  0  0  0  0
   25.7782   -1.7210  -16.7552 C   0  0  0  0  0  0  0  0  0  0  0  0
   26.2713   -2.7275  -15.9357 C   0  0  0  0  0  0  0  0  0  0  0  0
   25.6276   -3.9451  -15.9830 C   0  0  0  0  0  0  0  0  0  0  0  0
   22.1625   -4.7711  -15.1721 C   0  0  0  0  0  0  0  0  0  0  0  0
   21.0789   -4.4554  -15.9816 O   0  0  0  0  0  0  0  0  0  0  0  0
   22.3024   -4.1352  -14.1084 O   0  0  0  0  0  0  0  0  0  0  0  0
  2  1  1  1
  3  4  1  0
  3  2  1  0
  4  5  2  0
  5  6  1  0
  7  6  2  0
  8  7  1  0
  9  8  2  0
  9  4  1  0
 10 11  2  0
 10  2  1  0
 13 12  1  0
 14 13  2  0
 15 13  1  0
 16 15  1  1
 16 17  1  0
 17 10  1  0
 18 19  2  0
 18 16  1  0
 20 18  1  0
 21 22  1  6
 21 20  1  0
 23 28  1  0
 23 22  1  0
 24 23  2  0
 25 26  2  0
 25 24  1  0
 26 27  1  0
 27 28  2  0
 29 21  1  0
 30 29  1  0
 31 29  2  0
M  END
$$$$
