FNF.pdb
     RDKit          3D

 31 32  0  0  1  0  0  0  0  0999 V2000
   24.6705  -24.4544  -15.1169 N   0  0  0  0  0  0  0  0  0  0  0  0
   25.4451  -23.3540  -14.5548 C   0  0  1  0  0  0  0  0  0  0  0  0
   26.2197  -22.7451  -15.7377 C   0  0  0  0  0  0  0  0  0  0  0  0
   27.4408  -23.5943  -15.9889 C   0  0  0  0  0  0  0  0  0  0  0  0
   28.6494  -23.1909  -15.4909 C   0  0  0  0  0  0  0  0  0  0  0  0
   29.7665  -23.9370  -15.6943 C   0  0  0  0  0  0  0  0  0  0  0  0
   29.6786  -25.1206  -16.4159 C   0  0  0  0  0  0  0  0  0  0  0  0
   28.4632  -25.5272  -16.9176 C   0  0  0  0  0  0  0  0  0  0  0  0
   27.3561  -24.7582  -16.6982 C   0  0  0  0  0  0  0  0  0  0  0  0
   24.5018  -22.3567  -14.0022 C   0  0  0  0  0  0  0  0  0  0  0  0
   23.3401  -22.1852  -14.5071 O   0  0  0  0  0  0  0  0  0  0  0  0
   25.4530  -21.9858   -9.7041 N   0  0  0  0  0  0  0  0  0  0  0  0
   24.1993  -21.4539  -10.1886 C   0  0  0  0  0  0  0  0  0  0  0  0
   23.1335  -22.0836   -9.9309 O   0  0  0  0  0  0  0  0  0  0  0  0
   24.1524  -20.2100  -10.9649 C   0  0  0  0  0  0  0  0  0  0  0  0
   23.9058  -20.4735  -12.4141 C   0  0  2  0  0  0  0  0  0  0  0  0
   24.8093  -21.5319  -12.8892 N   0  0  0  0  0  0  0  0  0  0  0  0
   24.1075  -19.2641  -13.2834 C   0  0  0  0  0  0  0  0  0  0  0  0
   23.3969  -18.2367  -13.2198 O   0  0  0  0  0  0  0  0  0  0  0  0
   25.1561  -19.2022  -14.2673 N   0  0  0  0  0  0  0  0  0  0  0  0
   25.2928  -17.9946  -15.0485 C   0  0  1  0  0  0  0  0  0  0  0  0
   26.7757  -17.6329  -14.9672 C   0  0  0  0  0  0  0  0  0  0  0  0
   27.1679  -16.5870  -15.9194 C   0  0  0  0  0  0  0  0  0  0  0  0
   27.6755  -16.9914  -17.1427 C   0  0  0  0  0  0  0  0  0  0  0  0
   28.0383  -16.0096  -18.0397 C   0  0  0  0  0  0  0  0  0  0  0  0
   27.9095  -14.6653  -17.7516 C   0  0  0  0  0  0  0  0  0  0  0  0
   27.4014  -14.2544  -16.5266 C   0  0  0  0  0  0  0  0  0  0  0  0
   27.0410  -15.2417  -15.6352 C   0  0  0  0  0  0  0  0  0  0  0  0
   24.8768  -18.2540  -16.4344 C   0  0  0  0  0  0  0  0  0  0  0  0
   24.3477  -17.2562  -17.2428 O   0  0  0  0  0  0  0  0  0  0  0  0
   24.9937  -19.3976  -16.9181 O   0  0  0  0  0  0  0  0  0  0  0  0
  2  1  1  6
  3  4  1  0
  3  2  1  0
  4  5  2  0
  5  6  1  0
  7  6  2  0
  8  7  1  0
  9  8  2  0
  9  4  1  0
 10 11  2  0
 10  2  1  0
 13 12  1  0
 14 13  2  0
 15 13  1  0
 16 15  1  1
 16 17  1  0
 17 10  1  0
 18 19  2  0
 18 16  1  0
 20 18  1  0
 21 22  1  6
 21 20  1  0
 23 28  1  0
 23 22  1  0
 24 23  2  0
 25 26  2  0
 25 24  1  0
 26 27  1  0
 27 28  2  0
 29 21  1  0
 30 29  1  0
 31 29  2  0
M  END
$$$$
