IHG.pdb
     RDKit          3D

 23 23  0  0  1  0  0  0  0  0999 V2000
   25.9733  -19.7656  -18.9683 C   0  0  0  0  0  0  0  0  0  0  0  0
   26.8111  -19.9821  -17.7546 C   0  0  0  0  0  0  0  0  0  0  0  0
   26.0794  -20.6716  -16.6262 C   0  0  2  0  0  0  0  0  0  0  0  0
   24.8618  -19.9012  -16.1846 C   0  0  0  0  0  0  0  0  0  0  0  0
   27.0105  -20.7859  -15.4648 C   0  0  2  0  0  0  0  0  0  0  0  0
   28.2123  -21.5103  -15.7525 N   0  0  0  0  0  0  0  0  0  0  0  0
   26.3424  -21.3301  -14.2495 C   0  0  0  0  0  0  0  0  0  0  0  0
   26.1045  -22.5593  -14.1098 O   0  0  0  0  0  0  0  0  0  0  0  0
   25.9623  -20.4653  -13.2254 N   0  0  0  0  0  0  0  0  0  0  0  0
   25.2657  -20.9717  -11.9732 C   0  0  1  0  0  0  0  0  0  0  0  0
   26.0542  -20.2703  -10.9092 C   0  0  0  0  0  0  0  0  0  0  0  0
   27.3612  -20.7989  -10.5935 C   0  0  0  0  0  0  0  0  0  0  0  0
   28.1291  -21.7906  -11.1198 C   0  0  0  0  0  0  0  0  0  0  0  0
   29.3402  -21.8563  -10.5146 N   0  0  0  0  0  0  0  0  0  0  0  0
   29.3311  -20.8948   -9.6006 C   0  0  0  0  0  0  0  0  0  0  0  0
   28.1643  -20.2431   -9.6206 N   0  0  0  0  0  0  0  0  0  0  0  0
   23.9229  -20.3599  -12.1384 C   0  0  0  0  0  0  0  0  0  0  0  0
   23.8938  -19.1402  -12.5532 O   0  0  0  0  0  0  0  0  0  0  0  0
   22.6712  -20.9547  -11.8991 N   0  0  0  0  0  0  0  0  0  0  0  0
   21.4225  -20.2232  -12.1958 C   0  0  0  0  0  0  0  0  0  0  0  0
   20.2474  -21.0562  -11.9596 C   0  0  0  0  0  0  0  0  0  0  0  0
   18.9856  -20.4989  -11.9481 O   0  0  0  0  0  0  0  0  0  0  0  0
   20.3660  -22.2865  -11.7642 O   0  0  0  0  0  0  0  0  0  0  0  0
  1  2  1  0
  2  3  1  0
  3  4  1  1
  5  7  1  0
  5  6  1  6
  5  3  1  0
  7  8  2  0
  9 10  1  0
  9  7  1  0
 10 17  1  0
 10 11  1  1
 12 11  1  0
 12 16  1  0
 13 14  1  0
 13 12  2  0
 14 15  1  0
 15 16  2  0
 17 18  2  0
 19 20  1  0
 19 17  1  0
 21 20  1  0
 22 21  1  0
 23 21  2  0
M  END
$$$$
