IHG.pdb
     RDKit          3D

 23 23  0  0  1  0  0  0  0  0999 V2000
   28.1549  -21.0627   -3.8968 C   0  0  0  0  0  0  0  0  0  0  0  0
   28.2583  -19.7410   -4.5782 C   0  0  0  0  0  0  0  0  0  0  0  0
   28.2212  -19.8304   -6.0864 C   0  0  2  0  0  0  0  0  0  0  0  0
   28.8670  -18.6369   -6.7420 C   0  0  0  0  0  0  0  0  0  0  0  0
   26.7930  -19.8883   -6.5173 C   0  0  2  0  0  0  0  0  0  0  0  0
   26.1243  -21.1011   -6.1512 N   0  0  0  0  0  0  0  0  0  0  0  0
   26.6238  -19.6084   -7.9708 C   0  0  0  0  0  0  0  0  0  0  0  0
   27.0201  -18.5344   -8.4964 O   0  0  0  0  0  0  0  0  0  0  0  0
   26.0097  -20.5544   -8.7887 N   0  0  0  0  0  0  0  0  0  0  0  0
   25.9565  -20.3873  -10.2983 C   0  0  1  0  0  0  0  0  0  0  0  0
   26.6646  -21.6304  -10.7443 C   0  0  0  0  0  0  0  0  0  0  0  0
   28.0583  -21.5082  -11.1051 C   0  0  0  0  0  0  0  0  0  0  0  0
   28.7519  -20.6625  -11.9138 C   0  0  0  0  0  0  0  0  0  0  0  0
   30.0842  -20.9067  -11.8631 N   0  0  0  0  0  0  0  0  0  0  0  0
   30.2266  -21.9149  -11.0128 C   0  0  0  0  0  0  0  0  0  0  0  0
   29.0364  -22.2988  -10.5408 N   0  0  0  0  0  0  0  0  0  0  0  0
   24.4941  -20.4873  -10.5352 C   0  0  0  0  0  0  0  0  0  0  0  0
   23.8363  -21.2680   -9.7490 O   0  0  0  0  0  0  0  0  0  0  0  0
   23.7347  -19.8266  -11.5174 N   0  0  0  0  0  0  0  0  0  0  0  0
   22.2587  -19.8839  -11.4906 C   0  0  0  0  0  0  0  0  0  0  0  0
   21.7521  -20.9710  -12.3226 C   0  0  0  0  0  0  0  0  0  0  0  0
   20.3943  -21.1677  -12.4661 O   0  0  0  0  0  0  0  0  0  0  0  0
   22.5399  -21.7400  -12.9174 O   0  0  0  0  0  0  0  0  0  0  0  0
  1  2  1  0
  2  3  1  0
  3  4  1  6
  5  7  1  0
  5  6  1  6
  5  3  1  0
  7  8  2  0
  9 10  1  0
  9  7  1  0
 10 17  1  0
 10 11  1  6
 12 11  1  0
 12 16  1  0
 13 14  1  0
 13 12  2  0
 14 15  1  0
 15 16  2  0
 17 18  2  0
 19 20  1  0
 19 17  1  0
 21 20  1  0
 22 21  1  0
 23 21  2  0
M  END
$$$$
