IHG.pdb
     RDKit          3D

 23 23  0  0  1  0  0  0  0  0999 V2000
   28.6255  -20.2407   -4.2526 C   0  0  0  0  0  0  0  0  0  0  0  0
   27.3577  -20.4474   -5.0088 C   0  0  0  0  0  0  0  0  0  0  0  0
   27.4580  -20.0872   -6.4731 C   0  0  2  0  0  0  0  0  0  0  0  0
   27.8500  -18.6465   -6.6778 C   0  0  0  0  0  0  0  0  0  0  0  0
   26.1215  -20.3048   -7.1016 C   0  0  2  0  0  0  0  0  0  0  0  0
   25.5774  -21.6101   -6.8731 N   0  0  0  0  0  0  0  0  0  0  0  0
   26.1137  -19.9750   -8.5544 C   0  0  0  0  0  0  0  0  0  0  0  0
   26.4151  -18.8292   -8.9826 O   0  0  0  0  0  0  0  0  0  0  0  0
   25.7641  -20.9537   -9.4823 N   0  0  0  0  0  0  0  0  0  0  0  0
   25.8304  -20.6927  -10.9780 C   0  0  1  0  0  0  0  0  0  0  0  0
   26.8056  -21.7474  -11.4050 C   0  0  0  0  0  0  0  0  0  0  0  0
   28.2116  -21.4582  -11.2405 C   0  0  0  0  0  0  0  0  0  0  0  0
   28.9036  -20.4044  -10.7298 C   0  0  0  0  0  0  0  0  0  0  0  0
   30.2381  -20.6414  -10.7242 N   0  0  0  0  0  0  0  0  0  0  0  0
   30.3833  -21.8569  -11.2355 C   0  0  0  0  0  0  0  0  0  0  0  0
   29.1928  -22.3741  -11.5546 N   0  0  0  0  0  0  0  0  0  0  0  0
   24.4457  -21.0462  -11.3810 C   0  0  0  0  0  0  0  0  0  0  0  0
   24.3231  -21.9859  -12.2542 O   0  0  0  0  0  0  0  0  0  0  0  0
   23.2443  -20.4790  -10.9198 N   0  0  0  0  0  0  0  0  0  0  0  0
   21.9457  -20.9195  -11.4695 C   0  0  0  0  0  0  0  0  0  0  0  0
   21.6021  -20.1825  -12.6816 C   0  0  0  0  0  0  0  0  0  0  0  0
   20.3592  -20.3304  -13.2617 O   0  0  0  0  0  0  0  0  0  0  0  0
   22.4278  -19.4065  -13.2125 O   0  0  0  0  0  0  0  0  0  0  0  0
  1  2  1  0
  2  3  1  0
  3  4  1  1
  5  7  1  0
  5  6  1  6
  5  3  1  0
  7  8  2  0
  9 10  1  0
  9  7  1  0
 10 17  1  0
 10 11  1  6
 12 11  1  0
 12 16  1  0
 13 14  1  0
 13 12  2  0
 14 15  1  0
 15 16  2  0
 17 18  2  0
 19 20  1  0
 19 17  1  0
 21 20  1  0
 22 21  1  0
 23 21  2  0
M  END
$$$$
