IHG.pdb
     RDKit          3D

 23 23  0  0  1  0  0  0  0  0999 V2000
   24.8209  -13.7189  -20.0030 C   0  0  0  0  0  0  0  0  0  0  0  0
   24.7343  -12.6292  -18.9896 C   0  0  0  0  0  0  0  0  0  0  0  0
   23.3951  -11.9293  -18.9628 C   0  0  2  0  0  0  0  0  0  0  0  0
   23.0539  -11.3054  -20.2915 C   0  0  0  0  0  0  0  0  0  0  0  0
   23.4525  -10.8471  -17.9360 C   0  0  2  0  0  0  0  0  0  0  0  0
   23.9669  -11.2746  -16.6692 N   0  0  0  0  0  0  0  0  0  0  0  0
   22.1469  -10.1492  -17.7690 C   0  0  0  0  0  0  0  0  0  0  0  0
   21.4697   -9.7510  -18.7538 O   0  0  0  0  0  0  0  0  0  0  0  0
   21.6448   -9.9219  -16.4894 N   0  0  0  0  0  0  0  0  0  0  0  0
   20.3387   -9.1773  -16.2674 C   0  0  1  0  0  0  0  0  0  0  0  0
   19.7405   -9.9836  -15.1547 C   0  0  0  0  0  0  0  0  0  0  0  0
   18.8016  -11.0206  -15.5160 C   0  0  0  0  0  0  0  0  0  0  0  0
   18.3328  -11.4966  -16.7008 C   0  0  0  0  0  0  0  0  0  0  0  0
   17.5051  -12.5545  -16.5194 N   0  0  0  0  0  0  0  0  0  0  0  0
   17.4560  -12.7438  -15.2073 C   0  0  0  0  0  0  0  0  0  0  0  0
   18.2192  -11.8452  -14.5773 N   0  0  0  0  0  0  0  0  0  0  0  0
   20.8461   -7.8724  -15.7729 C   0  0  0  0  0  0  0  0  0  0  0  0
   19.9598   -6.9820  -15.4866 O   0  0  0  0  0  0  0  0  0  0  0  0
   22.1846   -7.4893  -15.5745 N   0  0  0  0  0  0  0  0  0  0  0  0
   22.5138   -6.1352  -15.0840 C   0  0  0  0  0  0  0  0  0  0  0  0
   22.3725   -6.0442  -13.6341 C   0  0  0  0  0  0  0  0  0  0  0  0
   22.6327   -4.8585  -12.9789 O   0  0  0  0  0  0  0  0  0  0  0  0
   22.0137   -7.0383  -12.9641 O   0  0  0  0  0  0  0  0  0  0  0  0
  1  2  1  0
  2  3  1  0
  3  4  1  6
  5  7  1  0
  5  6  1  1
  5  3  1  0
  7  8  2  0
  9 10  1  0
  9  7  1  0
 10 17  1  0
 10 11  1  1
 12 11  1  0
 12 16  1  0
 13 14  1  0
 13 12  2  0
 14 15  1  0
 15 16  2  0
 17 18  2  0
 19 20  1  0
 19 17  1  0
 21 20  1  0
 22 21  1  0
 23 21  2  0
M  END
$$$$
