IHG.pdb
     RDKit          3D

 23 23  0  0  1  0  0  0  0  0999 V2000
   18.3900  -12.4850  -20.2048 C   0  0  0  0  0  0  0  0  0  0  0  0
   19.8082  -12.2741  -19.7973 C   0  0  0  0  0  0  0  0  0  0  0  0
   19.9663  -11.3889  -18.5827 C   0  0  2  0  0  0  0  0  0  0  0  0
   19.4456   -9.9954  -18.8241 C   0  0  0  0  0  0  0  0  0  0  0  0
   21.4200  -11.2976  -18.2554 C   0  0  2  0  0  0  0  0  0  0  0  0
   22.0664  -12.5689  -18.1212 N   0  0  0  0  0  0  0  0  0  0  0  0
   21.6843  -10.4411  -17.0654 C   0  0  0  0  0  0  0  0  0  0  0  0
   21.4618  -10.8392  -15.8911 O   0  0  0  0  0  0  0  0  0  0  0  0
   22.1938   -9.1561  -17.2396 N   0  0  0  0  0  0  0  0  0  0  0  0
   22.4176   -8.2220  -16.0620 C   0  0  1  0  0  0  0  0  0  0  0  0
   23.8904   -7.9705  -16.1781 C   0  0  0  0  0  0  0  0  0  0  0  0
   24.7806   -9.0066  -15.7073 C   0  0  0  0  0  0  0  0  0  0  0  0
   24.5903  -10.2564  -15.2056 C   0  0  0  0  0  0  0  0  0  0  0  0
   25.7689  -10.8848  -14.9753 N   0  0  0  0  0  0  0  0  0  0  0  0
   26.7073  -10.0199  -15.3378 C   0  0  0  0  0  0  0  0  0  0  0  0
   26.1520   -8.8874  -15.7803 N   0  0  0  0  0  0  0  0  0  0  0  0
   21.6343   -7.0379  -16.4967 C   0  0  0  0  0  0  0  0  0  0  0  0
   21.8281   -6.6319  -17.7042 O   0  0  0  0  0  0  0  0  0  0  0  0
   20.6981   -6.3034  -15.7472 N   0  0  0  0  0  0  0  0  0  0  0  0
   20.0750   -5.0868  -16.3077 C   0  0  0  0  0  0  0  0  0  0  0  0
   19.2290   -4.4190  -15.3234 C   0  0  0  0  0  0  0  0  0  0  0  0
   18.6851   -3.1804  -15.5937 O   0  0  0  0  0  0  0  0  0  0  0  0
   18.9844   -4.9584  -14.2211 O   0  0  0  0  0  0  0  0  0  0  0  0
  1  2  1  0
  2  3  1  0
  3  4  1  6
  5  7  1  0
  5  6  1  1
  5  3  1  0
  7  8  2  0
  9 10  1  0
  9  7  1  0
 10 17  1  0
 10 11  1  6
 12 11  1  0
 12 16  1  0
 13 14  1  0
 13 12  2  0
 14 15  1  0
 15 16  2  0
 17 18  2  0
 19 20  1  0
 19 17  1  0
 21 20  1  0
 22 21  1  0
 23 21  2  0
M  END
$$$$
