IHG.pdb
     RDKit          3D

 23 23  0  0  1  0  0  0  0  0999 V2000
   24.2317  -15.5924  -16.7360 C   0  0  0  0  0  0  0  0  0  0  0  0
   23.3824  -14.6359  -15.9706 C   0  0  0  0  0  0  0  0  0  0  0  0
   23.9973  -13.2636  -15.8200 C   0  0  2  0  0  0  0  0  0  0  0  0
   25.2389  -13.2884  -14.9661 C   0  0  0  0  0  0  0  0  0  0  0  0
   22.9951  -12.3703  -15.1671 C   0  0  2  0  0  0  0  0  0  0  0  0
   21.7152  -12.3647  -15.8104 N   0  0  0  0  0  0  0  0  0  0  0  0
   23.5021  -10.9813  -14.9848 C   0  0  0  0  0  0  0  0  0  0  0  0
   24.5460  -10.7306  -14.3258 O   0  0  0  0  0  0  0  0  0  0  0  0
   22.8112   -9.9143  -15.5551 N   0  0  0  0  0  0  0  0  0  0  0  0
   23.3420   -8.4921  -15.4822 C   0  0  1  0  0  0  0  0  0  0  0  0
   23.5084   -8.1787  -16.9382 C   0  0  0  0  0  0  0  0  0  0  0  0
   24.7640   -8.5381  -17.5560 C   0  0  0  0  0  0  0  0  0  0  0  0
   25.9034   -9.1264  -17.1023 C   0  0  0  0  0  0  0  0  0  0  0  0
   26.7933   -9.3262  -18.1050 N   0  0  0  0  0  0  0  0  0  0  0  0
   26.2045   -8.8593  -19.1983 C   0  0  0  0  0  0  0  0  0  0  0  0
   24.9908   -8.3813  -18.9067 N   0  0  0  0  0  0  0  0  0  0  0  0
   22.1658   -7.7879  -14.9118 C   0  0  0  0  0  0  0  0  0  0  0  0
   22.2257   -6.5011  -14.8802 O   0  0  0  0  0  0  0  0  0  0  0  0
   20.9856   -8.3582  -14.4022 N   0  0  0  0  0  0  0  0  0  0  0  0
   19.8948   -7.5006  -13.8950 C   0  0  0  0  0  0  0  0  0  0  0  0
   18.9886   -7.1006  -14.9670 C   0  0  0  0  0  0  0  0  0  0  0  0
   17.8911   -6.3098  -14.6968 O   0  0  0  0  0  0  0  0  0  0  0  0
   19.1926   -7.4681  -16.1457 O   0  0  0  0  0  0  0  0  0  0  0  0
  1  2  1  0
  2  3  1  0
  3  4  1  1
  5  7  1  0
  5  6  1  6
  5  3  1  0
  7  8  2  0
  9 10  1  0
  9  7  1  0
 10 17  1  0
 10 11  1  6
 12 11  1  0
 12 16  1  0
 13 14  1  0
 13 12  2  0
 14 15  1  0
 15 16  2  0
 17 18  2  0
 19 20  1  0
 19 17  1  0
 21 20  1  0
 22 21  1  0
 23 21  2  0
M  END
$$$$
