IHG.pdb
     RDKit          3D

 23 23  0  0  1  0  0  0  0  0999 V2000
   18.4034   -9.3727  -20.1416 C   0  0  0  0  0  0  0  0  0  0  0  0
   19.8014   -9.8113  -19.8672 C   0  0  0  0  0  0  0  0  0  0  0  0
   20.3132   -9.3946  -18.5077 C   0  0  2  0  0  0  0  0  0  0  0  0
   20.3716   -7.8961  -18.3578 C   0  0  0  0  0  0  0  0  0  0  0  0
   21.6935   -9.9382  -18.3399 C   0  0  2  0  0  0  0  0  0  0  0  0
   21.7933  -11.3497  -18.5630 N   0  0  0  0  0  0  0  0  0  0  0  0
   22.2984   -9.5651  -17.0305 C   0  0  0  0  0  0  0  0  0  0  0  0
   22.0551  -10.2061  -15.9737 O   0  0  0  0  0  0  0  0  0  0  0  0
   23.1628   -8.4751  -16.9554 N   0  0  0  0  0  0  0  0  0  0  0  0
   23.8074   -8.0591  -15.6435 C   0  0  1  0  0  0  0  0  0  0  0  0
   25.2598   -8.1608  -15.9987 C   0  0  0  0  0  0  0  0  0  0  0  0
   25.8877   -9.4550  -15.8643 C   0  0  0  0  0  0  0  0  0  0  0  0
   25.4437  -10.6831  -15.4836 C   0  0  0  0  0  0  0  0  0  0  0  0
   26.4155  -11.6209  -15.5982 N   0  0  0  0  0  0  0  0  0  0  0  0
   27.4789  -10.9737  -16.0568 C   0  0  0  0  0  0  0  0  0  0  0  0
   27.1987   -9.6780  -16.2274 N   0  0  0  0  0  0  0  0  0  0  0  0
   23.3725   -6.6419  -15.5599 C   0  0  0  0  0  0  0  0  0  0  0  0
   23.4823   -5.9423  -16.6364 O   0  0  0  0  0  0  0  0  0  0  0  0
   22.8485   -5.9673  -14.4426 N   0  0  0  0  0  0  0  0  0  0  0  0
   22.5650   -4.5188  -14.5043 C   0  0  0  0  0  0  0  0  0  0  0  0
   21.2255   -4.2592  -15.0226 C   0  0  0  0  0  0  0  0  0  0  0  0
   20.7452   -2.9686  -15.1053 O   0  0  0  0  0  0  0  0  0  0  0  0
   20.4932   -5.2013  -15.3994 O   0  0  0  0  0  0  0  0  0  0  0  0
  1  2  1  0
  2  3  1  0
  3  4  1  6
  5  7  1  0
  5  6  1  1
  5  3  1  0
  7  8  2  0
  9 10  1  0
  9  7  1  0
 10 17  1  0
 10 11  1  6
 12 11  1  0
 12 16  1  0
 13 14  1  0
 13 12  2  0
 14 15  1  0
 15 16  2  0
 17 18  2  0
 19 20  1  0
 19 17  1  0
 21 20  1  0
 22 21  1  0
 23 21  2  0
M  END
$$$$
