IHG.pdb
     RDKit          3D

 23 23  0  0  1  0  0  0  0  0999 V2000
   35.4387  -30.1910  -20.6744 C   0  0  0  0  0  0  0  0  0  0  0  0
   35.4637  -29.6432  -19.2883 C   0  0  0  0  0  0  0  0  0  0  0  0
   35.0951  -30.6553  -18.2283 C   0  0  2  0  0  0  0  0  0  0  0  0
   35.4188  -32.0649  -18.6521 C   0  0  0  0  0  0  0  0  0  0  0  0
   33.6253  -30.5635  -17.9838 C   0  0  2  0  0  0  0  0  0  0  0  0
   33.1832  -29.2615  -17.5821 N   0  0  0  0  0  0  0  0  0  0  0  0
   33.1386  -31.6039  -17.0349 C   0  0  0  0  0  0  0  0  0  0  0  0
   33.0945  -31.4079  -15.7913 O   0  0  0  0  0  0  0  0  0  0  0  0
   32.7152  -32.8385  -17.5224 N   0  0  0  0  0  0  0  0  0  0  0  0
   32.0712  -33.8741  -16.6156 C   0  0  1  0  0  0  0  0  0  0  0  0
   30.6807  -33.9111  -17.1734 C   0  0  0  0  0  0  0  0  0  0  0  0
   29.6711  -33.1328  -16.4935 C   0  0  0  0  0  0  0  0  0  0  0  0
   29.6808  -32.3296  -15.3957 C   0  0  0  0  0  0  0  0  0  0  0  0
   28.4741  -31.7453  -15.1962 N   0  0  0  0  0  0  0  0  0  0  0  0
   27.7011  -32.1861  -16.1801 C   0  0  0  0  0  0  0  0  0  0  0  0
   28.3843  -33.0167  -16.9738 N   0  0  0  0  0  0  0  0  0  0  0  0
   32.8359  -35.0883  -16.9974 C   0  0  0  0  0  0  0  0  0  0  0  0
   33.4095  -35.0675  -18.1511 O   0  0  0  0  0  0  0  0  0  0  0  0
   33.0143  -36.2640  -16.2466 N   0  0  0  0  0  0  0  0  0  0  0  0
   33.7463  -37.4146  -16.8147 C   0  0  0  0  0  0  0  0  0  0  0  0
   35.1898  -37.2507  -16.6734 C   0  0  0  0  0  0  0  0  0  0  0  0
   36.0521  -38.2315  -17.1177 O   0  0  0  0  0  0  0  0  0  0  0  0
   35.6668  -36.2200  -16.1480 O   0  0  0  0  0  0  0  0  0  0  0  0
  1  2  1  0
  2  3  1  0
  3  4  1  6
  5  7  1  0
  5  6  1  1
  5  3  1  0
  7  8  2  0
  9 10  1  0
  9  7  1  0
 10 17  1  0
 10 11  1  6
 12 11  1  0
 12 16  1  0
 13 14  1  0
 13 12  2  0
 14 15  1  0
 15 16  2  0
 17 18  2  0
 19 20  1  0
 19 17  1  0
 21 20  1  0
 22 21  1  0
 23 21  2  0
M  END
$$$$
