IHG.pdb
     RDKit          3D

 23 23  0  0  1  0  0  0  0  0999 V2000
   26.8095  -19.1890   -7.0568 C   0  0  0  0  0  0  0  0  0  0  0  0
   26.3975  -19.4971   -8.4559 C   0  0  0  0  0  0  0  0  0  0  0  0
   26.4153  -20.9723   -8.7837 C   0  0  2  0  0  0  0  0  0  0  0  0
   27.7733  -21.5869   -8.5614 C   0  0  0  0  0  0  0  0  0  0  0  0
   26.0545  -21.1368  -10.2229 C   0  0  2  0  0  0  0  0  0  0  0  0
   27.0836  -20.7258  -11.1307 N   0  0  0  0  0  0  0  0  0  0  0  0
   24.7577  -20.4875  -10.5638 C   0  0  0  0  0  0  0  0  0  0  0  0
   24.5902  -19.2418  -10.4804 O   0  0  0  0  0  0  0  0  0  0  0  0
   23.6859  -21.2689  -10.9901 N   0  0  0  0  0  0  0  0  0  0  0  0
   22.3538  -20.6492  -11.3790 C   0  0  1  0  0  0  0  0  0  0  0  0
   22.2524  -21.0759  -12.8120 C   0  0  0  0  0  0  0  0  0  0  0  0
   22.9669  -20.2900  -13.7915 C   0  0  0  0  0  0  0  0  0  0  0  0
   23.7746  -19.1982  -13.7166 C   0  0  0  0  0  0  0  0  0  0  0  0
   24.2801  -18.8691  -14.9304 N   0  0  0  0  0  0  0  0  0  0  0  0
   23.7848  -19.7651  -15.7741 C   0  0  0  0  0  0  0  0  0  0  0  0
   22.9963  -20.6291  -15.1273 N   0  0  0  0  0  0  0  0  0  0  0  0
   21.4264  -21.4276  -10.5195 C   0  0  0  0  0  0  0  0  0  0  0  0
   20.1717  -21.1583  -10.6360 O   0  0  0  0  0  0  0  0  0  0  0  0
   21.7529  -22.4319   -9.5907 N   0  0  0  0  0  0  0  0  0  0  0  0
   20.7002  -23.0740   -8.7771 C   0  0  0  0  0  0  0  0  0  0  0  0
   20.7071  -22.5746   -7.4056 C   0  0  0  0  0  0  0  0  0  0  0  0
   19.8478  -23.1026   -6.4645 O   0  0  0  0  0  0  0  0  0  0  0  0
   21.4912  -21.6617   -7.0627 O   0  0  0  0  0  0  0  0  0  0  0  0
  1  2  1  0
  2  3  1  0
  3  4  1  6
  5  7  1  0
  5  6  1  6
  5  3  1  0
  7  8  2  0
  9 10  1  0
  9  7  1  0
 10 17  1  0
 10 11  1  6
 12 11  1  0
 12 16  1  0
 13 14  1  0
 13 12  2  0
 14 15  1  0
 15 16  2  0
 17 18  2  0
 19 20  1  0
 19 17  1  0
 21 20  1  0
 22 21  1  0
 23 21  2  0
M  END
$$$$
