IHG.pdb
     RDKit          3D

 23 23  0  0  1  0  0  0  0  0999 V2000
   16.7758  -19.7585    1.3863 C   0  0  0  0  0  0  0  0  0  0  0  0
   16.3432  -18.5601    2.1601 C   0  0  0  0  0  0  0  0  0  0  0  0
   17.4437  -17.9452    2.9937 C   0  0  2  0  0  0  0  0  0  0  0  0
   17.9224  -18.8762    4.0778 C   0  0  0  0  0  0  0  0  0  0  0  0
   16.9086  -16.7092    3.6377 C   0  0  2  0  0  0  0  0  0  0  0  0
   16.3524  -15.7666    2.7135 N   0  0  0  0  0  0  0  0  0  0  0  0
   17.9061  -16.0522    4.5281 C   0  0  0  0  0  0  0  0  0  0  0  0
   18.6448  -15.1135    4.1282 O   0  0  0  0  0  0  0  0  0  0  0  0
   18.0386  -16.4778    5.8481 N   0  0  0  0  0  0  0  0  0  0  0  0
   18.9774  -15.7808    6.8189 C   0  0  1  0  0  0  0  0  0  0  0  0
   18.2418  -14.4955    7.0483 C   0  0  0  0  0  0  0  0  0  0  0  0
   18.6941  -13.3320    6.3209 C   0  0  0  0  0  0  0  0  0  0  0  0
   18.1087  -12.4965    5.4213 C   0  0  0  0  0  0  0  0  0  0  0  0
   18.9360  -11.4802    5.0747 N   0  0  0  0  0  0  0  0  0  0  0  0
   20.0507  -11.6807    5.7656 C   0  0  0  0  0  0  0  0  0  0  0  0
   19.9405  -12.7781    6.5207 N   0  0  0  0  0  0  0  0  0  0  0  0
   18.8716  -16.6783    7.9970 C   0  0  0  0  0  0  0  0  0  0  0  0
   17.7412  -17.2730    8.1671 O   0  0  0  0  0  0  0  0  0  0  0  0
   19.8625  -16.9627    8.9535 N   0  0  0  0  0  0  0  0  0  0  0  0
   19.5652  -17.8374   10.1063 C   0  0  0  0  0  0  0  0  0  0  0  0
   20.1126  -19.1768    9.9146 C   0  0  0  0  0  0  0  0  0  0  0  0
   20.0843  -20.0977   10.9413 O   0  0  0  0  0  0  0  0  0  0  0  0
   20.6152  -19.5101    8.8182 O   0  0  0  0  0  0  0  0  0  0  0  0
  1  2  1  0
  2  3  1  0
  3  4  1  1
  5  7  1  0
  5  6  1  6
  5  3  1  0
  7  8  2  0
  9 10  1  0
  9  7  1  0
 10 17  1  0
 10 11  1  1
 12 11  1  0
 12 16  1  0
 13 14  1  0
 13 12  2  0
 14 15  1  0
 15 16  2  0
 17 18  2  0
 19 20  1  0
 19 17  1  0
 21 20  1  0
 22 21  1  0
 23 21  2  0
M  END
$$$$
