IHG.pdb
     RDKit          3D

 23 23  0  0  1  0  0  0  0  0999 V2000
   29.0156  -16.2746  -18.7681 C   0  0  0  0  0  0  0  0  0  0  0  0
   27.8037  -17.1341  -18.6477 C   0  0  0  0  0  0  0  0  0  0  0  0
   27.0638  -16.9617  -17.3412 C   0  0  2  0  0  0  0  0  0  0  0  0
   27.9273  -17.2940  -16.1516 C   0  0  0  0  0  0  0  0  0  0  0  0
   25.8898  -17.8838  -17.3425 C   0  0  2  0  0  0  0  0  0  0  0  0
   25.0021  -17.6931  -18.4505 N   0  0  0  0  0  0  0  0  0  0  0  0
   25.1418  -17.8570  -16.0543 C   0  0  0  0  0  0  0  0  0  0  0  0
   24.6626  -16.7928  -15.5803 O   0  0  0  0  0  0  0  0  0  0  0  0
   24.9577  -19.0381  -15.3386 N   0  0  0  0  0  0  0  0  0  0  0  0
   24.1471  -19.0722  -14.0536 C   0  0  1  0  0  0  0  0  0  0  0  0
   23.0700  -20.0455  -14.4258 C   0  0  0  0  0  0  0  0  0  0  0  0
   21.9286  -19.5300  -15.1460 C   0  0  0  0  0  0  0  0  0  0  0  0
   21.5595  -18.2893  -15.5638 C   0  0  0  0  0  0  0  0  0  0  0  0
   20.4132  -18.3281  -16.2861 N   0  0  0  0  0  0  0  0  0  0  0  0
   20.0614  -19.6068  -16.3221 C   0  0  0  0  0  0  0  0  0  0  0  0
   20.9447  -20.3528  -15.6513 N   0  0  0  0  0  0  0  0  0  0  0  0
   25.1291  -19.6866  -13.1246 C   0  0  0  0  0  0  0  0  0  0  0  0
   25.7534  -20.7286  -13.5547 O   0  0  0  0  0  0  0  0  0  0  0  0
   25.4652  -19.2647  -11.8258 N   0  0  0  0  0  0  0  0  0  0  0  0
   26.4266  -20.0351  -11.0106 C   0  0  0  0  0  0  0  0  0  0  0  0
   25.7659  -21.1175  -10.2879 C   0  0  0  0  0  0  0  0  0  0  0  0
   26.4945  -21.9674   -9.4819 O   0  0  0  0  0  0  0  0  0  0  0  0
   24.5307  -21.2911  -10.3880 O   0  0  0  0  0  0  0  0  0  0  0  0
  1  2  1  0
  2  3  1  0
  3  4  1  1
  5  7  1  0
  5  6  1  6
  5  3  1  0
  7  8  2  0
  9 10  1  0
  9  7  1  0
 10 17  1  0
 10 11  1  6
 12 11  1  0
 12 16  1  0
 13 14  1  0
 13 12  2  0
 14 15  1  0
 15 16  2  0
 17 18  2  0
 19 20  1  0
 19 17  1  0
 21 20  1  0
 22 21  1  0
 23 21  2  0
M  END
$$$$
