IHG.pdb
     RDKit          3D

 23 23  0  0  1  0  0  0  0  0999 V2000
   19.7274  -11.6978    5.0443 C   0  0  0  0  0  0  0  0  0  0  0  0
   18.6560  -12.4066    4.2883 C   0  0  0  0  0  0  0  0  0  0  0  0
   18.1345  -13.6412    4.9868 C   0  0  2  0  0  0  0  0  0  0  0  0
   19.2129  -14.6728    5.1969 C   0  0  0  0  0  0  0  0  0  0  0  0
   17.0659  -14.2444    4.1365 C   0  0  2  0  0  0  0  0  0  0  0  0
   15.9363  -13.3884    3.9286 N   0  0  0  0  0  0  0  0  0  0  0  0
   16.6329  -15.5824    4.6281 C   0  0  0  0  0  0  0  0  0  0  0  0
   15.7689  -15.7151    5.5353 O   0  0  0  0  0  0  0  0  0  0  0  0
   17.1916  -16.7338    4.0775 N   0  0  0  0  0  0  0  0  0  0  0  0
   16.7774  -18.1203    4.5419 C   0  0  1  0  0  0  0  0  0  0  0  0
   16.4121  -18.7574    3.2355 C   0  0  0  0  0  0  0  0  0  0  0  0
   15.0298  -18.6808    2.8224 C   0  0  0  0  0  0  0  0  0  0  0  0
   13.8989  -18.1940    3.4006 C   0  0  0  0  0  0  0  0  0  0  0  0
   12.8352  -18.2830    2.5652 N   0  0  0  0  0  0  0  0  0  0  0  0
   13.3052  -18.8299    1.4517 C   0  0  0  0  0  0  0  0  0  0  0  0
   14.6128  -19.0802    1.5707 N   0  0  0  0  0  0  0  0  0  0  0  0
   18.0727  -18.6393    5.0494 C   0  0  0  0  0  0  0  0  0  0  0  0
   19.1279  -18.2861    4.3997 O   0  0  0  0  0  0  0  0  0  0  0  0
   18.2893  -19.4717    6.1621 N   0  0  0  0  0  0  0  0  0  0  0  0
   19.6592  -19.8656    6.5505 C   0  0  0  0  0  0  0  0  0  0  0  0
   20.1474  -19.0648    7.6689 C   0  0  0  0  0  0  0  0  0  0  0  0
   21.3901  -19.3100    8.2151 O   0  0  0  0  0  0  0  0  0  0  0  0
   19.4476  -18.1452    8.1490 O   0  0  0  0  0  0  0  0  0  0  0  0
  1  2  1  0
  2  3  1  0
  3  4  1  6
  5  7  1  0
  5  6  1  1
  5  3  1  0
  7  8  2  0
  9 10  1  0
  9  7  1  0
 10 17  1  0
 10 11  1  6
 12 11  1  0
 12 16  1  0
 13 14  1  0
 13 12  2  0
 14 15  1  0
 15 16  2  0
 17 18  2  0
 19 20  1  0
 19 17  1  0
 21 20  1  0
 22 21  1  0
 23 21  2  0
M  END
$$$$
