IHG.pdb
     RDKit          3D

 23 23  0  0  1  0  0  0  0  0999 V2000
   18.9477  -26.2079  -10.4147 C   0  0  0  0  0  0  0  0  0  0  0  0
   17.7053  -25.6931   -9.7718 C   0  0  0  0  0  0  0  0  0  0  0  0
   17.8594  -25.4043   -8.2963 C   0  0  2  0  0  0  0  0  0  0  0  0
   18.2744  -26.6269   -7.5188 C   0  0  0  0  0  0  0  0  0  0  0  0
   16.5427  -24.9370   -7.7704 C   0  0  2  0  0  0  0  0  0  0  0  0
   16.0047  -23.8087   -8.4702 N   0  0  0  0  0  0  0  0  0  0  0  0
   16.5717  -24.6848   -6.3024 C   0  0  0  0  0  0  0  0  0  0  0  0
   17.1498  -23.6813   -5.8067 O   0  0  0  0  0  0  0  0  0  0  0  0
   15.9442  -25.5777   -5.4364 N   0  0  0  0  0  0  0  0  0  0  0  0
   15.8416  -25.3018   -3.9454 C   0  0  1  0  0  0  0  0  0  0  0  0
   14.3542  -25.2446   -3.7714 C   0  0  0  0  0  0  0  0  0  0  0  0
   13.7159  -23.9579   -3.9275 C   0  0  0  0  0  0  0  0  0  0  0  0
   14.1684  -22.7123   -4.2340 C   0  0  0  0  0  0  0  0  0  0  0  0
   13.1492  -21.8253   -4.3419 N   0  0  0  0  0  0  0  0  0  0  0  0
   12.0467  -22.5231   -4.1019 C   0  0  0  0  0  0  0  0  0  0  0  0
   12.3485  -23.8008   -3.8509 N   0  0  0  0  0  0  0  0  0  0  0  0
   16.3992  -26.5622   -3.3929 C   0  0  0  0  0  0  0  0  0  0  0  0
   16.2488  -27.6212   -4.1115 O   0  0  0  0  0  0  0  0  0  0  0  0
   17.0791  -26.7408   -2.1749 N   0  0  0  0  0  0  0  0  0  0  0  0
   17.5122  -28.0867   -1.7464 C   0  0  0  0  0  0  0  0  0  0  0  0
   18.2765  -28.0306   -0.5042 C   0  0  0  0  0  0  0  0  0  0  0  0
   18.7013  -29.1910    0.1089 O   0  0  0  0  0  0  0  0  0  0  0  0
   18.5580  -26.9312    0.0231 O   0  0  0  0  0  0  0  0  0  0  0  0
  1  2  1  0
  2  3  1  0
  3  4  1  1
  5  7  1  0
  5  6  1  6
  5  3  1  0
  7  8  2  0
  9 10  1  0
  9  7  1  0
 10 17  1  0
 10 11  1  1
 12 11  1  0
 12 16  1  0
 13 14  1  0
 13 12  2  0
 14 15  1  0
 15 16  2  0
 17 18  2  0
 19 20  1  0
 19 17  1  0
 21 20  1  0
 22 21  1  0
 23 21  2  0
M  END
$$$$
