IHG.pdb
     RDKit          3D

 23 23  0  0  1  0  0  0  0  0999 V2000
   28.6541  -14.2025  -16.6921 C   0  0  0  0  0  0  0  0  0  0  0  0
   27.8667  -13.2284  -15.8841 C   0  0  0  0  0  0  0  0  0  0  0  0
   27.1745  -12.1709  -16.7127 C   0  0  2  0  0  0  0  0  0  0  0  0
   28.1455  -11.3832  -17.5542 C   0  0  0  0  0  0  0  0  0  0  0  0
   26.4829  -11.2273  -15.7853 C   0  0  2  0  0  0  0  0  0  0  0  0
   25.9399  -11.8540  -14.6172 N   0  0  0  0  0  0  0  0  0  0  0  0
   25.4488  -10.4054  -16.4742 C   0  0  0  0  0  0  0  0  0  0  0  0
   25.7007   -9.7532  -17.5221 O   0  0  0  0  0  0  0  0  0  0  0  0
   24.1571  -10.3454  -15.9558 N   0  0  0  0  0  0  0  0  0  0  0  0
   23.0511   -9.5778  -16.6609 C   0  0  1  0  0  0  0  0  0  0  0  0
   21.9845  -10.6278  -16.7378 C   0  0  0  0  0  0  0  0  0  0  0  0
   21.9840  -11.4909  -17.8965 C   0  0  0  0  0  0  0  0  0  0  0  0
   22.8022  -11.6208  -18.9753 C   0  0  0  0  0  0  0  0  0  0  0  0
   22.4187  -12.6501  -19.7694 N   0  0  0  0  0  0  0  0  0  0  0  0
   21.3499  -13.1711  -19.1810 C   0  0  0  0  0  0  0  0  0  0  0  0
   21.0626  -12.5031  -18.0595 N   0  0  0  0  0  0  0  0  0  0  0  0
   22.7264   -8.5562  -15.6335 C   0  0  0  0  0  0  0  0  0  0  0  0
   23.0396   -8.8442  -14.4172 O   0  0  0  0  0  0  0  0  0  0  0  0
   22.1182   -7.3033  -15.8284 N   0  0  0  0  0  0  0  0  0  0  0  0
   21.9155   -6.3814  -14.6919 C   0  0  0  0  0  0  0  0  0  0  0  0
   22.8005   -5.2240  -14.7797 C   0  0  0  0  0  0  0  0  0  0  0  0
   22.6738   -4.1774  -13.8900 O   0  0  0  0  0  0  0  0  0  0  0  0
   23.6862   -5.1631  -15.6616 O   0  0  0  0  0  0  0  0  0  0  0  0
  1  2  1  0
  2  3  1  0
  3  4  1  1
  5  7  1  0
  5  6  1  1
  5  3  1  0
  7  8  2  0
  9 10  1  0
  9  7  1  0
 10 17  1  0
 10 11  1  1
 12 11  1  0
 12 16  1  0
 13 14  1  0
 13 12  2  0
 14 15  1  0
 15 16  2  0
 17 18  2  0
 19 20  1  0
 19 17  1  0
 21 20  1  0
 22 21  1  0
 23 21  2  0
M  END
$$$$
