TFH.pdb
     RDKit          3D

 29 30  0  0  1  0  0  0  0  0999 V2000
    7.8625  -18.3178   20.5138 C   0  0  0  0  0  0  0  0  0  0  0  0
    9.0671  -17.8392   19.7206 C   0  0  1  0  0  0  0  0  0  0  0  0
    8.9919  -18.2915   18.3960 O   0  0  0  0  0  0  0  0  0  0  0  0
    8.9938  -16.3292   19.6932 C   0  0  2  0  0  0  0  0  0  0  0  0
    9.9699  -15.7852   18.7764 N   0  0  0  0  0  0  0  0  0  0  0  0
    9.1956  -15.7267   21.0204 C   0  0  0  0  0  0  0  0  0  0  0  0
   10.3536  -15.6692   21.4991 O   0  0  0  0  0  0  0  0  0  0  0  0
    8.1471  -15.1944   21.8140 N   0  0  0  0  0  0  0  0  0  0  0  0
    8.3441  -14.6708   23.1579 C   0  0  1  0  0  0  0  0  0  0  0  0
    7.2067  -13.7666   23.4898 C   0  0  0  0  0  0  0  0  0  0  0  0
    7.1922  -13.2345   24.8482 C   0  0  0  0  0  0  0  0  0  0  0  0
    6.4040  -13.7800   25.8146 C   0  0  0  0  0  0  0  0  0  0  0  0
    6.4200  -13.2478   27.0836 C   0  0  0  0  0  0  0  0  0  0  0  0
    7.2089  -12.1705   27.4299 C   0  0  0  0  0  0  0  0  0  0  0  0
    7.9912  -11.6514   26.4155 C   0  0  0  0  0  0  0  0  0  0  0  0
    7.9949  -12.1616   25.1429 C   0  0  0  0  0  0  0  0  0  0  0  0
    8.6095  -15.7312   24.1338 C   0  0  0  0  0  0  0  0  0  0  0  0
    7.7665  -16.6503   24.2632 O   0  0  0  0  0  0  0  0  0  0  0  0
    9.7840  -15.7680   24.9457 N   0  0  0  0  0  0  0  0  0  0  0  0
   10.0423  -16.8465   25.8980 C   0  0  1  0  0  0  0  0  0  0  0  0
   11.4691  -17.2653   25.6744 C   0  0  0  0  0  0  0  0  0  0  0  0
   11.6362  -18.0985   24.4570 C   0  0  0  0  0  0  0  0  0  0  0  0
   10.6633  -18.5145   23.5784 C   0  0  0  0  0  0  0  0  0  0  0  0
   11.2843  -19.2556   22.6244 N   0  0  0  0  0  0  0  0  0  0  0  0
   12.5918  -19.2744   22.9357 C   0  0  0  0  0  0  0  0  0  0  0  0
   12.8277  -18.5740   24.0510 N   0  0  0  0  0  0  0  0  0  0  0  0
    9.8461  -16.3543   27.2693 C   0  0  0  0  0  0  0  0  0  0  0  0
    9.6216  -15.1501   27.5316 O   0  0  0  0  0  0  0  0  0  0  0  0
    9.9073  -17.2431   28.3406 O   0  0  0  0  0  0  0  0  0  0  0  0
  2  1  1  1
  2  3  1  0
  4  5  1  6
  4  2  1  0
  6  4  1  0
  7  6  2  0
  8  6  1  0
  9  8  1  0
  9 10  1  1
 10 11  1  0
 11 16  1  0
 12 11  2  0
 12 13  1  0
 13 14  2  0
 14 15  1  0
 16 15  2  0
 17 18  2  0
 17  9  1  0
 19 17  1  0
 20 19  1  0
 21 22  1  0
 20 21  1  1
 22 23  2  0
 24 23  1  0
 25 24  1  0
 26 25  2  0
 26 22  1  0
 27 29  1  0
 27 20  1  0
 28 27  2  0
M  END
$$$$
