TFH.pdb
     RDKit          3D

 29 30  0  0  1  0  0  0  0  0999 V2000
    8.6794  -19.6788   19.0783 C   0  0  0  0  0  0  0  0  0  0  0  0
    8.9301  -18.7908   20.2858 C   0  0  1  0  0  0  0  0  0  0  0  0
   10.1596  -19.1079   20.8796 O   0  0  0  0  0  0  0  0  0  0  0  0
    9.0245  -17.3736   19.7673 C   0  0  2  0  0  0  0  0  0  0  0  0
   10.1037  -17.2474   18.8141 N   0  0  0  0  0  0  0  0  0  0  0  0
    9.2172  -16.3874   20.8422 C   0  0  0  0  0  0  0  0  0  0  0  0
   10.3602  -15.9100   21.0399 O   0  0  0  0  0  0  0  0  0  0  0  0
    8.1760  -15.9288   21.6895 N   0  0  0  0  0  0  0  0  0  0  0  0
    8.3805  -14.9699   22.7656 C   0  0  1  0  0  0  0  0  0  0  0  0
    7.0999  -14.8079   23.5108 C   0  0  0  0  0  0  0  0  0  0  0  0
    7.1013  -13.8017   24.5672 C   0  0  0  0  0  0  0  0  0  0  0  0
    6.4093  -13.9881   25.7244 C   0  0  0  0  0  0  0  0  0  0  0  0
    6.4368  -13.0138   26.6959 C   0  0  0  0  0  0  0  0  0  0  0  0
    7.1434  -11.8378   26.5519 C   0  0  0  0  0  0  0  0  0  0  0  0
    7.8297  -11.6944   25.3607 C   0  0  0  0  0  0  0  0  0  0  0  0
    7.8196  -12.6485   24.3762 C   0  0  0  0  0  0  0  0  0  0  0  0
    9.5486  -15.2980   23.5872 C   0  0  0  0  0  0  0  0  0  0  0  0
   10.5485  -14.5435   23.5345 O   0  0  0  0  0  0  0  0  0  0  0  0
    9.6026  -16.4378   24.4463 N   0  0  0  0  0  0  0  0  0  0  0  0
   10.2640  -16.4035   25.7495 C   0  0  1  0  0  0  0  0  0  0  0  0
    9.4999  -15.4073   26.5771 C   0  0  0  0  0  0  0  0  0  0  0  0
   10.0898  -15.2121   27.9255 C   0  0  0  0  0  0  0  0  0  0  0  0
   11.2030  -15.8208   28.4564 C   0  0  0  0  0  0  0  0  0  0  0  0
   11.3557  -15.3344   29.7154 N   0  0  0  0  0  0  0  0  0  0  0  0
   10.3552  -14.4602   29.9191 C   0  0  0  0  0  0  0  0  0  0  0  0
    9.5710  -14.3709   28.8387 N   0  0  0  0  0  0  0  0  0  0  0  0
   10.2227  -17.7394   26.3616 C   0  0  0  0  0  0  0  0  0  0  0  0
   11.2162  -18.2605   26.9192 O   0  0  0  0  0  0  0  0  0  0  0  0
    9.0419  -18.4786   26.3345 O   0  0  0  0  0  0  0  0  0  0  0  0
  2  1  1  6
  2  3  1  0
  4  5  1  6
  4  2  1  0
  6  4  1  0
  7  6  2  0
  8  6  1  0
  9  8  1  0
  9 10  1  1
 10 11  1  0
 11 16  1  0
 12 11  2  0
 12 13  1  0
 13 14  2  0
 14 15  1  0
 16 15  2  0
 17 18  2  0
 17  9  1  0
 19 17  1  0
 20 19  1  0
 21 22  1  0
 20 21  1  1
 22 23  2  0
 24 23  1  0
 25 24  1  0
 26 25  2  0
 26 22  1  0
 27 29  1  0
 27 20  1  0
 28 27  2  0
M  END
$$$$
