TFH.pdb
     RDKit          3D

 29 30  0  0  1  0  0  0  0  0999 V2000
    7.1545  -15.0310   17.3007 C   0  0  0  0  0  0  0  0  0  0  0  0
    7.6822  -15.1498   18.7209 C   0  0  1  0  0  0  0  0  0  0  0  0
    9.0165  -15.5794   18.7128 O   0  0  0  0  0  0  0  0  0  0  0  0
    7.6535  -13.7575   19.3099 C   0  0  2  0  0  0  0  0  0  0  0  0
    8.4477  -12.8483   18.5151 N   0  0  0  0  0  0  0  0  0  0  0  0
    8.1311  -13.7196   20.7012 C   0  0  0  0  0  0  0  0  0  0  0  0
    9.3584  -13.5906   20.9259 O   0  0  0  0  0  0  0  0  0  0  0  0
    7.2800  -13.8211   21.8316 N   0  0  0  0  0  0  0  0  0  0  0  0
    7.7639  -13.8081   23.2044 C   0  0  1  0  0  0  0  0  0  0  0  0
    6.7512  -13.1290   24.0616 C   0  0  0  0  0  0  0  0  0  0  0  0
    7.0895  -13.0130   25.4760 C   0  0  0  0  0  0  0  0  0  0  0  0
    8.1130  -12.2207   25.8972 C   0  0  0  0  0  0  0  0  0  0  0  0
    8.3994  -12.1393   27.2408 C   0  0  0  0  0  0  0  0  0  0  0  0
    7.6879  -12.8330   28.1976 C   0  0  0  0  0  0  0  0  0  0  0  0
    6.6588  -13.6236   27.7216 C   0  0  0  0  0  0  0  0  0  0  0  0
    6.3518  -13.7232   26.3890 C   0  0  0  0  0  0  0  0  0  0  0  0
    8.1821  -15.1371   23.6585 C   0  0  0  0  0  0  0  0  0  0  0  0
    7.3940  -16.0993   23.5001 O   0  0  0  0  0  0  0  0  0  0  0  0
    9.4462  -15.3891   24.2739 N   0  0  0  0  0  0  0  0  0  0  0  0
    9.7732  -16.6736   24.8902 C   0  0  1  0  0  0  0  0  0  0  0  0
   11.1753  -16.9984   24.4548 C   0  0  0  0  0  0  0  0  0  0  0  0
   11.2439  -17.4596   23.0452 C   0  0  0  0  0  0  0  0  0  0  0  0
   10.2036  -17.6371   22.1633 C   0  0  0  0  0  0  0  0  0  0  0  0
   10.7457  -18.0730   20.9966 N   0  0  0  0  0  0  0  0  0  0  0  0
   12.0738  -18.1498   21.1891 C   0  0  0  0  0  0  0  0  0  0  0  0
   12.3987  -17.7797   22.4332 N   0  0  0  0  0  0  0  0  0  0  0  0
    9.6891  -16.5571   26.3532 C   0  0  0  0  0  0  0  0  0  0  0  0
    9.6563  -15.4532   26.9444 O   0  0  0  0  0  0  0  0  0  0  0  0
    9.6425  -17.7068   27.1390 O   0  0  0  0  0  0  0  0  0  0  0  0
  2  1  1  6
  2  3  1  0
  4  5  1  6
  4  2  1  0
  6  4  1  0
  7  6  2  0
  8  6  1  0
  9  8  1  0
  9 10  1  1
 10 11  1  0
 11 16  1  0
 12 11  2  0
 12 13  1  0
 13 14  2  0
 14 15  1  0
 16 15  2  0
 17 18  2  0
 17  9  1  0
 19 17  1  0
 20 19  1  0
 21 22  1  0
 20 21  1  1
 22 23  2  0
 24 23  1  0
 25 24  1  0
 26 25  2  0
 26 22  1  0
 27 29  1  0
 27 20  1  0
 28 27  2  0
M  END
$$$$
