TFH.pdb
     RDKit          3D

 29 30  0  0  1  0  0  0  0  0999 V2000
    8.1528  -18.4586   18.5907 C   0  0  0  0  0  0  0  0  0  0  0  0
    8.4066  -17.9583   20.0031 C   0  0  1  0  0  0  0  0  0  0  0  0
    9.4681  -18.6622   20.5883 O   0  0  0  0  0  0  0  0  0  0  0  0
    8.8299  -16.5120   19.8791 C   0  0  2  0  0  0  0  0  0  0  0  0
   10.0205  -16.3942   19.0681 N   0  0  0  0  0  0  0  0  0  0  0  0
    9.0750  -15.8782   21.1843 C   0  0  0  0  0  0  0  0  0  0  0  0
   10.2395  -15.8626   21.6504 O   0  0  0  0  0  0  0  0  0  0  0  0
    8.0623  -15.2699   21.9697 N   0  0  0  0  0  0  0  0  0  0  0  0
    8.3004  -14.7082   23.2914 C   0  0  1  0  0  0  0  0  0  0  0  0
    7.1792  -13.7855   23.6275 C   0  0  0  0  0  0  0  0  0  0  0  0
    7.2330  -13.1742   24.9511 C   0  0  0  0  0  0  0  0  0  0  0  0
    6.4591  -13.6295   25.9740 C   0  0  0  0  0  0  0  0  0  0  0  0
    6.5401  -13.0246   27.2074 C   0  0  0  0  0  0  0  0  0  0  0  0
    7.3815  -11.9615   27.4619 C   0  0  0  0  0  0  0  0  0  0  0  0
    8.1469  -11.5351   26.3929 C   0  0  0  0  0  0  0  0  0  0  0  0
    8.0862  -12.1191   25.1540 C   0  0  0  0  0  0  0  0  0  0  0  0
    8.5853  -15.7413   24.2908 C   0  0  0  0  0  0  0  0  0  0  0  0
    7.7521  -16.6643   24.4520 O   0  0  0  0  0  0  0  0  0  0  0  0
    9.7683  -15.7471   25.0912 N   0  0  0  0  0  0  0  0  0  0  0  0
   10.0566  -16.8104   26.0520 C   0  0  1  0  0  0  0  0  0  0  0  0
   11.4858  -17.2114   25.8114 C   0  0  0  0  0  0  0  0  0  0  0  0
   11.6563  -18.0000   24.5651 C   0  0  0  0  0  0  0  0  0  0  0  0
   10.6848  -18.6391   23.8307 C   0  0  0  0  0  0  0  0  0  0  0  0
   11.3101  -19.2307   22.7799 N   0  0  0  0  0  0  0  0  0  0  0  0
   12.6187  -18.9455   22.8948 C   0  0  0  0  0  0  0  0  0  0  0  0
   12.8511  -18.1952   23.9779 N   0  0  0  0  0  0  0  0  0  0  0  0
    9.8740  -16.3050   27.4202 C   0  0  0  0  0  0  0  0  0  0  0  0
    9.6376  -15.1008   27.6721 O   0  0  0  0  0  0  0  0  0  0  0  0
    9.9625  -17.1804   28.5006 O   0  0  0  0  0  0  0  0  0  0  0  0
  2  1  1  6
  2  3  1  0
  4  5  1  6
  4  2  1  0
  6  4  1  0
  7  6  2  0
  8  6  1  0
  9  8  1  0
  9 10  1  1
 10 11  1  0
 11 16  1  0
 12 11  2  0
 12 13  1  0
 13 14  2  0
 14 15  1  0
 16 15  2  0
 17 18  2  0
 17  9  1  0
 19 17  1  0
 20 19  1  0
 21 22  1  0
 20 21  1  1
 22 23  2  0
 24 23  1  0
 25 24  1  0
 26 25  2  0
 26 22  1  0
 27 29  1  0
 27 20  1  0
 28 27  2  0
M  END
$$$$
