TFH.pdb
     RDKit          3D

 29 30  0  0  1  0  0  0  0  0999 V2000
    8.1109  -18.6977   20.9057 C   0  0  0  0  0  0  0  0  0  0  0  0
    9.1924  -18.1708   19.9772 C   0  0  1  0  0  0  0  0  0  0  0  0
    9.0729  -18.7518   18.7072 O   0  0  0  0  0  0  0  0  0  0  0  0
    8.9462  -16.6865   19.8262 C   0  0  2  0  0  0  0  0  0  0  0  0
    9.8068  -16.1250   18.8098 N   0  0  0  0  0  0  0  0  0  0  0  0
    9.1442  -15.9474   21.0830 C   0  0  0  0  0  0  0  0  0  0  0  0
   10.3102  -15.7380   21.4951 O   0  0  0  0  0  0  0  0  0  0  0  0
    8.0833  -15.4438   21.8789 N   0  0  0  0  0  0  0  0  0  0  0  0
    8.2812  -14.8225   23.1804 C   0  0  1  0  0  0  0  0  0  0  0  0
    7.0829  -13.9970   23.5029 C   0  0  0  0  0  0  0  0  0  0  0  0
    7.0851  -13.3570   24.8140 C   0  0  0  0  0  0  0  0  0  0  0  0
    6.3805  -13.8754   25.8568 C   0  0  0  0  0  0  0  0  0  0  0  0
    6.4093  -13.2407   27.0775 C   0  0  0  0  0  0  0  0  0  0  0  0
    7.1295  -12.0852   27.2995 C   0  0  0  0  0  0  0  0  0  0  0  0
    7.8281  -11.5974   26.2113 C   0  0  0  0  0  0  0  0  0  0  0  0
    7.8172  -12.2093   24.9844 C   0  0  0  0  0  0  0  0  0  0  0  0
    8.6697  -15.7940   24.2062 C   0  0  0  0  0  0  0  0  0  0  0  0
    7.9109  -16.7674   24.4270 O   0  0  0  0  0  0  0  0  0  0  0  0
    9.8732  -15.6851   24.9677 N   0  0  0  0  0  0  0  0  0  0  0  0
   10.2919  -16.7130   25.9190 C   0  0  1  0  0  0  0  0  0  0  0  0
   11.7749  -16.8746   25.7301 C   0  0  0  0  0  0  0  0  0  0  0  0
   12.1141  -17.6703   24.5235 C   0  0  0  0  0  0  0  0  0  0  0  0
   11.2503  -18.2661   23.6345 C   0  0  0  0  0  0  0  0  0  0  0  0
   12.0140  -18.8850   22.6970 N   0  0  0  0  0  0  0  0  0  0  0  0
   13.2968  -18.6578   23.0280 C   0  0  0  0  0  0  0  0  0  0  0  0
   13.3799  -17.9182   24.1399 N   0  0  0  0  0  0  0  0  0  0  0  0
    9.9791  -16.2783   27.2880 C   0  0  0  0  0  0  0  0  0  0  0  0
    9.4971  -15.1516   27.5479 O   0  0  0  0  0  0  0  0  0  0  0  0
   10.2188  -17.1357   28.3598 O   0  0  0  0  0  0  0  0  0  0  0  0
  2  1  1  1
  2  3  1  0
  4  5  1  6
  4  2  1  0
  6  4  1  0
  7  6  2  0
  8  6  1  0
  9  8  1  0
  9 10  1  1
 10 11  1  0
 11 16  1  0
 12 11  2  0
 12 13  1  0
 13 14  2  0
 14 15  1  0
 16 15  2  0
 17 18  2  0
 17  9  1  0
 19 17  1  0
 20 19  1  0
 21 22  1  0
 20 21  1  1
 22 23  2  0
 24 23  1  0
 25 24  1  0
 26 25  2  0
 26 22  1  0
 27 29  1  0
 27 20  1  0
 28 27  2  0
M  END
$$$$
