TFH.pdb
     RDKit          3D

 29 30  0  0  1  0  0  0  0  0999 V2000
    9.2403  -20.3838   19.0299 C   0  0  0  0  0  0  0  0  0  0  0  0
    9.5100  -19.6162   17.7463 C   0  0  1  0  0  0  0  0  0  0  0  0
    8.9281  -20.2717   16.6525 O   0  0  0  0  0  0  0  0  0  0  0  0
    8.8260  -18.2757   17.8932 C   0  0  2  0  0  0  0  0  0  0  0  0
    8.8655  -17.5411   16.6490 N   0  0  0  0  0  0  0  0  0  0  0  0
    9.4190  -17.4490   18.9563 C   0  0  0  0  0  0  0  0  0  0  0  0
   10.4720  -16.8092   18.7214 O   0  0  0  0  0  0  0  0  0  0  0  0
    8.8695  -17.3228   20.2580 N   0  0  0  0  0  0  0  0  0  0  0  0
    9.5328  -16.6162   21.3442 C   0  0  1  0  0  0  0  0  0  0  0  0
    8.5239  -15.7840   22.0592 C   0  0  0  0  0  0  0  0  0  0  0  0
    8.0724  -14.5878   21.3566 C   0  0  0  0  0  0  0  0  0  0  0  0
    8.9129  -13.5427   21.1244 C   0  0  0  0  0  0  0  0  0  0  0  0
    8.4471  -12.4325   20.4578 C   0  0  0  0  0  0  0  0  0  0  0  0
    7.1481  -12.3253   20.0059 C   0  0  0  0  0  0  0  0  0  0  0  0
    6.3331  -13.4111   20.2652 C   0  0  0  0  0  0  0  0  0  0  0  0
    6.7708  -14.5294   20.9268 C   0  0  0  0  0  0  0  0  0  0  0  0
   10.3208  -17.5149   22.1919 C   0  0  0  0  0  0  0  0  0  0  0  0
    9.7353  -18.4638   22.7652 O   0  0  0  0  0  0  0  0  0  0  0  0
   11.7260  -17.3613   22.3966 N   0  0  0  0  0  0  0  0  0  0  0  0
   12.5015  -18.2867   23.2207 C   0  0  1  0  0  0  0  0  0  0  0  0
   13.8367  -18.4273   22.5435 C   0  0  0  0  0  0  0  0  0  0  0  0
   14.7562  -19.3346   23.2752 C   0  0  0  0  0  0  0  0  0  0  0  0
   14.4563  -20.1782   24.3192 C   0  0  0  0  0  0  0  0  0  0  0  0
   15.6115  -20.8033   24.6654 N   0  0  0  0  0  0  0  0  0  0  0  0
   16.5677  -20.3374   23.8435 C   0  0  0  0  0  0  0  0  0  0  0  0
   16.0664  -19.4398   22.9873 N   0  0  0  0  0  0  0  0  0  0  0  0
   12.6528  -17.7364   24.5754 C   0  0  0  0  0  0  0  0  0  0  0  0
   12.6419  -16.5063   24.8124 O   0  0  0  0  0  0  0  0  0  0  0  0
   12.8168  -18.5966   25.6591 O   0  0  0  0  0  0  0  0  0  0  0  0
  2  1  1  1
  2  3  1  0
  4  5  1  6
  4  2  1  0
  6  4  1  0
  7  6  2  0
  8  6  1  0
  9  8  1  0
  9 10  1  1
 10 11  1  0
 11 16  1  0
 12 11  2  0
 12 13  1  0
 13 14  2  0
 14 15  1  0
 16 15  2  0
 17 18  2  0
 17  9  1  0
 19 17  1  0
 20 19  1  0
 21 22  1  0
 20 21  1  6
 22 23  2  0
 24 23  1  0
 25 24  1  0
 26 25  2  0
 26 22  1  0
 27 29  1  0
 27 20  1  0
 28 27  2  0
M  END
$$$$
