TFH.pdb
     RDKit          3D

 29 30  0  0  1  0  0  0  0  0999 V2000
    7.7763  -18.4466   20.8699 C   0  0  0  0  0  0  0  0  0  0  0  0
    9.0249  -18.0868   20.0818 C   0  0  1  0  0  0  0  0  0  0  0  0
    8.9735  -18.6503   18.7994 O   0  0  0  0  0  0  0  0  0  0  0  0
    9.0158  -16.5833   19.9216 C   0  0  2  0  0  0  0  0  0  0  0  0
   10.0486  -16.1595   19.0035 N   0  0  0  0  0  0  0  0  0  0  0  0
    9.1909  -15.8750   21.1994 C   0  0  0  0  0  0  0  0  0  0  0  0
   10.3350  -15.7997   21.7080 O   0  0  0  0  0  0  0  0  0  0  0  0
    8.1310  -15.2574   21.9119 N   0  0  0  0  0  0  0  0  0  0  0  0
    8.2858  -14.6791   23.2389 C   0  0  1  0  0  0  0  0  0  0  0  0
    7.1316  -13.7737   23.5030 C   0  0  0  0  0  0  0  0  0  0  0  0
    7.0831  -13.1760   24.8330 C   0  0  0  0  0  0  0  0  0  0  0  0
    7.8712  -12.1164   25.1630 C   0  0  0  0  0  0  0  0  0  0  0  0
    7.7947  -11.5821   26.4289 C   0  0  0  0  0  0  0  0  0  0  0  0
    6.9440  -12.0762   27.3959 C   0  0  0  0  0  0  0  0  0  0  0  0
    6.1643  -13.1516   27.0139 C   0  0  0  0  0  0  0  0  0  0  0  0
    6.2202  -13.7035   25.7601 C   0  0  0  0  0  0  0  0  0  0  0  0
    8.5329  -15.6975   24.2631 C   0  0  0  0  0  0  0  0  0  0  0  0
    7.6841  -16.6068   24.4204 O   0  0  0  0  0  0  0  0  0  0  0  0
    9.6962  -15.7038   25.0919 N   0  0  0  0  0  0  0  0  0  0  0  0
    9.9947  -16.8005   26.0112 C   0  0  1  0  0  0  0  0  0  0  0  0
   11.3858  -17.2599   25.6720 C   0  0  0  0  0  0  0  0  0  0  0  0
   11.4102  -18.2234   24.5427 C   0  0  0  0  0  0  0  0  0  0  0  0
   10.3419  -18.7185   23.8320 C   0  0  0  0  0  0  0  0  0  0  0  0
   10.8477  -19.5684   22.9008 N   0  0  0  0  0  0  0  0  0  0  0  0
   12.1823  -19.5722   23.0612 C   0  0  0  0  0  0  0  0  0  0  0  0
   12.5462  -18.7577   24.0584 N   0  0  0  0  0  0  0  0  0  0  0  0
    9.9223  -16.3183   27.3980 C   0  0  0  0  0  0  0  0  0  0  0  0
    9.7566  -15.1109   27.6881 O   0  0  0  0  0  0  0  0  0  0  0  0
   10.0398  -17.2207   28.4531 O   0  0  0  0  0  0  0  0  0  0  0  0
  2  1  1  1
  2  3  1  0
  4  5  1  6
  4  2  1  0
  6  4  1  0
  7  6  2  0
  8  6  1  0
  9  8  1  0
  9 10  1  1
 10 11  1  0
 11 16  1  0
 12 11  2  0
 12 13  1  0
 13 14  2  0
 14 15  1  0
 16 15  2  0
 17 18  2  0
 17  9  1  0
 19 17  1  0
 20 19  1  0
 21 22  1  0
 20 21  1  6
 22 23  2  0
 24 23  1  0
 25 24  1  0
 26 25  2  0
 26 22  1  0
 27 29  1  0
 27 20  1  0
 28 27  2  0
M  END
$$$$
