TFH.pdb
     RDKit          3D

 29 30  0  0  1  0  0  0  0  0999 V2000
    7.5967  -18.3006   20.3092 C   0  0  0  0  0  0  0  0  0  0  0  0
    8.9396  -17.9851   19.6715 C   0  0  1  0  0  0  0  0  0  0  0  0
    8.9574  -18.4057   18.3345 O   0  0  0  0  0  0  0  0  0  0  0  0
    9.0780  -16.4794   19.6793 C   0  0  2  0  0  0  0  0  0  0  0  0
   10.2238  -16.0660   18.9013 N   0  0  0  0  0  0  0  0  0  0  0  0
    9.1973  -15.9272   21.0380 C   0  0  0  0  0  0  0  0  0  0  0  0
   10.2546  -16.1146   21.6864 O   0  0  0  0  0  0  0  0  0  0  0  0
    8.1760  -15.1804   21.6797 N   0  0  0  0  0  0  0  0  0  0  0  0
    8.2503  -14.7463   23.0672 C   0  0  1  0  0  0  0  0  0  0  0  0
    7.1897  -13.7268   23.3063 C   0  0  0  0  0  0  0  0  0  0  0  0
    7.1290  -13.1760   24.6559 C   0  0  0  0  0  0  0  0  0  0  0  0
    7.9051  -12.1210   25.0263 C   0  0  0  0  0  0  0  0  0  0  0  0
    7.8174  -11.6317   26.3096 C   0  0  0  0  0  0  0  0  0  0  0  0
    6.9671  -12.1672   27.2546 C   0  0  0  0  0  0  0  0  0  0  0  0
    6.1998  -13.2363   26.8317 C   0  0  0  0  0  0  0  0  0  0  0  0
    6.2671  -13.7438   25.5597 C   0  0  0  0  0  0  0  0  0  0  0  0
    8.2599  -15.8744   24.0023 C   0  0  0  0  0  0  0  0  0  0  0  0
    7.6571  -16.9251   23.6791 O   0  0  0  0  0  0  0  0  0  0  0  0
    8.9242  -15.8342   25.2662 N   0  0  0  0  0  0  0  0  0  0  0  0
    9.8063  -16.9079   25.7199 C   0  0  1  0  0  0  0  0  0  0  0  0
   10.9413  -16.9574   24.7347 C   0  0  0  0  0  0  0  0  0  0  0  0
   11.3309  -18.3455   24.3806 C   0  0  0  0  0  0  0  0  0  0  0  0
   10.8300  -19.5197   24.8924 C   0  0  0  0  0  0  0  0  0  0  0  0
   11.4897  -20.5329   24.2731 N   0  0  0  0  0  0  0  0  0  0  0  0
   12.3581  -19.9665   23.4175 C   0  0  0  0  0  0  0  0  0  0  0  0
   12.2771  -18.6320   23.4677 N   0  0  0  0  0  0  0  0  0  0  0  0
   10.2957  -16.6087   27.0734 C   0  0  0  0  0  0  0  0  0  0  0  0
   10.9001  -17.4506   27.7772 O   0  0  0  0  0  0  0  0  0  0  0  0
   10.0923  -15.3435   27.6205 O   0  0  0  0  0  0  0  0  0  0  0  0
  2  1  1  6
  2  3  1  0
  4  5  1  6
  4  2  1  0
  6  4  1  0
  7  6  2  0
  8  6  1  0
  9  8  1  0
  9 10  1  1
 10 11  1  0
 11 16  1  0
 12 11  2  0
 12 13  1  0
 13 14  2  0
 14 15  1  0
 16 15  2  0
 17 18  2  0
 17  9  1  0
 19 17  1  0
 20 19  1  0
 21 22  1  0
 20 21  1  6
 22 23  2  0
 24 23  1  0
 25 24  1  0
 26 25  2  0
 26 22  1  0
 27 29  1  0
 27 20  1  0
 28 27  2  0
M  END
$$$$
