TFH.pdb
     RDKit          3D

 29 30  0  0  1  0  0  0  0  0999 V2000
    7.5569  -18.7971   18.7028 C   0  0  0  0  0  0  0  0  0  0  0  0
    8.0124  -18.1842   20.0166 C   0  0  1  0  0  0  0  0  0  0  0  0
    9.3260  -18.5757   20.3099 O   0  0  0  0  0  0  0  0  0  0  0  0
    8.0158  -16.6855   19.8156 C   0  0  2  0  0  0  0  0  0  0  0  0
    8.9176  -16.3136   18.7490 N   0  0  0  0  0  0  0  0  0  0  0  0
    8.3868  -15.9499   21.0347 C   0  0  0  0  0  0  0  0  0  0  0  0
    9.5857  -15.6297   21.2178 O   0  0  0  0  0  0  0  0  0  0  0  0
    7.4613  -15.5692   22.0401 N   0  0  0  0  0  0  0  0  0  0  0  0
    7.8464  -14.8978   23.2730 C   0  0  1  0  0  0  0  0  0  0  0  0
    6.6935  -14.0852   23.7547 C   0  0  0  0  0  0  0  0  0  0  0  0
    6.8888  -13.3935   25.0243 C   0  0  0  0  0  0  0  0  0  0  0  0
    7.5984  -12.2344   25.0981 C   0  0  0  0  0  0  0  0  0  0  0  0
    7.7592  -11.6135   26.3156 C   0  0  0  0  0  0  0  0  0  0  0  0
    7.2274  -12.1170   27.4847 C   0  0  0  0  0  0  0  0  0  0  0  0
    6.5156  -13.2951   27.3593 C   0  0  0  0  0  0  0  0  0  0  0  0
    6.3398  -13.9346   26.1593 C   0  0  0  0  0  0  0  0  0  0  0  0
    8.4165  -15.8239   24.2551 C   0  0  0  0  0  0  0  0  0  0  0  0
    7.7475  -16.8309   24.5871 O   0  0  0  0  0  0  0  0  0  0  0  0
    9.6997  -15.6340   24.8530 N   0  0  0  0  0  0  0  0  0  0  0  0
   10.2766  -16.5983   25.7880 C   0  0  1  0  0  0  0  0  0  0  0  0
   11.7534  -16.6185   25.5054 C   0  0  0  0  0  0  0  0  0  0  0  0
   12.0791  -17.2697   24.2116 C   0  0  0  0  0  0  0  0  0  0  0  0
   11.2188  -17.9012   23.3440 C   0  0  0  0  0  0  0  0  0  0  0  0
   11.9665  -18.3440   22.2999 N   0  0  0  0  0  0  0  0  0  0  0  0
   13.2366  -17.9810   22.5489 C   0  0  0  0  0  0  0  0  0  0  0  0
   13.3269  -17.3241   23.7110 N   0  0  0  0  0  0  0  0  0  0  0  0
   10.0099  -16.1704   27.1688 C   0  0  0  0  0  0  0  0  0  0  0  0
    9.4649  -15.0770   27.4463 O   0  0  0  0  0  0  0  0  0  0  0  0
   10.3679  -16.9963   28.2323 O   0  0  0  0  0  0  0  0  0  0  0  0
  2  1  1  6
  2  3  1  0
  4  5  1  6
  4  2  1  0
  6  4  1  0
  7  6  2  0
  8  6  1  0
  9  8  1  0
  9 10  1  1
 10 11  1  0
 11 16  1  0
 12 11  2  0
 12 13  1  0
 13 14  2  0
 14 15  1  0
 16 15  2  0
 17 18  2  0
 17  9  1  0
 19 17  1  0
 20 19  1  0
 21 22  1  0
 20 21  1  1
 22 23  2  0
 24 23  1  0
 25 24  1  0
 26 25  2  0
 26 22  1  0
 27 29  1  0
 27 20  1  0
 28 27  2  0
M  END
$$$$
