TFH.pdb
     RDKit          3D

 29 30  0  0  1  0  0  0  0  0999 V2000
    9.4557  -19.1673   19.6979 C   0  0  0  0  0  0  0  0  0  0  0  0
    9.6831  -18.4037   20.9919 C   0  0  1  0  0  0  0  0  0  0  0  0
   11.0116  -18.5444   21.4162 O   0  0  0  0  0  0  0  0  0  0  0  0
    9.4559  -16.9425   20.6764 C   0  0  2  0  0  0  0  0  0  0  0  0
   10.4133  -16.4741   19.7001 N   0  0  0  0  0  0  0  0  0  0  0  0
    9.5310  -16.0854   21.8702 C   0  0  0  0  0  0  0  0  0  0  0  0
   10.6458  -15.6465   22.2418 O   0  0  0  0  0  0  0  0  0  0  0  0
    8.4043  -15.7130   22.6474 N   0  0  0  0  0  0  0  0  0  0  0  0
    8.4935  -14.9017   23.8528 C   0  0  1  0  0  0  0  0  0  0  0  0
    7.1554  -14.3052   24.1273 C   0  0  0  0  0  0  0  0  0  0  0  0
    7.0534  -13.5023   25.3412 C   0  0  0  0  0  0  0  0  0  0  0  0
    7.6685  -12.2925   25.4444 C   0  0  0  0  0  0  0  0  0  0  0  0
    7.5472  -11.5666   26.6072 C   0  0  0  0  0  0  0  0  0  0  0  0
    6.8205  -12.0128   27.6916 C   0  0  0  0  0  0  0  0  0  0  0  0
    6.2147  -13.2457   27.5393 C   0  0  0  0  0  0  0  0  0  0  0  0
    6.3189  -13.9898   26.3924 C   0  0  0  0  0  0  0  0  0  0  0  0
    9.0973  -15.6321   24.9704 C   0  0  0  0  0  0  0  0  0  0  0  0
    8.5696  -16.7088   25.3368 O   0  0  0  0  0  0  0  0  0  0  0  0
   10.2598  -15.1755   25.6634 N   0  0  0  0  0  0  0  0  0  0  0  0
   10.9078  -15.9662   26.7082 C   0  0  1  0  0  0  0  0  0  0  0  0
   12.3758  -15.6539   26.6154 C   0  0  0  0  0  0  0  0  0  0  0  0
   13.0202  -16.2811   25.4342 C   0  0  0  0  0  0  0  0  0  0  0  0
   12.4595  -17.1522   24.5295 C   0  0  0  0  0  0  0  0  0  0  0  0
   13.4269  -17.4606   23.6273 N   0  0  0  0  0  0  0  0  0  0  0  0
   14.5304  -16.7862   23.9938 C   0  0  0  0  0  0  0  0  0  0  0  0
   14.3033  -16.0601   25.0945 N   0  0  0  0  0  0  0  0  0  0  0  0
   10.3700  -15.5864   28.0226 C   0  0  0  0  0  0  0  0  0  0  0  0
    9.5695  -14.6355   28.1783 O   0  0  0  0  0  0  0  0  0  0  0  0
   10.7501  -16.2971   29.1592 O   0  0  0  0  0  0  0  0  0  0  0  0
  2  1  1  6
  2  3  1  0
  4  5  1  6
  4  2  1  0
  6  4  1  0
  7  6  2  0
  8  6  1  0
  9  8  1  0
  9 10  1  1
 10 11  1  0
 11 16  1  0
 12 11  2  0
 12 13  1  0
 13 14  2  0
 14 15  1  0
 16 15  2  0
 17 18  2  0
 17  9  1  0
 19 17  1  0
 20 19  1  0
 21 22  1  0
 20 21  1  1
 22 23  2  0
 24 23  1  0
 25 24  1  0
 26 25  2  0
 26 22  1  0
 27 29  1  0
 27 20  1  0
 28 27  2  0
M  END
$$$$
