TFH.pdb
     RDKit          3D

 29 30  0  0  1  0  0  0  0  0999 V2000
    9.0100  -19.0725   21.0241 C   0  0  0  0  0  0  0  0  0  0  0  0
    9.9909  -18.3213   20.1393 C   0  0  1  0  0  0  0  0  0  0  0  0
   10.0346  -18.8943   18.8608 O   0  0  0  0  0  0  0  0  0  0  0  0
    9.4515  -16.9164   19.9928 C   0  0  2  0  0  0  0  0  0  0  0  0
   10.1391  -16.2111   18.9350 N   0  0  0  0  0  0  0  0  0  0  0  0
    9.5561  -16.1355   21.2356 C   0  0  0  0  0  0  0  0  0  0  0  0
   10.6907  -15.8426   21.6832 O   0  0  0  0  0  0  0  0  0  0  0  0
    8.4370  -15.6808   21.9794 N   0  0  0  0  0  0  0  0  0  0  0  0
    8.5466  -15.0257   23.2747 C   0  0  1  0  0  0  0  0  0  0  0  0
    7.3350  -14.1845   23.4887 C   0  0  0  0  0  0  0  0  0  0  0  0
    7.2231  -13.5512   24.7983 C   0  0  0  0  0  0  0  0  0  0  0  0
    6.4731  -14.1035   25.7908 C   0  0  0  0  0  0  0  0  0  0  0  0
    6.3940  -13.4738   27.0119 C   0  0  0  0  0  0  0  0  0  0  0  0
    7.0486  -12.2904   27.2838 C   0  0  0  0  0  0  0  0  0  0  0  0
    7.7971  -11.7687   26.2455 C   0  0  0  0  0  0  0  0  0  0  0  0
    7.8934  -12.3748   25.0194 C   0  0  0  0  0  0  0  0  0  0  0  0
    8.8533  -15.9713   24.3512 C   0  0  0  0  0  0  0  0  0  0  0  0
    8.0644  -16.9246   24.5535 O   0  0  0  0  0  0  0  0  0  0  0  0
   10.0096  -15.8590   25.1821 N   0  0  0  0  0  0  0  0  0  0  0  0
   10.3072  -16.8213   26.2415 C   0  0  1  0  0  0  0  0  0  0  0  0
   11.7463  -17.2144   26.0535 C   0  0  0  0  0  0  0  0  0  0  0  0
   11.9545  -18.0661   24.8554 C   0  0  0  0  0  0  0  0  0  0  0  0
   11.3394  -19.2574   24.5490 C   0  0  0  0  0  0  0  0  0  0  0  0
   11.8492  -19.6700   23.3595 N   0  0  0  0  0  0  0  0  0  0  0  0
   12.7431  -18.7421   22.9762 C   0  0  0  0  0  0  0  0  0  0  0  0
   12.8225  -17.7546   23.8755 N   0  0  0  0  0  0  0  0  0  0  0  0
   10.0994  -16.1932   27.5543 C   0  0  0  0  0  0  0  0  0  0  0  0
    9.7651  -14.9931   27.6862 O   0  0  0  0  0  0  0  0  0  0  0  0
   10.2751  -16.9411   28.7166 O   0  0  0  0  0  0  0  0  0  0  0  0
  2  1  1  1
  2  3  1  0
  4  5  1  6
  4  2  1  0
  6  4  1  0
  7  6  2  0
  8  6  1  0
  9  8  1  0
  9 10  1  1
 10 11  1  0
 11 16  1  0
 12 11  2  0
 12 13  1  0
 13 14  2  0
 14 15  1  0
 16 15  2  0
 17 18  2  0
 17  9  1  0
 19 17  1  0
 20 19  1  0
 21 22  1  0
 20 21  1  1
 22 23  2  0
 24 23  1  0
 25 24  1  0
 26 25  2  0
 26 22  1  0
 27 29  1  0
 27 20  1  0
 28 27  2  0
M  END
$$$$
