CHF.pdb
     RDKit          3D

 28 29  0  0  1  0  0  0  0  0999 V2000
   27.1965  -30.3626  -16.2809 N   0  0  0  0  0  0  0  0  0  0  0  0
   26.7904  -29.4262  -17.2912 C   0  0  1  0  0  0  0  0  0  0  0  0
   25.5333  -29.9008  -18.0078 C   0  0  0  0  0  0  0  0  0  0  0  0
   25.9098  -31.3582  -19.0126 S   0  0  0  0  0  0  0  0  0  0  0  0
   26.4482  -28.1026  -16.6350 C   0  0  0  0  0  0  0  0  0  0  0  0
   26.0228  -28.1205  -15.4638 O   0  0  0  0  0  0  0  0  0  0  0  0
   26.6101  -26.8969  -17.3368 N   0  0  0  0  0  0  0  0  0  0  0  0
   26.3366  -25.5953  -16.8369 C   0  0  1  0  0  0  0  0  0  0  0  0
   27.3524  -24.5213  -17.2231 C   0  0  0  0  0  0  0  0  0  0  0  0
   28.7030  -24.7960  -16.6705 C   0  0  0  0  0  0  0  0  0  0  0  0
   28.9778  -25.9285  -15.8794 C   0  0  0  0  0  0  0  0  0  0  0  0
   30.2594  -25.8849  -15.5534 N   0  0  0  0  0  0  0  0  0  0  0  0
   30.7720  -24.7824  -16.1083 C   0  0  0  0  0  0  0  0  0  0  0  0
   29.8385  -24.1110  -16.7899 N   0  0  0  0  0  0  0  0  0  0  0  0
   24.9875  -25.0817  -17.1299 C   0  0  0  0  0  0  0  0  0  0  0  0
   24.4879  -25.2725  -18.2801 O   0  0  0  0  0  0  0  0  0  0  0  0
   24.1967  -24.3834  -16.2136 N   0  0  0  0  0  0  0  0  0  0  0  0
   22.8297  -23.9583  -16.4757 C   0  0  1  0  0  0  0  0  0  0  0  0
   21.8654  -25.0792  -16.4321 C   0  0  0  0  0  0  0  0  0  0  0  0
   21.8319  -25.6898  -15.0926 C   0  0  0  0  0  0  0  0  0  0  0  0
   21.0891  -25.0797  -14.0720 C   0  0  0  0  0  0  0  0  0  0  0  0
   20.9935  -25.6027  -12.8239 C   0  0  0  0  0  0  0  0  0  0  0  0
   21.6382  -26.7784  -12.5102 C   0  0  0  0  0  0  0  0  0  0  0  0
   22.3961  -27.4366  -13.4861 C   0  0  0  0  0  0  0  0  0  0  0  0
   22.4593  -26.8634  -14.7337 C   0  0  0  0  0  0  0  0  0  0  0  0
   22.4778  -22.9110  -15.5040 C   0  0  0  0  0  0  0  0  0  0  0  0
   21.2631  -22.2217  -15.5417 O   0  0  0  0  0  0  0  0  0  0  0  0
   23.3139  -22.6083  -14.5819 O   0  0  0  0  0  0  0  0  0  0  0  0
  2  1  1  1
  3  2  1  0
  3  4  1  0
  5  2  1  0
  5  6  2  0
  7  5  1  0
  8  7  1  0
  8  9  1  6
 10  9  1  0
 10 14  1  0
 11 12  1  0
 11 10  2  0
 12 13  1  0
 13 14  2  0
 15  8  1  0
 16 15  2  0
 17 15  1  0
 18 17  1  0
 18 26  1  0
 18 19  1  1
 20 19  1  0
 21 20  2  0
 22 21  1  0
 23 22  2  0
 23 24  1  0
 24 25  2  0
 25 20  1  0
 26 27  1  0
 28 26  2  0
M  END
$$$$
