CHF.pdb
     RDKit          3D

 28 29  0  0  1  0  0  0  0  0999 V2000
   25.1958  -20.9511  -22.7869 N   0  0  0  0  0  0  0  0  0  0  0  0
   24.3258  -19.8125  -22.8814 C   0  0  1  0  0  0  0  0  0  0  0  0
   22.9842  -20.1943  -23.4922 C   0  0  0  0  0  0  0  0  0  0  0  0
   21.8894  -18.7536  -23.5247 S   0  0  0  0  0  0  0  0  0  0  0  0
   24.0401  -19.2869  -21.4880 C   0  0  0  0  0  0  0  0  0  0  0  0
   23.8149  -20.1138  -20.5833 O   0  0  0  0  0  0  0  0  0  0  0  0
   24.0319  -17.9053  -21.2357 N   0  0  0  0  0  0  0  0  0  0  0  0
   23.7771  -17.2857  -19.9827 C   0  0  1  0  0  0  0  0  0  0  0  0
   24.6118  -16.0401  -19.6892 C   0  0  0  0  0  0  0  0  0  0  0  0
   26.0373  -16.3636  -19.4280 C   0  0  0  0  0  0  0  0  0  0  0  0
   26.4990  -17.6885  -19.3032 C   0  0  0  0  0  0  0  0  0  0  0  0
   27.8023  -17.6366  -19.0814 N   0  0  0  0  0  0  0  0  0  0  0  0
   28.1506  -16.3464  -19.0662 C   0  0  0  0  0  0  0  0  0  0  0  0
   27.0889  -15.5614  -19.2753 N   0  0  0  0  0  0  0  0  0  0  0  0
   22.3637  -16.9679  -19.7161 C   0  0  0  0  0  0  0  0  0  0  0  0
   21.7436  -16.1914  -20.5045 O   0  0  0  0  0  0  0  0  0  0  0  0
   21.6362  -17.4700  -18.6339 N   0  0  0  0  0  0  0  0  0  0  0  0
   20.2029  -17.2864  -18.4609 C   0  0  1  0  0  0  0  0  0  0  0  0
   19.4134  -17.9021  -19.5498 C   0  0  0  0  0  0  0  0  0  0  0  0
   19.5308  -19.3695  -19.5172 C   0  0  0  0  0  0  0  0  0  0  0  0
   18.8045  -20.1012  -18.5671 C   0  0  0  0  0  0  0  0  0  0  0  0
   18.8455  -21.4554  -18.4990 C   0  0  0  0  0  0  0  0  0  0  0  0
   19.6204  -22.1740  -19.3819 C   0  0  0  0  0  0  0  0  0  0  0  0
   20.3694  -21.5015  -20.3548 C   0  0  0  0  0  0  0  0  0  0  0  0
   20.2914  -20.1295  -20.3795 C   0  0  0  0  0  0  0  0  0  0  0  0
   19.8227  -17.8329  -17.1488 C   0  0  0  0  0  0  0  0  0  0  0  0
   18.5270  -17.7349  -16.6354 O   0  0  0  0  0  0  0  0  0  0  0  0
   20.7097  -18.4230  -16.4374 O   0  0  0  0  0  0  0  0  0  0  0  0
  2  1  1  1
  3  2  1  0
  3  4  1  0
  5  2  1  0
  5  6  2  0
  7  5  1  0
  8  7  1  0
  8  9  1  6
 10  9  1  0
 10 14  1  0
 11 12  1  0
 11 10  2  0
 12 13  1  0
 13 14  2  0
 15  8  1  0
 16 15  2  0
 17 15  1  0
 18 17  1  0
 18 26  1  0
 18 19  1  6
 20 19  1  0
 21 20  2  0
 22 21  1  0
 23 22  2  0
 23 24  1  0
 24 25  2  0
 25 20  1  0
 26 27  1  0
 28 26  2  0
M  END
$$$$
