CHF.pdb
     RDKit          3D

 28 29  0  0  1  0  0  0  0  0999 V2000
   15.5706  -11.3608  -12.5501 N   0  0  0  0  0  0  0  0  0  0  0  0
   16.6721  -10.5778  -12.0644 C   0  0  1  0  0  0  0  0  0  0  0  0
   17.6823  -10.3038  -13.1705 C   0  0  0  0  0  0  0  0  0  0  0  0
   18.6129  -11.8108  -13.5424 S   0  0  0  0  0  0  0  0  0  0  0  0
   16.1574   -9.2303  -11.5965 C   0  0  0  0  0  0  0  0  0  0  0  0
   15.3221   -8.6411  -12.3093 O   0  0  0  0  0  0  0  0  0  0  0  0
   16.6161   -8.6718  -10.3923 N   0  0  0  0  0  0  0  0  0  0  0  0
   16.1780   -7.4483   -9.8177 C   0  0  1  0  0  0  0  0  0  0  0  0
   15.2424   -7.5891   -8.6181 C   0  0  0  0  0  0  0  0  0  0  0  0
   13.9382   -8.1959   -8.9866 C   0  0  0  0  0  0  0  0  0  0  0  0
   13.5941   -9.5154   -8.6334 C   0  0  0  0  0  0  0  0  0  0  0  0
   12.3780   -9.7480   -9.1001 N   0  0  0  0  0  0  0  0  0  0  0  0
   11.9708   -8.6348   -9.7173 C   0  0  0  0  0  0  0  0  0  0  0  0
   12.9080   -7.6835   -9.6565 N   0  0  0  0  0  0  0  0  0  0  0  0
   17.2503   -6.5045   -9.4588 C   0  0  0  0  0  0  0  0  0  0  0  0
   17.8462   -6.6370   -8.3468 O   0  0  0  0  0  0  0  0  0  0  0  0
   17.6718   -5.4484  -10.2710 N   0  0  0  0  0  0  0  0  0  0  0  0
   18.6700   -4.4657   -9.8762 C   0  0  1  0  0  0  0  0  0  0  0  0
   19.9060   -4.5518  -10.6843 C   0  0  0  0  0  0  0  0  0  0  0  0
   20.5236   -5.8825  -10.5572 C   0  0  0  0  0  0  0  0  0  0  0  0
   20.5194   -6.7553  -11.6543 C   0  0  0  0  0  0  0  0  0  0  0  0
   21.0936   -7.9837  -11.6141 C   0  0  0  0  0  0  0  0  0  0  0  0
   21.7148   -8.4250  -10.4670 C   0  0  0  0  0  0  0  0  0  0  0  0
   21.7531   -7.5998   -9.3367 C   0  0  0  0  0  0  0  0  0  0  0  0
   21.1561   -6.3654   -9.4318 C   0  0  0  0  0  0  0  0  0  0  0  0
   18.0626   -3.1287   -9.9673 C   0  0  0  0  0  0  0  0  0  0  0  0
   18.6610   -1.9878   -9.4266 O   0  0  0  0  0  0  0  0  0  0  0  0
   16.9365   -2.9937  -10.5627 O   0  0  0  0  0  0  0  0  0  0  0  0
  2  1  1  6
  3  2  1  0
  3  4  1  0
  5  2  1  0
  5  6  2  0
  7  5  1  0
  8  7  1  0
  8  9  1  1
 10  9  1  0
 10 14  1  0
 11 12  1  0
 11 10  2  0
 12 13  1  0
 13 14  2  0
 15  8  1  0
 16 15  2  0
 17 15  1  0
 18 17  1  0
 18 26  1  0
 18 19  1  6
 20 19  1  0
 21 20  2  0
 22 21  1  0
 23 22  2  0
 23 24  1  0
 24 25  2  0
 25 20  1  0
 26 27  1  0
 28 26  2  0
M  END
$$$$
