CHF.pdb
     RDKit          3D

 28 29  0  0  1  0  0  0  0  0999 V2000
   14.0624  -12.4060  -15.2528 N   0  0  0  0  0  0  0  0  0  0  0  0
   14.5371  -11.0699  -15.4803 C   0  0  1  0  0  0  0  0  0  0  0  0
   13.7547  -10.0595  -14.6522 C   0  0  0  0  0  0  0  0  0  0  0  0
   14.2780   -8.3793  -15.0746 S   0  0  0  0  0  0  0  0  0  0  0  0
   15.9843  -10.9734  -15.0378 C   0  0  0  0  0  0  0  0  0  0  0  0
   16.2490  -11.2017  -13.8417 O   0  0  0  0  0  0  0  0  0  0  0  0
   16.9896  -10.6353  -15.9586 N   0  0  0  0  0  0  0  0  0  0  0  0
   18.3626  -10.4266  -15.6582 C   0  0  1  0  0  0  0  0  0  0  0  0
   19.3426  -11.2868  -16.4545 C   0  0  0  0  0  0  0  0  0  0  0  0
   19.1176  -12.7397  -16.2466 C   0  0  0  0  0  0  0  0  0  0  0  0
   18.4882  -13.5507  -17.2111 C   0  0  0  0  0  0  0  0  0  0  0  0
   18.4460  -14.7823  -16.7294 N   0  0  0  0  0  0  0  0  0  0  0  0
   19.0184  -14.7553  -15.5220 C   0  0  0  0  0  0  0  0  0  0  0  0
   19.4312  -13.5214  -15.2153 N   0  0  0  0  0  0  0  0  0  0  0  0
   18.8142   -9.0264  -15.7288 C   0  0  0  0  0  0  0  0  0  0  0  0
   18.1915   -8.2111  -16.4747 O   0  0  0  0  0  0  0  0  0  0  0  0
   19.9035   -8.5155  -15.0180 N   0  0  0  0  0  0  0  0  0  0  0  0
   20.3545   -7.1343  -15.1011 C   0  0  1  0  0  0  0  0  0  0  0  0
   21.1503   -6.7223  -13.9242 C   0  0  0  0  0  0  0  0  0  0  0  0
   21.6184   -5.3336  -14.0681 C   0  0  0  0  0  0  0  0  0  0  0  0
   22.8489   -5.0787  -14.6896 C   0  0  0  0  0  0  0  0  0  0  0  0
   23.3269   -3.8233  -14.8788 C   0  0  0  0  0  0  0  0  0  0  0  0
   22.6020   -2.7311  -14.4567 C   0  0  0  0  0  0  0  0  0  0  0  0
   21.3649   -2.9193  -13.8290 C   0  0  0  0  0  0  0  0  0  0  0  0
   20.9279   -4.2118  -13.6627 C   0  0  0  0  0  0  0  0  0  0  0  0
   21.1190   -6.9727  -16.3477 C   0  0  0  0  0  0  0  0  0  0  0  0
   22.0367   -7.9239  -16.8008 O   0  0  0  0  0  0  0  0  0  0  0  0
   20.9461   -5.9181  -17.0540 O   0  0  0  0  0  0  0  0  0  0  0  0
  2  1  1  1
  3  2  1  0
  3  4  1  0
  5  2  1  0
  5  6  2  0
  7  5  1  0
  8  7  1  0
  8  9  1  6
 10  9  1  0
 10 14  1  0
 11 12  1  0
 11 10  2  0
 12 13  1  0
 13 14  2  0
 15  8  1  0
 16 15  2  0
 17 15  1  0
 18 17  1  0
 18 26  1  0
 18 19  1  1
 20 19  1  0
 21 20  2  0
 22 21  1  0
 23 22  2  0
 23 24  1  0
 24 25  2  0
 25 20  1  0
 26 27  1  0
 28 26  2  0
M  END
$$$$
