CHF.pdb
     RDKit          3D

 28 29  0  0  1  0  0  0  0  0999 V2000
   26.7542  -20.7768  -17.5794 N   0  0  0  0  0  0  0  0  0  0  0  0
   26.9758  -21.5512  -16.3905 C   0  0  1  0  0  0  0  0  0  0  0  0
   28.4451  -21.9221  -16.2414 C   0  0  0  0  0  0  0  0  0  0  0  0
   28.6565  -23.7054  -16.4668 S   0  0  0  0  0  0  0  0  0  0  0  0
   26.6082  -20.7182  -15.1778 C   0  0  0  0  0  0  0  0  0  0  0  0
   27.3542  -19.7686  -14.8697 O   0  0  0  0  0  0  0  0  0  0  0  0
   25.4574  -21.0175  -14.4304 N   0  0  0  0  0  0  0  0  0  0  0  0
   25.0142  -20.3322  -13.2673 C   0  0  1  0  0  0  0  0  0  0  0  0
   23.6283  -19.6977  -13.3724 C   0  0  0  0  0  0  0  0  0  0  0  0
   23.4766  -18.8707  -14.5964 C   0  0  0  0  0  0  0  0  0  0  0  0
   23.9757  -17.5565  -14.6848 C   0  0  0  0  0  0  0  0  0  0  0  0
   23.6856  -17.1010  -15.8927 N   0  0  0  0  0  0  0  0  0  0  0  0
   23.0363  -18.0747  -16.5379 C   0  0  0  0  0  0  0  0  0  0  0  0
   22.9020  -19.1557  -15.7631 N   0  0  0  0  0  0  0  0  0  0  0  0
   25.0713  -21.1128  -12.0195 C   0  0  0  0  0  0  0  0  0  0  0  0
   24.6516  -22.3098  -12.0174 O   0  0  0  0  0  0  0  0  0  0  0  0
   25.5656  -20.6223  -10.8080 N   0  0  0  0  0  0  0  0  0  0  0  0
   25.7180  -21.4273   -9.6052 C   0  0  1  0  0  0  0  0  0  0  0  0
   27.0769  -21.3379   -9.0273 C   0  0  0  0  0  0  0  0  0  0  0  0
   27.1634  -20.2308   -8.0604 C   0  0  0  0  0  0  0  0  0  0  0  0
   26.9775  -20.4881   -6.6948 C   0  0  0  0  0  0  0  0  0  0  0  0
   27.0702  -19.5204   -5.7487 C   0  0  0  0  0  0  0  0  0  0  0  0
   27.3567  -18.2218   -6.1064 C   0  0  0  0  0  0  0  0  0  0  0  0
   27.5534  -17.9003   -7.4547 C   0  0  0  0  0  0  0  0  0  0  0  0
   27.4482  -18.9187   -8.3717 C   0  0  0  0  0  0  0  0  0  0  0  0
   24.6949  -21.0062   -8.6353 C   0  0  0  0  0  0  0  0  0  0  0  0
   23.8589  -19.9070   -8.8473 O   0  0  0  0  0  0  0  0  0  0  0  0
   24.5580  -21.6660   -7.5459 O   0  0  0  0  0  0  0  0  0  0  0  0
  2  1  1  6
  3  2  1  0
  3  4  1  0
  5  2  1  0
  5  6  2  0
  7  5  1  0
  8  7  1  0
  8  9  1  6
 10  9  1  0
 10 14  1  0
 11 12  1  0
 11 10  2  0
 12 13  1  0
 13 14  2  0
 15  8  1  0
 16 15  2  0
 17 15  1  0
 18 17  1  0
 18 26  1  0
 18 19  1  1
 20 19  1  0
 21 20  2  0
 22 21  1  0
 23 22  2  0
 23 24  1  0
 24 25  2  0
 25 20  1  0
 26 27  1  0
 28 26  2  0
M  END
$$$$
