CHF.pdb
     RDKit          3D

 28 29  0  0  1  0  0  0  0  0999 V2000
   28.4980  -19.5452  -19.5445 N   0  0  0  0  0  0  0  0  0  0  0  0
   27.8962  -20.6173  -18.8023 C   0  0  1  0  0  0  0  0  0  0  0  0
   28.8677  -21.1917  -17.7800 C   0  0  0  0  0  0  0  0  0  0  0  0
   28.0712  -22.5290  -16.8566 S   0  0  0  0  0  0  0  0  0  0  0  0
   26.7089  -20.0809  -18.0264 C   0  0  0  0  0  0  0  0  0  0  0  0
   26.9214  -19.2276  -17.1434 O   0  0  0  0  0  0  0  0  0  0  0  0
   25.4108  -20.5401  -18.3036 N   0  0  0  0  0  0  0  0  0  0  0  0
   24.2414  -20.2449  -17.5523 C   0  0  1  0  0  0  0  0  0  0  0  0
   22.9212  -20.6044  -18.2322 C   0  0  0  0  0  0  0  0  0  0  0  0
   21.7481  -20.0228  -17.5320 C   0  0  0  0  0  0  0  0  0  0  0  0
   21.8815  -19.1602  -16.4265 C   0  0  0  0  0  0  0  0  0  0  0  0
   20.6635  -18.8166  -16.0404 N   0  0  0  0  0  0  0  0  0  0  0  0
   19.8013  -19.4288  -16.8578 C   0  0  0  0  0  0  0  0  0  0  0  0
   20.4456  -20.1649  -17.7688 N   0  0  0  0  0  0  0  0  0  0  0  0
   24.2202  -20.7910  -16.1845 C   0  0  0  0  0  0  0  0  0  0  0  0
   24.5724  -21.9943  -15.9920 O   0  0  0  0  0  0  0  0  0  0  0  0
   23.8324  -20.0656  -15.0549 N   0  0  0  0  0  0  0  0  0  0  0  0
   23.9885  -20.5415  -13.6885 C   0  0  1  0  0  0  0  0  0  0  0  0
   24.9557  -19.7364  -12.9110 C   0  0  0  0  0  0  0  0  0  0  0  0
   25.1150  -20.2780  -11.5510 C   0  0  0  0  0  0  0  0  0  0  0  0
   24.1986  -19.9209  -10.5519 C   0  0  0  0  0  0  0  0  0  0  0  0
   24.2708  -20.4040   -9.2863 C   0  0  0  0  0  0  0  0  0  0  0  0
   25.2705  -21.2824   -8.9321 C   0  0  0  0  0  0  0  0  0  0  0  0
   26.2168  -21.6782   -9.8849 C   0  0  0  0  0  0  0  0  0  0  0  0
   26.0971  -21.1588  -11.1518 C   0  0  0  0  0  0  0  0  0  0  0  0
   22.6635  -20.5512  -13.0490 C   0  0  0  0  0  0  0  0  0  0  0  0
   22.2003  -21.6254  -12.2850 O   0  0  0  0  0  0  0  0  0  0  0  0
   21.8926  -19.5386  -13.1943 O   0  0  0  0  0  0  0  0  0  0  0  0
  2  1  1  1
  3  2  1  0
  3  4  1  0
  5  2  1  0
  5  6  2  0
  7  5  1  0
  8  7  1  0
  8  9  1  6
 10  9  1  0
 10 14  1  0
 11 12  1  0
 11 10  2  0
 12 13  1  0
 13 14  2  0
 15  8  1  0
 16 15  2  0
 17 15  1  0
 18 17  1  0
 18 26  1  0
 18 19  1  1
 20 19  1  0
 21 20  2  0
 22 21  1  0
 23 22  2  0
 23 24  1  0
 24 25  2  0
 25 20  1  0
 26 27  1  0
 28 26  2  0
M  END
$$$$
