CHF.pdb
     RDKit          3D

 28 29  0  0  1  0  0  0  0  0999 V2000
   27.0969  -16.6816  -19.7822 N   0  0  0  0  0  0  0  0  0  0  0  0
   27.2694  -17.7787  -18.8717 C   0  0  1  0  0  0  0  0  0  0  0  0
   28.2318  -17.4157  -17.7488 C   0  0  0  0  0  0  0  0  0  0  0  0
   29.8971  -17.9983  -18.1520 S   0  0  0  0  0  0  0  0  0  0  0  0
   25.9377  -18.1005  -18.2215 C   0  0  0  0  0  0  0  0  0  0  0  0
   25.2186  -17.1509  -17.8549 O   0  0  0  0  0  0  0  0  0  0  0  0
   25.5364  -19.4344  -18.0425 N   0  0  0  0  0  0  0  0  0  0  0  0
   24.3490  -19.8706  -17.3954 C   0  0  1  0  0  0  0  0  0  0  0  0
   23.4443  -20.7739  -18.2320 C   0  0  0  0  0  0  0  0  0  0  0  0
   22.8677  -20.0672  -19.4037 C   0  0  0  0  0  0  0  0  0  0  0  0
   23.3068  -20.3079  -20.7203 C   0  0  0  0  0  0  0  0  0  0  0  0
   22.5979  -19.5323  -21.5244 N   0  0  0  0  0  0  0  0  0  0  0  0
   21.7528  -18.8353  -20.7590 C   0  0  0  0  0  0  0  0  0  0  0  0
   21.9051  -19.1496  -19.4686 N   0  0  0  0  0  0  0  0  0  0  0  0
   24.5480  -20.5058  -16.0814 C   0  0  0  0  0  0  0  0  0  0  0  0
   25.3897  -21.4482  -15.9696 O   0  0  0  0  0  0  0  0  0  0  0  0
   23.8632  -20.1392  -14.9198 N   0  0  0  0  0  0  0  0  0  0  0  0
   24.1496  -20.6819  -13.6002 C   0  0  1  0  0  0  0  0  0  0  0  0
   25.0895  -19.8395  -12.8286 C   0  0  0  0  0  0  0  0  0  0  0  0
   25.3525  -20.4261  -11.5039 C   0  0  0  0  0  0  0  0  0  0  0  0
   24.4284  -20.2362  -10.4668 C   0  0  0  0  0  0  0  0  0  0  0  0
   24.5953  -20.7707   -9.2312 C   0  0  0  0  0  0  0  0  0  0  0  0
   25.7044  -21.5360   -8.9473 C   0  0  0  0  0  0  0  0  0  0  0  0
   26.6642  -21.7629   -9.9409 C   0  0  0  0  0  0  0  0  0  0  0  0
   26.4458  -21.1982  -11.1748 C   0  0  0  0  0  0  0  0  0  0  0  0
   22.8750  -20.8546  -12.8857 C   0  0  0  0  0  0  0  0  0  0  0  0
   22.6039  -21.9634  -12.0800 O   0  0  0  0  0  0  0  0  0  0  0  0
   21.9674  -19.9582  -13.0023 O   0  0  0  0  0  0  0  0  0  0  0  0
  2  1  1  6
  3  2  1  0
  3  4  1  0
  5  2  1  0
  5  6  2  0
  7  5  1  0
  8  7  1  0
  8  9  1  6
 10  9  1  0
 10 14  1  0
 11 12  1  0
 11 10  2  0
 12 13  1  0
 13 14  2  0
 15  8  1  0
 16 15  2  0
 17 15  1  0
 18 17  1  0
 18 26  1  0
 18 19  1  1
 20 19  1  0
 21 20  2  0
 22 21  1  0
 23 22  2  0
 23 24  1  0
 24 25  2  0
 25 20  1  0
 26 27  1  0
 28 26  2  0
M  END
$$$$
