CHF.pdb
     RDKit          3D

 28 29  0  0  1  0  0  0  0  0999 V2000
   25.2572  -26.7112  -19.1036 N   0  0  0  0  0  0  0  0  0  0  0  0
   24.4925  -25.4989  -19.1918 C   0  0  1  0  0  0  0  0  0  0  0  0
   23.0157  -25.7950  -19.4158 C   0  0  0  0  0  0  0  0  0  0  0  0
   22.7420  -26.3013  -21.1317 S   0  0  0  0  0  0  0  0  0  0  0  0
   24.5953  -24.7485  -17.8781 C   0  0  0  0  0  0  0  0  0  0  0  0
   24.0227  -25.2291  -16.8810 O   0  0  0  0  0  0  0  0  0  0  0  0
   25.3178  -23.5467  -17.7990 N   0  0  0  0  0  0  0  0  0  0  0  0
   25.4272  -22.7106  -16.6554 C   0  0  1  0  0  0  0  0  0  0  0  0
   26.7419  -21.9420  -16.5326 C   0  0  0  0  0  0  0  0  0  0  0  0
   27.9102  -22.8433  -16.3666 C   0  0  0  0  0  0  0  0  0  0  0  0
   27.7901  -24.2465  -16.3964 C   0  0  0  0  0  0  0  0  0  0  0  0
   29.0004  -24.7533  -16.2263 N   0  0  0  0  0  0  0  0  0  0  0  0
   29.8452  -23.7262  -16.0952 C   0  0  0  0  0  0  0  0  0  0  0  0
   29.1975  -22.5598  -16.1783 N   0  0  0  0  0  0  0  0  0  0  0  0
   24.3175  -21.7611  -16.4642 C   0  0  0  0  0  0  0  0  0  0  0  0
   24.1083  -20.8677  -17.3401 O   0  0  0  0  0  0  0  0  0  0  0  0
   23.4561  -21.7706  -15.3640 N   0  0  0  0  0  0  0  0  0  0  0  0
   22.3175  -20.8768  -15.2136 C   0  0  1  0  0  0  0  0  0  0  0  0
   21.0767  -21.4302  -15.7987 C   0  0  0  0  0  0  0  0  0  0  0  0
   20.7613  -22.7437  -15.2126 C   0  0  0  0  0  0  0  0  0  0  0  0
   20.0495  -22.8108  -14.0066 C   0  0  0  0  0  0  0  0  0  0  0  0
   19.7028  -23.9868  -13.4261 C   0  0  0  0  0  0  0  0  0  0  0  0
   20.0465  -25.1828  -14.0160 C   0  0  0  0  0  0  0  0  0  0  0  0
   20.7578  -25.1830  -15.2219 C   0  0  0  0  0  0  0  0  0  0  0  0
   21.0835  -23.9639  -15.7667 C   0  0  0  0  0  0  0  0  0  0  0  0
   22.1490  -20.5810  -13.7822 C   0  0  0  0  0  0  0  0  0  0  0  0
   21.1878  -19.6875  -13.3026 O   0  0  0  0  0  0  0  0  0  0  0  0
   22.9121  -21.1590  -12.9311 O   0  0  0  0  0  0  0  0  0  0  0  0
  2  1  1  1
  3  2  1  0
  3  4  1  0
  5  2  1  0
  5  6  2  0
  7  5  1  0
  8  7  1  0
  8  9  1  6
 10  9  1  0
 10 14  1  0
 11 12  1  0
 11 10  2  0
 12 13  1  0
 13 14  2  0
 15  8  1  0
 16 15  2  0
 17 15  1  0
 18 17  1  0
 18 26  1  0
 18 19  1  1
 20 19  1  0
 21 20  2  0
 22 21  1  0
 23 22  2  0
 23 24  1  0
 24 25  2  0
 25 20  1  0
 26 27  1  0
 28 26  2  0
M  END
$$$$
