CHF.pdb
     RDKit          3D

 28 29  0  0  1  0  0  0  0  0999 V2000
   26.3343  -18.1094  -16.8885 N   0  0  0  0  0  0  0  0  0  0  0  0
   27.1720  -18.8408  -15.9799 C   0  0  1  0  0  0  0  0  0  0  0  0
   28.0927  -17.9061  -15.2069 C   0  0  0  0  0  0  0  0  0  0  0  0
   29.2298  -17.0795  -16.3466 S   0  0  0  0  0  0  0  0  0  0  0  0
   26.3018  -19.5447  -14.9568 C   0  0  0  0  0  0  0  0  0  0  0  0
   25.2989  -18.9434  -14.5259 O   0  0  0  0  0  0  0  0  0  0  0  0
   26.6264  -20.8377  -14.5147 N   0  0  0  0  0  0  0  0  0  0  0  0
   25.8697  -21.6249  -13.6054 C   0  0  1  0  0  0  0  0  0  0  0  0
   25.6257  -23.0692  -14.0397 C   0  0  0  0  0  0  0  0  0  0  0  0
   24.7596  -23.1592  -15.2425 C   0  0  0  0  0  0  0  0  0  0  0  0
   23.4093  -22.7583  -15.2308 C   0  0  0  0  0  0  0  0  0  0  0  0
   22.9243  -22.9580  -16.4456 N   0  0  0  0  0  0  0  0  0  0  0  0
   23.9144  -23.4594  -17.1900 C   0  0  0  0  0  0  0  0  0  0  0  0
   25.0352  -23.5872  -16.4728 N   0  0  0  0  0  0  0  0  0  0  0  0
   26.3698  -21.6374  -12.2200 C   0  0  0  0  0  0  0  0  0  0  0  0
   27.5864  -21.9234  -12.0027 O   0  0  0  0  0  0  0  0  0  0  0  0
   25.5861  -21.3503  -11.0993 N   0  0  0  0  0  0  0  0  0  0  0  0
   26.1141  -21.2120   -9.7502 C   0  0  1  0  0  0  0  0  0  0  0  0
   27.1171  -20.1304   -9.6382 C   0  0  0  0  0  0  0  0  0  0  0  0
   27.5243  -19.9365   -8.2365 C   0  0  0  0  0  0  0  0  0  0  0  0
   28.7462  -20.4606   -7.7917 C   0  0  0  0  0  0  0  0  0  0  0  0
   29.1943  -20.2956   -6.5219 C   0  0  0  0  0  0  0  0  0  0  0  0
   28.4460  -19.5910   -5.6054 C   0  0  0  0  0  0  0  0  0  0  0  0
   27.2161  -19.0424   -5.9879 C   0  0  0  0  0  0  0  0  0  0  0  0
   26.8099  -19.2393   -7.2862 C   0  0  0  0  0  0  0  0  0  0  0  0
   24.9849  -20.9924   -8.8329 C   0  0  0  0  0  0  0  0  0  0  0  0
   24.9548  -21.5063   -7.5340 O   0  0  0  0  0  0  0  0  0  0  0  0
   23.9806  -20.3050   -9.2324 O   0  0  0  0  0  0  0  0  0  0  0  0
  2  1  1  6
  3  2  1  0
  3  4  1  0
  5  2  1  0
  5  6  2  0
  7  5  1  0
  8  7  1  0
  8  9  1  6
 10  9  1  0
 10 14  1  0
 11 12  1  0
 11 10  2  0
 12 13  1  0
 13 14  2  0
 15  8  1  0
 16 15  2  0
 17 15  1  0
 18 17  1  0
 18 26  1  0
 18 19  1  6
 20 19  1  0
 21 20  2  0
 22 21  1  0
 23 22  2  0
 23 24  1  0
 24 25  2  0
 25 20  1  0
 26 27  1  0
 28 26  2  0
M  END
$$$$
