CHF.pdb
     RDKit          3D

 28 29  0  0  1  0  0  0  0  0999 V2000
   19.5855  -23.1729  -14.6612 N   0  0  0  0  0  0  0  0  0  0  0  0
   20.1178  -21.9548  -14.1180 C   0  0  1  0  0  0  0  0  0  0  0  0
   19.5203  -21.6552  -12.7497 C   0  0  0  0  0  0  0  0  0  0  0  0
   17.7970  -21.1328  -12.9307 S   0  0  0  0  0  0  0  0  0  0  0  0
   21.6132  -22.1094  -13.9196 C   0  0  0  0  0  0  0  0  0  0  0  0
   22.0275  -23.1433  -13.3606 O   0  0  0  0  0  0  0  0  0  0  0  0
   22.4969  -21.1095  -14.3574 N   0  0  0  0  0  0  0  0  0  0  0  0
   23.9147  -21.1519  -14.2743 C   0  0  1  0  0  0  0  0  0  0  0  0
   24.6564  -20.5285  -15.4556 C   0  0  0  0  0  0  0  0  0  0  0  0
   26.1300  -20.6637  -15.3329 C   0  0  0  0  0  0  0  0  0  0  0  0
   26.9809  -19.5489  -15.2013 C   0  0  0  0  0  0  0  0  0  0  0  0
   28.2204  -20.0028  -15.1099 N   0  0  0  0  0  0  0  0  0  0  0  0
   28.1602  -21.3361  -15.1798 C   0  0  0  0  0  0  0  0  0  0  0  0
   26.8970  -21.7519  -15.3153 N   0  0  0  0  0  0  0  0  0  0  0  0
   24.4866  -20.6075  -13.0308 C   0  0  0  0  0  0  0  0  0  0  0  0
   24.0669  -19.4942  -12.5908 O   0  0  0  0  0  0  0  0  0  0  0  0
   25.4807  -21.2408  -12.2802 N   0  0  0  0  0  0  0  0  0  0  0  0
   26.1230  -20.6492  -11.1159 C   0  0  1  0  0  0  0  0  0  0  0  0
   26.6153  -21.6640  -10.1588 C   0  0  0  0  0  0  0  0  0  0  0  0
   27.1729  -21.0231   -8.9561 C   0  0  0  0  0  0  0  0  0  0  0  0
   26.3072  -20.5375   -7.9659 C   0  0  0  0  0  0  0  0  0  0  0  0
   26.7540  -19.9611   -6.8220 C   0  0  0  0  0  0  0  0  0  0  0  0
   28.1050  -19.8304   -6.5896 C   0  0  0  0  0  0  0  0  0  0  0  0
   29.0213  -20.2958   -7.5402 C   0  0  0  0  0  0  0  0  0  0  0  0
   28.5149  -20.8715   -8.6810 C   0  0  0  0  0  0  0  0  0  0  0  0
   27.2141  -19.7796  -11.5828 C   0  0  0  0  0  0  0  0  0  0  0  0
   27.3726  -18.4629  -11.1433 O   0  0  0  0  0  0  0  0  0  0  0  0
   28.0585  -20.2377  -12.4302 O   0  0  0  0  0  0  0  0  0  0  0  0
  2  1  1  1
  3  2  1  0
  3  4  1  0
  5  2  1  0
  5  6  2  0
  7  5  1  0
  8  7  1  0
  8  9  1  6
 10  9  1  0
 10 14  1  0
 11 12  1  0
 11 10  2  0
 12 13  1  0
 13 14  2  0
 15  8  1  0
 16 15  2  0
 17 15  1  0
 18 17  1  0
 18 26  1  0
 18 19  1  1
 20 19  1  0
 21 20  2  0
 22 21  1  0
 23 22  2  0
 23 24  1  0
 24 25  2  0
 25 20  1  0
 26 27  1  0
 28 26  2  0
M  END
$$$$
