CHF.pdb
     RDKit          3D

 28 29  0  0  1  0  0  0  0  0999 V2000
   15.2886  -12.0560  -12.1074 N   0  0  0  0  0  0  0  0  0  0  0  0
   14.9466  -10.7055  -12.4558 C   0  0  1  0  0  0  0  0  0  0  0  0
   14.7577   -9.8474  -11.2121 C   0  0  0  0  0  0  0  0  0  0  0  0
   13.2876  -10.3899  -10.3066 S   0  0  0  0  0  0  0  0  0  0  0  0
   16.0867  -10.0905  -13.2442 C   0  0  0  0  0  0  0  0  0  0  0  0
   17.2455  -10.2321  -12.8082 O   0  0  0  0  0  0  0  0  0  0  0  0
   15.8321   -9.3835  -14.4308 N   0  0  0  0  0  0  0  0  0  0  0  0
   16.8103   -8.8430  -15.3082 C   0  0  1  0  0  0  0  0  0  0  0  0
   16.3220   -8.5437  -16.7247 C   0  0  0  0  0  0  0  0  0  0  0  0
   17.4374   -8.2249  -17.6515 C   0  0  0  0  0  0  0  0  0  0  0  0
   18.7868   -8.2665  -17.2496 C   0  0  0  0  0  0  0  0  0  0  0  0
   19.5247   -7.9391  -18.2979 N   0  0  0  0  0  0  0  0  0  0  0  0
   18.6880   -7.7020  -19.3128 C   0  0  0  0  0  0  0  0  0  0  0  0
   17.4170   -7.8716  -18.9351 N   0  0  0  0  0  0  0  0  0  0  0  0
   17.5177   -7.6540  -14.8027 C   0  0  0  0  0  0  0  0  0  0  0  0
   16.8784   -6.7947  -14.1231 O   0  0  0  0  0  0  0  0  0  0  0  0
   18.8735   -7.3950  -15.0201 N   0  0  0  0  0  0  0  0  0  0  0  0
   19.5848   -6.2555  -14.4601 C   0  0  1  0  0  0  0  0  0  0  0  0
   20.4258   -6.6222  -13.2997 C   0  0  0  0  0  0  0  0  0  0  0  0
   21.3683   -7.6965  -13.6542 C   0  0  0  0  0  0  0  0  0  0  0  0
   22.3788   -7.4488  -14.5940 C   0  0  0  0  0  0  0  0  0  0  0  0
   23.2959   -8.3843  -14.9460 C   0  0  0  0  0  0  0  0  0  0  0  0
   23.2644   -9.6387  -14.3785 C   0  0  0  0  0  0  0  0  0  0  0  0
   22.2796   -9.9484  -13.4328 C   0  0  0  0  0  0  0  0  0  0  0  0
   21.3756   -8.9639  -13.1125 C   0  0  0  0  0  0  0  0  0  0  0  0
   20.3868   -5.6410  -15.5298 C   0  0  0  0  0  0  0  0  0  0  0  0
   20.5691   -6.2413  -16.7782 O   0  0  0  0  0  0  0  0  0  0  0  0
   20.9484   -4.5095  -15.3175 O   0  0  0  0  0  0  0  0  0  0  0  0
  2  1  1  1
  3  2  1  0
  3  4  1  0
  5  2  1  0
  5  6  2  0
  7  5  1  0
  8  7  1  0
  8  9  1  6
 10  9  1  0
 10 14  1  0
 11 12  1  0
 11 10  2  0
 12 13  1  0
 13 14  2  0
 15  8  1  0
 16 15  2  0
 17 15  1  0
 18 17  1  0
 18 26  1  0
 18 19  1  1
 20 19  1  0
 21 20  2  0
 22 21  1  0
 23 22  2  0
 23 24  1  0
 24 25  2  0
 25 20  1  0
 26 27  1  0
 28 26  2  0
M  END
$$$$
