CHF.pdb
     RDKit          3D

 28 29  0  0  1  0  0  0  0  0999 V2000
   27.9194  -20.4249  -16.5275 N   0  0  0  0  0  0  0  0  0  0  0  0
   26.8414  -21.2844  -16.1257 C   0  0  1  0  0  0  0  0  0  0  0  0
   27.2903  -22.2633  -15.0491 C   0  0  0  0  0  0  0  0  0  0  0  0
   28.4243  -21.4414  -13.9028 S   0  0  0  0  0  0  0  0  0  0  0  0
   25.7335  -20.4443  -15.5205 C   0  0  0  0  0  0  0  0  0  0  0  0
   26.0314  -19.3280  -15.0534 O   0  0  0  0  0  0  0  0  0  0  0  0
   24.4125  -20.9207  -15.4927 N   0  0  0  0  0  0  0  0  0  0  0  0
   23.2844  -20.2275  -14.9774 C   0  0  1  0  0  0  0  0  0  0  0  0
   22.2251  -19.8464  -16.0103 C   0  0  0  0  0  0  0  0  0  0  0  0
   22.7440  -18.8986  -17.0288 C   0  0  0  0  0  0  0  0  0  0  0  0
   22.8689  -17.5179  -16.7792 C   0  0  0  0  0  0  0  0  0  0  0  0
   23.3604  -16.9586  -17.8730 N   0  0  0  0  0  0  0  0  0  0  0  0
   23.5384  -17.9328  -18.7704 C   0  0  0  0  0  0  0  0  0  0  0  0
   23.1684  -19.1166  -18.2718 N   0  0  0  0  0  0  0  0  0  0  0  0
   22.6095  -20.8830  -13.8440 C   0  0  0  0  0  0  0  0  0  0  0  0
   22.5199  -22.1482  -13.8235 O   0  0  0  0  0  0  0  0  0  0  0  0
   22.0471  -20.1997  -12.7627 N   0  0  0  0  0  0  0  0  0  0  0  0
   21.5198  -20.8512  -11.5729 C   0  0  1  0  0  0  0  0  0  0  0  0
   22.0720  -20.2874  -10.3217 C   0  0  0  0  0  0  0  0  0  0  0  0
   23.5072  -20.5926  -10.1979 C   0  0  0  0  0  0  0  0  0  0  0  0
   24.4307  -19.5439  -10.0842 C   0  0  0  0  0  0  0  0  0  0  0  0
   25.7630  -19.7547   -9.9402 C   0  0  0  0  0  0  0  0  0  0  0  0
   26.2651  -21.0364   -9.8998 C   0  0  0  0  0  0  0  0  0  0  0  0
   25.3940  -22.1270  -10.0081 C   0  0  0  0  0  0  0  0  0  0  0  0
   24.0540  -21.8570  -10.1522 C   0  0  0  0  0  0  0  0  0  0  0  0
   20.0523  -20.7507  -11.6037 C   0  0  0  0  0  0  0  0  0  0  0  0
   19.2201  -21.6098  -10.8815 O   0  0  0  0  0  0  0  0  0  0  0  0
   19.5035  -19.8430  -12.3218 O   0  0  0  0  0  0  0  0  0  0  0  0
  2  1  1  1
  3  2  1  0
  3  4  1  0
  5  2  1  0
  5  6  2  0
  7  5  1  0
  8  7  1  0
  8  9  1  6
 10  9  1  0
 10 14  1  0
 11 12  1  0
 11 10  2  0
 12 13  1  0
 13 14  2  0
 15  8  1  0
 16 15  2  0
 17 15  1  0
 18 17  1  0
 18 26  1  0
 18 19  1  1
 20 19  1  0
 21 20  2  0
 22 21  1  0
 23 22  2  0
 23 24  1  0
 24 25  2  0
 25 20  1  0
 26 27  1  0
 28 26  2  0
M  END
$$$$
