CHF.pdb
     RDKit          3D

 28 29  0  0  1  0  0  0  0  0999 V2000
   28.3479  -18.7927  -15.7884 N   0  0  0  0  0  0  0  0  0  0  0  0
   28.4484  -19.7489  -14.7216 C   0  0  1  0  0  0  0  0  0  0  0  0
   29.7461  -19.5720  -13.9447 C   0  0  0  0  0  0  0  0  0  0  0  0
   30.5943  -21.1633  -13.7913 S   0  0  0  0  0  0  0  0  0  0  0  0
   27.3149  -19.5215  -13.7403 C   0  0  0  0  0  0  0  0  0  0  0  0
   27.0462  -18.3488  -13.4151 O   0  0  0  0  0  0  0  0  0  0  0  0
   26.5951  -20.6091  -13.2191 N   0  0  0  0  0  0  0  0  0  0  0  0
   25.5906  -20.5434  -12.2164 C   0  0  1  0  0  0  0  0  0  0  0  0
   24.3125  -21.3231  -12.5213 C   0  0  0  0  0  0  0  0  0  0  0  0
   23.2401  -21.0611  -11.5282 C   0  0  0  0  0  0  0  0  0  0  0  0
   22.8667  -19.7571  -11.1484 C   0  0  0  0  0  0  0  0  0  0  0  0
   21.8906  -19.8650  -10.2616 N   0  0  0  0  0  0  0  0  0  0  0  0
   21.6562  -21.1691  -10.0872 C   0  0  0  0  0  0  0  0  0  0  0  0
   22.4682  -21.9078  -10.8499 N   0  0  0  0  0  0  0  0  0  0  0  0
   26.0359  -20.8996  -10.8583 C   0  0  0  0  0  0  0  0  0  0  0  0
   26.6079  -22.0154  -10.6662 O   0  0  0  0  0  0  0  0  0  0  0  0
   25.8724  -20.0807   -9.7379 N   0  0  0  0  0  0  0  0  0  0  0  0
   26.4277  -20.3760   -8.4255 C   0  0  1  0  0  0  0  0  0  0  0  0
   26.9934  -19.1803   -7.7632 C   0  0  0  0  0  0  0  0  0  0  0  0
   27.5734  -19.5305   -6.4558 C   0  0  0  0  0  0  0  0  0  0  0  0
   27.3692  -20.8137   -5.9292 C   0  0  0  0  0  0  0  0  0  0  0  0
   27.8968  -21.2108   -4.7442 C   0  0  0  0  0  0  0  0  0  0  0  0
   28.6692  -20.3461   -4.0011 C   0  0  0  0  0  0  0  0  0  0  0  0
   28.9103  -19.0502   -4.4728 C   0  0  0  0  0  0  0  0  0  0  0  0
   28.3520  -18.7000   -5.6789 C   0  0  0  0  0  0  0  0  0  0  0  0
   25.3729  -20.9932   -7.6063 C   0  0  0  0  0  0  0  0  0  0  0  0
   25.6091  -22.0839   -6.7656 O   0  0  0  0  0  0  0  0  0  0  0  0
   24.1834  -20.5208   -7.6605 O   0  0  0  0  0  0  0  0  0  0  0  0
  2  1  1  6
  3  2  1  0
  3  4  1  0
  5  2  1  0
  5  6  2  0
  7  5  1  0
  8  7  1  0
  8  9  1  6
 10  9  1  0
 10 14  1  0
 11 12  1  0
 11 10  2  0
 12 13  1  0
 13 14  2  0
 15  8  1  0
 16 15  2  0
 17 15  1  0
 18 17  1  0
 18 26  1  0
 18 19  1  1
 20 19  1  0
 21 20  2  0
 22 21  1  0
 23 22  2  0
 23 24  1  0
 24 25  2  0
 25 20  1  0
 26 27  1  0
 28 26  2  0
M  END
$$$$
