QPT.pdb
     RDKit          3D

 24 24  0  0  1  0  0  0  0  0999 V2000
    7.0079  -20.2202   16.3935 N   0  0  0  0  0  0  0  0  0  0  0  0
    6.7615  -19.1379   17.2750 C   0  0  0  0  0  0  0  0  0  0  0  0
    5.7586  -19.1226   18.0409 O   0  0  0  0  0  0  0  0  0  0  0  0
    7.6919  -17.9921   17.3104 C   0  0  0  0  0  0  0  0  0  0  0  0
    6.9417  -16.6712   17.1218 C   0  0  0  0  0  0  0  0  0  0  0  0
    7.8584  -15.6466   16.4789 C   0  0  2  0  0  0  0  0  0  0  0  0
    8.3109  -16.2015   15.2452 N   0  0  0  0  0  0  0  0  0  0  0  0
    8.9397  -15.2514   17.3789 C   0  0  0  0  0  0  0  0  0  0  0  0
   10.1298  -15.5727   17.0498 O   0  0  0  0  0  0  0  0  0  0  0  0
    8.7657  -14.5410   18.5867 N   0  0  0  0  0  0  0  0  0  0  0  0
    7.5413  -14.1505   19.2046 C   0  0  0  0  0  0  0  0  0  0  0  0
    7.9022  -13.0088   20.1191 C   0  0  0  0  0  0  0  0  0  0  0  0
    9.3600  -12.6894   19.8147 C   0  0  0  0  0  0  0  0  0  0  0  0
    9.8481  -14.0816   19.4752 C   0  0  1  0  0  0  0  0  0  0  0  0
    9.8343  -14.8619   20.7433 C   0  0  0  0  0  0  0  0  0  0  0  0
    8.7794  -15.1368   21.3698 O   0  0  0  0  0  0  0  0  0  0  0  0
   10.3122  -18.1237   20.7866 C   0  0  0  0  0  0  0  0  0  0  0  0
   11.4149  -17.7127   21.7523 C   0  0  1  0  0  0  0  0  0  0  0  0
   12.6290  -17.5729   21.0838 O   0  0  0  0  0  0  0  0  0  0  0  0
   11.0456  -16.3537   22.3115 C   0  0  2  0  0  0  0  0  0  0  0  0
   11.0571  -15.3309   21.2946 N   0  0  0  0  0  0  0  0  0  0  0  0
   12.0325  -16.0371   23.3790 C   0  0  0  0  0  0  0  0  0  0  0  0
   12.0077  -16.6537   24.6198 O   0  0  0  0  0  0  0  0  0  0  0  0
   12.9360  -15.1819   23.1786 O   0  0  0  0  0  0  0  0  0  0  0  0
  2  1  1  0
  2  3  2  0
  4  2  1  0
  5  4  1  0
  6  7  1  6
  6  5  1  0
  8  6  1  0
  9  8  2  0
 10  8  1  0
 11 10  1  0
 12 11  1  0
 13 12  1  0
 13 14  1  0
 14 10  1  0
 14 15  1  1
 15 21  1  0
 16 15  2  0
 18 17  1  6
 18 19  1  0
 18 20  1  0
 20 21  1  6
 20 22  1  0
 22 23  1  0
 24 22  2  0
M  END
$$$$
