QPT.pdb
     RDKit          3D

 24 24  0  0  1  0  0  0  0  0999 V2000
    4.4074  -17.8093   20.2597 N   0  0  0  0  0  0  0  0  0  0  0  0
    5.6346  -18.4860   20.4722 C   0  0  0  0  0  0  0  0  0  0  0  0
    5.8752  -19.0989   21.5488 O   0  0  0  0  0  0  0  0  0  0  0  0
    6.6679  -18.4832   19.4177 C   0  0  0  0  0  0  0  0  0  0  0  0
    6.4952  -17.2823   18.4844 C   0  0  0  0  0  0  0  0  0  0  0  0
    7.8558  -16.7649   18.0550 C   0  0  2  0  0  0  0  0  0  0  0  0
    8.5150  -17.8295   17.3717 N   0  0  0  0  0  0  0  0  0  0  0  0
    8.6120  -16.2340   19.1871 C   0  0  0  0  0  0  0  0  0  0  0  0
    9.7190  -16.7991   19.4756 O   0  0  0  0  0  0  0  0  0  0  0  0
    8.2085  -15.1425   19.9868 N   0  0  0  0  0  0  0  0  0  0  0  0
    6.9561  -14.4609   19.9711 C   0  0  0  0  0  0  0  0  0  0  0  0
    7.2284  -13.1116   20.5835 C   0  0  0  0  0  0  0  0  0  0  0  0
    8.7399  -13.0417   20.7576 C   0  0  0  0  0  0  0  0  0  0  0  0
    9.0200  -14.5029   21.0377 C   0  0  1  0  0  0  0  0  0  0  0  0
    8.4456  -14.8002   22.3789 C   0  0  0  0  0  0  0  0  0  0  0  0
    7.2331  -15.0788   22.5610 O   0  0  0  0  0  0  0  0  0  0  0  0
   11.0265  -18.0266   24.1347 C   0  0  0  0  0  0  0  0  0  0  0  0
   10.4096  -16.9379   23.2677 C   0  0  1  0  0  0  0  0  0  0  0  0
    9.4958  -17.4823   22.3683 O   0  0  0  0  0  0  0  0  0  0  0  0
    9.6436  -16.0064   24.1850 C   0  0  2  0  0  0  0  0  0  0  0  0
    9.2847  -14.7750   23.5255 N   0  0  0  0  0  0  0  0  0  0  0  0
   10.5162  -15.7328   25.3586 C   0  0  0  0  0  0  0  0  0  0  0  0
   10.2111  -16.1854   26.6324 O   0  0  0  0  0  0  0  0  0  0  0  0
   11.5782  -15.0684   25.2223 O   0  0  0  0  0  0  0  0  0  0  0  0
  2  1  1  0
  2  3  2  0
  4  2  1  0
  5  4  1  0
  6  7  1  1
  6  5  1  0
  8  6  1  0
  9  8  2  0
 10  8  1  0
 11 10  1  0
 12 11  1  0
 13 12  1  0
 13 14  1  0
 14 10  1  0
 14 15  1  1
 15 21  1  0
 16 15  2  0
 18 17  1  1
 18 19  1  0
 18 20  1  0
 20 21  1  6
 20 22  1  0
 22 23  1  0
 24 22  2  0
M  END
$$$$
