QPT.pdb
     RDKit          3D

 24 24  0  0  1  0  0  0  0  0999 V2000
   14.1964  -14.1267   20.4902 N   0  0  0  0  0  0  0  0  0  0  0  0
   13.6888  -14.5290   19.2294 C   0  0  0  0  0  0  0  0  0  0  0  0
   14.4064  -15.1417   18.3914 O   0  0  0  0  0  0  0  0  0  0  0  0
   12.2875  -14.2316   18.8721 C   0  0  0  0  0  0  0  0  0  0  0  0
   11.3175  -15.0159   19.7591 C   0  0  0  0  0  0  0  0  0  0  0  0
    9.9114  -14.4697   19.5918 C   0  0  2  0  0  0  0  0  0  0  0  0
    9.9900  -13.3762   18.6792 N   0  0  0  0  0  0  0  0  0  0  0  0
    9.3122  -14.1215   20.8783 C   0  0  0  0  0  0  0  0  0  0  0  0
    9.6279  -12.9972   21.3924 O   0  0  0  0  0  0  0  0  0  0  0  0
    8.4104  -14.9371   21.5960 N   0  0  0  0  0  0  0  0  0  0  0  0
    7.9589  -16.2479   21.2623 C   0  0  0  0  0  0  0  0  0  0  0  0
    6.6657  -16.4280   22.0139 C   0  0  0  0  0  0  0  0  0  0  0  0
    6.3566  -15.0667   22.6231 C   0  0  0  0  0  0  0  0  0  0  0  0
    7.7701  -14.5872   22.8765 C   0  0  1  0  0  0  0  0  0  0  0  0
    8.3202  -15.4336   23.9711 C   0  0  0  0  0  0  0  0  0  0  0  0
    9.1033  -16.3962   23.7683 O   0  0  0  0  0  0  0  0  0  0  0  0
    9.8542  -14.0336   28.3559 C   0  0  0  0  0  0  0  0  0  0  0  0
    8.7429  -13.9781   27.3171 C   0  0  1  0  0  0  0  0  0  0  0  0
    8.8027  -12.7889   26.5940 O   0  0  0  0  0  0  0  0  0  0  0  0
    8.9755  -15.1143   26.3419 C   0  0  2  0  0  0  0  0  0  0  0  0
    7.9601  -15.1632   25.3189 N   0  0  0  0  0  0  0  0  0  0  0  0
    8.9792  -16.3750   27.1320 C   0  0  0  0  0  0  0  0  0  0  0  0
   10.0424  -16.7404   27.9424 O   0  0  0  0  0  0  0  0  0  0  0  0
    7.9949  -17.1603   27.0840 O   0  0  0  0  0  0  0  0  0  0  0  0
  2  1  1  0
  2  3  2  0
  4  2  1  0
  5  4  1  0
  6  7  1  6
  6  5  1  0
  8  6  1  0
  9  8  2  0
 10  8  1  0
 11 10  1  0
 12 11  1  0
 13 12  1  0
 13 14  1  0
 14 10  1  0
 14 15  1  1
 15 21  1  0
 16 15  2  0
 18 17  1  1
 18 19  1  0
 18 20  1  0
 20 21  1  6
 20 22  1  0
 22 23  1  0
 24 22  2  0
M  END
$$$$
