QPT.pdb
     RDKit          3D

 24 24  0  0  1  0  0  0  0  0999 V2000
    9.6681  -18.0410   18.3570 N   0  0  0  0  0  0  0  0  0  0  0  0
    8.6190  -17.6043   17.5098 C   0  0  0  0  0  0  0  0  0  0  0  0
    7.6553  -18.3601   17.2056 O   0  0  0  0  0  0  0  0  0  0  0  0
    8.6391  -16.2338   16.9612 C   0  0  0  0  0  0  0  0  0  0  0  0
    7.5137  -15.3870   17.5608 C   0  0  0  0  0  0  0  0  0  0  0  0
    8.0464  -14.0170   17.9386 C   0  0  2  0  0  0  0  0  0  0  0  0
    8.7351  -13.5039   16.7996 N   0  0  0  0  0  0  0  0  0  0  0  0
    8.8661  -14.0723   19.1471 C   0  0  0  0  0  0  0  0  0  0  0  0
   10.1130  -13.8297   19.0272 O   0  0  0  0  0  0  0  0  0  0  0  0
    8.3813  -14.3753   20.4382 N   0  0  0  0  0  0  0  0  0  0  0  0
    7.0423  -14.6810   20.8216 C   0  0  0  0  0  0  0  0  0  0  0  0
    6.9745  -14.3926   22.2988 C   0  0  0  0  0  0  0  0  0  0  0  0
    8.3047  -13.7374   22.6466 C   0  0  0  0  0  0  0  0  0  0  0  0
    9.1975  -14.4627   21.6622 C   0  0  1  0  0  0  0  0  0  0  0  0
    9.2814  -15.8768   22.1207 C   0  0  0  0  0  0  0  0  0  0  0  0
    8.6605  -16.8179   21.5640 O   0  0  0  0  0  0  0  0  0  0  0  0
   10.8790  -17.7011   20.9082 C   0  0  0  0  0  0  0  0  0  0  0  0
   11.6533  -17.7993   22.2152 C   0  0  1  0  0  0  0  0  0  0  0  0
   12.6474  -16.8254   22.2739 O   0  0  0  0  0  0  0  0  0  0  0  0
   10.6791  -17.5219   23.3422 C   0  0  2  0  0  0  0  0  0  0  0  0
   10.0944  -16.2076   23.2382 N   0  0  0  0  0  0  0  0  0  0  0  0
   11.4351  -17.6556   24.6167 C   0  0  0  0  0  0  0  0  0  0  0  0
   11.8020  -18.8866   25.1368 O   0  0  0  0  0  0  0  0  0  0  0  0
   11.7686  -16.6314   25.2706 O   0  0  0  0  0  0  0  0  0  0  0  0
  2  1  1  0
  2  3  2  0
  4  2  1  0
  5  4  1  0
  6  7  1  6
  6  5  1  0
  8  6  1  0
  9  8  2  0
 10  8  1  0
 11 10  1  0
 12 11  1  0
 13 12  1  0
 13 14  1  0
 14 10  1  0
 14 15  1  1
 15 21  1  0
 16 15  2  0
 18 17  1  6
 18 19  1  0
 18 20  1  0
 20 21  1  6
 20 22  1  0
 22 23  1  0
 24 22  2  0
M  END
$$$$
