QPT.pdb
     RDKit          3D

 24 24  0  0  1  0  0  0  0  0999 V2000
    7.5204  -20.2253   18.2707 N   0  0  0  0  0  0  0  0  0  0  0  0
    6.6608  -19.7697   17.2399 C   0  0  0  0  0  0  0  0  0  0  0  0
    6.0653  -20.5735   16.4706 O   0  0  0  0  0  0  0  0  0  0  0  0
    6.4460  -18.3217   17.0481 C   0  0  0  0  0  0  0  0  0  0  0  0
    7.1427  -17.5143   18.1461 C   0  0  0  0  0  0  0  0  0  0  0  0
    7.9721  -16.4069   17.5223 C   0  0  2  0  0  0  0  0  0  0  0  0
    8.6402  -16.9661   16.3928 N   0  0  0  0  0  0  0  0  0  0  0  0
    8.8732  -15.7948   18.4963 C   0  0  0  0  0  0  0  0  0  0  0  0
   10.1258  -15.9819   18.3417 O   0  0  0  0  0  0  0  0  0  0  0  0
    8.4610  -15.0123   19.5970 N   0  0  0  0  0  0  0  0  0  0  0  0
    7.1326  -14.6435   19.9610 C   0  0  0  0  0  0  0  0  0  0  0  0
    7.2818  -13.4241   20.8331 C   0  0  0  0  0  0  0  0  0  0  0  0
    8.7570  -13.0518   20.7626 C   0  0  0  0  0  0  0  0  0  0  0  0
    9.3508  -14.4373   20.6216 C   0  0  1  0  0  0  0  0  0  0  0  0
    9.1429  -15.1275   21.9246 C   0  0  0  0  0  0  0  0  0  0  0  0
    8.0080  -15.4539   22.3562 O   0  0  0  0  0  0  0  0  0  0  0  0
   10.8124  -18.1519   21.7666 C   0  0  0  0  0  0  0  0  0  0  0  0
   11.2418  -17.6562   23.1403 C   0  0  1  0  0  0  0  0  0  0  0  0
   12.4852  -17.0318   23.0728 O   0  0  0  0  0  0  0  0  0  0  0  0
   10.2343  -16.6145   23.5827 C   0  0  2  0  0  0  0  0  0  0  0  0
   10.2628  -15.4446   22.7398 N   0  0  0  0  0  0  0  0  0  0  0  0
   10.5674  -16.2523   24.9869 C   0  0  0  0  0  0  0  0  0  0  0  0
   11.0651  -15.0065   25.3343 O   0  0  0  0  0  0  0  0  0  0  0  0
   10.4023  -17.0865   25.9167 O   0  0  0  0  0  0  0  0  0  0  0  0
  2  1  1  0
  2  3  2  0
  4  2  1  0
  5  4  1  0
  6  7  1  6
  6  5  1  0
  8  6  1  0
  9  8  2  0
 10  8  1  0
 11 10  1  0
 12 11  1  0
 13 12  1  0
 13 14  1  0
 14 10  1  0
 14 15  1  1
 15 21  1  0
 16 15  2  0
 18 17  1  6
 18 19  1  0
 18 20  1  0
 20 21  1  6
 20 22  1  0
 22 23  1  0
 24 22  2  0
M  END
$$$$
