QPT.pdb
     RDKit          3D

 24 24  0  0  1  0  0  0  0  0999 V2000
    8.7857  -22.5212   18.0500 N   0  0  0  0  0  0  0  0  0  0  0  0
    9.0374  -21.3728   18.8417 C   0  0  0  0  0  0  0  0  0  0  0  0
   10.0041  -21.3256   19.6516 O   0  0  0  0  0  0  0  0  0  0  0  0
    8.1561  -20.1937   18.7281 C   0  0  0  0  0  0  0  0  0  0  0  0
    8.4441  -19.1849   19.8427 C   0  0  0  0  0  0  0  0  0  0  0  0
    8.5144  -17.7842   19.2628 C   0  0  2  0  0  0  0  0  0  0  0  0
    8.7216  -17.9196   17.8580 N   0  0  0  0  0  0  0  0  0  0  0  0
    9.5296  -16.9742   19.9327 C   0  0  0  0  0  0  0  0  0  0  0  0
   10.5881  -16.6931   19.2780 O   0  0  0  0  0  0  0  0  0  0  0  0
    9.4273  -16.4801   21.2514 N   0  0  0  0  0  0  0  0  0  0  0  0
    8.3840  -16.7125   22.1954 C   0  0  0  0  0  0  0  0  0  0  0  0
    8.4794  -15.5785   23.1828 C   0  0  0  0  0  0  0  0  0  0  0  0
    9.5170  -14.6239   22.6065 C   0  0  0  0  0  0  0  0  0  0  0  0
   10.4227  -15.6298   21.9285 C   0  0  1  0  0  0  0  0  0  0  0  0
   11.0981  -16.3969   23.0113 C   0  0  0  0  0  0  0  0  0  0  0  0
   10.5401  -17.3290   23.6443 O   0  0  0  0  0  0  0  0  0  0  0  0
   15.7280  -17.8733   23.5374 C   0  0  0  0  0  0  0  0  0  0  0  0
   14.7808  -16.7575   23.1187 C   0  0  1  0  0  0  0  0  0  0  0  0
   14.7330  -16.6460   21.7310 O   0  0  0  0  0  0  0  0  0  0  0  0
   13.3926  -17.1389   23.5915 C   0  0  2  0  0  0  0  0  0  0  0  0
   12.4373  -16.0820   23.3671 N   0  0  0  0  0  0  0  0  0  0  0  0
   13.4946  -17.4486   25.0432 C   0  0  0  0  0  0  0  0  0  0  0  0
   12.9499  -16.6275   26.0177 O   0  0  0  0  0  0  0  0  0  0  0  0
   14.0916  -18.4875   25.4330 O   0  0  0  0  0  0  0  0  0  0  0  0
  2  1  1  0
  2  3  2  0
  4  2  1  0
  5  4  1  0
  6  7  1  6
  6  5  1  0
  8  6  1  0
  9  8  2  0
 10  8  1  0
 11 10  1  0
 12 11  1  0
 13 12  1  0
 13 14  1  0
 14 10  1  0
 14 15  1  1
 15 21  1  0
 16 15  2  0
 18 17  1  6
 18 19  1  0
 18 20  1  0
 20 21  1  1
 20 22  1  0
 22 23  1  0
 24 22  2  0
M  END
$$$$
