QPT.pdb
     RDKit          3D

 24 24  0  0  1  0  0  0  0  0999 V2000
    6.3448  -17.5369   24.9532 N   0  0  0  0  0  0  0  0  0  0  0  0
    6.9032  -17.9789   23.7277 C   0  0  0  0  0  0  0  0  0  0  0  0
    7.3725  -19.1429   23.5953 O   0  0  0  0  0  0  0  0  0  0  0  0
    6.9446  -17.0670   22.5673 C   0  0  0  0  0  0  0  0  0  0  0  0
    6.2819  -15.7277   22.8990 C   0  0  0  0  0  0  0  0  0  0  0  0
    7.1910  -14.5867   22.4807 C   0  0  2  0  0  0  0  0  0  0  0  0
    7.7953  -14.9611   21.2440 N   0  0  0  0  0  0  0  0  0  0  0  0
    8.1527  -14.2522   23.5289 C   0  0  0  0  0  0  0  0  0  0  0  0
    9.3923  -14.2965   23.2297 O   0  0  0  0  0  0  0  0  0  0  0  0
    7.8127  -13.8844   24.8490 N   0  0  0  0  0  0  0  0  0  0  0  0
    6.5096  -13.7233   25.4053 C   0  0  0  0  0  0  0  0  0  0  0  0
    6.6967  -12.8388   26.6105 C   0  0  0  0  0  0  0  0  0  0  0  0
    8.1494  -12.3839   26.5592 C   0  0  0  0  0  0  0  0  0  0  0  0
    8.7688  -13.6180   25.9385 C   0  0  1  0  0  0  0  0  0  0  0  0
    8.6916  -14.6973   26.9615 C   0  0  0  0  0  0  0  0  0  0  0  0
    7.6087  -15.2197   27.3291 O   0  0  0  0  0  0  0  0  0  0  0  0
   11.3202  -18.6322   27.2688 C   0  0  0  0  0  0  0  0  0  0  0  0
   11.1451  -17.1684   26.8892 C   0  0  1  0  0  0  0  0  0  0  0  0
   10.7065  -17.0495   25.5724 O   0  0  0  0  0  0  0  0  0  0  0  0
   10.0634  -16.5940   27.7815 C   0  0  2  0  0  0  0  0  0  0  0  0
    9.8831  -15.1792   27.5677 N   0  0  0  0  0  0  0  0  0  0  0  0
   10.4695  -16.8601   29.1879 C   0  0  0  0  0  0  0  0  0  0  0  0
   10.4261  -18.1277   29.7462 O   0  0  0  0  0  0  0  0  0  0  0  0
   10.8720  -15.9199   29.9240 O   0  0  0  0  0  0  0  0  0  0  0  0
  2  1  1  0
  2  3  2  0
  4  2  1  0
  5  4  1  0
  6  7  1  6
  6  5  1  0
  8  6  1  0
  9  8  2  0
 10  8  1  0
 11 10  1  0
 12 11  1  0
 13 12  1  0
 13 14  1  0
 14 10  1  0
 14 15  1  1
 15 21  1  0
 16 15  2  0
 18 17  1  1
 18 19  1  0
 18 20  1  0
 20 21  1  1
 20 22  1  0
 22 23  1  0
 24 22  2  0
M  END
$$$$
