QPT.pdb
     RDKit          3D

 24 24  0  0  1  0  0  0  0  0999 V2000
    5.6088  -17.3522   24.6963 N   0  0  0  0  0  0  0  0  0  0  0  0
    6.7608  -17.8386   24.0289 C   0  0  0  0  0  0  0  0  0  0  0  0
    7.3357  -18.9025   24.3900 O   0  0  0  0  0  0  0  0  0  0  0  0
    7.3147  -17.0939   22.8808 C   0  0  0  0  0  0  0  0  0  0  0  0
    6.4908  -15.8360   22.5946 C   0  0  0  0  0  0  0  0  0  0  0  0
    7.4157  -14.6477   22.4048 C   0  0  2  0  0  0  0  0  0  0  0  0
    8.0910  -14.8336   21.1622 N   0  0  0  0  0  0  0  0  0  0  0  0
    8.3147  -14.4775   23.5442 C   0  0  0  0  0  0  0  0  0  0  0  0
    9.5518  -14.7326   23.3642 O   0  0  0  0  0  0  0  0  0  0  0  0
    7.9163  -14.0526   24.8305 N   0  0  0  0  0  0  0  0  0  0  0  0
    6.5897  -13.8942   25.3288 C   0  0  0  0  0  0  0  0  0  0  0  0
    6.7116  -12.9469   26.4940 C   0  0  0  0  0  0  0  0  0  0  0  0
    8.1553  -12.4619   26.4743 C   0  0  0  0  0  0  0  0  0  0  0  0
    8.8240  -13.7107   25.9402 C   0  0  1  0  0  0  0  0  0  0  0  0
    8.7302  -14.7394   27.0126 C   0  0  0  0  0  0  0  0  0  0  0  0
    7.6495  -15.2894   27.3450 O   0  0  0  0  0  0  0  0  0  0  0  0
   12.6706  -15.6854   27.5114 C   0  0  0  0  0  0  0  0  0  0  0  0
   11.6611  -16.6128   26.8495 C   0  0  1  0  0  0  0  0  0  0  0  0
   12.0825  -17.9381   26.9294 O   0  0  0  0  0  0  0  0  0  0  0  0
   10.3646  -16.5013   27.6260 C   0  0  2  0  0  0  0  0  0  0  0  0
    9.9022  -15.1378   27.7104 N   0  0  0  0  0  0  0  0  0  0  0  0
   10.6206  -17.0489   28.9856 C   0  0  0  0  0  0  0  0  0  0  0  0
   10.8648  -18.3944   29.2103 O   0  0  0  0  0  0  0  0  0  0  0  0
   10.6220  -16.2876   29.9896 O   0  0  0  0  0  0  0  0  0  0  0  0
  2  1  1  0
  2  3  2  0
  4  2  1  0
  5  4  1  0
  6  7  1  6
  6  5  1  0
  8  6  1  0
  9  8  2  0
 10  8  1  0
 11 10  1  0
 12 11  1  0
 13 12  1  0
 13 14  1  0
 14 10  1  0
 14 15  1  1
 15 21  1  0
 16 15  2  0
 18 17  1  1
 18 19  1  0
 18 20  1  0
 20 21  1  1
 20 22  1  0
 22 23  1  0
 24 22  2  0
M  END
$$$$
