QPT.pdb
     RDKit          3D

 24 24  0  0  1  0  0  0  0  0999 V2000
    8.9871  -20.5859   26.9495 N   0  0  0  0  0  0  0  0  0  0  0  0
    7.7983  -19.8143   26.9751 C   0  0  0  0  0  0  0  0  0  0  0  0
    6.9632  -19.9155   27.9158 O   0  0  0  0  0  0  0  0  0  0  0  0
    7.5151  -18.8638   25.8815 C   0  0  0  0  0  0  0  0  0  0  0  0
    8.6555  -18.8476   24.8606 C   0  0  0  0  0  0  0  0  0  0  0  0
    8.1196  -18.4499   23.4974 C   0  0  2  0  0  0  0  0  0  0  0  0
    8.4133  -19.5197   22.6007 N   0  0  0  0  0  0  0  0  0  0  0  0
    8.6490  -17.1578   23.0665 C   0  0  0  0  0  0  0  0  0  0  0  0
    9.8785  -17.1055   22.7295 O   0  0  0  0  0  0  0  0  0  0  0  0
    7.9014  -15.9620   22.9962 N   0  0  0  0  0  0  0  0  0  0  0  0
    6.5301  -15.7652   23.3337 C   0  0  0  0  0  0  0  0  0  0  0  0
    6.1118  -14.5209   22.5944 C   0  0  0  0  0  0  0  0  0  0  0  0
    7.2885  -14.1681   21.6940 C   0  0  0  0  0  0  0  0  0  0  0  0
    8.4216  -14.6488   22.5753 C   0  0  1  0  0  0  0  0  0  0  0  0
    8.4797  -13.7246   23.7413 C   0  0  0  0  0  0  0  0  0  0  0  0
    8.4578  -12.4726   23.6278 O   0  0  0  0  0  0  0  0  0  0  0  0
    6.6629  -12.0946   25.0544 C   0  0  0  0  0  0  0  0  0  0  0  0
    6.9783  -12.8781   26.3209 C   0  0  1  0  0  0  0  0  0  0  0  0
    6.1452  -13.9887   26.4341 O   0  0  0  0  0  0  0  0  0  0  0  0
    8.3999  -13.3880   26.1974 C   0  0  2  0  0  0  0  0  0  0  0  0
    8.5644  -14.2553   25.0568 N   0  0  0  0  0  0  0  0  0  0  0  0
    8.7137  -14.1178   27.4554 C   0  0  0  0  0  0  0  0  0  0  0  0
    8.8843  -13.4686   28.6678 O   0  0  0  0  0  0  0  0  0  0  0  0
    8.8352  -15.3720   27.4515 O   0  0  0  0  0  0  0  0  0  0  0  0
  2  1  1  0
  2  3  2  0
  4  2  1  0
  5  4  1  0
  6  7  1  6
  6  5  1  0
  8  6  1  0
  9  8  2  0
 10  8  1  0
 11 10  1  0
 12 11  1  0
 13 12  1  0
 13 14  1  0
 14 10  1  0
 14 15  1  1
 15 21  1  0
 16 15  2  0
 18 17  1  6
 18 19  1  0
 18 20  1  0
 20 21  1  6
 20 22  1  0
 22 23  1  0
 24 22  2  0
M  END
$$$$
