QPT.pdb
     RDKit          3D

 24 24  0  0  1  0  0  0  0  0999 V2000
    9.4034  -18.9645   24.0409 N   0  0  0  0  0  0  0  0  0  0  0  0
    9.8605  -19.3557   22.7575 C   0  0  0  0  0  0  0  0  0  0  0  0
   10.1490  -20.5558   22.4946 O   0  0  0  0  0  0  0  0  0  0  0  0
   10.0081  -18.3461   21.6904 C   0  0  0  0  0  0  0  0  0  0  0  0
    8.7254  -17.5264   21.5303 C   0  0  0  0  0  0  0  0  0  0  0  0
    9.0731  -16.0665   21.3035 C   0  0  2  0  0  0  0  0  0  0  0  0
   10.0774  -16.0250   20.2913 N   0  0  0  0  0  0  0  0  0  0  0  0
    9.4627  -15.4060   22.5474 C   0  0  0  0  0  0  0  0  0  0  0  0
   10.6785  -15.0375   22.6653 O   0  0  0  0  0  0  0  0  0  0  0  0
    8.5940  -15.1460   23.6297 N   0  0  0  0  0  0  0  0  0  0  0  0
    7.2262  -15.5253   23.7657 C   0  0  0  0  0  0  0  0  0  0  0  0
    6.6496  -14.5803   24.7877 C   0  0  0  0  0  0  0  0  0  0  0  0
    7.7423  -13.5531   25.0535 C   0  0  0  0  0  0  0  0  0  0  0  0
    8.9572  -14.4376   24.8700 C   0  0  1  0  0  0  0  0  0  0  0  0
    8.9724  -15.3883   26.0159 C   0  0  0  0  0  0  0  0  0  0  0  0
    8.6491  -16.5987   25.9092 O   0  0  0  0  0  0  0  0  0  0  0  0
   11.0573  -13.3857   29.0367 C   0  0  0  0  0  0  0  0  0  0  0  0
   10.7971  -14.8635   29.2929 C   0  0  1  0  0  0  0  0  0  0  0  0
    9.6649  -15.0348   30.0861 O   0  0  0  0  0  0  0  0  0  0  0  0
   10.5156  -15.5140   27.9536 C   0  0  2  0  0  0  0  0  0  0  0  0
    9.3668  -14.9333   27.3030 N   0  0  0  0  0  0  0  0  0  0  0  0
   10.2917  -16.9626   28.2093 C   0  0  0  0  0  0  0  0  0  0  0  0
   11.2870  -17.7925   28.7003 O   0  0  0  0  0  0  0  0  0  0  0  0
    9.1674  -17.4839   27.9813 O   0  0  0  0  0  0  0  0  0  0  0  0
  2  1  1  0
  2  3  2  0
  4  2  1  0
  5  4  1  0
  6  7  1  6
  6  5  1  0
  8  6  1  0
  9  8  2  0
 10  8  1  0
 11 10  1  0
 12 11  1  0
 13 12  1  0
 13 14  1  0
 14 10  1  0
 14 15  1  1
 15 21  1  0
 16 15  2  0
 18 17  1  6
 18 19  1  0
 18 20  1  0
 20 21  1  1
 20 22  1  0
 22 23  1  0
 24 22  2  0
M  END
$$$$
