QPT.pdb
     RDKit          3D

 24 24  0  0  1  0  0  0  0  0999 V2000
    5.9200  -18.6059   23.4410 N   0  0  0  0  0  0  0  0  0  0  0  0
    7.0729  -18.7674   22.6323 C   0  0  0  0  0  0  0  0  0  0  0  0
    7.3751  -19.8827   22.1251 O   0  0  0  0  0  0  0  0  0  0  0  0
    7.9525  -17.6117   22.3669 C   0  0  0  0  0  0  0  0  0  0  0  0
    7.1311  -16.3521   22.0812 C   0  0  0  0  0  0  0  0  0  0  0  0
    8.0529  -15.1516   21.9691 C   0  0  2  0  0  0  0  0  0  0  0  0
    9.0029  -15.4440   20.9460 N   0  0  0  0  0  0  0  0  0  0  0  0
    8.6579  -14.8150   23.2560 C   0  0  0  0  0  0  0  0  0  0  0  0
    9.9282  -14.8889   23.3493 O   0  0  0  0  0  0  0  0  0  0  0  0
    7.9412  -14.4148   24.4049 N   0  0  0  0  0  0  0  0  0  0  0  0
    6.5271  -14.3538   24.5781 C   0  0  0  0  0  0  0  0  0  0  0  0
    6.3057  -13.3944   25.7184 C   0  0  0  0  0  0  0  0  0  0  0  0
    7.6756  -12.8025   26.0235 C   0  0  0  0  0  0  0  0  0  0  0  0
    8.5382  -14.0003   25.6871 C   0  0  1  0  0  0  0  0  0  0  0  0
    8.2712  -15.0278   26.7311 C   0  0  0  0  0  0  0  0  0  0  0  0
    7.4853  -15.9942   26.5593 O   0  0  0  0  0  0  0  0  0  0  0  0
   10.9270  -13.3422   29.2874 C   0  0  0  0  0  0  0  0  0  0  0  0
   10.9312  -14.8608   29.3935 C   0  0  1  0  0  0  0  0  0  0  0  0
   10.1663  -15.2815   30.4790 O   0  0  0  0  0  0  0  0  0  0  0  0
   10.2775  -15.4055   28.1396 C   0  0  2  0  0  0  0  0  0  0  0  0
    8.9217  -14.9368   27.9912 N   0  0  0  0  0  0  0  0  0  0  0  0
   10.3068  -16.8897   28.2404 C   0  0  0  0  0  0  0  0  0  0  0  0
   11.4909  -17.6094   28.2594 O   0  0  0  0  0  0  0  0  0  0  0  0
    9.2330  -17.5450   28.3126 O   0  0  0  0  0  0  0  0  0  0  0  0
  2  1  1  0
  2  3  2  0
  4  2  1  0
  5  4  1  0
  6  7  1  6
  6  5  1  0
  8  6  1  0
  9  8  2  0
 10  8  1  0
 11 10  1  0
 12 11  1  0
 13 12  1  0
 13 14  1  0
 14 10  1  0
 14 15  1  1
 15 21  1  0
 16 15  2  0
 18 17  1  6
 18 19  1  0
 18 20  1  0
 20 21  1  1
 20 22  1  0
 22 23  1  0
 24 22  2  0
M  END
$$$$
