QPT.pdb
     RDKit          3D

 24 24  0  0  1  0  0  0  0  0999 V2000
   12.6336  -15.8141   19.3536 N   0  0  0  0  0  0  0  0  0  0  0  0
   12.3278  -14.6646   20.1244 C   0  0  0  0  0  0  0  0  0  0  0  0
   13.2180  -13.8341   20.4569 O   0  0  0  0  0  0  0  0  0  0  0  0
   10.9380  -14.4180   20.5573 C   0  0  0  0  0  0  0  0  0  0  0  0
   10.1830  -13.5787   19.5237 C   0  0  0  0  0  0  0  0  0  0  0  0
    8.7678  -14.1047   19.3689 C   0  0  2  0  0  0  0  0  0  0  0  0
    8.1302  -13.3111   18.3697 N   0  0  0  0  0  0  0  0  0  0  0  0
    8.0582  -14.1255   20.6462 C   0  0  0  0  0  0  0  0  0  0  0  0
    7.3764  -13.0938   20.9605 O   0  0  0  0  0  0  0  0  0  0  0  0
    8.0714  -15.2022   21.5596 N   0  0  0  0  0  0  0  0  0  0  0  0
    8.9624  -16.3151   21.5887 C   0  0  0  0  0  0  0  0  0  0  0  0
    8.2407  -17.3837   22.3679 C   0  0  0  0  0  0  0  0  0  0  0  0
    6.8353  -16.8423   22.5948 C   0  0  0  0  0  0  0  0  0  0  0  0
    7.1579  -15.3672   22.7043 C   0  0  1  0  0  0  0  0  0  0  0  0
    7.9009  -15.1844   23.9816 C   0  0  0  0  0  0  0  0  0  0  0  0
    9.1353  -15.3948   24.0950 O   0  0  0  0  0  0  0  0  0  0  0  0
    6.7108  -11.7904   25.7880 C   0  0  0  0  0  0  0  0  0  0  0  0
    6.9225  -12.9369   26.7669 C   0  0  1  0  0  0  0  0  0  0  0  0
    5.7259  -13.6092   27.0052 O   0  0  0  0  0  0  0  0  0  0  0  0
    7.8736  -13.9205   26.1156 C   0  0  2  0  0  0  0  0  0  0  0  0
    7.2071  -14.7523   25.1441 N   0  0  0  0  0  0  0  0  0  0  0  0
    8.4538  -14.7536   27.2033 C   0  0  0  0  0  0  0  0  0  0  0  0
    9.2578  -14.2208   28.1983 O   0  0  0  0  0  0  0  0  0  0  0  0
    8.2245  -15.9918   27.2492 O   0  0  0  0  0  0  0  0  0  0  0  0
  2  1  1  0
  2  3  2  0
  4  2  1  0
  5  4  1  0
  6  7  1  6
  6  5  1  0
  8  6  1  0
  9  8  2  0
 10  8  1  0
 11 10  1  0
 12 11  1  0
 13 12  1  0
 13 14  1  0
 14 10  1  0
 14 15  1  1
 15 21  1  0
 16 15  2  0
 18 17  1  6
 18 19  1  0
 18 20  1  0
 20 21  1  6
 20 22  1  0
 22 23  1  0
 24 22  2  0
M  END
$$$$
