QPT.pdb
     RDKit          3D

 24 24  0  0  1  0  0  0  0  0999 V2000
    6.8042  -19.4077   23.0729 N   0  0  0  0  0  0  0  0  0  0  0  0
    6.5007  -18.5462   24.1568 C   0  0  0  0  0  0  0  0  0  0  0  0
    6.0924  -18.9935   25.2640 O   0  0  0  0  0  0  0  0  0  0  0  0
    6.6610  -17.0867   24.0030 C   0  0  0  0  0  0  0  0  0  0  0  0
    7.1428  -16.7338   22.5936 C   0  0  0  0  0  0  0  0  0  0  0  0
    7.2903  -15.2290   22.4623 C   0  0  2  0  0  0  0  0  0  0  0  0
    7.8119  -14.9687   21.1605 N   0  0  0  0  0  0  0  0  0  0  0  0
    8.0993  -14.6707   23.5437 C   0  0  0  0  0  0  0  0  0  0  0  0
    9.3676  -14.6989   23.4080 O   0  0  0  0  0  0  0  0  0  0  0  0
    7.5821  -14.1031   24.7285 N   0  0  0  0  0  0  0  0  0  0  0  0
    6.2214  -14.0469   25.1514 C   0  0  0  0  0  0  0  0  0  0  0  0
    6.1592  -12.9178   26.1469 C   0  0  0  0  0  0  0  0  0  0  0  0
    7.5282  -12.2523   26.0929 C   0  0  0  0  0  0  0  0  0  0  0  0
    8.3783  -13.4690   25.7944 C   0  0  1  0  0  0  0  0  0  0  0  0
    8.3596  -14.3160   27.0189 C   0  0  0  0  0  0  0  0  0  0  0  0
    7.3497  -14.9673   27.3888 O   0  0  0  0  0  0  0  0  0  0  0  0
   12.3490  -14.3777   28.0005 C   0  0  0  0  0  0  0  0  0  0  0  0
   11.6425  -15.5208   27.2851 C   0  0  1  0  0  0  0  0  0  0  0  0
   12.3079  -16.7250   27.5028 O   0  0  0  0  0  0  0  0  0  0  0  0
   10.2598  -15.6503   27.8911 C   0  0  2  0  0  0  0  0  0  0  0  0
    9.5246  -14.4112   27.8269 N   0  0  0  0  0  0  0  0  0  0  0  0
   10.4401  -16.0757   29.3054 C   0  0  0  0  0  0  0  0  0  0  0  0
   10.0970  -15.2635   30.3746 O   0  0  0  0  0  0  0  0  0  0  0  0
   10.9197  -17.2095   29.5739 O   0  0  0  0  0  0  0  0  0  0  0  0
  2  1  1  0
  2  3  2  0
  4  2  1  0
  5  4  1  0
  6  7  1  6
  6  5  1  0
  8  6  1  0
  9  8  2  0
 10  8  1  0
 11 10  1  0
 12 11  1  0
 13 12  1  0
 13 14  1  0
 14 10  1  0
 14 15  1  1
 15 21  1  0
 16 15  2  0
 18 17  1  1
 18 19  1  0
 18 20  1  0
 20 21  1  1
 20 22  1  0
 22 23  1  0
 24 22  2  0
M  END
$$$$
