QPT.pdb
     RDKit          3D

 24 24  0  0  1  0  0  0  0  0999 V2000
    6.8361  -18.4331   17.8003 N   0  0  0  0  0  0  0  0  0  0  0  0
    8.1982  -18.6581   17.4791 C   0  0  0  0  0  0  0  0  0  0  0  0
    8.7789  -19.7384   17.7762 O   0  0  0  0  0  0  0  0  0  0  0  0
    8.9711  -17.6125   16.7797 C   0  0  0  0  0  0  0  0  0  0  0  0
    8.0947  -16.3953   16.4744 C   0  0  0  0  0  0  0  0  0  0  0  0
    8.9694  -15.1764   16.2453 C   0  0  2  0  0  0  0  0  0  0  0  0
    9.8073  -15.4632   15.1270 N   0  0  0  0  0  0  0  0  0  0  0  0
    9.7046  -14.8064   17.4527 C   0  0  0  0  0  0  0  0  0  0  0  0
   10.9755  -14.9166   17.4280 O   0  0  0  0  0  0  0  0  0  0  0  0
    9.1133  -14.3367   18.6458 N   0  0  0  0  0  0  0  0  0  0  0  0
    7.7285  -14.1274   18.9137 C   0  0  0  0  0  0  0  0  0  0  0  0
    7.6870  -13.1537   20.0627 C   0  0  0  0  0  0  0  0  0  0  0  0
    9.1291  -12.7108   20.2725 C   0  0  0  0  0  0  0  0  0  0  0  0
    9.8359  -13.9918   19.8832 C   0  0  1  0  0  0  0  0  0  0  0  0
    9.5329  -14.9889   20.9468 C   0  0  0  0  0  0  0  0  0  0  0  0
    8.5467  -15.7675   20.8983 O   0  0  0  0  0  0  0  0  0  0  0  0
   10.6588  -17.2729   20.3114 C   0  0  0  0  0  0  0  0  0  0  0  0
   11.5232  -17.1936   21.5620 C   0  0  1  0  0  0  0  0  0  0  0  0
   12.7129  -16.5191   21.2972 O   0  0  0  0  0  0  0  0  0  0  0  0
   10.7610  -16.3826   22.5903 C   0  0  2  0  0  0  0  0  0  0  0  0
   10.3818  -15.0872   22.0821 N   0  0  0  0  0  0  0  0  0  0  0  0
   11.6470  -16.2370   23.7767 C   0  0  0  0  0  0  0  0  0  0  0  0
   11.7496  -17.2166   24.7516 O   0  0  0  0  0  0  0  0  0  0  0  0
   12.3420  -15.1971   23.9296 O   0  0  0  0  0  0  0  0  0  0  0  0
  2  1  1  0
  2  3  2  0
  4  2  1  0
  5  4  1  0
  6  7  1  6
  6  5  1  0
  8  6  1  0
  9  8  2  0
 10  8  1  0
 11 10  1  0
 12 11  1  0
 13 12  1  0
 13 14  1  0
 14 10  1  0
 14 15  1  1
 15 21  1  0
 16 15  2  0
 18 17  1  6
 18 19  1  0
 18 20  1  0
 20 21  1  6
 20 22  1  0
 22 23  1  0
 24 22  2  0
M  END
$$$$
