QPT.pdb
     RDKit          3D

 24 24  0  0  1  0  0  0  0  0999 V2000
    8.6452  -18.0066   18.7639 N   0  0  0  0  0  0  0  0  0  0  0  0
    9.1671  -18.4374   17.5185 C   0  0  0  0  0  0  0  0  0  0  0  0
    9.8431  -19.4980   17.4149 O   0  0  0  0  0  0  0  0  0  0  0  0
    8.9226  -17.6368   16.3024 C   0  0  0  0  0  0  0  0  0  0  0  0
    7.9627  -16.4801   16.5916 C   0  0  0  0  0  0  0  0  0  0  0  0
    8.7004  -15.1588   16.4771 C   0  0  2  0  0  0  0  0  0  0  0  0
    9.5384  -15.2425   15.3257 N   0  0  0  0  0  0  0  0  0  0  0  0
    9.4199  -14.8351   17.7071 C   0  0  0  0  0  0  0  0  0  0  0  0
   10.6948  -14.8183   17.6591 O   0  0  0  0  0  0  0  0  0  0  0  0
    8.8094  -14.5405   18.9457 N   0  0  0  0  0  0  0  0  0  0  0  0
    7.4280  -14.6368   19.2863 C   0  0  0  0  0  0  0  0  0  0  0  0
    7.2468  -13.7325   20.4776 C   0  0  0  0  0  0  0  0  0  0  0  0
    8.5738  -13.0028   20.6397 C   0  0  0  0  0  0  0  0  0  0  0  0
    9.5102  -14.0924   20.1623 C   0  0  1  0  0  0  0  0  0  0  0  0
    9.4805  -15.1657   21.1940 C   0  0  0  0  0  0  0  0  0  0  0  0
    8.5204  -15.9671   21.3247 O   0  0  0  0  0  0  0  0  0  0  0  0
   12.3018  -17.2790   20.7812 C   0  0  0  0  0  0  0  0  0  0  0  0
   12.2685  -17.0764   22.2896 C   0  0  1  0  0  0  0  0  0  0  0  0
   13.1594  -16.0765   22.6727 O   0  0  0  0  0  0  0  0  0  0  0  0
   10.8748  -16.6064   22.6541 C   0  0  2  0  0  0  0  0  0  0  0  0
   10.5758  -15.3145   22.0868 N   0  0  0  0  0  0  0  0  0  0  0  0
   10.8064  -16.5509   24.1394 C   0  0  0  0  0  0  0  0  0  0  0  0
   10.8634  -17.6886   24.9285 O   0  0  0  0  0  0  0  0  0  0  0  0
   10.6922  -15.4444   24.7313 O   0  0  0  0  0  0  0  0  0  0  0  0
  2  1  1  0
  2  3  2  0
  4  2  1  0
  5  4  1  0
  6  7  1  6
  6  5  1  0
  8  6  1  0
  9  8  2  0
 10  8  1  0
 11 10  1  0
 12 11  1  0
 13 12  1  0
 13 14  1  0
 14 10  1  0
 14 15  1  1
 15 21  1  0
 16 15  2  0
 18 17  1  6
 18 19  1  0
 18 20  1  0
 20 21  1  6
 20 22  1  0
 22 23  1  0
 24 22  2  0
M  END
$$$$
