DQD.pdb
     RDKit          3D

 26 25  0  0  1  0  0  0  0  0999 V2000
   32.5646  -14.4692  -19.0657 N   0  0  0  0  0  0  0  0  0  0  0  0
   31.8710  -13.2740  -19.4351 C   0  0  1  0  0  0  0  0  0  0  0  0
   30.4994  -13.6270  -19.9717 C   0  0  0  0  0  0  0  0  0  0  0  0
   30.6726  -14.3569  -21.2484 C   0  0  0  0  0  0  0  0  0  0  0  0
   31.8074  -14.6140  -21.7205 O   0  0  0  0  0  0  0  0  0  0  0  0
   31.7943  -12.3841  -18.2552 C   0  0  0  0  0  0  0  0  0  0  0  0
   31.5467  -12.7891  -17.0894 O   0  0  0  0  0  0  0  0  0  0  0  0
   29.5725  -14.7943  -21.9883 O   0  0  0  0  0  0  0  0  0  0  0  0
   35.4217   -7.5768  -16.6396 N   0  0  0  0  0  0  0  0  0  0  0  0
   35.3562   -8.8071  -15.9405 C   0  0  0  0  0  0  0  0  0  0  0  0
   36.2024   -9.0214  -15.0417 O   0  0  0  0  0  0  0  0  0  0  0  0
   34.3252   -9.8002  -16.2625 C   0  0  0  0  0  0  0  0  0  0  0  0
   33.3888   -9.3167  -17.3455 C   0  0  0  0  0  0  0  0  0  0  0  0
   32.0665  -10.0603  -17.3022 C   0  0  2  0  0  0  0  0  0  0  0  0
   32.0088  -10.9840  -18.4186 N   0  0  0  0  0  0  0  0  0  0  0  0
   30.9331   -9.1100  -17.3324 C   0  0  0  0  0  0  0  0  0  0  0  0
   30.7671   -8.2885  -16.3943 O   0  0  0  0  0  0  0  0  0  0  0  0
   30.0226   -9.1161  -18.4195 N   0  0  0  0  0  0  0  0  0  0  0  0
   28.8381   -8.2570  -18.3641 C   0  0  1  0  0  0  0  0  0  0  0  0
   29.0713   -7.1060  -19.3144 C   0  0  0  0  0  0  0  0  0  0  0  0
   27.8950   -6.2299  -19.3797 C   0  0  0  0  0  0  0  0  0  0  0  0
   26.9638   -6.4944  -20.1804 O   0  0  0  0  0  0  0  0  0  0  0  0
   27.6443   -9.0262  -18.7523 C   0  0  0  0  0  0  0  0  0  0  0  0
   27.6566  -10.1247  -19.3474 O   0  0  0  0  0  0  0  0  0  0  0  0
   27.7520   -5.0995  -18.5870 O   0  0  0  0  0  0  0  0  0  0  0  0
   26.3714   -8.5170  -18.4464 O   0  0  0  0  0  0  0  0  0  0  0  0
  2  1  1  1
  2  3  1  0
  3  4  1  0
  4  5  2  0
  4  8  1  0
  6  7  2  0
  6  2  1  0
  9 10  1  0
 10 12  1  0
 11 10  2  0
 12 13  1  0
 14 13  1  6
 14 15  1  0
 15  6  1  0
 16 14  1  0
 16 17  2  0
 18 16  1  0
 19 18  1  0
 19 20  1  6
 20 21  1  0
 21 22  2  0
 21 25  1  0
 23 19  1  0
 24 23  2  0
 26 23  1  0
M  END
$$$$
