DQD.pdb
     RDKit          3D

 26 25  0  0  1  0  0  0  0  0999 V2000
   18.7705  -11.9334  -15.3047 N   0  0  0  0  0  0  0  0  0  0  0  0
   19.4568  -11.4538  -16.4644 C   0  0  1  0  0  0  0  0  0  0  0  0
   19.0036  -12.2321  -17.6820 C   0  0  0  0  0  0  0  0  0  0  0  0
   19.4840  -13.6266  -17.5486 C   0  0  0  0  0  0  0  0  0  0  0  0
   18.9299  -14.4518  -16.7815 O   0  0  0  0  0  0  0  0  0  0  0  0
   19.1994  -10.0033  -16.6042 C   0  0  0  0  0  0  0  0  0  0  0  0
   19.8619   -9.2457  -17.3602 O   0  0  0  0  0  0  0  0  0  0  0  0
   20.5827  -14.0874  -18.2763 O   0  0  0  0  0  0  0  0  0  0  0  0
   13.7453   -7.1288  -15.9491 N   0  0  0  0  0  0  0  0  0  0  0  0
   14.6272   -6.0576  -15.6639 C   0  0  0  0  0  0  0  0  0  0  0  0
   14.1493   -4.9014  -15.5962 O   0  0  0  0  0  0  0  0  0  0  0  0
   16.0592   -6.2989  -15.4543 C   0  0  0  0  0  0  0  0  0  0  0  0
   16.4012   -7.7700  -15.5054 C   0  0  0  0  0  0  0  0  0  0  0  0
   17.8483   -7.9849  -15.9092 C   0  0  2  0  0  0  0  0  0  0  0  0
   18.1476   -9.4027  -15.8519 N   0  0  0  0  0  0  0  0  0  0  0  0
   18.7541   -7.2090  -15.0342 C   0  0  0  0  0  0  0  0  0  0  0  0
   19.0900   -7.6587  -13.9084 O   0  0  0  0  0  0  0  0  0  0  0  0
   19.2528   -5.9504  -15.4562 N   0  0  0  0  0  0  0  0  0  0  0  0
   20.1452   -5.2016  -14.5690 C   0  0  1  0  0  0  0  0  0  0  0  0
   21.5555   -5.6602  -14.8569 C   0  0  0  0  0  0  0  0  0  0  0  0
   22.5332   -4.8562  -14.1130 C   0  0  0  0  0  0  0  0  0  0  0  0
   22.4862   -4.8207  -12.8581 O   0  0  0  0  0  0  0  0  0  0  0  0
   20.0004   -3.7577  -14.8173 C   0  0  0  0  0  0  0  0  0  0  0  0
   20.4818   -2.8516  -14.1043 O   0  0  0  0  0  0  0  0  0  0  0  0
   23.5296   -4.1162  -14.7345 O   0  0  0  0  0  0  0  0  0  0  0  0
   19.2693   -3.3245  -15.9358 O   0  0  0  0  0  0  0  0  0  0  0  0
  2  1  1  1
  2  3  1  0
  3  4  1  0
  4  5  2  0
  4  8  1  0
  6  7  2  0
  6  2  1  0
  9 10  1  0
 10 12  1  0
 11 10  2  0
 12 13  1  0
 14 13  1  1
 14 15  1  0
 15  6  1  0
 16 14  1  0
 16 17  2  0
 18 16  1  0
 19 18  1  0
 19 20  1  6
 20 21  1  0
 21 22  2  0
 21 25  1  0
 23 19  1  0
 24 23  2  0
 26 23  1  0
M  END
$$$$
