DQD.pdb
     RDKit          3D

 26 25  0  0  1  0  0  0  0  0999 V2000
   15.4959  -11.1580  -11.8667 N   0  0  0  0  0  0  0  0  0  0  0  0
   14.6818  -10.5037  -10.8895 C   0  0  1  0  0  0  0  0  0  0  0  0
   14.2553  -11.5010   -9.8325 C   0  0  0  0  0  0  0  0  0  0  0  0
   13.4442  -12.5537  -10.4858 C   0  0  0  0  0  0  0  0  0  0  0  0
   13.1994  -12.5384  -11.7172 O   0  0  0  0  0  0  0  0  0  0  0  0
   15.4448   -9.3745  -10.3129 C   0  0  0  0  0  0  0  0  0  0  0  0
   15.1204   -8.7819   -9.2508 O   0  0  0  0  0  0  0  0  0  0  0  0
   12.9124  -13.6175   -9.7545 O   0  0  0  0  0  0  0  0  0  0  0  0
   21.1853   -7.5403  -12.5117 N   0  0  0  0  0  0  0  0  0  0  0  0
   20.8622   -6.5569  -11.5447 C   0  0  0  0  0  0  0  0  0  0  0  0
   21.7074   -5.6634  -11.3059 O   0  0  0  0  0  0  0  0  0  0  0  0
   19.5732   -6.5870  -10.8444 C   0  0  0  0  0  0  0  0  0  0  0  0
   18.7341   -7.7769  -11.2490 C   0  0  0  0  0  0  0  0  0  0  0  0
   17.4336   -7.8244  -10.4680 C   0  0  2  0  0  0  0  0  0  0  0  0
   16.6182   -8.9104  -10.9767 N   0  0  0  0  0  0  0  0  0  0  0  0
   16.7229   -6.5304  -10.5603 C   0  0  0  0  0  0  0  0  0  0  0  0
   16.1632   -6.1875  -11.6335 O   0  0  0  0  0  0  0  0  0  0  0  0
   16.6656   -5.6636   -9.4394 N   0  0  0  0  0  0  0  0  0  0  0  0
   15.9586   -4.3868   -9.5592 C   0  0  1  0  0  0  0  0  0  0  0  0
   15.5068   -3.9902   -8.1732 C   0  0  0  0  0  0  0  0  0  0  0  0
   14.7737   -2.7184   -8.2018 C   0  0  0  0  0  0  0  0  0  0  0  0
   14.3950   -2.2411   -9.3004 O   0  0  0  0  0  0  0  0  0  0  0  0
   16.8568   -3.3700  -10.1309 C   0  0  0  0  0  0  0  0  0  0  0  0
   18.1014   -3.3638  -10.0211 O   0  0  0  0  0  0  0  0  0  0  0  0
   14.4690   -1.9980   -7.0551 O   0  0  0  0  0  0  0  0  0  0  0  0
   16.3081   -2.3058  -10.8653 O   0  0  0  0  0  0  0  0  0  0  0  0
  2  1  1  6
  2  3  1  0
  3  4  1  0
  4  5  2  0
  4  8  1  0
  6  7  2  0
  6  2  1  0
  9 10  1  0
 10 12  1  0
 11 10  2  0
 12 13  1  0
 14 13  1  6
 14 15  1  0
 15  6  1  0
 16 14  1  0
 16 17  2  0
 18 16  1  0
 19 18  1  0
 19 20  1  1
 20 21  1  0
 21 22  2  0
 21 25  1  0
 23 19  1  0
 24 23  2  0
 26 23  1  0
M  END
$$$$
