DQD.pdb
     RDKit          3D

 26 25  0  0  1  0  0  0  0  0999 V2000
   21.1289  -12.7700  -19.3320 N   0  0  0  0  0  0  0  0  0  0  0  0
   21.8000  -12.0465  -18.2967 C   0  0  1  0  0  0  0  0  0  0  0  0
   23.1772  -11.6352  -18.7740 C   0  0  0  0  0  0  0  0  0  0  0  0
   23.9882  -12.8592  -18.9662 C   0  0  0  0  0  0  0  0  0  0  0  0
   23.9163  -13.8364  -18.1811 O   0  0  0  0  0  0  0  0  0  0  0  0
   20.9719  -10.8803  -17.9171 C   0  0  0  0  0  0  0  0  0  0  0  0
   20.2860  -10.2142  -18.7358 O   0  0  0  0  0  0  0  0  0  0  0  0
   24.8749  -12.9804  -20.0378 O   0  0  0  0  0  0  0  0  0  0  0  0
   17.3224  -10.7299  -13.2207 N   0  0  0  0  0  0  0  0  0  0  0  0
   17.0973  -11.0084  -14.5913 C   0  0  0  0  0  0  0  0  0  0  0  0
   16.1030  -11.7071  -14.8964 O   0  0  0  0  0  0  0  0  0  0  0  0
   18.0049  -10.4916  -15.6218 C   0  0  0  0  0  0  0  0  0  0  0  0
   19.1922   -9.7723  -15.0247 C   0  0  0  0  0  0  0  0  0  0  0  0
   20.1613   -9.3211  -16.1021 C   0  0  2  0  0  0  0  0  0  0  0  0
   20.9294  -10.4652  -16.5537 N   0  0  0  0  0  0  0  0  0  0  0  0
   21.0440   -8.2488  -15.5930 C   0  0  0  0  0  0  0  0  0  0  0  0
   21.9951   -8.5232  -14.8168 O   0  0  0  0  0  0  0  0  0  0  0  0
   20.8264   -6.9006  -15.9753 N   0  0  0  0  0  0  0  0  0  0  0  0
   21.6962   -5.8550  -15.4327 C   0  0  1  0  0  0  0  0  0  0  0  0
   21.3534   -4.5684  -16.1465 C   0  0  0  0  0  0  0  0  0  0  0  0
   22.1672   -3.4543  -15.6445 C   0  0  0  0  0  0  0  0  0  0  0  0
   21.6520   -2.5995  -14.8815 O   0  0  0  0  0  0  0  0  0  0  0  0
   21.4780   -5.7263  -13.9824 C   0  0  0  0  0  0  0  0  0  0  0  0
   20.4241   -6.0270  -13.3824 O   0  0  0  0  0  0  0  0  0  0  0  0
   23.5055   -3.2899  -15.9742 O   0  0  0  0  0  0  0  0  0  0  0  0
   22.5143   -5.2293  -13.1748 O   0  0  0  0  0  0  0  0  0  0  0  0
  2  1  1  6
  2  3  1  0
  3  4  1  0
  4  5  2  0
  4  8  1  0
  6  7  2  0
  6  2  1  0
  9 10  1  0
 10 12  1  0
 11 10  2  0
 12 13  1  0
 14 13  1  1
 14 15  1  0
 15  6  1  0
 16 14  1  0
 16 17  2  0
 18 16  1  0
 19 18  1  0
 19 20  1  6
 20 21  1  0
 21 22  2  0
 21 25  1  0
 23 19  1  0
 24 23  2  0
 26 23  1  0
M  END
$$$$
