DQD.pdb
     RDKit          3D

 26 25  0  0  1  0  0  0  0  0999 V2000
   17.1594  -17.4856  -15.5117 N   0  0  0  0  0  0  0  0  0  0  0  0
   17.0345  -16.8174  -14.2532 C   0  0  1  0  0  0  0  0  0  0  0  0
   18.3868  -16.7539  -13.5745 C   0  0  0  0  0  0  0  0  0  0  0  0
   18.6853  -18.0881  -13.0054 C   0  0  0  0  0  0  0  0  0  0  0  0
   19.7135  -18.3046  -12.3180 O   0  0  0  0  0  0  0  0  0  0  0  0
   16.4641  -15.4714  -14.4834 C   0  0  0  0  0  0  0  0  0  0  0  0
   16.6691  -14.7943  -15.5245 O   0  0  0  0  0  0  0  0  0  0  0  0
   17.8291  -19.1716  -13.2104 O   0  0  0  0  0  0  0  0  0  0  0  0
   11.5766  -13.2203  -11.0667 N   0  0  0  0  0  0  0  0  0  0  0  0
   11.8407  -12.1864  -11.9982 C   0  0  0  0  0  0  0  0  0  0  0  0
   11.0501  -11.2154  -12.0426 O   0  0  0  0  0  0  0  0  0  0  0  0
   13.0080  -12.2540  -12.8847 C   0  0  0  0  0  0  0  0  0  0  0  0
   13.7921  -13.5318  -12.6955 C   0  0  0  0  0  0  0  0  0  0  0  0
   14.9461  -13.6199  -13.6773 C   0  0  2  0  0  0  0  0  0  0  0  0
   15.6316  -14.8835  -13.4864 N   0  0  0  0  0  0  0  0  0  0  0  0
   15.8683  -12.4767  -13.5013 C   0  0  0  0  0  0  0  0  0  0  0  0
   16.6076  -12.4068  -12.4860 O   0  0  0  0  0  0  0  0  0  0  0  0
   15.9278  -11.4483  -14.4759 N   0  0  0  0  0  0  0  0  0  0  0  0
   16.8549  -10.3318  -14.2805 C   0  0  1  0  0  0  0  0  0  0  0  0
   17.4115   -9.9658  -15.6364 C   0  0  0  0  0  0  0  0  0  0  0  0
   18.3581   -8.8483  -15.5332 C   0  0  0  0  0  0  0  0  0  0  0  0
   19.1154   -8.7622  -14.5345 O   0  0  0  0  0  0  0  0  0  0  0  0
   16.1442   -9.1917  -13.6783 C   0  0  0  0  0  0  0  0  0  0  0  0
   14.9556   -8.8811  -13.9063 O   0  0  0  0  0  0  0  0  0  0  0  0
   18.4648   -7.8589  -16.5009 O   0  0  0  0  0  0  0  0  0  0  0  0
   16.8232   -8.3633  -12.7696 O   0  0  0  0  0  0  0  0  0  0  0  0
  2  1  1  6
  2  3  1  0
  3  4  1  0
  4  5  2  0
  4  8  1  0
  6  7  2  0
  6  2  1  0
  9 10  1  0
 10 12  1  0
 11 10  2  0
 12 13  1  0
 14 13  1  1
 14 15  1  0
 15  6  1  0
 16 14  1  0
 16 17  2  0
 18 16  1  0
 19 18  1  0
 19 20  1  6
 20 21  1  0
 21 22  2  0
 21 25  1  0
 23 19  1  0
 24 23  2  0
 26 23  1  0
M  END
$$$$
