DQD.pdb
     RDKit          3D

 26 25  0  0  1  0  0  0  0  0999 V2000
   18.1134  -14.9315  -15.9980 N   0  0  0  0  0  0  0  0  0  0  0  0
   17.7048  -13.6143  -16.3775 C   0  0  1  0  0  0  0  0  0  0  0  0
   16.4047  -13.2652  -15.6836 C   0  0  0  0  0  0  0  0  0  0  0  0
   15.3733  -14.2384  -16.1101 C   0  0  0  0  0  0  0  0  0  0  0  0
   15.1416  -14.4761  -17.3211 O   0  0  0  0  0  0  0  0  0  0  0  0
   18.7878  -12.6640  -16.0400 C   0  0  0  0  0  0  0  0  0  0  0  0
   19.3142  -12.5808  -14.8997 O   0  0  0  0  0  0  0  0  0  0  0  0
   14.6078  -14.9393  -15.1764 O   0  0  0  0  0  0  0  0  0  0  0  0
   23.2763  -11.6552  -19.7722 N   0  0  0  0  0  0  0  0  0  0  0  0
   23.1771  -12.5187  -18.6536 C   0  0  0  0  0  0  0  0  0  0  0  0
   23.9230  -13.5247  -18.6162 O   0  0  0  0  0  0  0  0  0  0  0  0
   22.2266  -12.2398  -17.5712 C   0  0  0  0  0  0  0  0  0  0  0  0
   21.4247  -10.9850  -17.8282 C   0  0  0  0  0  0  0  0  0  0  0  0
   20.3299  -10.8095  -16.7919 C   0  0  2  0  0  0  0  0  0  0  0  0
   19.2828  -11.7806  -17.0438 N   0  0  0  0  0  0  0  0  0  0  0  0
   19.8002   -9.4286  -16.8223 C   0  0  0  0  0  0  0  0  0  0  0  0
   19.1747   -9.0097  -17.8301 O   0  0  0  0  0  0  0  0  0  0  0  0
   19.9926   -8.5636  -15.7152 N   0  0  0  0  0  0  0  0  0  0  0  0
   19.5463   -7.1721  -15.8099 C   0  0  1  0  0  0  0  0  0  0  0  0
   18.3493   -7.0199  -14.9009 C   0  0  0  0  0  0  0  0  0  0  0  0
   17.8668   -5.6333  -14.8926 C   0  0  0  0  0  0  0  0  0  0  0  0
   17.1384   -5.2317  -13.9511 O   0  0  0  0  0  0  0  0  0  0  0  0
   20.6352   -6.2693  -15.4015 C   0  0  0  0  0  0  0  0  0  0  0  0
   21.7003   -6.6258  -14.8541 O   0  0  0  0  0  0  0  0  0  0  0  0
   18.1785   -4.7207  -15.8910 O   0  0  0  0  0  0  0  0  0  0  0  0
   20.5032   -4.8894  -15.6289 O   0  0  0  0  0  0  0  0  0  0  0  0
  2  1  1  1
  2  3  1  0
  3  4  1  0
  4  5  2  0
  4  8  1  0
  6  7  2  0
  6  2  1  0
  9 10  1  0
 10 12  1  0
 11 10  2  0
 12 13  1  0
 14 13  1  6
 14 15  1  0
 15  6  1  0
 16 14  1  0
 16 17  2  0
 18 16  1  0
 19 18  1  0
 19 20  1  1
 20 21  1  0
 21 22  2  0
 21 25  1  0
 23 19  1  0
 24 23  2  0
 26 23  1  0
M  END
$$$$
