DQD.pdb
     RDKit          3D

 26 25  0  0  1  0  0  0  0  0999 V2000
   20.0549  -12.9182  -16.2464 N   0  0  0  0  0  0  0  0  0  0  0  0
   19.8737  -11.5234  -16.5066 C   0  0  1  0  0  0  0  0  0  0  0  0
   18.4152  -11.1575  -16.3265 C   0  0  0  0  0  0  0  0  0  0  0  0
   17.6197  -11.9105  -17.3232 C   0  0  0  0  0  0  0  0  0  0  0  0
   16.6738  -12.6652  -16.9883 O   0  0  0  0  0  0  0  0  0  0  0  0
   20.7561  -10.7520  -15.6032 C   0  0  0  0  0  0  0  0  0  0  0  0
   20.7789  -10.9011  -14.3536 O   0  0  0  0  0  0  0  0  0  0  0  0
   17.8895  -11.8125  -18.6895 O   0  0  0  0  0  0  0  0  0  0  0  0
   26.6155   -9.7784  -15.8784 N   0  0  0  0  0  0  0  0  0  0  0  0
   25.7904  -10.7583  -15.2737 C   0  0  0  0  0  0  0  0  0  0  0  0
   26.3287  -11.8139  -14.8665 O   0  0  0  0  0  0  0  0  0  0  0  0
   24.3466  -10.5399  -15.1301 C   0  0  0  0  0  0  0  0  0  0  0  0
   23.9243   -9.1802  -15.6364 C   0  0  0  0  0  0  0  0  0  0  0  0
   22.4625   -8.9090  -15.3313 C   0  0  2  0  0  0  0  0  0  0  0  0
   21.6410   -9.7779  -16.1518 N   0  0  0  0  0  0  0  0  0  0  0  0
   22.1371   -7.4849  -15.5646 C   0  0  0  0  0  0  0  0  0  0  0  0
   22.2939   -6.9753  -16.7039 O   0  0  0  0  0  0  0  0  0  0  0  0
   21.6452   -6.6802  -14.5056 N   0  0  0  0  0  0  0  0  0  0  0  0
   21.3813   -5.2608  -14.7501 C   0  0  1  0  0  0  0  0  0  0  0  0
   19.9879   -4.9680  -14.2454 C   0  0  0  0  0  0  0  0  0  0  0  0
   18.9749   -5.6102  -15.0924 C   0  0  0  0  0  0  0  0  0  0  0  0
   18.9190   -5.3339  -16.3166 O   0  0  0  0  0  0  0  0  0  0  0  0
   22.3794   -4.4386  -14.0464 C   0  0  0  0  0  0  0  0  0  0  0  0
   23.2593   -4.8762  -13.2748 O   0  0  0  0  0  0  0  0  0  0  0  0
   18.0546   -6.5270  -14.6033 O   0  0  0  0  0  0  0  0  0  0  0  0
   22.3740   -3.0461  -14.2316 O   0  0  0  0  0  0  0  0  0  0  0  0
  2  1  1  1
  2  3  1  0
  3  4  1  0
  4  5  2  0
  4  8  1  0
  6  7  2  0
  6  2  1  0
  9 10  1  0
 10 12  1  0
 11 10  2  0
 12 13  1  0
 14 13  1  6
 14 15  1  0
 15  6  1  0
 16 14  1  0
 16 17  2  0
 18 16  1  0
 19 18  1  0
 19 20  1  1
 20 21  1  0
 21 22  2  0
 21 25  1  0
 23 19  1  0
 24 23  2  0
 26 23  1  0
M  END
$$$$
