DQD.pdb
     RDKit          3D

 26 25  0  0  1  0  0  0  0  0999 V2000
   16.2677  -11.7226  -12.5042 N   0  0  0  0  0  0  0  0  0  0  0  0
   15.8475  -11.1205  -13.7318 C   0  0  1  0  0  0  0  0  0  0  0  0
   14.5976  -11.8115  -14.2357 C   0  0  0  0  0  0  0  0  0  0  0  0
   14.9431  -13.2118  -14.5718 C   0  0  0  0  0  0  0  0  0  0  0  0
   15.1279  -13.5868  -15.7558 O   0  0  0  0  0  0  0  0  0  0  0  0
   15.6297   -9.6748  -13.5030 C   0  0  0  0  0  0  0  0  0  0  0  0
   15.1891   -8.8871  -14.3804 O   0  0  0  0  0  0  0  0  0  0  0  0
   15.0794  -14.1832  -13.5784 O   0  0  0  0  0  0  0  0  0  0  0  0
   15.3219   -7.2161   -7.6882 N   0  0  0  0  0  0  0  0  0  0  0  0
   14.1896   -7.6103   -8.4426 C   0  0  0  0  0  0  0  0  0  0  0  0
   13.1138   -7.8101   -7.8323 O   0  0  0  0  0  0  0  0  0  0  0  0
   14.2779   -7.7789   -9.8975 C   0  0  0  0  0  0  0  0  0  0  0  0
   15.6772   -7.5369  -10.4139 C   0  0  0  0  0  0  0  0  0  0  0  0
   15.7454   -7.7091  -11.9203 C   0  0  2  0  0  0  0  0  0  0  0  0
   15.9270   -9.1150  -12.2258 N   0  0  0  0  0  0  0  0  0  0  0  0
   16.8382   -6.8904  -12.4893 C   0  0  0  0  0  0  0  0  0  0  0  0
   18.0373   -7.1470  -12.2086 O   0  0  0  0  0  0  0  0  0  0  0  0
   16.5444   -5.8079  -13.3571 N   0  0  0  0  0  0  0  0  0  0  0  0
   17.6451   -5.0119  -13.9042 C   0  0  1  0  0  0  0  0  0  0  0  0
   17.8591   -5.4596  -15.3310 C   0  0  0  0  0  0  0  0  0  0  0  0
   18.8353   -4.6001  -16.0122 C   0  0  0  0  0  0  0  0  0  0  0  0
   18.4877   -3.9413  -17.0238 O   0  0  0  0  0  0  0  0  0  0  0  0
   17.3032   -3.5811  -13.8473 C   0  0  0  0  0  0  0  0  0  0  0  0
   18.1007   -2.6407  -14.0492 O   0  0  0  0  0  0  0  0  0  0  0  0
   20.1514   -4.4725  -15.5899 O   0  0  0  0  0  0  0  0  0  0  0  0
   15.9846   -3.2029  -13.5448 O   0  0  0  0  0  0  0  0  0  0  0  0
  2  1  1  1
  2  3  1  0
  3  4  1  0
  4  5  2  0
  4  8  1  0
  6  7  2  0
  6  2  1  0
  9 10  1  0
 10 12  1  0
 11 10  2  0
 12 13  1  0
 14 13  1  1
 14 15  1  0
 15  6  1  0
 16 14  1  0
 16 17  2  0
 18 16  1  0
 19 18  1  0
 19 20  1  6
 20 21  1  0
 21 22  2  0
 21 25  1  0
 23 19  1  0
 24 23  2  0
 26 23  1  0
M  END
$$$$
