DQD.pdb
     RDKit          3D

 26 25  0  0  1  0  0  0  0  0999 V2000
   16.7226  -11.9809  -16.9272 N   0  0  0  0  0  0  0  0  0  0  0  0
   17.4069  -11.8063  -15.6833 C   0  0  1  0  0  0  0  0  0  0  0  0
   17.5617  -13.1466  -14.9953 C   0  0  0  0  0  0  0  0  0  0  0  0
   16.2430  -13.5465  -14.4529 C   0  0  0  0  0  0  0  0  0  0  0  0
   15.3431  -12.7075  -14.2025 O   0  0  0  0  0  0  0  0  0  0  0  0
   18.7130  -11.1616  -15.9449 C   0  0  0  0  0  0  0  0  0  0  0  0
   19.8002  -11.5597  -15.4509 O   0  0  0  0  0  0  0  0  0  0  0  0
   15.9411  -14.8849  -14.1946 O   0  0  0  0  0  0  0  0  0  0  0  0
   21.7793   -8.7765  -20.7696 N   0  0  0  0  0  0  0  0  0  0  0  0
   21.4199  -10.1011  -20.4191 C   0  0  0  0  0  0  0  0  0  0  0  0
   21.8342  -11.0365  -21.1424 O   0  0  0  0  0  0  0  0  0  0  0  0
   20.5858  -10.3665  -19.2415 C   0  0  0  0  0  0  0  0  0  0  0  0
   20.1481   -9.0928  -18.5562 C   0  0  0  0  0  0  0  0  0  0  0  0
   20.0010   -9.2957  -17.0593 C   0  0  2  0  0  0  0  0  0  0  0  0
   18.7733  -10.0231  -16.8011 N   0  0  0  0  0  0  0  0  0  0  0  0
   20.0134   -7.9956  -16.3536 C   0  0  0  0  0  0  0  0  0  0  0  0
   18.9475   -7.3459  -16.1990 O   0  0  0  0  0  0  0  0  0  0  0  0
   21.2278   -7.4692  -15.8444 N   0  0  0  0  0  0  0  0  0  0  0  0
   21.2129   -6.1772  -15.1553 C   0  0  1  0  0  0  0  0  0  0  0  0
   22.0521   -6.3223  -13.9076 C   0  0  0  0  0  0  0  0  0  0  0  0
   22.1497   -5.0469  -13.1869 C   0  0  0  0  0  0  0  0  0  0  0  0
   21.1660   -4.2657  -13.1651 O   0  0  0  0  0  0  0  0  0  0  0  0
   21.7592   -5.1336  -16.0384 C   0  0  0  0  0  0  0  0  0  0  0  0
   22.4427   -5.3417  -17.0634 O   0  0  0  0  0  0  0  0  0  0  0  0
   23.2955   -4.6477  -12.5128 O   0  0  0  0  0  0  0  0  0  0  0  0
   21.5138   -3.7836  -15.7376 O   0  0  0  0  0  0  0  0  0  0  0  0
  2  1  1  6
  2  3  1  0
  3  4  1  0
  4  5  2  0
  4  8  1  0
  6  7  2  0
  6  2  1  0
  9 10  1  0
 10 12  1  0
 11 10  2  0
 12 13  1  0
 14 13  1  6
 14 15  1  0
 15  6  1  0
 16 14  1  0
 16 17  2  0
 18 16  1  0
 19 18  1  0
 19 20  1  1
 20 21  1  0
 21 22  2  0
 21 25  1  0
 23 19  1  0
 24 23  2  0
 26 23  1  0
M  END
$$$$
