DQD.pdb
     RDKit          3D

 26 25  0  0  1  0  0  0  0  0999 V2000
   13.9353  -10.5964  -13.5002 N   0  0  0  0  0  0  0  0  0  0  0  0
   15.2474  -10.5775  -12.9309 C   0  0  1  0  0  0  0  0  0  0  0  0
   16.2075  -11.3149  -13.8410 C   0  0  0  0  0  0  0  0  0  0  0  0
   15.8767  -12.7576  -13.7958 C   0  0  0  0  0  0  0  0  0  0  0  0
   15.7380  -13.3759  -12.7118 O   0  0  0  0  0  0  0  0  0  0  0  0
   15.6535   -9.1706  -12.7173 C   0  0  0  0  0  0  0  0  0  0  0  0
   15.4315   -8.2462  -13.5423 O   0  0  0  0  0  0  0  0  0  0  0  0
   15.7033  -13.4985  -14.9663 O   0  0  0  0  0  0  0  0  0  0  0  0
   15.4959   -6.1665   -7.4006 N   0  0  0  0  0  0  0  0  0  0  0  0
   14.5258   -6.4563   -8.3913 C   0  0  0  0  0  0  0  0  0  0  0  0
   13.3163   -6.3521   -8.0818 O   0  0  0  0  0  0  0  0  0  0  0  0
   14.9299   -6.8667   -9.7409 C   0  0  0  0  0  0  0  0  0  0  0  0
   16.4237   -7.0665   -9.8510 C   0  0  0  0  0  0  0  0  0  0  0  0
   16.8226   -7.4716  -11.2582 C   0  0  2  0  0  0  0  0  0  0  0  0
   16.3364   -8.8129  -11.5178 N   0  0  0  0  0  0  0  0  0  0  0  0
   18.2899   -7.3901  -11.4276 C   0  0  0  0  0  0  0  0  0  0  0  0
   19.0240   -8.3518  -11.0830 O   0  0  0  0  0  0  0  0  0  0  0  0
   18.8832   -6.2267  -11.9801 N   0  0  0  0  0  0  0  0  0  0  0  0
   20.3039   -6.2486  -12.3342 C   0  0  1  0  0  0  0  0  0  0  0  0
   20.5159   -7.4113  -13.2752 C   0  0  0  0  0  0  0  0  0  0  0  0
   21.8779   -7.4040  -13.8233 C   0  0  0  0  0  0  0  0  0  0  0  0
   22.8484   -7.1163  -13.0792 O   0  0  0  0  0  0  0  0  0  0  0  0
   20.6787   -4.9776  -12.9755 C   0  0  0  0  0  0  0  0  0  0  0  0
   21.8450   -4.5444  -13.0907 O   0  0  0  0  0  0  0  0  0  0  0  0
   22.1586   -7.7044  -15.1491 O   0  0  0  0  0  0  0  0  0  0  0  0
   19.6723   -4.1582  -13.5131 O   0  0  0  0  0  0  0  0  0  0  0  0
  2  1  1  6
  2  3  1  0
  3  4  1  0
  4  5  2  0
  4  8  1  0
  6  7  2  0
  6  2  1  0
  9 10  1  0
 10 12  1  0
 11 10  2  0
 12 13  1  0
 14 13  1  1
 14 15  1  0
 15  6  1  0
 16 14  1  0
 16 17  2  0
 18 16  1  0
 19 18  1  0
 19 20  1  6
 20 21  1  0
 21 22  2  0
 21 25  1  0
 23 19  1  0
 24 23  2  0
 26 23  1  0
M  END
$$$$
