DQD.pdb
     RDKit          3D

 26 25  0  0  1  0  0  0  0  0999 V2000
   18.1963  -12.6601  -15.5718 N   0  0  0  0  0  0  0  0  0  0  0  0
   18.2382  -11.3959  -16.2397 C   0  0  1  0  0  0  0  0  0  0  0  0
   16.9411  -10.6514  -16.0012 C   0  0  0  0  0  0  0  0  0  0  0  0
   15.8350  -11.4441  -16.5853 C   0  0  0  0  0  0  0  0  0  0  0  0
   14.9543  -11.9854  -15.8727 O   0  0  0  0  0  0  0  0  0  0  0  0
   19.4120  -10.6383  -15.7517 C   0  0  0  0  0  0  0  0  0  0  0  0
   19.6166  -10.3717  -14.5387 O   0  0  0  0  0  0  0  0  0  0  0  0
   15.7229  -11.6250  -17.9651 O   0  0  0  0  0  0  0  0  0  0  0  0
   24.9070  -10.0486  -18.8323 N   0  0  0  0  0  0  0  0  0  0  0  0
   24.9738   -9.0056  -17.8761 C   0  0  0  0  0  0  0  0  0  0  0  0
   26.0132   -8.3074  -17.8355 O   0  0  0  0  0  0  0  0  0  0  0  0
   23.8552   -8.7531  -16.9607 C   0  0  0  0  0  0  0  0  0  0  0  0
   22.6769   -9.6571  -17.2399 C   0  0  0  0  0  0  0  0  0  0  0  0
   21.5221   -9.3621  -16.3004 C   0  0  2  0  0  0  0  0  0  0  0  0
   20.3824  -10.1716  -16.6862 N   0  0  0  0  0  0  0  0  0  0  0  0
   21.1888   -7.9210  -16.3210 C   0  0  0  0  0  0  0  0  0  0  0  0
   20.6777   -7.4012  -17.3462 O   0  0  0  0  0  0  0  0  0  0  0  0
   21.4423   -7.1113  -15.1847 N   0  0  0  0  0  0  0  0  0  0  0  0
   21.0987   -5.6885  -15.2304 C   0  0  1  0  0  0  0  0  0  0  0  0
   19.5913   -5.5889  -15.2317 C   0  0  0  0  0  0  0  0  0  0  0  0
   19.1554   -4.1921  -15.1105 C   0  0  0  0  0  0  0  0  0  0  0  0
   19.8709   -3.2723  -15.5799 O   0  0  0  0  0  0  0  0  0  0  0  0
   21.6706   -4.9987  -14.0622 C   0  0  0  0  0  0  0  0  0  0  0  0
   21.5444   -3.7814  -13.8106 O   0  0  0  0  0  0  0  0  0  0  0  0
   17.9689   -3.8237  -14.4914 O   0  0  0  0  0  0  0  0  0  0  0  0
   22.4250   -5.7343  -13.1333 O   0  0  0  0  0  0  0  0  0  0  0  0
  2  1  1  1
  2  3  1  0
  3  4  1  0
  4  5  2  0
  4  8  1  0
  6  7  2  0
  6  2  1  0
  9 10  1  0
 10 12  1  0
 11 10  2  0
 12 13  1  0
 14 13  1  6
 14 15  1  0
 15  6  1  0
 16 14  1  0
 16 17  2  0
 18 16  1  0
 19 18  1  0
 19 20  1  1
 20 21  1  0
 21 22  2  0
 21 25  1  0
 23 19  1  0
 24 23  2  0
 26 23  1  0
M  END
$$$$
