VEF.pdb
     RDKit          3D

 28 28  0  0  1  0  0  0  0  0999 V2000
   33.0384  -22.5352  -11.2892 C   0  0  0  0  0  0  0  0  0  0  0  0
   31.8233  -21.6560  -11.1044 C   0  0  2  0  0  0  0  0  0  0  0  0
   31.2543  -21.8084   -9.7104 C   0  0  0  0  0  0  0  0  0  0  0  0
   30.7728  -22.0140  -12.1306 C   0  0  2  0  0  0  0  0  0  0  0  0
   31.3412  -21.9724  -13.4411 N   0  0  0  0  0  0  0  0  0  0  0  0
   29.5720  -21.1478  -11.9647 C   0  0  0  0  0  0  0  0  0  0  0  0
   29.7451  -19.9103  -12.1271 O   0  0  0  0  0  0  0  0  0  0  0  0
   28.2811  -21.6066  -11.6452 N   0  0  0  0  0  0  0  0  0  0  0  0
   27.1358  -20.7628  -11.4215 C   0  0  1  0  0  0  0  0  0  0  0  0
   26.0106  -20.9734  -12.3759 C   0  0  0  0  0  0  0  0  0  0  0  0
   26.2570  -20.5224  -13.7783 C   0  0  0  0  0  0  0  0  0  0  0  0
   25.9561  -19.0906  -13.9427 C   0  0  0  0  0  0  0  0  0  0  0  0
   26.8682  -18.2929  -14.2334 O   0  0  0  0  0  0  0  0  0  0  0  0
   26.6035  -21.0816  -10.0526 C   0  0  0  0  0  0  0  0  0  0  0  0
   26.4292  -22.2757   -9.7053 O   0  0  0  0  0  0  0  0  0  0  0  0
   24.6686  -18.6279  -13.7763 O   0  0  0  0  0  0  0  0  0  0  0  0
   26.2905  -20.0549   -9.1365 N   0  0  0  0  0  0  0  0  0  0  0  0
   25.7256  -20.4083   -7.8256 C   0  0  1  0  0  0  0  0  0  0  0  0
   25.9787  -19.3181   -6.8404 C   0  0  0  0  0  0  0  0  0  0  0  0
   27.2395  -19.5443   -6.1243 C   0  0  0  0  0  0  0  0  0  0  0  0
   27.4282  -20.6824   -5.3770 C   0  0  0  0  0  0  0  0  0  0  0  0
   28.6215  -20.8949   -4.7056 C   0  0  0  0  0  0  0  0  0  0  0  0
   29.6234  -19.9665   -4.7843 C   0  0  0  0  0  0  0  0  0  0  0  0
   29.4702  -18.8039   -5.5293 C   0  0  0  0  0  0  0  0  0  0  0  0
   28.2681  -18.6358   -6.1791 C   0  0  0  0  0  0  0  0  0  0  0  0
   24.3160  -20.7780   -7.9601 C   0  0  0  0  0  0  0  0  0  0  0  0
   23.6474  -20.4861   -8.9772 O   0  0  0  0  0  0  0  0  0  0  0  0
   23.6990  -21.4760   -6.9241 O   0  0  0  0  0  0  0  0  0  0  0  0
  2  1  1  1
  3  2  1  0
  4  5  1  6
  4  2  1  0
  6  4  1  0
  7  6  2  0
  8  6  1  0
  9  8  1  0
 10 11  1  0
  9 10  1  6
 12 11  1  0
 12 13  2  0
 14  9  1  0
 14 15  2  0
 16 12  1  0
 17 14  1  0
 18 17  1  0
 18 19  1  1
 19 20  1  0
 20 21  2  0
 20 25  1  0
 21 22  1  0
 22 23  2  0
 24 23  1  0
 25 24  2  0
 26 18  1  0
 27 26  2  0
 28 26  1  0
M  END
$$$$
