VEF.pdb
     RDKit          3D

 28 28  0  0  1  0  0  0  0  0999 V2000
   27.1187  -18.3014  -16.8788 C   0  0  0  0  0  0  0  0  0  0  0  0
   27.2214  -17.7999  -15.4569 C   0  0  2  0  0  0  0  0  0  0  0  0
   28.1975  -16.6474  -15.3608 C   0  0  0  0  0  0  0  0  0  0  0  0
   27.6630  -18.9248  -14.5490 C   0  0  2  0  0  0  0  0  0  0  0  0
   27.8056  -20.1297  -15.3042 N   0  0  0  0  0  0  0  0  0  0  0  0
   26.7375  -19.0451  -13.3877 C   0  0  0  0  0  0  0  0  0  0  0  0
   26.4319  -17.9735  -12.7994 O   0  0  0  0  0  0  0  0  0  0  0  0
   26.1903  -20.2500  -12.9104 N   0  0  0  0  0  0  0  0  0  0  0  0
   25.2566  -20.3589  -11.8195 C   0  0  1  0  0  0  0  0  0  0  0  0
   24.2352  -21.4326  -11.9782 C   0  0  0  0  0  0  0  0  0  0  0  0
   23.2857  -21.2606  -13.1181 C   0  0  0  0  0  0  0  0  0  0  0  0
   21.8941  -21.1609  -12.6476 C   0  0  0  0  0  0  0  0  0  0  0  0
   21.4422  -22.0125  -11.8582 O   0  0  0  0  0  0  0  0  0  0  0  0
   26.0453  -20.6952  -10.5850 C   0  0  0  0  0  0  0  0  0  0  0  0
   26.9582  -21.5561  -10.6342 O   0  0  0  0  0  0  0  0  0  0  0  0
   21.0881  -20.1287  -13.0770 O   0  0  0  0  0  0  0  0  0  0  0  0
   25.7789  -20.0568   -9.3552 N   0  0  0  0  0  0  0  0  0  0  0  0
   26.5285  -20.4625   -8.1569 C   0  0  1  0  0  0  0  0  0  0  0  0
   27.4418  -19.3677   -7.7204 C   0  0  0  0  0  0  0  0  0  0  0  0
   28.0264  -19.6679   -6.4083 C   0  0  0  0  0  0  0  0  0  0  0  0
   27.6116  -18.9943   -5.2841 C   0  0  0  0  0  0  0  0  0  0  0  0
   28.1626  -19.2832   -4.0460 C   0  0  0  0  0  0  0  0  0  0  0  0
   29.1281  -20.2464   -3.9367 C   0  0  0  0  0  0  0  0  0  0  0  0
   29.5733  -20.9485   -5.0498 C   0  0  0  0  0  0  0  0  0  0  0  0
   28.9974  -20.6276   -6.2585 C   0  0  0  0  0  0  0  0  0  0  0  0
   25.6124  -20.9286   -7.1151 C   0  0  0  0  0  0  0  0  0  0  0  0
   26.0051  -21.6135   -6.1439 O   0  0  0  0  0  0  0  0  0  0  0  0
   24.2616  -20.6001   -7.2073 O   0  0  0  0  0  0  0  0  0  0  0  0
  2  1  1  6
  3  2  1  0
  4  5  1  6
  4  2  1  0
  6  4  1  0
  7  6  2  0
  8  6  1  0
  9  8  1  0
 10 11  1  0
  9 10  1  6
 12 11  1  0
 12 13  2  0
 14  9  1  0
 14 15  2  0
 16 12  1  0
 17 14  1  0
 18 17  1  0
 18 19  1  1
 19 20  1  0
 20 21  2  0
 20 25  1  0
 21 22  1  0
 22 23  2  0
 24 23  1  0
 25 24  2  0
 26 18  1  0
 27 26  2  0
 28 26  1  0
M  END
$$$$
