VEF.pdb
     RDKit          3D

 28 28  0  0  1  0  0  0  0  0999 V2000
   18.1861  -13.6480  -16.3813 C   0  0  0  0  0  0  0  0  0  0  0  0
   18.4653  -12.1631  -16.3505 C   0  0  2  0  0  0  0  0  0  0  0  0
   19.1111  -11.7629  -15.0417 C   0  0  0  0  0  0  0  0  0  0  0  0
   17.1768  -11.3968  -16.5436 C   0  0  2  0  0  0  0  0  0  0  0  0
   16.6701  -11.6244  -17.8603 N   0  0  0  0  0  0  0  0  0  0  0  0
   17.3768   -9.9580  -16.2130 C   0  0  0  0  0  0  0  0  0  0  0  0
   18.0004   -9.2676  -17.0630 O   0  0  0  0  0  0  0  0  0  0  0  0
   16.9260   -9.3270  -15.0393 N   0  0  0  0  0  0  0  0  0  0  0  0
   17.1189   -7.9355  -14.7225 C   0  0  1  0  0  0  0  0  0  0  0  0
   15.9156   -7.0787  -14.9203 C   0  0  0  0  0  0  0  0  0  0  0  0
   16.0972   -5.6268  -14.6208 C   0  0  0  0  0  0  0  0  0  0  0  0
   15.4004   -5.2427  -13.3820 C   0  0  0  0  0  0  0  0  0  0  0  0
   14.2083   -5.5642  -13.2139 O   0  0  0  0  0  0  0  0  0  0  0  0
   17.4712   -7.8515  -13.2639 C   0  0  0  0  0  0  0  0  0  0  0  0
   16.8181   -8.5105  -12.4177 O   0  0  0  0  0  0  0  0  0  0  0  0
   16.0613   -4.5281  -12.4063 O   0  0  0  0  0  0  0  0  0  0  0  0
   18.5337   -7.0371  -12.8178 N   0  0  0  0  0  0  0  0  0  0  0  0
   18.8159   -6.9479  -11.3774 C   0  0  1  0  0  0  0  0  0  0  0  0
   20.2863   -6.9829  -11.1333 C   0  0  0  0  0  0  0  0  0  0  0  0
   21.0009   -6.1842  -12.1358 C   0  0  0  0  0  0  0  0  0  0  0  0
   20.9499   -4.8109  -12.1058 C   0  0  0  0  0  0  0  0  0  0  0  0
   21.6293   -4.0597  -13.0513 C   0  0  0  0  0  0  0  0  0  0  0  0
   22.3585   -4.6859  -14.0250 C   0  0  0  0  0  0  0  0  0  0  0  0
   22.4340   -6.0717  -14.0881 C   0  0  0  0  0  0  0  0  0  0  0  0
   21.7430   -6.7764  -13.1282 C   0  0  0  0  0  0  0  0  0  0  0  0
   18.1402   -5.7872  -10.7959 C   0  0  0  0  0  0  0  0  0  0  0  0
   17.6108   -4.9028  -11.5060 O   0  0  0  0  0  0  0  0  0  0  0  0
   18.0846   -5.6627   -9.4093 O   0  0  0  0  0  0  0  0  0  0  0  0
  2  1  1  1
  3  2  1  0
  4  5  1  6
  4  2  1  0
  6  4  1  0
  7  6  2  0
  8  6  1  0
  9  8  1  0
 10 11  1  0
  9 10  1  1
 12 11  1  0
 12 13  2  0
 14  9  1  0
 14 15  2  0
 16 12  1  0
 17 14  1  0
 18 17  1  0
 18 19  1  6
 19 20  1  0
 20 21  2  0
 20 25  1  0
 21 22  1  0
 22 23  2  0
 24 23  1  0
 25 24  2  0
 26 18  1  0
 27 26  2  0
 28 26  1  0
M  END
$$$$
