VEF.pdb
     RDKit          3D

 28 28  0  0  1  0  0  0  0  0999 V2000
   26.4518  -16.8128  -15.5535 C   0  0  0  0  0  0  0  0  0  0  0  0
   27.8982  -17.2320  -15.4270 C   0  0  2  0  0  0  0  0  0  0  0  0
   28.5515  -17.3325  -16.7884 C   0  0  0  0  0  0  0  0  0  0  0  0
   27.9841  -18.5631  -14.7160 C   0  0  2  0  0  0  0  0  0  0  0  0
   27.8569  -19.6270  -15.6617 N   0  0  0  0  0  0  0  0  0  0  0  0
   26.9932  -18.6203  -13.6048 C   0  0  0  0  0  0  0  0  0  0  0  0
   26.6011  -17.5149  -13.1443 O   0  0  0  0  0  0  0  0  0  0  0  0
   26.4737  -19.8011  -13.0438 N   0  0  0  0  0  0  0  0  0  0  0  0
   25.4590  -19.8547  -12.0234 C   0  0  1  0  0  0  0  0  0  0  0  0
   24.3256  -20.7761  -12.3193 C   0  0  0  0  0  0  0  0  0  0  0  0
   23.2030  -20.7602  -11.3343 C   0  0  0  0  0  0  0  0  0  0  0  0
   22.1054  -21.6459  -11.7566 C   0  0  0  0  0  0  0  0  0  0  0  0
   21.0713  -21.7272  -11.0660 O   0  0  0  0  0  0  0  0  0  0  0  0
   26.1104  -20.3639  -10.7684 C   0  0  0  0  0  0  0  0  0  0  0  0
   27.0083  -21.2394  -10.8336 O   0  0  0  0  0  0  0  0  0  0  0  0
   22.2165  -22.3865  -12.9136 O   0  0  0  0  0  0  0  0  0  0  0  0
   25.7300  -19.8740   -9.5009 N   0  0  0  0  0  0  0  0  0  0  0  0
   26.4486  -20.3383   -8.3050 C   0  0  1  0  0  0  0  0  0  0  0  0
   27.3652  -19.2743   -7.8042 C   0  0  0  0  0  0  0  0  0  0  0  0
   27.9906  -19.6772   -6.5392 C   0  0  0  0  0  0  0  0  0  0  0  0
   27.6612  -19.0492   -5.3617 C   0  0  0  0  0  0  0  0  0  0  0  0
   28.2504  -19.4350   -4.1685 C   0  0  0  0  0  0  0  0  0  0  0  0
   29.1686  -20.4492   -4.1573 C   0  0  0  0  0  0  0  0  0  0  0  0
   29.5275  -21.1077   -5.3269 C   0  0  0  0  0  0  0  0  0  0  0  0
   28.9163  -20.6905   -6.4879 C   0  0  0  0  0  0  0  0  0  0  0  0
   25.5045  -20.8351   -7.3030 C   0  0  0  0  0  0  0  0  0  0  0  0
   24.3121  -20.4563   -7.2693 O   0  0  0  0  0  0  0  0  0  0  0  0
   25.9467  -21.7580   -6.3575 O   0  0  0  0  0  0  0  0  0  0  0  0
  2  1  1  6
  3  2  1  0
  4  5  1  6
  4  2  1  0
  6  4  1  0
  7  6  2  0
  8  6  1  0
  9  8  1  0
 10 11  1  0
  9 10  1  6
 12 11  1  0
 12 13  2  0
 14  9  1  0
 14 15  2  0
 16 12  1  0
 17 14  1  0
 18 17  1  0
 18 19  1  1
 19 20  1  0
 20 21  2  0
 20 25  1  0
 21 22  1  0
 22 23  2  0
 24 23  1  0
 25 24  2  0
 26 18  1  0
 27 26  2  0
 28 26  1  0
M  END
$$$$
