VEF.pdb
     RDKit          3D

 28 28  0  0  1  0  0  0  0  0999 V2000
   17.6887  -15.1495  -19.8286 C   0  0  0  0  0  0  0  0  0  0  0  0
   18.8800  -15.6209  -19.0272 C   0  0  2  0  0  0  0  0  0  0  0  0
   18.6736  -17.0375  -18.5367 C   0  0  0  0  0  0  0  0  0  0  0  0
   19.1030  -14.6970  -17.8518 C   0  0  2  0  0  0  0  0  0  0  0  0
   18.0946  -14.9180  -16.8635 N   0  0  0  0  0  0  0  0  0  0  0  0
   19.1958  -13.2842  -18.3153 C   0  0  0  0  0  0  0  0  0  0  0  0
   20.0656  -13.0368  -19.1929 O   0  0  0  0  0  0  0  0  0  0  0  0
   18.3945  -12.2256  -17.8503 N   0  0  0  0  0  0  0  0  0  0  0  0
   18.5316  -10.8485  -18.2484 C   0  0  1  0  0  0  0  0  0  0  0  0
   17.2997  -10.2415  -18.8275 C   0  0  0  0  0  0  0  0  0  0  0  0
   16.9750  -10.6455  -20.2283 C   0  0  0  0  0  0  0  0  0  0  0  0
   15.7702   -9.9569  -20.7202 C   0  0  0  0  0  0  0  0  0  0  0  0
   15.7785   -8.7198  -20.8700 O   0  0  0  0  0  0  0  0  0  0  0  0
   18.8626  -10.0553  -17.0154 C   0  0  0  0  0  0  0  0  0  0  0  0
   18.2486  -10.2719  -15.9417 O   0  0  0  0  0  0  0  0  0  0  0  0
   14.6317  -10.6751  -21.0160 O   0  0  0  0  0  0  0  0  0  0  0  0
   19.8612   -9.0586  -17.0379 N   0  0  0  0  0  0  0  0  0  0  0  0
   20.0837   -8.2361  -15.8395 C   0  0  1  0  0  0  0  0  0  0  0  0
   21.4994   -8.3514  -15.3860 C   0  0  0  0  0  0  0  0  0  0  0  0
   21.7428   -7.5023  -14.2142 C   0  0  0  0  0  0  0  0  0  0  0  0
   22.1386   -6.1946  -14.3647 C   0  0  0  0  0  0  0  0  0  0  0  0
   22.3635   -5.3943  -13.2561 C   0  0  0  0  0  0  0  0  0  0  0  0
   22.1913   -5.9059  -11.9989 C   0  0  0  0  0  0  0  0  0  0  0  0
   21.7922   -7.2226  -11.8064 C   0  0  0  0  0  0  0  0  0  0  0  0
   21.5807   -7.9798  -12.9366 C   0  0  0  0  0  0  0  0  0  0  0  0
   19.6408   -6.8611  -16.0746 C   0  0  0  0  0  0  0  0  0  0  0  0
   19.8059   -6.2899  -17.1760 O   0  0  0  0  0  0  0  0  0  0  0  0
   19.0164   -6.1666  -15.0407 O   0  0  0  0  0  0  0  0  0  0  0  0
  2  1  1  1
  3  2  1  0
  4  5  1  1
  4  2  1  0
  6  4  1  0
  7  6  2  0
  8  6  1  0
  9  8  1  0
 10 11  1  0
  9 10  1  1
 12 11  1  0
 12 13  2  0
 14  9  1  0
 14 15  2  0
 16 12  1  0
 17 14  1  0
 18 17  1  0
 18 19  1  6
 19 20  1  0
 20 21  2  0
 20 25  1  0
 21 22  1  0
 22 23  2  0
 24 23  1  0
 25 24  2  0
 26 18  1  0
 27 26  2  0
 28 26  1  0
M  END
$$$$
