VEF.pdb
     RDKit          3D

 28 28  0  0  1  0  0  0  0  0999 V2000
   32.0329  -30.9860  -17.8055 C   0  0  0  0  0  0  0  0  0  0  0  0
   33.2949  -31.5300  -18.4342 C   0  0  2  0  0  0  0  0  0  0  0  0
   34.4844  -31.3230  -17.5218 C   0  0  0  0  0  0  0  0  0  0  0  0
   33.5397  -30.8484  -19.7609 C   0  0  2  0  0  0  0  0  0  0  0  0
   34.7060  -31.3959  -20.3793 N   0  0  0  0  0  0  0  0  0  0  0  0
   33.5880  -29.3702  -19.5813 C   0  0  0  0  0  0  0  0  0  0  0  0
   34.7301  -28.8595  -19.4309 O   0  0  0  0  0  0  0  0  0  0  0  0
   32.4677  -28.5195  -19.5683 N   0  0  0  0  0  0  0  0  0  0  0  0
   32.5220  -27.0807  -19.5915 C   0  0  1  0  0  0  0  0  0  0  0  0
   31.9865  -26.4568  -20.8346 C   0  0  0  0  0  0  0  0  0  0  0  0
   32.1781  -24.9803  -20.9534 C   0  0  0  0  0  0  0  0  0  0  0  0
   31.6310  -24.4680  -22.2207 C   0  0  0  0  0  0  0  0  0  0  0  0
   31.8392  -25.0856  -23.2827 O   0  0  0  0  0  0  0  0  0  0  0  0
   31.6706  -26.5805  -18.4585 C   0  0  0  0  0  0  0  0  0  0  0  0
   30.7070  -27.2692  -18.0413 O   0  0  0  0  0  0  0  0  0  0  0  0
   30.8887  -23.3069  -22.2377 O   0  0  0  0  0  0  0  0  0  0  0  0
   31.9330  -25.3372  -17.8451 N   0  0  0  0  0  0  0  0  0  0  0  0
   31.0889  -24.8953  -16.7250 C   0  0  1  0  0  0  0  0  0  0  0  0
   31.8639  -24.0110  -15.8082 C   0  0  0  0  0  0  0  0  0  0  0  0
   33.0548  -24.7017  -15.3000 C   0  0  0  0  0  0  0  0  0  0  0  0
   34.2077  -24.7549  -16.0466 C   0  0  0  0  0  0  0  0  0  0  0  0
   35.3317  -25.4042  -15.5619 C   0  0  0  0  0  0  0  0  0  0  0  0
   35.2984  -25.9989  -14.3302 C   0  0  0  0  0  0  0  0  0  0  0  0
   34.1517  -25.9665  -13.5464 C   0  0  0  0  0  0  0  0  0  0  0  0
   33.0599  -25.3103  -14.0688 C   0  0  0  0  0  0  0  0  0  0  0  0
   29.8488  -24.2998  -17.2244 C   0  0  0  0  0  0  0  0  0  0  0  0
   29.6481  -24.1106  -18.4453 O   0  0  0  0  0  0  0  0  0  0  0  0
   28.8614  -23.9318  -16.3129 O   0  0  0  0  0  0  0  0  0  0  0  0
  2  1  1  1
  3  2  1  0
  4  5  1  1
  4  2  1  0
  6  4  1  0
  7  6  2  0
  8  6  1  0
  9  8  1  0
 10 11  1  0
  9 10  1  6
 12 11  1  0
 12 13  2  0
 14  9  1  0
 14 15  2  0
 16 12  1  0
 17 14  1  0
 18 17  1  0
 18 19  1  6
 19 20  1  0
 20 21  2  0
 20 25  1  0
 21 22  1  0
 22 23  2  0
 24 23  1  0
 25 24  2  0
 26 18  1  0
 27 26  2  0
 28 26  1  0
M  END
$$$$
