VEF.pdb
     RDKit          3D

 28 28  0  0  1  0  0  0  0  0999 V2000
   29.2957  -17.8258  -15.8144 C   0  0  0  0  0  0  0  0  0  0  0  0
   27.8585  -18.0474  -15.4032 C   0  0  2  0  0  0  0  0  0  0  0  0
   27.3771  -16.9309  -14.5022 C   0  0  0  0  0  0  0  0  0  0  0  0
   27.7296  -19.3745  -14.6912 C   0  0  2  0  0  0  0  0  0  0  0  0
   27.1925  -20.3531  -15.5835 N   0  0  0  0  0  0  0  0  0  0  0  0
   26.9500  -19.2118  -13.4321 C   0  0  0  0  0  0  0  0  0  0  0  0
   26.7181  -18.0293  -13.0636 O   0  0  0  0  0  0  0  0  0  0  0  0
   26.4631  -20.2673  -12.6397 N   0  0  0  0  0  0  0  0  0  0  0  0
   25.6083  -20.1124  -11.4912 C   0  0  1  0  0  0  0  0  0  0  0  0
   24.2804  -20.7790  -11.6082 C   0  0  0  0  0  0  0  0  0  0  0  0
   23.3797  -20.2472  -12.6743 C   0  0  0  0  0  0  0  0  0  0  0  0
   22.0955  -20.9667  -12.7007 C   0  0  0  0  0  0  0  0  0  0  0  0
   21.1642  -20.5505  -13.4164 O   0  0  0  0  0  0  0  0  0  0  0  0
   26.3069  -20.7484  -10.3223 C   0  0  0  0  0  0  0  0  0  0  0  0
   27.4889  -21.1558  -10.4387 O   0  0  0  0  0  0  0  0  0  0  0  0
   21.9185  -22.1000  -11.9365 O   0  0  0  0  0  0  0  0  0  0  0  0
   25.6550  -20.9004   -9.0800 N   0  0  0  0  0  0  0  0  0  0  0  0
   26.4601  -21.0254   -7.8559 C   0  0  1  0  0  0  0  0  0  0  0  0
   27.3992  -19.8739   -7.7322 C   0  0  0  0  0  0  0  0  0  0  0  0
   28.0779  -19.8915   -6.4312 C   0  0  0  0  0  0  0  0  0  0  0  0
   27.9223  -18.8531   -5.5440 C   0  0  0  0  0  0  0  0  0  0  0  0
   28.5612  -18.8749   -4.3147 C   0  0  0  0  0  0  0  0  0  0  0  0
   29.3547  -19.9370   -3.9766 C   0  0  0  0  0  0  0  0  0  0  0  0
   29.5364  -21.0048   -4.8465 C   0  0  0  0  0  0  0  0  0  0  0  0
   28.8822  -20.9397   -6.0562 C   0  0  0  0  0  0  0  0  0  0  0  0
   25.5935  -21.2184   -6.6924 C   0  0  0  0  0  0  0  0  0  0  0  0
   24.3971  -20.8505   -6.6877 O   0  0  0  0  0  0  0  0  0  0  0  0
   26.1161  -21.8302   -5.5551 O   0  0  0  0  0  0  0  0  0  0  0  0
  2  1  1  1
  3  2  1  0
  4  5  1  6
  4  2  1  0
  6  4  1  0
  7  6  2  0
  8  6  1  0
  9  8  1  0
 10 11  1  0
  9 10  1  6
 12 11  1  0
 12 13  2  0
 14  9  1  0
 14 15  2  0
 16 12  1  0
 17 14  1  0
 18 17  1  0
 18 19  1  1
 19 20  1  0
 20 21  2  0
 20 25  1  0
 21 22  1  0
 22 23  2  0
 24 23  1  0
 25 24  2  0
 26 18  1  0
 27 26  2  0
 28 26  1  0
M  END
$$$$
