VEF.pdb
     RDKit          3D

 28 28  0  0  1  0  0  0  0  0999 V2000
   25.1337  -12.6591  -19.1080 C   0  0  0  0  0  0  0  0  0  0  0  0
   24.8972  -13.1410  -17.6953 C   0  0  2  0  0  0  0  0  0  0  0  0
   23.5146  -13.7401  -17.5543 C   0  0  0  0  0  0  0  0  0  0  0  0
   25.0599  -11.9902  -16.7289 C   0  0  2  0  0  0  0  0  0  0  0  0
   25.2535  -12.4926  -15.4051 N   0  0  0  0  0  0  0  0  0  0  0  0
   23.9164  -11.0436  -16.8551 C   0  0  0  0  0  0  0  0  0  0  0  0
   23.8236  -10.4167  -17.9442 O   0  0  0  0  0  0  0  0  0  0  0  0
   22.9498  -10.8051  -15.8612 N   0  0  0  0  0  0  0  0  0  0  0  0
   21.8119   -9.9347  -16.0068 C   0  0  1  0  0  0  0  0  0  0  0  0
   20.4968  -10.5750  -15.7206 C   0  0  0  0  0  0  0  0  0  0  0  0
   20.2860  -11.9227  -16.3286 C   0  0  0  0  0  0  0  0  0  0  0  0
   18.9892  -12.4948  -15.9301 C   0  0  0  0  0  0  0  0  0  0  0  0
   18.2370  -11.8586  -15.1671 O   0  0  0  0  0  0  0  0  0  0  0  0
   21.9710   -8.8174  -15.0143 C   0  0  0  0  0  0  0  0  0  0  0  0
   22.4695   -9.0432  -13.8841 O   0  0  0  0  0  0  0  0  0  0  0  0
   18.6030  -13.7325  -16.3975 O   0  0  0  0  0  0  0  0  0  0  0  0
   21.5666   -7.5024  -15.3281 N   0  0  0  0  0  0  0  0  0  0  0  0
   21.8210   -6.4221  -14.3634 C   0  0  1  0  0  0  0  0  0  0  0  0
   23.1383   -5.7801  -14.6383 C   0  0  0  0  0  0  0  0  0  0  0  0
   23.1193   -5.0818  -15.9288 C   0  0  0  0  0  0  0  0  0  0  0  0
   23.4179   -5.7492  -17.0928 C   0  0  0  0  0  0  0  0  0  0  0  0
   23.3948   -5.0879  -18.3102 C   0  0  0  0  0  0  0  0  0  0  0  0
   23.0726   -3.7591  -18.3590 C   0  0  0  0  0  0  0  0  0  0  0  0
   22.7651   -3.0505  -17.2042 C   0  0  0  0  0  0  0  0  0  0  0  0
   22.8008   -3.7488  -16.0182 C   0  0  0  0  0  0  0  0  0  0  0  0
   20.6946   -5.4881  -14.3342 C   0  0  0  0  0  0  0  0  0  0  0  0
   19.8048   -5.4938  -15.2144 O   0  0  0  0  0  0  0  0  0  0  0  0
   20.6103   -4.5640  -13.2950 O   0  0  0  0  0  0  0  0  0  0  0  0
  2  1  1  6
  3  2  1  0
  4  5  1  1
  4  2  1  0
  6  4  1  0
  7  6  2  0
  8  6  1  0
  9  8  1  0
 10 11  1  0
  9 10  1  1
 12 11  1  0
 12 13  2  0
 14  9  1  0
 14 15  2  0
 16 12  1  0
 17 14  1  0
 18 17  1  0
 18 19  1  6
 19 20  1  0
 20 21  2  0
 20 25  1  0
 21 22  1  0
 22 23  2  0
 24 23  1  0
 25 24  2  0
 26 18  1  0
 27 26  2  0
 28 26  1  0
M  END
$$$$
