VEF.pdb
     RDKit          3D

 28 28  0  0  1  0  0  0  0  0999 V2000
   27.9171  -18.9252  -16.7535 C   0  0  0  0  0  0  0  0  0  0  0  0
   27.2419  -18.5987  -15.4416 C   0  0  2  0  0  0  0  0  0  0  0  0
   28.0823  -17.6397  -14.6266 C   0  0  0  0  0  0  0  0  0  0  0  0
   27.0064  -19.8696  -14.6580 C   0  0  2  0  0  0  0  0  0  0  0  0
   26.4049  -20.8545  -15.5011 N   0  0  0  0  0  0  0  0  0  0  0  0
   26.2298  -19.5774  -13.4206 C   0  0  0  0  0  0  0  0  0  0  0  0
   25.9290  -18.3706  -13.2179 O   0  0  0  0  0  0  0  0  0  0  0  0
   25.8159  -20.5374  -12.4792 N   0  0  0  0  0  0  0  0  0  0  0  0
   24.9905  -20.2666  -11.3308 C   0  0  1  0  0  0  0  0  0  0  0  0
   23.7141  -21.0349  -11.2855 C   0  0  0  0  0  0  0  0  0  0  0  0
   23.1378  -21.4130  -12.6105 C   0  0  0  0  0  0  0  0  0  0  0  0
   21.7002  -21.1026  -12.6791 C   0  0  0  0  0  0  0  0  0  0  0  0
   21.0733  -21.2913  -13.7394 O   0  0  0  0  0  0  0  0  0  0  0  0
   25.7740  -20.6628  -10.1109 C   0  0  0  0  0  0  0  0  0  0  0  0
   26.2230  -21.8303  -10.0008 O   0  0  0  0  0  0  0  0  0  0  0  0
   21.0439  -20.6037  -11.5747 O   0  0  0  0  0  0  0  0  0  0  0  0
   26.0192  -19.7397   -9.0722 N   0  0  0  0  0  0  0  0  0  0  0  0
   26.8146  -20.1602   -7.9091 C   0  0  1  0  0  0  0  0  0  0  0  0
   27.4964  -18.9854   -7.2943 C   0  0  0  0  0  0  0  0  0  0  0  0
   28.2554  -19.3865   -6.1041 C   0  0  0  0  0  0  0  0  0  0  0  0
   29.2923  -20.2836   -6.2019 C   0  0  0  0  0  0  0  0  0  0  0  0
   30.0097  -20.6569   -5.0768 C   0  0  0  0  0  0  0  0  0  0  0  0
   29.6868  -20.1307   -3.8558 C   0  0  0  0  0  0  0  0  0  0  0  0
   28.6455  -19.2216   -3.7169 C   0  0  0  0  0  0  0  0  0  0  0  0
   27.9611  -18.8802   -4.8617 C   0  0  0  0  0  0  0  0  0  0  0  0
   25.9886  -20.9283   -6.9766 C   0  0  0  0  0  0  0  0  0  0  0  0
   26.4803  -21.5305   -5.9956 O   0  0  0  0  0  0  0  0  0  0  0  0
   24.6128  -20.9915   -7.1872 O   0  0  0  0  0  0  0  0  0  0  0  0
  2  1  1  6
  3  2  1  0
  4  5  1  6
  4  2  1  0
  6  4  1  0
  7  6  2  0
  8  6  1  0
  9  8  1  0
 10 11  1  0
  9 10  1  6
 12 11  1  0
 12 13  2  0
 14  9  1  0
 14 15  2  0
 16 12  1  0
 17 14  1  0
 18 17  1  0
 18 19  1  1
 19 20  1  0
 20 21  2  0
 20 25  1  0
 21 22  1  0
 22 23  2  0
 24 23  1  0
 25 24  2  0
 26 18  1  0
 27 26  2  0
 28 26  1  0
M  END
$$$$
