VGC.pdb
     RDKit          3D

 18 17  0  0  1  0  0  0  0  0999 V2000
    8.7781  -13.3961   18.3341 C   0  0  0  0  0  0  0  0  0  0  0  0
    8.5047  -13.6505   19.8004 C   0  0  1  0  0  0  0  0  0  0  0  0
    7.2629  -12.8514   20.1577 C   0  0  0  0  0  0  0  0  0  0  0  0
    8.3164  -15.1263   20.0734 C   0  0  2  0  0  0  0  0  0  0  0  0
    7.5523  -15.6959   19.0025 N   0  0  0  0  0  0  0  0  0  0  0  0
    7.6792  -15.3481   21.4001 C   0  0  0  0  0  0  0  0  0  0  0  0
    6.4451  -15.1741   21.5362 O   0  0  0  0  0  0  0  0  0  0  0  0
    8.4552  -15.7558   22.5168 N   0  0  0  0  0  0  0  0  0  0  0  0
    7.9729  -15.8765   23.8456 C   0  0  0  0  0  0  0  0  0  0  0  0
    8.6931  -15.1054   24.8739 C   0  0  0  0  0  0  0  0  0  0  0  0
    9.9233  -14.8173   24.6538 O   0  0  0  0  0  0  0  0  0  0  0  0
    8.1500  -14.6424   26.0986 N   0  0  0  0  0  0  0  0  0  0  0  0
    8.8504  -13.8983   27.1066 C   0  0  1  0  0  0  0  0  0  0  0  0
    8.0410  -12.9220   27.8767 C   0  0  0  0  0  0  0  0  0  0  0  0
    6.9026  -12.1125   26.6861 S   0  0  0  0  0  0  0  0  0  0  0  0
    9.6934  -14.7586   28.0080 C   0  0  0  0  0  0  0  0  0  0  0  0
   10.6112  -14.1545   28.8334 O   0  0  0  0  0  0  0  0  0  0  0  0
    9.5833  -15.9938   28.0306 O   0  0  0  0  0  0  0  0  0  0  0  0
  2  1  1  6
  2  3  1  0
  4  2  1  0
  4  5  1  6
  6  7  2  0
  6  4  1  0
  8  6  1  0
  9  8  1  0
  9 10  1  0
 10 12  1  0
 11 10  2  0
 12 13  1  0
 13 14  1  1
 13 16  1  0
 14 15  1  0
 16 18  2  0
 16 17  1  0
M  END
$$$$
