VGC.pdb
     RDKit          3D

 18 17  0  0  1  0  0  0  0  0999 V2000
    7.6497  -12.8367   19.3062 C   0  0  0  0  0  0  0  0  0  0  0  0
    8.4400  -13.4971   20.4147 C   0  0  1  0  0  0  0  0  0  0  0  0
    7.8946  -12.9519   21.7238 C   0  0  0  0  0  0  0  0  0  0  0  0
    8.3239  -15.0037   20.3461 C   0  0  2  0  0  0  0  0  0  0  0  0
    6.9498  -15.3659   20.5348 N   0  0  0  0  0  0  0  0  0  0  0  0
    9.2198  -15.6553   21.3402 C   0  0  0  0  0  0  0  0  0  0  0  0
   10.4628  -15.6113   21.1828 O   0  0  0  0  0  0  0  0  0  0  0  0
    8.6812  -16.3282   22.4683 N   0  0  0  0  0  0  0  0  0  0  0  0
    9.4450  -16.9628   23.4816 C   0  0  0  0  0  0  0  0  0  0  0  0
    9.9213  -16.0999   24.5768 C   0  0  0  0  0  0  0  0  0  0  0  0
   10.8181  -15.2250   24.3027 O   0  0  0  0  0  0  0  0  0  0  0  0
    9.4765  -16.1418   25.9219 N   0  0  0  0  0  0  0  0  0  0  0  0
   10.0627  -15.4406   27.0287 C   0  0  1  0  0  0  0  0  0  0  0  0
    9.2153  -14.4022   27.6652 C   0  0  0  0  0  0  0  0  0  0  0  0
   10.3422  -13.2755   28.5760 S   0  0  0  0  0  0  0  0  0  0  0  0
   10.6909  -16.3506   28.0487 C   0  0  0  0  0  0  0  0  0  0  0  0
   10.1031  -17.5663   28.3043 O   0  0  0  0  0  0  0  0  0  0  0  0
   11.7225  -16.0386   28.6625 O   0  0  0  0  0  0  0  0  0  0  0  0
  2  1  1  6
  2  3  1  0
  4  2  1  0
  4  5  1  1
  6  7  2  0
  6  4  1  0
  8  6  1  0
  9  8  1  0
  9 10  1  0
 10 12  1  0
 11 10  2  0
 12 13  1  0
 13 14  1  1
 13 16  1  0
 14 15  1  0
 16 18  2  0
 16 17  1  0
M  END
$$$$
