VGC.pdb
     RDKit          3D

 18 17  0  0  1  0  0  0  0  0999 V2000
    7.7843  -16.6402   18.7880 C   0  0  0  0  0  0  0  0  0  0  0  0
    7.9162  -16.4462   20.2828 C   0  0  1  0  0  0  0  0  0  0  0  0
    7.1377  -15.1884   20.6298 C   0  0  0  0  0  0  0  0  0  0  0  0
    7.3976  -17.6498   21.0380 C   0  0  2  0  0  0  0  0  0  0  0  0
    6.0217  -17.8508   20.6893 N   0  0  0  0  0  0  0  0  0  0  0  0
    7.5884  -17.4841   22.5049 C   0  0  0  0  0  0  0  0  0  0  0  0
    8.7313  -17.6135   23.0037 O   0  0  0  0  0  0  0  0  0  0  0  0
    6.4877  -17.1803   23.3483 N   0  0  0  0  0  0  0  0  0  0  0  0
    6.5841  -16.8087   24.7141 C   0  0  0  0  0  0  0  0  0  0  0  0
    7.3038  -15.5552   25.0002 C   0  0  0  0  0  0  0  0  0  0  0  0
    8.3421  -15.2873   24.2967 O   0  0  0  0  0  0  0  0  0  0  0  0
    6.9536  -14.6024   25.9895 N   0  0  0  0  0  0  0  0  0  0  0  0
    7.7696  -13.5099   26.4377 C   0  0  1  0  0  0  0  0  0  0  0  0
    7.0570  -12.3999   27.1172 C   0  0  0  0  0  0  0  0  0  0  0  0
    5.3486  -12.3703   26.4469 S   0  0  0  0  0  0  0  0  0  0  0  0
    8.9849  -13.9477   27.2087 C   0  0  0  0  0  0  0  0  0  0  0  0
    9.9861  -13.0357   27.4427 O   0  0  0  0  0  0  0  0  0  0  0  0
    9.1090  -15.1036   27.6410 O   0  0  0  0  0  0  0  0  0  0  0  0
  2  1  1  6
  2  3  1  0
  4  2  1  0
  4  5  1  1
  6  7  2  0
  6  4  1  0
  8  6  1  0
  9  8  1  0
  9 10  1  0
 10 12  1  0
 11 10  2  0
 12 13  1  0
 13 14  1  1
 13 16  1  0
 14 15  1  0
 16 18  2  0
 16 17  1  0
M  END
$$$$
