VGC.pdb
     RDKit          3D

 18 17  0  0  1  0  0  0  0  0999 V2000
    7.4280  -12.5252   19.6145 C   0  0  0  0  0  0  0  0  0  0  0  0
    7.7036  -13.9438   19.1660 C   0  0  1  0  0  0  0  0  0  0  0  0
    8.3683  -13.8491   17.8031 C   0  0  0  0  0  0  0  0  0  0  0  0
    8.5766  -14.6726   20.1634 C   0  0  2  0  0  0  0  0  0  0  0  0
    8.7313  -16.0303   19.7299 N   0  0  0  0  0  0  0  0  0  0  0  0
    8.0110  -14.5809   21.5371 C   0  0  0  0  0  0  0  0  0  0  0  0
    7.9628  -13.4715   22.1191 O   0  0  0  0  0  0  0  0  0  0  0  0
    7.5238  -15.7390   22.1981 N   0  0  0  0  0  0  0  0  0  0  0  0
    7.0292  -15.7728   23.5275 C   0  0  0  0  0  0  0  0  0  0  0  0
    7.7734  -14.9791   24.5210 C   0  0  0  0  0  0  0  0  0  0  0  0
    9.0356  -14.8332   24.3467 O   0  0  0  0  0  0  0  0  0  0  0  0
    7.2216  -14.3503   25.6652 N   0  0  0  0  0  0  0  0  0  0  0  0
    7.9477  -13.6024   26.6520 C   0  0  1  0  0  0  0  0  0  0  0  0
    7.1612  -12.6133   27.4296 C   0  0  0  0  0  0  0  0  0  0  0  0
    5.7382  -12.1174   26.3816 S   0  0  0  0  0  0  0  0  0  0  0  0
    8.8028  -14.4607   27.5438 C   0  0  0  0  0  0  0  0  0  0  0  0
    8.7293  -15.8272   27.4180 O   0  0  0  0  0  0  0  0  0  0  0  0
    9.5724  -13.9731   28.3854 O   0  0  0  0  0  0  0  0  0  0  0  0
  2  1  1  1
  2  3  1  0
  4  2  1  0
  4  5  1  6
  6  7  2  0
  6  4  1  0
  8  6  1  0
  9  8  1  0
  9 10  1  0
 10 12  1  0
 11 10  2  0
 12 13  1  0
 13 14  1  1
 13 16  1  0
 14 15  1  0
 16 18  2  0
 16 17  1  0
M  END
$$$$
