VGC.pdb
     RDKit          3D

 18 17  0  0  1  0  0  0  0  0999 V2000
    4.2353  -19.6201   19.8440 C   0  0  0  0  0  0  0  0  0  0  0  0
    4.4239  -18.2220   20.3909 C   0  0  1  0  0  0  0  0  0  0  0  0
    3.1924  -17.9097   21.2242 C   0  0  0  0  0  0  0  0  0  0  0  0
    5.6918  -18.1215   21.2095 C   0  0  2  0  0  0  0  0  0  0  0  0
    5.6397  -19.1000   22.2558 N   0  0  0  0  0  0  0  0  0  0  0  0
    5.8805  -16.7425   21.7369 C   0  0  0  0  0  0  0  0  0  0  0  0
    5.2844  -16.3870   22.7809 O   0  0  0  0  0  0  0  0  0  0  0  0
    6.7304  -15.8221   21.0691 N   0  0  0  0  0  0  0  0  0  0  0  0
    6.9423  -14.4749   21.4604 C   0  0  0  0  0  0  0  0  0  0  0  0
    7.5889  -14.2691   22.7682 C   0  0  0  0  0  0  0  0  0  0  0  0
    7.8395  -13.0642   23.1289 O   0  0  0  0  0  0  0  0  0  0  0  0
    7.9637  -15.2876   23.6799 N   0  0  0  0  0  0  0  0  0  0  0  0
    8.6841  -15.1005   24.9073 C   0  0  1  0  0  0  0  0  0  0  0  0
    7.8719  -14.7152   26.0878 C   0  0  0  0  0  0  0  0  0  0  0  0
    6.1691  -14.3916   25.4839 S   0  0  0  0  0  0  0  0  0  0  0  0
    9.6294  -16.2272   25.2240 C   0  0  0  0  0  0  0  0  0  0  0  0
   10.4982  -16.0872   26.2796 O   0  0  0  0  0  0  0  0  0  0  0  0
    9.6463  -17.2773   24.5643 O   0  0  0  0  0  0  0  0  0  0  0  0
  2  1  1  1
  2  3  1  0
  4  2  1  0
  4  5  1  1
  6  7  2  0
  6  4  1  0
  8  6  1  0
  9  8  1  0
  9 10  1  0
 10 12  1  0
 11 10  2  0
 12 13  1  0
 13 14  1  1
 13 16  1  0
 14 15  1  0
 16 18  2  0
 16 17  1  0
M  END
$$$$
