VGC.pdb
     RDKit          3D

 18 17  0  0  1  0  0  0  0  0999 V2000
    3.2963  -18.1338   20.7611 C   0  0  0  0  0  0  0  0  0  0  0  0
    3.9305  -18.9356   21.8767 C   0  0  1  0  0  0  0  0  0  0  0  0
    3.6936  -20.4004   21.5502 C   0  0  0  0  0  0  0  0  0  0  0  0
    5.4051  -18.6235   22.0041 C   0  0  2  0  0  0  0  0  0  0  0  0
    6.0114  -19.6141   22.8444 N   0  0  0  0  0  0  0  0  0  0  0  0
    5.6175  -17.2428   22.5177 C   0  0  0  0  0  0  0  0  0  0  0  0
    5.2164  -16.9354   23.6651 O   0  0  0  0  0  0  0  0  0  0  0  0
    6.2711  -16.2665   21.7207 N   0  0  0  0  0  0  0  0  0  0  0  0
    6.5141  -14.9242   22.1103 C   0  0  0  0  0  0  0  0  0  0  0  0
    7.4524  -14.7292   23.2295 C   0  0  0  0  0  0  0  0  0  0  0  0
    8.6996  -14.6178   22.9524 O   0  0  0  0  0  0  0  0  0  0  0  0
    7.1052  -14.6490   24.6014 N   0  0  0  0  0  0  0  0  0  0  0  0
    8.0132  -14.4356   25.6924 C   0  0  1  0  0  0  0  0  0  0  0  0
    7.4856  -13.6508   26.8357 C   0  0  0  0  0  0  0  0  0  0  0  0
    6.3088  -12.4231   26.1452 S   0  0  0  0  0  0  0  0  0  0  0  0
    8.7053  -15.6908   26.1492 C   0  0  0  0  0  0  0  0  0  0  0  0
    9.7300  -15.5896   27.0593 O   0  0  0  0  0  0  0  0  0  0  0  0
    8.3778  -16.8120   25.7321 O   0  0  0  0  0  0  0  0  0  0  0  0
  2  1  1  6
  2  3  1  0
  4  2  1  0
  4  5  1  1
  6  7  2  0
  6  4  1  0
  8  6  1  0
  9  8  1  0
  9 10  1  0
 10 12  1  0
 11 10  2  0
 12 13  1  0
 13 14  1  1
 13 16  1  0
 14 15  1  0
 16 18  2  0
 16 17  1  0
M  END
$$$$
