VGC.pdb
     RDKit          3D

 18 17  0  0  1  0  0  0  0  0999 V2000
    3.2447  -19.9664   21.5278 C   0  0  0  0  0  0  0  0  0  0  0  0
    4.4481  -19.1373   21.1354 C   0  0  1  0  0  0  0  0  0  0  0  0
    3.9138  -17.8831   20.4647 C   0  0  0  0  0  0  0  0  0  0  0  0
    5.3001  -18.8059   22.3405 C   0  0  2  0  0  0  0  0  0  0  0  0
    4.4703  -18.1845   23.3307 N   0  0  0  0  0  0  0  0  0  0  0  0
    6.4576  -17.9516   21.9589 C   0  0  0  0  0  0  0  0  0  0  0  0
    7.5327  -18.4840   21.5950 O   0  0  0  0  0  0  0  0  0  0  0  0
    6.3580  -16.5361   22.0024 N   0  0  0  0  0  0  0  0  0  0  0  0
    7.4273  -15.6349   21.7632 C   0  0  0  0  0  0  0  0  0  0  0  0
    8.1492  -15.1485   22.9520 C   0  0  0  0  0  0  0  0  0  0  0  0
    9.3263  -14.6683   22.7826 O   0  0  0  0  0  0  0  0  0  0  0  0
    7.6612  -15.1578   24.2828 N   0  0  0  0  0  0  0  0  0  0  0  0
    8.3870  -14.7511   25.4525 C   0  0  1  0  0  0  0  0  0  0  0  0
    7.6692  -13.8455   26.3831 C   0  0  0  0  0  0  0  0  0  0  0  0
    6.2104  -13.1951   25.4789 S   0  0  0  0  0  0  0  0  0  0  0  0
    9.0399  -15.8950   26.1795 C   0  0  0  0  0  0  0  0  0  0  0  0
    9.8794  -15.6192   27.2321 O   0  0  0  0  0  0  0  0  0  0  0  0
    8.8416  -17.0769   25.8600 O   0  0  0  0  0  0  0  0  0  0  0  0
  2  1  1  1
  2  3  1  0
  4  2  1  0
  4  5  1  1
  6  7  2  0
  6  4  1  0
  8  6  1  0
  9  8  1  0
  9 10  1  0
 10 12  1  0
 11 10  2  0
 12 13  1  0
 13 14  1  1
 13 16  1  0
 14 15  1  0
 16 18  2  0
 16 17  1  0
M  END
$$$$
