VGC.pdb
     RDKit          3D

 18 17  0  0  1  0  0  0  0  0999 V2000
    3.3063  -18.6917   21.8042 C   0  0  0  0  0  0  0  0  0  0  0  0
    4.4006  -17.6477   21.7577 C   0  0  1  0  0  0  0  0  0  0  0  0
    4.4520  -17.0079   23.1348 C   0  0  0  0  0  0  0  0  0  0  0  0
    5.7288  -18.2646   21.3790 C   0  0  2  0  0  0  0  0  0  0  0  0
    6.0729  -19.2494   22.3622 N   0  0  0  0  0  0  0  0  0  0  0  0
    6.7811  -17.2219   21.2338 C   0  0  0  0  0  0  0  0  0  0  0  0
    6.6995  -16.3777   20.3106 O   0  0  0  0  0  0  0  0  0  0  0  0
    7.8796  -17.1722   22.1318 N   0  0  0  0  0  0  0  0  0  0  0  0
    8.8706  -16.1572   22.1537 C   0  0  0  0  0  0  0  0  0  0  0  0
    8.7865  -15.1868   23.2593 C   0  0  0  0  0  0  0  0  0  0  0  0
    9.7990  -14.4279   23.4679 O   0  0  0  0  0  0  0  0  0  0  0  0
    7.6787  -15.0066   24.1250 N   0  0  0  0  0  0  0  0  0  0  0  0
    7.6387  -14.1572   25.2814 C   0  0  1  0  0  0  0  0  0  0  0  0
    6.3399  -13.4963   25.5603 C   0  0  0  0  0  0  0  0  0  0  0  0
    6.6116  -12.3559   26.9726 S   0  0  0  0  0  0  0  0  0  0  0  0
    8.2151  -14.7977   26.5146 C   0  0  0  0  0  0  0  0  0  0  0  0
    9.0305  -14.0508   27.3307 O   0  0  0  0  0  0  0  0  0  0  0  0
    7.9747  -15.9761   26.8178 O   0  0  0  0  0  0  0  0  0  0  0  0
  2  1  1  1
  2  3  1  0
  4  2  1  0
  4  5  1  1
  6  7  2  0
  6  4  1  0
  8  6  1  0
  9  8  1  0
  9 10  1  0
 10 12  1  0
 11 10  2  0
 12 13  1  0
 13 14  1  1
 13 16  1  0
 14 15  1  0
 16 18  2  0
 16 17  1  0
M  END
$$$$
