VGC.pdb
     RDKit          3D

 18 17  0  0  1  0  0  0  0  0999 V2000
    7.2180  -13.1272   18.0762 C   0  0  0  0  0  0  0  0  0  0  0  0
    8.3463  -13.5089   19.0093 C   0  0  1  0  0  0  0  0  0  0  0  0
    8.4099  -12.4328   20.0800 C   0  0  0  0  0  0  0  0  0  0  0  0
    8.1205  -14.8795   19.6082 C   0  0  2  0  0  0  0  0  0  0  0  0
    6.8442  -14.8890   20.2609 N   0  0  0  0  0  0  0  0  0  0  0  0
    9.2280  -15.2492   20.5312 C   0  0  0  0  0  0  0  0  0  0  0  0
   10.3410  -15.5897   20.0653 O   0  0  0  0  0  0  0  0  0  0  0  0
    9.0380  -15.2208   21.9378 N   0  0  0  0  0  0  0  0  0  0  0  0
   10.0530  -15.4453   22.9033 C   0  0  0  0  0  0  0  0  0  0  0  0
    9.6340  -15.3934   24.3149 C   0  0  0  0  0  0  0  0  0  0  0  0
   10.5494  -15.4253   25.2125 O   0  0  0  0  0  0  0  0  0  0  0  0
    8.2990  -15.3078   24.7834 N   0  0  0  0  0  0  0  0  0  0  0  0
    7.8430  -15.6404   26.1032 C   0  0  1  0  0  0  0  0  0  0  0  0
    6.6745  -14.8740   26.6018 C   0  0  0  0  0  0  0  0  0  0  0  0
    6.3945  -13.4963   25.4218 S   0  0  0  0  0  0  0  0  0  0  0  0
    7.6756  -17.1192   26.3234 C   0  0  0  0  0  0  0  0  0  0  0  0
    7.4528  -17.5788   27.5993 O   0  0  0  0  0  0  0  0  0  0  0  0
    7.7298  -17.9340   25.3899 O   0  0  0  0  0  0  0  0  0  0  0  0
  2  1  1  6
  2  3  1  0
  4  2  1  0
  4  5  1  1
  6  7  2  0
  6  4  1  0
  8  6  1  0
  9  8  1  0
  9 10  1  0
 10 12  1  0
 11 10  2  0
 12 13  1  0
 13 14  1  6
 13 16  1  0
 14 15  1  0
 16 18  2  0
 16 17  1  0
M  END
$$$$
