VGC.pdb
     RDKit          3D

 18 17  0  0  1  0  0  0  0  0999 V2000
    7.1844  -19.7738   27.6836 C   0  0  0  0  0  0  0  0  0  0  0  0
    7.5023  -18.5847   26.8036 C   0  0  1  0  0  0  0  0  0  0  0  0
    8.9135  -18.1458   27.1562 C   0  0  0  0  0  0  0  0  0  0  0  0
    7.3779  -18.9401   25.3386 C   0  0  2  0  0  0  0  0  0  0  0  0
    8.1941  -20.0889   25.0756 N   0  0  0  0  0  0  0  0  0  0  0  0
    7.7389  -17.7830   24.4747 C   0  0  0  0  0  0  0  0  0  0  0  0
    8.9451  -17.5205   24.2557 O   0  0  0  0  0  0  0  0  0  0  0  0
    6.7299  -16.9706   23.8940 N   0  0  0  0  0  0  0  0  0  0  0  0
    6.9630  -15.7776   23.1624 C   0  0  0  0  0  0  0  0  0  0  0  0
    7.2768  -14.5763   23.9558 C   0  0  0  0  0  0  0  0  0  0  0  0
    7.6113  -13.5119   23.3234 O   0  0  0  0  0  0  0  0  0  0  0  0
    7.2419  -14.4810   25.3696 N   0  0  0  0  0  0  0  0  0  0  0  0
    7.7357  -13.3863   26.1557 C   0  0  1  0  0  0  0  0  0  0  0  0
    6.7428  -12.7072   27.0242 C   0  0  0  0  0  0  0  0  0  0  0  0
    5.0864  -13.0429   26.3081 S   0  0  0  0  0  0  0  0  0  0  0  0
    9.0017  -13.7085   26.9018 C   0  0  0  0  0  0  0  0  0  0  0  0
    9.7064  -12.6836   27.4862 O   0  0  0  0  0  0  0  0  0  0  0  0
    9.4261  -14.8692   27.0075 O   0  0  0  0  0  0  0  0  0  0  0  0
  2  1  1  1
  2  3  1  0
  4  2  1  0
  4  5  1  6
  6  7  2  0
  6  4  1  0
  8  6  1  0
  9  8  1  0
  9 10  1  0
 10 12  1  0
 11 10  2  0
 12 13  1  0
 13 14  1  1
 13 16  1  0
 14 15  1  0
 16 18  2  0
 16 17  1  0
M  END
$$$$
