VGC.pdb
     RDKit          3D

 18 17  0  0  1  0  0  0  0  0999 V2000
    7.9609  -12.4772   20.8075 C   0  0  0  0  0  0  0  0  0  0  0  0
    7.6017  -13.8235   20.2175 C   0  0  1  0  0  0  0  0  0  0  0  0
    7.7415  -13.6906   18.7104 C   0  0  0  0  0  0  0  0  0  0  0  0
    8.4921  -14.9160   20.7665 C   0  0  2  0  0  0  0  0  0  0  0  0
    8.1256  -16.1576   20.1508 N   0  0  0  0  0  0  0  0  0  0  0  0
    8.4098  -14.9778   22.2514 C   0  0  0  0  0  0  0  0  0  0  0  0
    8.8816  -14.0436   22.9416 O   0  0  0  0  0  0  0  0  0  0  0  0
    7.8012  -16.0859   22.8972 N   0  0  0  0  0  0  0  0  0  0  0  0
    7.6205  -16.2158   24.2984 C   0  0  0  0  0  0  0  0  0  0  0  0
    8.7662  -15.8336   25.1423 C   0  0  0  0  0  0  0  0  0  0  0  0
    9.9399  -16.1605   24.7420 O   0  0  0  0  0  0  0  0  0  0  0  0
    8.6962  -15.1278   26.3695 N   0  0  0  0  0  0  0  0  0  0  0  0
    9.8102  -14.7467   27.1906 C   0  0  1  0  0  0  0  0  0  0  0  0
    9.5946  -13.5800   28.0815 C   0  0  0  0  0  0  0  0  0  0  0  0
    8.3046  -12.5372   27.2957 S   0  0  0  0  0  0  0  0  0  0  0  0
   10.4350  -15.9016   27.9250 C   0  0  0  0  0  0  0  0  0  0  0  0
    9.8651  -17.1469   27.8103 O   0  0  0  0  0  0  0  0  0  0  0  0
   11.4482  -15.7644   28.6270 O   0  0  0  0  0  0  0  0  0  0  0  0
  2  1  1  1
  2  3  1  0
  4  2  1  0
  4  5  1  6
  6  7  2  0
  6  4  1  0
  8  6  1  0
  9  8  1  0
  9 10  1  0
 10 12  1  0
 11 10  2  0
 12 13  1  0
 13 14  1  1
 13 16  1  0
 14 15  1  0
 16 18  2  0
 16 17  1  0
M  END
$$$$
