VGC.pdb
     RDKit          3D

 18 17  0  0  1  0  0  0  0  0999 V2000
    7.2463  -19.4173   27.8298 C   0  0  0  0  0  0  0  0  0  0  0  0
    7.4572  -18.2767   26.8581 C   0  0  1  0  0  0  0  0  0  0  0  0
    8.6443  -17.4798   27.3719 C   0  0  0  0  0  0  0  0  0  0  0  0
    7.6948  -18.7904   25.4554 C   0  0  2  0  0  0  0  0  0  0  0  0
    8.7557  -19.7538   25.4945 N   0  0  0  0  0  0  0  0  0  0  0  0
    7.9845  -17.6715   24.5176 C   0  0  0  0  0  0  0  0  0  0  0  0
    9.1516  -17.2236   24.4225 O   0  0  0  0  0  0  0  0  0  0  0  0
    6.9511  -17.1036   23.7271 N   0  0  0  0  0  0  0  0  0  0  0  0
    7.1032  -15.9883   22.8635 C   0  0  0  0  0  0  0  0  0  0  0  0
    7.3026  -14.6814   23.5142 C   0  0  0  0  0  0  0  0  0  0  0  0
    7.6623  -13.6949   22.7780 O   0  0  0  0  0  0  0  0  0  0  0  0
    7.1304  -14.4045   24.8937 N   0  0  0  0  0  0  0  0  0  0  0  0
    7.5258  -13.2021   25.5705 C   0  0  1  0  0  0  0  0  0  0  0  0
    6.4387  -12.2414   25.8815 C   0  0  0  0  0  0  0  0  0  0  0  0
    5.1304  -13.1798   26.7628 S   0  0  0  0  0  0  0  0  0  0  0  0
    8.4099  -13.4493   26.7624 C   0  0  0  0  0  0  0  0  0  0  0  0
    8.6264  -14.7436   27.1706 O   0  0  0  0  0  0  0  0  0  0  0  0
    8.9503  -12.5224   27.3845 O   0  0  0  0  0  0  0  0  0  0  0  0
  2  1  1  1
  2  3  1  0
  4  2  1  0
  4  5  1  1
  6  7  2  0
  6  4  1  0
  8  6  1  0
  9  8  1  0
  9 10  1  0
 10 12  1  0
 11 10  2  0
 12 13  1  0
 13 14  1  1
 13 16  1  0
 14 15  1  0
 16 18  2  0
 16 17  1  0
M  END
$$$$
