VGC.pdb
     RDKit          3D

 18 17  0  0  1  0  0  0  0  0999 V2000
    8.7254  -13.2875   17.9799 C   0  0  0  0  0  0  0  0  0  0  0  0
    8.0927  -13.3311   19.3537 C   0  0  1  0  0  0  0  0  0  0  0  0
    6.6223  -13.6526   19.1468 C   0  0  0  0  0  0  0  0  0  0  0  0
    8.7697  -14.3573   20.2349 C   0  0  2  0  0  0  0  0  0  0  0  0
    8.6610  -15.6419   19.6080 N   0  0  0  0  0  0  0  0  0  0  0  0
    8.1920  -14.3493   21.6066 C   0  0  0  0  0  0  0  0  0  0  0  0
    8.2883  -13.3216   22.3181 O   0  0  0  0  0  0  0  0  0  0  0  0
    7.5309  -15.4959   22.1203 N   0  0  0  0  0  0  0  0  0  0  0  0
    7.0201  -15.6216   23.4380 C   0  0  0  0  0  0  0  0  0  0  0  0
    7.8322  -15.0243   24.5125 C   0  0  0  0  0  0  0  0  0  0  0  0
    9.1080  -15.0505   24.3836 O   0  0  0  0  0  0  0  0  0  0  0  0
    7.3333  -14.4129   25.6899 N   0  0  0  0  0  0  0  0  0  0  0  0
    8.1207  -13.8268   26.7372 C   0  0  1  0  0  0  0  0  0  0  0  0
    7.4204  -12.8566   27.6144 C   0  0  0  0  0  0  0  0  0  0  0  0
    5.9825  -12.2196   26.6679 S   0  0  0  0  0  0  0  0  0  0  0  0
    8.9030  -14.8354   27.5335 C   0  0  0  0  0  0  0  0  0  0  0  0
    9.8109  -14.3870   28.4627 O   0  0  0  0  0  0  0  0  0  0  0  0
    8.7517  -16.0567   27.3789 O   0  0  0  0  0  0  0  0  0  0  0  0
  2  1  1  6
  2  3  1  0
  4  2  1  0
  4  5  1  6
  6  7  2  0
  6  4  1  0
  8  6  1  0
  9  8  1  0
  9 10  1  0
 10 12  1  0
 11 10  2  0
 12 13  1  0
 13 14  1  1
 13 16  1  0
 14 15  1  0
 16 18  2  0
 16 17  1  0
M  END
$$$$
