VGC.pdb
     RDKit          3D

 18 17  0  0  1  0  0  0  0  0999 V2000
    8.0271  -12.5317   20.8321 C   0  0  0  0  0  0  0  0  0  0  0  0
    7.7445  -13.6051   19.8038 C   0  0  1  0  0  0  0  0  0  0  0  0
    8.1354  -13.0293   18.4533 C   0  0  0  0  0  0  0  0  0  0  0  0
    8.5096  -14.8729   20.1126 C   0  0  2  0  0  0  0  0  0  0  0  0
    8.3726  -15.7715   19.0042 N   0  0  0  0  0  0  0  0  0  0  0  0
    8.0462  -15.4798   21.3903 C   0  0  0  0  0  0  0  0  0  0  0  0
    7.0824  -16.2815   21.3866 O   0  0  0  0  0  0  0  0  0  0  0  0
    8.6852  -15.1603   22.6171 N   0  0  0  0  0  0  0  0  0  0  0  0
    8.3801  -15.7455   23.8730 C   0  0  0  0  0  0  0  0  0  0  0  0
    9.1593  -15.2604   25.0256 C   0  0  0  0  0  0  0  0  0  0  0  0
   10.4091  -15.5452   25.0657 O   0  0  0  0  0  0  0  0  0  0  0  0
    8.6550  -14.4967   26.1080 N   0  0  0  0  0  0  0  0  0  0  0  0
    9.4216  -13.9719   27.2022 C   0  0  1  0  0  0  0  0  0  0  0  0
    8.7549  -12.9342   28.0269 C   0  0  0  0  0  0  0  0  0  0  0  0
    7.2805  -12.3710   27.0900 S   0  0  0  0  0  0  0  0  0  0  0  0
   10.0573  -15.0375   28.0529 C   0  0  0  0  0  0  0  0  0  0  0  0
   11.0411  -14.6771   28.9423 O   0  0  0  0  0  0  0  0  0  0  0  0
    9.7191  -16.2284   27.9779 O   0  0  0  0  0  0  0  0  0  0  0  0
  2  1  1  1
  2  3  1  0
  4  2  1  0
  4  5  1  6
  6  7  2  0
  6  4  1  0
  8  6  1  0
  9  8  1  0
  9 10  1  0
 10 12  1  0
 11 10  2  0
 12 13  1  0
 13 14  1  1
 13 16  1  0
 14 15  1  0
 16 18  2  0
 16 17  1  0
M  END
$$$$
