SHK.pdb
     RDKit          3D

 26 26  0  0  1  0  0  0  0  0999 V2000
   11.2856  -13.0622   18.5077 O   0  0  0  0  0  0  0  0  0  0  0  0
   10.4213  -13.1813   19.5927 C   0  0  0  0  0  0  0  0  0  0  0  0
    9.2315  -14.0025   19.1428 C   0  0  2  0  0  0  0  0  0  0  0  0
    8.2913  -13.1748   18.4147 N   0  0  0  0  0  0  0  0  0  0  0  0
    8.5193  -14.6066   20.2998 C   0  0  0  0  0  0  0  0  0  0  0  0
    7.5572  -13.9719   20.8125 O   0  0  0  0  0  0  0  0  0  0  0  0
    8.8882  -15.8524   20.8288 N   0  0  0  0  0  0  0  0  0  0  0  0
    8.2173  -16.3974   21.9661 C   0  0  1  0  0  0  0  0  0  0  0  0
    8.2083  -17.8980   21.9584 C   0  0  0  0  0  0  0  0  0  0  0  0
    7.5336  -18.4966   23.1071 C   0  0  0  0  0  0  0  0  0  0  0  0
    6.1796  -18.4323   23.3575 C   0  0  0  0  0  0  0  0  0  0  0  0
    5.9406  -19.1043   24.5111 N   0  0  0  0  0  0  0  0  0  0  0  0
    7.0919  -19.5790   24.9800 C   0  0  0  0  0  0  0  0  0  0  0  0
    8.0774  -19.2036   24.1122 N   0  0  0  0  0  0  0  0  0  0  0  0
    8.9311  -15.9552   23.2069 C   0  0  0  0  0  0  0  0  0  0  0  0
   10.2021  -15.8170   23.1941 O   0  0  0  0  0  0  0  0  0  0  0  0
    8.2078  -15.6886   24.3971 N   0  0  0  0  0  0  0  0  0  0  0  0
    8.8340  -15.2871   25.6548 C   0  0  1  0  0  0  0  0  0  0  0  0
    7.8163  -14.6830   26.5422 C   0  0  0  0  0  0  0  0  0  0  0  0
    7.2938  -13.3755   26.0537 C   0  0  0  0  0  0  0  0  0  0  0  0
    6.2570  -12.9058   27.0637 C   0  0  0  0  0  0  0  0  0  0  0  0
    5.7627  -11.5533   26.5933 C   0  0  0  0  0  0  0  0  0  0  0  0
    4.7755  -11.0913   27.5357 N   0  0  0  0  0  0  0  0  0  0  0  0
    9.6379  -16.3816   26.2289 C   0  0  0  0  0  0  0  0  0  0  0  0
    9.3465  -17.7095   25.8604 O   0  0  0  0  0  0  0  0  0  0  0  0
   10.5780  -16.2531   27.0290 O   0  0  0  0  0  0  0  0  0  0  0  0
  2  3  1  0
  2  1  1  0
  3  4  1  1
  5  3  1  0
  5  6  2  0
  7  8  1  0
  7  5  1  0
  9 10  1  0
  8  9  1  6
 10 11  2  0
 12 11  1  0
 13 12  1  0
 14 13  2  0
 14 10  1  0
 15 16  2  0
 15  8  1  0
 17 15  1  0
 18 17  1  0
 18 24  1  0
 18 19  1  1
 20 21  1  0
 20 19  1  0
 22 23  1  0
 22 21  1  0
 24 25  1  0
 26 24  2  0
M  END
$$$$
