SHK.pdb
     RDKit          3D

 26 26  0  0  1  0  0  0  0  0999 V2000
    9.4179  -20.4126   18.0457 O   0  0  0  0  0  0  0  0  0  0  0  0
    8.1770  -19.7819   18.0696 C   0  0  0  0  0  0  0  0  0  0  0  0
    8.3777  -18.3574   17.5973 C   0  0  2  0  0  0  0  0  0  0  0  0
    9.0735  -18.3386   16.3266 N   0  0  0  0  0  0  0  0  0  0  0  0
    9.1735  -17.5679   18.5742 C   0  0  0  0  0  0  0  0  0  0  0  0
   10.3332  -17.1963   18.2453 O   0  0  0  0  0  0  0  0  0  0  0  0
    8.6701  -17.2303   19.8393 N   0  0  0  0  0  0  0  0  0  0  0  0
    9.4237  -16.4150   20.7382 C   0  0  1  0  0  0  0  0  0  0  0  0
    8.5860  -15.3478   21.3794 C   0  0  0  0  0  0  0  0  0  0  0  0
    8.1248  -14.3152   20.4551 C   0  0  0  0  0  0  0  0  0  0  0  0
    8.6982  -13.0712   20.3008 C   0  0  0  0  0  0  0  0  0  0  0  0
    7.9902  -12.4046   19.3554 N   0  0  0  0  0  0  0  0  0  0  0  0
    7.0053  -13.1876   18.9223 C   0  0  0  0  0  0  0  0  0  0  0  0
    7.0880  -14.3693   19.6020 N   0  0  0  0  0  0  0  0  0  0  0  0
    9.9712  -17.2795   21.8325 C   0  0  0  0  0  0  0  0  0  0  0  0
    9.2319  -18.1778   22.3630 O   0  0  0  0  0  0  0  0  0  0  0  0
   11.3041  -17.1094   22.2855 N   0  0  0  0  0  0  0  0  0  0  0  0
   11.9293  -17.9515   23.3029 C   0  0  1  0  0  0  0  0  0  0  0  0
   13.3914  -17.7269   23.2994 C   0  0  0  0  0  0  0  0  0  0  0  0
   14.1239  -18.5258   24.3223 C   0  0  0  0  0  0  0  0  0  0  0  0
   15.3323  -19.1364   23.6276 C   0  0  0  0  0  0  0  0  0  0  0  0
   16.0710  -19.9567   24.6652 C   0  0  0  0  0  0  0  0  0  0  0  0
   17.1704  -20.6155   24.0070 N   0  0  0  0  0  0  0  0  0  0  0  0
   11.2486  -17.8182   24.6040 C   0  0  0  0  0  0  0  0  0  0  0  0
   10.5200  -16.6441   24.8770 O   0  0  0  0  0  0  0  0  0  0  0  0
   11.2477  -18.6605   25.5155 O   0  0  0  0  0  0  0  0  0  0  0  0
  2  3  1  0
  2  1  1  0
  3  4  1  6
  5  3  1  0
  5  6  2  0
  7  8  1  0
  7  5  1  0
  9 10  1  0
  8  9  1  1
 10 11  2  0
 12 11  1  0
 13 12  1  0
 14 13  2  0
 14 10  1  0
 15 16  2  0
 15  8  1  0
 17 15  1  0
 18 17  1  0
 18 24  1  0
 18 19  1  1
 20 21  1  0
 20 19  1  0
 22 23  1  0
 22 21  1  0
 24 25  1  0
 26 24  2  0
M  END
$$$$
