SHK.pdb
     RDKit          3D

 26 26  0  0  1  0  0  0  0  0999 V2000
   10.3437  -20.1378   15.9734 O   0  0  0  0  0  0  0  0  0  0  0  0
   10.8276  -19.5141   17.1202 C   0  0  0  0  0  0  0  0  0  0  0  0
   10.5200  -18.0362   17.0025 C   0  0  2  0  0  0  0  0  0  0  0  0
   11.3218  -17.4339   15.9569 N   0  0  0  0  0  0  0  0  0  0  0  0
   10.8013  -17.3195   18.2746 C   0  0  0  0  0  0  0  0  0  0  0  0
   11.9949  -17.0086   18.5390 O   0  0  0  0  0  0  0  0  0  0  0  0
    9.7814  -16.9846   19.1776 N   0  0  0  0  0  0  0  0  0  0  0  0
   10.0818  -16.3817   20.4373 C   0  0  1  0  0  0  0  0  0  0  0  0
    8.9472  -15.5474   20.9556 C   0  0  0  0  0  0  0  0  0  0  0  0
    8.8146  -14.2481   20.3017 C   0  0  0  0  0  0  0  0  0  0  0  0
    9.6980  -13.7264   19.3811 C   0  0  0  0  0  0  0  0  0  0  0  0
    9.2333  -12.5084   19.0072 N   0  0  0  0  0  0  0  0  0  0  0  0
    8.1007  -12.2599   19.6601 C   0  0  0  0  0  0  0  0  0  0  0  0
    7.8413  -13.3354   20.4609 N   0  0  0  0  0  0  0  0  0  0  0  0
   10.3443  -17.4627   21.4410 C   0  0  0  0  0  0  0  0  0  0  0  0
    9.6272  -18.5213   21.4373 O   0  0  0  0  0  0  0  0  0  0  0  0
   11.3826  -17.3212   22.3964 N   0  0  0  0  0  0  0  0  0  0  0  0
   11.7786  -18.3759   23.3268 C   0  0  1  0  0  0  0  0  0  0  0  0
   13.2527  -18.3991   23.4483 C   0  0  0  0  0  0  0  0  0  0  0  0
   13.7615  -19.4395   24.3863 C   0  0  0  0  0  0  0  0  0  0  0  0
   15.2810  -19.3674   24.3482 C   0  0  0  0  0  0  0  0  0  0  0  0
   15.7981  -20.4416   25.2830 C   0  0  0  0  0  0  0  0  0  0  0  0
   17.2229  -20.5436   25.0939 N   0  0  0  0  0  0  0  0  0  0  0  0
   11.0181  -18.2945   24.5873 C   0  0  0  0  0  0  0  0  0  0  0  0
   10.7180  -17.0273   25.1239 O   0  0  0  0  0  0  0  0  0  0  0  0
   10.5980  -19.2574   25.2482 O   0  0  0  0  0  0  0  0  0  0  0  0
  2  3  1  0
  2  1  1  0
  3  4  1  6
  5  3  1  0
  5  6  2  0
  7  8  1  0
  7  5  1  0
  9 10  1  0
  8  9  1  1
 10 11  2  0
 12 11  1  0
 13 12  1  0
 14 13  2  0
 14 10  1  0
 15 16  2  0
 15  8  1  0
 17 15  1  0
 18 17  1  0
 18 24  1  0
 18 19  1  1
 20 21  1  0
 20 19  1  0
 22 23  1  0
 22 21  1  0
 24 25  1  0
 26 24  2  0
M  END
$$$$
