SHK.pdb
     RDKit          3D

 26 26  0  0  1  0  0  0  0  0999 V2000
    8.1012  -20.8542   17.4952 O   0  0  0  0  0  0  0  0  0  0  0  0
    7.1413  -20.1902   16.7364 C   0  0  0  0  0  0  0  0  0  0  0  0
    7.8505  -19.1177   15.9368 C   0  0  2  0  0  0  0  0  0  0  0  0
    8.9712  -19.6833   15.2136 N   0  0  0  0  0  0  0  0  0  0  0  0
    8.3644  -18.0345   16.8164 C   0  0  0  0  0  0  0  0  0  0  0  0
    9.6101  -17.9416   16.9917 O   0  0  0  0  0  0  0  0  0  0  0  0
    7.5055  -17.1234   17.4489 N   0  0  0  0  0  0  0  0  0  0  0  0
    8.0141  -16.1262   18.3363 C   0  0  1  0  0  0  0  0  0  0  0  0
    7.0189  -15.0338   18.5977 C   0  0  0  0  0  0  0  0  0  0  0  0
    7.5459  -13.9223   19.3852 C   0  0  0  0  0  0  0  0  0  0  0  0
    8.3096  -12.8873   18.8896 C   0  0  0  0  0  0  0  0  0  0  0  0
    8.6030  -12.0592   19.9228 N   0  0  0  0  0  0  0  0  0  0  0  0
    8.0511  -12.5426   21.0330 C   0  0  0  0  0  0  0  0  0  0  0  0
    7.3973  -13.6948   20.7012 N   0  0  0  0  0  0  0  0  0  0  0  0
    8.3379  -16.7678   19.6509 C   0  0  0  0  0  0  0  0  0  0  0  0
    7.6127  -17.7269   20.0859 O   0  0  0  0  0  0  0  0  0  0  0  0
    9.4433  -16.3196   20.4178 N   0  0  0  0  0  0  0  0  0  0  0  0
    9.7779  -16.8411   21.7411 C   0  0  1  0  0  0  0  0  0  0  0  0
   11.1729  -17.3331   21.7396 C   0  0  0  0  0  0  0  0  0  0  0  0
   11.4089  -18.4662   20.8008 C   0  0  0  0  0  0  0  0  0  0  0  0
   12.8773  -18.8463   20.9231 C   0  0  0  0  0  0  0  0  0  0  0  0
   13.1228  -19.9809   19.9497 C   0  0  0  0  0  0  0  0  0  0  0  0
   14.5200  -20.3265   20.0171 N   0  0  0  0  0  0  0  0  0  0  0  0
    9.4220  -15.8821   22.8029 C   0  0  0  0  0  0  0  0  0  0  0  0
    9.3148  -14.5150   22.4812 O   0  0  0  0  0  0  0  0  0  0  0  0
    9.1973  -16.1609   23.9913 O   0  0  0  0  0  0  0  0  0  0  0  0
  2  3  1  0
  2  1  1  0
  3  4  1  1
  5  3  1  0
  5  6  2  0
  7  8  1  0
  7  5  1  0
  9 10  1  0
  8  9  1  1
 10 11  2  0
 12 11  1  0
 13 12  1  0
 14 13  2  0
 14 10  1  0
 15 16  2  0
 15  8  1  0
 17 15  1  0
 18 17  1  0
 18 24  1  0
 18 19  1  6
 20 21  1  0
 20 19  1  0
 22 23  1  0
 22 21  1  0
 24 25  1  0
 26 24  2  0
M  END
$$$$
