SHK.pdb
     RDKit          3D

 26 26  0  0  1  0  0  0  0  0999 V2000
    7.6608  -19.7745   21.7047 O   0  0  0  0  0  0  0  0  0  0  0  0
    6.5177  -19.0314   21.4231 C   0  0  0  0  0  0  0  0  0  0  0  0
    6.7837  -18.2428   20.1584 C   0  0  2  0  0  0  0  0  0  0  0  0
    6.9215  -19.1347   19.0250 N   0  0  0  0  0  0  0  0  0  0  0  0
    8.0296  -17.4391   20.2709 C   0  0  0  0  0  0  0  0  0  0  0  0
    9.0544  -17.8265   19.6456 O   0  0  0  0  0  0  0  0  0  0  0  0
    8.0915  -16.2727   21.0479 N   0  0  0  0  0  0  0  0  0  0  0  0
    9.2520  -15.4399   21.0351 C   0  0  1  0  0  0  0  0  0  0  0  0
    8.9240  -14.0087   20.7252 C   0  0  0  0  0  0  0  0  0  0  0  0
    8.5273  -13.7739   19.3393 C   0  0  0  0  0  0  0  0  0  0  0  0
    7.3629  -13.1545   18.9386 C   0  0  0  0  0  0  0  0  0  0  0  0
    7.3563  -13.1252   17.5827 N   0  0  0  0  0  0  0  0  0  0  0  0
    8.4686  -13.7011   17.1335 C   0  0  0  0  0  0  0  0  0  0  0  0
    9.1932  -14.1025   18.2193 N   0  0  0  0  0  0  0  0  0  0  0  0
    9.8882  -15.4753   22.3910 C   0  0  0  0  0  0  0  0  0  0  0  0
    9.1571  -15.4115   23.4381 O   0  0  0  0  0  0  0  0  0  0  0  0
   11.2962  -15.5789   22.5231 N   0  0  0  0  0  0  0  0  0  0  0  0
   11.9652  -16.0576   23.7307 C   0  0  1  0  0  0  0  0  0  0  0  0
   11.4070  -17.3722   24.1162 C   0  0  0  0  0  0  0  0  0  0  0  0
   12.0344  -17.9568   25.3350 C   0  0  0  0  0  0  0  0  0  0  0  0
   11.4630  -19.3574   25.5009 C   0  0  0  0  0  0  0  0  0  0  0  0
   12.1621  -19.9820   26.6909 C   0  0  0  0  0  0  0  0  0  0  0  0
   11.6645  -21.3260   26.8404 N   0  0  0  0  0  0  0  0  0  0  0  0
   13.4317  -15.9811   23.5995 C   0  0  0  0  0  0  0  0  0  0  0  0
   14.2252  -16.0249   24.7624 O   0  0  0  0  0  0  0  0  0  0  0  0
   14.0639  -15.8804   22.5361 O   0  0  0  0  0  0  0  0  0  0  0  0
  2  3  1  0
  2  1  1  0
  3  4  1  6
  5  3  1  0
  5  6  2  0
  7  8  1  0
  7  5  1  0
  9 10  1  0
  8  9  1  1
 10 11  2  0
 12 11  1  0
 13 12  1  0
 14 13  2  0
 14 10  1  0
 15 16  2  0
 15  8  1  0
 17 15  1  0
 18 17  1  0
 18 24  1  0
 18 19  1  6
 20 21  1  0
 20 19  1  0
 22 23  1  0
 22 21  1  0
 24 25  1  0
 26 24  2  0
M  END
$$$$
