SHK.pdb
     RDKit          3D

 26 26  0  0  1  0  0  0  0  0999 V2000
   15.5581  -20.2399   12.7404 O   0  0  0  0  0  0  0  0  0  0  0  0
   14.5977  -21.0164   13.3829 C   0  0  0  0  0  0  0  0  0  0  0  0
   13.4194  -20.1196   13.6985 C   0  0  2  0  0  0  0  0  0  0  0  0
   13.3864  -18.9894   12.7926 N   0  0  0  0  0  0  0  0  0  0  0  0
   13.4903  -19.5982   15.0892 C   0  0  0  0  0  0  0  0  0  0  0  0
   13.6638  -18.3605   15.2598 O   0  0  0  0  0  0  0  0  0  0  0  0
   13.3700  -20.4414   16.2038 N   0  0  0  0  0  0  0  0  0  0  0  0
   13.4197  -19.9180   17.5320 C   0  0  1  0  0  0  0  0  0  0  0  0
   12.1661  -20.2046   18.3055 C   0  0  0  0  0  0  0  0  0  0  0  0
   12.1331  -19.5991   19.6342 C   0  0  0  0  0  0  0  0  0  0  0  0
   13.0995  -18.7640   20.1527 C   0  0  0  0  0  0  0  0  0  0  0  0
   12.7126  -18.4114   21.4039 N   0  0  0  0  0  0  0  0  0  0  0  0
   11.5482  -18.9953   21.6757 C   0  0  0  0  0  0  0  0  0  0  0  0
   11.1892  -19.7299   20.5818 N   0  0  0  0  0  0  0  0  0  0  0  0
   14.5593  -20.5596   18.2628 C   0  0  0  0  0  0  0  0  0  0  0  0
   14.6427  -21.8344   18.3168 O   0  0  0  0  0  0  0  0  0  0  0  0
   15.5475  -19.7638   18.8961 N   0  0  0  0  0  0  0  0  0  0  0  0
   16.6781  -20.3139   19.6406 C   0  0  1  0  0  0  0  0  0  0  0  0
   17.7474  -19.2964   19.7375 C   0  0  0  0  0  0  0  0  0  0  0  0
   19.0082  -19.8066   20.3469 C   0  0  0  0  0  0  0  0  0  0  0  0
   20.0480  -18.7046   20.2051 C   0  0  0  0  0  0  0  0  0  0  0  0
   21.3383  -19.2358   20.7952 C   0  0  0  0  0  0  0  0  0  0  0  0
   22.3808  -18.2838   20.5072 N   0  0  0  0  0  0  0  0  0  0  0  0
   16.2402  -20.9275   20.9077 C   0  0  0  0  0  0  0  0  0  0  0  0
   16.6301  -22.2496   21.1974 O   0  0  0  0  0  0  0  0  0  0  0  0
   15.5416  -20.3837   21.7775 O   0  0  0  0  0  0  0  0  0  0  0  0
  2  3  1  0
  2  1  1  0
  3  4  1  6
  5  3  1  0
  5  6  2  0
  7  8  1  0
  7  5  1  0
  9 10  1  0
  8  9  1  1
 10 11  2  0
 12 11  1  0
 13 12  1  0
 14 13  2  0
 14 10  1  0
 15 16  2  0
 15  8  1  0
 17 15  1  0
 18 17  1  0
 18 24  1  0
 18 19  1  1
 20 21  1  0
 20 19  1  0
 22 23  1  0
 22 21  1  0
 24 25  1  0
 26 24  2  0
M  END
$$$$
