SHK.pdb
     RDKit          3D

 26 26  0  0  1  0  0  0  0  0999 V2000
   11.1047  -20.2115   18.0023 O   0  0  0  0  0  0  0  0  0  0  0  0
    9.8218  -19.7081   17.8048 C   0  0  0  0  0  0  0  0  0  0  0  0
    9.9446  -18.2159   17.5798 C   0  0  2  0  0  0  0  0  0  0  0  0
   11.0039  -17.9321   16.6330 N   0  0  0  0  0  0  0  0  0  0  0  0
   10.2491  -17.4985   18.8461 C   0  0  0  0  0  0  0  0  0  0  0  0
   11.4526  -17.2286   19.1106 O   0  0  0  0  0  0  0  0  0  0  0  0
    9.2402  -17.1189   19.7438 N   0  0  0  0  0  0  0  0  0  0  0  0
    9.5405  -16.3395   20.9027 C   0  0  1  0  0  0  0  0  0  0  0  0
    8.4091  -15.4327   21.2894 C   0  0  0  0  0  0  0  0  0  0  0  0
    8.0835  -14.4232   20.2854 C   0  0  0  0  0  0  0  0  0  0  0  0
    8.6987  -13.1959   20.1617 C   0  0  0  0  0  0  0  0  0  0  0  0
    8.1223  -12.5482   19.1189 N   0  0  0  0  0  0  0  0  0  0  0  0
    7.1781  -13.3268   18.5964 C   0  0  0  0  0  0  0  0  0  0  0  0
    7.1536  -14.4865   19.3173 N   0  0  0  0  0  0  0  0  0  0  0  0
    9.7946  -17.2631   22.0547 C   0  0  0  0  0  0  0  0  0  0  0  0
    9.0429  -18.2824   22.2300 O   0  0  0  0  0  0  0  0  0  0  0  0
   10.8632  -17.0157   22.9535 N   0  0  0  0  0  0  0  0  0  0  0  0
   11.2221  -17.9086   24.0530 C   0  0  1  0  0  0  0  0  0  0  0  0
   12.6890  -17.8924   24.2433 C   0  0  0  0  0  0  0  0  0  0  0  0
   13.4543  -18.3548   23.0510 C   0  0  0  0  0  0  0  0  0  0  0  0
   14.9235  -18.3761   23.4466 C   0  0  0  0  0  0  0  0  0  0  0  0
   15.6943  -18.9084   22.2559 C   0  0  0  0  0  0  0  0  0  0  0  0
   17.0966  -18.8714   22.5850 N   0  0  0  0  0  0  0  0  0  0  0  0
   10.4028  -17.6443   25.2499 C   0  0  0  0  0  0  0  0  0  0  0  0
   10.4043  -18.5830   26.3001 O   0  0  0  0  0  0  0  0  0  0  0  0
    9.6882  -16.6472   25.4381 O   0  0  0  0  0  0  0  0  0  0  0  0
  2  3  1  0
  2  1  1  0
  3  4  1  6
  5  3  1  0
  5  6  2  0
  7  8  1  0
  7  5  1  0
  9 10  1  0
  8  9  1  1
 10 11  2  0
 12 11  1  0
 13 12  1  0
 14 13  2  0
 14 10  1  0
 15 16  2  0
 15  8  1  0
 17 15  1  0
 18 17  1  0
 18 24  1  0
 18 19  1  1
 20 21  1  0
 20 19  1  0
 22 23  1  0
 22 21  1  0
 24 25  1  0
 26 24  2  0
M  END
$$$$
