SHK.pdb
     RDKit          3D

 26 26  0  0  1  0  0  0  0  0999 V2000
    8.3069  -18.2530   19.9028 O   0  0  0  0  0  0  0  0  0  0  0  0
    7.6019  -17.2104   19.3077 C   0  0  0  0  0  0  0  0  0  0  0  0
    8.4280  -15.9511   19.4633 C   0  0  2  0  0  0  0  0  0  0  0  0
    9.7304  -16.1212   18.8520 N   0  0  0  0  0  0  0  0  0  0  0  0
    8.6287  -15.6062   20.8956 C   0  0  0  0  0  0  0  0  0  0  0  0
    9.7029  -15.9592   21.4549 O   0  0  0  0  0  0  0  0  0  0  0  0
    7.6619  -14.9050   21.6316 N   0  0  0  0  0  0  0  0  0  0  0  0
    7.8817  -14.5670   23.0020 C   0  0  1  0  0  0  0  0  0  0  0  0
    6.6975  -13.8809   23.6175 C   0  0  0  0  0  0  0  0  0  0  0  0
    6.9156  -13.4299   24.9894 C   0  0  0  0  0  0  0  0  0  0  0  0
    8.1108  -13.5058   25.6719 C   0  0  0  0  0  0  0  0  0  0  0  0
    7.9127  -12.9897   26.9103 N   0  0  0  0  0  0  0  0  0  0  0  0
    6.6450  -12.5996   27.0171 C   0  0  0  0  0  0  0  0  0  0  0  0
    6.0278  -12.8716   25.8296 N   0  0  0  0  0  0  0  0  0  0  0  0
    8.1296  -15.8249   23.7771 C   0  0  0  0  0  0  0  0  0  0  0  0
    7.3931  -16.8506   23.5767 O   0  0  0  0  0  0  0  0  0  0  0  0
    9.1756  -15.8874   24.7325 N   0  0  0  0  0  0  0  0  0  0  0  0
    9.5464  -17.1041   25.4517 C   0  0  1  0  0  0  0  0  0  0  0  0
   10.4185  -17.9374   24.5954 C   0  0  0  0  0  0  0  0  0  0  0  0
   11.8612  -17.5716   24.6717 C   0  0  0  0  0  0  0  0  0  0  0  0
   12.6025  -18.4826   23.7042 C   0  0  0  0  0  0  0  0  0  0  0  0
   14.0757  -18.1505   23.8248 C   0  0  0  0  0  0  0  0  0  0  0  0
   14.8056  -19.0682   22.9874 N   0  0  0  0  0  0  0  0  0  0  0  0
   10.0531  -16.7975   26.8019 C   0  0  0  0  0  0  0  0  0  0  0  0
   10.1726  -15.4510   27.1976 O   0  0  0  0  0  0  0  0  0  0  0  0
   10.3959  -17.6285   27.6577 O   0  0  0  0  0  0  0  0  0  0  0  0
  2  3  1  0
  2  1  1  0
  3  4  1  1
  5  3  1  0
  5  6  2  0
  7  8  1  0
  7  5  1  0
  9 10  1  0
  8  9  1  1
 10 11  2  0
 12 11  1  0
 13 12  1  0
 14 13  2  0
 14 10  1  0
 15 16  2  0
 15  8  1  0
 17 15  1  0
 18 17  1  0
 18 24  1  0
 18 19  1  6
 20 21  1  0
 20 19  1  0
 22 23  1  0
 22 21  1  0
 24 25  1  0
 26 24  2  0
M  END
$$$$
