SHK.pdb
     RDKit          3D

 26 26  0  0  1  0  0  0  0  0999 V2000
   13.8331  -16.8652   15.4402 O   0  0  0  0  0  0  0  0  0  0  0  0
   13.8136  -16.6062   16.8079 C   0  0  0  0  0  0  0  0  0  0  0  0
   13.3797  -15.1679   16.9959 C   0  0  2  0  0  0  0  0  0  0  0  0
   14.4609  -14.2646   16.6583 N   0  0  0  0  0  0  0  0  0  0  0  0
   12.9740  -14.9018   18.4014 C   0  0  0  0  0  0  0  0  0  0  0  0
   13.8108  -14.3655   19.1782 O   0  0  0  0  0  0  0  0  0  0  0  0
   11.6962  -15.2296   18.8787 N   0  0  0  0  0  0  0  0  0  0  0  0
   11.3308  -14.9795   20.2368 C   0  0  1  0  0  0  0  0  0  0  0  0
    9.8537  -15.1148   20.4644 C   0  0  0  0  0  0  0  0  0  0  0  0
    9.0455  -14.1433   19.7320 C   0  0  0  0  0  0  0  0  0  0  0  0
    9.5129  -12.9634   19.1939 C   0  0  0  0  0  0  0  0  0  0  0  0
    8.4675  -12.3396   18.5960 N   0  0  0  0  0  0  0  0  0  0  0  0
    7.3769  -13.0875   18.7445 C   0  0  0  0  0  0  0  0  0  0  0  0
    7.7337  -14.2030   19.4469 N   0  0  0  0  0  0  0  0  0  0  0  0
   12.0178  -15.9802   21.1150 C   0  0  0  0  0  0  0  0  0  0  0  0
   11.9687  -17.2236   20.8211 O   0  0  0  0  0  0  0  0  0  0  0  0
   12.7227  -15.5592   22.2712 N   0  0  0  0  0  0  0  0  0  0  0  0
   13.5927  -16.4336   23.0546 C   0  0  1  0  0  0  0  0  0  0  0  0
   14.9427  -15.8355   23.1439 C   0  0  0  0  0  0  0  0  0  0  0  0
   15.9367  -16.6985   23.8427 C   0  0  0  0  0  0  0  0  0  0  0  0
   17.2541  -15.9371   23.8571 C   0  0  0  0  0  0  0  0  0  0  0  0
   18.2662  -16.8182   24.5602 C   0  0  0  0  0  0  0  0  0  0  0  0
   19.5130  -16.0983   24.6197 N   0  0  0  0  0  0  0  0  0  0  0  0
   12.9606  -16.8187   24.3298 C   0  0  0  0  0  0  0  0  0  0  0  0
   11.7540  -16.1988   24.7091 O   0  0  0  0  0  0  0  0  0  0  0  0
   13.3925  -17.6616   25.1318 O   0  0  0  0  0  0  0  0  0  0  0  0
  2  3  1  0
  2  1  1  0
  3  4  1  1
  5  3  1  0
  5  6  2  0
  7  8  1  0
  7  5  1  0
  9 10  1  0
  8  9  1  6
 10 11  2  0
 12 11  1  0
 13 12  1  0
 14 13  2  0
 14 10  1  0
 15 16  2  0
 15  8  1  0
 17 15  1  0
 18 17  1  0
 18 24  1  0
 18 19  1  1
 20 21  1  0
 20 19  1  0
 22 23  1  0
 22 21  1  0
 24 25  1  0
 26 24  2  0
M  END
$$$$
