SHK.pdb
     RDKit          3D

 26 26  0  0  1  0  0  0  0  0999 V2000
   10.9487  -19.8164   18.8117 O   0  0  0  0  0  0  0  0  0  0  0  0
    9.8154  -19.7729   18.0041 C   0  0  0  0  0  0  0  0  0  0  0  0
    9.5148  -18.3176   17.7142 C   0  0  2  0  0  0  0  0  0  0  0  0
   10.3147  -17.8473   16.6015 N   0  0  0  0  0  0  0  0  0  0  0  0
    9.8059  -17.4574   18.8916 C   0  0  0  0  0  0  0  0  0  0  0  0
   10.9936  -17.0761   19.0796 O   0  0  0  0  0  0  0  0  0  0  0  0
    8.8015  -17.0642   19.7885 N   0  0  0  0  0  0  0  0  0  0  0  0
    9.0822  -16.1605   20.8586 C   0  0  1  0  0  0  0  0  0  0  0  0
    8.0106  -15.1234   21.0256 C   0  0  0  0  0  0  0  0  0  0  0  0
    7.8976  -14.1959   19.9030 C   0  0  0  0  0  0  0  0  0  0  0  0
    8.5124  -12.9648   19.8225 C   0  0  0  0  0  0  0  0  0  0  0  0
    8.1666  -12.4073   18.6355 N   0  0  0  0  0  0  0  0  0  0  0  0
    7.3646  -13.2451   17.9830 C   0  0  0  0  0  0  0  0  0  0  0  0
    7.1979  -14.3514   18.7663 N   0  0  0  0  0  0  0  0  0  0  0  0
    9.1652  -16.9359   22.1379 C   0  0  0  0  0  0  0  0  0  0  0  0
    8.2161  -17.7284   22.4635 O   0  0  0  0  0  0  0  0  0  0  0  0
   10.2889  -16.7979   22.9917 N   0  0  0  0  0  0  0  0  0  0  0  0
   10.4959  -17.5982   24.1966 C   0  0  1  0  0  0  0  0  0  0  0  0
   11.9069  -18.0379   24.2608 C   0  0  0  0  0  0  0  0  0  0  0  0
   12.2442  -18.7943   25.4998 C   0  0  0  0  0  0  0  0  0  0  0  0
   13.7319  -19.1082   25.4378 C   0  0  0  0  0  0  0  0  0  0  0  0
   14.0871  -19.8224   26.7258 C   0  0  0  0  0  0  0  0  0  0  0  0
   15.4525  -20.2704   26.6206 N   0  0  0  0  0  0  0  0  0  0  0  0
    9.9663  -16.9172   25.3922 C   0  0  0  0  0  0  0  0  0  0  0  0
    9.6376  -17.6847   26.5266 O   0  0  0  0  0  0  0  0  0  0  0  0
    9.7742  -15.6967   25.5104 O   0  0  0  0  0  0  0  0  0  0  0  0
  2  3  1  0
  2  1  1  0
  3  4  1  6
  5  3  1  0
  5  6  2  0
  7  8  1  0
  7  5  1  0
  9 10  1  0
  8  9  1  1
 10 11  2  0
 12 11  1  0
 13 12  1  0
 14 13  2  0
 14 10  1  0
 15 16  2  0
 15  8  1  0
 17 15  1  0
 18 17  1  0
 18 24  1  0
 18 19  1  1
 20 21  1  0
 20 19  1  0
 22 23  1  0
 22 21  1  0
 24 25  1  0
 26 24  2  0
M  END
$$$$
