SHK.pdb
     RDKit          3D

 26 26  0  0  1  0  0  0  0  0999 V2000
    4.5696  -19.1114   23.3101 O   0  0  0  0  0  0  0  0  0  0  0  0
    3.9315  -18.4066   22.2931 C   0  0  0  0  0  0  0  0  0  0  0  0
    4.9124  -18.2647   21.1485 C   0  0  2  0  0  0  0  0  0  0  0  0
    5.3548  -19.5681   20.6964 N   0  0  0  0  0  0  0  0  0  0  0  0
    6.1103  -17.4823   21.5531 C   0  0  0  0  0  0  0  0  0  0  0  0
    7.1635  -18.1073   21.8555 O   0  0  0  0  0  0  0  0  0  0  0  0
    6.0968  -16.0805   21.6059 N   0  0  0  0  0  0  0  0  0  0  0  0
    7.2216  -15.3512   22.0994 C   0  0  1  0  0  0  0  0  0  0  0  0
    7.2170  -13.9204   21.6470 C   0  0  0  0  0  0  0  0  0  0  0  0
    7.6516  -13.7299   20.2657 C   0  0  0  0  0  0  0  0  0  0  0  0
    8.1399  -14.7206   19.4409 C   0  0  0  0  0  0  0  0  0  0  0  0
    8.4333  -14.1541   18.2441 N   0  0  0  0  0  0  0  0  0  0  0  0
    8.1455  -12.8561   18.2992 C   0  0  0  0  0  0  0  0  0  0  0  0
    7.6620  -12.5931   19.5492 N   0  0  0  0  0  0  0  0  0  0  0  0
    7.1801  -15.3527   23.5971 C   0  0  0  0  0  0  0  0  0  0  0  0
    6.0575  -15.2587   24.2020 O   0  0  0  0  0  0  0  0  0  0  0  0
    8.3770  -15.4575   24.3502 N   0  0  0  0  0  0  0  0  0  0  0  0
    8.4625  -16.1185   25.6506 C   0  0  1  0  0  0  0  0  0  0  0  0
    7.9758  -17.5102   25.5299 C   0  0  0  0  0  0  0  0  0  0  0  0
    8.0966  -18.2996   26.7882 C   0  0  0  0  0  0  0  0  0  0  0  0
    7.6441  -19.7170   26.4688 C   0  0  0  0  0  0  0  0  0  0  0  0
    7.8561  -20.5416   27.7219 C   0  0  0  0  0  0  0  0  0  0  0  0
    7.5402  -21.9119   27.4078 N   0  0  0  0  0  0  0  0  0  0  0  0
    9.7940  -15.9399   26.2582 C   0  0  0  0  0  0  0  0  0  0  0  0
   10.8746  -15.5622   25.4375 O   0  0  0  0  0  0  0  0  0  0  0  0
   10.0735  -16.0906   27.4580 O   0  0  0  0  0  0  0  0  0  0  0  0
  2  3  1  0
  2  1  1  0
  3  4  1  1
  5  3  1  0
  5  6  2  0
  7  8  1  0
  7  5  1  0
  9 10  1  0
  8  9  1  6
 10 11  2  0
 12 11  1  0
 13 12  1  0
 14 13  2  0
 14 10  1  0
 15 16  2  0
 15  8  1  0
 17 15  1  0
 18 17  1  0
 18 24  1  0
 18 19  1  6
 20 21  1  0
 20 19  1  0
 22 23  1  0
 22 21  1  0
 24 25  1  0
 26 24  2  0
M  END
$$$$
