SHK.pdb
     RDKit          3D

 26 26  0  0  1  0  0  0  0  0999 V2000
    8.5329  -15.6716   15.9674 O   0  0  0  0  0  0  0  0  0  0  0  0
    8.8723  -14.3622   16.2966 C   0  0  0  0  0  0  0  0  0  0  0  0
    9.1529  -14.3216   17.7839 C   0  0  2  0  0  0  0  0  0  0  0  0
    9.2342  -12.9511   18.2466 N   0  0  0  0  0  0  0  0  0  0  0  0
   10.4342  -15.0000   18.1140 C   0  0  0  0  0  0  0  0  0  0  0  0
   10.5343  -16.2378   17.8928 O   0  0  0  0  0  0  0  0  0  0  0  0
   11.5225  -14.3031   18.6598 N   0  0  0  0  0  0  0  0  0  0  0  0
   12.7585  -14.9650   18.9331 C   0  0  1  0  0  0  0  0  0  0  0  0
   13.9104  -14.3512   18.1926 C   0  0  0  0  0  0  0  0  0  0  0  0
   14.1410  -14.9226   16.8683 C   0  0  0  0  0  0  0  0  0  0  0  0
   14.4228  -16.2472   16.6109 C   0  0  0  0  0  0  0  0  0  0  0  0
   14.5702  -16.3849   15.2698 N   0  0  0  0  0  0  0  0  0  0  0  0
   14.3906  -15.1996   14.6923 C   0  0  0  0  0  0  0  0  0  0  0  0
   14.1251  -14.2949   15.6803 N   0  0  0  0  0  0  0  0  0  0  0  0
   13.0524  -14.8559   20.3982 C   0  0  0  0  0  0  0  0  0  0  0  0
   12.9800  -13.7187   20.9781 O   0  0  0  0  0  0  0  0  0  0  0  0
   13.4110  -16.0049   21.1480 N   0  0  0  0  0  0  0  0  0  0  0  0
   13.7348  -15.9760   22.5725 C   0  0  1  0  0  0  0  0  0  0  0  0
   12.8608  -16.9245   23.2968 C   0  0  0  0  0  0  0  0  0  0  0  0
   13.1818  -17.0494   24.7468 C   0  0  0  0  0  0  0  0  0  0  0  0
   12.2277  -18.0838   25.3258 C   0  0  0  0  0  0  0  0  0  0  0  0
   12.4900  -18.1415   26.8168 C   0  0  0  0  0  0  0  0  0  0  0  0
   11.4657  -18.9601   27.4143 N   0  0  0  0  0  0  0  0  0  0  0  0
   15.1850  -16.1180   22.7974 C   0  0  0  0  0  0  0  0  0  0  0  0
   15.7590  -15.5354   23.9442 O   0  0  0  0  0  0  0  0  0  0  0  0
   15.9815  -16.7186   22.0591 O   0  0  0  0  0  0  0  0  0  0  0  0
  2  3  1  0
  2  1  1  0
  3  4  1  6
  5  3  1  0
  5  6  2  0
  7  8  1  0
  7  5  1  0
  9 10  1  0
  8  9  1  6
 10 11  2  0
 12 11  1  0
 13 12  1  0
 14 13  2  0
 14 10  1  0
 15 16  2  0
 15  8  1  0
 17 15  1  0
 18 17  1  0
 18 24  1  0
 18 19  1  1
 20 21  1  0
 20 19  1  0
 22 23  1  0
 22 21  1  0
 24 25  1  0
 26 24  2  0
M  END
$$$$
