SHK.pdb
     RDKit          3D

 26 26  0  0  1  0  0  0  0  0999 V2000
   10.9586  -20.1905   15.2763 O   0  0  0  0  0  0  0  0  0  0  0  0
    9.9065  -19.8153   14.4454 C   0  0  0  0  0  0  0  0  0  0  0  0
   10.1632  -18.3928   13.9947 C   0  0  2  0  0  0  0  0  0  0  0  0
   11.4282  -18.3042   13.2941 N   0  0  0  0  0  0  0  0  0  0  0  0
   10.2049  -17.4562   15.1488 C   0  0  0  0  0  0  0  0  0  0  0  0
   11.3274  -17.0378   15.5441 O   0  0  0  0  0  0  0  0  0  0  0  0
    9.0379  -17.0316   15.8012 N   0  0  0  0  0  0  0  0  0  0  0  0
    9.1034  -16.1974   16.9590 C   0  0  1  0  0  0  0  0  0  0  0  0
    7.7749  -15.5881   17.2991 C   0  0  0  0  0  0  0  0  0  0  0  0
    7.8349  -14.5724   18.3470 C   0  0  0  0  0  0  0  0  0  0  0  0
    8.9634  -14.2315   19.0616 C   0  0  0  0  0  0  0  0  0  0  0  0
    8.6183  -13.2550   19.9372 N   0  0  0  0  0  0  0  0  0  0  0  0
    7.3244  -12.9816   19.7903 C   0  0  0  0  0  0  0  0  0  0  0  0
    6.8393  -13.7960   18.8071 N   0  0  0  0  0  0  0  0  0  0  0  0
    9.5339  -17.0273   18.1297 C   0  0  0  0  0  0  0  0  0  0  0  0
    9.1314  -18.2364   18.2342 O   0  0  0  0  0  0  0  0  0  0  0  0
   10.3851  -16.4821   19.1243 N   0  0  0  0  0  0  0  0  0  0  0  0
   10.8829  -17.2393   20.2706 C   0  0  1  0  0  0  0  0  0  0  0  0
   12.3020  -17.5934   20.0498 C   0  0  0  0  0  0  0  0  0  0  0  0
   12.5388  -19.0568   19.8964 C   0  0  0  0  0  0  0  0  0  0  0  0
   14.0274  -19.2418   19.6406 C   0  0  0  0  0  0  0  0  0  0  0  0
   14.2448  -20.7101   19.3377 C   0  0  0  0  0  0  0  0  0  0  0  0
   15.6581  -20.9179   19.1490 N   0  0  0  0  0  0  0  0  0  0  0  0
   10.5662  -16.5617   21.5412 C   0  0  0  0  0  0  0  0  0  0  0  0
   10.6141  -17.2999   22.7398 O   0  0  0  0  0  0  0  0  0  0  0  0
   10.2527  -15.3680   21.6720 O   0  0  0  0  0  0  0  0  0  0  0  0
  2  3  1  0
  2  1  1  0
  3  4  1  1
  5  3  1  0
  5  6  2  0
  7  8  1  0
  7  5  1  0
  9 10  1  0
  8  9  1  1
 10 11  2  0
 12 11  1  0
 13 12  1  0
 14 13  2  0
 14 10  1  0
 15 16  2  0
 15  8  1  0
 17 15  1  0
 18 17  1  0
 18 24  1  0
 18 19  1  6
 20 21  1  0
 20 19  1  0
 22 23  1  0
 22 21  1  0
 24 25  1  0
 26 24  2  0
M  END
$$$$
