FPT.pdb
     RDKit          3D

 26 27  0  0  1  0  0  0  0  0999 V2000
   27.9569  -19.9468  -15.8550 N   0  0  0  0  0  0  0  0  0  0  0  0
   27.1576  -20.3780  -14.7359 C   0  0  1  0  0  0  0  0  0  0  0  0
   27.2734  -19.3778  -13.6228 C   0  0  0  0  0  0  0  0  0  0  0  0
   26.7164  -19.9610  -12.3828 C   0  0  0  0  0  0  0  0  0  0  0  0
   25.4178  -19.6945  -12.0163 C   0  0  0  0  0  0  0  0  0  0  0  0
   24.8495  -20.2106  -10.8600 C   0  0  0  0  0  0  0  0  0  0  0  0
   25.6371  -21.0112  -10.0763 C   0  0  0  0  0  0  0  0  0  0  0  0
   26.9396  -21.3062  -10.3999 C   0  0  0  0  0  0  0  0  0  0  0  0
   27.4804  -20.7675  -11.5751 C   0  0  0  0  0  0  0  0  0  0  0  0
   25.7556  -20.6890  -15.0819 C   0  0  0  0  0  0  0  0  0  0  0  0
   25.1545  -19.8359  -15.8193 O   0  0  0  0  0  0  0  0  0  0  0  0
   25.0912  -21.8378  -14.6467 N   0  0  0  0  0  0  0  0  0  0  0  0
   25.5151  -22.7577  -13.6120 C   0  0  0  0  0  0  0  0  0  0  0  0
   24.3560  -23.7595  -13.4814 C   0  0  0  0  0  0  0  0  0  0  0  0
   23.9062  -23.7839  -14.9375 C   0  0  0  0  0  0  0  0  0  0  0  0
   23.8061  -22.3046  -15.1916 C   0  0  1  0  0  0  0  0  0  0  0  0
   22.7513  -21.6704  -14.3614 C   0  0  0  0  0  0  0  0  0  0  0  0
   22.8968  -21.3987  -13.1415 O   0  0  0  0  0  0  0  0  0  0  0  0
   21.3075  -18.3939  -14.8035 C   0  0  0  0  0  0  0  0  0  0  0  0
   20.1554  -19.3596  -14.9475 C   0  0  1  0  0  0  0  0  0  0  0  0
   19.8964  -19.7044  -16.2552 O   0  0  0  0  0  0  0  0  0  0  0  0
   20.4374  -20.6672  -14.1966 C   0  0  2  0  0  0  0  0  0  0  0  0
   21.4876  -21.3345  -14.9416 N   0  0  0  0  0  0  0  0  0  0  0  0
   19.2293  -21.5242  -14.2306 C   0  0  0  0  0  0  0  0  0  0  0  0
   19.1325  -22.6071  -15.0660 O   0  0  0  0  0  0  0  0  0  0  0  0
   18.2478  -21.2740  -13.4813 O   0  0  0  0  0  0  0  0  0  0  0  0
  2 10  1  0
  2  1  1  6
  3  2  1  0
  4  9  1  0
  4  3  1  0
  5  4  2  0
  6  7  2  0
  6  5  1  0
  7  8  1  0
  8  9  2  0
 10 12  1  0
 11 10  2  0
 12 16  1  0
 12 13  1  0
 14 13  1  0
 15 14  1  0
 15 16  1  0
 16 17  1  1
 17 18  2  0
 20 19  1  6
 20 22  1  0
 21 20  1  0
 22 23  1  6
 23 17  1  0
 24 22  1  0
 25 24  1  0
 26 24  2  0
M  END
$$$$
