FPT.pdb
     RDKit          3D

 26 27  0  0  1  0  0  0  0  0999 V2000
   22.6606  -20.3794  -16.9161 N   0  0  0  0  0  0  0  0  0  0  0  0
   23.6596  -19.5781  -16.2549 C   0  0  1  0  0  0  0  0  0  0  0  0
   23.0721  -18.2463  -15.8893 C   0  0  0  0  0  0  0  0  0  0  0  0
   22.9409  -17.4194  -17.1087 C   0  0  0  0  0  0  0  0  0  0  0  0
   21.6958  -17.1273  -17.6150 C   0  0  0  0  0  0  0  0  0  0  0  0
   21.5180  -16.3623  -18.7594 C   0  0  0  0  0  0  0  0  0  0  0  0
   22.6438  -15.8959  -19.3843 C   0  0  0  0  0  0  0  0  0  0  0  0
   23.9087  -16.1609  -18.9173 C   0  0  0  0  0  0  0  0  0  0  0  0
   24.0502  -16.9369  -17.7590 C   0  0  0  0  0  0  0  0  0  0  0  0
   24.3099  -20.2498  -15.1112 C   0  0  0  0  0  0  0  0  0  0  0  0
   23.5791  -21.0560  -14.4413 O   0  0  0  0  0  0  0  0  0  0  0  0
   25.6431  -20.0410  -14.7513 N   0  0  0  0  0  0  0  0  0  0  0  0
   26.5626  -19.0742  -15.3138 C   0  0  0  0  0  0  0  0  0  0  0  0
   27.8396  -19.2122  -14.4685 C   0  0  0  0  0  0  0  0  0  0  0  0
   27.7660  -20.7072  -14.1807 C   0  0  0  0  0  0  0  0  0  0  0  0
   26.3430  -20.7983  -13.7012 C   0  0  1  0  0  0  0  0  0  0  0  0
   26.1345  -20.0437  -12.4398 C   0  0  0  0  0  0  0  0  0  0  0  0
   26.1291  -18.7871  -12.3747 O   0  0  0  0  0  0  0  0  0  0  0  0
   23.2488  -19.8787  -10.5194 C   0  0  0  0  0  0  0  0  0  0  0  0
   24.2552  -20.4353   -9.5405 C   0  0  1  0  0  0  0  0  0  0  0  0
   24.2162  -21.8084   -9.4440 O   0  0  0  0  0  0  0  0  0  0  0  0
   25.6855  -20.0649   -9.9528 C   0  0  2  0  0  0  0  0  0  0  0  0
   25.9251  -20.7452  -11.2109 N   0  0  0  0  0  0  0  0  0  0  0  0
   26.6392  -20.5955   -8.9506 C   0  0  0  0  0  0  0  0  0  0  0  0
   26.7375  -20.0629   -7.6910 O   0  0  0  0  0  0  0  0  0  0  0  0
   27.3936  -21.5631   -9.2370 O   0  0  0  0  0  0  0  0  0  0  0  0
  2 10  1  0
  2  1  1  1
  3  2  1  0
  4  9  1  0
  4  3  1  0
  5  4  2  0
  6  7  2  0
  6  5  1  0
  7  8  1  0
  8  9  2  0
 10 12  1  0
 11 10  2  0
 12 16  1  0
 12 13  1  0
 14 13  1  0
 15 14  1  0
 15 16  1  0
 16 17  1  1
 17 18  2  0
 20 19  1  6
 20 22  1  0
 21 20  1  0
 22 23  1  6
 23 17  1  0
 24 22  1  0
 25 24  1  0
 26 24  2  0
M  END
$$$$
