FPT.pdb
     RDKit          3D

 26 27  0  0  1  0  0  0  0  0999 V2000
   20.1976  -20.7441  -12.8409 N   0  0  0  0  0  0  0  0  0  0  0  0
   21.1944  -21.4451  -13.6105 C   0  0  1  0  0  0  0  0  0  0  0  0
   20.7207  -21.5934  -15.0269 C   0  0  0  0  0  0  0  0  0  0  0  0
   19.7290  -22.6886  -15.0978 C   0  0  0  0  0  0  0  0  0  0  0  0
   18.3834  -22.4037  -15.0939 C   0  0  0  0  0  0  0  0  0  0  0  0
   17.4124  -23.3939  -15.1515 C   0  0  0  0  0  0  0  0  0  0  0  0
   17.8427  -24.6926  -15.2138 C   0  0  0  0  0  0  0  0  0  0  0  0
   19.1754  -25.0274  -15.2201 C   0  0  0  0  0  0  0  0  0  0  0  0
   20.1280  -24.0013  -15.1607 C   0  0  0  0  0  0  0  0  0  0  0  0
   22.5476  -20.8600  -13.5182 C   0  0  0  0  0  0  0  0  0  0  0  0
   22.6040  -19.6020  -13.3015 O   0  0  0  0  0  0  0  0  0  0  0  0
   23.7205  -21.6057  -13.6551 N   0  0  0  0  0  0  0  0  0  0  0  0
   23.8323  -23.0206  -13.9416 C   0  0  0  0  0  0  0  0  0  0  0  0
   25.3421  -23.2708  -14.0901 C   0  0  0  0  0  0  0  0  0  0  0  0
   25.8463  -22.2530  -13.0738 C   0  0  0  0  0  0  0  0  0  0  0  0
   25.0751  -21.0441  -13.5288 C   0  0  1  0  0  0  0  0  0  0  0  0
   25.4728  -20.6152  -14.8934 C   0  0  0  0  0  0  0  0  0  0  0  0
   25.1313  -21.2240  -15.9402 O   0  0  0  0  0  0  0  0  0  0  0  0
   24.6781  -17.3674  -16.3911 C   0  0  0  0  0  0  0  0  0  0  0  0
   26.1849  -17.4688  -16.3850 C   0  0  1  0  0  0  0  0  0  0  0  0
   26.7644  -16.8735  -15.2869 O   0  0  0  0  0  0  0  0  0  0  0  0
   26.6370  -18.9346  -16.3792 C   0  0  2  0  0  0  0  0  0  0  0  0
   26.2874  -19.4529  -15.0706 N   0  0  0  0  0  0  0  0  0  0  0  0
   28.1104  -18.9955  -16.5229 C   0  0  0  0  0  0  0  0  0  0  0  0
   28.7347  -18.7145  -17.7107 O   0  0  0  0  0  0  0  0  0  0  0  0
   28.8349  -19.3117  -15.5418 O   0  0  0  0  0  0  0  0  0  0  0  0
  2 10  1  0
  2  1  1  1
  3  2  1  0
  4  9  1  0
  4  3  1  0
  5  4  2  0
  6  7  2  0
  6  5  1  0
  7  8  1  0
  8  9  2  0
 10 12  1  0
 11 10  2  0
 12 16  1  0
 12 13  1  0
 14 13  1  0
 15 14  1  0
 15 16  1  0
 16 17  1  6
 17 18  2  0
 20 19  1  1
 20 22  1  0
 21 20  1  0
 22 23  1  1
 23 17  1  0
 24 22  1  0
 25 24  1  0
 26 24  2  0
M  END
$$$$
