FPT.pdb
     RDKit          3D

 26 27  0  0  1  0  0  0  0  0999 V2000
   24.3999  -21.9954  -16.2472 N   0  0  0  0  0  0  0  0  0  0  0  0
   24.7807  -20.8804  -15.4171 C   0  0  1  0  0  0  0  0  0  0  0  0
   23.5600  -20.0855  -15.0554 C   0  0  0  0  0  0  0  0  0  0  0  0
   23.2548  -19.1357  -16.1475 C   0  0  0  0  0  0  0  0  0  0  0  0
   23.6336  -17.8175  -16.0429 C   0  0  0  0  0  0  0  0  0  0  0  0
   23.3655  -16.8848  -17.0352 C   0  0  0  0  0  0  0  0  0  0  0  0
   22.6976  -17.3248  -18.1469 C   0  0  0  0  0  0  0  0  0  0  0  0
   22.2986  -18.6310  -18.2974 C   0  0  0  0  0  0  0  0  0  0  0  0
   22.5862  -19.5453  -17.2751 C   0  0  0  0  0  0  0  0  0  0  0  0
   25.5891  -21.2552  -14.2391 C   0  0  0  0  0  0  0  0  0  0  0  0
   25.1634  -22.2479  -13.5562 O   0  0  0  0  0  0  0  0  0  0  0  0
   26.7559  -20.5873  -13.8610 N   0  0  0  0  0  0  0  0  0  0  0  0
   27.3830  -19.4682  -14.5324 C   0  0  0  0  0  0  0  0  0  0  0  0
   28.5583  -19.0755  -13.6221 C   0  0  0  0  0  0  0  0  0  0  0  0
   28.9193  -20.4611  -13.0998 C   0  0  0  0  0  0  0  0  0  0  0  0
   27.5549  -20.9294  -12.6732 C   0  0  1  0  0  0  0  0  0  0  0  0
   27.0114  -20.1104  -11.5605 C   0  0  0  0  0  0  0  0  0  0  0  0
   26.6210  -18.9223  -11.6987 O   0  0  0  0  0  0  0  0  0  0  0  0
   25.4329  -22.3442   -8.5651 C   0  0  0  0  0  0  0  0  0  0  0  0
   24.9679  -20.9456   -8.8944 C   0  0  1  0  0  0  0  0  0  0  0  0
   24.2526  -20.3575   -7.8753 O   0  0  0  0  0  0  0  0  0  0  0  0
   26.1597  -20.0239   -9.1826 C   0  0  2  0  0  0  0  0  0  0  0  0
   26.9095  -20.6648  -10.2458 N   0  0  0  0  0  0  0  0  0  0  0  0
   27.0267  -19.9514   -7.9833 C   0  0  0  0  0  0  0  0  0  0  0  0
   28.2612  -20.5467   -7.9447 O   0  0  0  0  0  0  0  0  0  0  0  0
   26.6439  -19.3316   -6.9553 O   0  0  0  0  0  0  0  0  0  0  0  0
  2 10  1  0
  2  1  1  1
  3  2  1  0
  4  9  1  0
  4  3  1  0
  5  4  2  0
  6  7  2  0
  6  5  1  0
  7  8  1  0
  8  9  2  0
 10 12  1  0
 11 10  2  0
 12 16  1  0
 12 13  1  0
 14 13  1  0
 15 14  1  0
 15 16  1  0
 16 17  1  1
 17 18  2  0
 20 19  1  1
 20 22  1  0
 21 20  1  0
 22 23  1  6
 23 17  1  0
 24 22  1  0
 25 24  1  0
 26 24  2  0
M  END
$$$$
