FPT.pdb
     RDKit          3D

 26 27  0  0  1  0  0  0  0  0999 V2000
   27.6485  -18.2533  -16.1633 N   0  0  0  0  0  0  0  0  0  0  0  0
   26.8447  -19.1454  -15.3663 C   0  0  1  0  0  0  0  0  0  0  0  0
   26.4957  -18.4795  -14.0672 C   0  0  0  0  0  0  0  0  0  0  0  0
   26.2428  -19.5143  -13.0409 C   0  0  0  0  0  0  0  0  0  0  0  0
   25.5488  -20.6561  -13.3671 C   0  0  0  0  0  0  0  0  0  0  0  0
   25.2789  -21.6537  -12.4405 C   0  0  0  0  0  0  0  0  0  0  0  0
   25.7340  -21.4641  -11.1629 C   0  0  0  0  0  0  0  0  0  0  0  0
   26.4314  -20.3408  -10.7887 C   0  0  0  0  0  0  0  0  0  0  0  0
   26.6856  -19.3540  -11.7507 C   0  0  0  0  0  0  0  0  0  0  0  0
   25.6618  -19.6812  -16.0704 C   0  0  0  0  0  0  0  0  0  0  0  0
   24.9187  -18.8231  -16.6572 O   0  0  0  0  0  0  0  0  0  0  0  0
   25.3406  -21.0397  -16.1137 N   0  0  0  0  0  0  0  0  0  0  0  0
   26.0707  -22.1336  -15.5080 C   0  0  0  0  0  0  0  0  0  0  0  0
   25.2076  -23.3768  -15.7796 C   0  0  0  0  0  0  0  0  0  0  0  0
   24.6427  -22.9741  -17.1368 C   0  0  0  0  0  0  0  0  0  0  0  0
   24.1624  -21.5877  -16.8048 C   0  0  1  0  0  0  0  0  0  0  0  0
   23.0677  -21.6064  -15.8023 C   0  0  0  0  0  0  0  0  0  0  0  0
   23.1033  -22.2911  -14.7472 O   0  0  0  0  0  0  0  0  0  0  0  0
   20.0532  -18.7594  -16.3732 C   0  0  0  0  0  0  0  0  0  0  0  0
   20.4048  -19.2598  -14.9923 C   0  0  1  0  0  0  0  0  0  0  0  0
   19.3592  -19.1715  -14.1006 O   0  0  0  0  0  0  0  0  0  0  0  0
   20.8237  -20.7349  -15.0325 C   0  0  2  0  0  0  0  0  0  0  0  0
   21.8923  -20.8178  -16.0094 N   0  0  0  0  0  0  0  0  0  0  0  0
   19.6890  -21.5554  -15.5167 C   0  0  0  0  0  0  0  0  0  0  0  0
   18.6288  -21.8748  -14.7081 O   0  0  0  0  0  0  0  0  0  0  0  0
   19.6717  -21.9854  -16.7009 O   0  0  0  0  0  0  0  0  0  0  0  0
  2 10  1  0
  2  1  1  6
  3  2  1  0
  4  9  1  0
  4  3  1  0
  5  4  2  0
  6  7  2  0
  6  5  1  0
  7  8  1  0
  8  9  2  0
 10 12  1  0
 11 10  2  0
 12 16  1  0
 12 13  1  0
 14 13  1  0
 15 14  1  0
 15 16  1  0
 16 17  1  1
 17 18  2  0
 20 19  1  6
 20 22  1  0
 21 20  1  0
 22 23  1  6
 23 17  1  0
 24 22  1  0
 25 24  1  0
 26 24  2  0
M  END
$$$$
