FPT.pdb
     RDKit          3D

 26 27  0  0  1  0  0  0  0  0999 V2000
   28.9234  -21.8427  -18.8801 N   0  0  0  0  0  0  0  0  0  0  0  0
   28.0701  -20.8279  -18.3149 C   0  0  1  0  0  0  0  0  0  0  0  0
   26.7971  -20.7465  -19.1058 C   0  0  0  0  0  0  0  0  0  0  0  0
   26.7703  -19.4730  -19.8577 C   0  0  0  0  0  0  0  0  0  0  0  0
   26.8166  -19.4810  -21.2323 C   0  0  0  0  0  0  0  0  0  0  0  0
   26.8012  -18.3147  -21.9846 C   0  0  0  0  0  0  0  0  0  0  0  0
   26.7372  -17.1284  -21.3032 C   0  0  0  0  0  0  0  0  0  0  0  0
   26.6893  -17.0690  -19.9312 C   0  0  0  0  0  0  0  0  0  0  0  0
   26.7067  -18.2667  -19.2040 C   0  0  0  0  0  0  0  0  0  0  0  0
   27.8339  -20.9793  -16.8646 C   0  0  0  0  0  0  0  0  0  0  0  0
   27.9273  -22.1657  -16.3992 O   0  0  0  0  0  0  0  0  0  0  0  0
   27.5235  -19.9121  -16.0189 N   0  0  0  0  0  0  0  0  0  0  0  0
   27.2933  -18.5329  -16.3949 C   0  0  0  0  0  0  0  0  0  0  0  0
   26.8851  -17.8347  -15.0873 C   0  0  0  0  0  0  0  0  0  0  0  0
   27.7398  -18.6420  -14.1174 C   0  0  0  0  0  0  0  0  0  0  0  0
   27.3723  -20.0321  -14.5598 C   0  0  1  0  0  0  0  0  0  0  0  0
   25.9383  -20.3294  -14.3167 C   0  0  0  0  0  0  0  0  0  0  0  0
   25.0076  -19.9129  -15.0539 O   0  0  0  0  0  0  0  0  0  0  0  0
   24.9199  -23.9169  -13.2436 C   0  0  0  0  0  0  0  0  0  0  0  0
   24.2594  -22.9258  -12.3149 C   0  0  1  0  0  0  0  0  0  0  0  0
   24.9305  -22.7685  -11.1229 O   0  0  0  0  0  0  0  0  0  0  0  0
   24.1802  -21.5365  -12.9604 C   0  0  2  0  0  0  0  0  0  0  0  0
   25.5520  -21.1287  -13.1950 N   0  0  0  0  0  0  0  0  0  0  0  0
   23.5711  -20.5835  -12.0033 C   0  0  0  0  0  0  0  0  0  0  0  0
   22.2258  -20.5825  -11.7388 O   0  0  0  0  0  0  0  0  0  0  0  0
   24.2862  -19.7389  -11.4010 O   0  0  0  0  0  0  0  0  0  0  0  0
  2 10  1  0
  2  1  1  6
  3  2  1  0
  4  9  1  0
  4  3  1  0
  5  4  2  0
  6  7  2  0
  6  5  1  0
  7  8  1  0
  8  9  2  0
 10 12  1  0
 11 10  2  0
 12 16  1  0
 12 13  1  0
 14 13  1  0
 15 14  1  0
 15 16  1  0
 16 17  1  6
 17 18  2  0
 20 19  1  6
 20 22  1  0
 21 20  1  0
 22 23  1  1
 23 17  1  0
 24 22  1  0
 25 24  1  0
 26 24  2  0
M  END
$$$$
