FPT.pdb
     RDKit          3D

 26 27  0  0  1  0  0  0  0  0999 V2000
   22.9937  -21.2208  -14.7366 N   0  0  0  0  0  0  0  0  0  0  0  0
   21.9178  -20.6868  -13.9400 C   0  0  1  0  0  0  0  0  0  0  0  0
   20.7636  -20.3312  -14.8311 C   0  0  0  0  0  0  0  0  0  0  0  0
   21.1665  -19.2337  -15.7372 C   0  0  0  0  0  0  0  0  0  0  0  0
   21.1305  -19.4143  -17.1002 C   0  0  0  0  0  0  0  0  0  0  0  0
   21.5045  -18.4198  -17.9933 C   0  0  0  0  0  0  0  0  0  0  0  0
   21.9201  -17.2261  -17.4662 C   0  0  0  0  0  0  0  0  0  0  0  0
   21.9735  -16.9977  -16.1122 C   0  0  0  0  0  0  0  0  0  0  0  0
   21.5883  -18.0248  -15.2401 C   0  0  0  0  0  0  0  0  0  0  0  0
   21.5220  -21.5487  -12.8077 C   0  0  0  0  0  0  0  0  0  0  0  0
   21.5848  -22.8089  -13.0098 O   0  0  0  0  0  0  0  0  0  0  0  0
   21.0975  -21.0525  -11.5731 N   0  0  0  0  0  0  0  0  0  0  0  0
   20.8047  -19.6754  -11.2348 C   0  0  0  0  0  0  0  0  0  0  0  0
   20.2788  -19.7314   -9.7910 C   0  0  0  0  0  0  0  0  0  0  0  0
   21.1240  -20.8931   -9.2819 C   0  0  0  0  0  0  0  0  0  0  0  0
   20.8695  -21.8868  -10.3823 C   0  0  1  0  0  0  0  0  0  0  0  0
   19.4449  -22.3012  -10.4354 C   0  0  0  0  0  0  0  0  0  0  0  0
   18.5279  -21.5778  -10.9033 O   0  0  0  0  0  0  0  0  0  0  0  0
   18.6311  -26.0703  -11.4274 C   0  0  0  0  0  0  0  0  0  0  0  0
   17.8885  -25.6479  -10.1821 C   0  0  1  0  0  0  0  0  0  0  0  0
   18.5291  -26.0114   -9.0186 O   0  0  0  0  0  0  0  0  0  0  0  0
   17.7206  -24.1240  -10.1328 C   0  0  2  0  0  0  0  0  0  0  0  0
   19.0523  -23.5837   -9.9383 N   0  0  0  0  0  0  0  0  0  0  0  0
   16.8961  -23.7578   -8.9575 C   0  0  0  0  0  0  0  0  0  0  0  0
   15.5371  -23.9379   -8.9414 O   0  0  0  0  0  0  0  0  0  0  0  0
   17.4330  -23.2647   -7.9298 O   0  0  0  0  0  0  0  0  0  0  0  0
  2 10  1  0
  2  1  1  6
  3  2  1  0
  4  9  1  0
  4  3  1  0
  5  4  2  0
  6  7  2  0
  6  5  1  0
  7  8  1  0
  8  9  2  0
 10 12  1  0
 11 10  2  0
 12 16  1  0
 12 13  1  0
 14 13  1  0
 15 14  1  0
 15 16  1  0
 16 17  1  6
 17 18  2  0
 20 19  1  6
 20 22  1  0
 21 20  1  0
 22 23  1  1
 23 17  1  0
 24 22  1  0
 25 24  1  0
 26 24  2  0
M  END
$$$$
