FPT.pdb
     RDKit          3D

 26 27  0  0  1  0  0  0  0  0999 V2000
   28.4356  -20.5142   -9.2742 N   0  0  0  0  0  0  0  0  0  0  0  0
   26.9957  -20.5723   -9.2979 C   0  0  1  0  0  0  0  0  0  0  0  0
   26.4405  -19.6728   -8.2324 C   0  0  0  0  0  0  0  0  0  0  0  0
   27.1965  -19.8781   -6.9778 C   0  0  0  0  0  0  0  0  0  0  0  0
   28.2226  -19.0260   -6.6419 C   0  0  0  0  0  0  0  0  0  0  0  0
   28.9673  -19.1785   -5.4806 C   0  0  0  0  0  0  0  0  0  0  0  0
   28.6436  -20.2259   -4.6598 C   0  0  0  0  0  0  0  0  0  0  0  0
   27.6275  -21.1037   -4.9520 C   0  0  0  0  0  0  0  0  0  0  0  0
   26.8967  -20.9191   -6.1335 C   0  0  0  0  0  0  0  0  0  0  0  0
   26.4048  -20.3168  -10.6274 C   0  0  0  0  0  0  0  0  0  0  0  0
   26.5126  -19.1238  -11.0722 O   0  0  0  0  0  0  0  0  0  0  0  0
   25.7572  -21.2961  -11.3839 N   0  0  0  0  0  0  0  0  0  0  0  0
   25.4734  -22.6612  -10.9937 C   0  0  0  0  0  0  0  0  0  0  0  0
   24.6536  -23.2381  -12.1595 C   0  0  0  0  0  0  0  0  0  0  0  0
   25.3099  -22.4749  -13.3039 C   0  0  0  0  0  0  0  0  0  0  0  0
   25.2401  -21.0800  -12.7449 C   0  0  1  0  0  0  0  0  0  0  0  0
   23.8385  -20.6173  -12.5850 C   0  0  0  0  0  0  0  0  0  0  0  0
   23.1809  -20.7479  -11.5203 O   0  0  0  0  0  0  0  0  0  0  0  0
   22.6022  -17.0825  -14.2525 C   0  0  0  0  0  0  0  0  0  0  0  0
   21.7818  -18.2936  -14.6282 C   0  0  1  0  0  0  0  0  0  0  0  0
   22.1978  -18.8894  -15.7978 O   0  0  0  0  0  0  0  0  0  0  0  0
   21.8579  -19.3688  -13.5368 C   0  0  2  0  0  0  0  0  0  0  0  0
   23.1637  -19.9843  -13.6759 N   0  0  0  0  0  0  0  0  0  0  0  0
   20.8287  -20.4034  -13.7931 C   0  0  0  0  0  0  0  0  0  0  0  0
   19.5174  -20.2255  -13.4344 O   0  0  0  0  0  0  0  0  0  0  0  0
   21.1394  -21.4874  -14.3551 O   0  0  0  0  0  0  0  0  0  0  0  0
  2 10  1  0
  2  1  1  6
  3  2  1  0
  4  9  1  0
  4  3  1  0
  5  4  2  0
  6  7  2  0
  6  5  1  0
  7  8  1  0
  8  9  2  0
 10 12  1  0
 11 10  2  0
 12 16  1  0
 12 13  1  0
 14 13  1  0
 15 14  1  0
 15 16  1  0
 16 17  1  1
 17 18  2  0
 20 19  1  1
 20 22  1  0
 21 20  1  0
 22 23  1  6
 23 17  1  0
 24 22  1  0
 25 24  1  0
 26 24  2  0
M  END
$$$$
