FTS.pdb
     RDKit          3D

 25 25  0  0  1  0  0  0  0  0999 V2000
   25.8947  -12.4610  -17.0930 N   0  0  0  0  0  0  0  0  0  0  0  0
   24.5703  -11.8808  -16.8932 C   0  0  1  0  0  0  0  0  0  0  0  0
   23.9799  -12.3962  -15.6086 C   0  0  0  0  0  0  0  0  0  0  0  0
   23.6724  -13.8230  -15.6268 C   0  0  0  0  0  0  0  0  0  0  0  0
   24.3506  -14.6795  -14.7938 C   0  0  0  0  0  0  0  0  0  0  0  0
   24.1139  -16.0445  -14.7549 C   0  0  0  0  0  0  0  0  0  0  0  0
   23.1435  -16.5364  -15.6067 C   0  0  0  0  0  0  0  0  0  0  0  0
   22.4492  -15.6971  -16.4521 C   0  0  0  0  0  0  0  0  0  0  0  0
   22.7141  -14.3460  -16.4607 C   0  0  0  0  0  0  0  0  0  0  0  0
   24.6768  -10.3880  -16.7523 C   0  0  0  0  0  0  0  0  0  0  0  0
   25.6343   -9.8401  -16.1472 O   0  0  0  0  0  0  0  0  0  0  0  0
   24.6699   -8.2590  -19.5804 C   0  0  0  0  0  0  0  0  0  0  0  0
   23.5773   -7.6654  -18.7286 C   0  0  1  0  0  0  0  0  0  0  0  0
   22.3131   -7.9579  -19.1902 O   0  0  0  0  0  0  0  0  0  0  0  0
   23.8020   -8.1221  -17.3026 C   0  0  2  0  0  0  0  0  0  0  0  0
   23.6654   -9.5840  -17.3206 N   0  0  0  0  0  0  0  0  0  0  0  0
   22.7996   -7.5423  -16.3769 C   0  0  0  0  0  0  0  0  0  0  0  0
   22.1484   -8.3065  -15.6249 O   0  0  0  0  0  0  0  0  0  0  0  0
   21.8340   -5.1152  -12.9298 O   0  0  0  0  0  0  0  0  0  0  0  0
   22.5383   -5.7061  -13.9581 C   0  0  0  0  0  0  0  0  0  0  0  0
   21.7708   -5.5368  -15.2744 C   0  0  2  0  0  0  0  0  0  0  0  0
   22.5602   -6.1452  -16.3219 N   0  0  0  0  0  0  0  0  0  0  0  0
   21.6438   -4.0811  -15.5043 C   0  0  0  0  0  0  0  0  0  0  0  0
   22.5598   -3.4742  -16.1083 O   0  0  0  0  0  0  0  0  0  0  0  0
   20.5416   -3.3770  -15.0697 O   0  0  0  0  0  0  0  0  0  0  0  0
  2 10  1  0
  2  1  1  1
  3  2  1  0
  4  3  1  0
  5  4  2  0
  6  5  1  0
  7  6  2  0
  7  8  1  0
  8  9  2  0
  9  4  1  0
 10 11  2  0
 13 12  1  6
 13 14  1  0
 15 13  1  0
 15 16  1  6
 16 10  1  0
 17 22  1  0
 17 15  1  0
 18 17  2  0
 20 19  1  0
 21 20  1  1
 21 22  1  0
 23 25  1  0
 23 21  1  0
 24 23  2  0
M  END
$$$$
