FTS.pdb
     RDKit          3D

 25 25  0  0  1  0  0  0  0  0999 V2000
   24.2743  -12.2785  -18.7750 N   0  0  0  0  0  0  0  0  0  0  0  0
   22.9999  -11.5668  -18.7838 C   0  0  1  0  0  0  0  0  0  0  0  0
   21.8692  -12.5506  -18.6490 C   0  0  0  0  0  0  0  0  0  0  0  0
   21.7652  -13.4916  -19.7599 C   0  0  0  0  0  0  0  0  0  0  0  0
   21.1739  -13.0987  -20.9361 C   0  0  0  0  0  0  0  0  0  0  0  0
   21.0393  -13.9350  -22.0329 C   0  0  0  0  0  0  0  0  0  0  0  0
   21.5334  -15.2191  -21.9058 C   0  0  0  0  0  0  0  0  0  0  0  0
   22.1310  -15.6372  -20.7358 C   0  0  0  0  0  0  0  0  0  0  0  0
   22.2456  -14.7754  -19.6680 C   0  0  0  0  0  0  0  0  0  0  0  0
   22.9153  -10.6451  -17.5994 C   0  0  0  0  0  0  0  0  0  0  0  0
   23.8293  -10.5787  -16.7373 O   0  0  0  0  0  0  0  0  0  0  0  0
   22.6024   -7.2943  -17.9482 C   0  0  0  0  0  0  0  0  0  0  0  0
   22.7838   -7.8706  -16.5674 C   0  0  1  0  0  0  0  0  0  0  0  0
   22.8350   -6.9087  -15.5829 O   0  0  0  0  0  0  0  0  0  0  0  0
   21.6828   -8.8849  -16.3405 C   0  0  2  0  0  0  0  0  0  0  0  0
   21.7700   -9.8323  -17.4589 N   0  0  0  0  0  0  0  0  0  0  0  0
   20.3439   -8.2483  -16.3336 C   0  0  0  0  0  0  0  0  0  0  0  0
   19.8868   -7.7754  -17.4019 O   0  0  0  0  0  0  0  0  0  0  0  0
   18.2533   -8.3539  -12.8721 O   0  0  0  0  0  0  0  0  0  0  0  0
   17.4613   -8.3061  -14.0005 C   0  0  0  0  0  0  0  0  0  0  0  0
   18.2267   -7.6242  -15.1405 C   0  0  2  0  0  0  0  0  0  0  0  0
   19.5688   -8.1618  -15.1487 N   0  0  0  0  0  0  0  0  0  0  0  0
   18.2522   -6.1790  -14.8262 C   0  0  0  0  0  0  0  0  0  0  0  0
   19.3470   -5.6299  -14.5577 O   0  0  0  0  0  0  0  0  0  0  0  0
   17.1001   -5.4227  -14.8218 O   0  0  0  0  0  0  0  0  0  0  0  0
  2 10  1  0
  2  1  1  1
  3  2  1  0
  4  3  1  0
  5  4  2  0
  6  5  1  0
  7  6  2  0
  7  8  1  0
  8  9  2  0
  9  4  1  0
 10 11  2  0
 13 12  1  6
 13 14  1  0
 15 13  1  0
 15 16  1  6
 16 10  1  0
 17 22  1  0
 17 15  1  0
 18 17  2  0
 20 19  1  0
 21 20  1  1
 21 22  1  0
 23 25  1  0
 23 21  1  0
 24 23  2  0
M  END
$$$$
