FTS.pdb
     RDKit          3D

 25 25  0  0  1  0  0  0  0  0999 V2000
   25.4220  -20.7026   -7.8661 N   0  0  0  0  0  0  0  0  0  0  0  0
   26.5505  -20.0766   -8.5483 C   0  0  1  0  0  0  0  0  0  0  0  0
   27.8378  -20.6849   -8.0611 C   0  0  0  0  0  0  0  0  0  0  0  0
   28.1903  -20.3132   -6.6944 C   0  0  0  0  0  0  0  0  0  0  0  0
   28.1990  -18.9896   -6.3261 C   0  0  0  0  0  0  0  0  0  0  0  0
   28.5226  -18.5608   -5.0486 C   0  0  0  0  0  0  0  0  0  0  0  0
   28.8472  -19.5350   -4.1242 C   0  0  0  0  0  0  0  0  0  0  0  0
   28.8457  -20.8699   -4.4695 C   0  0  0  0  0  0  0  0  0  0  0  0
   28.5182  -21.2555   -5.7501 C   0  0  0  0  0  0  0  0  0  0  0  0
   26.4753  -20.3473  -10.0250 C   0  0  0  0  0  0  0  0  0  0  0  0
   27.2985  -21.0977  -10.6099 O   0  0  0  0  0  0  0  0  0  0  0  0
   26.6658  -22.0066  -11.8761 C   0  0  0  0  0  0  0  0  0  0  0  0
   25.3461  -21.4843  -12.3835 C   0  0  1  0  0  0  0  0  0  0  0  0
   24.2610  -22.0874  -11.7870 O   0  0  0  0  0  0  0  0  0  0  0  0
   25.3478  -19.9796  -12.2149 C   0  0  2  0  0  0  0  0  0  0  0  0
   25.4447  -19.7352  -10.7703 N   0  0  0  0  0  0  0  0  0  0  0  0
   24.1030  -19.3680  -12.7385 C   0  0  0  0  0  0  0  0  0  0  0  0
   23.1104  -19.2573  -11.9793 O   0  0  0  0  0  0  0  0  0  0  0  0
   21.9420  -17.3641  -16.6158 O   0  0  0  0  0  0  0  0  0  0  0  0
   23.0789  -17.9108  -16.0580 C   0  0  0  0  0  0  0  0  0  0  0  0
   22.7938  -18.3322  -14.6118 C   0  0  2  0  0  0  0  0  0  0  0  0
   24.0083  -18.9057  -14.0763 N   0  0  0  0  0  0  0  0  0  0  0  0
   21.7252  -19.3531  -14.6729 C   0  0  0  0  0  0  0  0  0  0  0  0
   22.0223  -20.5335  -14.9737 O   0  0  0  0  0  0  0  0  0  0  0  0
   20.4106  -19.0361  -14.4066 O   0  0  0  0  0  0  0  0  0  0  0  0
  2 10  1  0
  2  1  1  1
  3  2  1  0
  4  3  1  0
  5  4  2  0
  6  5  1  0
  7  6  2  0
  7  8  1  0
  8  9  2  0
  9  4  1  0
 10 11  2  0
 13 12  1  1
 13 14  1  0
 15 13  1  0
 15 16  1  1
 16 10  1  0
 17 22  1  0
 17 15  1  0
 18 17  2  0
 20 19  1  0
 21 20  1  6
 21 22  1  0
 23 25  1  0
 23 21  1  0
 24 23  2  0
M  END
$$$$
