FTS.pdb
     RDKit          3D

 25 25  0  0  1  0  0  0  0  0999 V2000
   29.6761  -27.5895  -17.0763 N   0  0  0  0  0  0  0  0  0  0  0  0
   28.3927  -28.1254  -16.6331 C   0  0  1  0  0  0  0  0  0  0  0  0
   27.2804  -27.5041  -17.4338 C   0  0  0  0  0  0  0  0  0  0  0  0
   27.0621  -26.0893  -17.1486 C   0  0  0  0  0  0  0  0  0  0  0  0
   26.1469  -25.7173  -16.1939 C   0  0  0  0  0  0  0  0  0  0  0  0
   25.8859  -24.3957  -15.8687 C   0  0  0  0  0  0  0  0  0  0  0  0
   26.5964  -23.4297  -16.5552 C   0  0  0  0  0  0  0  0  0  0  0  0
   27.5202  -23.7777  -17.5177 C   0  0  0  0  0  0  0  0  0  0  0  0
   27.7508  -25.1029  -17.8118 C   0  0  0  0  0  0  0  0  0  0  0  0
   28.3356  -29.6057  -16.8887 C   0  0  0  0  0  0  0  0  0  0  0  0
   29.2253  -30.2055  -17.5457 O   0  0  0  0  0  0  0  0  0  0  0  0
   28.1605  -33.8390  -15.6327 C   0  0  0  0  0  0  0  0  0  0  0  0
   28.3606  -32.3507  -15.7620 C   0  0  1  0  0  0  0  0  0  0  0  0
   29.5814  -32.0147  -16.3040 O   0  0  0  0  0  0  0  0  0  0  0  0
   27.1945  -31.7933  -16.5507 C   0  0  2  0  0  0  0  0  0  0  0  0
   27.2449  -30.3369  -16.3710 N   0  0  0  0  0  0  0  0  0  0  0  0
   25.8979  -32.3096  -16.0507 C   0  0  0  0  0  0  0  0  0  0  0  0
   25.6982  -32.3644  -14.8134 O   0  0  0  0  0  0  0  0  0  0  0  0
   22.5659  -32.2309  -18.4139 O   0  0  0  0  0  0  0  0  0  0  0  0
   22.6995  -33.4069  -17.7054 C   0  0  0  0  0  0  0  0  0  0  0  0
   23.5788  -33.1701  -16.4720 C   0  0  2  0  0  0  0  0  0  0  0  0
   24.8790  -32.7425  -16.9378 N   0  0  0  0  0  0  0  0  0  0  0  0
   23.6835  -34.4694  -15.7729 C   0  0  0  0  0  0  0  0  0  0  0  0
   24.4416  -35.3545  -16.2355 O   0  0  0  0  0  0  0  0  0  0  0  0
   22.9666  -34.7290  -14.6247 O   0  0  0  0  0  0  0  0  0  0  0  0
  2 10  1  0
  2  1  1  6
  3  2  1  0
  4  3  1  0
  5  4  2  0
  6  5  1  0
  7  6  2  0
  7  8  1  0
  8  9  2  0
  9  4  1  0
 10 11  2  0
 13 12  1  6
 13 14  1  0
 15 13  1  0
 15 16  1  1
 16 10  1  0
 17 22  1  0
 17 15  1  0
 18 17  2  0
 20 19  1  0
 21 20  1  6
 21 22  1  0
 23 25  1  0
 23 21  1  0
 24 23  2  0
M  END
$$$$
