FTS.pdb
     RDKit          3D

 25 25  0  0  1  0  0  0  0  0999 V2000
   23.3295  -20.3371  -14.3157 N   0  0  0  0  0  0  0  0  0  0  0  0
   22.2728  -20.0162  -13.3612 C   0  0  1  0  0  0  0  0  0  0  0  0
   20.9399  -20.0233  -14.0596 C   0  0  0  0  0  0  0  0  0  0  0  0
   20.7973  -18.9870  -15.0775 C   0  0  0  0  0  0  0  0  0  0  0  0
   20.4920  -17.7002  -14.7055 C   0  0  0  0  0  0  0  0  0  0  0  0
   20.3411  -16.6645  -15.6139 C   0  0  0  0  0  0  0  0  0  0  0  0
   20.5123  -16.9730  -16.9498 C   0  0  0  0  0  0  0  0  0  0  0  0
   20.8191  -18.2568  -17.3482 C   0  0  0  0  0  0  0  0  0  0  0  0
   20.9606  -19.2586  -16.4142 C   0  0  0  0  0  0  0  0  0  0  0  0
   22.2065  -21.0698  -12.2911 C   0  0  0  0  0  0  0  0  0  0  0  0
   22.4910  -22.2739  -12.5199 O   0  0  0  0  0  0  0  0  0  0  0  0
   22.9003  -19.8072   -8.7072 C   0  0  0  0  0  0  0  0  0  0  0  0
   23.0371  -21.2719   -9.0356 C   0  0  1  0  0  0  0  0  0  0  0  0
   23.1703  -22.0660   -7.9183 O   0  0  0  0  0  0  0  0  0  0  0  0
   21.8567  -21.6653   -9.8984 C   0  0  2  0  0  0  0  0  0  0  0  0
   21.8114  -20.6860  -10.9916 N   0  0  0  0  0  0  0  0  0  0  0  0
   20.5839  -21.6198   -9.1396 C   0  0  0  0  0  0  0  0  0  0  0  0
   19.9868  -20.5238   -9.0129 O   0  0  0  0  0  0  0  0  0  0  0  0
   18.2874  -24.5741   -9.2528 O   0  0  0  0  0  0  0  0  0  0  0  0
   17.7263  -23.4830   -8.6224 C   0  0  0  0  0  0  0  0  0  0  0  0
   18.7948  -22.7569   -7.7970 C   0  0  2  0  0  0  0  0  0  0  0  0
   20.0262  -22.7855   -8.5542 N   0  0  0  0  0  0  0  0  0  0  0  0
   18.9459  -23.5193   -6.5385 C   0  0  0  0  0  0  0  0  0  0  0  0
   20.0378  -24.0842   -6.2920 O   0  0  0  0  0  0  0  0  0  0  0  0
   17.9138  -23.6227   -5.6310 O   0  0  0  0  0  0  0  0  0  0  0  0
  2 10  1  0
  2  1  1  6
  3  2  1  0
  4  3  1  0
  5  4  2  0
  6  5  1  0
  7  6  2  0
  7  8  1  0
  8  9  2  0
  9  4  1  0
 10 11  2  0
 13 12  1  1
 13 14  1  0
 15 13  1  0
 15 16  1  6
 16 10  1  0
 17 22  1  0
 17 15  1  0
 18 17  2  0
 20 19  1  0
 21 20  1  6
 21 22  1  0
 23 25  1  0
 23 21  1  0
 24 23  2  0
M  END
$$$$
