FTS.pdb
     RDKit          3D

 25 25  0  0  1  0  0  0  0  0999 V2000
   25.2523  -20.1614  -16.7477 N   0  0  0  0  0  0  0  0  0  0  0  0
   24.8582  -21.1030  -15.7043 C   0  0  1  0  0  0  0  0  0  0  0  0
   26.0235  -21.3601  -14.7874 C   0  0  0  0  0  0  0  0  0  0  0  0
   27.1501  -22.0279  -15.4319 C   0  0  0  0  0  0  0  0  0  0  0  0
   27.1176  -23.3871  -15.6293 C   0  0  0  0  0  0  0  0  0  0  0  0
   28.1481  -24.0898  -16.2334 C   0  0  0  0  0  0  0  0  0  0  0  0
   29.2466  -23.3600  -16.6454 C   0  0  0  0  0  0  0  0  0  0  0  0
   29.3029  -21.9951  -16.4585 C   0  0  0  0  0  0  0  0  0  0  0  0
   28.2577  -21.3334  -15.8538 C   0  0  0  0  0  0  0  0  0  0  0  0
   23.7654  -20.5098  -14.8597 C   0  0  0  0  0  0  0  0  0  0  0  0
   23.7306  -19.2846  -14.5754 O   0  0  0  0  0  0  0  0  0  0  0  0
   21.8258  -18.8035  -15.1887 C   0  0  0  0  0  0  0  0  0  0  0  0
   20.9004  -19.9557  -14.8926 C   0  0  1  0  0  0  0  0  0  0  0  0
   20.5862  -20.6973  -16.0099 O   0  0  0  0  0  0  0  0  0  0  0  0
   21.5311  -20.7862  -13.7949 C   0  0  2  0  0  0  0  0  0  0  0  0
   22.7506  -21.3627  -14.3750 N   0  0  0  0  0  0  0  0  0  0  0  0
   20.6320  -21.8767  -13.3473 C   0  0  0  0  0  0  0  0  0  0  0  0
   20.7490  -23.0149  -13.8616 O   0  0  0  0  0  0  0  0  0  0  0  0
   18.9117  -21.8340   -9.7207 O   0  0  0  0  0  0  0  0  0  0  0  0
   17.9960  -22.1994  -10.6855 C   0  0  0  0  0  0  0  0  0  0  0  0
   18.7322  -22.7037  -11.9321 C   0  0  2  0  0  0  0  0  0  0  0  0
   19.6439  -21.6631  -12.3522 N   0  0  0  0  0  0  0  0  0  0  0  0
   17.7006  -22.9337  -12.9669 C   0  0  0  0  0  0  0  0  0  0  0  0
   16.9397  -23.9249  -12.8636 O   0  0  0  0  0  0  0  0  0  0  0  0
   17.5570  -22.0832  -14.0419 O   0  0  0  0  0  0  0  0  0  0  0  0
  2 10  1  0
  2  1  1  6
  3  2  1  0
  4  3  1  0
  5  4  2  0
  6  5  1  0
  7  6  2  0
  7  8  1  0
  8  9  2  0
  9  4  1  0
 10 11  2  0
 13 12  1  6
 13 14  1  0
 15 13  1  0
 15 16  1  6
 16 10  1  0
 17 22  1  0
 17 15  1  0
 18 17  2  0
 20 19  1  0
 21 20  1  1
 21 22  1  0
 23 25  1  0
 23 21  1  0
 24 23  2  0
M  END
$$$$
