FTS.pdb
     RDKit          3D

 25 25  0  0  1  0  0  0  0  0999 V2000
   16.6885   -7.7768  -12.1801 N   0  0  0  0  0  0  0  0  0  0  0  0
   17.2430   -7.5385  -13.5092 C   0  0  1  0  0  0  0  0  0  0  0  0
   16.2052   -6.8856  -14.3816 C   0  0  0  0  0  0  0  0  0  0  0  0
   15.0860   -7.7568  -14.7263 C   0  0  0  0  0  0  0  0  0  0  0  0
   13.8421   -7.5149  -14.1954 C   0  0  0  0  0  0  0  0  0  0  0  0
   12.7333   -8.2973  -14.4761 C   0  0  0  0  0  0  0  0  0  0  0  0
   12.9202   -9.3639  -15.3343 C   0  0  0  0  0  0  0  0  0  0  0  0
   14.1587   -9.6273  -15.8800 C   0  0  0  0  0  0  0  0  0  0  0  0
   15.2362   -8.8258  -15.5760 C   0  0  0  0  0  0  0  0  0  0  0  0
   18.3993   -6.5819  -13.4220 C   0  0  0  0  0  0  0  0  0  0  0  0
   18.5057   -5.7450  -12.4886 O   0  0  0  0  0  0  0  0  0  0  0  0
   22.9369   -5.5493  -14.5090 C   0  0  0  0  0  0  0  0  0  0  0  0
   21.7695   -6.4969  -14.4042 C   0  0  1  0  0  0  0  0  0  0  0  0
   21.8584   -7.3462  -13.3236 O   0  0  0  0  0  0  0  0  0  0  0  0
   20.5010   -5.6702  -14.3985 C   0  0  2  0  0  0  0  0  0  0  0  0
   19.3920   -6.6322  -14.4241 N   0  0  0  0  0  0  0  0  0  0  0  0
   20.4175   -4.7862  -15.5858 C   0  0  0  0  0  0  0  0  0  0  0  0
   20.3469   -5.3015  -16.7274 O   0  0  0  0  0  0  0  0  0  0  0  0
   20.0153   -0.2048  -17.1627 O   0  0  0  0  0  0  0  0  0  0  0  0
   20.0472   -1.0851  -16.1013 C   0  0  0  0  0  0  0  0  0  0  0  0
   20.3675   -2.4957  -16.6091 C   0  0  2  0  0  0  0  0  0  0  0  0
   20.4157   -3.3731  -15.4610 N   0  0  0  0  0  0  0  0  0  0  0  0
   21.6956   -2.4198  -17.2558 C   0  0  0  0  0  0  0  0  0  0  0  0
   22.7251   -2.4027  -16.5403 O   0  0  0  0  0  0  0  0  0  0  0  0
   21.8269   -2.3675  -18.6268 O   0  0  0  0  0  0  0  0  0  0  0  0
  2 10  1  0
  2  1  1  1
  3  2  1  0
  4  3  1  0
  5  4  2  0
  6  5  1  0
  7  6  2  0
  7  8  1  0
  8  9  2  0
  9  4  1  0
 10 11  2  0
 13 12  1  1
 13 14  1  0
 15 13  1  0
 15 16  1  6
 16 10  1  0
 17 22  1  0
 17 15  1  0
 18 17  2  0
 20 19  1  0
 21 20  1  1
 21 22  1  0
 23 25  1  0
 23 21  1  0
 24 23  2  0
M  END
$$$$
