FTS.pdb
     RDKit          3D

 25 25  0  0  1  0  0  0  0  0999 V2000
   24.9384  -21.1421   -8.2010 N   0  0  0  0  0  0  0  0  0  0  0  0
   25.5885  -20.4098   -9.2836 C   0  0  1  0  0  0  0  0  0  0  0  0
   27.0759  -20.6299   -9.2225 C   0  0  0  0  0  0  0  0  0  0  0  0
   27.7105  -20.0711   -8.0327 C   0  0  0  0  0  0  0  0  0  0  0  0
   28.5753  -20.8409   -7.2932 C   0  0  0  0  0  0  0  0  0  0  0  0
   29.2147  -20.3798   -6.1534 C   0  0  0  0  0  0  0  0  0  0  0  0
   28.9489  -19.0797   -5.7686 C   0  0  0  0  0  0  0  0  0  0  0  0
   28.0848  -18.2872   -6.4941 C   0  0  0  0  0  0  0  0  0  0  0  0
   27.4689  -18.7827   -7.6215 C   0  0  0  0  0  0  0  0  0  0  0  0
   25.1271  -20.9374  -10.6134 C   0  0  0  0  0  0  0  0  0  0  0  0
   24.7845  -22.1373  -10.7742 O   0  0  0  0  0  0  0  0  0  0  0  0
   21.9081  -20.4901  -13.5507 C   0  0  0  0  0  0  0  0  0  0  0  0
   22.8338  -20.4991  -12.3613 C   0  0  1  0  0  0  0  0  0  0  0  0
   22.6530  -21.5930  -11.5443 O   0  0  0  0  0  0  0  0  0  0  0  0
   24.2523  -20.3797  -12.8774 C   0  0  2  0  0  0  0  0  0  0  0  0
   25.0802  -20.0504  -11.7103 N   0  0  0  0  0  0  0  0  0  0  0  0
   24.3777  -19.3065  -13.8925 C   0  0  0  0  0  0  0  0  0  0  0  0
   23.9566  -18.1564  -13.6210 O   0  0  0  0  0  0  0  0  0  0  0  0
   27.3292  -19.3263  -16.6137 O   0  0  0  0  0  0  0  0  0  0  0  0
   26.1191  -19.0256  -17.2035 C   0  0  0  0  0  0  0  0  0  0  0  0
   25.1430  -18.5031  -16.1430 C   0  0  2  0  0  0  0  0  0  0  0  0
   24.9621  -19.5497  -15.1620 N   0  0  0  0  0  0  0  0  0  0  0  0
   23.8692  -18.2262  -16.8421 C   0  0  0  0  0  0  0  0  0  0  0  0
   23.0064  -19.1322  -16.9248 O   0  0  0  0  0  0  0  0  0  0  0  0
   23.6095  -16.9950  -17.4044 O   0  0  0  0  0  0  0  0  0  0  0  0
  2 10  1  0
  2  1  1  1
  3  2  1  0
  4  3  1  0
  5  4  2  0
  6  5  1  0
  7  6  2  0
  7  8  1  0
  8  9  2  0
  9  4  1  0
 10 11  2  0
 13 12  1  6
 13 14  1  0
 15 13  1  0
 15 16  1  1
 16 10  1  0
 17 22  1  0
 17 15  1  0
 18 17  2  0
 20 19  1  0
 21 20  1  6
 21 22  1  0
 23 25  1  0
 23 21  1  0
 24 23  2  0
M  END
$$$$
