FTS.pdb
     RDKit          3D

 25 25  0  0  1  0  0  0  0  0999 V2000
   28.0936  -29.5372  -19.0832 N   0  0  0  0  0  0  0  0  0  0  0  0
   28.4267  -30.6220  -18.1650 C   0  0  1  0  0  0  0  0  0  0  0  0
   29.5562  -30.1962  -17.2663 C   0  0  0  0  0  0  0  0  0  0  0  0
   30.8243  -29.9957  -17.9607 C   0  0  0  0  0  0  0  0  0  0  0  0
   31.5461  -31.0814  -18.3938 C   0  0  0  0  0  0  0  0  0  0  0  0
   32.7566  -30.9699  -19.0594 C   0  0  0  0  0  0  0  0  0  0  0  0
   33.2333  -29.6924  -19.2827 C   0  0  0  0  0  0  0  0  0  0  0  0
   32.5273  -28.5869  -18.8577 C   0  0  0  0  0  0  0  0  0  0  0  0
   31.3276  -28.7400  -18.1995 C   0  0  0  0  0  0  0  0  0  0  0  0
   27.2540  -30.9222  -17.2739 C   0  0  0  0  0  0  0  0  0  0  0  0
   26.2233  -30.2007  -17.2594 O   0  0  0  0  0  0  0  0  0  0  0  0
   24.6478  -31.9355  -17.5077 C   0  0  0  0  0  0  0  0  0  0  0  0
   25.1682  -33.0490  -16.6353 C   0  0  1  0  0  0  0  0  0  0  0  0
   25.7122  -34.0898  -17.3547 O   0  0  0  0  0  0  0  0  0  0  0  0
   26.1433  -32.4456  -15.6466 C   0  0  2  0  0  0  0  0  0  0  0  0
   27.3210  -32.0518  -16.4303 N   0  0  0  0  0  0  0  0  0  0  0  0
   26.5445  -33.4228  -14.6065 C   0  0  0  0  0  0  0  0  0  0  0  0
   27.4706  -34.2322  -14.8532 O   0  0  0  0  0  0  0  0  0  0  0  0
   24.2470  -33.5757  -11.4369 O   0  0  0  0  0  0  0  0  0  0  0  0
   25.4790  -34.0613  -11.0509 C   0  0  0  0  0  0  0  0  0  0  0  0
   26.3262  -34.3663  -12.2917 C   0  0  2  0  0  0  0  0  0  0  0  0
   25.9063  -33.4637  -13.3402 N   0  0  0  0  0  0  0  0  0  0  0  0
   26.0331  -35.7662  -12.6688 C   0  0  0  0  0  0  0  0  0  0  0  0
   26.4679  -36.6977  -11.9509 O   0  0  0  0  0  0  0  0  0  0  0  0
   25.2932  -36.0697  -13.7913 O   0  0  0  0  0  0  0  0  0  0  0  0
  2 10  1  0
  2  1  1  6
  3  2  1  0
  4  3  1  0
  5  4  2  0
  6  5  1  0
  7  6  2  0
  7  8  1  0
  8  9  2  0
  9  4  1  0
 10 11  2  0
 13 12  1  6
 13 14  1  0
 15 13  1  0
 15 16  1  6
 16 10  1  0
 17 22  1  0
 17 15  1  0
 18 17  2  0
 20 19  1  0
 21 20  1  1
 21 22  1  0
 23 25  1  0
 23 21  1  0
 24 23  2  0
M  END
$$$$
