FTS.pdb
     RDKit          3D

 25 25  0  0  1  0  0  0  0  0999 V2000
   19.4278  -12.6475  -17.0110 N   0  0  0  0  0  0  0  0  0  0  0  0
   19.4030  -11.2058  -17.2382 C   0  0  1  0  0  0  0  0  0  0  0  0
   17.9883  -10.7559  -17.4845 C   0  0  0  0  0  0  0  0  0  0  0  0
   17.4152  -11.2541  -18.7310 C   0  0  0  0  0  0  0  0  0  0  0  0
   17.7428  -10.6536  -19.9225 C   0  0  0  0  0  0  0  0  0  0  0  0
   17.2394  -11.0704  -21.1446 C   0  0  0  0  0  0  0  0  0  0  0  0
   16.3692  -12.1435  -21.1305 C   0  0  0  0  0  0  0  0  0  0  0  0
   16.0250  -12.7629  -19.9477 C   0  0  0  0  0  0  0  0  0  0  0  0
   16.5471  -12.3185  -18.7536 C   0  0  0  0  0  0  0  0  0  0  0  0
   19.8801  -10.4815  -16.0104 C   0  0  0  0  0  0  0  0  0  0  0  0
   19.4784  -10.7844  -14.8572 O   0  0  0  0  0  0  0  0  0  0  0  0
   22.7294  -10.5404  -14.3403 C   0  0  0  0  0  0  0  0  0  0  0  0
   22.7178   -9.0996  -14.7828 C   0  0  1  0  0  0  0  0  0  0  0  0
   23.5014   -8.8687  -15.8917 O   0  0  0  0  0  0  0  0  0  0  0  0
   21.2748   -8.6896  -14.9877 C   0  0  2  0  0  0  0  0  0  0  0  0
   20.8083   -9.4298  -16.1669 N   0  0  0  0  0  0  0  0  0  0  0  0
   21.1486   -7.2333  -15.2350 C   0  0  0  0  0  0  0  0  0  0  0  0
   21.2768   -6.7988  -16.4048 O   0  0  0  0  0  0  0  0  0  0  0  0
   19.6664   -2.9630  -13.6151 O   0  0  0  0  0  0  0  0  0  0  0  0
   19.6945   -4.3390  -13.5236 C   0  0  0  0  0  0  0  0  0  0  0  0
   20.8311   -4.8916  -14.3914 C   0  0  2  0  0  0  0  0  0  0  0  0
   20.8865   -6.3209  -14.1808 N   0  0  0  0  0  0  0  0  0  0  0  0
   22.0761   -4.2517  -13.9133 C   0  0  0  0  0  0  0  0  0  0  0  0
   22.5051   -3.2310  -14.5018 O   0  0  0  0  0  0  0  0  0  0  0  0
   22.7749   -4.7520  -12.8359 O   0  0  0  0  0  0  0  0  0  0  0  0
  2 10  1  0
  2  1  1  1
  3  2  1  0
  4  3  1  0
  5  4  2  0
  6  5  1  0
  7  6  2  0
  7  8  1  0
  8  9  2  0
  9  4  1  0
 10 11  2  0
 13 12  1  6
 13 14  1  0
 15 13  1  0
 15 16  1  6
 16 10  1  0
 17 22  1  0
 17 15  1  0
 18 17  2  0
 20 19  1  0
 21 20  1  1
 21 22  1  0
 23 25  1  0
 23 21  1  0
 24 23  2  0
M  END
$$$$
