FTS.pdb
     RDKit          3D

 25 25  0  0  1  0  0  0  0  0999 V2000
   28.5832  -21.2622   -9.1508 N   0  0  0  0  0  0  0  0  0  0  0  0
   27.1811  -20.8683   -9.0523 C   0  0  1  0  0  0  0  0  0  0  0  0
   27.0621  -19.6242   -8.2141 C   0  0  0  0  0  0  0  0  0  0  0  0
   27.5899  -19.7673   -6.8608 C   0  0  0  0  0  0  0  0  0  0  0  0
   28.9454  -19.7058   -6.6452 C   0  0  0  0  0  0  0  0  0  0  0  0
   29.5195  -19.8327   -5.3902 C   0  0  0  0  0  0  0  0  0  0  0  0
   28.6610  -20.0296   -4.3257 C   0  0  0  0  0  0  0  0  0  0  0  0
   27.2970  -20.0950   -4.5163 C   0  0  0  0  0  0  0  0  0  0  0  0
   26.7654  -19.9641   -5.7797 C   0  0  0  0  0  0  0  0  0  0  0  0
   26.6445  -20.5257  -10.4141 C   0  0  0  0  0  0  0  0  0  0  0  0
   27.3886  -20.1167  -11.3425 O   0  0  0  0  0  0  0  0  0  0  0  0
   24.7158  -21.8480  -14.1199 C   0  0  0  0  0  0  0  0  0  0  0  0
   25.3530  -21.7763  -12.7558 C   0  0  1  0  0  0  0  0  0  0  0  0
   26.7283  -21.7210  -12.8042 O   0  0  0  0  0  0  0  0  0  0  0  0
   24.7435  -20.6011  -12.0211 C   0  0  2  0  0  0  0  0  0  0  0  0
   25.2602  -20.6710  -10.6485 N   0  0  0  0  0  0  0  0  0  0  0  0
   23.2631  -20.6773  -11.9976 C   0  0  0  0  0  0  0  0  0  0  0  0
   22.7056  -21.4968  -11.2286 O   0  0  0  0  0  0  0  0  0  0  0  0
   21.3024  -18.3874  -14.6114 O   0  0  0  0  0  0  0  0  0  0  0  0
   20.5301  -18.5789  -13.4845 C   0  0  0  0  0  0  0  0  0  0  0  0
   21.0212  -19.8171  -12.7256 C   0  0  2  0  0  0  0  0  0  0  0  0
   22.4634  -19.8462  -12.8236 N   0  0  0  0  0  0  0  0  0  0  0  0
   20.4345  -20.9906  -13.4086 C   0  0  0  0  0  0  0  0  0  0  0  0
   19.2148  -21.2399  -13.2589 O   0  0  0  0  0  0  0  0  0  0  0  0
   21.1980  -21.8160  -14.2057 O   0  0  0  0  0  0  0  0  0  0  0  0
  2 10  1  0
  2  1  1  6
  3  2  1  0
  4  3  1  0
  5  4  2  0
  6  5  1  0
  7  6  2  0
  7  8  1  0
  8  9  2  0
  9  4  1  0
 10 11  2  0
 13 12  1  6
 13 14  1  0
 15 13  1  0
 15 16  1  1
 16 10  1  0
 17 22  1  0
 17 15  1  0
 18 17  2  0
 20 19  1  0
 21 20  1  6
 21 22  1  0
 23 25  1  0
 23 21  1  0
 24 23  2  0
M  END
$$$$
