FTS.pdb
     RDKit          3D

 25 25  0  0  1  0  0  0  0  0999 V2000
   25.0330  -20.8534   -7.1895 N   0  0  0  0  0  0  0  0  0  0  0  0
   25.9136  -20.3387   -8.2336 C   0  0  1  0  0  0  0  0  0  0  0  0
   27.3434  -20.6662   -7.8974 C   0  0  0  0  0  0  0  0  0  0  0  0
   27.8125  -20.0676   -6.6516 C   0  0  0  0  0  0  0  0  0  0  0  0
   28.3963  -20.8571   -5.6907 C   0  0  0  0  0  0  0  0  0  0  0  0
   28.8653  -20.3610   -4.4847 C   0  0  0  0  0  0  0  0  0  0  0  0
   28.7245  -19.0036   -4.2685 C   0  0  0  0  0  0  0  0  0  0  0  0
   28.1420  -18.1903   -5.2174 C   0  0  0  0  0  0  0  0  0  0  0  0
   27.6884  -18.7221   -6.4037 C   0  0  0  0  0  0  0  0  0  0  0  0
   25.6113  -21.0133   -9.5425 C   0  0  0  0  0  0  0  0  0  0  0  0
   24.8454  -22.0084   -9.6206 O   0  0  0  0  0  0  0  0  0  0  0  0
   23.5427  -21.3421  -11.1397 C   0  0  0  0  0  0  0  0  0  0  0  0
   24.3446  -20.6186  -12.1909 C   0  0  1  0  0  0  0  0  0  0  0  0
   24.1633  -19.2536  -12.1645 O   0  0  0  0  0  0  0  0  0  0  0  0
   25.7948  -21.0217  -12.0262 C   0  0  2  0  0  0  0  0  0  0  0  0
   26.2106  -20.5064  -10.7156 N   0  0  0  0  0  0  0  0  0  0  0  0
   26.6508  -20.4336  -13.0841 C   0  0  0  0  0  0  0  0  0  0  0  0
   26.8610  -19.1969  -13.0827 O   0  0  0  0  0  0  0  0  0  0  0  0
   27.9115  -22.8623  -16.0571 O   0  0  0  0  0  0  0  0  0  0  0  0
   28.8243  -21.8633  -15.7898 C   0  0  0  0  0  0  0  0  0  0  0  0
   28.1184  -20.6883  -15.1033 C   0  0  2  0  0  0  0  0  0  0  0  0
   27.2368  -21.2359  -14.0966 N   0  0  0  0  0  0  0  0  0  0  0  0
   27.3371  -19.9953  -16.1508 C   0  0  0  0  0  0  0  0  0  0  0  0
   27.9395  -19.3172  -17.0164 O   0  0  0  0  0  0  0  0  0  0  0  0
   25.9621  -20.0783  -16.1968 O   0  0  0  0  0  0  0  0  0  0  0  0
  2 10  1  0
  2  1  1  1
  3  2  1  0
  4  3  1  0
  5  4  2  0
  6  5  1  0
  7  6  2  0
  7  8  1  0
  8  9  2  0
  9  4  1  0
 10 11  2  0
 13 12  1  1
 13 14  1  0
 15 13  1  0
 15 16  1  1
 16 10  1  0
 17 22  1  0
 17 15  1  0
 18 17  2  0
 20 19  1  0
 21 20  1  6
 21 22  1  0
 23 25  1  0
 23 21  1  0
 24 23  2  0
M  END
$$$$
