FTS.pdb
     RDKit          3D

 25 25  0  0  1  0  0  0  0  0999 V2000
   12.6629  -16.9550    2.4875 N   0  0  0  0  0  0  0  0  0  0  0  0
   14.1022  -16.8899    2.7216 C   0  0  1  0  0  0  0  0  0  0  0  0
   14.5556  -15.4553    2.6947 C   0  0  0  0  0  0  0  0  0  0  0  0
   16.0055  -15.2914    2.6572 C   0  0  0  0  0  0  0  0  0  0  0  0
   16.5663  -14.0833    2.9945 C   0  0  0  0  0  0  0  0  0  0  0  0
   17.9327  -13.8526    2.9827 C   0  0  0  0  0  0  0  0  0  0  0  0
   18.7429  -14.9078    2.6095 C   0  0  0  0  0  0  0  0  0  0  0  0
   18.2042  -16.1298    2.2667 C   0  0  0  0  0  0  0  0  0  0  0  0
   16.8405  -16.3189    2.2911 C   0  0  0  0  0  0  0  0  0  0  0  0
   14.4270  -17.4211    4.0898 C   0  0  0  0  0  0  0  0  0  0  0  0
   13.7572  -17.1039    5.1065 O   0  0  0  0  0  0  0  0  0  0  0  0
   17.0664  -20.6327    6.6635 C   0  0  0  0  0  0  0  0  0  0  0  0
   16.5658  -20.1363    5.3313 C   0  0  1  0  0  0  0  0  0  0  0  0
   15.7529  -21.0429    4.6877 O   0  0  0  0  0  0  0  0  0  0  0  0
   15.8906  -18.8003    5.5588 C   0  0  2  0  0  0  0  0  0  0  0  0
   15.5202  -18.3032    4.2277 N   0  0  0  0  0  0  0  0  0  0  0  0
   16.8006  -17.8307    6.2142 C   0  0  0  0  0  0  0  0  0  0  0  0
   17.7916  -17.3972    5.5788 O   0  0  0  0  0  0  0  0  0  0  0  0
   17.3572  -14.2567    9.1897 O   0  0  0  0  0  0  0  0  0  0  0  0
   16.5751  -15.2097    8.5711 C   0  0  0  0  0  0  0  0  0  0  0  0
   17.4384  -16.4168    8.1866 C   0  0  2  0  0  0  0  0  0  0  0  0
   16.5771  -17.3824    7.5414 N   0  0  0  0  0  0  0  0  0  0  0  0
   17.9774  -16.9690    9.4485 C   0  0  0  0  0  0  0  0  0  0  0  0
   18.9758  -16.4257    9.9777 O   0  0  0  0  0  0  0  0  0  0  0  0
   17.4070  -18.0671   10.0555 O   0  0  0  0  0  0  0  0  0  0  0  0
  2 10  1  0
  2  1  1  1
  3  2  1  0
  4  3  1  0
  5  4  2  0
  6  5  1  0
  7  6  2  0
  7  8  1  0
  8  9  2  0
  9  4  1  0
 10 11  2  0
 13 12  1  1
 13 14  1  0
 15 13  1  0
 15 16  1  6
 16 10  1  0
 17 22  1  0
 17 15  1  0
 18 17  2  0
 20 19  1  0
 21 20  1  1
 21 22  1  0
 23 25  1  0
 23 21  1  0
 24 23  2  0
M  END
$$$$
