FTS.pdb
     RDKit          3D

 25 25  0  0  1  0  0  0  0  0999 V2000
   19.5167   -9.8949  -17.1659 N   0  0  0  0  0  0  0  0  0  0  0  0
   19.9962   -8.6561  -17.7710 C   0  0  1  0  0  0  0  0  0  0  0  0
   19.0015   -8.1725  -18.7915 C   0  0  0  0  0  0  0  0  0  0  0  0
   18.8829   -9.0373  -19.9613 C   0  0  0  0  0  0  0  0  0  0  0  0
   19.8093   -8.9514  -20.9722 C   0  0  0  0  0  0  0  0  0  0  0  0
   19.7624   -9.7385  -22.1118 C   0  0  0  0  0  0  0  0  0  0  0  0
   18.7222  -10.6430  -22.2060 C   0  0  0  0  0  0  0  0  0  0  0  0
   17.7800  -10.7481  -21.2049 C   0  0  0  0  0  0  0  0  0  0  0  0
   17.8617   -9.9475  -20.0876 C   0  0  0  0  0  0  0  0  0  0  0  0
   20.1036   -7.5797  -16.7273 C   0  0  0  0  0  0  0  0  0  0  0  0
   19.4648   -7.6321  -15.6446 O   0  0  0  0  0  0  0  0  0  0  0  0
   23.3533   -6.3229  -15.9108 C   0  0  0  0  0  0  0  0  0  0  0  0
   22.2046   -5.8602  -15.0517 C   0  0  1  0  0  0  0  0  0  0  0  0
   22.5651   -4.8878  -14.1454 O   0  0  0  0  0  0  0  0  0  0  0  0
   21.0860   -5.4194  -15.9721 C   0  0  2  0  0  0  0  0  0  0  0  0
   20.9507   -6.4792  -16.9794 N   0  0  0  0  0  0  0  0  0  0  0  0
   21.4020   -4.1357  -16.6430 C   0  0  0  0  0  0  0  0  0  0  0  0
   22.1229   -4.1441  -17.6697 O   0  0  0  0  0  0  0  0  0  0  0  0
   19.8281   -0.7728  -15.0507 O   0  0  0  0  0  0  0  0  0  0  0  0
   20.0513   -0.6682  -16.4079 C   0  0  0  0  0  0  0  0  0  0  0  0
   21.1558   -1.6454  -16.8268 C   0  0  2  0  0  0  0  0  0  0  0  0
   20.9087   -2.8998  -16.1516 N   0  0  0  0  0  0  0  0  0  0  0  0
   22.4343   -1.0577  -16.3706 C   0  0  0  0  0  0  0  0  0  0  0  0
   23.0951   -1.6443  -15.4810 O   0  0  0  0  0  0  0  0  0  0  0  0
   22.9154    0.1197  -16.9012 O   0  0  0  0  0  0  0  0  0  0  0  0
  2 10  1  0
  2  1  1  1
  3  2  1  0
  4  3  1  0
  5  4  2  0
  6  5  1  0
  7  6  2  0
  7  8  1  0
  8  9  2  0
  9  4  1  0
 10 11  2  0
 13 12  1  6
 13 14  1  0
 15 13  1  0
 15 16  1  6
 16 10  1  0
 17 22  1  0
 17 15  1  0
 18 17  2  0
 20 19  1  0
 21 20  1  1
 21 22  1  0
 23 25  1  0
 23 21  1  0
 24 23  2  0
M  END
$$$$
