PKP.pdb
     RDKit          3D

 24 25  0  0  1  0  0  0  0  0999 V2000
   29.7670  -20.7438   -9.7086 N   0  0  0  0  0  0  0  0  0  0  0  0
   30.9788  -21.1795   -9.0306 C   0  0  0  0  0  0  0  0  0  0  0  0
   31.7245  -22.0608   -9.9983 C   0  0  0  0  0  0  0  0  0  0  0  0
   30.5906  -22.4997  -10.9381 C   0  0  0  0  0  0  0  0  0  0  0  0
   29.8289  -21.2279  -11.0470 C   0  0  1  0  0  0  0  0  0  0  0  0
   28.4922  -21.3665  -11.6638 C   0  0  0  0  0  0  0  0  0  0  0  0
   28.4500  -21.8383  -12.8157 O   0  0  0  0  0  0  0  0  0  0  0  0
   27.2869  -21.0029  -11.0361 N   0  0  0  0  0  0  0  0  0  0  0  0
   25.9579  -21.0494  -11.5127 C   0  0  1  0  0  0  0  0  0  0  0  0
   24.8453  -20.8796  -10.5164 C   0  0  0  0  0  0  0  0  0  0  0  0
   23.4666  -20.8194  -11.1100 C   0  0  0  0  0  0  0  0  0  0  0  0
   22.4680  -20.5670  -10.0098 C   0  0  0  0  0  0  0  0  0  0  0  0
   21.3968  -21.6061   -9.8612 C   0  0  0  0  0  0  0  0  0  0  0  0
   20.5135  -21.3341   -8.7569 N   0  0  0  0  0  0  0  0  0  0  0  0
   25.6867  -20.2631  -12.7150 C   0  0  0  0  0  0  0  0  0  0  0  0
   26.1723  -19.0675  -12.6905 O   0  0  0  0  0  0  0  0  0  0  0  0
   24.9845  -20.6344  -13.8674 N   0  0  0  0  0  0  0  0  0  0  0  0
   24.2670  -21.8448  -14.1926 C   0  0  0  0  0  0  0  0  0  0  0  0
   24.5060  -22.0204  -15.6911 C   0  0  0  0  0  0  0  0  0  0  0  0
   25.1709  -20.7470  -16.1613 C   0  0  0  0  0  0  0  0  0  0  0  0
   24.8892  -19.7750  -15.0574 C   0  0  1  0  0  0  0  0  0  0  0  0
   23.5579  -19.1541  -15.1306 C   0  0  0  0  0  0  0  0  0  0  0  0
   22.6709  -19.5265  -14.3214 O   0  0  0  0  0  0  0  0  0  0  0  0
   23.2109  -18.1792  -16.0370 O   0  0  0  0  0  0  0  0  0  0  0  0
  1  2  1  0
  1  5  1  0
  2  3  1  0
  3  4  1  0
  5  4  1  0
  5  6  1  1
  6  7  2  0
  8  6  1  0
  9  8  1  0
 10 11  1  0
  9 10  1  1
 11 12  1  0
 12 13  1  0
 13 14  1  0
 15  9  1  0
 16 15  2  0
 17 21  1  0
 17 15  1  0
 18 19  1  0
 18 17  1  0
 19 20  1  0
 21 20  1  0
 21 22  1  6
 23 22  2  0
 24 22  1  0
M  END
$$$$
