PKP.pdb
     RDKit          3D

 24 25  0  0  1  0  0  0  0  0999 V2000
   27.9531  -20.4588  -17.8640 N   0  0  0  0  0  0  0  0  0  0  0  0
   28.7105  -20.2662  -19.0918 C   0  0  0  0  0  0  0  0  0  0  0  0
   29.4560  -18.9658  -18.9422 C   0  0  0  0  0  0  0  0  0  0  0  0
   28.6130  -18.2593  -17.8690 C   0  0  0  0  0  0  0  0  0  0  0  0
   28.3091  -19.4058  -16.9730 C   0  0  1  0  0  0  0  0  0  0  0  0
   27.2607  -19.1341  -15.9663 C   0  0  0  0  0  0  0  0  0  0  0  0
   27.4765  -18.2048  -15.1656 O   0  0  0  0  0  0  0  0  0  0  0  0
   26.0551  -19.8516  -15.8624 N   0  0  0  0  0  0  0  0  0  0  0  0
   24.9684  -19.6892  -14.9745 C   0  0  1  0  0  0  0  0  0  0  0  0
   23.6547  -19.2321  -15.5443 C   0  0  0  0  0  0  0  0  0  0  0  0
   23.5896  -19.2055  -17.0450 C   0  0  0  0  0  0  0  0  0  0  0  0
   22.2779  -19.7985  -17.4911 C   0  0  0  0  0  0  0  0  0  0  0  0
   22.0545  -19.8261  -18.9738 C   0  0  0  0  0  0  0  0  0  0  0  0
   22.2531  -18.5378  -19.5859 N   0  0  0  0  0  0  0  0  0  0  0  0
   24.7572  -20.7793  -14.0235 C   0  0  0  0  0  0  0  0  0  0  0  0
   24.9025  -21.9597  -14.5252 O   0  0  0  0  0  0  0  0  0  0  0  0
   24.4271  -20.7083  -12.6652 N   0  0  0  0  0  0  0  0  0  0  0  0
   24.1863  -19.5733  -11.8054 C   0  0  0  0  0  0  0  0  0  0  0  0
   24.7396  -20.0156  -10.4520 C   0  0  0  0  0  0  0  0  0  0  0  0
   25.0589  -21.4865  -10.5905 C   0  0  0  0  0  0  0  0  0  0  0  0
   24.2953  -21.8986  -11.8111 C   0  0  1  0  0  0  0  0  0  0  0  0
   22.8756  -22.1895  -11.5603 C   0  0  0  0  0  0  0  0  0  0  0  0
   22.0132  -21.3461  -11.9138 O   0  0  0  0  0  0  0  0  0  0  0  0
   22.4192  -23.3383  -10.9564 O   0  0  0  0  0  0  0  0  0  0  0  0
  1  2  1  0
  1  5  1  0
  2  3  1  0
  3  4  1  0
  5  4  1  0
  5  6  1  1
  6  7  2  0
  8  6  1  0
  9  8  1  0
 10 11  1  0
  9 10  1  6
 11 12  1  0
 12 13  1  0
 13 14  1  0
 15  9  1  0
 16 15  2  0
 17 21  1  0
 17 15  1  0
 18 19  1  0
 18 17  1  0
 19 20  1  0
 21 20  1  0
 21 22  1  1
 23 22  2  0
 24 22  1  0
M  END
$$$$
