PKP.pdb
     RDKit          3D

 24 25  0  0  1  0  0  0  0  0999 V2000
   15.3931  -11.5196  -16.4275 N   0  0  0  0  0  0  0  0  0  0  0  0
   14.3904  -12.5662  -16.5598 C   0  0  0  0  0  0  0  0  0  0  0  0
   14.4609  -13.3958  -15.3045 C   0  0  0  0  0  0  0  0  0  0  0  0
   15.8845  -13.0820  -14.8180 C   0  0  0  0  0  0  0  0  0  0  0  0
   15.9548  -11.6289  -15.1229 C   0  0  1  0  0  0  0  0  0  0  0  0
   17.3134  -11.0514  -15.0387 C   0  0  0  0  0  0  0  0  0  0  0  0
   17.8734  -11.0896  -13.9269 O   0  0  0  0  0  0  0  0  0  0  0  0
   17.9979  -10.4716  -16.1225 N   0  0  0  0  0  0  0  0  0  0  0  0
   19.2629   -9.8451  -16.1747 C   0  0  1  0  0  0  0  0  0  0  0  0
   20.0213   -9.8951  -17.4715 C   0  0  0  0  0  0  0  0  0  0  0  0
   20.3169  -11.2774  -17.9801 C   0  0  0  0  0  0  0  0  0  0  0  0
   21.0377  -11.1726  -19.2994 C   0  0  0  0  0  0  0  0  0  0  0  0
   21.3043  -12.4753  -19.9931 C   0  0  0  0  0  0  0  0  0  0  0  0
   21.8280  -12.2955  -21.3225 N   0  0  0  0  0  0  0  0  0  0  0  0
   19.3310   -8.5032  -15.5985 C   0  0  0  0  0  0  0  0  0  0  0  0
   18.2192   -7.8487  -15.6393 O   0  0  0  0  0  0  0  0  0  0  0  0
   20.4248   -7.8513  -15.0174 N   0  0  0  0  0  0  0  0  0  0  0  0
   21.8072   -8.2488  -14.8882 C   0  0  0  0  0  0  0  0  0  0  0  0
   22.2301   -7.6690  -13.5397 C   0  0  0  0  0  0  0  0  0  0  0  0
   21.0964   -6.7739  -13.0945 C   0  0  0  0  0  0  0  0  0  0  0  0
   20.3153   -6.5443  -14.3515 C   0  0  1  0  0  0  0  0  0  0  0  0
   20.8644   -5.4870  -15.2138 C   0  0  0  0  0  0  0  0  0  0  0  0
   21.4701   -5.8166  -16.2648 O   0  0  0  0  0  0  0  0  0  0  0  0
   20.7596   -4.1417  -14.9457 O   0  0  0  0  0  0  0  0  0  0  0  0
  1  2  1  0
  1  5  1  0
  2  3  1  0
  3  4  1  0
  5  4  1  0
  5  6  1  6
  6  7  2  0
  8  6  1  0
  9  8  1  0
 10 11  1  0
  9 10  1  6
 11 12  1  0
 12 13  1  0
 13 14  1  0
 15  9  1  0
 16 15  2  0
 17 21  1  0
 17 15  1  0
 18 19  1  0
 18 17  1  0
 19 20  1  0
 21 20  1  0
 21 22  1  6
 23 22  2  0
 24 22  1  0
M  END
$$$$
