PKP.pdb
     RDKit          3D

 24 25  0  0  1  0  0  0  0  0999 V2000
   27.1400  -21.4793  -13.3522 N   0  0  0  0  0  0  0  0  0  0  0  0
   27.3634  -21.5316  -14.7894 C   0  0  0  0  0  0  0  0  0  0  0  0
   28.3064  -20.4054  -15.1231 C   0  0  0  0  0  0  0  0  0  0  0  0
   28.0897  -19.4684  -13.9245 C   0  0  0  0  0  0  0  0  0  0  0  0
   27.9881  -20.4634  -12.8249 C   0  0  1  0  0  0  0  0  0  0  0  0
   27.4890  -19.9131  -11.5464 C   0  0  0  0  0  0  0  0  0  0  0  0
   27.3931  -18.6740  -11.4661 O   0  0  0  0  0  0  0  0  0  0  0  0
   27.1227  -20.6943  -10.4352 N   0  0  0  0  0  0  0  0  0  0  0  0
   26.5598  -20.3144   -9.1965 C   0  0  1  0  0  0  0  0  0  0  0  0
   25.1247  -20.6763   -8.9338 C   0  0  0  0  0  0  0  0  0  0  0  0
   24.1788  -20.3771  -10.0619 C   0  0  0  0  0  0  0  0  0  0  0  0
   22.7786  -20.7400   -9.6392 C   0  0  0  0  0  0  0  0  0  0  0  0
   21.7150  -20.5155  -10.6725 C   0  0  0  0  0  0  0  0  0  0  0  0
   20.4107  -20.9250  -10.2200 N   0  0  0  0  0  0  0  0  0  0  0  0
   27.3771  -20.5910   -8.0163 C   0  0  0  0  0  0  0  0  0  0  0  0
   27.9736  -21.7355   -8.0375 O   0  0  0  0  0  0  0  0  0  0  0  0
   27.5935  -19.7885   -6.8902 N   0  0  0  0  0  0  0  0  0  0  0  0
   27.0721  -18.4889   -6.5368 C   0  0  0  0  0  0  0  0  0  0  0  0
   28.2269  -17.8217   -5.7919 C   0  0  0  0  0  0  0  0  0  0  0  0
   29.2648  -18.8992   -5.5768 C   0  0  0  0  0  0  0  0  0  0  0  0
   28.5041  -20.1697   -5.7997 C   0  0  1  0  0  0  0  0  0  0  0  0
   27.7353  -20.6212   -4.6299 C   0  0  0  0  0  0  0  0  0  0  0  0
   28.3561  -20.9466   -3.5864 O   0  0  0  0  0  0  0  0  0  0  0  0
   26.3631  -20.7134   -4.5982 O   0  0  0  0  0  0  0  0  0  0  0  0
  1  2  1  0
  1  5  1  0
  2  3  1  0
  3  4  1  0
  5  4  1  0
  5  6  1  1
  6  7  2  0
  8  6  1  0
  9  8  1  0
 10 11  1  0
  9 10  1  1
 11 12  1  0
 12 13  1  0
 13 14  1  0
 15  9  1  0
 16 15  2  0
 17 21  1  0
 17 15  1  0
 18 19  1  0
 18 17  1  0
 19 20  1  0
 21 20  1  0
 21 22  1  1
 23 22  2  0
 24 22  1  0
M  END
$$$$
