PKP.pdb
     RDKit          3D

 24 25  0  0  1  0  0  0  0  0999 V2000
   21.6986  -12.5328  -17.0683 N   0  0  0  0  0  0  0  0  0  0  0  0
   21.5967  -13.8028  -17.7716 C   0  0  0  0  0  0  0  0  0  0  0  0
   21.5295  -13.4806  -19.2416 C   0  0  0  0  0  0  0  0  0  0  0  0
   21.0324  -12.0269  -19.2068 C   0  0  0  0  0  0  0  0  0  0  0  0
   21.8104  -11.5080  -18.0515 C   0  0  1  0  0  0  0  0  0  0  0  0
   21.3603  -10.1906  -17.5532 C   0  0  0  0  0  0  0  0  0  0  0  0
   21.7880   -9.1860  -18.1524 O   0  0  0  0  0  0  0  0  0  0  0  0
   20.4923  -10.0094  -16.4610 N   0  0  0  0  0  0  0  0  0  0  0  0
   19.9450   -8.8272  -15.9147 C   0  0  1  0  0  0  0  0  0  0  0  0
   18.6934   -8.9450  -15.0908 C   0  0  0  0  0  0  0  0  0  0  0  0
   17.6050   -9.7773  -15.7068 C   0  0  0  0  0  0  0  0  0  0  0  0
   16.4261   -9.8178  -14.7689 C   0  0  0  0  0  0  0  0  0  0  0  0
   15.3232  -10.7558  -15.1605 C   0  0  0  0  0  0  0  0  0  0  0  0
   14.1743  -10.6468  -14.2991 N   0  0  0  0  0  0  0  0  0  0  0  0
   20.8973   -7.9279  -15.2652 C   0  0  0  0  0  0  0  0  0  0  0  0
   21.8256   -8.5269  -14.5977 O   0  0  0  0  0  0  0  0  0  0  0  0
   20.9322   -6.5288  -15.2766 N   0  0  0  0  0  0  0  0  0  0  0  0
   20.0946   -5.5642  -15.9502 C   0  0  0  0  0  0  0  0  0  0  0  0
   21.0547   -4.4303  -16.3047 C   0  0  0  0  0  0  0  0  0  0  0  0
   22.3513   -4.7411  -15.5926 C   0  0  0  0  0  0  0  0  0  0  0  0
   21.9519   -5.7485  -14.5590 C   0  0  1  0  0  0  0  0  0  0  0  0
   21.3770   -5.1605  -13.3396 C   0  0  0  0  0  0  0  0  0  0  0  0
   22.1237   -4.4949  -12.5783 O   0  0  0  0  0  0  0  0  0  0  0  0
   20.0586   -5.2905  -12.9689 O   0  0  0  0  0  0  0  0  0  0  0  0
  1  2  1  0
  1  5  1  0
  2  3  1  0
  3  4  1  0
  5  4  1  0
  5  6  1  1
  6  7  2  0
  8  6  1  0
  9  8  1  0
 10 11  1  0
  9 10  1  1
 11 12  1  0
 12 13  1  0
 13 14  1  0
 15  9  1  0
 16 15  2  0
 17 21  1  0
 17 15  1  0
 18 19  1  0
 18 17  1  0
 19 20  1  0
 21 20  1  0
 21 22  1  1
 23 22  2  0
 24 22  1  0
M  END
$$$$
