PKP.pdb
     RDKit          3D

 24 25  0  0  1  0  0  0  0  0999 V2000
   27.6812  -20.4410  -18.6091 N   0  0  0  0  0  0  0  0  0  0  0  0
   28.3056  -20.1851  -19.8986 C   0  0  0  0  0  0  0  0  0  0  0  0
   29.3352  -19.1082  -19.6760 C   0  0  0  0  0  0  0  0  0  0  0  0
   28.8097  -18.4532  -18.3890 C   0  0  0  0  0  0  0  0  0  0  0  0
   28.3701  -19.6585  -17.6382 C   0  0  1  0  0  0  0  0  0  0  0  0
   27.5407  -19.3694  -16.4487 C   0  0  0  0  0  0  0  0  0  0  0  0
   28.0496  -18.6491  -15.5693 O   0  0  0  0  0  0  0  0  0  0  0  0
   26.2335  -19.8522  -16.2561 N   0  0  0  0  0  0  0  0  0  0  0  0
   25.3377  -19.6611  -15.1806 C   0  0  1  0  0  0  0  0  0  0  0  0
   23.8815  -19.4714  -15.5012 C   0  0  0  0  0  0  0  0  0  0  0  0
   23.5902  -19.0918  -16.9253 C   0  0  0  0  0  0  0  0  0  0  0  0
   22.0974  -19.0278  -17.1218 C   0  0  0  0  0  0  0  0  0  0  0  0
   21.6435  -18.7529  -18.5246 C   0  0  0  0  0  0  0  0  0  0  0  0
   20.2114  -18.6453  -18.6301 N   0  0  0  0  0  0  0  0  0  0  0  0
   25.4938  -20.5793  -14.0537 C   0  0  0  0  0  0  0  0  0  0  0  0
   25.7387  -21.8008  -14.3916 O   0  0  0  0  0  0  0  0  0  0  0  0
   25.4159  -20.3084  -12.6828 N   0  0  0  0  0  0  0  0  0  0  0  0
   25.1411  -19.0816  -11.9722 C   0  0  0  0  0  0  0  0  0  0  0  0
   26.0075  -19.1832  -10.7182 C   0  0  0  0  0  0  0  0  0  0  0  0
   26.5528  -20.5928  -10.6988 C   0  0  0  0  0  0  0  0  0  0  0  0
   25.6608  -21.3279  -11.6510 C   0  0  1  0  0  0  0  0  0  0  0  0
   24.3881  -21.7695  -11.0608 C   0  0  0  0  0  0  0  0  0  0  0  0
   23.3247  -21.2058  -11.4235 O   0  0  0  0  0  0  0  0  0  0  0  0
   24.2793  -22.7720  -10.1250 O   0  0  0  0  0  0  0  0  0  0  0  0
  1  2  1  0
  1  5  1  0
  2  3  1  0
  3  4  1  0
  5  4  1  0
  5  6  1  1
  6  7  2  0
  8  6  1  0
  9  8  1  0
 10 11  1  0
  9 10  1  6
 11 12  1  0
 12 13  1  0
 13 14  1  0
 15  9  1  0
 16 15  2  0
 17 21  1  0
 17 15  1  0
 18 19  1  0
 18 17  1  0
 19 20  1  0
 21 20  1  0
 21 22  1  1
 23 22  2  0
 24 22  1  0
M  END
$$$$
