PKP.pdb
     RDKit          3D

 24 25  0  0  1  0  0  0  0  0999 V2000
   24.2844  -19.6329  -11.6302 N   0  0  0  0  0  0  0  0  0  0  0  0
   23.2713  -19.7815  -12.6644 C   0  0  0  0  0  0  0  0  0  0  0  0
   22.1593  -20.6039  -12.0676 C   0  0  0  0  0  0  0  0  0  0  0  0
   22.8976  -21.3230  -10.9277 C   0  0  0  0  0  0  0  0  0  0  0  0
   23.7691  -20.2221  -10.4399 C   0  0  1  0  0  0  0  0  0  0  0  0
   24.8358  -20.6524   -9.5108 C   0  0  0  0  0  0  0  0  0  0  0  0
   24.4782  -21.0293   -8.3789 O   0  0  0  0  0  0  0  0  0  0  0  0
   26.2070  -20.6607   -9.8256 N   0  0  0  0  0  0  0  0  0  0  0  0
   27.3263  -20.9835   -9.0266 C   0  0  1  0  0  0  0  0  0  0  0  0
   28.6090  -21.3433   -9.7226 C   0  0  0  0  0  0  0  0  0  0  0  0
   29.7657  -21.6345   -8.8093 C   0  0  0  0  0  0  0  0  0  0  0  0
   31.0050  -21.8517   -9.6388 C   0  0  0  0  0  0  0  0  0  0  0  0
   32.2614  -22.1149   -8.8633 C   0  0  0  0  0  0  0  0  0  0  0  0
   33.4146  -22.2598   -9.7136 N   0  0  0  0  0  0  0  0  0  0  0  0
   27.5916  -20.0778   -7.9100 C   0  0  0  0  0  0  0  0  0  0  0  0
   27.2553  -18.8508   -8.1277 O   0  0  0  0  0  0  0  0  0  0  0  0
   28.1499  -20.3656   -6.6592 N   0  0  0  0  0  0  0  0  0  0  0  0
   28.7126  -21.5855   -6.1294 C   0  0  0  0  0  0  0  0  0  0  0  0
   28.3269  -21.5547   -4.6516 C   0  0  0  0  0  0  0  0  0  0  0  0
   27.7529  -20.1798   -4.3971 C   0  0  0  0  0  0  0  0  0  0  0  0
   28.2252  -19.3788   -5.5710 C   0  0  1  0  0  0  0  0  0  0  0  0
   29.5999  -18.8732   -5.4377 C   0  0  0  0  0  0  0  0  0  0  0  0
   29.8389  -17.9893   -4.5764 O   0  0  0  0  0  0  0  0  0  0  0  0
   30.6583  -19.3072   -6.2018 O   0  0  0  0  0  0  0  0  0  0  0  0
  1  2  1  0
  1  5  1  0
  2  3  1  0
  3  4  1  0
  5  4  1  0
  5  6  1  1
  6  7  2  0
  8  6  1  0
  9  8  1  0
 10 11  1  0
  9 10  1  6
 11 12  1  0
 12 13  1  0
 13 14  1  0
 15  9  1  0
 16 15  2  0
 17 21  1  0
 17 15  1  0
 18 19  1  0
 18 17  1  0
 19 20  1  0
 21 20  1  0
 21 22  1  1
 23 22  2  0
 24 22  1  0
M  END
$$$$
