PKP.pdb
     RDKit          3D

 24 25  0  0  1  0  0  0  0  0999 V2000
   43.3741  -22.0735   -9.4053 N   0  0  0  0  0  0  0  0  0  0  0  0
   42.8145  -23.1208  -10.2468 C   0  0  0  0  0  0  0  0  0  0  0  0
   42.7332  -22.5593  -11.6422 C   0  0  0  0  0  0  0  0  0  0  0  0
   42.7310  -21.0492  -11.3573 C   0  0  0  0  0  0  0  0  0  0  0  0
   43.7262  -20.9856  -10.2550 C   0  0  1  0  0  0  0  0  0  0  0  0
   43.7628  -19.6930   -9.5379 C   0  0  0  0  0  0  0  0  0  0  0  0
   42.7332  -19.3628   -8.9198 O   0  0  0  0  0  0  0  0  0  0  0  0
   44.8735  -18.8299   -9.5138 N   0  0  0  0  0  0  0  0  0  0  0  0
   45.0469  -17.5809   -8.8770 C   0  0  1  0  0  0  0  0  0  0  0  0
   46.3524  -17.3207   -8.1791 C   0  0  0  0  0  0  0  0  0  0  0  0
   46.4752  -15.9619   -7.5502 C   0  0  0  0  0  0  0  0  0  0  0  0
   47.8028  -15.8649   -6.8437 C   0  0  0  0  0  0  0  0  0  0  0  0
   48.0492  -14.5809   -6.1088 C   0  0  0  0  0  0  0  0  0  0  0  0
   49.3536  -14.5350   -5.5003 N   0  0  0  0  0  0  0  0  0  0  0  0
   44.6454  -16.4103   -9.6554 C   0  0  0  0  0  0  0  0  0  0  0  0
   44.9706  -16.4633  -10.9034 O   0  0  0  0  0  0  0  0  0  0  0  0
   43.9649  -15.2638   -9.2298 N   0  0  0  0  0  0  0  0  0  0  0  0
   43.5881  -14.8198   -7.9082 C   0  0  0  0  0  0  0  0  0  0  0  0
   42.2495  -14.1169   -8.1262 C   0  0  0  0  0  0  0  0  0  0  0  0
   42.0685  -14.0155   -9.6234 C   0  0  0  0  0  0  0  0  0  0  0  0
   43.4466  -14.2497  -10.1607 C   0  0  1  0  0  0  0  0  0  0  0  0
   44.3073  -13.0572  -10.1439 C   0  0  0  0  0  0  0  0  0  0  0  0
   43.8594  -11.9807  -10.6137 O   0  0  0  0  0  0  0  0  0  0  0  0
   45.5881  -13.0380   -9.6421 O   0  0  0  0  0  0  0  0  0  0  0  0
  1  2  1  0
  1  5  1  0
  2  3  1  0
  3  4  1  0
  5  4  1  0
  5  6  1  1
  6  7  2  0
  8  6  1  0
  9  8  1  0
 10 11  1  0
  9 10  1  6
 11 12  1  0
 12 13  1  0
 13 14  1  0
 15  9  1  0
 16 15  2  0
 17 21  1  0
 17 15  1  0
 18 19  1  0
 18 17  1  0
 19 20  1  0
 21 20  1  0
 21 22  1  1
 23 22  2  0
 24 22  1  0
M  END
$$$$
