PKP.pdb
     RDKit          3D

 24 25  0  0  1  0  0  0  0  0999 V2000
   27.7332  -18.8648  -17.9430 N   0  0  0  0  0  0  0  0  0  0  0  0
   28.5428  -18.2638  -18.9924 C   0  0  0  0  0  0  0  0  0  0  0  0
   29.3313  -17.1528  -18.3496 C   0  0  0  0  0  0  0  0  0  0  0  0
   28.4763  -16.8593  -17.1069 C   0  0  0  0  0  0  0  0  0  0  0  0
   28.0955  -18.2415  -16.7143 C   0  0  1  0  0  0  0  0  0  0  0  0
   27.0213  -18.3155  -15.7008 C   0  0  0  0  0  0  0  0  0  0  0  0
   27.2643  -17.8170  -14.5856 O   0  0  0  0  0  0  0  0  0  0  0  0
   25.7632  -18.9058  -15.9194 N   0  0  0  0  0  0  0  0  0  0  0  0
   24.6338  -18.9896  -15.0750 C   0  0  1  0  0  0  0  0  0  0  0  0
   23.3274  -18.4533  -15.5898 C   0  0  0  0  0  0  0  0  0  0  0  0
   22.2118  -18.4290  -14.5840 C   0  0  0  0  0  0  0  0  0  0  0  0
   21.2664  -19.5672  -14.8704 C   0  0  0  0  0  0  0  0  0  0  0  0
   20.0381  -19.6162  -14.0112 C   0  0  0  0  0  0  0  0  0  0  0  0
   19.2160  -20.7655  -14.2886 N   0  0  0  0  0  0  0  0  0  0  0  0
   24.4287  -20.2780  -14.4152 C   0  0  0  0  0  0  0  0  0  0  0  0
   24.3452  -21.2824  -15.2216 O   0  0  0  0  0  0  0  0  0  0  0  0
   24.3163  -20.5567  -13.0482 N   0  0  0  0  0  0  0  0  0  0  0  0
   24.2969  -19.6811  -11.8998 C   0  0  0  0  0  0  0  0  0  0  0  0
   25.0152  -20.4831  -10.8161 C   0  0  0  0  0  0  0  0  0  0  0  0
   25.1964  -21.8753  -11.3760 C   0  0  0  0  0  0  0  0  0  0  0  0
   24.2262  -21.9249  -12.5157 C   0  0  1  0  0  0  0  0  0  0  0  0
   22.8434  -22.2236  -12.1134 C   0  0  0  0  0  0  0  0  0  0  0  0
   21.9972  -21.2941  -12.1187 O   0  0  0  0  0  0  0  0  0  0  0  0
   22.4053  -23.4687  -11.7257 O   0  0  0  0  0  0  0  0  0  0  0  0
  1  2  1  0
  1  5  1  0
  2  3  1  0
  3  4  1  0
  5  4  1  0
  5  6  1  1
  6  7  2  0
  8  6  1  0
  9  8  1  0
 10 11  1  0
  9 10  1  6
 11 12  1  0
 12 13  1  0
 13 14  1  0
 15  9  1  0
 16 15  2  0
 17 21  1  0
 17 15  1  0
 18 19  1  0
 18 17  1  0
 19 20  1  0
 21 20  1  0
 21 22  1  1
 23 22  2  0
 24 22  1  0
M  END
$$$$
