PKP.pdb
     RDKit          3D

 24 25  0  0  1  0  0  0  0  0999 V2000
   28.0448  -21.1852  -15.8411 N   0  0  0  0  0  0  0  0  0  0  0  0
   28.5079  -21.1563  -17.2205 C   0  0  0  0  0  0  0  0  0  0  0  0
   28.8762  -19.7278  -17.5248 C   0  0  0  0  0  0  0  0  0  0  0  0
   28.0569  -18.9752  -16.4647 C   0  0  0  0  0  0  0  0  0  0  0  0
   28.2343  -19.8811  -15.2997 C   0  0  1  0  0  0  0  0  0  0  0  0
   27.3306  -19.6005  -14.1635 C   0  0  0  0  0  0  0  0  0  0  0  0
   27.5453  -18.5573  -13.5178 O   0  0  0  0  0  0  0  0  0  0  0  0
   26.2613  -20.4287  -13.7764 N   0  0  0  0  0  0  0  0  0  0  0  0
   25.2550  -20.2283  -12.8055 C   0  0  1  0  0  0  0  0  0  0  0  0
   23.8217  -20.3666  -13.2369 C   0  0  0  0  0  0  0  0  0  0  0  0
   22.8106  -20.2062  -12.1374 C   0  0  0  0  0  0  0  0  0  0  0  0
   21.4341  -20.4658  -12.6933 C   0  0  0  0  0  0  0  0  0  0  0  0
   20.3068  -20.3253  -11.7141 C   0  0  0  0  0  0  0  0  0  0  0  0
   19.0166  -20.5013  -12.3291 N   0  0  0  0  0  0  0  0  0  0  0  0
   25.4663  -20.8998  -11.5242 C   0  0  0  0  0  0  0  0  0  0  0  0
   25.6942  -22.1668  -11.6178 O   0  0  0  0  0  0  0  0  0  0  0  0
   25.4561  -20.3550  -10.2350 N   0  0  0  0  0  0  0  0  0  0  0  0
   25.2060  -19.0089   -9.7757 C   0  0  0  0  0  0  0  0  0  0  0  0
   26.1365  -18.8534   -8.5742 C   0  0  0  0  0  0  0  0  0  0  0  0
   26.6959  -20.2299   -8.2968 C   0  0  0  0  0  0  0  0  0  0  0  0
   25.7636  -21.1429   -9.0315 C   0  0  1  0  0  0  0  0  0  0  0  0
   24.5273  -21.4540   -8.2981 C   0  0  0  0  0  0  0  0  0  0  0  0
   23.4315  -21.0435   -8.7572 O   0  0  0  0  0  0  0  0  0  0  0  0
   24.4865  -22.1741   -7.1266 O   0  0  0  0  0  0  0  0  0  0  0  0
  1  2  1  0
  1  5  1  0
  2  3  1  0
  3  4  1  0
  5  4  1  0
  5  6  1  1
  6  7  2  0
  8  6  1  0
  9  8  1  0
 10 11  1  0
  9 10  1  6
 11 12  1  0
 12 13  1  0
 13 14  1  0
 15  9  1  0
 16 15  2  0
 17 21  1  0
 17 15  1  0
 18 19  1  0
 18 17  1  0
 19 20  1  0
 21 20  1  0
 21 22  1  1
 23 22  2  0
 24 22  1  0
M  END
$$$$
