PKP.pdb
     RDKit          3D

 24 25  0  0  1  0  0  0  0  0999 V2000
   22.3987  -11.8375  -17.3141 N   0  0  0  0  0  0  0  0  0  0  0  0
   22.5444  -13.0338  -18.1299 C   0  0  0  0  0  0  0  0  0  0  0  0
   22.0201  -12.6914  -19.4999 C   0  0  0  0  0  0  0  0  0  0  0  0
   21.1041  -11.4995  -19.1804 C   0  0  0  0  0  0  0  0  0  0  0  0
   21.9297  -10.7952  -18.1645 C   0  0  1  0  0  0  0  0  0  0  0  0
   21.2139   -9.7351  -17.4228 C   0  0  0  0  0  0  0  0  0  0  0  0
   20.8574   -8.7351  -18.0740 O   0  0  0  0  0  0  0  0  0  0  0  0
   20.9173   -9.7897  -16.0487 N   0  0  0  0  0  0  0  0  0  0  0  0
   20.2467   -8.8621  -15.2208 C   0  0  1  0  0  0  0  0  0  0  0  0
   19.4080   -9.3995  -14.0952 C   0  0  0  0  0  0  0  0  0  0  0  0
   18.7991   -8.3549  -13.2036 C   0  0  0  0  0  0  0  0  0  0  0  0
   18.0281   -9.0364  -12.1027 C   0  0  0  0  0  0  0  0  0  0  0  0
   17.1320   -8.1443  -11.2962 C   0  0  0  0  0  0  0  0  0  0  0  0
   16.5580   -8.8194  -10.1609 N   0  0  0  0  0  0  0  0  0  0  0  0
   21.0461   -7.7276  -14.7611 C   0  0  0  0  0  0  0  0  0  0  0  0
   22.1589   -8.0546  -14.1948 O   0  0  0  0  0  0  0  0  0  0  0  0
   20.7662   -6.3596  -14.8571 N   0  0  0  0  0  0  0  0  0  0  0  0
   19.5957   -5.6620  -15.3354 C   0  0  0  0  0  0  0  0  0  0  0  0
   20.1622   -4.4049  -15.9929 C   0  0  0  0  0  0  0  0  0  0  0  0
   21.6302   -4.3702  -15.6347 C   0  0  0  0  0  0  0  0  0  0  0  0
   21.7327   -5.3172  -14.4792 C   0  0  1  0  0  0  0  0  0  0  0  0
   21.3620   -4.7257  -13.1846 C   0  0  0  0  0  0  0  0  0  0  0  0
   20.2542   -5.0306  -12.6747 O   0  0  0  0  0  0  0  0  0  0  0  0
   22.1558   -3.8485  -12.4824 O   0  0  0  0  0  0  0  0  0  0  0  0
  1  2  1  0
  1  5  1  0
  2  3  1  0
  3  4  1  0
  5  4  1  0
  5  6  1  1
  6  7  2  0
  8  6  1  0
  9  8  1  0
 10 11  1  0
  9 10  1  1
 11 12  1  0
 12 13  1  0
 13 14  1  0
 15  9  1  0
 16 15  2  0
 17 21  1  0
 17 15  1  0
 18 19  1  0
 18 17  1  0
 19 20  1  0
 21 20  1  0
 21 22  1  1
 23 22  2  0
 24 22  1  0
M  END
$$$$
