PKP.pdb
     RDKit          3D

 24 25  0  0  1  0  0  0  0  0999 V2000
   27.6956  -21.6575  -13.1527 N   0  0  0  0  0  0  0  0  0  0  0  0
   27.5867  -21.8506  -14.5911 C   0  0  0  0  0  0  0  0  0  0  0  0
   27.7983  -20.5017  -15.2273 C   0  0  0  0  0  0  0  0  0  0  0  0
   27.4495  -19.5630  -14.0616 C   0  0  0  0  0  0  0  0  0  0  0  0
   28.0714  -20.3013  -12.9312 C   0  0  1  0  0  0  0  0  0  0  0  0
   27.6777  -19.8138  -11.5919 C   0  0  0  0  0  0  0  0  0  0  0  0
   27.8427  -18.6006  -11.3636 O   0  0  0  0  0  0  0  0  0  0  0  0
   27.1372  -20.6264  -10.5787 N   0  0  0  0  0  0  0  0  0  0  0  0
   26.5339  -20.2759   -9.3504 C   0  0  1  0  0  0  0  0  0  0  0  0
   25.0771  -20.5961   -9.1638 C   0  0  0  0  0  0  0  0  0  0  0  0
   24.1794  -20.1364  -10.2773 C   0  0  0  0  0  0  0  0  0  0  0  0
   22.7551  -20.4959   -9.9410 C   0  0  0  0  0  0  0  0  0  0  0  0
   21.7226  -20.0214  -10.9199 C   0  0  0  0  0  0  0  0  0  0  0  0
   20.3954  -20.4658  -10.5810 N   0  0  0  0  0  0  0  0  0  0  0  0
   27.2887  -20.6283   -8.1490 C   0  0  0  0  0  0  0  0  0  0  0  0
   27.7993  -21.8136   -8.1690 O   0  0  0  0  0  0  0  0  0  0  0  0
   27.5263  -19.8592   -7.0040 N   0  0  0  0  0  0  0  0  0  0  0  0
   27.1334  -18.5106   -6.6684 C   0  0  0  0  0  0  0  0  0  0  0  0
   28.3092  -17.9798   -5.8504 C   0  0  0  0  0  0  0  0  0  0  0  0
   29.2057  -19.1677   -5.5860 C   0  0  0  0  0  0  0  0  0  0  0  0
   28.3223  -20.3441   -5.8660 C   0  0  1  0  0  0  0  0  0  0  0  0
   27.4399  -20.7107   -4.7480 C   0  0  0  0  0  0  0  0  0  0  0  0
   27.9575  -21.1057   -3.6727 O   0  0  0  0  0  0  0  0  0  0  0  0
   26.0665  -20.6504   -4.7982 O   0  0  0  0  0  0  0  0  0  0  0  0
  1  2  1  0
  1  5  1  0
  2  3  1  0
  3  4  1  0
  5  4  1  0
  5  6  1  1
  6  7  2  0
  8  6  1  0
  9  8  1  0
 10 11  1  0
  9 10  1  1
 11 12  1  0
 12 13  1  0
 13 14  1  0
 15  9  1  0
 16 15  2  0
 17 21  1  0
 17 15  1  0
 18 19  1  0
 18 17  1  0
 19 20  1  0
 21 20  1  0
 21 22  1  1
 23 22  2  0
 24 22  1  0
M  END
$$$$
