QGQ.pdb
     RDKit          3D

 23 22  0  0  1  0  0  0  0  0999 V2000
   17.1285  -26.8501    0.0506 N   0  0  0  0  0  0  0  0  0  0  0  0
   17.7931  -27.7154   -0.8844 C   0  0  0  0  0  0  0  0  0  0  0  0
   18.7490  -28.4208   -0.4765 O   0  0  0  0  0  0  0  0  0  0  0  0
   17.3758  -27.7890   -2.3028 C   0  0  0  0  0  0  0  0  0  0  0  0
   16.2146  -26.8814   -2.5197 C   0  0  0  0  0  0  0  0  0  0  0  0
   15.7990  -26.8240   -3.9917 C   0  0  2  0  0  0  0  0  0  0  0  0
   16.8936  -27.1203   -4.8646 N   0  0  0  0  0  0  0  0  0  0  0  0
   15.2710  -25.4377   -4.2017 C   0  0  0  0  0  0  0  0  0  0  0  0
   14.4742  -24.9569   -3.3576 O   0  0  0  0  0  0  0  0  0  0  0  0
   15.6447  -24.6534   -5.3248 N   0  0  0  0  0  0  0  0  0  0  0  0
   15.2372  -23.3160   -5.5687 C   0  0  0  0  0  0  0  0  0  0  0  0
   13.8737  -23.1408   -6.0995 C   0  0  0  0  0  0  0  0  0  0  0  0
   13.1245  -24.1668   -6.2773 O   0  0  0  0  0  0  0  0  0  0  0  0
    9.2782  -17.9836   -8.4879 N   0  0  0  0  0  0  0  0  0  0  0  0
    9.7615  -18.7382   -7.3896 C   0  0  0  0  0  0  0  0  0  0  0  0
    9.8274  -18.2260   -6.2650 O   0  0  0  0  0  0  0  0  0  0  0  0
   10.2008  -20.1710   -7.5763 C   0  0  0  0  0  0  0  0  0  0  0  0
   11.5437  -20.3599   -6.9267 C   0  0  0  0  0  0  0  0  0  0  0  0
   11.9985  -21.7820   -7.0869 C   0  0  2  0  0  0  0  0  0  0  0  0
   13.3187  -21.8996   -6.4368 N   0  0  0  0  0  0  0  0  0  0  0  0
   12.1180  -22.1061   -8.5194 C   0  0  0  0  0  0  0  0  0  0  0  0
   13.1313  -21.9227   -9.2335 O   0  0  0  0  0  0  0  0  0  0  0  0
   10.9722  -22.6772   -9.1293 O   0  0  0  0  0  0  0  0  0  0  0  0
  2  1  1  0
  2  4  1  0
  3  2  2  0
  5  4  1  0
  5  6  1  0
  6  7  1  6
  8  9  2  0
  8  6  1  0
 10  8  1  0
 11 10  1  0
 11 12  1  0
 12 20  1  0
 13 12  2  0
 15 16  2  0
 15 14  1  0
 17 15  1  0
 18 17  1  0
 19 21  1  0
 19 18  1  6
 20 19  1  0
 21 23  1  0
 22 21  2  0
M  END
$$$$
