QGQ.pdb
     RDKit          3D

 23 22  0  0  1  0  0  0  0  0999 V2000
   30.3284  -21.7746   -9.8242 N   0  0  0  0  0  0  0  0  0  0  0  0
   29.8097  -21.0885   -8.6733 C   0  0  0  0  0  0  0  0  0  0  0  0
   30.5835  -20.8580   -7.7111 O   0  0  0  0  0  0  0  0  0  0  0  0
   28.3964  -20.6538   -8.6027 C   0  0  0  0  0  0  0  0  0  0  0  0
   27.7320  -20.9335   -9.9063 C   0  0  0  0  0  0  0  0  0  0  0  0
   26.3046  -20.3826   -9.9522 C   0  0  2  0  0  0  0  0  0  0  0  0
   25.4725  -20.9798   -8.9528 N   0  0  0  0  0  0  0  0  0  0  0  0
   25.8129  -20.6684  -11.3383 C   0  0  0  0  0  0  0  0  0  0  0  0
   26.6120  -21.1518  -12.1787 O   0  0  0  0  0  0  0  0  0  0  0  0
   24.4724  -20.4092  -11.7284 N   0  0  0  0  0  0  0  0  0  0  0  0
   23.7774  -21.0659  -12.7771 C   0  0  0  0  0  0  0  0  0  0  0  0
   22.3976  -20.6111  -13.0240 C   0  0  0  0  0  0  0  0  0  0  0  0
   21.8634  -19.7476  -12.2400 O   0  0  0  0  0  0  0  0  0  0  0  0
   18.5636  -22.3988  -17.7252 N   0  0  0  0  0  0  0  0  0  0  0  0
   17.7871  -21.4171  -17.0599 C   0  0  0  0  0  0  0  0  0  0  0  0
   16.6859  -21.0828  -17.5149 O   0  0  0  0  0  0  0  0  0  0  0  0
   18.2909  -20.7689  -15.7924 C   0  0  0  0  0  0  0  0  0  0  0  0
   19.6739  -21.2800  -15.4974 C   0  0  0  0  0  0  0  0  0  0  0  0
   20.1812  -20.6847  -14.2155 C   0  0  2  0  0  0  0  0  0  0  0  0
   21.6008  -21.0672  -14.0820 N   0  0  0  0  0  0  0  0  0  0  0  0
   19.4114  -21.2228  -13.0800 C   0  0  0  0  0  0  0  0  0  0  0  0
   19.6347  -22.3030  -12.4854 O   0  0  0  0  0  0  0  0  0  0  0  0
   18.3222  -20.4329  -12.6323 O   0  0  0  0  0  0  0  0  0  0  0  0
  2  1  1  0
  2  4  1  0
  3  2  2  0
  5  4  1  0
  5  6  1  0
  6  7  1  1
  8  9  2  0
  8  6  1  0
 10  8  1  0
 11 10  1  0
 11 12  1  0
 12 20  1  0
 13 12  2  0
 15 16  2  0
 15 14  1  0
 17 15  1  0
 18 17  1  0
 19 21  1  0
 19 18  1  6
 20 19  1  0
 21 23  1  0
 22 21  2  0
M  END
$$$$
