QGQ.pdb
     RDKit          3D

 23 22  0  0  1  0  0  0  0  0999 V2000
   18.6078  -14.2433  -13.9664 N   0  0  0  0  0  0  0  0  0  0  0  0
   18.1510  -14.5706  -15.2889 C   0  0  0  0  0  0  0  0  0  0  0  0
   17.4711  -15.6145  -15.4492 O   0  0  0  0  0  0  0  0  0  0  0  0
   18.4639  -13.7092  -16.4514 C   0  0  0  0  0  0  0  0  0  0  0  0
   19.3880  -12.6227  -16.0217 C   0  0  0  0  0  0  0  0  0  0  0  0
   19.8015  -11.7258  -17.1911 C   0  0  2  0  0  0  0  0  0  0  0  0
   21.0483  -12.1368  -17.7605 N   0  0  0  0  0  0  0  0  0  0  0  0
   19.8709  -10.3408  -16.6242 C   0  0  0  0  0  0  0  0  0  0  0  0
   18.8422   -9.8476  -16.0979 O   0  0  0  0  0  0  0  0  0  0  0  0
   21.0636   -9.5712  -16.6645 N   0  0  0  0  0  0  0  0  0  0  0  0
   21.2047   -8.2436  -16.1833 C   0  0  0  0  0  0  0  0  0  0  0  0
   20.4649   -7.2049  -16.9218 C   0  0  0  0  0  0  0  0  0  0  0  0
   19.7851   -7.5266  -17.9610 O   0  0  0  0  0  0  0  0  0  0  0  0
   15.5031   -4.9393  -17.1353 N   0  0  0  0  0  0  0  0  0  0  0  0
   16.1823   -4.7649  -15.9035 C   0  0  0  0  0  0  0  0  0  0  0  0
   15.5424   -4.5506  -14.8663 O   0  0  0  0  0  0  0  0  0  0  0  0
   17.6894   -4.8379  -15.8406 C   0  0  0  0  0  0  0  0  0  0  0  0
   18.2172   -5.2337  -17.1917 C   0  0  0  0  0  0  0  0  0  0  0  0
   19.6640   -4.8504  -17.3128 C   0  0  2  0  0  0  0  0  0  0  0  0
   20.4503   -5.8506  -16.5640 N   0  0  0  0  0  0  0  0  0  0  0  0
   19.8734   -3.5136  -16.7292 C   0  0  0  0  0  0  0  0  0  0  0  0
   20.4513   -3.2661  -15.6452 O   0  0  0  0  0  0  0  0  0  0  0  0
   19.3685   -2.4189  -17.4759 O   0  0  0  0  0  0  0  0  0  0  0  0
  2  1  1  0
  2  4  1  0
  3  2  2  0
  5  4  1  0
  5  6  1  0
  6  7  1  1
  8  9  2  0
  8  6  1  0
 10  8  1  0
 11 10  1  0
 11 12  1  0
 12 20  1  0
 13 12  2  0
 15 16  2  0
 15 14  1  0
 17 15  1  0
 18 17  1  0
 19 21  1  0
 19 18  1  1
 20 19  1  0
 21 23  1  0
 22 21  2  0
M  END
$$$$
