QGQ.pdb
     RDKit          3D

 23 22  0  0  1  0  0  0  0  0999 V2000
   16.7429  -10.7156  -17.5994 N   0  0  0  0  0  0  0  0  0  0  0  0
   17.0778  -12.0806  -17.8979 C   0  0  0  0  0  0  0  0  0  0  0  0
   17.7783  -12.3200  -18.9126 O   0  0  0  0  0  0  0  0  0  0  0  0
   16.6171  -13.1962  -17.0407 C   0  0  0  0  0  0  0  0  0  0  0  0
   15.8487  -12.6448  -15.8898 C   0  0  0  0  0  0  0  0  0  0  0  0
   16.6486  -12.7026  -14.5861 C   0  0  2  0  0  0  0  0  0  0  0  0
   17.0609  -14.0370  -14.2747 N   0  0  0  0  0  0  0  0  0  0  0  0
   15.7412  -12.1347  -13.5378 C   0  0  0  0  0  0  0  0  0  0  0  0
   14.9295  -12.8988  -12.9584 O   0  0  0  0  0  0  0  0  0  0  0  0
   15.7724  -10.7606  -13.1812 N   0  0  0  0  0  0  0  0  0  0  0  0
   14.9885  -10.1546  -12.1651 C   0  0  0  0  0  0  0  0  0  0  0  0
   15.6829   -9.1785  -11.3069 C   0  0  0  0  0  0  0  0  0  0  0  0
   16.9569   -9.2447  -11.1714 O   0  0  0  0  0  0  0  0  0  0  0  0
   14.0345   -4.9672  -12.1774 N   0  0  0  0  0  0  0  0  0  0  0  0
   15.3987   -5.1749  -12.5018 C   0  0  0  0  0  0  0  0  0  0  0  0
   15.8184   -4.8930  -13.6312 O   0  0  0  0  0  0  0  0  0  0  0  0
   16.3539   -5.7405  -11.4780 C   0  0  0  0  0  0  0  0  0  0  0  0
   15.6388   -5.8732  -10.1619 C   0  0  0  0  0  0  0  0  0  0  0  0
   15.7518   -7.2815   -9.6532 C   0  0  2  0  0  0  0  0  0  0  0  0
   15.0353   -8.1539  -10.6047 N   0  0  0  0  0  0  0  0  0  0  0  0
   15.1286   -7.3793   -8.3215 C   0  0  0  0  0  0  0  0  0  0  0  0
   14.0488   -7.9565   -8.0547 O   0  0  0  0  0  0  0  0  0  0  0  0
   15.8285   -6.7578   -7.2562 O   0  0  0  0  0  0  0  0  0  0  0  0
  2  1  1  0
  2  4  1  0
  3  2  2  0
  5  4  1  0
  5  6  1  0
  6  7  1  1
  8  9  2  0
  8  6  1  0
 10  8  1  0
 11 10  1  0
 11 12  1  0
 12 20  1  0
 13 12  2  0
 15 16  2  0
 15 14  1  0
 17 15  1  0
 18 17  1  0
 19 21  1  0
 19 18  1  6
 20 19  1  0
 21 23  1  0
 22 21  2  0
M  END
$$$$
