QGQ.pdb
     RDKit          3D

 23 22  0  0  1  0  0  0  0  0999 V2000
   30.2762  -13.0517  -19.1129 N   0  0  0  0  0  0  0  0  0  0  0  0
   28.8856  -12.7819  -19.3535 C   0  0  0  0  0  0  0  0  0  0  0  0
   28.4467  -12.8862  -20.5258 O   0  0  0  0  0  0  0  0  0  0  0  0
   27.9723  -12.3880  -18.2571 C   0  0  0  0  0  0  0  0  0  0  0  0
   28.7391  -12.3182  -16.9818 C   0  0  0  0  0  0  0  0  0  0  0  0
   27.8479  -11.9375  -15.7971 C   0  0  2  0  0  0  0  0  0  0  0  0
   26.6456  -12.7131  -15.7661 N   0  0  0  0  0  0  0  0  0  0  0  0
   27.5699  -10.4747  -15.9630 C   0  0  0  0  0  0  0  0  0  0  0  0
   28.5278   -9.6639  -15.9045 O   0  0  0  0  0  0  0  0  0  0  0  0
   26.2575   -9.9795  -16.1840 N   0  0  0  0  0  0  0  0  0  0  0  0
   25.9075   -8.6132  -16.3410 C   0  0  0  0  0  0  0  0  0  0  0  0
   24.4652   -8.3166  -16.3994 C   0  0  0  0  0  0  0  0  0  0  0  0
   23.6912   -9.0618  -17.1004 O   0  0  0  0  0  0  0  0  0  0  0  0
   20.4269  -10.3837  -14.1177 N   0  0  0  0  0  0  0  0  0  0  0  0
   19.6195   -9.3253  -14.6044 C   0  0  0  0  0  0  0  0  0  0  0  0
   18.3860   -9.4148  -14.5618 O   0  0  0  0  0  0  0  0  0  0  0  0
   20.2509   -8.0796  -15.1791 C   0  0  0  0  0  0  0  0  0  0  0  0
   21.7468   -8.2277  -15.1430 C   0  0  0  0  0  0  0  0  0  0  0  0
   22.3991   -7.0261  -15.7639 C   0  0  2  0  0  0  0  0  0  0  0  0
   23.8583   -7.2474  -15.7280 N   0  0  0  0  0  0  0  0  0  0  0  0
   22.0589   -5.8206  -14.9879 C   0  0  0  0  0  0  0  0  0  0  0  0
   20.9261   -5.2904  -14.9106 O   0  0  0  0  0  0  0  0  0  0  0  0
   23.1226   -5.2185  -14.2690 O   0  0  0  0  0  0  0  0  0  0  0  0
  2  1  1  0
  2  4  1  0
  3  2  2  0
  5  4  1  0
  5  6  1  0
  6  7  1  6
  8  9  2  0
  8  6  1  0
 10  8  1  0
 11 10  1  0
 11 12  1  0
 12 20  1  0
 13 12  2  0
 15 16  2  0
 15 14  1  0
 17 15  1  0
 18 17  1  0
 19 21  1  0
 19 18  1  1
 20 19  1  0
 21 23  1  0
 22 21  2  0
M  END
$$$$
