QGQ.pdb
     RDKit          3D

 23 22  0  0  1  0  0  0  0  0999 V2000
   16.6531  -14.9590  -16.0920 N   0  0  0  0  0  0  0  0  0  0  0  0
   17.9113  -15.6093  -16.3341 C   0  0  0  0  0  0  0  0  0  0  0  0
   17.9136  -16.8396  -16.5872 O   0  0  0  0  0  0  0  0  0  0  0  0
   19.1893  -14.8635  -16.2910 C   0  0  0  0  0  0  0  0  0  0  0  0
   18.9114  -13.4324  -15.9848 C   0  0  0  0  0  0  0  0  0  0  0  0
   19.5901  -12.4905  -16.9823 C   0  0  2  0  0  0  0  0  0  0  0  0
   21.0155  -12.6101  -16.9404 N   0  0  0  0  0  0  0  0  0  0  0  0
   19.1294  -11.1152  -16.6067 C   0  0  0  0  0  0  0  0  0  0  0  0
   17.9013  -10.8532  -16.6494 O   0  0  0  0  0  0  0  0  0  0  0  0
   20.0390  -10.1017  -16.2047 N   0  0  0  0  0  0  0  0  0  0  0  0
   19.6801   -8.8192  -15.7143 C   0  0  0  0  0  0  0  0  0  0  0  0
   20.7968   -7.9264  -15.3575 C   0  0  0  0  0  0  0  0  0  0  0  0
   22.0041   -8.3496  -15.4528 O   0  0  0  0  0  0  0  0  0  0  0  0
   19.9909   -3.6624  -18.7046 N   0  0  0  0  0  0  0  0  0  0  0  0
   20.3159   -3.6611  -17.3249 C   0  0  0  0  0  0  0  0  0  0  0  0
   19.7113   -2.9143  -16.5451 O   0  0  0  0  0  0  0  0  0  0  0  0
   21.3995   -4.5670  -16.7903 C   0  0  0  0  0  0  0  0  0  0  0  0
   21.4847   -4.4008  -15.2984 C   0  0  0  0  0  0  0  0  0  0  0  0
   21.7832   -5.7213  -14.6486 C   0  0  2  0  0  0  0  0  0  0  0  0
   20.6332   -6.6105  -14.9058 N   0  0  0  0  0  0  0  0  0  0  0  0
   21.9522   -5.5328  -13.1969 C   0  0  0  0  0  0  0  0  0  0  0  0
   21.1629   -5.9265  -12.3068 O   0  0  0  0  0  0  0  0  0  0  0  0
   23.1202   -4.8407  -12.7877 O   0  0  0  0  0  0  0  0  0  0  0  0
  2  1  1  0
  2  4  1  0
  3  2  2  0
  5  4  1  0
  5  6  1  0
  6  7  1  1
  8  9  2  0
  8  6  1  0
 10  8  1  0
 11 10  1  0
 11 12  1  0
 12 20  1  0
 13 12  2  0
 15 16  2  0
 15 14  1  0
 17 15  1  0
 18 17  1  0
 19 21  1  0
 19 18  1  6
 20 19  1  0
 21 23  1  0
 22 21  2  0
M  END
$$$$
