QGQ.pdb
     RDKit          3D

 23 22  0  0  1  0  0  0  0  0999 V2000
   17.9694  -15.1529  -13.9363 N   0  0  0  0  0  0  0  0  0  0  0  0
   16.7646  -15.9076  -14.1450 C   0  0  0  0  0  0  0  0  0  0  0  0
   16.7970  -17.1517  -13.9746 O   0  0  0  0  0  0  0  0  0  0  0  0
   15.5012  -15.2523  -14.5523 C   0  0  0  0  0  0  0  0  0  0  0  0
   15.7152  -13.7801  -14.6285 C   0  0  0  0  0  0  0  0  0  0  0  0
   15.6311  -13.2621  -16.0663 C   0  0  2  0  0  0  0  0  0  0  0  0
   16.6252  -13.8591  -16.9049 N   0  0  0  0  0  0  0  0  0  0  0  0
   15.7991  -11.7769  -15.9640 C   0  0  0  0  0  0  0  0  0  0  0  0
   14.9861  -11.1202  -15.2666 O   0  0  0  0  0  0  0  0  0  0  0  0
   16.8487  -11.0917  -16.6311 N   0  0  0  0  0  0  0  0  0  0  0  0
   17.0705   -9.6903  -16.5974 C   0  0  0  0  0  0  0  0  0  0  0  0
   17.6701   -9.1589  -15.3606 C   0  0  0  0  0  0  0  0  0  0  0  0
   17.6027   -9.8426  -14.2772 O   0  0  0  0  0  0  0  0  0  0  0  0
   23.1139   -7.7932  -14.6922 N   0  0  0  0  0  0  0  0  0  0  0  0
   22.4038   -6.8315  -15.4539 C   0  0  0  0  0  0  0  0  0  0  0  0
   22.9868   -6.1784  -16.3286 O   0  0  0  0  0  0  0  0  0  0  0  0
   20.9330   -6.5919  -15.2094 C   0  0  0  0  0  0  0  0  0  0  0  0
   20.4388   -7.5807  -14.1901 C   0  0  0  0  0  0  0  0  0  0  0  0
   18.9517   -7.4522  -14.0256 C   0  0  2  0  0  0  0  0  0  0  0  0
   18.3263   -7.9241  -15.2768 N   0  0  0  0  0  0  0  0  0  0  0  0
   18.5986   -6.0404  -13.7939 C   0  0  0  0  0  0  0  0  0  0  0  0
   18.0234   -5.2823  -14.6091 O   0  0  0  0  0  0  0  0  0  0  0  0
   18.9490   -5.5077  -12.5273 O   0  0  0  0  0  0  0  0  0  0  0  0
  2  1  1  0
  2  4  1  0
  3  2  2  0
  5  4  1  0
  5  6  1  0
  6  7  1  6
  8  9  2  0
  8  6  1  0
 10  8  1  0
 11 10  1  0
 11 12  1  0
 12 20  1  0
 13 12  2  0
 15 16  2  0
 15 14  1  0
 17 15  1  0
 18 17  1  0
 19 21  1  0
 19 18  1  6
 20 19  1  0
 21 23  1  0
 22 21  2  0
M  END
$$$$
