QGQ.pdb
     RDKit          3D

 23 22  0  0  1  0  0  0  0  0999 V2000
   24.3358  -19.2398  -14.9973 N   0  0  0  0  0  0  0  0  0  0  0  0
   24.2559  -19.7258  -16.3471 C   0  0  0  0  0  0  0  0  0  0  0  0
   23.3791  -20.5804  -16.6278 O   0  0  0  0  0  0  0  0  0  0  0  0
   25.1777  -19.2427  -17.3998 C   0  0  0  0  0  0  0  0  0  0  0  0
   26.0324  -18.1573  -16.8425 C   0  0  0  0  0  0  0  0  0  0  0  0
   27.5161  -18.5330  -16.8539 C   0  0  2  0  0  0  0  0  0  0  0  0
   27.7781  -19.6357  -17.7275 N   0  0  0  0  0  0  0  0  0  0  0  0
   27.8566  -18.8500  -15.4298 C   0  0  0  0  0  0  0  0  0  0  0  0
   27.7251  -17.9532  -14.5597 O   0  0  0  0  0  0  0  0  0  0  0  0
   28.3225  -20.1323  -15.0360 N   0  0  0  0  0  0  0  0  0  0  0  0
   28.5709  -20.5451  -13.7011 C   0  0  0  0  0  0  0  0  0  0  0  0
   27.5770  -20.1248  -12.6976 C   0  0  0  0  0  0  0  0  0  0  0  0
   27.7514  -19.0314  -12.0497 O   0  0  0  0  0  0  0  0  0  0  0  0
   21.5292  -21.1580  -12.8029 N   0  0  0  0  0  0  0  0  0  0  0  0
   21.6548  -20.5356  -11.5356 C   0  0  0  0  0  0  0  0  0  0  0  0
   20.6440  -20.2397  -10.8860 O   0  0  0  0  0  0  0  0  0  0  0  0
   23.0179  -20.2266  -10.9637 C   0  0  0  0  0  0  0  0  0  0  0  0
   24.0703  -20.6475  -11.9517 C   0  0  0  0  0  0  0  0  0  0  0  0
   25.4383  -20.3788  -11.3939 C   0  0  2  0  0  0  0  0  0  0  0  0
   26.4218  -20.8539  -12.3872 N   0  0  0  0  0  0  0  0  0  0  0  0
   25.6119  -21.1154  -10.1295 C   0  0  0  0  0  0  0  0  0  0  0  0
   26.1292  -22.2498  -10.0036 O   0  0  0  0  0  0  0  0  0  0  0  0
   25.1452  -20.4663   -8.9583 O   0  0  0  0  0  0  0  0  0  0  0  0
  2  1  1  0
  2  4  1  0
  3  2  2  0
  5  4  1  0
  5  6  1  0
  6  7  1  6
  8  9  2  0
  8  6  1  0
 10  8  1  0
 11 10  1  0
 11 12  1  0
 12 20  1  0
 13 12  2  0
 15 16  2  0
 15 14  1  0
 17 15  1  0
 18 17  1  0
 19 21  1  0
 19 18  1  6
 20 19  1  0
 21 23  1  0
 22 21  2  0
M  END
$$$$
