QGQ.pdb
     RDKit          3D

 23 22  0  0  1  0  0  0  0  0999 V2000
   21.3875  -17.5615  -15.9681 N   0  0  0  0  0  0  0  0  0  0  0  0
   22.6507  -18.0947  -15.5387 C   0  0  0  0  0  0  0  0  0  0  0  0
   22.7331  -18.5947  -14.3893 O   0  0  0  0  0  0  0  0  0  0  0  0
   23.8423  -18.0653  -16.4165 C   0  0  0  0  0  0  0  0  0  0  0  0
   24.7160  -16.9262  -16.0187 C   0  0  0  0  0  0  0  0  0  0  0  0
   24.7354  -15.8214  -17.0780 C   0  0  2  0  0  0  0  0  0  0  0  0
   25.6904  -16.0911  -18.1090 N   0  0  0  0  0  0  0  0  0  0  0  0
   25.0530  -14.5615  -16.3321 C   0  0  0  0  0  0  0  0  0  0  0  0
   26.0420  -14.5471  -15.5573 O   0  0  0  0  0  0  0  0  0  0  0  0
   24.2699  -13.3857  -16.4755 N   0  0  0  0  0  0  0  0  0  0  0  0
   24.4875  -12.1618  -15.7909 C   0  0  0  0  0  0  0  0  0  0  0  0
   23.4944  -11.0999  -16.0310 C   0  0  0  0  0  0  0  0  0  0  0  0
   22.5801  -11.2729  -16.9141 O   0  0  0  0  0  0  0  0  0  0  0  0
   19.3533  -10.1553  -13.4750 N   0  0  0  0  0  0  0  0  0  0  0  0
   20.1375   -8.9854  -13.3150 C   0  0  0  0  0  0  0  0  0  0  0  0
   19.5898   -7.8830  -13.1885 O   0  0  0  0  0  0  0  0  0  0  0  0
   21.6453   -9.0683  -13.2967 C   0  0  0  0  0  0  0  0  0  0  0  0
   22.2002   -8.1202  -14.3234 C   0  0  0  0  0  0  0  0  0  0  0  0
   22.4521   -8.8466  -15.6133 C   0  0  2  0  0  0  0  0  0  0  0  0
   23.4752   -9.8772  -15.3476 N   0  0  0  0  0  0  0  0  0  0  0  0
   22.9503   -7.8999  -16.6266 C   0  0  0  0  0  0  0  0  0  0  0  0
   24.1326   -7.8104  -17.0320 O   0  0  0  0  0  0  0  0  0  0  0  0
   21.9904   -7.0168  -17.1832 O   0  0  0  0  0  0  0  0  0  0  0  0
  2  1  1  0
  2  4  1  0
  3  2  2  0
  5  4  1  0
  5  6  1  0
  6  7  1  6
  8  9  2  0
  8  6  1  0
 10  8  1  0
 11 10  1  0
 11 12  1  0
 12 20  1  0
 13 12  2  0
 15 16  2  0
 15 14  1  0
 17 15  1  0
 18 17  1  0
 19 21  1  0
 19 18  1  1
 20 19  1  0
 21 23  1  0
 22 21  2  0
M  END
$$$$
