QGQ.pdb
     RDKit          3D

 23 22  0  0  1  0  0  0  0  0999 V2000
   21.7182  -20.7460  -11.6264 N   0  0  0  0  0  0  0  0  0  0  0  0
   22.4223  -20.6387  -10.3785 C   0  0  0  0  0  0  0  0  0  0  0  0
   21.7685  -20.3703   -9.3401 O   0  0  0  0  0  0  0  0  0  0  0  0
   23.8871  -20.8365  -10.2963 C   0  0  0  0  0  0  0  0  0  0  0  0
   24.4243  -21.0927  -11.6619 C   0  0  0  0  0  0  0  0  0  0  0  0
   25.9112  -21.4551  -11.6344 C   0  0  2  0  0  0  0  0  0  0  0  0
   26.6816  -20.4826  -10.9214 N   0  0  0  0  0  0  0  0  0  0  0  0
   26.3222  -21.5553  -13.0716 C   0  0  0  0  0  0  0  0  0  0  0  0
   25.8353  -22.4715  -13.7802 O   0  0  0  0  0  0  0  0  0  0  0  0
   27.2443  -20.6464  -13.6545 N   0  0  0  0  0  0  0  0  0  0  0  0
   27.5209  -20.5287  -15.0415 C   0  0  0  0  0  0  0  0  0  0  0  0
   26.6516  -19.6117  -15.7998 C   0  0  0  0  0  0  0  0  0  0  0  0
   25.4615  -19.3748  -15.3837 O   0  0  0  0  0  0  0  0  0  0  0  0
   30.2460  -17.3890  -17.2292 N   0  0  0  0  0  0  0  0  0  0  0  0
   29.3820  -17.1367  -18.3243 C   0  0  0  0  0  0  0  0  0  0  0  0
   29.7229  -17.4547  -19.4706 O   0  0  0  0  0  0  0  0  0  0  0  0
   28.0398  -16.4793  -18.1077 C   0  0  0  0  0  0  0  0  0  0  0  0
   26.9711  -17.3293  -18.7373 C   0  0  0  0  0  0  0  0  0  0  0  0
   26.1551  -18.0042  -17.6726 C   0  0  2  0  0  0  0  0  0  0  0  0
   27.0390  -18.9615  -16.9786 N   0  0  0  0  0  0  0  0  0  0  0  0
   25.0294  -18.7250  -18.2927 C   0  0  0  0  0  0  0  0  0  0  0  0
   25.0326  -19.9255  -18.6520 O   0  0  0  0  0  0  0  0  0  0  0  0
   23.8419  -17.9764  -18.4938 O   0  0  0  0  0  0  0  0  0  0  0  0
  2  1  1  0
  2  4  1  0
  3  2  2  0
  5  4  1  0
  5  6  1  0
  6  7  1  6
  8  9  2  0
  8  6  1  0
 10  8  1  0
 11 10  1  0
 11 12  1  0
 12 20  1  0
 13 12  2  0
 15 16  2  0
 15 14  1  0
 17 15  1  0
 18 17  1  0
 19 21  1  0
 19 18  1  6
 20 19  1  0
 21 23  1  0
 22 21  2  0
M  END
$$$$
