QGQ.pdb
     RDKit          3D

 23 22  0  0  1  0  0  0  0  0999 V2000
   25.3782  -23.8143  -14.6215 N   0  0  0  0  0  0  0  0  0  0  0  0
   25.3168  -22.6776  -15.4983 C   0  0  0  0  0  0  0  0  0  0  0  0
   25.9034  -22.7410  -16.6072 O   0  0  0  0  0  0  0  0  0  0  0  0
   24.5833  -21.4481  -15.1220 C   0  0  0  0  0  0  0  0  0  0  0  0
   23.9437  -21.6469  -13.7913 C   0  0  0  0  0  0  0  0  0  0  0  0
   22.4336  -21.8677  -13.9083 C   0  0  2  0  0  0  0  0  0  0  0  0
   21.7948  -20.8029  -14.6194 N   0  0  0  0  0  0  0  0  0  0  0  0
   21.9383  -21.9799  -12.4988 C   0  0  0  0  0  0  0  0  0  0  0  0
   22.7335  -21.7447  -11.5549 O   0  0  0  0  0  0  0  0  0  0  0  0
   20.5987  -22.3438  -12.1998 N   0  0  0  0  0  0  0  0  0  0  0  0
   20.0625  -22.5166  -10.8973 C   0  0  0  0  0  0  0  0  0  0  0  0
   18.6252  -22.8336  -10.8253 C   0  0  0  0  0  0  0  0  0  0  0  0
   17.9410  -22.9304  -11.9061 O   0  0  0  0  0  0  0  0  0  0  0  0
   18.2735  -24.5408   -6.5198 N   0  0  0  0  0  0  0  0  0  0  0  0
   17.6723  -25.5991   -7.2463 C   0  0  0  0  0  0  0  0  0  0  0  0
   18.1843  -26.7256   -7.2407 O   0  0  0  0  0  0  0  0  0  0  0  0
   16.4045  -25.3671   -8.0333 C   0  0  0  0  0  0  0  0  0  0  0  0
   16.1951  -23.8874   -8.1993 C   0  0  0  0  0  0  0  0  0  0  0  0
   16.5178  -23.4755   -9.6068 C   0  0  2  0  0  0  0  0  0  0  0  0
   17.9286  -23.0411   -9.6278 N   0  0  0  0  0  0  0  0  0  0  0  0
   15.6462  -22.3572  -10.0084 C   0  0  0  0  0  0  0  0  0  0  0  0
   15.8305  -21.1472   -9.7396 O   0  0  0  0  0  0  0  0  0  0  0  0
   14.4989  -22.6999  -10.7681 O   0  0  0  0  0  0  0  0  0  0  0  0
  2  1  1  0
  2  4  1  0
  3  2  2  0
  5  4  1  0
  5  6  1  0
  6  7  1  1
  8  9  2  0
  8  6  1  0
 10  8  1  0
 11 10  1  0
 11 12  1  0
 12 20  1  0
 13 12  2  0
 15 16  2  0
 15 14  1  0
 17 15  1  0
 18 17  1  0
 19 21  1  0
 19 18  1  1
 20 19  1  0
 21 23  1  0
 22 21  2  0
M  END
$$$$
