QGQ.pdb
     RDKit          3D

 23 22  0  0  1  0  0  0  0  0999 V2000
   25.7154  -20.5049  -17.1662 N   0  0  0  0  0  0  0  0  0  0  0  0
   26.9695  -20.5692  -16.4679 C   0  0  0  0  0  0  0  0  0  0  0  0
   28.0046  -20.8627  -17.1162 O   0  0  0  0  0  0  0  0  0  0  0  0
   27.0618  -20.2987  -15.0154 C   0  0  0  0  0  0  0  0  0  0  0  0
   25.6972  -20.0380  -14.4778 C   0  0  0  0  0  0  0  0  0  0  0  0
   25.2477  -21.1280  -13.5018 C   0  0  2  0  0  0  0  0  0  0  0  0
   25.2337  -22.4195  -14.1178 N   0  0  0  0  0  0  0  0  0  0  0  0
   23.8852  -20.7100  -13.0396 C   0  0  0  0  0  0  0  0  0  0  0  0
   23.6304  -19.4846  -12.9298 O   0  0  0  0  0  0  0  0  0  0  0  0
   22.8758  -21.6572  -12.7228 N   0  0  0  0  0  0  0  0  0  0  0  0
   21.5942  -21.3510  -12.1956 C   0  0  0  0  0  0  0  0  0  0  0  0
   20.6876  -22.4946  -11.9916 C   0  0  0  0  0  0  0  0  0  0  0  0
   21.1753  -23.6619  -11.7789 O   0  0  0  0  0  0  0  0  0  0  0  0
   19.4063  -24.3488   -7.5075 N   0  0  0  0  0  0  0  0  0  0  0  0
   18.3871  -25.1277   -8.1105 C   0  0  0  0  0  0  0  0  0  0  0  0
   17.8444  -26.0401   -7.4747 O   0  0  0  0  0  0  0  0  0  0  0  0
   17.9517  -24.8559   -9.5308 C   0  0  0  0  0  0  0  0  0  0  0  0
   18.7436  -23.6981  -10.0725 C   0  0  0  0  0  0  0  0  0  0  0  0
   18.4219  -23.4875  -11.5241 C   0  0  2  0  0  0  0  0  0  0  0  0
   19.2902  -22.3995  -12.0158 N   0  0  0  0  0  0  0  0  0  0  0  0
   17.0076  -23.0994  -11.6674 C   0  0  0  0  0  0  0  0  0  0  0  0
   16.5510  -21.9359  -11.5781 O   0  0  0  0  0  0  0  0  0  0  0  0
   16.0938  -24.1514  -11.9303 O   0  0  0  0  0  0  0  0  0  0  0  0
  2  1  1  0
  2  4  1  0
  3  2  2  0
  5  4  1  0
  5  6  1  0
  6  7  1  6
  8  9  2  0
  8  6  1  0
 10  8  1  0
 11 10  1  0
 11 12  1  0
 12 20  1  0
 13 12  2  0
 15 16  2  0
 15 14  1  0
 17 15  1  0
 18 17  1  0
 19 21  1  0
 19 18  1  1
 20 19  1  0
 21 23  1  0
 22 21  2  0
M  END
$$$$
