MHD.pdb
     RDKit          3D

 27 27  0  0  1  0  0  0  0  0999 V2000
    8.3580  -12.2089   27.9599 C   0  0  0  0  0  0  0  0  0  0  0  0
    6.8032  -11.7304   27.1865 S   0  0  0  0  0  0  0  0  0  0  0  0
    6.0907  -12.9608   26.1042 C   0  0  0  0  0  0  0  0  0  0  0  0
    7.0901  -13.8278   25.4403 C   0  0  0  0  0  0  0  0  0  0  0  0
    6.5518  -14.8002   24.4421 C   0  0  2  0  0  0  0  0  0  0  0  0
    5.7241  -15.8048   25.0861 N   0  0  0  0  0  0  0  0  0  0  0  0
    7.7554  -15.5170   23.8617 C   0  0  0  0  0  0  0  0  0  0  0  0
    7.9784  -16.6614   24.3159 O   0  0  0  0  0  0  0  0  0  0  0  0
    8.5828  -14.9510   22.8749 N   0  0  0  0  0  0  0  0  0  0  0  0
    9.5252  -15.8365   22.1517 C   0  0  1  0  0  0  0  0  0  0  0  0
   10.0076  -15.0843   20.9590 C   0  0  0  0  0  0  0  0  0  0  0  0
    8.9496  -14.7066   20.0104 C   0  0  0  0  0  0  0  0  0  0  0  0
    8.1488  -15.4650   19.2221 C   0  0  0  0  0  0  0  0  0  0  0  0
    7.2893  -14.6300   18.5854 N   0  0  0  0  0  0  0  0  0  0  0  0
    7.5344  -13.3772   18.9581 C   0  0  0  0  0  0  0  0  0  0  0  0
    8.5348  -13.4135   19.8184 N   0  0  0  0  0  0  0  0  0  0  0  0
   10.7086  -16.0129   23.0656 C   0  0  0  0  0  0  0  0  0  0  0  0
   11.2189  -15.1155   23.7500 O   0  0  0  0  0  0  0  0  0  0  0  0
   11.3492  -17.3033   23.2031 N   0  0  0  0  0  0  0  0  0  0  0  0
   12.4486  -17.5282   24.1172 C   0  0  1  0  0  0  0  0  0  0  0  0
   12.4574  -18.9440   24.6479 C   0  0  0  0  0  0  0  0  0  0  0  0
   12.0801  -19.0266   26.0638 C   0  0  0  0  0  0  0  0  0  0  0  0
   11.9988  -17.9636   26.7267 O   0  0  0  0  0  0  0  0  0  0  0  0
   13.7378  -17.1163   23.5605 C   0  0  0  0  0  0  0  0  0  0  0  0
   14.7835  -17.1339   24.2468 O   0  0  0  0  0  0  0  0  0  0  0  0
   11.8040  -20.2097   26.7285 O   0  0  0  0  0  0  0  0  0  0  0  0
   13.8287  -16.6936   22.2477 O   0  0  0  0  0  0  0  0  0  0  0  0
  2  1  1  0
  3  2  1  0
  4  3  1  0
  4  5  1  0
  5  7  1  0
  5  6  1  1
  7  8  2  0
  9 10  1  0
  9  7  1  0
 11 12  1  0
 10 11  1  6
 12 13  2  0
 14 13  1  0
 15 14  1  0
 16 15  2  0
 16 12  1  0
 17 18  2  0
 17 10  1  0
 19 17  1  0
 20 24  1  0
 20 19  1  0
 20 21  1  6
 22 21  1  0
 23 22  2  0
 24 27  1  0
 25 24  2  0
 26 22  1  0
M  END
$$$$
