MHD.pdb
     RDKit          3D

 27 27  0  0  1  0  0  0  0  0999 V2000
    6.0936  -10.9751   27.2979 C   0  0  0  0  0  0  0  0  0  0  0  0
    7.0983  -12.3856   26.8025 S   0  0  0  0  0  0  0  0  0  0  0  0
    6.4802  -13.2919   25.3920 C   0  0  0  0  0  0  0  0  0  0  0  0
    7.3402  -14.4250   24.9823 C   0  0  0  0  0  0  0  0  0  0  0  0
    6.8959  -15.1784   23.7712 C   0  0  2  0  0  0  0  0  0  0  0  0
    5.6167  -15.8267   24.0001 N   0  0  0  0  0  0  0  0  0  0  0  0
    7.9214  -16.2749   23.5582 C   0  0  0  0  0  0  0  0  0  0  0  0
    7.4663  -17.3827   23.1959 O   0  0  0  0  0  0  0  0  0  0  0  0
    9.3015  -16.0817   23.7497 N   0  0  0  0  0  0  0  0  0  0  0  0
   10.2430  -16.7563   22.8256 C   0  0  1  0  0  0  0  0  0  0  0  0
   10.3064  -15.9331   21.5848 C   0  0  0  0  0  0  0  0  0  0  0  0
    9.2925  -16.2753   20.5765 C   0  0  0  0  0  0  0  0  0  0  0  0
    8.5635  -17.4038   20.3948 C   0  0  0  0  0  0  0  0  0  0  0  0
    7.7147  -17.1824   19.3595 N   0  0  0  0  0  0  0  0  0  0  0  0
    7.8966  -15.9492   18.8964 C   0  0  0  0  0  0  0  0  0  0  0  0
    8.8469  -15.3938   19.6250 N   0  0  0  0  0  0  0  0  0  0  0  0
   11.5965  -16.6674   23.4789 C   0  0  0  0  0  0  0  0  0  0  0  0
   12.2806  -15.6381   23.5610 O   0  0  0  0  0  0  0  0  0  0  0  0
   12.2057  -17.8361   24.0769 N   0  0  0  0  0  0  0  0  0  0  0  0
   13.5214  -17.8007   24.6790 C   0  0  1  0  0  0  0  0  0  0  0  0
   13.8496  -19.0951   25.3882 C   0  0  0  0  0  0  0  0  0  0  0  0
   12.9937  -19.3413   26.5548 C   0  0  0  0  0  0  0  0  0  0  0  0
   12.2046  -18.4367   26.9223 O   0  0  0  0  0  0  0  0  0  0  0  0
   14.5610  -17.3827   23.7378 C   0  0  0  0  0  0  0  0  0  0  0  0
   14.5331  -17.7270   22.5355 O   0  0  0  0  0  0  0  0  0  0  0  0
   12.9953  -20.5162   27.2878 O   0  0  0  0  0  0  0  0  0  0  0  0
   15.6094  -16.5883   24.1625 O   0  0  0  0  0  0  0  0  0  0  0  0
  2  1  1  0
  3  2  1  0
  4  3  1  0
  4  5  1  0
  5  7  1  0
  5  6  1  1
  7  8  2  0
  9 10  1  0
  9  7  1  0
 11 12  1  0
 10 11  1  6
 12 13  2  0
 14 13  1  0
 15 14  1  0
 16 15  2  0
 16 12  1  0
 17 18  2  0
 17 10  1  0
 19 17  1  0
 20 24  1  0
 20 19  1  0
 20 21  1  6
 22 21  1  0
 23 22  2  0
 24 27  1  0
 25 24  2  0
 26 22  1  0
M  END
$$$$
