MHD.pdb
     RDKit          3D

 27 27  0  0  1  0  0  0  0  0999 V2000
    8.8172  -11.3726   19.6835 C   0  0  0  0  0  0  0  0  0  0  0  0
    7.2648  -12.2067   20.0562 S   0  0  0  0  0  0  0  0  0  0  0  0
    7.4181  -13.9442   20.4442 C   0  0  0  0  0  0  0  0  0  0  0  0
    8.5895  -14.5983   19.8187 C   0  0  0  0  0  0  0  0  0  0  0  0
    8.8342  -16.0180   20.2142 C   0  0  2  0  0  0  0  0  0  0  0  0
    7.5940  -16.7730   20.2421 N   0  0  0  0  0  0  0  0  0  0  0  0
    9.3632  -15.9739   21.6346 C   0  0  0  0  0  0  0  0  0  0  0  0
   10.5012  -15.4735   21.7762 O   0  0  0  0  0  0  0  0  0  0  0  0
    8.6381  -16.4588   22.7382 N   0  0  0  0  0  0  0  0  0  0  0  0
    9.2306  -16.3167   24.0888 C   0  0  1  0  0  0  0  0  0  0  0  0
    8.1011  -16.1964   25.0537 C   0  0  0  0  0  0  0  0  0  0  0  0
    7.5676  -14.8339   25.1973 C   0  0  0  0  0  0  0  0  0  0  0  0
    8.1043  -13.6299   24.8806 C   0  0  0  0  0  0  0  0  0  0  0  0
    7.1719  -12.6811   25.1483 N   0  0  0  0  0  0  0  0  0  0  0  0
    6.0734  -13.2634   25.6202 C   0  0  0  0  0  0  0  0  0  0  0  0
    6.3027  -14.5630   25.6531 N   0  0  0  0  0  0  0  0  0  0  0  0
    9.9154  -17.6259   24.3783 C   0  0  0  0  0  0  0  0  0  0  0  0
    9.5240  -18.7348   23.9893 O   0  0  0  0  0  0  0  0  0  0  0  0
   11.1288  -17.6659   25.1661 N   0  0  0  0  0  0  0  0  0  0  0  0
   11.8979  -18.8794   25.3418 C   0  0  1  0  0  0  0  0  0  0  0  0
   13.2984  -18.7418   24.7887 C   0  0  0  0  0  0  0  0  0  0  0  0
   14.1624  -19.8782   25.1295 C   0  0  0  0  0  0  0  0  0  0  0  0
   14.0041  -20.9595   24.5116 O   0  0  0  0  0  0  0  0  0  0  0  0
   11.8712  -19.3690   26.7205 C   0  0  0  0  0  0  0  0  0  0  0  0
   12.3578  -20.4789   27.0312 O   0  0  0  0  0  0  0  0  0  0  0  0
   15.1524  -19.8411   26.0971 O   0  0  0  0  0  0  0  0  0  0  0  0
   11.3005  -18.6060   27.7219 O   0  0  0  0  0  0  0  0  0  0  0  0
  2  1  1  0
  3  2  1  0
  4  3  1  0
  4  5  1  0
  5  7  1  0
  5  6  1  1
  7  8  2  0
  9 10  1  0
  9  7  1  0
 11 12  1  0
 10 11  1  1
 12 13  2  0
 14 13  1  0
 15 14  1  0
 16 15  2  0
 16 12  1  0
 17 18  2  0
 17 10  1  0
 19 17  1  0
 20 24  1  0
 20 19  1  0
 20 21  1  1
 22 21  1  0
 23 22  2  0
 24 27  1  0
 25 24  2  0
 26 22  1  0
M  END
$$$$
