MHD.pdb
     RDKit          3D

 27 27  0  0  1  0  0  0  0  0999 V2000
    6.5663  -10.9995   19.6010 C   0  0  0  0  0  0  0  0  0  0  0  0
    8.0945  -11.9529   19.6059 S   0  0  0  0  0  0  0  0  0  0  0  0
    7.9070  -13.6778   19.1788 C   0  0  0  0  0  0  0  0  0  0  0  0
    9.1763  -14.4394   19.1843 C   0  0  0  0  0  0  0  0  0  0  0  0
    9.9616  -14.4108   17.9137 C   0  0  2  0  0  0  0  0  0  0  0  0
    9.3222  -15.2146   16.8871 N   0  0  0  0  0  0  0  0  0  0  0  0
   11.2939  -15.0631   18.2277 C   0  0  0  0  0  0  0  0  0  0  0  0
   11.3239  -16.3107   18.1364 O   0  0  0  0  0  0  0  0  0  0  0  0
   12.4367  -14.3322   18.6000 N   0  0  0  0  0  0  0  0  0  0  0  0
   13.7138  -15.0622   18.7777 C   0  0  1  0  0  0  0  0  0  0  0  0
   14.7950  -14.1961   18.2282 C   0  0  0  0  0  0  0  0  0  0  0  0
   15.1683  -14.4988   16.8387 C   0  0  0  0  0  0  0  0  0  0  0  0
   14.6750  -15.4081   15.9625 C   0  0  0  0  0  0  0  0  0  0  0  0
   15.3210  -15.2336   14.7819 N   0  0  0  0  0  0  0  0  0  0  0  0
   16.1987  -14.2418   14.9022 C   0  0  0  0  0  0  0  0  0  0  0  0
   16.1135  -13.7918   16.1402 N   0  0  0  0  0  0  0  0  0  0  0  0
   13.9357  -15.1485   20.2643 C   0  0  0  0  0  0  0  0  0  0  0  0
   13.7189  -14.2333   21.0703 O   0  0  0  0  0  0  0  0  0  0  0  0
   14.4399  -16.3643   20.8661 N   0  0  0  0  0  0  0  0  0  0  0  0
   14.7014  -16.4748   22.2853 C   0  0  1  0  0  0  0  0  0  0  0  0
   14.5904  -17.9036   22.7674 C   0  0  0  0  0  0  0  0  0  0  0  0
   13.2711  -18.4932   22.5107 C   0  0  0  0  0  0  0  0  0  0  0  0
   12.2485  -17.8132   22.7711 O   0  0  0  0  0  0  0  0  0  0  0  0
   15.9558  -15.8323   22.6791 C   0  0  0  0  0  0  0  0  0  0  0  0
   16.7566  -15.3829   21.8296 O   0  0  0  0  0  0  0  0  0  0  0  0
   13.0726  -19.7630   21.9950 O   0  0  0  0  0  0  0  0  0  0  0  0
   16.2869  -15.7065   24.0152 O   0  0  0  0  0  0  0  0  0  0  0  0
  2  1  1  0
  3  2  1  0
  4  3  1  0
  4  5  1  0
  5  7  1  0
  5  6  1  6
  7  8  2  0
  9 10  1  0
  9  7  1  0
 11 12  1  0
 10 11  1  6
 12 13  2  0
 14 13  1  0
 15 14  1  0
 16 15  2  0
 16 12  1  0
 17 18  2  0
 17 10  1  0
 19 17  1  0
 20 24  1  0
 20 19  1  0
 20 21  1  6
 22 21  1  0
 23 22  2  0
 24 27  1  0
 25 24  2  0
 26 22  1  0
M  END
$$$$
