MHD.pdb
     RDKit          3D

 27 27  0  0  1  0  0  0  0  0999 V2000
    8.5878  -11.1862   20.2628 C   0  0  0  0  0  0  0  0  0  0  0  0
    8.0193  -12.6972   19.4639 S   0  0  0  0  0  0  0  0  0  0  0  0
    9.2345  -13.5076   18.4347 C   0  0  0  0  0  0  0  0  0  0  0  0
   10.6297  -13.3219   18.8930 C   0  0  0  0  0  0  0  0  0  0  0  0
   11.4511  -14.5645   19.0076 C   0  0  2  0  0  0  0  0  0  0  0  0
   10.8494  -15.6581   18.2653 N   0  0  0  0  0  0  0  0  0  0  0  0
   11.4261  -14.9516   20.4735 C   0  0  0  0  0  0  0  0  0  0  0  0
   11.8279  -14.0778   21.2740 O   0  0  0  0  0  0  0  0  0  0  0  0
   10.9836  -16.2073   20.9275 N   0  0  0  0  0  0  0  0  0  0  0  0
   10.8325  -16.4167   22.3865 C   0  0  1  0  0  0  0  0  0  0  0  0
    9.5520  -17.1502   22.5949 C   0  0  0  0  0  0  0  0  0  0  0  0
    8.3489  -16.3865   22.2330 C   0  0  0  0  0  0  0  0  0  0  0  0
    7.7491  -15.3314   22.8373 C   0  0  0  0  0  0  0  0  0  0  0  0
    6.7043  -14.9517   22.0592 N   0  0  0  0  0  0  0  0  0  0  0  0
    6.6412  -15.7405   20.9904 C   0  0  0  0  0  0  0  0  0  0  0  0
    7.6301  -16.6095   21.0864 N   0  0  0  0  0  0  0  0  0  0  0  0
   11.9424  -17.3523   22.7857 C   0  0  0  0  0  0  0  0  0  0  0  0
   12.0648  -18.5201   22.3913 O   0  0  0  0  0  0  0  0  0  0  0  0
   12.9799  -16.9204   23.6976 N   0  0  0  0  0  0  0  0  0  0  0  0
   14.0476  -17.7982   24.1270 C   0  0  1  0  0  0  0  0  0  0  0  0
   15.3725  -17.0741   24.2064 C   0  0  0  0  0  0  0  0  0  0  0  0
   15.7119  -16.3646   22.9672 C   0  0  0  0  0  0  0  0  0  0  0  0
   15.5892  -16.9713   21.8750 O   0  0  0  0  0  0  0  0  0  0  0  0
   13.7188  -18.5285   25.3518 C   0  0  0  0  0  0  0  0  0  0  0  0
   12.6597  -18.3099   25.9806 O   0  0  0  0  0  0  0  0  0  0  0  0
   16.1638  -15.0565   22.9174 O   0  0  0  0  0  0  0  0  0  0  0  0
   14.5824  -19.4878   25.8463 O   0  0  0  0  0  0  0  0  0  0  0  0
  2  1  1  0
  3  2  1  0
  4  3  1  0
  4  5  1  0
  5  7  1  0
  5  6  1  6
  7  8  2  0
  9 10  1  0
  9  7  1  0
 11 12  1  0
 10 11  1  6
 12 13  2  0
 14 13  1  0
 15 14  1  0
 16 15  2  0
 16 12  1  0
 17 18  2  0
 17 10  1  0
 19 17  1  0
 20 24  1  0
 20 19  1  0
 20 21  1  1
 22 21  1  0
 23 22  2  0
 24 27  1  0
 25 24  2  0
 26 22  1  0
M  END
$$$$
