MHD.pdb
     RDKit          3D

 27 27  0  0  1  0  0  0  0  0999 V2000
    7.3682  -11.7083   27.0534 C   0  0  0  0  0  0  0  0  0  0  0  0
    6.4585  -13.1798   26.5518 S   0  0  0  0  0  0  0  0  0  0  0  0
    7.4074  -14.6937   26.5690 C   0  0  0  0  0  0  0  0  0  0  0  0
    6.6327  -15.8927   26.1770 C   0  0  0  0  0  0  0  0  0  0  0  0
    6.1692  -15.9363   24.7574 C   0  0  2  0  0  0  0  0  0  0  0  0
    5.3047  -17.0800   24.5258 N   0  0  0  0  0  0  0  0  0  0  0  0
    7.4134  -16.1381   23.9146 C   0  0  0  0  0  0  0  0  0  0  0  0
    7.9140  -17.2843   23.9488 O   0  0  0  0  0  0  0  0  0  0  0  0
    7.9861  -15.1160   23.1359 N   0  0  0  0  0  0  0  0  0  0  0  0
    9.1694  -15.4410   22.3055 C   0  0  1  0  0  0  0  0  0  0  0  0
    9.3831  -14.2947   21.3773 C   0  0  0  0  0  0  0  0  0  0  0  0
    8.4372  -14.2392   20.2531 C   0  0  0  0  0  0  0  0  0  0  0  0
    7.3870  -15.0346   19.9334 C   0  0  0  0  0  0  0  0  0  0  0  0
    6.7941  -14.5094   18.8316 N   0  0  0  0  0  0  0  0  0  0  0  0
    7.4465  -13.4114   18.4611 C   0  0  0  0  0  0  0  0  0  0  0  0
    8.4398  -13.2401   19.3135 N   0  0  0  0  0  0  0  0  0  0  0  0
   10.3418  -15.4636   23.2497 C   0  0  0  0  0  0  0  0  0  0  0  0
   10.5063  -14.6845   24.1984 O   0  0  0  0  0  0  0  0  0  0  0  0
   11.3953  -16.4439   23.0953 N   0  0  0  0  0  0  0  0  0  0  0  0
   12.0953  -17.0127   24.2273 C   0  0  1  0  0  0  0  0  0  0  0  0
   11.1383  -17.5354   25.2747 C   0  0  0  0  0  0  0  0  0  0  0  0
   11.8207  -18.1873   26.3988 C   0  0  0  0  0  0  0  0  0  0  0  0
   13.0746  -18.1463   26.4455 O   0  0  0  0  0  0  0  0  0  0  0  0
   13.1040  -17.9957   23.8303 C   0  0  0  0  0  0  0  0  0  0  0  0
   13.8511  -18.5439   24.6707 O   0  0  0  0  0  0  0  0  0  0  0  0
   11.1704  -18.8528   27.4245 O   0  0  0  0  0  0  0  0  0  0  0  0
   13.2549  -18.3439   22.5012 O   0  0  0  0  0  0  0  0  0  0  0  0
  2  1  1  0
  3  2  1  0
  4  3  1  0
  4  5  1  0
  5  7  1  0
  5  6  1  1
  7  8  2  0
  9 10  1  0
  9  7  1  0
 11 12  1  0
 10 11  1  6
 12 13  2  0
 14 13  1  0
 15 14  1  0
 16 15  2  0
 16 12  1  0
 17 18  2  0
 17 10  1  0
 19 17  1  0
 20 24  1  0
 20 19  1  0
 20 21  1  1
 22 21  1  0
 23 22  2  0
 24 27  1  0
 25 24  2  0
 26 22  1  0
M  END
$$$$
