MHD.pdb
     RDKit          3D

 27 27  0  0  1  0  0  0  0  0999 V2000
    9.0100  -12.2025   27.2206 C   0  0  0  0  0  0  0  0  0  0  0  0
    7.5535  -12.8243   28.0787 S   0  0  0  0  0  0  0  0  0  0  0  0
    6.9524  -14.4025   27.4950 C   0  0  0  0  0  0  0  0  0  0  0  0
    6.6457  -14.4302   26.0471 C   0  0  0  0  0  0  0  0  0  0  0  0
    6.1604  -15.7355   25.5063 C   0  0  2  0  0  0  0  0  0  0  0  0
    6.6024  -16.8413   26.3375 N   0  0  0  0  0  0  0  0  0  0  0  0
    6.8215  -15.9018   24.1519 C   0  0  0  0  0  0  0  0  0  0  0  0
    7.2960  -17.0347   23.9133 O   0  0  0  0  0  0  0  0  0  0  0  0
    6.9076  -14.8624   23.2079 N   0  0  0  0  0  0  0  0  0  0  0  0
    7.5191  -15.1551   21.8904 C   0  0  1  0  0  0  0  0  0  0  0  0
    7.1224  -14.0541   20.9676 C   0  0  0  0  0  0  0  0  0  0  0  0
    7.6512  -14.1862   19.6020 C   0  0  0  0  0  0  0  0  0  0  0  0
    7.3747  -15.0825   18.6233 C   0  0  0  0  0  0  0  0  0  0  0  0
    8.0831  -14.7219   17.5236 N   0  0  0  0  0  0  0  0  0  0  0  0
    8.7890  -13.6276   17.7933 C   0  0  0  0  0  0  0  0  0  0  0  0
    8.5344  -13.2966   19.0456 N   0  0  0  0  0  0  0  0  0  0  0  0
    9.0067  -15.0418   22.0923 C   0  0  0  0  0  0  0  0  0  0  0  0
    9.5692  -14.1634   22.7602 O   0  0  0  0  0  0  0  0  0  0  0  0
    9.9087  -15.9988   21.4878 N   0  0  0  0  0  0  0  0  0  0  0  0
   11.2930  -16.1202   21.8924 C   0  0  1  0  0  0  0  0  0  0  0  0
   11.4286  -16.2811   23.3897 C   0  0  0  0  0  0  0  0  0  0  0  0
   12.8122  -16.5217   23.8164 C   0  0  0  0  0  0  0  0  0  0  0  0
   13.5821  -15.5379   23.9406 O   0  0  0  0  0  0  0  0  0  0  0  0
   12.0129  -17.1467   21.1377 C   0  0  0  0  0  0  0  0  0  0  0  0
   13.2463  -17.0721   20.9423 O   0  0  0  0  0  0  0  0  0  0  0  0
   13.3346  -17.7736   24.0951 O   0  0  0  0  0  0  0  0  0  0  0  0
   11.3369  -18.2344   20.6179 O   0  0  0  0  0  0  0  0  0  0  0  0
  2  1  1  0
  3  2  1  0
  4  3  1  0
  4  5  1  0
  5  7  1  0
  5  6  1  1
  7  8  2  0
  9 10  1  0
  9  7  1  0
 11 12  1  0
 10 11  1  6
 12 13  2  0
 14 13  1  0
 15 14  1  0
 16 15  2  0
 16 12  1  0
 17 18  2  0
 17 10  1  0
 19 17  1  0
 20 24  1  0
 20 19  1  0
 20 21  1  1
 22 21  1  0
 23 22  2  0
 24 27  1  0
 25 24  2  0
 26 22  1  0
M  END
$$$$
