MHD.pdb
     RDKit          3D

 27 27  0  0  1  0  0  0  0  0999 V2000
    8.8296  -12.2367   27.4413 C   0  0  0  0  0  0  0  0  0  0  0  0
    7.0374  -12.3861   27.5431 S   0  0  0  0  0  0  0  0  0  0  0  0
    6.3104  -13.5321   26.3808 C   0  0  0  0  0  0  0  0  0  0  0  0
    7.2999  -14.2484   25.5446 C   0  0  0  0  0  0  0  0  0  0  0  0
    6.7379  -15.1373   24.4836 C   0  0  2  0  0  0  0  0  0  0  0  0
    5.9900  -16.2372   25.0665 N   0  0  0  0  0  0  0  0  0  0  0  0
    7.9295  -15.7384   23.7638 C   0  0  0  0  0  0  0  0  0  0  0  0
    8.2385  -16.9030   24.1014 O   0  0  0  0  0  0  0  0  0  0  0  0
    8.6562  -15.0492   22.7760 N   0  0  0  0  0  0  0  0  0  0  0  0
    9.6913  -15.7893   22.0168 C   0  0  1  0  0  0  0  0  0  0  0  0
   10.0355  -14.9642   20.8243 C   0  0  0  0  0  0  0  0  0  0  0  0
    8.9245  -14.7659   19.8819 C   0  0  0  0  0  0  0  0  0  0  0  0
    8.1307  -15.6588   19.2412 C   0  0  0  0  0  0  0  0  0  0  0  0
    7.2081  -14.9566   18.5361 N   0  0  0  0  0  0  0  0  0  0  0  0
    7.4076  -13.6551   18.7231 C   0  0  0  0  0  0  0  0  0  0  0  0
    8.4414  -13.5303   19.5343 N   0  0  0  0  0  0  0  0  0  0  0  0
   10.9111  -15.8132   22.8989 C   0  0  0  0  0  0  0  0  0  0  0  0
   11.5694  -14.8175   23.2297 O   0  0  0  0  0  0  0  0  0  0  0  0
   11.4089  -17.0612   23.4366 N   0  0  0  0  0  0  0  0  0  0  0  0
   12.5659  -17.1237   24.3039 C   0  0  1  0  0  0  0  0  0  0  0  0
   12.3992  -18.1634   25.3889 C   0  0  0  0  0  0  0  0  0  0  0  0
   11.9975  -19.4752   24.8674 C   0  0  0  0  0  0  0  0  0  0  0  0
   11.8054  -19.5976   23.6329 O   0  0  0  0  0  0  0  0  0  0  0  0
   13.8194  -17.2645   23.5622 C   0  0  0  0  0  0  0  0  0  0  0  0
   13.8310  -17.5223   22.3381 O   0  0  0  0  0  0  0  0  0  0  0  0
   11.8130  -20.6018   25.6514 O   0  0  0  0  0  0  0  0  0  0  0  0
   15.0330  -17.1137   24.2064 O   0  0  0  0  0  0  0  0  0  0  0  0
  2  1  1  0
  3  2  1  0
  4  3  1  0
  4  5  1  0
  5  7  1  0
  5  6  1  1
  7  8  2  0
  9 10  1  0
  9  7  1  0
 11 12  1  0
 10 11  1  6
 12 13  2  0
 14 13  1  0
 15 14  1  0
 16 15  2  0
 16 12  1  0
 17 18  2  0
 17 10  1  0
 19 17  1  0
 20 24  1  0
 20 19  1  0
 20 21  1  1
 22 21  1  0
 23 22  2  0
 24 27  1  0
 25 24  2  0
 26 22  1  0
M  END
$$$$
