MHD.pdb
     RDKit          3D

 27 27  0  0  1  0  0  0  0  0999 V2000
    8.1035  -11.7179   19.4604 C   0  0  0  0  0  0  0  0  0  0  0  0
    6.9841  -13.0532   19.0037 S   0  0  0  0  0  0  0  0  0  0  0  0
    7.4954  -14.6799   19.5378 C   0  0  0  0  0  0  0  0  0  0  0  0
    8.1822  -14.6933   20.8490 C   0  0  0  0  0  0  0  0  0  0  0  0
    7.5287  -15.5026   21.9213 C   0  0  2  0  0  0  0  0  0  0  0  0
    6.1463  -15.0996   22.1099 N   0  0  0  0  0  0  0  0  0  0  0  0
    8.2686  -15.1771   23.2042 C   0  0  0  0  0  0  0  0  0  0  0  0
    8.2687  -13.9722   23.5416 O   0  0  0  0  0  0  0  0  0  0  0  0
    8.9207  -16.1514   23.9816 N   0  0  0  0  0  0  0  0  0  0  0  0
    9.7595  -15.7020   25.1173 C   0  0  1  0  0  0  0  0  0  0  0  0
    8.9502  -15.8752   26.3568 C   0  0  0  0  0  0  0  0  0  0  0  0
    9.6278  -15.4468   27.5893 C   0  0  0  0  0  0  0  0  0  0  0  0
   10.8125  -14.8160   27.7805 C   0  0  0  0  0  0  0  0  0  0  0  0
   10.9450  -14.5850   29.1111 N   0  0  0  0  0  0  0  0  0  0  0  0
    9.8760  -15.0536   29.7484 C   0  0  0  0  0  0  0  0  0  0  0  0
    9.0752  -15.5754   28.8379 N   0  0  0  0  0  0  0  0  0  0  0  0
   10.9004  -16.6809   25.1996 C   0  0  0  0  0  0  0  0  0  0  0  0
   10.7843  -17.9135   25.1625 O   0  0  0  0  0  0  0  0  0  0  0  0
   12.2642  -16.2154   25.3340 N   0  0  0  0  0  0  0  0  0  0  0  0
   13.3783  -17.1230   25.5069 C   0  0  1  0  0  0  0  0  0  0  0  0
   14.6835  -16.5009   25.0645 C   0  0  0  0  0  0  0  0  0  0  0  0
   14.6761  -16.0984   23.6531 C   0  0  0  0  0  0  0  0  0  0  0  0
   14.1659  -16.8757   22.8096 O   0  0  0  0  0  0  0  0  0  0  0  0
   13.4404  -17.6888   26.8551 C   0  0  0  0  0  0  0  0  0  0  0  0
   12.6424  -17.3354   27.7513 O   0  0  0  0  0  0  0  0  0  0  0  0
   15.1989  -14.9063   23.1805 O   0  0  0  0  0  0  0  0  0  0  0  0
   14.3943  -18.6378   27.1711 O   0  0  0  0  0  0  0  0  0  0  0  0
  2  1  1  0
  3  2  1  0
  4  3  1  0
  4  5  1  0
  5  7  1  0
  5  6  1  1
  7  8  2  0
  9 10  1  0
  9  7  1  0
 11 12  1  0
 10 11  1  1
 12 13  2  0
 14 13  1  0
 15 14  1  0
 16 15  2  0
 16 12  1  0
 17 18  2  0
 17 10  1  0
 19 17  1  0
 20 24  1  0
 20 19  1  0
 20 21  1  1
 22 21  1  0
 23 22  2  0
 24 27  1  0
 25 24  2  0
 26 22  1  0
M  END
$$$$
