MHD.pdb
     RDKit          3D

 27 27  0  0  1  0  0  0  0  0999 V2000
    7.8250  -11.3302   20.4767 C   0  0  0  0  0  0  0  0  0  0  0  0
    8.0958  -12.1358   18.8886 S   0  0  0  0  0  0  0  0  0  0  0  0
    7.5612  -13.8389   18.8075 C   0  0  0  0  0  0  0  0  0  0  0  0
    7.4074  -14.4839   20.1310 C   0  0  0  0  0  0  0  0  0  0  0  0
    8.4696  -15.4645   20.5078 C   0  0  2  0  0  0  0  0  0  0  0  0
    8.5763  -16.5234   19.5198 N   0  0  0  0  0  0  0  0  0  0  0  0
    8.0100  -16.1056   21.8029 C   0  0  0  0  0  0  0  0  0  0  0  0
    7.7169  -15.3151   22.7274 O   0  0  0  0  0  0  0  0  0  0  0  0
    7.9118  -17.4981   21.9764 N   0  0  0  0  0  0  0  0  0  0  0  0
    7.6194  -18.0210   23.3316 C   0  0  1  0  0  0  0  0  0  0  0  0
    6.6949  -19.1781   23.1661 C   0  0  0  0  0  0  0  0  0  0  0  0
    5.4461  -18.8611   22.4577 C   0  0  0  0  0  0  0  0  0  0  0  0
    4.7927  -17.6854   22.2883 C   0  0  0  0  0  0  0  0  0  0  0  0
    3.7198  -17.9225   21.4920 N   0  0  0  0  0  0  0  0  0  0  0  0
    3.6913  -19.2106   21.1629 C   0  0  0  0  0  0  0  0  0  0  0  0
    4.7296  -19.7852   21.7410 N   0  0  0  0  0  0  0  0  0  0  0  0
    8.9210  -18.5720   23.8503 C   0  0  0  0  0  0  0  0  0  0  0  0
    9.3689  -19.6982   23.5950 O   0  0  0  0  0  0  0  0  0  0  0  0
    9.7641  -17.7793   24.7194 N   0  0  0  0  0  0  0  0  0  0  0  0
   10.9997  -18.2890   25.2747 C   0  0  1  0  0  0  0  0  0  0  0  0
   12.1603  -17.3558   25.0133 C   0  0  0  0  0  0  0  0  0  0  0  0
   12.4858  -17.2329   23.5875 C   0  0  0  0  0  0  0  0  0  0  0  0
   12.5056  -18.2727   22.8842 O   0  0  0  0  0  0  0  0  0  0  0  0
   10.8719  -18.6650   26.6831 C   0  0  0  0  0  0  0  0  0  0  0  0
   11.7906  -19.2605   27.2883 O   0  0  0  0  0  0  0  0  0  0  0  0
   12.7762  -16.0355   22.9553 O   0  0  0  0  0  0  0  0  0  0  0  0
    9.7185  -18.3664   27.3839 O   0  0  0  0  0  0  0  0  0  0  0  0
  2  1  1  0
  3  2  1  0
  4  3  1  0
  4  5  1  0
  5  7  1  0
  5  6  1  6
  7  8  2  0
  9 10  1  0
  9  7  1  0
 11 12  1  0
 10 11  1  6
 12 13  2  0
 14 13  1  0
 15 14  1  0
 16 15  2  0
 16 12  1  0
 17 18  2  0
 17 10  1  0
 19 17  1  0
 20 24  1  0
 20 19  1  0
 20 21  1  1
 22 21  1  0
 23 22  2  0
 24 27  1  0
 25 24  2  0
 26 22  1  0
M  END
$$$$
