MHD.pdb
     RDKit          3D

 27 27  0  0  1  0  0  0  0  0999 V2000
    6.0713  -12.0531   27.6233 C   0  0  0  0  0  0  0  0  0  0  0  0
    7.1157  -12.5242   26.2334 S   0  0  0  0  0  0  0  0  0  0  0  0
    7.9285  -14.1062   26.4048 C   0  0  0  0  0  0  0  0  0  0  0  0
    7.0095  -15.2645   26.3336 C   0  0  0  0  0  0  0  0  0  0  0  0
    6.4521  -15.5749   24.9828 C   0  0  2  0  0  0  0  0  0  0  0  0
    5.5888  -16.7417   25.0301 N   0  0  0  0  0  0  0  0  0  0  0  0
    7.6393  -15.9318   24.1096 C   0  0  0  0  0  0  0  0  0  0  0  0
    8.1094  -17.0798   24.2730 O   0  0  0  0  0  0  0  0  0  0  0  0
    8.1935  -15.0447   23.1689 N   0  0  0  0  0  0  0  0  0  0  0  0
    9.2445  -15.5513   22.2556 C   0  0  1  0  0  0  0  0  0  0  0  0
    9.4888  -14.4920   21.2362 C   0  0  0  0  0  0  0  0  0  0  0  0
    8.4834  -14.4368   20.1649 C   0  0  0  0  0  0  0  0  0  0  0  0
    7.3455  -15.1487   19.9746 C   0  0  0  0  0  0  0  0  0  0  0  0
    6.7361  -14.6607   18.8647 N   0  0  0  0  0  0  0  0  0  0  0  0
    7.4635  -13.6665   18.3637 C   0  0  0  0  0  0  0  0  0  0  0  0
    8.5200  -13.5239   19.1420 N   0  0  0  0  0  0  0  0  0  0  0  0
   10.4961  -15.6563   23.0858 C   0  0  0  0  0  0  0  0  0  0  0  0
   10.8969  -14.7951   23.8807 O   0  0  0  0  0  0  0  0  0  0  0  0
   11.3442  -16.8257   22.9981 N   0  0  0  0  0  0  0  0  0  0  0  0
   12.5573  -16.9623   23.7756 C   0  0  1  0  0  0  0  0  0  0  0  0
   12.5595  -18.2331   24.5948 C   0  0  0  0  0  0  0  0  0  0  0  0
   13.8153  -18.4407   25.3256 C   0  0  0  0  0  0  0  0  0  0  0  0
   14.7014  -17.5537   25.2609 O   0  0  0  0  0  0  0  0  0  0  0  0
   13.7662  -16.7986   22.9675 C   0  0  0  0  0  0  0  0  0  0  0  0
   14.7805  -16.2195   23.4156 O   0  0  0  0  0  0  0  0  0  0  0  0
   14.0950  -19.5602   26.0911 O   0  0  0  0  0  0  0  0  0  0  0  0
   13.8139  -17.2865   21.6751 O   0  0  0  0  0  0  0  0  0  0  0  0
  2  1  1  0
  3  2  1  0
  4  3  1  0
  4  5  1  0
  5  7  1  0
  5  6  1  1
  7  8  2  0
  9 10  1  0
  9  7  1  0
 11 12  1  0
 10 11  1  6
 12 13  2  0
 14 13  1  0
 15 14  1  0
 16 15  2  0
 16 12  1  0
 17 18  2  0
 17 10  1  0
 19 17  1  0
 20 24  1  0
 20 19  1  0
 20 21  1  6
 22 21  1  0
 23 22  2  0
 24 27  1  0
 25 24  2  0
 26 22  1  0
M  END
$$$$
