MHD.pdb
     RDKit          3D

 27 27  0  0  1  0  0  0  0  0999 V2000
    8.1703  -11.4730   27.1230 C   0  0  0  0  0  0  0  0  0  0  0  0
    6.8233  -12.5235   27.6946 S   0  0  0  0  0  0  0  0  0  0  0  0
    6.1548  -13.6289   26.4600 C   0  0  0  0  0  0  0  0  0  0  0  0
    7.1848  -14.3450   25.6741 C   0  0  0  0  0  0  0  0  0  0  0  0
    6.6768  -15.2273   24.5808 C   0  0  2  0  0  0  0  0  0  0  0  0
    5.9729  -16.3764   25.1223 N   0  0  0  0  0  0  0  0  0  0  0  0
    7.9031  -15.7527   23.8601 C   0  0  0  0  0  0  0  0  0  0  0  0
    8.3296  -16.8626   24.2499 O   0  0  0  0  0  0  0  0  0  0  0  0
    8.5375  -15.0540   22.8170 N   0  0  0  0  0  0  0  0  0  0  0  0
    9.5982  -15.7458   22.0476 C   0  0  1  0  0  0  0  0  0  0  0  0
    9.8903  -14.9076   20.8504 C   0  0  0  0  0  0  0  0  0  0  0  0
    8.8305  -14.9142   19.8313 C   0  0  0  0  0  0  0  0  0  0  0  0
    7.9401  -15.8740   19.4793 C   0  0  0  0  0  0  0  0  0  0  0  0
    7.1276  -15.3513   18.5265 N   0  0  0  0  0  0  0  0  0  0  0  0
    7.4889  -14.0955   18.2797 C   0  0  0  0  0  0  0  0  0  0  0  0
    8.5158  -13.8226   19.0629 N   0  0  0  0  0  0  0  0  0  0  0  0
   10.8271  -15.7105   22.9166 C   0  0  0  0  0  0  0  0  0  0  0  0
   11.2371  -14.7149   23.5289 O   0  0  0  0  0  0  0  0  0  0  0  0
   11.6397  -16.8948   23.0945 N   0  0  0  0  0  0  0  0  0  0  0  0
   12.7845  -16.9222   23.9796 C   0  0  1  0  0  0  0  0  0  0  0  0
   12.9087  -18.2476   24.6965 C   0  0  0  0  0  0  0  0  0  0  0  0
   14.1038  -18.3297   25.5445 C   0  0  0  0  0  0  0  0  0  0  0  0
   14.8148  -17.3041   25.6812 O   0  0  0  0  0  0  0  0  0  0  0  0
   14.0215  -16.5120   23.3141 C   0  0  0  0  0  0  0  0  0  0  0  0
   14.9576  -15.9733   23.9454 O   0  0  0  0  0  0  0  0  0  0  0  0
   14.5074  -19.4735   26.2128 O   0  0  0  0  0  0  0  0  0  0  0  0
   14.1842  -16.7134   21.9563 O   0  0  0  0  0  0  0  0  0  0  0  0
  2  1  1  0
  3  2  1  0
  4  3  1  0
  4  5  1  0
  5  7  1  0
  5  6  1  1
  7  8  2  0
  9 10  1  0
  9  7  1  0
 11 12  1  0
 10 11  1  6
 12 13  2  0
 14 13  1  0
 15 14  1  0
 16 15  2  0
 16 12  1  0
 17 18  2  0
 17 10  1  0
 19 17  1  0
 20 24  1  0
 20 19  1  0
 20 21  1  6
 22 21  1  0
 23 22  2  0
 24 27  1  0
 25 24  2  0
 26 22  1  0
M  END
$$$$
