MHD.pdb
     RDKit          3D

 27 27  0  0  1  0  0  0  0  0999 V2000
    7.9286  -11.6992   18.3487 C   0  0  0  0  0  0  0  0  0  0  0  0
    8.2634  -12.7470   19.7752 S   0  0  0  0  0  0  0  0  0  0  0  0
    6.8110  -13.3715   20.6079 C   0  0  0  0  0  0  0  0  0  0  0  0
    7.0918  -13.9886   21.9238 C   0  0  0  0  0  0  0  0  0  0  0  0
    8.1203  -15.0721   21.9318 C   0  0  2  0  0  0  0  0  0  0  0  0
    7.5104  -16.3719   21.7135 N   0  0  0  0  0  0  0  0  0  0  0  0
    8.7091  -15.0831   23.3291 C   0  0  0  0  0  0  0  0  0  0  0  0
    9.4467  -14.1141   23.6164 O   0  0  0  0  0  0  0  0  0  0  0  0
    8.4559  -16.1071   24.2598 N   0  0  0  0  0  0  0  0  0  0  0  0
    9.0883  -16.0172   25.5967 C   0  0  1  0  0  0  0  0  0  0  0  0
    7.9969  -15.7831   26.5842 C   0  0  0  0  0  0  0  0  0  0  0  0
    7.4725  -14.4095   26.5954 C   0  0  0  0  0  0  0  0  0  0  0  0
    7.9772  -13.2684   27.1255 C   0  0  0  0  0  0  0  0  0  0  0  0
    7.1356  -12.2557   26.7977 N   0  0  0  0  0  0  0  0  0  0  0  0
    6.1255  -12.7372   26.0791 C   0  0  0  0  0  0  0  0  0  0  0  0
    6.3204  -14.0364   25.9515 N   0  0  0  0  0  0  0  0  0  0  0  0
    9.6486  -17.3855   25.8804 C   0  0  0  0  0  0  0  0  0  0  0  0
    9.0120  -18.4451   25.8022 O   0  0  0  0  0  0  0  0  0  0  0  0
   11.0298  -17.5492   26.2805 N   0  0  0  0  0  0  0  0  0  0  0  0
   11.5804  -18.8348   26.6534 C   0  0  1  0  0  0  0  0  0  0  0  0
   13.0867  -18.8595   26.5240 C   0  0  0  0  0  0  0  0  0  0  0  0
   13.5511  -18.5077   25.1769 C   0  0  0  0  0  0  0  0  0  0  0  0
   14.7105  -18.0450   25.0431 O   0  0  0  0  0  0  0  0  0  0  0  0
   11.1094  -19.2918   27.9613 C   0  0  0  0  0  0  0  0  0  0  0  0
   10.4190  -18.5576   28.7023 O   0  0  0  0  0  0  0  0  0  0  0  0
   12.7907  -18.6519   24.0285 O   0  0  0  0  0  0  0  0  0  0  0  0
   11.4212  -20.5609   28.4116 O   0  0  0  0  0  0  0  0  0  0  0  0
  2  1  1  0
  3  2  1  0
  4  3  1  0
  4  5  1  0
  5  7  1  0
  5  6  1  1
  7  8  2  0
  9 10  1  0
  9  7  1  0
 11 12  1  0
 10 11  1  1
 12 13  2  0
 14 13  1  0
 15 14  1  0
 16 15  2  0
 16 12  1  0
 17 18  2  0
 17 10  1  0
 19 17  1  0
 20 24  1  0
 20 19  1  0
 20 21  1  1
 22 21  1  0
 23 22  2  0
 24 27  1  0
 25 24  2  0
 26 22  1  0
M  END
$$$$
