ADS.pdb
     RDKit          3D

 20 19  0  0  1  0  0  0  0  0999 V2000
    8.1663  -12.2552   19.1039 C   0  0  0  0  0  0  0  0  0  0  0  0
    8.4686  -13.4876   18.2960 C   0  0  2  0  0  0  0  0  0  0  0  0
    7.2615  -14.0330   17.7132 N   0  0  0  0  0  0  0  0  0  0  0  0
    9.0655  -14.5343   19.1789 C   0  0  0  0  0  0  0  0  0  0  0  0
    8.2957  -15.3467   19.7779 O   0  0  0  0  0  0  0  0  0  0  0  0
   10.4521  -14.6615   19.3781 N   0  0  0  0  0  0  0  0  0  0  0  0
   10.9929  -15.7521   20.1421 C   0  0  1  0  0  0  0  0  0  0  0  0
   12.3740  -16.1689   19.7037 C   0  0  0  0  0  0  0  0  0  0  0  0
   12.8669  -17.3772   20.3606 C   0  0  0  0  0  0  0  0  0  0  0  0
   12.0737  -18.1701   20.9103 O   0  0  0  0  0  0  0  0  0  0  0  0
   10.9341  -15.4519   21.5935 C   0  0  0  0  0  0  0  0  0  0  0  0
   11.6979  -14.5866   22.0846 O   0  0  0  0  0  0  0  0  0  0  0  0
   14.2143  -17.6725   20.3909 O   0  0  0  0  0  0  0  0  0  0  0  0
    7.6983  -16.3993   23.8913 O   0  0  0  0  0  0  0  0  0  0  0  0
    8.5653  -15.3870   24.2825 C   0  0  0  0  0  0  0  0  0  0  0  0
    9.9793  -15.7051   23.8445 C   0  0  2  0  0  0  0  0  0  0  0  0
   10.0334  -16.1162   22.4604 N   0  0  0  0  0  0  0  0  0  0  0  0
   10.4945  -16.8544   24.6601 C   0  0  0  0  0  0  0  0  0  0  0  0
   10.7564  -17.9528   24.0883 O   0  0  0  0  0  0  0  0  0  0  0  0
   10.6982  -16.7651   26.0260 O   0  0  0  0  0  0  0  0  0  0  0  0
  2  1  1  1
  2  3  1  0
  4  2  1  0
  4  5  2  0
  6  4  1  0
  7  6  1  0
  7  8  1  6
  9  8  1  0
  9 10  2  0
 11  7  1  0
 12 11  2  0
 13  9  1  0
 14 15  1  0
 16 15  1  1
 16 17  1  0
 16 18  1  0
 17 11  1  0
 18 19  2  0
 18 20  1  0
M  END
$$$$
