ADS.pdb
     RDKit          3D

 20 19  0  0  1  0  0  0  0  0999 V2000
   -2.7341  -28.0798   26.1093 C   0  0  0  0  0  0  0  0  0  0  0  0
   -2.8231  -26.6198   26.4611 C   0  0  2  0  0  0  0  0  0  0  0  0
   -1.6164  -26.1728   27.1232 N   0  0  0  0  0  0  0  0  0  0  0  0
   -3.9682  -26.3957   27.3937 C   0  0  0  0  0  0  0  0  0  0  0  0
   -5.1529  -26.5196   26.9549 O   0  0  0  0  0  0  0  0  0  0  0  0
   -3.7921  -26.0511   28.7460 N   0  0  0  0  0  0  0  0  0  0  0  0
   -4.9217  -25.8389   29.6087 C   0  0  1  0  0  0  0  0  0  0  0  0
   -4.6508  -26.1810   31.0520 C   0  0  0  0  0  0  0  0  0  0  0  0
   -5.7765  -25.9202   31.9461 C   0  0  0  0  0  0  0  0  0  0  0  0
   -5.7755  -24.9197   32.6938 O   0  0  0  0  0  0  0  0  0  0  0  0
   -5.4476  -24.4610   29.4502 C   0  0  0  0  0  0  0  0  0  0  0  0
   -4.6566  -23.4877   29.4343 O   0  0  0  0  0  0  0  0  0  0  0  0
   -6.8643  -26.7677   31.9878 O   0  0  0  0  0  0  0  0  0  0  0  0
   -9.4958  -23.5758   28.6402 O   0  0  0  0  0  0  0  0  0  0  0  0
   -8.4578  -22.8468   28.0738 C   0  0  0  0  0  0  0  0  0  0  0  0
   -7.2491  -22.8543   28.9856 C   0  0  2  0  0  0  0  0  0  0  0  0
   -6.8319  -24.1981   29.3137 N   0  0  0  0  0  0  0  0  0  0  0  0
   -7.6105  -22.1832   30.2781 C   0  0  0  0  0  0  0  0  0  0  0  0
   -7.6387  -22.8648   31.3443 O   0  0  0  0  0  0  0  0  0  0  0  0
   -7.9177  -20.8361   30.3565 O   0  0  0  0  0  0  0  0  0  0  0  0
  2  1  1  1
  2  3  1  0
  4  2  1  0
  4  5  2  0
  6  4  1  0
  7  6  1  0
  7  8  1  1
  9  8  1  0
  9 10  2  0
 11  7  1  0
 12 11  2  0
 13  9  1  0
 14 15  1  0
 16 15  1  6
 16 17  1  0
 16 18  1  0
 17 11  1  0
 18 19  2  0
 18 20  1  0
M  END
$$$$
