ADS.pdb
     RDKit          3D

 20 19  0  0  1  0  0  0  0  0999 V2000
    8.5958  -12.2541   19.9488 C   0  0  0  0  0  0  0  0  0  0  0  0
    8.7178  -13.2931   18.8678 C   0  0  2  0  0  0  0  0  0  0  0  0
    7.4142  -13.6809   18.3736 N   0  0  0  0  0  0  0  0  0  0  0  0
    9.3827  -14.5135   19.4154 C   0  0  0  0  0  0  0  0  0  0  0  0
    8.6651  -15.4347   19.9130 O   0  0  0  0  0  0  0  0  0  0  0  0
   10.7782  -14.6894   19.4047 N   0  0  0  0  0  0  0  0  0  0  0  0
   11.3871  -15.8160   20.0569 C   0  0  1  0  0  0  0  0  0  0  0  0
   12.7023  -16.2284   19.4456 C   0  0  0  0  0  0  0  0  0  0  0  0
   12.5808  -16.8138   18.1125 C   0  0  0  0  0  0  0  0  0  0  0  0
   11.7764  -17.7450   17.8985 O   0  0  0  0  0  0  0  0  0  0  0  0
   11.5000  -15.5756   21.5162 C   0  0  0  0  0  0  0  0  0  0  0  0
   12.2586  -14.6731   21.9444 O   0  0  0  0  0  0  0  0  0  0  0  0
   13.3472  -16.3557   17.0607 O   0  0  0  0  0  0  0  0  0  0  0  0
    8.7037  -16.7967   24.1709 O   0  0  0  0  0  0  0  0  0  0  0  0
    9.6216  -15.8310   24.5640 C   0  0  0  0  0  0  0  0  0  0  0  0
   10.9469  -16.0473   23.8645 C   0  0  2  0  0  0  0  0  0  0  0  0
   10.7719  -16.3390   22.4602 N   0  0  0  0  0  0  0  0  0  0  0  0
   11.6305  -17.2359   24.4738 C   0  0  0  0  0  0  0  0  0  0  0  0
   11.9251  -18.2252   23.7412 O   0  0  0  0  0  0  0  0  0  0  0  0
   11.9568  -17.2988   25.8172 O   0  0  0  0  0  0  0  0  0  0  0  0
  2  1  1  1
  2  3  1  0
  4  2  1  0
  4  5  2  0
  6  4  1  0
  7  6  1  0
  7  8  1  6
  9  8  1  0
  9 10  2  0
 11  7  1  0
 12 11  2  0
 13  9  1  0
 14 15  1  0
 16 15  1  1
 16 17  1  0
 16 18  1  0
 17 11  1  0
 18 19  2  0
 18 20  1  0
M  END
$$$$
