ADS.pdb
     RDKit          3D

 20 19  0  0  1  0  0  0  0  0999 V2000
    7.6384  -12.5076   20.1937 C   0  0  0  0  0  0  0  0  0  0  0  0
    8.2284  -13.6318   19.3868 C   0  0  2  0  0  0  0  0  0  0  0  0
    7.2628  -14.1538   18.4437 N   0  0  0  0  0  0  0  0  0  0  0  0
    8.6310  -14.7466   20.2959 C   0  0  0  0  0  0  0  0  0  0  0  0
    7.8629  -15.7499   20.4173 O   0  0  0  0  0  0  0  0  0  0  0  0
    9.8314  -14.7350   21.0289 N   0  0  0  0  0  0  0  0  0  0  0  0
   10.2404  -15.8786   21.7971 C   0  0  1  0  0  0  0  0  0  0  0  0
   11.7061  -16.2049   21.6591 C   0  0  0  0  0  0  0  0  0  0  0  0
   12.1400  -17.3439   22.4646 C   0  0  0  0  0  0  0  0  0  0  0  0
   13.0375  -17.2100   23.3229 O   0  0  0  0  0  0  0  0  0  0  0  0
    9.8328  -15.7274   23.2152 C   0  0  0  0  0  0  0  0  0  0  0  0
   10.3379  -14.8193   23.9177 O   0  0  0  0  0  0  0  0  0  0  0  0
   11.5728  -18.5907   22.2994 O   0  0  0  0  0  0  0  0  0  0  0  0
    6.4961  -17.4899   24.8790 O   0  0  0  0  0  0  0  0  0  0  0  0
    7.1141  -16.4170   25.5088 C   0  0  0  0  0  0  0  0  0  0  0  0
    8.6014  -16.4245   25.2254 C   0  0  2  0  0  0  0  0  0  0  0  0
    8.8791  -16.5836   23.8164 N   0  0  0  0  0  0  0  0  0  0  0  0
    9.2246  -17.5957   25.9265 C   0  0  0  0  0  0  0  0  0  0  0  0
    9.8249  -18.4782   25.2463 O   0  0  0  0  0  0  0  0  0  0  0  0
    9.1710  -17.7550   27.3002 O   0  0  0  0  0  0  0  0  0  0  0  0
  2  1  1  1
  2  3  1  0
  4  2  1  0
  4  5  2  0
  6  4  1  0
  7  6  1  0
  7  8  1  1
  9  8  1  0
  9 10  2  0
 11  7  1  0
 12 11  2  0
 13  9  1  0
 14 15  1  0
 16 15  1  6
 16 17  1  0
 16 18  1  0
 17 11  1  0
 18 19  2  0
 18 20  1  0
M  END
$$$$
