ADS.pdb
     RDKit          3D

 20 19  0  0  1  0  0  0  0  0999 V2000
    7.9840  -12.3915   19.9819 C   0  0  0  0  0  0  0  0  0  0  0  0
    8.2935  -13.6536   19.2239 C   0  0  2  0  0  0  0  0  0  0  0  0
    7.1725  -14.0495   18.3987 N   0  0  0  0  0  0  0  0  0  0  0  0
    8.5702  -14.7630   20.1851 C   0  0  0  0  0  0  0  0  0  0  0  0
    7.5940  -15.4009   20.6866 O   0  0  0  0  0  0  0  0  0  0  0  0
    9.8730  -15.1355   20.5626 N   0  0  0  0  0  0  0  0  0  0  0  0
   10.0968  -16.2277   21.4694 C   0  0  1  0  0  0  0  0  0  0  0  0
   11.4350  -16.8981   21.2874 C   0  0  0  0  0  0  0  0  0  0  0  0
   11.5364  -17.7029   20.0722 C   0  0  0  0  0  0  0  0  0  0  0  0
   12.5580  -17.6460   19.3559 O   0  0  0  0  0  0  0  0  0  0  0  0
    9.8740  -15.7962   22.8710 C   0  0  0  0  0  0  0  0  0  0  0  0
   10.5162  -14.8240   23.3355 O   0  0  0  0  0  0  0  0  0  0  0  0
   10.5118  -18.5423   19.6861 O   0  0  0  0  0  0  0  0  0  0  0  0
    6.4667  -16.5970   24.9111 O   0  0  0  0  0  0  0  0  0  0  0  0
    7.3076  -15.5658   25.3098 C   0  0  0  0  0  0  0  0  0  0  0  0
    8.7534  -15.9356   25.0545 C   0  0  2  0  0  0  0  0  0  0  0  0
    8.9485  -16.4508   23.7188 N   0  0  0  0  0  0  0  0  0  0  0  0
    9.1516  -17.0269   26.0042 C   0  0  0  0  0  0  0  0  0  0  0  0
    9.5095  -18.1502   25.5435 O   0  0  0  0  0  0  0  0  0  0  0  0
    9.1447  -16.8571   27.3776 O   0  0  0  0  0  0  0  0  0  0  0  0
  2  1  1  1
  2  3  1  0
  4  2  1  0
  4  5  2  0
  6  4  1  0
  7  6  1  0
  7  8  1  1
  9  8  1  0
  9 10  2  0
 11  7  1  0
 12 11  2  0
 13  9  1  0
 14 15  1  0
 16 15  1  6
 16 17  1  0
 16 18  1  0
 17 11  1  0
 18 19  2  0
 18 20  1  0
M  END
$$$$
