ADS.pdb
     RDKit          3D

 20 19  0  0  1  0  0  0  0  0999 V2000
    8.0959  -12.3473   20.0610 C   0  0  0  0  0  0  0  0  0  0  0  0
    8.2890  -13.2169   18.8488 C   0  0  2  0  0  0  0  0  0  0  0  0
    7.0812  -13.9526   18.5422 N   0  0  0  0  0  0  0  0  0  0  0  0
    9.3765  -14.2076   19.1081 C   0  0  0  0  0  0  0  0  0  0  0  0
    9.0636  -15.3979   19.4188 O   0  0  0  0  0  0  0  0  0  0  0  0
   10.7415  -13.8789   19.0231 N   0  0  0  0  0  0  0  0  0  0  0  0
   11.7567  -14.8745   19.2312 C   0  0  1  0  0  0  0  0  0  0  0  0
   13.0396  -14.5915   18.4911 C   0  0  0  0  0  0  0  0  0  0  0  0
   14.0384  -15.6517   18.6057 C   0  0  0  0  0  0  0  0  0  0  0  0
   15.2561  -15.3762   18.6414 O   0  0  0  0  0  0  0  0  0  0  0  0
   11.9842  -15.0926   20.6806 C   0  0  0  0  0  0  0  0  0  0  0  0
   12.5507  -14.2071   21.3649 O   0  0  0  0  0  0  0  0  0  0  0  0
   13.6646  -16.9778   18.6771 O   0  0  0  0  0  0  0  0  0  0  0  0
   10.4911  -16.7360   24.7987 O   0  0  0  0  0  0  0  0  0  0  0  0
   10.3420  -16.5884   23.4256 C   0  0  0  0  0  0  0  0  0  0  0  0
   11.6866  -16.3506   22.7715 C   0  0  2  0  0  0  0  0  0  0  0  0
   11.5794  -16.2824   21.3322 N   0  0  0  0  0  0  0  0  0  0  0  0
   12.5919  -17.5051   23.0861 C   0  0  0  0  0  0  0  0  0  0  0  0
   12.8118  -18.3807   22.1990 O   0  0  0  0  0  0  0  0  0  0  0  0
   13.2040  -17.6564   24.3180 O   0  0  0  0  0  0  0  0  0  0  0  0
  2  1  1  1
  2  3  1  0
  4  2  1  0
  4  5  2  0
  6  4  1  0
  7  6  1  0
  7  8  1  6
  9  8  1  0
  9 10  2  0
 11  7  1  0
 12 11  2  0
 13  9  1  0
 14 15  1  0
 16 15  1  1
 16 17  1  0
 16 18  1  0
 17 11  1  0
 18 19  2  0
 18 20  1  0
M  END
$$$$
