ADS.pdb
     RDKit          3D

 20 19  0  0  1  0  0  0  0  0999 V2000
    6.9253  -13.3390   19.3071 C   0  0  0  0  0  0  0  0  0  0  0  0
    8.2592  -13.3019   20.0017 C   0  0  2  0  0  0  0  0  0  0  0  0
    9.2633  -14.0038   19.2313 N   0  0  0  0  0  0  0  0  0  0  0  0
    8.1520  -13.9705   21.3332 C   0  0  0  0  0  0  0  0  0  0  0  0
    7.2551  -13.5856   22.1449 O   0  0  0  0  0  0  0  0  0  0  0  0
    9.0061  -15.0148   21.7313 N   0  0  0  0  0  0  0  0  0  0  0  0
    8.8252  -15.6783   22.9932 C   0  0  1  0  0  0  0  0  0  0  0  0
    9.6464  -16.9346   23.1370 C   0  0  0  0  0  0  0  0  0  0  0  0
    9.3913  -17.9334   22.1017 C   0  0  0  0  0  0  0  0  0  0  0  0
    8.2238  -18.1874   21.7377 O   0  0  0  0  0  0  0  0  0  0  0  0
    9.0469  -14.7342   24.1155 C   0  0  0  0  0  0  0  0  0  0  0  0
   10.1866  -14.2463   24.3063 O   0  0  0  0  0  0  0  0  0  0  0  0
   10.4279  -18.6186   21.5021 O   0  0  0  0  0  0  0  0  0  0  0  0
    5.9269  -13.2362   26.2950 O   0  0  0  0  0  0  0  0  0  0  0  0
    7.1044  -12.4995   26.3177 C   0  0  0  0  0  0  0  0  0  0  0  0
    8.2920  -13.3945   26.0334 C   0  0  2  0  0  0  0  0  0  0  0  0
    8.0035  -14.3563   24.9945 N   0  0  0  0  0  0  0  0  0  0  0  0
    8.6194  -14.1766   27.2714 C   0  0  0  0  0  0  0  0  0  0  0  0
    8.6005  -15.4415   27.2293 O   0  0  0  0  0  0  0  0  0  0  0  0
    8.9449  -13.5685   28.4712 O   0  0  0  0  0  0  0  0  0  0  0  0
  2  1  1  6
  2  3  1  0
  4  2  1  0
  4  5  2  0
  6  4  1  0
  7  6  1  0
  7  8  1  1
  9  8  1  0
  9 10  2  0
 11  7  1  0
 12 11  2  0
 13  9  1  0
 14 15  1  0
 16 15  1  1
 16 17  1  0
 16 18  1  0
 17 11  1  0
 18 19  2  0
 18 20  1  0
M  END
$$$$
