ADS.pdb
     RDKit          3D

 20 19  0  0  1  0  0  0  0  0999 V2000
    8.2376  -12.2865   19.5856 C   0  0  0  0  0  0  0  0  0  0  0  0
    8.3730  -13.4010   18.5842 C   0  0  2  0  0  0  0  0  0  0  0  0
    7.0757  -13.8231   18.1015 N   0  0  0  0  0  0  0  0  0  0  0  0
    9.0288  -14.5788   19.2277 C   0  0  0  0  0  0  0  0  0  0  0  0
    8.3048  -15.4478   19.8040 O   0  0  0  0  0  0  0  0  0  0  0  0
   10.4223  -14.7701   19.2240 N   0  0  0  0  0  0  0  0  0  0  0  0
   11.0172  -15.8906   19.8991 C   0  0  1  0  0  0  0  0  0  0  0  0
   12.2834  -16.3849   19.2465 C   0  0  0  0  0  0  0  0  0  0  0  0
   12.7710  -17.6545   19.7805 C   0  0  0  0  0  0  0  0  0  0  0  0
   12.1160  -18.2735   20.6453 O   0  0  0  0  0  0  0  0  0  0  0  0
   11.2111  -15.5895   21.3385 C   0  0  0  0  0  0  0  0  0  0  0  0
   11.9592  -14.6440   21.6843 O   0  0  0  0  0  0  0  0  0  0  0  0
   13.9614  -18.1999   19.3459 O   0  0  0  0  0  0  0  0  0  0  0  0
    8.4786  -16.3790   24.1790 O   0  0  0  0  0  0  0  0  0  0  0  0
    9.5055  -15.4650   24.3787 C   0  0  0  0  0  0  0  0  0  0  0  0
   10.7826  -15.9567   23.7311 C   0  0  2  0  0  0  0  0  0  0  0  0
   10.5732  -16.3415   22.3542 N   0  0  0  0  0  0  0  0  0  0  0  0
   11.2566  -17.1810   24.4576 C   0  0  0  0  0  0  0  0  0  0  0  0
   11.2997  -18.2880   23.8454 O   0  0  0  0  0  0  0  0  0  0  0  0
   11.6534  -17.1526   25.7831 O   0  0  0  0  0  0  0  0  0  0  0  0
  2  1  1  1
  2  3  1  0
  4  2  1  0
  4  5  2  0
  6  4  1  0
  7  6  1  0
  7  8  1  6
  9  8  1  0
  9 10  2  0
 11  7  1  0
 12 11  2  0
 13  9  1  0
 14 15  1  0
 16 15  1  1
 16 17  1  0
 16 18  1  0
 17 11  1  0
 18 19  2  0
 18 20  1  0
M  END
$$$$
