ADS.pdb
     RDKit          3D

 20 19  0  0  1  0  0  0  0  0999 V2000
    8.4543  -12.3180   19.7711 C   0  0  0  0  0  0  0  0  0  0  0  0
    8.6021  -13.4330   18.7721 C   0  0  2  0  0  0  0  0  0  0  0  0
    7.3185  -13.8019   18.2150 N   0  0  0  0  0  0  0  0  0  0  0  0
    9.1742  -14.6382   19.4441 C   0  0  0  0  0  0  0  0  0  0  0  0
    8.3847  -15.4953   19.9476 O   0  0  0  0  0  0  0  0  0  0  0  0
   10.5582  -14.8682   19.5449 N   0  0  0  0  0  0  0  0  0  0  0  0
   11.0683  -16.0242   20.2297 C   0  0  1  0  0  0  0  0  0  0  0  0
   12.3179  -16.5921   19.6056 C   0  0  0  0  0  0  0  0  0  0  0  0
   12.0985  -17.2282   18.3087 C   0  0  0  0  0  0  0  0  0  0  0  0
   11.2601  -18.1457   18.1848 O   0  0  0  0  0  0  0  0  0  0  0  0
   11.2453  -15.7388   21.6744 C   0  0  0  0  0  0  0  0  0  0  0  0
   11.9540  -14.7700   22.0383 O   0  0  0  0  0  0  0  0  0  0  0  0
   12.8078  -16.8342   17.1929 O   0  0  0  0  0  0  0  0  0  0  0  0
    8.4868  -16.7176   24.3817 O   0  0  0  0  0  0  0  0  0  0  0  0
    9.4426  -15.7518   24.6702 C   0  0  0  0  0  0  0  0  0  0  0  0
   10.7744  -16.1276   24.0556 C   0  0  2  0  0  0  0  0  0  0  0  0
   10.6343  -16.5317   22.6755 N   0  0  0  0  0  0  0  0  0  0  0  0
   11.3385  -17.3033   24.7980 C   0  0  0  0  0  0  0  0  0  0  0  0
   11.4877  -18.4052   24.1934 O   0  0  0  0  0  0  0  0  0  0  0  0
   11.7070  -17.2347   26.1302 O   0  0  0  0  0  0  0  0  0  0  0  0
  2  1  1  1
  2  3  1  0
  4  2  1  0
  4  5  2  0
  6  4  1  0
  7  6  1  0
  7  8  1  6
  9  8  1  0
  9 10  2  0
 11  7  1  0
 12 11  2  0
 13  9  1  0
 14 15  1  0
 16 15  1  1
 16 17  1  0
 16 18  1  0
 17 11  1  0
 18 19  2  0
 18 20  1  0
M  END
$$$$
