ADS.pdb
     RDKit          3D

 20 19  0  0  1  0  0  0  0  0999 V2000
    8.1273  -12.1149   19.4148 C   0  0  0  0  0  0  0  0  0  0  0  0
    8.4245  -13.1891   18.4044 C   0  0  2  0  0  0  0  0  0  0  0  0
    7.2042  -13.8082   17.9335 N   0  0  0  0  0  0  0  0  0  0  0  0
    9.2656  -14.2519   19.0325 C   0  0  0  0  0  0  0  0  0  0  0  0
    8.7143  -15.3324   19.4066 O   0  0  0  0  0  0  0  0  0  0  0  0
   10.6509  -14.1086   19.2296 N   0  0  0  0  0  0  0  0  0  0  0  0
   11.4355  -15.1819   19.7753 C   0  0  1  0  0  0  0  0  0  0  0  0
   12.8395  -15.2410   19.2286 C   0  0  0  0  0  0  0  0  0  0  0  0
   13.6228  -16.3709   19.7228 C   0  0  0  0  0  0  0  0  0  0  0  0
   14.8485  -16.2516   19.9312 O   0  0  0  0  0  0  0  0  0  0  0  0
   11.4144  -15.1419   21.2579 C   0  0  0  0  0  0  0  0  0  0  0  0
   12.1843  -14.3664   21.8736 O   0  0  0  0  0  0  0  0  0  0  0  0
   13.0323  -17.5929   19.9708 O   0  0  0  0  0  0  0  0  0  0  0  0
    8.1995  -16.2975   23.4509 O   0  0  0  0  0  0  0  0  0  0  0  0
    9.1590  -15.4386   23.9717 C   0  0  0  0  0  0  0  0  0  0  0  0
   10.5333  -15.8072   23.4543 C   0  0  2  0  0  0  0  0  0  0  0  0
   10.5435  -15.9596   22.0176 N   0  0  0  0  0  0  0  0  0  0  0  0
   10.9329  -17.1318   24.0351 C   0  0  0  0  0  0  0  0  0  0  0  0
   10.9893  -17.2662   25.2924 O   0  0  0  0  0  0  0  0  0  0  0  0
   11.2461  -18.2255   23.2472 O   0  0  0  0  0  0  0  0  0  0  0  0
  2  1  1  1
  2  3  1  0
  4  2  1  0
  4  5  2  0
  6  4  1  0
  7  6  1  0
  7  8  1  6
  9  8  1  0
  9 10  2  0
 11  7  1  0
 12 11  2  0
 13  9  1  0
 14 15  1  0
 16 15  1  1
 16 17  1  0
 16 18  1  0
 17 11  1  0
 18 19  2  0
 18 20  1  0
M  END
$$$$
