ADS.pdb
     RDKit          3D

 20 19  0  0  1  0  0  0  0  0999 V2000
    7.5626  -12.6283   19.8955 C   0  0  0  0  0  0  0  0  0  0  0  0
    8.2289  -13.7924   19.2143 C   0  0  2  0  0  0  0  0  0  0  0  0
    7.3145  -14.4544   18.3088 N   0  0  0  0  0  0  0  0  0  0  0  0
    8.6661  -14.7905   20.2360 C   0  0  0  0  0  0  0  0  0  0  0  0
    7.8896  -15.7506   20.5304 O   0  0  0  0  0  0  0  0  0  0  0  0
    9.9083  -14.7142   20.8915 N   0  0  0  0  0  0  0  0  0  0  0  0
   10.3445  -15.7609   21.7744 C   0  0  1  0  0  0  0  0  0  0  0  0
   11.8352  -15.9865   21.7519 C   0  0  0  0  0  0  0  0  0  0  0  0
   12.2911  -17.0377   22.6583 C   0  0  0  0  0  0  0  0  0  0  0  0
   11.6019  -18.0634   22.8396 O   0  0  0  0  0  0  0  0  0  0  0  0
    9.8349  -15.5307   23.1482 C   0  0  0  0  0  0  0  0  0  0  0  0
   10.2464  -14.5488   23.8115 O   0  0  0  0  0  0  0  0  0  0  0  0
   13.4886  -16.9255   23.3343 O   0  0  0  0  0  0  0  0  0  0  0  0
    6.4796  -17.3482   24.7246 O   0  0  0  0  0  0  0  0  0  0  0  0
    6.9955  -16.1925   25.2972 C   0  0  0  0  0  0  0  0  0  0  0  0
    8.4981  -16.1410   25.1189 C   0  0  2  0  0  0  0  0  0  0  0  0
    8.8856  -16.3916   23.7497 N   0  0  0  0  0  0  0  0  0  0  0  0
    9.1244  -17.2200   25.9526 C   0  0  0  0  0  0  0  0  0  0  0  0
    9.7740  -18.1453   25.3836 O   0  0  0  0  0  0  0  0  0  0  0  0
    9.0217  -17.2480   27.3324 O   0  0  0  0  0  0  0  0  0  0  0  0
  2  1  1  1
  2  3  1  0
  4  2  1  0
  4  5  2  0
  6  4  1  0
  7  6  1  0
  7  8  1  1
  9  8  1  0
  9 10  2  0
 11  7  1  0
 12 11  2  0
 13  9  1  0
 14 15  1  0
 16 15  1  6
 16 17  1  0
 16 18  1  0
 17 11  1  0
 18 19  2  0
 18 20  1  0
M  END
$$$$
