ADS.pdb
     RDKit          3D

 20 19  0  0  1  0  0  0  0  0999 V2000
    6.8655  -13.5223   18.2860 C   0  0  0  0  0  0  0  0  0  0  0  0
    8.3390  -13.3657   18.5454 C   0  0  2  0  0  0  0  0  0  0  0  0
    9.0774  -13.2874   17.3033 N   0  0  0  0  0  0  0  0  0  0  0  0
    8.8446  -14.5476   19.3061 C   0  0  0  0  0  0  0  0  0  0  0  0
    8.2549  -14.8884   20.3774 O   0  0  0  0  0  0  0  0  0  0  0  0
    9.9524  -15.3057   18.8862 N   0  0  0  0  0  0  0  0  0  0  0  0
   10.4670  -16.3754   19.6963 C   0  0  1  0  0  0  0  0  0  0  0  0
   11.5200  -17.2033   19.0041 C   0  0  0  0  0  0  0  0  0  0  0  0
   11.0327  -17.9251   17.8310 C   0  0  0  0  0  0  0  0  0  0  0  0
   10.2723  -18.9075   17.9600 O   0  0  0  0  0  0  0  0  0  0  0  0
   10.9336  -15.8596   21.0064 C   0  0  0  0  0  0  0  0  0  0  0  0
   11.8457  -14.9997   21.0510 O   0  0  0  0  0  0  0  0  0  0  0  0
   11.3976  -17.5424   16.5567 O   0  0  0  0  0  0  0  0  0  0  0  0
    8.7505  -16.1841   24.4718 O   0  0  0  0  0  0  0  0  0  0  0  0
    9.7253  -15.2065   24.3185 C   0  0  0  0  0  0  0  0  0  0  0  0
   10.8601  -15.7233   23.4598 C   0  0  2  0  0  0  0  0  0  0  0  0
   10.3794  -16.3084   22.2293 N   0  0  0  0  0  0  0  0  0  0  0  0
   11.5796  -16.8084   24.2056 C   0  0  0  0  0  0  0  0  0  0  0  0
   11.5403  -17.9946   23.7657 O   0  0  0  0  0  0  0  0  0  0  0  0
   12.2924  -16.5664   25.3668 O   0  0  0  0  0  0  0  0  0  0  0  0
  2  1  1  6
  2  3  1  0
  4  2  1  0
  4  5  2  0
  6  4  1  0
  7  6  1  0
  7  8  1  6
  9  8  1  0
  9 10  2  0
 11  7  1  0
 12 11  2  0
 13  9  1  0
 14 15  1  0
 16 15  1  1
 16 17  1  0
 16 18  1  0
 17 11  1  0
 18 19  2  0
 18 20  1  0
M  END
$$$$
