QPA.pdb
     RDKit          3D

 22 22  0  0  1  0  0  0  0  0999 V2000
   19.6860  -22.6097  -13.6250 N   0  0  0  0  0  0  0  0  0  0  0  0
   20.4581  -23.4834  -14.4660 C   0  0  0  0  0  0  0  0  0  0  0  0
   20.0997  -24.6894  -14.5449 O   0  0  0  0  0  0  0  0  0  0  0  0
   21.6215  -22.9728  -15.2011 C   0  0  0  0  0  0  0  0  0  0  0  0
   21.7376  -21.4896  -14.9568 C   0  0  0  0  0  0  0  0  0  0  0  0
   22.0705  -21.1620  -13.5170 C   0  0  2  0  0  0  0  0  0  0  0  0
   20.8797  -20.5394  -12.9016 N   0  0  0  0  0  0  0  0  0  0  0  0
   23.2056  -20.2571  -13.3438 C   0  0  0  0  0  0  0  0  0  0  0  0
   23.0078  -18.9932  -13.4690 O   0  0  0  0  0  0  0  0  0  0  0  0
   24.5167  -20.7057  -13.0419 N   0  0  0  0  0  0  0  0  0  0  0  0
   24.8302  -22.0690  -12.6710 C   0  0  0  0  0  0  0  0  0  0  0  0
   26.1012  -21.9334  -11.8277 C   0  0  0  0  0  0  0  0  0  0  0  0
   26.7909  -20.8241  -12.5497 C   0  0  0  0  0  0  0  0  0  0  0  0
   25.7147  -19.9358  -13.0354 C   0  0  1  0  0  0  0  0  0  0  0  0
   26.0113  -19.3106  -14.3519 C   0  0  0  0  0  0  0  0  0  0  0  0
   25.6789  -19.9451  -15.3823 O   0  0  0  0  0  0  0  0  0  0  0  0
   27.4617  -16.0518  -15.4975 C   0  0  0  0  0  0  0  0  0  0  0  0
   26.8993  -17.4472  -15.7997 C   0  0  2  0  0  0  0  0  0  0  0  0
   26.6388  -18.0572  -14.5126 N   0  0  0  0  0  0  0  0  0  0  0  0
   27.8908  -18.1886  -16.5874 C   0  0  0  0  0  0  0  0  0  0  0  0
   28.5968  -19.0646  -16.0343 O   0  0  0  0  0  0  0  0  0  0  0  0
   28.0566  -17.9320  -17.9378 O   0  0  0  0  0  0  0  0  0  0  0  0
  2  4  1  0
  2  1  1  0
  3  2  2  0
  5  6  1  0
  5  4  1  0
  6  7  1  6
  8  6  1  0
  8 10  1  0
  9  8  2  0
 10 14  1  0
 11 12  1  0
 11 10  1  0
 12 13  1  0
 13 14  1  0
 14 15  1  6
 15 19  1  0
 16 15  2  0
 18 20  1  0
 18 17  1  1
 19 18  1  0
 20 22  1  0
 21 20  2  0
M  END
$$$$
