QPA.pdb
     RDKit          3D

 22 22  0  0  1  0  0  0  0  0999 V2000
   29.0268  -18.2730  -17.2729 N   0  0  0  0  0  0  0  0  0  0  0  0
   27.6002  -18.1617  -17.1350 C   0  0  0  0  0  0  0  0  0  0  0  0
   26.9669  -17.5687  -18.0495 O   0  0  0  0  0  0  0  0  0  0  0  0
   26.9193  -18.7249  -15.9628 C   0  0  0  0  0  0  0  0  0  0  0  0
   27.9474  -19.3659  -15.0656 C   0  0  0  0  0  0  0  0  0  0  0  0
   27.6531  -20.8257  -14.7945 C   0  0  2  0  0  0  0  0  0  0  0  0
   27.8551  -21.5750  -16.0524 N   0  0  0  0  0  0  0  0  0  0  0  0
   26.3011  -21.0958  -14.3087 C   0  0  0  0  0  0  0  0  0  0  0  0
   25.4109  -21.4805  -15.1526 O   0  0  0  0  0  0  0  0  0  0  0  0
   25.9225  -20.9558  -12.9491 N   0  0  0  0  0  0  0  0  0  0  0  0
   26.8285  -20.5231  -11.9069 C   0  0  0  0  0  0  0  0  0  0  0  0
   26.2468  -21.1491  -10.6363 C   0  0  0  0  0  0  0  0  0  0  0  0
   24.7858  -21.0288  -10.9167 C   0  0  0  0  0  0  0  0  0  0  0  0
   24.6444  -21.2124  -12.3759 C   0  0  1  0  0  0  0  0  0  0  0  0
   23.5621  -20.3868  -12.9749 C   0  0  0  0  0  0  0  0  0  0  0  0
   23.8879  -19.2890  -13.4883 O   0  0  0  0  0  0  0  0  0  0  0  0
   21.3864  -20.1510  -15.1543 C   0  0  0  0  0  0  0  0  0  0  0  0
   21.1662  -19.9778  -13.6457 C   0  0  2  0  0  0  0  0  0  0  0  0
   22.2014  -20.7589  -13.0014 N   0  0  0  0  0  0  0  0  0  0  0  0
   19.8154  -20.4459  -13.3151 C   0  0  0  0  0  0  0  0  0  0  0  0
   19.6596  -21.5643  -12.7706 O   0  0  0  0  0  0  0  0  0  0  0  0
   18.7074  -19.6653  -13.5979 O   0  0  0  0  0  0  0  0  0  0  0  0
  2  4  1  0
  2  1  1  0
  3  2  2  0
  5  6  1  0
  5  4  1  0
  6  7  1  6
  8  6  1  0
  8 10  1  0
  9  8  2  0
 10 14  1  0
 11 12  1  0
 11 10  1  0
 12 13  1  0
 13 14  1  0
 14 15  1  6
 15 19  1  0
 16 15  2  0
 18 20  1  0
 18 17  1  6
 19 18  1  0
 20 22  1  0
 21 20  2  0
M  END
$$$$
