QPA.pdb
     RDKit          3D

 22 22  0  0  1  0  0  0  0  0999 V2000
   15.6124  -12.7524  -14.1414 N   0  0  0  0  0  0  0  0  0  0  0  0
   15.7254  -12.0856  -15.4100 C   0  0  0  0  0  0  0  0  0  0  0  0
   14.7531  -11.3788  -15.7899 O   0  0  0  0  0  0  0  0  0  0  0  0
   16.9386  -12.2330  -16.2231 C   0  0  0  0  0  0  0  0  0  0  0  0
   17.9199  -11.1579  -15.8305 C   0  0  0  0  0  0  0  0  0  0  0  0
   19.2006  -11.2178  -16.6351 C   0  0  2  0  0  0  0  0  0  0  0  0
   19.9396  -12.4320  -16.2304 N   0  0  0  0  0  0  0  0  0  0  0  0
   20.0819  -10.0637  -16.4664 C   0  0  0  0  0  0  0  0  0  0  0  0
   20.8578  -10.0283  -15.4422 O   0  0  0  0  0  0  0  0  0  0  0  0
   20.1245   -8.9796  -17.3799 N   0  0  0  0  0  0  0  0  0  0  0  0
   19.4021   -8.9611  -18.6337 C   0  0  0  0  0  0  0  0  0  0  0  0
   20.2285   -8.0210  -19.5158 C   0  0  0  0  0  0  0  0  0  0  0  0
   20.6659   -7.0130  -18.5057 C   0  0  0  0  0  0  0  0  0  0  0  0
   20.8590   -7.7666  -17.2495 C   0  0  1  0  0  0  0  0  0  0  0  0
   20.4937   -6.9935  -16.0326 C   0  0  0  0  0  0  0  0  0  0  0  0
   19.2852   -6.9824  -15.6946 O   0  0  0  0  0  0  0  0  0  0  0  0
   22.3084   -5.5288  -13.1639 C   0  0  0  0  0  0  0  0  0  0  0  0
   21.0513   -5.5476  -14.0436 C   0  0  2  0  0  0  0  0  0  0  0  0
   21.4154   -6.2769  -15.2404 N   0  0  0  0  0  0  0  0  0  0  0  0
   20.6570   -4.1621  -14.3228 C   0  0  0  0  0  0  0  0  0  0  0  0
   20.9046   -3.6579  -15.4436 O   0  0  0  0  0  0  0  0  0  0  0  0
   20.0130   -3.4025  -13.3609 O   0  0  0  0  0  0  0  0  0  0  0  0
  2  4  1  0
  2  1  1  0
  3  2  2  0
  5  6  1  0
  5  4  1  0
  6  7  1  1
  8  6  1  0
  8 10  1  0
  9  8  2  0
 10 14  1  0
 11 12  1  0
 11 10  1  0
 12 13  1  0
 13 14  1  0
 14 15  1  1
 15 19  1  0
 16 15  2  0
 18 20  1  0
 18 17  1  1
 19 18  1  0
 20 22  1  0
 21 20  2  0
M  END
$$$$
