QPA.pdb
     RDKit          3D

 22 22  0  0  1  0  0  0  0  0999 V2000
   17.5963  -12.2409  -17.0297 N   0  0  0  0  0  0  0  0  0  0  0  0
   18.2039  -11.8863  -15.7760 C   0  0  0  0  0  0  0  0  0  0  0  0
   17.4581  -11.8145  -14.7622 O   0  0  0  0  0  0  0  0  0  0  0  0
   19.6453  -11.6201  -15.6962 C   0  0  0  0  0  0  0  0  0  0  0  0
   20.2202  -11.6377  -17.0897 C   0  0  0  0  0  0  0  0  0  0  0  0
   21.6925  -11.2872  -17.1156 C   0  0  2  0  0  0  0  0  0  0  0  0
   22.3952  -12.1916  -16.1815 N   0  0  0  0  0  0  0  0  0  0  0  0
   21.9981   -9.9079  -16.7399 C   0  0  0  0  0  0  0  0  0  0  0  0
   22.4020   -9.6729  -15.5424 O   0  0  0  0  0  0  0  0  0  0  0  0
   21.8727   -8.8140  -17.6338 N   0  0  0  0  0  0  0  0  0  0  0  0
   21.3779   -8.9401  -18.9879 C   0  0  0  0  0  0  0  0  0  0  0  0
   22.0300   -7.7665  -19.7242 C   0  0  0  0  0  0  0  0  0  0  0  0
   22.0018   -6.7244  -18.6561 C   0  0  0  0  0  0  0  0  0  0  0  0
   22.2037   -7.4513  -17.3857 C   0  0  1  0  0  0  0  0  0  0  0  0
   21.4504   -6.8686  -16.2434 C   0  0  0  0  0  0  0  0  0  0  0  0
   20.2826   -7.2843  -16.0474 O   0  0  0  0  0  0  0  0  0  0  0  0
   22.2643   -4.7552  -13.2982 C   0  0  0  0  0  0  0  0  0  0  0  0
   21.2174   -5.3186  -14.2683 C   0  0  2  0  0  0  0  0  0  0  0  0
   21.9639   -5.8842  -15.3728 N   0  0  0  0  0  0  0  0  0  0  0  0
   20.3317   -4.2253  -14.6846 C   0  0  0  0  0  0  0  0  0  0  0  0
   20.4591   -3.7204  -15.8249 O   0  0  0  0  0  0  0  0  0  0  0  0
   19.3542   -3.7431  -13.8309 O   0  0  0  0  0  0  0  0  0  0  0  0
  2  4  1  0
  2  1  1  0
  3  2  2  0
  5  6  1  0
  5  4  1  0
  6  7  1  1
  8  6  1  0
  8 10  1  0
  9  8  2  0
 10 14  1  0
 11 12  1  0
 11 10  1  0
 12 13  1  0
 13 14  1  0
 14 15  1  1
 15 19  1  0
 16 15  2  0
 18 20  1  0
 18 17  1  1
 19 18  1  0
 20 22  1  0
 21 20  2  0
M  END
$$$$
