QPA.pdb
     RDKit          3D

 22 22  0  0  1  0  0  0  0  0999 V2000
   17.8305  -11.6892  -21.4647 N   0  0  0  0  0  0  0  0  0  0  0  0
   18.9127  -11.0166  -20.7988 C   0  0  0  0  0  0  0  0  0  0  0  0
   19.2385   -9.8729  -21.2170 O   0  0  0  0  0  0  0  0  0  0  0  0
   19.6043  -11.6539  -19.6717 C   0  0  0  0  0  0  0  0  0  0  0  0
   19.5999  -10.7051  -18.5001 C   0  0  0  0  0  0  0  0  0  0  0  0
   19.7566  -11.4181  -17.1741 C   0  0  2  0  0  0  0  0  0  0  0  0
   18.4834  -12.1038  -16.8693 N   0  0  0  0  0  0  0  0  0  0  0  0
   20.0925  -10.5473  -16.0489 C   0  0  0  0  0  0  0  0  0  0  0  0
   19.1409   -9.9263  -15.4479 O   0  0  0  0  0  0  0  0  0  0  0  0
   21.4189  -10.3549  -15.5854 N   0  0  0  0  0  0  0  0  0  0  0  0
   22.5549  -11.1048  -16.0771 C   0  0  0  0  0  0  0  0  0  0  0  0
   23.5445  -11.0736  -14.9090 C   0  0  0  0  0  0  0  0  0  0  0  0
   23.3036   -9.6975  -14.3836 C   0  0  0  0  0  0  0  0  0  0  0  0
   21.8632   -9.4400  -14.5887 C   0  0  1  0  0  0  0  0  0  0  0  0
   21.5560   -8.0233  -14.9213 C   0  0  0  0  0  0  0  0  0  0  0  0
   21.6733   -7.6715  -16.1202 O   0  0  0  0  0  0  0  0  0  0  0  0
   19.8170   -5.1958  -13.3142 C   0  0  0  0  0  0  0  0  0  0  0  0
   20.8843   -5.6716  -14.3086 C   0  0  2  0  0  0  0  0  0  0  0  0
   21.1439   -7.0575  -13.9790 N   0  0  0  0  0  0  0  0  0  0  0  0
   22.0716   -4.8223  -14.1596 C   0  0  0  0  0  0  0  0  0  0  0  0
   22.9992   -5.1772  -13.3945 O   0  0  0  0  0  0  0  0  0  0  0  0
   22.1804   -3.6304  -14.8556 O   0  0  0  0  0  0  0  0  0  0  0  0
  2  4  1  0
  2  1  1  0
  3  2  2  0
  5  6  1  0
  5  4  1  0
  6  7  1  1
  8  6  1  0
  8 10  1  0
  9  8  2  0
 10 14  1  0
 11 12  1  0
 11 10  1  0
 12 13  1  0
 13 14  1  0
 14 15  1  6
 15 19  1  0
 16 15  2  0
 18 20  1  0
 18 17  1  1
 19 18  1  0
 20 22  1  0
 21 20  2  0
M  END
$$$$
