QPA.pdb
     RDKit          3D

 22 22  0  0  1  0  0  0  0  0999 V2000
   26.4658  -11.8645  -15.4232 N   0  0  0  0  0  0  0  0  0  0  0  0
   26.3594  -11.6568  -16.8417 C   0  0  0  0  0  0  0  0  0  0  0  0
   27.4263  -11.4874  -17.4914 O   0  0  0  0  0  0  0  0  0  0  0  0
   25.0455  -11.6453  -17.4960 C   0  0  0  0  0  0  0  0  0  0  0  0
   23.9844  -11.9146  -16.4594 C   0  0  0  0  0  0  0  0  0  0  0  0
   22.5837  -11.8380  -17.0279 C   0  0  2  0  0  0  0  0  0  0  0  0
   22.6649  -12.0896  -18.4820 N   0  0  0  0  0  0  0  0  0  0  0  0
   21.9091  -10.5582  -16.8182 C   0  0  0  0  0  0  0  0  0  0  0  0
   21.9115   -9.6990  -17.7743 O   0  0  0  0  0  0  0  0  0  0  0  0
   21.2490  -10.2176  -15.6100 N   0  0  0  0  0  0  0  0  0  0  0  0
   21.0752  -11.1376  -14.5065 C   0  0  0  0  0  0  0  0  0  0  0  0
   19.8188  -10.6231  -13.7984 C   0  0  0  0  0  0  0  0  0  0  0  0
   19.9984   -9.1502  -13.9592 C   0  0  0  0  0  0  0  0  0  0  0  0
   20.6506   -8.9701  -15.2727 C   0  0  1  0  0  0  0  0  0  0  0  0
   21.6122   -7.8360  -15.3063 C   0  0  0  0  0  0  0  0  0  0  0  0
   22.8036   -8.0775  -14.9949 O   0  0  0  0  0  0  0  0  0  0  0  0
   21.5222   -4.2796  -16.4444 C   0  0  0  0  0  0  0  0  0  0  0  0
   22.2119   -5.4151  -15.6768 C   0  0  2  0  0  0  0  0  0  0  0  0
   21.2699   -6.5149  -15.6642 N   0  0  0  0  0  0  0  0  0  0  0  0
   22.5397   -4.9350  -14.3295 C   0  0  0  0  0  0  0  0  0  0  0  0
   21.7662   -5.1831  -13.3746 O   0  0  0  0  0  0  0  0  0  0  0  0
   23.6961   -4.2094  -14.0992 O   0  0  0  0  0  0  0  0  0  0  0  0
  2  4  1  0
  2  1  1  0
  3  2  2  0
  5  6  1  0
  5  4  1  0
  6  7  1  6
  8  6  1  0
  8 10  1  0
  9  8  2  0
 10 14  1  0
 11 12  1  0
 11 10  1  0
 12 13  1  0
 13 14  1  0
 14 15  1  1
 15 19  1  0
 16 15  2  0
 18 20  1  0
 18 17  1  6
 19 18  1  0
 20 22  1  0
 21 20  2  0
M  END
$$$$
