QPA.pdb
     RDKit          3D

 22 22  0  0  1  0  0  0  0  0999 V2000
   17.9900  -10.0488  -21.4506 N   0  0  0  0  0  0  0  0  0  0  0  0
   18.4758  -10.9785  -20.4675 C   0  0  0  0  0  0  0  0  0  0  0  0
   17.6967  -11.8959  -20.0923 O   0  0  0  0  0  0  0  0  0  0  0  0
   19.8353  -10.8501  -19.9290 C   0  0  0  0  0  0  0  0  0  0  0  0
   19.8034   -9.9134  -18.7482 C   0  0  0  0  0  0  0  0  0  0  0  0
   19.6244  -10.6414  -17.4333 C   0  0  2  0  0  0  0  0  0  0  0  0
   18.2121  -11.0650  -17.3326 N   0  0  0  0  0  0  0  0  0  0  0  0
   19.9546   -9.8514  -16.2484 C   0  0  0  0  0  0  0  0  0  0  0  0
   19.0172   -9.1859  -15.6735 O   0  0  0  0  0  0  0  0  0  0  0  0
   21.2607   -9.7843  -15.6995 N   0  0  0  0  0  0  0  0  0  0  0  0
   22.3616  -10.6079  -16.1512 C   0  0  0  0  0  0  0  0  0  0  0  0
   23.2755  -10.6975  -14.9259 C   0  0  0  0  0  0  0  0  0  0  0  0
   23.1129   -9.3247  -14.3630 C   0  0  0  0  0  0  0  0  0  0  0  0
   21.7133   -8.9430  -14.6435 C   0  0  1  0  0  0  0  0  0  0  0  0
   21.5418   -7.4955  -14.9389 C   0  0  0  0  0  0  0  0  0  0  0  0
   21.7385   -7.1181  -16.1195 O   0  0  0  0  0  0  0  0  0  0  0  0
   20.2033   -4.5195  -13.1473 C   0  0  0  0  0  0  0  0  0  0  0  0
   21.0698   -5.1117  -14.2666 C   0  0  2  0  0  0  0  0  0  0  0  0
   21.1742   -6.5274  -13.9807 N   0  0  0  0  0  0  0  0  0  0  0  0
   22.3715   -4.4345  -14.2561 C   0  0  0  0  0  0  0  0  0  0  0  0
   23.3283   -4.9340  -13.6182 O   0  0  0  0  0  0  0  0  0  0  0  0
   22.5566   -3.2472  -14.9438 O   0  0  0  0  0  0  0  0  0  0  0  0
  2  4  1  0
  2  1  1  0
  3  2  2  0
  5  6  1  0
  5  4  1  0
  6  7  1  1
  8  6  1  0
  8 10  1  0
  9  8  2  0
 10 14  1  0
 11 12  1  0
 11 10  1  0
 12 13  1  0
 13 14  1  0
 14 15  1  6
 15 19  1  0
 16 15  2  0
 18 20  1  0
 18 17  1  1
 19 18  1  0
 20 22  1  0
 21 20  2  0
M  END
$$$$
