QPA.pdb
     RDKit          3D

 22 22  0  0  1  0  0  0  0  0999 V2000
   28.6145  -30.3624  -20.0972 N   0  0  0  0  0  0  0  0  0  0  0  0
   28.2479  -29.0489  -19.6423 C   0  0  0  0  0  0  0  0  0  0  0  0
   28.6071  -28.0641  -20.3425 O   0  0  0  0  0  0  0  0  0  0  0  0
   27.4811  -28.8775  -18.4024 C   0  0  0  0  0  0  0  0  0  0  0  0
   27.5773  -27.4373  -17.9671 C   0  0  0  0  0  0  0  0  0  0  0  0
   28.8236  -27.1576  -17.1549 C   0  0  2  0  0  0  0  0  0  0  0  0
   28.7255  -27.9151  -15.8896 N   0  0  0  0  0  0  0  0  0  0  0  0
   29.0386  -25.7479  -16.8330 C   0  0  0  0  0  0  0  0  0  0  0  0
   28.4018  -25.2413  -15.8378 O   0  0  0  0  0  0  0  0  0  0  0  0
   29.9184  -24.9101  -17.5648 N   0  0  0  0  0  0  0  0  0  0  0  0
   30.7169  -25.3694  -18.6809 C   0  0  0  0  0  0  0  0  0  0  0  0
   31.9129  -24.4133  -18.6903 C   0  0  0  0  0  0  0  0  0  0  0  0
   31.2470  -23.1389  -18.2900 C   0  0  0  0  0  0  0  0  0  0  0  0
   30.1798  -23.5277  -17.3450 C   0  0  1  0  0  0  0  0  0  0  0  0
   28.9608  -22.6819  -17.4473 C   0  0  0  0  0  0  0  0  0  0  0  0
   28.0879  -23.0227  -18.2820 O   0  0  0  0  0  0  0  0  0  0  0  0
   27.5401  -19.7870  -15.5610 C   0  0  0  0  0  0  0  0  0  0  0  0
   27.5459  -20.6995  -16.7946 C   0  0  2  0  0  0  0  0  0  0  0  0
   28.7268  -21.5283  -16.6695 N   0  0  0  0  0  0  0  0  0  0  0  0
   27.5696  -19.8581  -17.9966 C   0  0  0  0  0  0  0  0  0  0  0  0
   26.5301  -19.2568  -18.3564 O   0  0  0  0  0  0  0  0  0  0  0  0
   28.7291  -19.7198  -18.7403 O   0  0  0  0  0  0  0  0  0  0  0  0
  2  4  1  0
  2  1  1  0
  3  2  2  0
  5  6  1  0
  5  4  1  0
  6  7  1  1
  8  6  1  0
  8 10  1  0
  9  8  2  0
 10 14  1  0
 11 12  1  0
 11 10  1  0
 12 13  1  0
 13 14  1  0
 14 15  1  6
 15 19  1  0
 16 15  2  0
 18 20  1  0
 18 17  1  1
 19 18  1  0
 20 22  1  0
 21 20  2  0
M  END
$$$$
