QPA.pdb
     RDKit          3D

 22 22  0  0  1  0  0  0  0  0999 V2000
   24.4514  -24.7068  -14.1153 N   0  0  0  0  0  0  0  0  0  0  0  0
   23.5815  -23.7053  -14.6693 C   0  0  0  0  0  0  0  0  0  0  0  0
   23.8233  -23.2999  -15.8383 O   0  0  0  0  0  0  0  0  0  0  0  0
   22.4545  -23.1830  -13.8873 C   0  0  0  0  0  0  0  0  0  0  0  0
   22.6753  -21.7123  -13.6399 C   0  0  0  0  0  0  0  0  0  0  0  0
   23.7702  -21.4510  -12.6279 C   0  0  2  0  0  0  0  0  0  0  0  0
   23.1320  -21.1693  -11.3250 N   0  0  0  0  0  0  0  0  0  0  0  0
   24.6541  -20.3349  -12.9595 C   0  0  0  0  0  0  0  0  0  0  0  0
   24.2923  -19.1463  -12.6299 O   0  0  0  0  0  0  0  0  0  0  0  0
   25.8948  -20.4991  -13.6267 N   0  0  0  0  0  0  0  0  0  0  0  0
   26.4462  -21.7884  -13.9845 C   0  0  0  0  0  0  0  0  0  0  0  0
   27.9565  -21.5395  -14.0253 C   0  0  0  0  0  0  0  0  0  0  0  0
   27.9903  -20.1566  -14.5856 C   0  0  0  0  0  0  0  0  0  0  0  0
   26.7961  -19.4777  -14.0417 C   0  0  1  0  0  0  0  0  0  0  0  0
   26.1817  -18.5098  -14.9892 C   0  0  0  0  0  0  0  0  0  0  0  0
   25.3942  -18.9658  -15.8534 O   0  0  0  0  0  0  0  0  0  0  0  0
   26.2286  -14.7895  -15.4179 C   0  0  0  0  0  0  0  0  0  0  0  0
   25.8169  -16.1870  -15.8996 C   0  0  2  0  0  0  0  0  0  0  0  0
   26.4277  -17.1206  -14.9765 N   0  0  0  0  0  0  0  0  0  0  0  0
   26.2888  -16.3627  -17.2778 C   0  0  0  0  0  0  0  0  0  0  0  0
   25.5690  -15.9914  -18.2347 O   0  0  0  0  0  0  0  0  0  0  0  0
   27.5229  -16.9351  -17.5352 O   0  0  0  0  0  0  0  0  0  0  0  0
  2  4  1  0
  2  1  1  0
  3  2  2  0
  5  6  1  0
  5  4  1  0
  6  7  1  1
  8  6  1  0
  8 10  1  0
  9  8  2  0
 10 14  1  0
 11 12  1  0
 11 10  1  0
 12 13  1  0
 13 14  1  0
 14 15  1  6
 15 19  1  0
 16 15  2  0
 18 20  1  0
 18 17  1  1
 19 18  1  0
 20 22  1  0
 21 20  2  0
M  END
$$$$
