QPA.pdb
     RDKit          3D

 22 22  0  0  1  0  0  0  0  0999 V2000
   18.4620  -12.8725  -14.2284 N   0  0  0  0  0  0  0  0  0  0  0  0
   17.5444  -13.2700  -15.2611 C   0  0  0  0  0  0  0  0  0  0  0  0
   16.8543  -14.3067  -15.0655 O   0  0  0  0  0  0  0  0  0  0  0  0
   17.4270  -12.4845  -16.4956 C   0  0  0  0  0  0  0  0  0  0  0  0
   18.2786  -11.2471  -16.3665 C   0  0  0  0  0  0  0  0  0  0  0  0
   18.2004  -10.3575  -17.5887 C   0  0  2  0  0  0  0  0  0  0  0  0
   18.8214  -11.0778  -18.7201 N   0  0  0  0  0  0  0  0  0  0  0  0
   18.8650   -9.0635  -17.4452 C   0  0  0  0  0  0  0  0  0  0  0  0
   20.1033   -8.9691  -17.7770 O   0  0  0  0  0  0  0  0  0  0  0  0
   18.2092   -7.9038  -16.9587 N   0  0  0  0  0  0  0  0  0  0  0  0
   16.7940   -7.8508  -16.6607 C   0  0  0  0  0  0  0  0  0  0  0  0
   16.4397   -6.3719  -16.8398 C   0  0  0  0  0  0  0  0  0  0  0  0
   17.6796   -5.7285  -16.3140 C   0  0  0  0  0  0  0  0  0  0  0  0
   18.7872   -6.6296  -16.6940 C   0  0  1  0  0  0  0  0  0  0  0  0
   19.8790   -6.6844  -15.6857 C   0  0  0  0  0  0  0  0  0  0  0  0
   19.7552   -7.5022  -14.7419 O   0  0  0  0  0  0  0  0  0  0  0  0
   23.2511   -5.0992  -15.3262 C   0  0  0  0  0  0  0  0  0  0  0  0
   22.1342   -6.0028  -14.7872 C   0  0  2  0  0  0  0  0  0  0  0  0
   21.0372   -5.8795  -15.7244 N   0  0  0  0  0  0  0  0  0  0  0  0
   21.7791   -5.5501  -13.4373 C   0  0  0  0  0  0  0  0  0  0  0  0
   22.4835   -5.8951  -12.4594 O   0  0  0  0  0  0  0  0  0  0  0  0
   20.6726   -4.7442  -13.2299 O   0  0  0  0  0  0  0  0  0  0  0  0
  2  4  1  0
  2  1  1  0
  3  2  2  0
  5  6  1  0
  5  4  1  0
  6  7  1  6
  8  6  1  0
  8 10  1  0
  9  8  2  0
 10 14  1  0
 11 12  1  0
 11 10  1  0
 12 13  1  0
 13 14  1  0
 14 15  1  1
 15 19  1  0
 16 15  2  0
 18 20  1  0
 18 17  1  6
 19 18  1  0
 20 22  1  0
 21 20  2  0
M  END
$$$$
