QPA.pdb
     RDKit          3D

 22 22  0  0  1  0  0  0  0  0999 V2000
   21.2047  -22.9338  -14.2479 N   0  0  0  0  0  0  0  0  0  0  0  0
   20.8707  -21.8924  -13.3149 C   0  0  0  0  0  0  0  0  0  0  0  0
   19.7353  -21.9359  -12.7689 O   0  0  0  0  0  0  0  0  0  0  0  0
   21.8306  -20.8220  -13.0190 C   0  0  0  0  0  0  0  0  0  0  0  0
   23.0785  -21.0499  -13.8337 C   0  0  0  0  0  0  0  0  0  0  0  0
   23.5744  -19.7863  -14.5034 C   0  0  2  0  0  0  0  0  0  0  0  0
   22.5047  -19.2899  -15.3942 N   0  0  0  0  0  0  0  0  0  0  0  0
   24.7929  -19.9524  -15.2938 C   0  0  0  0  0  0  0  0  0  0  0  0
   24.6817  -20.1510  -16.5589 O   0  0  0  0  0  0  0  0  0  0  0  0
   26.0946  -19.9033  -14.7329 N   0  0  0  0  0  0  0  0  0  0  0  0
   26.3605  -19.5316  -13.3598 C   0  0  0  0  0  0  0  0  0  0  0  0
   27.7872  -18.9771  -13.4028 C   0  0  0  0  0  0  0  0  0  0  0  0
   28.4026  -19.8848  -14.4152 C   0  0  0  0  0  0  0  0  0  0  0  0
   27.3289  -20.1856  -15.3846 C   0  0  1  0  0  0  0  0  0  0  0  0
   27.3948  -21.5669  -15.9320 C   0  0  0  0  0  0  0  0  0  0  0  0
   26.9164  -22.4912  -15.2309 O   0  0  0  0  0  0  0  0  0  0  0  0
   28.3676  -23.1177  -19.1865 C   0  0  0  0  0  0  0  0  0  0  0  0
   28.0378  -23.2520  -17.6940 C   0  0  2  0  0  0  0  0  0  0  0  0
   27.9581  -21.8998  -17.1821 N   0  0  0  0  0  0  0  0  0  0  0  0
   29.0966  -24.0391  -17.0517 C   0  0  0  0  0  0  0  0  0  0  0  0
   30.0048  -23.4571  -16.4129 O   0  0  0  0  0  0  0  0  0  0  0  0
   29.1050  -25.4206  -17.1428 O   0  0  0  0  0  0  0  0  0  0  0  0
  2  4  1  0
  2  1  1  0
  3  2  2  0
  5  6  1  0
  5  4  1  0
  6  7  1  6
  8  6  1  0
  8 10  1  0
  9  8  2  0
 10 14  1  0
 11 12  1  0
 11 10  1  0
 12 13  1  0
 13 14  1  0
 14 15  1  1
 15 19  1  0
 16 15  2  0
 18 20  1  0
 18 17  1  6
 19 18  1  0
 20 22  1  0
 21 20  2  0
M  END
$$$$
