QPA.pdb
     RDKit          3D

 22 22  0  0  1  0  0  0  0  0999 V2000
   20.3945  -21.9855  -15.6957 N   0  0  0  0  0  0  0  0  0  0  0  0
   20.0911  -22.6149  -14.4393 C   0  0  0  0  0  0  0  0  0  0  0  0
   18.9142  -23.0296  -14.2600 O   0  0  0  0  0  0  0  0  0  0  0  0
   21.1279  -22.7618  -13.4107 C   0  0  0  0  0  0  0  0  0  0  0  0
   22.3863  -22.0832  -13.8891 C   0  0  0  0  0  0  0  0  0  0  0  0
   22.8147  -20.9482  -12.9841 C   0  0  2  0  0  0  0  0  0  0  0  0
   21.7054  -19.9741  -12.9144 N   0  0  0  0  0  0  0  0  0  0  0  0
   24.0204  -20.2441  -13.4173 C   0  0  0  0  0  0  0  0  0  0  0  0
   23.8880  -19.1534  -14.0846 O   0  0  0  0  0  0  0  0  0  0  0  0
   25.3318  -20.7047  -13.1354 N   0  0  0  0  0  0  0  0  0  0  0  0
   25.6204  -21.7811  -12.2121 C   0  0  0  0  0  0  0  0  0  0  0  0
   27.0424  -21.4773  -11.7322 C   0  0  0  0  0  0  0  0  0  0  0  0
   27.6450  -20.9394  -12.9873 C   0  0  0  0  0  0  0  0  0  0  0  0
   26.5557  -20.2130  -13.6721 C   0  0  1  0  0  0  0  0  0  0  0  0
   26.6205  -20.3085  -15.1548 C   0  0  0  0  0  0  0  0  0  0  0  0
   26.1549  -21.3440  -15.6894 O   0  0  0  0  0  0  0  0  0  0  0  0
   27.6054  -18.0257  -17.9459 C   0  0  0  0  0  0  0  0  0  0  0  0
   27.2408  -19.4253  -17.4336 C   0  0  2  0  0  0  0  0  0  0  0  0
   27.1691  -19.3138  -15.9916 N   0  0  0  0  0  0  0  0  0  0  0  0
   28.2739  -20.3679  -17.8779 C   0  0  0  0  0  0  0  0  0  0  0  0
   28.2859  -20.7637  -19.0674 O   0  0  0  0  0  0  0  0  0  0  0  0
   29.2384  -20.8270  -16.9970 O   0  0  0  0  0  0  0  0  0  0  0  0
  2  4  1  0
  2  1  1  0
  3  2  2  0
  5  6  1  0
  5  4  1  0
  6  7  1  6
  8  6  1  0
  8 10  1  0
  9  8  2  0
 10 14  1  0
 11 12  1  0
 11 10  1  0
 12 13  1  0
 13 14  1  0
 14 15  1  6
 15 19  1  0
 16 15  2  0
 18 20  1  0
 18 17  1  6
 19 18  1  0
 20 22  1  0
 21 20  2  0
M  END
$$$$
