QPA.pdb
     RDKit          3D

 22 22  0  0  1  0  0  0  0  0999 V2000
   18.9522  -11.0390  -21.1956 N   0  0  0  0  0  0  0  0  0  0  0  0
   20.0986  -11.8530  -20.8956 C   0  0  0  0  0  0  0  0  0  0  0  0
   20.4996  -12.6519  -21.7844 O   0  0  0  0  0  0  0  0  0  0  0  0
   20.7680  -11.7453  -19.5936 C   0  0  0  0  0  0  0  0  0  0  0  0
   20.0312  -10.7354  -18.7509 C   0  0  0  0  0  0  0  0  0  0  0  0
   19.9216  -11.1572  -17.3013 C   0  0  2  0  0  0  0  0  0  0  0  0
   18.8725  -12.1936  -17.2037 N   0  0  0  0  0  0  0  0  0  0  0  0
   19.5900  -10.0764  -16.3746 C   0  0  0  0  0  0  0  0  0  0  0  0
   18.3557   -9.7470  -16.2321 O   0  0  0  0  0  0  0  0  0  0  0  0
   20.5647   -9.3729  -15.6219 N   0  0  0  0  0  0  0  0  0  0  0  0
   21.9697   -9.7195  -15.6100 C   0  0  0  0  0  0  0  0  0  0  0  0
   22.4596   -9.2058  -14.2533 C   0  0  0  0  0  0  0  0  0  0  0  0
   21.6539   -7.9557  -14.1274 C   0  0  0  0  0  0  0  0  0  0  0  0
   20.3557   -8.2531  -14.7673 C   0  0  1  0  0  0  0  0  0  0  0  0
   19.7616   -7.0863  -15.4725 C   0  0  0  0  0  0  0  0  0  0  0  0
   20.1042   -6.8940  -16.6643 O   0  0  0  0  0  0  0  0  0  0  0  0
   16.8615   -4.8869  -15.1071 C   0  0  0  0  0  0  0  0  0  0  0  0
   18.3202   -5.0195  -15.5643 C   0  0  2  0  0  0  0  0  0  0  0  0
   18.8430   -6.1886  -14.8885 N   0  0  0  0  0  0  0  0  0  0  0  0
   19.0353   -3.7900  -15.2037 C   0  0  0  0  0  0  0  0  0  0  0  0
   19.6542   -3.7259  -14.1153 O   0  0  0  0  0  0  0  0  0  0  0  0
   19.0348   -2.6966  -16.0530 O   0  0  0  0  0  0  0  0  0  0  0  0
  2  4  1  0
  2  1  1  0
  3  2  2  0
  5  6  1  0
  5  4  1  0
  6  7  1  6
  8  6  1  0
  8 10  1  0
  9  8  2  0
 10 14  1  0
 11 12  1  0
 11 10  1  0
 12 13  1  0
 13 14  1  0
 14 15  1  6
 15 19  1  0
 16 15  2  0
 18 20  1  0
 18 17  1  1
 19 18  1  0
 20 22  1  0
 21 20  2  0
M  END
$$$$
