QPA.pdb
     RDKit          3D

 22 22  0  0  1  0  0  0  0  0999 V2000
   10.5602  -13.8145  -11.8513 N   0  0  0  0  0  0  0  0  0  0  0  0
   10.6434  -15.0077  -12.6488 C   0  0  0  0  0  0  0  0  0  0  0  0
    9.6250  -15.7486  -12.7041 O   0  0  0  0  0  0  0  0  0  0  0  0
   11.8797  -15.3376  -13.3682 C   0  0  0  0  0  0  0  0  0  0  0  0
   12.9289  -14.3101  -13.0272 C   0  0  0  0  0  0  0  0  0  0  0  0
   14.2279  -14.5369  -13.7704 C   0  0  2  0  0  0  0  0  0  0  0  0
   14.8162  -15.8042  -13.2885 N   0  0  0  0  0  0  0  0  0  0  0  0
   15.2193  -13.4755  -13.6045 C   0  0  0  0  0  0  0  0  0  0  0  0
   15.9178  -13.4511  -12.5256 O   0  0  0  0  0  0  0  0  0  0  0  0
   15.4506  -12.4703  -14.5779 N   0  0  0  0  0  0  0  0  0  0  0  0
   14.8578  -12.4836  -15.8980 C   0  0  0  0  0  0  0  0  0  0  0  0
   15.8492  -11.6862  -16.7500 C   0  0  0  0  0  0  0  0  0  0  0  0
   16.2784  -10.6469  -15.7686 C   0  0  0  0  0  0  0  0  0  0  0  0
   16.2783  -11.3184  -14.4525 C   0  0  1  0  0  0  0  0  0  0  0  0
   15.8702  -10.4281  -13.3331 C   0  0  0  0  0  0  0  0  0  0  0  0
   14.6428  -10.2172  -13.1789 O   0  0  0  0  0  0  0  0  0  0  0  0
   17.4263   -9.1120  -10.2605 C   0  0  0  0  0  0  0  0  0  0  0  0
   16.3616   -8.9466  -11.3530 C   0  0  2  0  0  0  0  0  0  0  0  0
   16.7714   -9.8105  -12.4404 N   0  0  0  0  0  0  0  0  0  0  0  0
   16.3088   -7.5328  -11.7421 C   0  0  0  0  0  0  0  0  0  0  0  0
   16.8448   -7.1611  -12.8127 O   0  0  0  0  0  0  0  0  0  0  0  0
   15.6725   -6.6015  -10.9392 O   0  0  0  0  0  0  0  0  0  0  0  0
  2  4  1  0
  2  1  1  0
  3  2  2  0
  5  6  1  0
  5  4  1  0
  6  7  1  1
  8  6  1  0
  8 10  1  0
  9  8  2  0
 10 14  1  0
 11 12  1  0
 11 10  1  0
 12 13  1  0
 13 14  1  0
 14 15  1  1
 15 19  1  0
 16 15  2  0
 18 20  1  0
 18 17  1  1
 19 18  1  0
 20 22  1  0
 21 20  2  0
M  END
$$$$
