QPA.pdb
     RDKit          3D

 22 22  0  0  1  0  0  0  0  0999 V2000
   14.6894  -12.1981    9.4187 N   0  0  0  0  0  0  0  0  0  0  0  0
   14.1641  -12.5241    8.1209 C   0  0  0  0  0  0  0  0  0  0  0  0
   12.9588  -12.2381    7.8871 O   0  0  0  0  0  0  0  0  0  0  0  0
   15.0155  -13.1680    7.1133 C   0  0  0  0  0  0  0  0  0  0  0  0
   16.3787  -13.4077    7.7110 C   0  0  0  0  0  0  0  0  0  0  0  0
   17.3744  -13.9290    6.6972 C   0  0  2  0  0  0  0  0  0  0  0  0
   16.9270  -15.2689    6.2627 N   0  0  0  0  0  0  0  0  0  0  0  0
   18.7465  -14.0381    7.1897 C   0  0  0  0  0  0  0  0  0  0  0  0
   19.2139  -15.2067    7.4509 O   0  0  0  0  0  0  0  0  0  0  0  0
   19.5899  -12.9160    7.3922 N   0  0  0  0  0  0  0  0  0  0  0  0
   19.2173  -11.5618    7.0434 C   0  0  0  0  0  0  0  0  0  0  0  0
   20.5593  -10.8679    6.7943 C   0  0  0  0  0  0  0  0  0  0  0  0
   21.4027  -11.5219    7.8378 C   0  0  0  0  0  0  0  0  0  0  0  0
   20.9043  -12.9090    7.9401 C   0  0  1  0  0  0  0  0  0  0  0  0
   20.9616  -13.4589    9.3208 C   0  0  0  0  0  0  0  0  0  0  0  0
   19.9560  -13.2922   10.0528 O   0  0  0  0  0  0  0  0  0  0  0  0
   23.1418  -15.8079   11.1865 C   0  0  0  0  0  0  0  0  0  0  0  0
   22.1221  -14.6615   11.2088 C   0  0  2  0  0  0  0  0  0  0  0  0
   22.0689  -14.1514    9.8546 N   0  0  0  0  0  0  0  0  0  0  0  0
   22.5740  -13.6545   12.1757 C   0  0  0  0  0  0  0  0  0  0  0  0
   22.9672  -12.5350   11.7712 O   0  0  0  0  0  0  0  0  0  0  0  0
   22.5715  -13.9264   13.5333 O   0  0  0  0  0  0  0  0  0  0  0  0
  2  4  1  0
  2  1  1  0
  3  2  2  0
  5  6  1  0
  5  4  1  0
  6  7  1  1
  8  6  1  0
  8 10  1  0
  9  8  2  0
 10 14  1  0
 11 12  1  0
 11 10  1  0
 12 13  1  0
 13 14  1  0
 14 15  1  1
 15 19  1  0
 16 15  2  0
 18 20  1  0
 18 17  1  6
 19 18  1  0
 20 22  1  0
 21 20  2  0
M  END
$$$$
