QPA.pdb
     RDKit          3D

 22 22  0  0  1  0  0  0  0  0999 V2000
   27.1124  -21.1002  -10.6515 N   0  0  0  0  0  0  0  0  0  0  0  0
   25.8073  -20.9337  -10.0722 C   0  0  0  0  0  0  0  0  0  0  0  0
   25.7260  -20.3130   -8.9780 O   0  0  0  0  0  0  0  0  0  0  0  0
   24.6197  -21.4741  -10.7448 C   0  0  0  0  0  0  0  0  0  0  0  0
   24.9316  -21.6567  -12.2085 C   0  0  0  0  0  0  0  0  0  0  0  0
   24.5962  -20.4315  -13.0316 C   0  0  2  0  0  0  0  0  0  0  0  0
   23.1260  -20.3553  -13.1617 N   0  0  0  0  0  0  0  0  0  0  0  0
   25.1793  -20.4186  -14.3720 C   0  0  0  0  0  0  0  0  0  0  0  0
   24.5203  -20.9606  -15.3334 O   0  0  0  0  0  0  0  0  0  0  0  0
   26.4380  -19.8345  -14.6653 N   0  0  0  0  0  0  0  0  0  0  0  0
   27.2517  -19.1519  -13.6824 C   0  0  0  0  0  0  0  0  0  0  0  0
   28.0794  -18.1687  -14.5148 C   0  0  0  0  0  0  0  0  0  0  0  0
   28.3229  -18.9856  -15.7399 C   0  0  0  0  0  0  0  0  0  0  0  0
   27.1039  -19.8002  -15.9236 C   0  0  1  0  0  0  0  0  0  0  0  0
   27.3740  -21.1545  -16.4758 C   0  0  0  0  0  0  0  0  0  0  0  0
   27.8024  -22.0282  -15.6833 O   0  0  0  0  0  0  0  0  0  0  0  0
   26.5658  -23.0136  -19.5713 C   0  0  0  0  0  0  0  0  0  0  0  0
   27.4909  -22.8237  -18.3620 C   0  0  2  0  0  0  0  0  0  0  0  0
   27.1797  -21.5150  -17.8259 N   0  0  0  0  0  0  0  0  0  0  0  0
   28.8815  -22.9329  -18.8173 C   0  0  0  0  0  0  0  0  0  0  0  0
   29.3257  -24.0402  -19.2024 O   0  0  0  0  0  0  0  0  0  0  0  0
   29.7116  -21.8249  -18.8268 O   0  0  0  0  0  0  0  0  0  0  0  0
  2  4  1  0
  2  1  1  0
  3  2  2  0
  5  6  1  0
  5  4  1  0
  6  7  1  6
  8  6  1  0
  8 10  1  0
  9  8  2  0
 10 14  1  0
 11 12  1  0
 11 10  1  0
 12 13  1  0
 13 14  1  0
 14 15  1  1
 15 19  1  0
 16 15  2  0
 18 20  1  0
 18 17  1  6
 19 18  1  0
 20 22  1  0
 21 20  2  0
M  END
$$$$
