RTF.pdb
     RDKit          3D

 30 30  0  0  1  0  0  0  0  0999 V2000
    7.9360  -15.1807   14.4979 N   0  0  0  0  0  0  0  0  0  0  0  0
    8.3343  -14.1992   15.4309 C   0  0  0  0  0  0  0  0  0  0  0  0
    7.8818  -12.9788   15.2968 N   0  0  0  0  0  0  0  0  0  0  0  0
    9.2181  -14.4455   16.5260 N   0  0  0  0  0  0  0  0  0  0  0  0
    8.7831  -15.0100   17.7561 C   0  0  0  0  0  0  0  0  0  0  0  0
    7.7975  -14.1530   18.5058 C   0  0  0  0  0  0  0  0  0  0  0  0
    7.2242  -14.8290   19.7377 C   0  0  0  0  0  0  0  0  0  0  0  0
    8.3965  -15.1891   20.6362 C   0  0  2  0  0  0  0  0  0  0  0  0
    8.9797  -16.3886   20.0260 N   0  0  0  0  0  0  0  0  0  0  0  0
    7.9916  -15.4433   22.0300 C   0  0  0  0  0  0  0  0  0  0  0  0
    7.2571  -14.6390   22.6805 O   0  0  0  0  0  0  0  0  0  0  0  0
    8.1359  -12.2852   16.0392 C   0  0  0  0  0  0  0  0  0  0  0  0
    6.4976  -18.7486   23.1432 C   0  0  2  0  0  0  0  0  0  0  0  0
    7.5859  -18.4147   24.1573 O   0  0  0  0  0  0  0  0  0  0  0  0
    8.6588  -19.2876   23.9685 C   0  0  2  0  0  0  0  0  0  0  0  0
    7.9437  -16.9751   23.9855 N   0  0  0  0  0  0  0  0  0  0  0  0
    8.4346  -16.6272   22.6713 C   0  0  0  0  0  0  0  0  0  0  0  0
    8.8040  -16.4399   25.0666 O   0  0  0  0  0  0  0  0  0  0  0  0
   10.0342  -16.2758   24.7253 N   0  0  0  0  0  0  0  0  0  0  0  0
    8.4258  -16.1079   26.3629 C   0  0  1  0  0  0  0  0  0  0  0  0
    9.3178  -15.6263   27.4119 C   0  0  0  0  0  0  0  0  0  0  0  0
    8.4944  -14.5233   28.1114 C   0  0  0  0  0  0  0  0  0  0  0  0
    8.0319  -13.4719   27.2056 C   0  0  0  0  0  0  0  0  0  0  0  0
    8.9042  -12.5224   26.7433 C   0  0  0  0  0  0  0  0  0  0  0  0
    8.4646  -11.5507   25.8796 C   0  0  0  0  0  0  0  0  0  0  0  0
    7.1499  -11.5185   25.4701 C   0  0  0  0  0  0  0  0  0  0  0  0
    6.2506  -12.4845   25.9395 C   0  0  0  0  0  0  0  0  0  0  0  0
    6.7052  -13.4448   26.7991 C   0  0  0  0  0  0  0  0  0  0  0  0
    9.6599  -16.6407   28.3871 O   0  0  0  0  0  0  0  0  0  0  0  0
   10.6086  -16.3607   29.3994 O   0  0  0  0  0  0  0  0  0  0  0  0
  2  1  1  0
  3  2  2  0
  4  2  1  0
  5  4  1  0
  6  5  1  0
  7  6  1  0
  8  7  1  0
  8  9  1  6
 10  8  1  0
 10 11  2  0
 13 12  1  1
 13 15  1  0
 13 14  1  0
 15 16  1  1
 16 10  1  0
 17 15  1  0
 18 17  2  0
 19 17  1  0
 20 28  1  0
 20 19  1  0
 20 21  1  1
 22 21  1  0
 22 23  2  0
 24 23  1  0
 25 24  2  0
 26 27  2  0
 26 25  1  0
 27 22  1  0
 28 29  1  0
 30 28  2  0
M  END
$$$$
