RTF.pdb
     RDKit          3D

 30 30  0  0  1  0  0  0  0  0999 V2000
    9.2839  -13.9138   18.1558 N   0  0  0  0  0  0  0  0  0  0  0  0
    8.9784  -13.0131   19.1988 C   0  0  0  0  0  0  0  0  0  0  0  0
    9.5412  -11.8319   19.1992 N   0  0  0  0  0  0  0  0  0  0  0  0
    8.0890  -13.3071   20.2775 N   0  0  0  0  0  0  0  0  0  0  0  0
    7.7273  -14.6336   20.6390 C   0  0  0  0  0  0  0  0  0  0  0  0
    6.9416  -15.3615   19.5805 C   0  0  0  0  0  0  0  0  0  0  0  0
    5.9572  -16.3692   20.1453 C   0  0  0  0  0  0  0  0  0  0  0  0
    6.7697  -17.4287   20.8723 C   0  0  2  0  0  0  0  0  0  0  0  0
    6.3403  -18.6999   20.2800 N   0  0  0  0  0  0  0  0  0  0  0  0
    6.5495  -17.4182   22.3293 C   0  0  0  0  0  0  0  0  0  0  0  0
    5.4394  -17.7443   22.8499 O   0  0  0  0  0  0  0  0  0  0  0  0
    9.3405  -11.2016   20.0112 C   0  0  0  0  0  0  0  0  0  0  0  0
    6.3930  -19.4367   24.0215 C   0  0  2  0  0  0  0  0  0  0  0  0
    7.5312  -18.8568   24.8535 O   0  0  0  0  0  0  0  0  0  0  0  0
    8.7094  -19.5356   24.5377 C   0  0  2  0  0  0  0  0  0  0  0  0
    7.5915  -17.3892   24.5845 N   0  0  0  0  0  0  0  0  0  0  0  0
    7.6121  -17.0320   23.1841 C   0  0  0  0  0  0  0  0  0  0  0  0
    8.6368  -16.6817   25.3604 O   0  0  0  0  0  0  0  0  0  0  0  0
    9.7427  -16.5175   24.7224 N   0  0  0  0  0  0  0  0  0  0  0  0
    8.5423  -16.1943   26.6593 C   0  0  1  0  0  0  0  0  0  0  0  0
    9.5662  -15.4219   27.3544 C   0  0  0  0  0  0  0  0  0  0  0  0
    8.7530  -14.4225   28.2050 C   0  0  0  0  0  0  0  0  0  0  0  0
    7.8469  -13.5841   27.4200 C   0  0  0  0  0  0  0  0  0  0  0  0
    8.3418  -12.5838   26.6259 C   0  0  0  0  0  0  0  0  0  0  0  0
    7.4849  -11.8144   25.8794 C   0  0  0  0  0  0  0  0  0  0  0  0
    6.1262  -12.0372   25.9193 C   0  0  0  0  0  0  0  0  0  0  0  0
    5.6115  -13.0569   26.7301 C   0  0  0  0  0  0  0  0  0  0  0  0
    6.4789  -13.8134   27.4671 C   0  0  0  0  0  0  0  0  0  0  0  0
   10.3901  -16.2215   28.2369 O   0  0  0  0  0  0  0  0  0  0  0  0
   10.0879  -17.5884   28.4449 O   0  0  0  0  0  0  0  0  0  0  0  0
  2  1  1  0
  3  2  2  0
  4  2  1  0
  5  4  1  0
  6  5  1  0
  7  6  1  0
  8  7  1  0
  8  9  1  6
 10  8  1  0
 10 11  2  0
 13 12  1  1
 13 15  1  0
 13 14  1  0
 15 16  1  1
 16 10  1  0
 17 15  1  0
 18 17  2  0
 19 17  1  0
 20 28  1  0
 20 19  1  0
 20 21  1  1
 22 21  1  0
 22 23  2  0
 24 23  1  0
 25 24  2  0
 26 27  2  0
 26 25  1  0
 27 22  1  0
 28 29  1  0
 30 28  2  0
M  END
$$$$
