RTF.pdb
     RDKit          3D

 30 30  0  0  1  0  0  0  0  0999 V2000
    7.9554  -12.6591   15.5177 N   0  0  0  0  0  0  0  0  0  0  0  0
    8.4520  -13.9006   15.0656 C   0  0  0  0  0  0  0  0  0  0  0  0
    8.4201  -14.1656   13.7847 N   0  0  0  0  0  0  0  0  0  0  0  0
    8.9890  -14.9097   15.9226 N   0  0  0  0  0  0  0  0  0  0  0  0
    8.5695  -15.0802   17.2701 C   0  0  0  0  0  0  0  0  0  0  0  0
    7.6153  -14.0190   17.7509 C   0  0  0  0  0  0  0  0  0  0  0  0
    7.1321  -14.2407   19.1724 C   0  0  0  0  0  0  0  0  0  0  0  0
    8.3656  -14.3080   20.0584 C   0  0  2  0  0  0  0  0  0  0  0  0
    9.2980  -15.1786   19.3346 N   0  0  0  0  0  0  0  0  0  0  0  0
    8.0759  -14.8378   21.4026 C   0  0  0  0  0  0  0  0  0  0  0  0
    7.1261  -14.3933   22.1166 O   0  0  0  0  0  0  0  0  0  0  0  0
    8.8011  -15.0901   13.4732 C   0  0  0  0  0  0  0  0  0  0  0  0
    7.5718  -18.5023   22.2363 C   0  0  2  0  0  0  0  0  0  0  0  0
    8.6294  -17.9824   23.2035 O   0  0  0  0  0  0  0  0  0  0  0  0
    9.8724  -18.4944   22.8274 C   0  0  2  0  0  0  0  0  0  0  0  0
    8.5644  -16.4906   23.1921 N   0  0  0  0  0  0  0  0  0  0  0  0
    8.8829  -15.8816   21.9205 C   0  0  0  0  0  0  0  0  0  0  0  0
    9.2864  -15.8522   24.3174 O   0  0  0  0  0  0  0  0  0  0  0  0
   10.3990  -15.2995   23.9807 N   0  0  0  0  0  0  0  0  0  0  0  0
    8.8928  -15.7918   25.6498 C   0  0  1  0  0  0  0  0  0  0  0  0
    9.7569  -15.4605   26.7775 C   0  0  0  0  0  0  0  0  0  0  0  0
    8.9223  -14.4465   27.5894 C   0  0  0  0  0  0  0  0  0  0  0  0
    8.1424  -13.5290   26.7589 C   0  0  0  0  0  0  0  0  0  0  0  0
    8.2939  -13.5276   25.3976 C   0  0  0  0  0  0  0  0  0  0  0  0
    7.5445  -12.6756   24.6256 C   0  0  0  0  0  0  0  0  0  0  0  0
    6.6372  -11.8172   25.2064 C   0  0  0  0  0  0  0  0  0  0  0  0
    6.4772  -11.8107   26.5980 C   0  0  0  0  0  0  0  0  0  0  0  0
    7.2316  -12.6655   27.3516 C   0  0  0  0  0  0  0  0  0  0  0  0
   10.0605  -16.5962   27.6230 O   0  0  0  0  0  0  0  0  0  0  0  0
   11.0017  -16.4681   28.6723 O   0  0  0  0  0  0  0  0  0  0  0  0
  2  1  1  0
  3  2  2  0
  4  2  1  0
  5  4  1  0
  6  5  1  0
  7  6  1  0
  8  7  1  0
  8  9  1  6
 10  8  1  0
 10 11  2  0
 13 12  1  1
 13 15  1  0
 13 14  1  0
 15 16  1  1
 16 10  1  0
 17 15  1  0
 18 17  2  0
 19 17  1  0
 20 28  1  0
 20 19  1  0
 20 21  1  1
 22 21  1  0
 22 23  2  0
 24 23  1  0
 25 24  2  0
 26 27  2  0
 26 25  1  0
 27 22  1  0
 28 29  1  0
 30 28  2  0
M  END
$$$$
