RTF.pdb
     RDKit          3D

 30 30  0  0  1  0  0  0  0  0999 V2000
    7.6933  -13.0179   15.8144 N   0  0  0  0  0  0  0  0  0  0  0  0
    8.5098  -14.0381   16.3481 C   0  0  0  0  0  0  0  0  0  0  0  0
    8.8959  -15.0131   15.5656 N   0  0  0  0  0  0  0  0  0  0  0  0
    8.9460  -14.0874   17.7077 N   0  0  0  0  0  0  0  0  0  0  0  0
    8.2562  -13.4305   18.7630 C   0  0  0  0  0  0  0  0  0  0  0  0
    6.8910  -13.9992   19.0465 C   0  0  0  0  0  0  0  0  0  0  0  0
    6.7056  -14.4340   20.4887 C   0  0  0  0  0  0  0  0  0  0  0  0
    8.0679  -14.8715   21.0023 C   0  0  2  0  0  0  0  0  0  0  0  0
    8.5000  -15.9178   20.0695 N   0  0  0  0  0  0  0  0  0  0  0  0
    8.0222  -15.3766   22.3858 C   0  0  0  0  0  0  0  0  0  0  0  0
    7.4074  -14.7644   23.3114 O   0  0  0  0  0  0  0  0  0  0  0  0
    9.5038  -15.7563   15.9840 C   0  0  0  0  0  0  0  0  0  0  0  0
    7.7106  -19.2845   23.2364 C   0  0  2  0  0  0  0  0  0  0  0  0
    8.7899  -18.6316   24.0925 O   0  0  0  0  0  0  0  0  0  0  0  0
   10.0404  -19.0530   23.6371 C   0  0  2  0  0  0  0  0  0  0  0  0
    8.5924  -17.1529   24.0267 N   0  0  0  0  0  0  0  0  0  0  0  0
    8.6858  -16.5894   22.6990 C   0  0  0  0  0  0  0  0  0  0  0  0
    9.3967  -16.3978   25.0156 O   0  0  0  0  0  0  0  0  0  0  0  0
   10.4705  -15.8786   24.5316 N   0  0  0  0  0  0  0  0  0  0  0  0
    9.1141  -16.2006   26.3628 C   0  0  1  0  0  0  0  0  0  0  0  0
    9.9859  -15.5378   27.3264 C   0  0  0  0  0  0  0  0  0  0  0  0
    9.0272  -14.6156   28.1101 C   0  0  0  0  0  0  0  0  0  0  0  0
    8.3326  -13.6403   27.2699 C   0  0  0  0  0  0  0  0  0  0  0  0
    9.0278  -12.6267   26.6654 C   0  0  0  0  0  0  0  0  0  0  0  0
    8.3698  -11.7272   25.8644 C   0  0  0  0  0  0  0  0  0  0  0  0
    7.0116  -11.8320   25.6602 C   0  0  0  0  0  0  0  0  0  0  0  0
    6.2926  -12.8644   26.2761 C   0  0  0  0  0  0  0  0  0  0  0  0
    6.9635  -13.7512   27.0705 C   0  0  0  0  0  0  0  0  0  0  0  0
   10.6161  -16.4519   28.2562 O   0  0  0  0  0  0  0  0  0  0  0  0
   11.6304  -15.9897   29.1283 O   0  0  0  0  0  0  0  0  0  0  0  0
  2  1  1  0
  3  2  2  0
  4  2  1  0
  5  4  1  0
  6  5  1  0
  7  6  1  0
  8  7  1  0
  8  9  1  6
 10  8  1  0
 10 11  2  0
 13 12  1  1
 13 15  1  0
 13 14  1  0
 15 16  1  1
 16 10  1  0
 17 15  1  0
 18 17  2  0
 19 17  1  0
 20 28  1  0
 20 19  1  0
 20 21  1  1
 22 21  1  0
 22 23  2  0
 24 23  1  0
 25 24  2  0
 26 27  2  0
 26 25  1  0
 27 22  1  0
 28 29  1  0
 30 28  2  0
M  END
$$$$
