RTF.pdb
     RDKit          3D

 30 30  0  0  1  0  0  0  0  0999 V2000
    8.7236  -12.2300   14.9604 N   0  0  0  0  0  0  0  0  0  0  0  0
    7.7979  -13.2879   15.0878 C   0  0  0  0  0  0  0  0  0  0  0  0
    7.1947  -13.7327   14.0153 N   0  0  0  0  0  0  0  0  0  0  0  0
    7.4604  -13.9134   16.3271 N   0  0  0  0  0  0  0  0  0  0  0  0
    8.0393  -13.5294   17.5674 C   0  0  0  0  0  0  0  0  0  0  0  0
    8.8839  -14.6012   18.2043 C   0  0  0  0  0  0  0  0  0  0  0  0
    8.2580  -15.9822   18.1378 C   0  0  0  0  0  0  0  0  0  0  0  0
    9.3113  -16.9733   18.6063 C   0  0  2  0  0  0  0  0  0  0  0  0
    9.0874  -18.1702   17.7886 N   0  0  0  0  0  0  0  0  0  0  0  0
    9.2065  -17.2823   20.0433 C   0  0  0  0  0  0  0  0  0  0  0  0
    8.1129  -17.6297   20.5845 O   0  0  0  0  0  0  0  0  0  0  0  0
    6.6241  -14.6060   14.1092 C   0  0  0  0  0  0  0  0  0  0  0  0
   11.5829  -19.6151   21.8609 C   0  0  2  0  0  0  0  0  0  0  0  0
   11.4879  -18.3615   22.7232 O   0  0  0  0  0  0  0  0  0  0  0  0
   12.6998  -17.6727   22.6494 C   0  0  2  0  0  0  0  0  0  0  0  0
   10.3150  -17.5686   22.2483 N   0  0  0  0  0  0  0  0  0  0  0  0
   10.3656  -17.1910   20.8541 C   0  0  0  0  0  0  0  0  0  0  0  0
    9.9695  -16.4272   23.1275 O   0  0  0  0  0  0  0  0  0  0  0  0
   10.2050  -15.2739   22.6067 N   0  0  0  0  0  0  0  0  0  0  0  0
    9.4338  -16.4785   24.4097 C   0  0  1  0  0  0  0  0  0  0  0  0
    9.2473  -15.3379   25.2997 C   0  0  0  0  0  0  0  0  0  0  0  0
    7.8923  -14.7468   24.8544 C   0  0  0  0  0  0  0  0  0  0  0  0
    7.4305  -13.6400   25.6921 C   0  0  0  0  0  0  0  0  0  0  0  0
    8.2660  -12.5936   25.9802 C   0  0  0  0  0  0  0  0  0  0  0  0
    7.8176  -11.5512   26.7521 C   0  0  0  0  0  0  0  0  0  0  0  0
    6.5307  -11.5447   27.2432 C   0  0  0  0  0  0  0  0  0  0  0  0
    5.6702  -12.6117   26.9550 C   0  0  0  0  0  0  0  0  0  0  0  0
    6.1330  -13.6416   26.1850 C   0  0  0  0  0  0  0  0  0  0  0  0
    9.1574  -15.7069   26.6972 O   0  0  0  0  0  0  0  0  0  0  0  0
    8.7871  -17.0235   27.0610 O   0  0  0  0  0  0  0  0  0  0  0  0
  2  1  1  0
  3  2  2  0
  4  2  1  0
  5  4  1  0
  6  5  1  0
  7  6  1  0
  8  7  1  0
  8  9  1  6
 10  8  1  0
 10 11  2  0
 13 12  1  1
 13 15  1  0
 13 14  1  0
 15 16  1  1
 16 10  1  0
 17 15  1  0
 18 17  2  0
 19 17  1  0
 20 28  1  0
 20 19  1  0
 20 21  1  1
 22 21  1  0
 22 23  2  0
 24 23  1  0
 25 24  2  0
 26 27  2  0
 26 25  1  0
 27 22  1  0
 28 29  1  0
 30 28  2  0
M  END
$$$$
