RTF.pdb
     RDKit          3D

 30 30  0  0  1  0  0  0  0  0999 V2000
    9.6109  -12.4570   18.7592 N   0  0  0  0  0  0  0  0  0  0  0  0
    8.5756  -13.0013   17.9691 C   0  0  0  0  0  0  0  0  0  0  0  0
    8.7934  -13.2062   16.6953 N   0  0  0  0  0  0  0  0  0  0  0  0
    7.2812  -13.3429   18.4679 N   0  0  0  0  0  0  0  0  0  0  0  0
    6.9881  -13.4298   19.8563 C   0  0  0  0  0  0  0  0  0  0  0  0
    7.5913  -14.6322   20.5329 C   0  0  0  0  0  0  0  0  0  0  0  0
    7.0989  -15.9525   19.9694 C   0  0  0  0  0  0  0  0  0  0  0  0
    7.8090  -17.0578   20.7346 C   0  0  2  0  0  0  0  0  0  0  0  0
    7.4700  -18.2887   20.0126 N   0  0  0  0  0  0  0  0  0  0  0  0
    7.3917  -17.1354   22.1457 C   0  0  0  0  0  0  0  0  0  0  0  0
    6.2507  -17.5680   22.4928 O   0  0  0  0  0  0  0  0  0  0  0  0
    7.9967  -13.5708   16.1216 C   0  0  0  0  0  0  0  0  0  0  0  0
    6.9937  -19.0755   23.7378 C   0  0  2  0  0  0  0  0  0  0  0  0
    7.8615  -18.4758   24.8385 O   0  0  0  0  0  0  0  0  0  0  0  0
    9.0631  -19.1837   24.8989 C   0  0  2  0  0  0  0  0  0  0  0  0
    8.0335  -17.0221   24.5431 N   0  0  0  0  0  0  0  0  0  0  0  0
    8.2933  -16.7142   23.1551 C   0  0  0  0  0  0  0  0  0  0  0  0
    8.9747  -16.3337   25.4572 O   0  0  0  0  0  0  0  0  0  0  0  0
   10.1179  -16.0666   24.9292 N   0  0  0  0  0  0  0  0  0  0  0  0
    8.7510  -15.9600   26.7778 C   0  0  1  0  0  0  0  0  0  0  0  0
    9.6909  -15.2376   27.6280 C   0  0  0  0  0  0  0  0  0  0  0  0
    8.8147  -14.1635   28.3079 C   0  0  0  0  0  0  0  0  0  0  0  0
    8.1315  -13.2790   27.3642 C   0  0  0  0  0  0  0  0  0  0  0  0
    6.8302  -13.5171   27.0092 C   0  0  0  0  0  0  0  0  0  0  0  0
    6.1922  -12.6711   26.1369 C   0  0  0  0  0  0  0  0  0  0  0  0
    6.8483  -11.5799   25.6113 C   0  0  0  0  0  0  0  0  0  0  0  0
    8.1797  -11.3301   25.9676 C   0  0  0  0  0  0  0  0  0  0  0  0
    8.7999  -12.1827   26.8373 C   0  0  0  0  0  0  0  0  0  0  0  0
   10.2925  -16.0648   28.6531 O   0  0  0  0  0  0  0  0  0  0  0  0
    9.9219  -17.4252   28.7754 O   0  0  0  0  0  0  0  0  0  0  0  0
  2  1  1  0
  3  2  2  0
  4  2  1  0
  5  4  1  0
  6  5  1  0
  7  6  1  0
  8  7  1  0
  8  9  1  6
 10  8  1  0
 10 11  2  0
 13 12  1  1
 13 15  1  0
 13 14  1  0
 15 16  1  1
 16 10  1  0
 17 15  1  0
 18 17  2  0
 19 17  1  0
 20 28  1  0
 20 19  1  0
 20 21  1  1
 22 21  1  0
 22 23  2  0
 24 23  1  0
 25 24  2  0
 26 27  2  0
 26 25  1  0
 27 22  1  0
 28 29  1  0
 30 28  2  0
M  END
$$$$
