RTF.pdb
     RDKit          3D

 30 30  0  0  1  0  0  0  0  0999 V2000
    7.0212  -14.6292   15.1698 N   0  0  0  0  0  0  0  0  0  0  0  0
    7.7339  -13.4154   15.0635 C   0  0  0  0  0  0  0  0  0  0  0  0
    8.1109  -13.0053   13.8796 N   0  0  0  0  0  0  0  0  0  0  0  0
    8.0862  -12.5922   16.1768 N   0  0  0  0  0  0  0  0  0  0  0  0
    7.7541  -12.9258   17.5182 C   0  0  0  0  0  0  0  0  0  0  0  0
    7.9796  -14.3749   17.8601 C   0  0  0  0  0  0  0  0  0  0  0  0
    7.5396  -14.7391   19.2662 C   0  0  0  0  0  0  0  0  0  0  0  0
    8.7832  -14.7286   20.1405 C   0  0  2  0  0  0  0  0  0  0  0  0
    9.7848  -15.4772   19.3737 N   0  0  0  0  0  0  0  0  0  0  0  0
    8.5580  -15.3396   21.4623 C   0  0  0  0  0  0  0  0  0  0  0  0
    7.5688  -15.0290   22.1935 O   0  0  0  0  0  0  0  0  0  0  0  0
    8.7429  -12.1712   13.8361 C   0  0  0  0  0  0  0  0  0  0  0  0
    8.8112  -19.1686   21.9767 C   0  0  2  0  0  0  0  0  0  0  0  0
    9.5995  -18.4945   23.0940 O   0  0  0  0  0  0  0  0  0  0  0  0
   10.9626  -18.6825   22.8586 C   0  0  2  0  0  0  0  0  0  0  0  0
    9.1891  -17.0594   23.1406 N   0  0  0  0  0  0  0  0  0  0  0  0
    9.4751  -16.3099   21.9384 C   0  0  0  0  0  0  0  0  0  0  0  0
    9.6322  -16.3504   24.3637 O   0  0  0  0  0  0  0  0  0  0  0  0
   10.6758  -15.6159   24.1952 N   0  0  0  0  0  0  0  0  0  0  0  0
    9.0514  -16.3971   25.6263 C   0  0  1  0  0  0  0  0  0  0  0  0
    9.5899  -15.7800   26.8334 C   0  0  0  0  0  0  0  0  0  0  0  0
    8.3505  -15.1478   27.5026 C   0  0  0  0  0  0  0  0  0  0  0  0
    7.8780  -13.9342   26.8364 C   0  0  0  0  0  0  0  0  0  0  0  0
    8.6171  -12.7822   26.8895 C   0  0  0  0  0  0  0  0  0  0  0  0
    8.1741  -11.6537   26.2461 C   0  0  0  0  0  0  0  0  0  0  0  0
    6.9891  -11.6658   25.5440 C   0  0  0  0  0  0  0  0  0  0  0  0
    6.2262  -12.8391   25.4861 C   0  0  0  0  0  0  0  0  0  0  0  0
    6.6819  -13.9536   26.1327 C   0  0  0  0  0  0  0  0  0  0  0  0
   10.1803  -16.7312   27.7519 O   0  0  0  0  0  0  0  0  0  0  0  0
   10.8988  -16.2740   28.8823 O   0  0  0  0  0  0  0  0  0  0  0  0
  2  1  1  0
  3  2  2  0
  4  2  1  0
  5  4  1  0
  6  5  1  0
  7  6  1  0
  8  7  1  0
  8  9  1  6
 10  8  1  0
 10 11  2  0
 13 12  1  1
 13 15  1  0
 13 14  1  0
 15 16  1  1
 16 10  1  0
 17 15  1  0
 18 17  2  0
 19 17  1  0
 20 28  1  0
 20 19  1  0
 20 21  1  1
 22 21  1  0
 22 23  2  0
 24 23  1  0
 25 24  2  0
 26 27  2  0
 26 25  1  0
 27 22  1  0
 28 29  1  0
 30 28  2  0
M  END
$$$$
