RTF.pdb
     RDKit          3D

 30 30  0  0  1  0  0  0  0  0999 V2000
    9.5611  -13.3099   13.1969 N   0  0  0  0  0  0  0  0  0  0  0  0
    8.9210  -13.9797   14.2618 C   0  0  0  0  0  0  0  0  0  0  0  0
    9.4510  -15.0828   14.7247 N   0  0  0  0  0  0  0  0  0  0  0  0
    7.7098  -13.5356   14.8759 N   0  0  0  0  0  0  0  0  0  0  0  0
    7.3011  -13.9592   16.1699 C   0  0  0  0  0  0  0  0  0  0  0  0
    8.0974  -13.3472   17.2920 C   0  0  0  0  0  0  0  0  0  0  0  0
    7.5997  -13.7412   18.6705 C   0  0  0  0  0  0  0  0  0  0  0  0
    8.5906  -14.7478   19.2327 C   0  0  2  0  0  0  0  0  0  0  0  0
    8.4369  -15.9356   18.3861 N   0  0  0  0  0  0  0  0  0  0  0  0
    8.3401  -15.0668   20.6493 C   0  0  0  0  0  0  0  0  0  0  0  0
    8.2232  -14.1676   21.5367 O   0  0  0  0  0  0  0  0  0  0  0  0
    8.9853  -15.5343   15.5470 C   0  0  0  0  0  0  0  0  0  0  0  0
    6.1164  -18.2968   21.5814 C   0  0  2  0  0  0  0  0  0  0  0  0
    7.2847  -18.1459   22.5492 O   0  0  0  0  0  0  0  0  0  0  0  0
    8.2137  -19.1557   22.2925 C   0  0  2  0  0  0  0  0  0  0  0  0
    7.8348  -16.7669   22.3891 N   0  0  0  0  0  0  0  0  0  0  0  0
    8.2235  -16.4244   21.0398 C   0  0  0  0  0  0  0  0  0  0  0  0
    8.8809  -16.4219   23.3800 O   0  0  0  0  0  0  0  0  0  0  0  0
   10.0652  -16.3341   22.8835 N   0  0  0  0  0  0  0  0  0  0  0  0
    8.7138  -16.1900   24.7409 C   0  0  1  0  0  0  0  0  0  0  0  0
    9.7847  -15.9331   25.6975 C   0  0  0  0  0  0  0  0  0  0  0  0
    9.8631  -14.3921   25.7506 C   0  0  0  0  0  0  0  0  0  0  0  0
    8.5906  -13.7502   26.0797 C   0  0  0  0  0  0  0  0  0  0  0  0
    7.6239  -13.5963   25.1216 C   0  0  0  0  0  0  0  0  0  0  0  0
    6.4263  -13.0089   25.4447 C   0  0  0  0  0  0  0  0  0  0  0  0
    6.1836  -12.5700   26.7276 C   0  0  0  0  0  0  0  0  0  0  0  0
    7.1673  -12.7218   27.7131 C   0  0  0  0  0  0  0  0  0  0  0  0
    8.3541  -13.3086   27.3741 C   0  0  0  0  0  0  0  0  0  0  0  0
    9.5002  -16.4307   27.0274 O   0  0  0  0  0  0  0  0  0  0  0  0
   10.4715  -16.3169   28.0505 O   0  0  0  0  0  0  0  0  0  0  0  0
  2  1  1  0
  3  2  2  0
  4  2  1  0
  5  4  1  0
  6  5  1  0
  7  6  1  0
  8  7  1  0
  8  9  1  6
 10  8  1  0
 10 11  2  0
 13 12  1  1
 13 15  1  0
 13 14  1  0
 15 16  1  1
 16 10  1  0
 17 15  1  0
 18 17  2  0
 19 17  1  0
 20 28  1  0
 20 19  1  0
 20 21  1  1
 22 21  1  0
 22 23  2  0
 24 23  1  0
 25 24  2  0
 26 27  2  0
 26 25  1  0
 27 22  1  0
 28 29  1  0
 30 28  2  0
M  END
$$$$
