RTF.pdb
     RDKit          3D

 30 30  0  0  1  0  0  0  0  0999 V2000
    8.8248  -13.4712   17.8874 N   0  0  0  0  0  0  0  0  0  0  0  0
    8.7750  -12.7442   19.0964 C   0  0  0  0  0  0  0  0  0  0  0  0
    9.5019  -11.6627   19.2142 N   0  0  0  0  0  0  0  0  0  0  0  0
    7.9796  -13.1160   20.2234 N   0  0  0  0  0  0  0  0  0  0  0  0
    7.9201  -14.4468   20.7199 C   0  0  0  0  0  0  0  0  0  0  0  0
    6.7519  -15.2408   20.1979 C   0  0  0  0  0  0  0  0  0  0  0  0
    5.9207  -15.8831   21.2934 C   0  0  0  0  0  0  0  0  0  0  0  0
    6.5474  -17.2349   21.5955 C   0  0  2  0  0  0  0  0  0  0  0  0
    5.5622  -18.2158   21.1278 N   0  0  0  0  0  0  0  0  0  0  0  0
    6.8457  -17.4199   23.0266 C   0  0  0  0  0  0  0  0  0  0  0  0
    5.9346  -17.4762   23.9076 O   0  0  0  0  0  0  0  0  0  0  0  0
    9.4593  -11.1492   20.1260 C   0  0  0  0  0  0  0  0  0  0  0  0
    8.1273  -20.2246   24.5213 C   0  0  2  0  0  0  0  0  0  0  0  0
    9.1135  -19.1860   25.0437 O   0  0  0  0  0  0  0  0  0  0  0  0
   10.3418  -19.3729   24.4072 C   0  0  2  0  0  0  0  0  0  0  0  0
    8.5173  -17.8358   24.8170 N   0  0  0  0  0  0  0  0  0  0  0  0
    8.1965  -17.5407   23.4389 C   0  0  0  0  0  0  0  0  0  0  0  0
    9.2654  -16.7350   25.4680 O   0  0  0  0  0  0  0  0  0  0  0  0
   10.0814  -16.1205   24.6849 N   0  0  0  0  0  0  0  0  0  0  0  0
    9.1732  -16.3156   26.7906 C   0  0  1  0  0  0  0  0  0  0  0  0
   10.0733  -15.3753   27.4492 C   0  0  0  0  0  0  0  0  0  0  0  0
    9.1180  -14.4206   28.1972 C   0  0  0  0  0  0  0  0  0  0  0  0
    8.1862  -13.7143   27.3180 C   0  0  0  0  0  0  0  0  0  0  0  0
    8.4544  -12.4350   26.9086 C   0  0  0  0  0  0  0  0  0  0  0  0
    7.5828  -11.7873   26.0692 C   0  0  0  0  0  0  0  0  0  0  0  0
    6.4356  -12.4115   25.6315 C   0  0  0  0  0  0  0  0  0  0  0  0
    6.1526  -13.7190   26.0469 C   0  0  0  0  0  0  0  0  0  0  0  0
    7.0312  -14.3491   26.8829 C   0  0  0  0  0  0  0  0  0  0  0  0
   10.9546  -16.0011   28.4130 O   0  0  0  0  0  0  0  0  0  0  0  0
   10.8794  -17.3956   28.6425 O   0  0  0  0  0  0  0  0  0  0  0  0
  2  1  1  0
  3  2  2  0
  4  2  1  0
  5  4  1  0
  6  5  1  0
  7  6  1  0
  8  7  1  0
  8  9  1  1
 10  8  1  0
 10 11  2  0
 13 12  1  1
 13 15  1  0
 13 14  1  0
 15 16  1  1
 16 10  1  0
 17 15  1  0
 18 17  2  0
 19 17  1  0
 20 28  1  0
 20 19  1  0
 20 21  1  1
 22 21  1  0
 22 23  2  0
 24 23  1  0
 25 24  2  0
 26 27  2  0
 26 25  1  0
 27 22  1  0
 28 29  1  0
 30 28  2  0
M  END
$$$$
