RTF.pdb
     RDKit          3D

 30 30  0  0  1  0  0  0  0  0999 V2000
    8.2538  -13.0578   13.5291 N   0  0  0  0  0  0  0  0  0  0  0  0
    8.9881  -14.1886   13.9469 C   0  0  0  0  0  0  0  0  0  0  0  0
    9.5529  -14.9456   13.0414 N   0  0  0  0  0  0  0  0  0  0  0  0
    9.1550  -14.5771   15.3116 N   0  0  0  0  0  0  0  0  0  0  0  0
    8.0715  -14.9911   16.1335 C   0  0  0  0  0  0  0  0  0  0  0  0
    7.5787  -13.9250   17.0760 C   0  0  0  0  0  0  0  0  0  0  0  0
    8.3398  -13.8805   18.3882 C   0  0  0  0  0  0  0  0  0  0  0  0
    8.3778  -15.3000   18.9313 C   0  0  2  0  0  0  0  0  0  0  0  0
    7.6587  -16.1003   17.9344 N   0  0  0  0  0  0  0  0  0  0  0  0
    7.7551  -15.4202   20.2613 C   0  0  0  0  0  0  0  0  0  0  0  0
    6.6593  -14.8504   20.5512 O   0  0  0  0  0  0  0  0  0  0  0  0
   10.1058  -15.7693   13.3770 C   0  0  0  0  0  0  0  0  0  0  0  0
    5.8326  -17.4910   21.5820 C   0  0  2  0  0  0  0  0  0  0  0  0
    6.9112  -17.5984   22.6540 O   0  0  0  0  0  0  0  0  0  0  0  0
    7.5970  -18.8021   22.4821 C   0  0  2  0  0  0  0  0  0  0  0  0
    7.7814  -16.3895   22.5488 N   0  0  0  0  0  0  0  0  0  0  0  0
    8.3980  -16.1997   21.2554 C   0  0  0  0  0  0  0  0  0  0  0  0
    8.7523  -16.2533   23.6597 O   0  0  0  0  0  0  0  0  0  0  0  0
    9.9480  -16.6235   23.3596 N   0  0  0  0  0  0  0  0  0  0  0  0
    8.5076  -15.7802   24.9442 C   0  0  1  0  0  0  0  0  0  0  0  0
    9.4765  -15.7381   26.0338 C   0  0  0  0  0  0  0  0  0  0  0  0
    9.7812  -14.2328   26.1916 C   0  0  0  0  0  0  0  0  0  0  0  0
    8.5837  -13.3970   26.2783 C   0  0  0  0  0  0  0  0  0  0  0  0
    8.1273  -12.9644   27.4951 C   0  0  0  0  0  0  0  0  0  0  0  0
    7.0133  -12.1658   27.5646 C   0  0  0  0  0  0  0  0  0  0  0  0
    6.3453  -11.7922   26.4194 C   0  0  0  0  0  0  0  0  0  0  0  0
    6.8042  -12.2316   25.1710 C   0  0  0  0  0  0  0  0  0  0  0  0
    7.9148  -13.0264   25.1201 C   0  0  0  0  0  0  0  0  0  0  0  0
    8.9549  -16.2413   27.2875 O   0  0  0  0  0  0  0  0  0  0  0  0
    9.8031  -16.3532   28.4150 O   0  0  0  0  0  0  0  0  0  0  0  0
  2  1  1  0
  3  2  2  0
  4  2  1  0
  5  4  1  0
  6  5  1  0
  7  6  1  0
  8  7  1  0
  8  9  1  6
 10  8  1  0
 10 11  2  0
 13 12  1  1
 13 15  1  0
 13 14  1  0
 15 16  1  1
 16 10  1  0
 17 15  1  0
 18 17  2  0
 19 17  1  0
 20 28  1  0
 20 19  1  0
 20 21  1  1
 22 21  1  0
 22 23  2  0
 24 23  1  0
 25 24  2  0
 26 27  2  0
 26 25  1  0
 27 22  1  0
 28 29  1  0
 30 28  2  0
M  END
$$$$
