RTF.pdb
     RDKit          3D

 30 30  0  0  1  0  0  0  0  0999 V2000
   10.0077  -15.1394   16.8672 N   0  0  0  0  0  0  0  0  0  0  0  0
    9.1110  -14.3212   16.1469 C   0  0  0  0  0  0  0  0  0  0  0  0
    8.8906  -14.5838   14.8842 N   0  0  0  0  0  0  0  0  0  0  0  0
    8.4207  -13.2022   16.7058 N   0  0  0  0  0  0  0  0  0  0  0  0
    8.2271  -13.0357   18.1043 C   0  0  0  0  0  0  0  0  0  0  0  0
    7.2658  -14.0246   18.7091 C   0  0  0  0  0  0  0  0  0  0  0  0
    7.2066  -13.9598   20.2242 C   0  0  0  0  0  0  0  0  0  0  0  0
    8.5347  -14.4841   20.7462 C   0  0  2  0  0  0  0  0  0  0  0  0
    9.0096  -15.4008   19.7043 N   0  0  0  0  0  0  0  0  0  0  0  0
    8.4080  -15.1714   22.0435 C   0  0  0  0  0  0  0  0  0  0  0  0
    7.7347  -14.6884   23.0041 O   0  0  0  0  0  0  0  0  0  0  0  0
    8.1838  -13.9942   14.3845 C   0  0  0  0  0  0  0  0  0  0  0  0
    8.3568  -19.1897   22.5837 C   0  0  2  0  0  0  0  0  0  0  0  0
    9.3679  -18.5155   23.5041 O   0  0  0  0  0  0  0  0  0  0  0  0
   10.6548  -18.8131   23.0523 C   0  0  2  0  0  0  0  0  0  0  0  0
    9.0610  -17.0543   23.5271 N   0  0  0  0  0  0  0  0  0  0  0  0
    9.0584  -16.4170   22.2299 C   0  0  0  0  0  0  0  0  0  0  0  0
    9.8484  -16.2937   24.5254 O   0  0  0  0  0  0  0  0  0  0  0  0
   10.8018  -15.5932   24.0181 N   0  0  0  0  0  0  0  0  0  0  0  0
    9.6632  -16.2619   25.9032 C   0  0  1  0  0  0  0  0  0  0  0  0
   10.5480  -15.6143   26.8654 C   0  0  0  0  0  0  0  0  0  0  0  0
   10.4827  -14.1225   26.4728 C   0  0  0  0  0  0  0  0  0  0  0  0
    9.1562  -13.5288   26.6390 C   0  0  0  0  0  0  0  0  0  0  0  0
    8.8393  -12.8509   27.7863 C   0  0  0  0  0  0  0  0  0  0  0  0
    7.5980  -12.2820   27.9253 C   0  0  0  0  0  0  0  0  0  0  0  0
    6.6623  -12.3852   26.9198 C   0  0  0  0  0  0  0  0  0  0  0  0
    6.9774  -13.0782   25.7440 C   0  0  0  0  0  0  0  0  0  0  0  0
    8.2179  -13.6388   25.6222 C   0  0  0  0  0  0  0  0  0  0  0  0
   10.1069  -15.7541   28.2376 O   0  0  0  0  0  0  0  0  0  0  0  0
    8.9511  -16.5139   28.5375 O   0  0  0  0  0  0  0  0  0  0  0  0
  2  1  1  0
  3  2  2  0
  4  2  1  0
  5  4  1  0
  6  5  1  0
  7  6  1  0
  8  7  1  0
  8  9  1  6
 10  8  1  0
 10 11  2  0
 13 12  1  1
 13 15  1  0
 13 14  1  0
 15 16  1  1
 16 10  1  0
 17 15  1  0
 18 17  2  0
 19 17  1  0
 20 28  1  0
 20 19  1  0
 20 21  1  1
 22 21  1  0
 22 23  2  0
 24 23  1  0
 25 24  2  0
 26 27  2  0
 26 25  1  0
 27 22  1  0
 28 29  1  0
 30 28  2  0
M  END
$$$$
