RTF.pdb
     RDKit          3D

 30 30  0  0  1  0  0  0  0  0999 V2000
    6.8944  -13.3367   19.7084 N   0  0  0  0  0  0  0  0  0  0  0  0
    8.0602  -12.7038   19.2258 C   0  0  0  0  0  0  0  0  0  0  0  0
    8.3471  -11.4995   19.6491 N   0  0  0  0  0  0  0  0  0  0  0  0
    8.9609  -13.2914   18.2853 N   0  0  0  0  0  0  0  0  0  0  0  0
    9.0124  -14.6903   18.0373 C   0  0  0  0  0  0  0  0  0  0  0  0
   10.3021  -15.3387   18.4660 C   0  0  0  0  0  0  0  0  0  0  0  0
   10.3660  -15.6298   19.9541 C   0  0  0  0  0  0  0  0  0  0  0  0
    9.6440  -16.9479   20.1831 C   0  0  2  0  0  0  0  0  0  0  0  0
    8.7525  -17.0908   19.0272 N   0  0  0  0  0  0  0  0  0  0  0  0
    8.8864  -16.9729   21.4468 C   0  0  0  0  0  0  0  0  0  0  0  0
    7.6963  -17.4070   21.5157 O   0  0  0  0  0  0  0  0  0  0  0  0
    9.1557  -11.0092   19.1990 C   0  0  0  0  0  0  0  0  0  0  0  0
    8.2996  -19.0644   22.8555 C   0  0  2  0  0  0  0  0  0  0  0  0
    9.1418  -18.5226   24.0050 O   0  0  0  0  0  0  0  0  0  0  0  0
   10.4201  -19.0779   23.9258 C   0  0  2  0  0  0  0  0  0  0  0  0
    9.1266  -17.0319   23.9189 N   0  0  0  0  0  0  0  0  0  0  0  0
    9.5045  -16.4973   22.6303 C   0  0  0  0  0  0  0  0  0  0  0  0
    9.8339  -16.3614   25.0349 O   0  0  0  0  0  0  0  0  0  0  0  0
   11.0578  -16.0596   24.7742 N   0  0  0  0  0  0  0  0  0  0  0  0
    9.3233  -16.0367   26.2869 C   0  0  1  0  0  0  0  0  0  0  0  0
   10.0459  -15.3398   27.3453 C   0  0  0  0  0  0  0  0  0  0  0  0
    8.9362  -14.5811   28.1046 C   0  0  0  0  0  0  0  0  0  0  0  0
    8.1063  -13.7382   27.2440 C   0  0  0  0  0  0  0  0  0  0  0  0
    6.8368  -14.1281   26.9086 C   0  0  0  0  0  0  0  0  0  0  0  0
    6.0595  -13.3219   26.1153 C   0  0  0  0  0  0  0  0  0  0  0  0
    6.5432  -12.1192   25.6498 C   0  0  0  0  0  0  0  0  0  0  0  0
    7.8410  -11.7136   25.9863 C   0  0  0  0  0  0  0  0  0  0  0  0
    8.6015  -12.5286   26.7770 C   0  0  0  0  0  0  0  0  0  0  0  0
   10.7153  -16.2320   28.2689 O   0  0  0  0  0  0  0  0  0  0  0  0
   10.5932  -17.6337   28.1159 O   0  0  0  0  0  0  0  0  0  0  0  0
  2  1  1  0
  3  2  2  0
  4  2  1  0
  5  4  1  0
  6  5  1  0
  7  6  1  0
  8  7  1  0
  8  9  1  6
 10  8  1  0
 10 11  2  0
 13 12  1  1
 13 15  1  0
 13 14  1  0
 15 16  1  1
 16 10  1  0
 17 15  1  0
 18 17  2  0
 19 17  1  0
 20 28  1  0
 20 19  1  0
 20 21  1  1
 22 21  1  0
 22 23  2  0
 24 23  1  0
 25 24  2  0
 26 27  2  0
 26 25  1  0
 27 22  1  0
 28 29  1  0
 30 28  2  0
M  END
$$$$
