CFP.pdb
     RDKit          3D

 25 26  0  0  1  0  0  0  0  0999 V2000
   25.9988  -15.9541  -16.0296 N   0  0  0  0  0  0  0  0  0  0  0  0
   25.3333  -17.1356  -15.5744 C   0  0  1  0  0  0  0  0  0  0  0  0
   25.2347  -18.1898  -16.6854 C   0  0  0  0  0  0  0  0  0  0  0  0
   23.8037  -19.2655  -16.2855 S   0  0  0  0  0  0  0  0  0  0  0  0
   26.0309  -17.7580  -14.4231 C   0  0  0  0  0  0  0  0  0  0  0  0
   27.2943  -17.8481  -14.5049 O   0  0  0  0  0  0  0  0  0  0  0  0
   25.3199  -18.2271  -13.2904 N   0  0  0  0  0  0  0  0  0  0  0  0
   25.9487  -18.8733  -12.1729 C   0  0  1  0  0  0  0  0  0  0  0  0
   25.1386  -18.7816  -10.9204 C   0  0  0  0  0  0  0  0  0  0  0  0
   25.7804  -19.2692   -9.6978 C   0  0  0  0  0  0  0  0  0  0  0  0
   26.4638  -18.3842   -8.8823 C   0  0  0  0  0  0  0  0  0  0  0  0
   27.0533  -18.8316   -7.7244 C   0  0  0  0  0  0  0  0  0  0  0  0
   26.9955  -20.1503   -7.3262 C   0  0  0  0  0  0  0  0  0  0  0  0
   26.3117  -21.0460   -8.1383 C   0  0  0  0  0  0  0  0  0  0  0  0
   25.7293  -20.5957   -9.2854 C   0  0  0  0  0  0  0  0  0  0  0  0
   26.4501  -20.2096  -12.5076 C   0  0  0  0  0  0  0  0  0  0  0  0
   25.7163  -20.9139  -13.3060 O   0  0  0  0  0  0  0  0  0  0  0  0
   27.6259  -20.8474  -12.0803 N   0  0  0  0  0  0  0  0  0  0  0  0
   28.5693  -20.5570  -11.0257 C   0  0  0  0  0  0  0  0  0  0  0  0
   29.8997  -21.2021  -11.4406 C   0  0  0  0  0  0  0  0  0  0  0  0
   29.6124  -21.6634  -12.8702 C   0  0  0  0  0  0  0  0  0  0  0  0
   28.1735  -22.0890  -12.6817 C   0  0  1  0  0  0  0  0  0  0  0  0
   28.1159  -23.2186  -11.7488 C   0  0  0  0  0  0  0  0  0  0  0  0
   28.5536  -24.4969  -11.9777 O   0  0  0  0  0  0  0  0  0  0  0  0
   27.6056  -22.9826  -10.6091 O   0  0  0  0  0  0  0  0  0  0  0  0
  2  5  1  0
  2  1  1  6
  3  2  1  0
  4  3  1  0
  5  6  2  0
  7  8  1  0
  7  5  1  0
  8  9  1  1
  9 10  1  0
 10 11  2  0
 11 12  1  0
 13 12  2  0
 14 13  1  0
 15 14  2  0
 15 10  1  0
 16  8  1  0
 17 16  2  0
 18 16  1  0
 18 22  1  0
 19 20  1  0
 19 18  1  0
 20 21  1  0
 21 22  1  0
 22 23  1  1
 23 24  1  0
 25 23  2  0
M  END
$$$$
