CFP.pdb
     RDKit          3D

 25 26  0  0  1  0  0  0  0  0999 V2000
   26.4717  -21.5460  -13.0393 N   0  0  0  0  0  0  0  0  0  0  0  0
   25.7334  -20.7650  -12.0954 C   0  0  1  0  0  0  0  0  0  0  0  0
   24.2241  -21.0157  -12.2152 C   0  0  0  0  0  0  0  0  0  0  0  0
   23.6593  -20.1928  -13.7543 S   0  0  0  0  0  0  0  0  0  0  0  0
   26.1301  -21.0617  -10.6974 C   0  0  0  0  0  0  0  0  0  0  0  0
   26.1278  -22.2832  -10.3528 O   0  0  0  0  0  0  0  0  0  0  0  0
   26.4928  -20.0311   -9.7947 N   0  0  0  0  0  0  0  0  0  0  0  0
   26.9007  -20.2732   -8.4395 C   0  0  1  0  0  0  0  0  0  0  0  0
   28.0364  -19.4006   -8.0122 C   0  0  0  0  0  0  0  0  0  0  0  0
   28.4207  -19.4836   -6.6016 C   0  0  0  0  0  0  0  0  0  0  0  0
   27.8801  -18.5937   -5.6901 C   0  0  0  0  0  0  0  0  0  0  0  0
   28.2227  -18.6772   -4.3619 C   0  0  0  0  0  0  0  0  0  0  0  0
   29.0994  -19.6269   -3.8821 C   0  0  0  0  0  0  0  0  0  0  0  0
   29.6472  -20.5246   -4.7895 C   0  0  0  0  0  0  0  0  0  0  0  0
   29.3032  -20.4362   -6.1055 C   0  0  0  0  0  0  0  0  0  0  0  0
   25.7649  -20.3342   -7.5146 C   0  0  0  0  0  0  0  0  0  0  0  0
   24.7809  -19.5325   -7.7616 O   0  0  0  0  0  0  0  0  0  0  0  0
   25.5871  -21.1452   -6.3822 N   0  0  0  0  0  0  0  0  0  0  0  0
   26.4863  -21.9926   -5.6340 C   0  0  0  0  0  0  0  0  0  0  0  0
   25.6140  -23.0481   -4.9388 C   0  0  0  0  0  0  0  0  0  0  0  0
   24.2359  -22.7944   -5.5514 C   0  0  0  0  0  0  0  0  0  0  0  0
   24.3075  -21.2866   -5.6435 C   0  0  1  0  0  0  0  0  0  0  0  0
   24.3902  -20.7177   -4.2947 C   0  0  0  0  0  0  0  0  0  0  0  0
   23.3520  -20.5110   -3.4246 O   0  0  0  0  0  0  0  0  0  0  0  0
   25.5491  -20.3826   -3.8948 O   0  0  0  0  0  0  0  0  0  0  0  0
  2  5  1  0
  2  1  1  6
  3  2  1  0
  4  3  1  0
  5  6  2  0
  7  8  1  0
  7  5  1  0
  8  9  1  1
  9 10  1  0
 10 11  2  0
 11 12  1  0
 13 12  2  0
 14 13  1  0
 15 14  2  0
 15 10  1  0
 16  8  1  0
 17 16  2  0
 18 16  1  0
 18 22  1  0
 19 20  1  0
 19 18  1  0
 20 21  1  0
 21 22  1  0
 22 23  1  1
 23 24  1  0
 25 23  2  0
M  END
$$$$
