CFP.pdb
     RDKit          3D

 25 26  0  0  1  0  0  0  0  0999 V2000
   29.0790  -21.3065  -18.6796 N   0  0  0  0  0  0  0  0  0  0  0  0
   28.6492  -20.2764  -17.7850 C   0  0  1  0  0  0  0  0  0  0  0  0
   27.7323  -19.2664  -18.4882 C   0  0  0  0  0  0  0  0  0  0  0  0
   28.8119  -17.9918  -19.2464 S   0  0  0  0  0  0  0  0  0  0  0  0
   27.9091  -20.8234  -16.6219 C   0  0  0  0  0  0  0  0  0  0  0  0
   27.1158  -21.7864  -16.8546 O   0  0  0  0  0  0  0  0  0  0  0  0
   28.0814  -20.2953  -15.3181 N   0  0  0  0  0  0  0  0  0  0  0  0
   27.2622  -20.6668  -14.1989 C   0  0  1  0  0  0  0  0  0  0  0  0
   27.8883  -20.3267  -12.8852 C   0  0  0  0  0  0  0  0  0  0  0  0
   27.0426  -20.4976  -11.7020 C   0  0  0  0  0  0  0  0  0  0  0  0
   26.2941  -19.4315  -11.2344 C   0  0  0  0  0  0  0  0  0  0  0  0
   25.4847  -19.5898  -10.1353 C   0  0  0  0  0  0  0  0  0  0  0  0
   25.3794  -20.7872   -9.4599 C   0  0  0  0  0  0  0  0  0  0  0  0
   26.1268  -21.8629   -9.9219 C   0  0  0  0  0  0  0  0  0  0  0  0
   26.9277  -21.6991  -11.0126 C   0  0  0  0  0  0  0  0  0  0  0  0
   25.8663  -20.2501  -14.3631 C   0  0  0  0  0  0  0  0  0  0  0  0
   25.6745  -19.0495  -14.8032 O   0  0  0  0  0  0  0  0  0  0  0  0
   24.6900  -20.9727  -14.1066 N   0  0  0  0  0  0  0  0  0  0  0  0
   24.4440  -22.2565  -13.4920 C   0  0  0  0  0  0  0  0  0  0  0  0
   23.1008  -22.7549  -14.0448 C   0  0  0  0  0  0  0  0  0  0  0  0
   22.7878  -21.7256  -15.1319 C   0  0  0  0  0  0  0  0  0  0  0  0
   23.3233  -20.4953  -14.4342 C   0  0  1  0  0  0  0  0  0  0  0  0
   22.5325  -20.2345  -13.2273 C   0  0  0  0  0  0  0  0  0  0  0  0
   21.4225  -19.4372  -13.1282 O   0  0  0  0  0  0  0  0  0  0  0  0
   22.9213  -20.8111  -12.1635 O   0  0  0  0  0  0  0  0  0  0  0  0
  2  5  1  0
  2  1  1  6
  3  2  1  0
  4  3  1  0
  5  6  2  0
  7  8  1  0
  7  5  1  0
  8  9  1  1
  9 10  1  0
 10 11  2  0
 11 12  1  0
 13 12  2  0
 14 13  1  0
 15 14  2  0
 15 10  1  0
 16  8  1  0
 17 16  2  0
 18 16  1  0
 18 22  1  0
 19 20  1  0
 19 18  1  0
 20 21  1  0
 21 22  1  0
 22 23  1  1
 23 24  1  0
 25 23  2  0
M  END
$$$$
