CFP.pdb
     RDKit          3D

 25 26  0  0  1  0  0  0  0  0999 V2000
   26.1793  -15.7385  -18.5471 N   0  0  0  0  0  0  0  0  0  0  0  0
   25.4462  -15.9376  -17.3351 C   0  0  1  0  0  0  0  0  0  0  0  0
   23.9378  -16.0376  -17.5994 C   0  0  0  0  0  0  0  0  0  0  0  0
   23.3273  -14.3346  -17.9028 S   0  0  0  0  0  0  0  0  0  0  0  0
   25.8632  -17.1738  -16.6299 C   0  0  0  0  0  0  0  0  0  0  0  0
   26.1090  -18.1864  -17.3547 O   0  0  0  0  0  0  0  0  0  0  0  0
   25.9804  -17.2189  -15.2183 N   0  0  0  0  0  0  0  0  0  0  0  0
   26.1658  -18.4351  -14.4778 C   0  0  1  0  0  0  0  0  0  0  0  0
   26.6197  -18.1946  -13.0742 C   0  0  0  0  0  0  0  0  0  0  0  0
   26.6558  -19.3662  -12.1964 C   0  0  0  0  0  0  0  0  0  0  0  0
   25.6083  -19.6010  -11.3230 C   0  0  0  0  0  0  0  0  0  0  0  0
   25.6272  -20.7081  -10.5091 C   0  0  0  0  0  0  0  0  0  0  0  0
   26.6633  -21.6176  -10.5207 C   0  0  0  0  0  0  0  0  0  0  0  0
   27.7191  -21.3903  -11.3941 C   0  0  0  0  0  0  0  0  0  0  0  0
   27.6941  -20.2903  -12.1987 C   0  0  0  0  0  0  0  0  0  0  0  0
   25.0400  -19.3615  -14.6304 C   0  0  0  0  0  0  0  0  0  0  0  0
   23.8710  -18.8257  -14.7656 O   0  0  0  0  0  0  0  0  0  0  0  0
   25.0443  -20.7655  -14.6492 N   0  0  0  0  0  0  0  0  0  0  0  0
   26.0525  -21.7459  -14.3193 C   0  0  0  0  0  0  0  0  0  0  0  0
   25.6981  -23.0174  -15.1042 C   0  0  0  0  0  0  0  0  0  0  0  0
   24.5578  -22.5427  -16.0060 C   0  0  0  0  0  0  0  0  0  0  0  0
   23.8808  -21.6035  -15.0330 C   0  0  1  0  0  0  0  0  0  0  0  0
   23.3609  -22.3690  -13.8958 C   0  0  0  0  0  0  0  0  0  0  0  0
   22.2080  -23.1091  -13.8612 O   0  0  0  0  0  0  0  0  0  0  0  0
   24.0561  -22.3404  -12.8323 O   0  0  0  0  0  0  0  0  0  0  0  0
  2  5  1  0
  2  1  1  6
  3  2  1  0
  4  3  1  0
  5  6  2  0
  7  8  1  0
  7  5  1  0
  8  9  1  1
  9 10  1  0
 10 11  2  0
 11 12  1  0
 13 12  2  0
 14 13  1  0
 15 14  2  0
 15 10  1  0
 16  8  1  0
 17 16  2  0
 18 16  1  0
 18 22  1  0
 19 20  1  0
 19 18  1  0
 20 21  1  0
 21 22  1  0
 22 23  1  1
 23 24  1  0
 25 23  2  0
M  END
$$$$
