CFP.pdb
     RDKit          3D

 25 26  0  0  1  0  0  0  0  0999 V2000
   27.0887  -31.9581  -21.3260 N   0  0  0  0  0  0  0  0  0  0  0  0
   26.1605  -31.7593  -20.2560 C   0  0  1  0  0  0  0  0  0  0  0  0
   24.7837  -32.3504  -20.5878 C   0  0  0  0  0  0  0  0  0  0  0  0
   23.6490  -31.8771  -19.2264 S   0  0  0  0  0  0  0  0  0  0  0  0
   26.6262  -32.3824  -18.9933 C   0  0  0  0  0  0  0  0  0  0  0  0
   27.0339  -33.5821  -19.0678 O   0  0  0  0  0  0  0  0  0  0  0  0
   26.6152  -31.6716  -17.7673 N   0  0  0  0  0  0  0  0  0  0  0  0
   27.0269  -32.2442  -16.5165 C   0  0  1  0  0  0  0  0  0  0  0  0
   27.9143  -31.3359  -15.7284 C   0  0  0  0  0  0  0  0  0  0  0  0
   29.2407  -31.0778  -16.2928 C   0  0  0  0  0  0  0  0  0  0  0  0
   30.2690  -31.9757  -16.0660 C   0  0  0  0  0  0  0  0  0  0  0  0
   31.5115  -31.7489  -16.6074 C   0  0  0  0  0  0  0  0  0  0  0  0
   31.7899  -30.6441  -17.3838 C   0  0  0  0  0  0  0  0  0  0  0  0
   30.7641  -29.7371  -17.6170 C   0  0  0  0  0  0  0  0  0  0  0  0
   29.5340  -29.9682  -17.0770 C   0  0  0  0  0  0  0  0  0  0  0  0
   25.9090  -32.8376  -15.7767 C   0  0  0  0  0  0  0  0  0  0  0  0
   24.7583  -32.2656  -15.9207 O   0  0  0  0  0  0  0  0  0  0  0  0
   25.9047  -33.9504  -14.9203 N   0  0  0  0  0  0  0  0  0  0  0  0
   26.9581  -34.7951  -14.4074 C   0  0  0  0  0  0  0  0  0  0  0  0
   26.3076  -36.1425  -14.0616 C   0  0  0  0  0  0  0  0  0  0  0  0
   24.8948  -35.9823  -14.6249 C   0  0  0  0  0  0  0  0  0  0  0  0
   24.6870  -34.5217  -14.2926 C   0  0  1  0  0  0  0  0  0  0  0  0
   24.6900  -34.3462  -12.8369 C   0  0  0  0  0  0  0  0  0  0  0  0
   25.5703  -33.5971  -12.1010 O   0  0  0  0  0  0  0  0  0  0  0  0
   23.7780  -34.9548  -12.1942 O   0  0  0  0  0  0  0  0  0  0  0  0
  2  5  1  0
  2  1  1  6
  3  2  1  0
  4  3  1  0
  5  6  2  0
  7  8  1  0
  7  5  1  0
  8  9  1  1
  9 10  1  0
 10 11  2  0
 11 12  1  0
 13 12  2  0
 14 13  1  0
 15 14  2  0
 15 10  1  0
 16  8  1  0
 17 16  2  0
 18 16  1  0
 18 22  1  0
 19 20  1  0
 19 18  1  0
 20 21  1  0
 21 22  1  0
 22 23  1  1
 23 24  1  0
 25 23  2  0
M  END
$$$$
