CFP.pdb
     RDKit          3D

 25 26  0  0  1  0  0  0  0  0999 V2000
   29.5017  -22.0548  -18.0075 N   0  0  0  0  0  0  0  0  0  0  0  0
   28.7163  -20.9844  -17.4751 C   0  0  1  0  0  0  0  0  0  0  0  0
   27.7245  -20.4431  -18.5138 C   0  0  0  0  0  0  0  0  0  0  0  0
   28.5904  -19.1282  -19.4551 S   0  0  0  0  0  0  0  0  0  0  0  0
   27.9379  -21.4048  -16.2848 C   0  0  0  0  0  0  0  0  0  0  0  0
   27.4240  -22.5648  -16.3221 O   0  0  0  0  0  0  0  0  0  0  0  0
   27.7778  -20.5522  -15.1642 N   0  0  0  0  0  0  0  0  0  0  0  0
   26.9147  -20.8537  -14.0570 C   0  0  1  0  0  0  0  0  0  0  0  0
   27.3330  -20.1718  -12.7945 C   0  0  0  0  0  0  0  0  0  0  0  0
   26.4662  -20.3748  -11.6319 C   0  0  0  0  0  0  0  0  0  0  0  0
   26.9069  -21.1528  -10.5755 C   0  0  0  0  0  0  0  0  0  0  0  0
   26.1060  -21.3330   -9.4736 C   0  0  0  0  0  0  0  0  0  0  0  0
   24.8551  -20.7630   -9.3667 C   0  0  0  0  0  0  0  0  0  0  0  0
   24.4041  -19.9805  -10.4220 C   0  0  0  0  0  0  0  0  0  0  0  0
   25.2036  -19.8058  -11.5121 C   0  0  0  0  0  0  0  0  0  0  0  0
   25.4954  -20.7320  -14.4033 C   0  0  0  0  0  0  0  0  0  0  0  0
   25.1479  -19.6536  -15.0266 O   0  0  0  0  0  0  0  0  0  0  0  0
   24.4423  -21.6260  -14.1518 N   0  0  0  0  0  0  0  0  0  0  0  0
   24.3544  -22.8423  -13.3776 C   0  0  0  0  0  0  0  0  0  0  0  0
   23.1949  -23.6550  -13.9719 C   0  0  0  0  0  0  0  0  0  0  0  0
   22.8373  -22.8543  -15.2248 C   0  0  0  0  0  0  0  0  0  0  0  0
   23.0617  -21.4645  -14.6723 C   0  0  1  0  0  0  0  0  0  0  0  0
   22.0998  -21.2048  -13.5966 C   0  0  0  0  0  0  0  0  0  0  0  0
   22.3871  -20.9410  -12.2830 O   0  0  0  0  0  0  0  0  0  0  0  0
   20.8714  -21.2278  -13.9216 O   0  0  0  0  0  0  0  0  0  0  0  0
  2  5  1  0
  2  1  1  6
  3  2  1  0
  4  3  1  0
  5  6  2  0
  7  8  1  0
  7  5  1  0
  8  9  1  1
  9 10  1  0
 10 11  2  0
 11 12  1  0
 13 12  2  0
 14 13  1  0
 15 14  2  0
 15 10  1  0
 16  8  1  0
 17 16  2  0
 18 16  1  0
 18 22  1  0
 19 20  1  0
 19 18  1  0
 20 21  1  0
 21 22  1  0
 22 23  1  1
 23 24  1  0
 25 23  2  0
M  END
$$$$
