CFP.pdb
     RDKit          3D

 25 26  0  0  1  0  0  0  0  0999 V2000
   28.9610  -19.6775  -18.5695 N   0  0  0  0  0  0  0  0  0  0  0  0
   28.3575  -18.8600  -17.5628 C   0  0  1  0  0  0  0  0  0  0  0  0
   27.3308  -17.8912  -18.1650 C   0  0  0  0  0  0  0  0  0  0  0  0
   26.7255  -16.8264  -16.7994 S   0  0  0  0  0  0  0  0  0  0  0  0
   27.6631  -19.6693  -16.5320 C   0  0  0  0  0  0  0  0  0  0  0  0
   26.9108  -20.6012  -16.9525 O   0  0  0  0  0  0  0  0  0  0  0  0
   27.8331  -19.4126  -15.1487 N   0  0  0  0  0  0  0  0  0  0  0  0
   27.0933  -20.0898  -14.1212 C   0  0  1  0  0  0  0  0  0  0  0  0
   27.6901  -19.9082  -12.7630 C   0  0  0  0  0  0  0  0  0  0  0  0
   26.8517  -20.3048  -11.6298 C   0  0  0  0  0  0  0  0  0  0  0  0
   26.9128  -21.6024  -11.1526 C   0  0  0  0  0  0  0  0  0  0  0  0
   26.1420  -21.9766  -10.0783 C   0  0  0  0  0  0  0  0  0  0  0  0
   25.2908  -21.1015   -9.4375 C   0  0  0  0  0  0  0  0  0  0  0  0
   25.2227  -19.7969   -9.9093 C   0  0  0  0  0  0  0  0  0  0  0  0
   25.9899  -19.4322  -10.9754 C   0  0  0  0  0  0  0  0  0  0  0  0
   25.6505  -19.8483  -14.2174 C   0  0  0  0  0  0  0  0  0  0  0  0
   25.2905  -18.6506  -14.5463 O   0  0  0  0  0  0  0  0  0  0  0  0
   24.5868  -20.7385  -13.9993 N   0  0  0  0  0  0  0  0  0  0  0  0
   24.5309  -22.0954  -13.5073 C   0  0  0  0  0  0  0  0  0  0  0  0
   23.2398  -22.7098  -14.0674 C   0  0  0  0  0  0  0  0  0  0  0  0
   22.7543  -21.6323  -15.0381 C   0  0  0  0  0  0  0  0  0  0  0  0
   23.1582  -20.4140  -14.2384 C   0  0  1  0  0  0  0  0  0  0  0  0
   22.3916  -20.3729  -12.9892 C   0  0  0  0  0  0  0  0  0  0  0  0
   21.1980  -19.7336  -12.7779 O   0  0  0  0  0  0  0  0  0  0  0  0
   22.8904  -20.9975  -12.0012 O   0  0  0  0  0  0  0  0  0  0  0  0
  2  5  1  0
  2  1  1  6
  3  2  1  0
  4  3  1  0
  5  6  2  0
  7  8  1  0
  7  5  1  0
  8  9  1  1
  9 10  1  0
 10 11  2  0
 11 12  1  0
 13 12  2  0
 14 13  1  0
 15 14  2  0
 15 10  1  0
 16  8  1  0
 17 16  2  0
 18 16  1  0
 18 22  1  0
 19 20  1  0
 19 18  1  0
 20 21  1  0
 21 22  1  0
 22 23  1  1
 23 24  1  0
 25 23  2  0
M  END
$$$$
