CFP.pdb
     RDKit          3D

 25 26  0  0  1  0  0  0  0  0999 V2000
   26.0022  -22.0329  -13.2028 N   0  0  0  0  0  0  0  0  0  0  0  0
   25.7033  -20.8852  -12.4032 C   0  0  1  0  0  0  0  0  0  0  0  0
   24.2477  -20.4348  -12.5866 C   0  0  0  0  0  0  0  0  0  0  0  0
   24.0911  -19.7937  -14.2981 S   0  0  0  0  0  0  0  0  0  0  0  0
   25.9167  -21.1435  -10.9584 C   0  0  0  0  0  0  0  0  0  0  0  0
   25.4773  -22.2453  -10.5068 O   0  0  0  0  0  0  0  0  0  0  0  0
   26.5779  -20.2054  -10.1269 N   0  0  0  0  0  0  0  0  0  0  0  0
   26.7986  -20.4096   -8.7229 C   0  0  1  0  0  0  0  0  0  0  0  0
   27.9561  -19.6227   -8.1985 C   0  0  0  0  0  0  0  0  0  0  0  0
   28.1976  -19.7102   -6.7568 C   0  0  0  0  0  0  0  0  0  0  0  0
   28.9348  -20.7650   -6.2478 C   0  0  0  0  0  0  0  0  0  0  0  0
   29.1804  -20.8437   -4.8981 C   0  0  0  0  0  0  0  0  0  0  0  0
   28.7171  -19.9007   -4.0053 C   0  0  0  0  0  0  0  0  0  0  0  0
   27.9762  -18.8383   -4.5069 C   0  0  0  0  0  0  0  0  0  0  0  0
   27.7362  -18.7662   -5.8467 C   0  0  0  0  0  0  0  0  0  0  0  0
   25.5618  -20.3156   -7.9415 C   0  0  0  0  0  0  0  0  0  0  0  0
   24.7153  -19.4120   -8.3146 O   0  0  0  0  0  0  0  0  0  0  0  0
   25.1564  -21.0718   -6.8300 N   0  0  0  0  0  0  0  0  0  0  0  0
   25.8162  -22.0887   -6.0445 C   0  0  0  0  0  0  0  0  0  0  0  0
   24.7059  -22.9388   -5.4099 C   0  0  0  0  0  0  0  0  0  0  0  0
   23.4470  -22.4023   -6.0928 C   0  0  0  0  0  0  0  0  0  0  0  0
   23.8367  -20.9428   -6.1631 C   0  0  1  0  0  0  0  0  0  0  0  0
   23.9618  -20.4042   -4.8051 C   0  0  0  0  0  0  0  0  0  0  0  0
   24.4956  -21.0397   -3.7147 O   0  0  0  0  0  0  0  0  0  0  0  0
   23.5284  -19.2231   -4.6254 O   0  0  0  0  0  0  0  0  0  0  0  0
  2  5  1  0
  2  1  1  6
  3  2  1  0
  4  3  1  0
  5  6  2  0
  7  8  1  0
  7  5  1  0
  8  9  1  1
  9 10  1  0
 10 11  2  0
 11 12  1  0
 13 12  2  0
 14 13  1  0
 15 14  2  0
 15 10  1  0
 16  8  1  0
 17 16  2  0
 18 16  1  0
 18 22  1  0
 19 20  1  0
 19 18  1  0
 20 21  1  0
 21 22  1  0
 22 23  1  1
 23 24  1  0
 25 23  2  0
M  END
$$$$
