CFP.pdb
     RDKit          3D

 25 26  0  0  1  0  0  0  0  0999 V2000
   23.6352  -19.5242  -13.1413 N   0  0  0  0  0  0  0  0  0  0  0  0
   23.5751  -20.1315  -11.8476 C   0  0  1  0  0  0  0  0  0  0  0  0
   23.2338  -21.6248  -11.9420 C   0  0  0  0  0  0  0  0  0  0  0  0
   24.2901  -22.3391  -13.2606 S   0  0  0  0  0  0  0  0  0  0  0  0
   24.8588  -20.0078  -11.1153 C   0  0  0  0  0  0  0  0  0  0  0  0
   25.8738  -19.6727  -11.7997 O   0  0  0  0  0  0  0  0  0  0  0  0
   24.9444  -20.2521   -9.7219 N   0  0  0  0  0  0  0  0  0  0  0  0
   26.1686  -20.1648   -8.9767 C   0  0  1  0  0  0  0  0  0  0  0  0
   25.9438  -20.0891   -7.5010 C   0  0  0  0  0  0  0  0  0  0  0  0
   27.1256  -19.8185   -6.6797 C   0  0  0  0  0  0  0  0  0  0  0  0
   27.5890  -18.5208   -6.5516 C   0  0  0  0  0  0  0  0  0  0  0  0
   28.6867  -18.2572   -5.7682 C   0  0  0  0  0  0  0  0  0  0  0  0
   29.3649  -19.2461   -5.0876 C   0  0  0  0  0  0  0  0  0  0  0  0
   28.9072  -20.5517   -5.2101 C   0  0  0  0  0  0  0  0  0  0  0  0
   27.8177  -20.8063   -5.9888 C   0  0  0  0  0  0  0  0  0  0  0  0
   27.1642  -21.1466   -9.4170 C   0  0  0  0  0  0  0  0  0  0  0  0
   26.7214  -22.3319   -9.6838 O   0  0  0  0  0  0  0  0  0  0  0  0
   28.5483  -20.9875   -9.5918 N   0  0  0  0  0  0  0  0  0  0  0  0
   29.4703  -19.9445   -9.2063 C   0  0  0  0  0  0  0  0  0  0  0  0
   30.6567  -20.0300  -10.1775 C   0  0  0  0  0  0  0  0  0  0  0  0
   30.1726  -21.0570  -11.2021 C   0  0  0  0  0  0  0  0  0  0  0  0
   29.4293  -21.9776  -10.2602 C   0  0  1  0  0  0  0  0  0  0  0  0
   30.3773  -22.5859   -9.3216 C   0  0  0  0  0  0  0  0  0  0  0  0
   31.2708  -23.5895   -9.5903 O   0  0  0  0  0  0  0  0  0  0  0  0
   30.3656  -22.1310   -8.1349 O   0  0  0  0  0  0  0  0  0  0  0  0
  2  5  1  0
  2  1  1  6
  3  2  1  0
  4  3  1  0
  5  6  2  0
  7  8  1  0
  7  5  1  0
  8  9  1  1
  9 10  1  0
 10 11  2  0
 11 12  1  0
 13 12  2  0
 14 13  1  0
 15 14  2  0
 15 10  1  0
 16  8  1  0
 17 16  2  0
 18 16  1  0
 18 22  1  0
 19 20  1  0
 19 18  1  0
 20 21  1  0
 21 22  1  0
 22 23  1  1
 23 24  1  0
 25 23  2  0
M  END
$$$$
