MQR.pdb
     RDKit          3D

 29 28  0  0  1  0  0  0  0  0999 V2000
   28.7495  -21.8338   -9.6029 C   0  0  0  0  0  0  0  0  0  0  0  0
   30.2833  -20.9478   -9.8778 S   0  0  0  0  0  0  0  0  0  0  0  0
   30.6563  -21.0085  -11.6702 C   0  0  0  0  0  0  0  0  0  0  0  0
   29.6121  -20.3087  -12.4515 C   0  0  0  0  0  0  0  0  0  0  0  0
   28.3447  -21.0653  -12.6954 C   0  0  2  0  0  0  0  0  0  0  0  0
   28.6758  -22.2911  -13.4622 N   0  0  0  0  0  0  0  0  0  0  0  0
   27.4534  -20.2134  -13.5616 C   0  0  0  0  0  0  0  0  0  0  0  0
   26.9476  -19.2134  -12.9905 O   0  0  0  0  0  0  0  0  0  0  0  0
   28.5253  -21.3839  -18.7434 N   0  0  0  0  0  0  0  0  0  0  0  0
   28.9104  -20.0723  -18.3806 C   0  0  0  0  0  0  0  0  0  0  0  0
   30.0168  -19.6126  -18.7435 O   0  0  0  0  0  0  0  0  0  0  0  0
   28.0172  -19.2126  -17.5649 C   0  0  0  0  0  0  0  0  0  0  0  0
   26.7480  -19.9714  -17.2707 C   0  0  0  0  0  0  0  0  0  0  0  0
   26.3614  -19.8324  -15.7860 C   0  0  2  0  0  0  0  0  0  0  0  0
   27.2322  -20.5418  -14.8966 N   0  0  0  0  0  0  0  0  0  0  0  0
   24.9371  -20.0786  -15.6317 C   0  0  0  0  0  0  0  0  0  0  0  0
   24.4759  -21.2744  -15.6437 O   0  0  0  0  0  0  0  0  0  0  0  0
   24.3165  -20.6542  -10.3097 N   0  0  0  0  0  0  0  0  0  0  0  0
   22.9915  -20.9493   -9.9281 C   0  0  0  0  0  0  0  0  0  0  0  0
   22.6347  -20.8387   -8.7010 N   0  0  0  0  0  0  0  0  0  0  0  0
   22.0651  -21.3678  -10.9136 N   0  0  0  0  0  0  0  0  0  0  0  0
   21.6012  -20.4554  -11.9150 C   0  0  0  0  0  0  0  0  0  0  0  0
   22.7658  -19.8401  -12.6662 C   0  0  0  0  0  0  0  0  0  0  0  0
   22.2800  -18.8830  -13.7052 C   0  0  0  0  0  0  0  0  0  0  0  0
   22.5539  -19.3715  -15.0862 C   0  0  2  0  0  0  0  0  0  0  0  0
   23.9573  -19.0613  -15.4594 N   0  0  0  0  0  0  0  0  0  0  0  0
   21.7201  -18.6986  -16.0858 C   0  0  0  0  0  0  0  0  0  0  0  0
   20.3819  -18.9996  -16.1946 O   0  0  0  0  0  0  0  0  0  0  0  0
   22.2042  -17.8438  -16.8568 O   0  0  0  0  0  0  0  0  0  0  0  0
  2  1  1  0
  3  4  1  0
  3  2  1  0
  4  5  1  0
  5  7  1  0
  5  6  1  6
  7  8  2  0
 10 12  1  0
 10  9  1  0
 11 10  2  0
 13 12  1  0
 14 13  1  6
 15 14  1  0
 15  7  1  0
 16 17  2  0
 16 14  1  0
 19 21  1  0
 19 18  1  0
 20 19  2  0
 22 21  1  0
 23 22  1  0
 23 24  1  0
 25 24  1  1
 25 26  1  0
 26 16  1  0
 27 25  1  0
 27 28  1  0
 29 27  2  0
M  END
$$$$
