MQR.pdb
     RDKit          3D

 29 28  0  0  1  0  0  0  0  0999 V2000
   29.7857  -21.0951   -5.8559 C   0  0  0  0  0  0  0  0  0  0  0  0
   28.7603  -19.7778   -5.2030 S   0  0  0  0  0  0  0  0  0  0  0  0
   27.0123  -20.3130   -5.3199 C   0  0  0  0  0  0  0  0  0  0  0  0
   26.6232  -20.5438   -6.7290 C   0  0  0  0  0  0  0  0  0  0  0  0
   27.1318  -19.5551   -7.7300 C   0  0  2  0  0  0  0  0  0  0  0  0
   26.7231  -18.1982   -7.2916 N   0  0  0  0  0  0  0  0  0  0  0  0
   26.4513  -19.8326   -9.0456 C   0  0  0  0  0  0  0  0  0  0  0  0
   25.2367  -19.5103   -9.0993 O   0  0  0  0  0  0  0  0  0  0  0  0
   28.4705  -22.3344  -15.4952 N   0  0  0  0  0  0  0  0  0  0  0  0
   28.2824  -21.0943  -14.8418 C   0  0  0  0  0  0  0  0  0  0  0  0
   29.0484  -20.1319  -15.0746 O   0  0  0  0  0  0  0  0  0  0  0  0
   27.1779  -20.9038  -13.8691 C   0  0  0  0  0  0  0  0  0  0  0  0
   27.7612  -20.8227  -12.4812 C   0  0  0  0  0  0  0  0  0  0  0  0
   26.6600  -20.5357  -11.4429 C   0  0  2  0  0  0  0  0  0  0  0  0
   27.1526  -20.4040  -10.1041 N   0  0  0  0  0  0  0  0  0  0  0  0
   25.5566  -21.4615  -11.6393 C   0  0  0  0  0  0  0  0  0  0  0  0
   25.2196  -22.2816  -10.7137 O   0  0  0  0  0  0  0  0  0  0  0  0
   18.3274  -22.6095  -10.3168 N   0  0  0  0  0  0  0  0  0  0  0  0
   18.1173  -21.4513  -11.0931 C   0  0  0  0  0  0  0  0  0  0  0  0
   16.9965  -21.2705  -11.6903 N   0  0  0  0  0  0  0  0  0  0  0  0
   19.1558  -20.4955  -11.2040 N   0  0  0  0  0  0  0  0  0  0  0  0
   20.1897  -20.6499  -12.1827 C   0  0  0  0  0  0  0  0  0  0  0  0
   21.1534  -21.7496  -11.7813 C   0  0  0  0  0  0  0  0  0  0  0  0
   22.5656  -21.2666  -11.8465 C   0  0  0  0  0  0  0  0  0  0  0  0
   23.3794  -22.0498  -12.8187 C   0  0  2  0  0  0  0  0  0  0  0  0
   24.7759  -21.5450  -12.8259 N   0  0  0  0  0  0  0  0  0  0  0  0
   22.8957  -21.8973  -14.1934 C   0  0  0  0  0  0  0  0  0  0  0  0
   21.9810  -22.7839  -14.7134 O   0  0  0  0  0  0  0  0  0  0  0  0
   23.3026  -20.9655  -14.9185 O   0  0  0  0  0  0  0  0  0  0  0  0
  2  1  1  0
  3  4  1  0
  3  2  1  0
  4  5  1  0
  5  7  1  0
  5  6  1  1
  7  8  2  0
 10 12  1  0
 10  9  1  0
 11 10  2  0
 13 12  1  0
 14 13  1  6
 15 14  1  0
 15  7  1  0
 16 17  2  0
 16 14  1  0
 19 21  1  0
 19 18  1  0
 20 19  2  0
 22 21  1  0
 23 22  1  0
 23 24  1  0
 25 24  1  1
 25 26  1  0
 26 16  1  0
 27 25  1  0
 27 28  1  0
 29 27  2  0
M  END
$$$$
