MQR.pdb
     RDKit          3D

 29 28  0  0  1  0  0  0  0  0999 V2000
   23.6205  -20.8944   -7.1685 C   0  0  0  0  0  0  0  0  0  0  0  0
   23.9310  -20.7932   -8.9310 S   0  0  0  0  0  0  0  0  0  0  0  0
   25.6438  -20.1886   -9.1684 C   0  0  0  0  0  0  0  0  0  0  0  0
   25.9203  -19.9324  -10.5995 C   0  0  0  0  0  0  0  0  0  0  0  0
   25.1763  -20.7796  -11.5829 C   0  0  2  0  0  0  0  0  0  0  0  0
   25.6280  -22.1833  -11.4218 N   0  0  0  0  0  0  0  0  0  0  0  0
   25.5636  -20.3330  -12.9690 C   0  0  0  0  0  0  0  0  0  0  0  0
   25.3208  -19.1270  -13.2311 O   0  0  0  0  0  0  0  0  0  0  0  0
   29.3589  -23.5971  -16.9221 N   0  0  0  0  0  0  0  0  0  0  0  0
   29.1826  -22.3487  -17.5629 C   0  0  0  0  0  0  0  0  0  0  0  0
   29.8256  -22.0719  -18.6008 O   0  0  0  0  0  0  0  0  0  0  0  0
   28.2359  -21.3410  -17.0239 C   0  0  0  0  0  0  0  0  0  0  0  0
   27.5874  -21.8986  -15.7823 C   0  0  0  0  0  0  0  0  0  0  0  0
   26.5869  -20.8885  -15.1892 C   0  0  2  0  0  0  0  0  0  0  0  0
   26.1494  -21.2220  -13.8664 N   0  0  0  0  0  0  0  0  0  0  0  0
   25.5462  -20.6086  -16.1647 C   0  0  0  0  0  0  0  0  0  0  0  0
   24.7051  -21.5155  -16.5008 O   0  0  0  0  0  0  0  0  0  0  0  0
   19.2600  -17.4594  -15.4277 N   0  0  0  0  0  0  0  0  0  0  0  0
   18.9231  -18.6182  -16.1570 C   0  0  0  0  0  0  0  0  0  0  0  0
   17.6946  -18.8838  -16.4132 N   0  0  0  0  0  0  0  0  0  0  0  0
   19.9549  -19.4807  -16.5999 N   0  0  0  0  0  0  0  0  0  0  0  0
   21.3279  -19.1763  -16.3304 C   0  0  0  0  0  0  0  0  0  0  0  0
   21.9088  -18.2931  -17.4175 C   0  0  0  0  0  0  0  0  0  0  0  0
   23.3574  -18.0276  -17.1670 C   0  0  0  0  0  0  0  0  0  0  0  0
   24.2271  -19.0979  -17.7316 C   0  0  2  0  0  0  0  0  0  0  0  0
   25.3660  -19.3555  -16.8141 N   0  0  0  0  0  0  0  0  0  0  0  0
   24.8282  -18.7049  -19.0089 C   0  0  0  0  0  0  0  0  0  0  0  0
   24.0448  -18.5455  -20.1287 O   0  0  0  0  0  0  0  0  0  0  0  0
   26.0577  -18.5092  -19.1077 O   0  0  0  0  0  0  0  0  0  0  0  0
  2  1  1  0
  3  4  1  0
  3  2  1  0
  4  5  1  0
  5  7  1  0
  5  6  1  6
  7  8  2  0
 10 12  1  0
 10  9  1  0
 11 10  2  0
 13 12  1  0
 14 13  1  6
 15 14  1  0
 15  7  1  0
 16 17  2  0
 16 14  1  0
 19 21  1  0
 19 18  1  0
 20 19  2  0
 22 21  1  0
 23 22  1  0
 23 24  1  0
 25 24  1  1
 25 26  1  0
 26 16  1  0
 27 25  1  0
 27 28  1  0
 29 27  2  0
M  END
$$$$
