MQR.pdb
     RDKit          3D

 29 28  0  0  1  0  0  0  0  0999 V2000
   24.3355  -27.9721  -23.7241 C   0  0  0  0  0  0  0  0  0  0  0  0
   25.6584  -28.9239  -22.9776 S   0  0  0  0  0  0  0  0  0  0  0  0
   25.2025  -29.2528  -21.2342 C   0  0  0  0  0  0  0  0  0  0  0  0
   24.5783  -28.0610  -20.6173 C   0  0  0  0  0  0  0  0  0  0  0  0
   25.5122  -27.0421  -20.0448 C   0  0  2  0  0  0  0  0  0  0  0  0
   26.1854  -27.6397  -18.8657 N   0  0  0  0  0  0  0  0  0  0  0  0
   24.6890  -25.8779  -19.5573 C   0  0  0  0  0  0  0  0  0  0  0  0
   23.9810  -25.3179  -20.4332 O   0  0  0  0  0  0  0  0  0  0  0  0
   20.8811  -26.0679  -16.1599 N   0  0  0  0  0  0  0  0  0  0  0  0
   22.0814  -26.7432  -15.8385 C   0  0  0  0  0  0  0  0  0  0  0  0
   22.0526  -27.9187  -15.4087 O   0  0  0  0  0  0  0  0  0  0  0  0
   23.3983  -26.0790  -16.0021 C   0  0  0  0  0  0  0  0  0  0  0  0
   23.1737  -24.6620  -16.4658 C   0  0  0  0  0  0  0  0  0  0  0  0
   24.0646  -24.3380  -17.6801 C   0  0  2  0  0  0  0  0  0  0  0  0
   24.7343  -25.4823  -18.2231 N   0  0  0  0  0  0  0  0  0  0  0  0
   24.8953  -23.1844  -17.3767 C   0  0  0  0  0  0  0  0  0  0  0  0
   26.1662  -23.3065  -17.2632 O   0  0  0  0  0  0  0  0  0  0  0  0
   26.8774  -21.1308  -10.2040 N   0  0  0  0  0  0  0  0  0  0  0  0
   25.5101  -20.7862  -10.1955 C   0  0  0  0  0  0  0  0  0  0  0  0
   24.9917  -20.2321   -9.1613 N   0  0  0  0  0  0  0  0  0  0  0  0
   24.7211  -21.0595  -11.3389 N   0  0  0  0  0  0  0  0  0  0  0  0
   25.3015  -21.6645  -12.4998 C   0  0  0  0  0  0  0  0  0  0  0  0
   24.8210  -20.9784  -13.7637 C   0  0  0  0  0  0  0  0  0  0  0  0
   25.3967  -21.6359  -14.9753 C   0  0  0  0  0  0  0  0  0  0  0  0
   25.0299  -20.9172  -16.2283 C   0  0  2  0  0  0  0  0  0  0  0  0
   24.4017  -21.8638  -17.1845 N   0  0  0  0  0  0  0  0  0  0  0  0
   26.2037  -20.3768  -16.9190 C   0  0  0  0  0  0  0  0  0  0  0  0
   27.0291  -19.4738  -16.2893 O   0  0  0  0  0  0  0  0  0  0  0  0
   26.4772  -20.7212  -18.0878 O   0  0  0  0  0  0  0  0  0  0  0  0
  2  1  1  0
  3  4  1  0
  3  2  1  0
  4  5  1  0
  5  7  1  0
  5  6  1  1
  7  8  2  0
 10 12  1  0
 10  9  1  0
 11 10  2  0
 13 12  1  0
 14 13  1  1
 15 14  1  0
 15  7  1  0
 16 17  2  0
 16 14  1  0
 19 21  1  0
 19 18  1  0
 20 19  2  0
 22 21  1  0
 23 22  1  0
 23 24  1  0
 25 24  1  1
 25 26  1  0
 26 16  1  0
 27 25  1  0
 27 28  1  0
 29 27  2  0
M  END
$$$$
