MQR.pdb
     RDKit          3D

 29 28  0  0  1  0  0  0  0  0999 V2000
   27.5128  -18.9100  -15.5776 C   0  0  0  0  0  0  0  0  0  0  0  0
   28.3592  -18.4570  -14.0639 S   0  0  0  0  0  0  0  0  0  0  0  0
   27.8145  -19.6079  -12.7469 C   0  0  0  0  0  0  0  0  0  0  0  0
   26.3825  -19.9483  -12.9015 C   0  0  0  0  0  0  0  0  0  0  0  0
   25.7918  -20.8329  -11.8495 C   0  0  2  0  0  0  0  0  0  0  0  0
   26.3643  -22.1919  -12.0103 N   0  0  0  0  0  0  0  0  0  0  0  0
   24.3094  -20.9306  -12.1020 C   0  0  0  0  0  0  0  0  0  0  0  0
   23.9657  -21.7941  -12.9494 O   0  0  0  0  0  0  0  0  0  0  0  0
   20.0521  -21.0658   -9.0796 N   0  0  0  0  0  0  0  0  0  0  0  0
   19.2065  -20.3409   -9.9512 C   0  0  0  0  0  0  0  0  0  0  0  0
   17.9772  -20.5754   -9.9831 O   0  0  0  0  0  0  0  0  0  0  0  0
   19.7524  -19.2895  -10.8449 C   0  0  0  0  0  0  0  0  0  0  0  0
   21.2412  -19.1918  -10.6277 C   0  0  0  0  0  0  0  0  0  0  0  0
   21.9984  -20.0790  -11.6341 C   0  0  2  0  0  0  0  0  0  0  0  0
   23.4151  -20.1072  -11.4230 N   0  0  0  0  0  0  0  0  0  0  0  0
   21.5501  -19.7724  -12.9824 C   0  0  0  0  0  0  0  0  0  0  0  0
   22.0368  -18.7734  -13.6211 O   0  0  0  0  0  0  0  0  0  0  0  0
   24.7902  -24.1908  -17.7269 N   0  0  0  0  0  0  0  0  0  0  0  0
   24.6993  -24.0260  -16.3294 C   0  0  0  0  0  0  0  0  0  0  0  0
   25.6528  -24.4259  -15.5702 N   0  0  0  0  0  0  0  0  0  0  0  0
   23.5463  -23.4164  -15.7787 N   0  0  0  0  0  0  0  0  0  0  0  0
   22.3387  -23.3139  -16.5414 C   0  0  0  0  0  0  0  0  0  0  0  0
   21.2655  -22.5832  -15.7581 C   0  0  0  0  0  0  0  0  0  0  0  0
   21.4213  -21.1041  -15.8984 C   0  0  0  0  0  0  0  0  0  0  0  0
   20.3651  -20.3585  -15.1572 C   0  0  2  0  0  0  0  0  0  0  0  0
   20.5701  -20.5182  -13.6951 N   0  0  0  0  0  0  0  0  0  0  0  0
   19.0243  -20.8832  -15.4291 C   0  0  0  0  0  0  0  0  0  0  0  0
   18.3064  -21.5106  -14.4371 O   0  0  0  0  0  0  0  0  0  0  0  0
   18.5086  -20.7741  -16.5612 O   0  0  0  0  0  0  0  0  0  0  0  0
  2  1  1  0
  3  4  1  0
  3  2  1  0
  4  5  1  0
  5  7  1  0
  5  6  1  6
  7  8  2  0
 10 12  1  0
 10  9  1  0
 11 10  2  0
 13 12  1  0
 14 13  1  1
 15 14  1  0
 15  7  1  0
 16 17  2  0
 16 14  1  0
 19 21  1  0
 19 18  1  0
 20 19  2  0
 22 21  1  0
 23 22  1  0
 23 24  1  0
 25 24  1  6
 25 26  1  0
 26 16  1  0
 27 25  1  0
 27 28  1  0
 29 27  2  0
M  END
$$$$
