MQR.pdb
     RDKit          3D

 29 28  0  0  1  0  0  0  0  0999 V2000
   29.2881  -21.3190   -8.0712 C   0  0  0  0  0  0  0  0  0  0  0  0
   28.6597  -19.8026   -7.3511 S   0  0  0  0  0  0  0  0  0  0  0  0
   26.9064  -19.6248   -7.8512 C   0  0  0  0  0  0  0  0  0  0  0  0
   26.6693  -20.2419   -9.1753 C   0  0  0  0  0  0  0  0  0  0  0  0
   25.2804  -20.1336   -9.7206 C   0  0  2  0  0  0  0  0  0  0  0  0
   24.3807  -20.9449   -8.8645 N   0  0  0  0  0  0  0  0  0  0  0  0
   25.2719  -20.7451  -11.0978 C   0  0  0  0  0  0  0  0  0  0  0  0
   25.5183  -21.9778  -11.1385 O   0  0  0  0  0  0  0  0  0  0  0  0
   22.5723  -22.4428  -15.5259 N   0  0  0  0  0  0  0  0  0  0  0  0
   22.0561  -22.1757  -14.2367 C   0  0  0  0  0  0  0  0  0  0  0  0
   21.1972  -22.9312  -13.7280 O   0  0  0  0  0  0  0  0  0  0  0  0
   22.5173  -20.9993  -13.4584 C   0  0  0  0  0  0  0  0  0  0  0  0
   23.5883  -20.2862  -14.2443 C   0  0  0  0  0  0  0  0  0  0  0  0
   24.9626  -20.4528  -13.5684 C   0  0  2  0  0  0  0  0  0  0  0  0
   25.0030  -19.9675  -12.2211 N   0  0  0  0  0  0  0  0  0  0  0  0
   26.0030  -19.9714  -14.4621 C   0  0  0  0  0  0  0  0  0  0  0  0
   26.3562  -18.7393  -14.4496 O   0  0  0  0  0  0  0  0  0  0  0  0
   31.0164  -24.9864  -15.0538 N   0  0  0  0  0  0  0  0  0  0  0  0
   29.9329  -25.2088  -15.9284 C   0  0  0  0  0  0  0  0  0  0  0  0
   29.2613  -26.2993  -15.8578 N   0  0  0  0  0  0  0  0  0  0  0  0
   29.5988  -24.2165  -16.8814 N   0  0  0  0  0  0  0  0  0  0  0  0
   30.2447  -22.9386  -16.8633 C   0  0  0  0  0  0  0  0  0  0  0  0
   29.3943  -21.9138  -16.1382 C   0  0  0  0  0  0  0  0  0  0  0  0
   28.3965  -21.3013  -17.0660 C   0  0  0  0  0  0  0  0  0  0  0  0
   27.6220  -20.2092  -16.4114 C   0  0  2  0  0  0  0  0  0  0  0  0
   26.7016  -20.7843  -15.3979 N   0  0  0  0  0  0  0  0  0  0  0  0
   26.7674  -19.4920  -17.3613 C   0  0  0  0  0  0  0  0  0  0  0  0
   27.0501  -18.1912  -17.7094 O   0  0  0  0  0  0  0  0  0  0  0  0
   25.7690  -20.0427  -17.8707 O   0  0  0  0  0  0  0  0  0  0  0  0
  2  1  1  0
  3  4  1  0
  3  2  1  0
  4  5  1  0
  5  7  1  0
  5  6  1  1
  7  8  2  0
 10 12  1  0
 10  9  1  0
 11 10  2  0
 13 12  1  0
 14 13  1  6
 15 14  1  0
 15  7  1  0
 16 17  2  0
 16 14  1  0
 19 21  1  0
 19 18  1  0
 20 19  2  0
 22 21  1  0
 23 22  1  0
 23 24  1  0
 25 24  1  6
 25 26  1  0
 26 16  1  0
 27 25  1  0
 27 28  1  0
 29 27  2  0
M  END
$$$$
