MQR.pdb
     RDKit          3D

 29 28  0  0  1  0  0  0  0  0999 V2000
   27.2658  -20.2215   -4.3903 C   0  0  0  0  0  0  0  0  0  0  0  0
   28.6179  -19.0469   -4.3173 S   0  0  0  0  0  0  0  0  0  0  0  0
   29.5566  -19.1691   -5.8856 C   0  0  0  0  0  0  0  0  0  0  0  0
   28.6408  -19.2988   -7.0410 C   0  0  0  0  0  0  0  0  0  0  0  0
   28.3737  -20.6887   -7.5255 C   0  0  2  0  0  0  0  0  0  0  0  0
   29.6528  -21.2673   -8.0049 N   0  0  0  0  0  0  0  0  0  0  0  0
   27.4434  -20.5991   -8.7075 C   0  0  0  0  0  0  0  0  0  0  0  0
   27.9996  -20.6636   -9.8337 O   0  0  0  0  0  0  0  0  0  0  0  0
   21.2336  -21.0100   -7.5779 N   0  0  0  0  0  0  0  0  0  0  0  0
   22.3032  -21.5924   -6.8590 C   0  0  0  0  0  0  0  0  0  0  0  0
   22.1141  -22.0722   -5.7182 O   0  0  0  0  0  0  0  0  0  0  0  0
   23.6692  -21.6494   -7.4359 C   0  0  0  0  0  0  0  0  0  0  0  0
   23.6527  -20.9878   -8.7906 C   0  0  0  0  0  0  0  0  0  0  0  0
   25.0647  -20.9711   -9.4064 C   0  0  2  0  0  0  0  0  0  0  0  0
   26.0703  -20.4579   -8.5245 N   0  0  0  0  0  0  0  0  0  0  0  0
   25.0064  -20.3835  -10.7346 C   0  0  0  0  0  0  0  0  0  0  0  0
   25.1878  -19.1256  -10.9008 O   0  0  0  0  0  0  0  0  0  0  0  0
   24.5009  -20.6270  -18.6596 N   0  0  0  0  0  0  0  0  0  0  0  0
   25.8586  -20.2474  -18.6870 C   0  0  0  0  0  0  0  0  0  0  0  0
   26.2994  -19.4985  -19.6306 N   0  0  0  0  0  0  0  0  0  0  0  0
   26.7246  -20.7026  -17.6635 N   0  0  0  0  0  0  0  0  0  0  0  0
   26.2267  -21.5083  -16.5895 C   0  0  0  0  0  0  0  0  0  0  0  0
   25.4200  -20.6715  -15.6158 C   0  0  0  0  0  0  0  0  0  0  0  0
   25.5585  -21.1969  -14.2242 C   0  0  0  0  0  0  0  0  0  0  0  0
   24.6960  -20.4575  -13.2596 C   0  0  2  0  0  0  0  0  0  0  0  0
   24.7536  -21.1143  -11.9291 N   0  0  0  0  0  0  0  0  0  0  0  0
   23.2843  -20.4793  -13.6516 C   0  0  0  0  0  0  0  0  0  0  0  0
   22.8158  -19.6206  -14.6192 O   0  0  0  0  0  0  0  0  0  0  0  0
   22.4808  -21.2721  -13.1174 O   0  0  0  0  0  0  0  0  0  0  0  0
  2  1  1  0
  3  4  1  0
  3  2  1  0
  4  5  1  0
  5  7  1  0
  5  6  1  6
  7  8  2  0
 10 12  1  0
 10  9  1  0
 11 10  2  0
 13 12  1  0
 14 13  1  1
 15 14  1  0
 15  7  1  0
 16 17  2  0
 16 14  1  0
 19 21  1  0
 19 18  1  0
 20 19  2  0
 22 21  1  0
 23 22  1  0
 23 24  1  0
 25 24  1  6
 25 26  1  0
 26 16  1  0
 27 25  1  0
 27 28  1  0
 29 27  2  0
M  END
$$$$
