GCW.pdb
     RDKit          3D

 25 26  0  0  1  0  0  0  0  0999 V2000
   28.7371  -23.6955  -17.3583 N   0  0  0  0  0  0  0  0  0  0  0  0
   27.5163  -23.0980  -16.8479 C   0  0  0  0  0  0  0  0  0  0  0  0
   27.8212  -22.0644  -15.8304 C   0  0  0  0  0  0  0  0  0  0  0  0
   28.9899  -21.6502  -15.6193 O   0  0  0  0  0  0  0  0  0  0  0  0
   26.7661  -21.5223  -15.0678 N   0  0  0  0  0  0  0  0  0  0  0  0
   27.0024  -20.4776  -14.0621 C   0  0  1  0  0  0  0  0  0  0  0  0
   26.1692  -19.2882  -14.5292 C   0  0  0  0  0  0  0  0  0  0  0  0
   24.4278  -19.6794  -14.7218 S   0  0  0  0  0  0  0  0  0  0  0  0
   26.5461  -20.9321  -12.7300 C   0  0  0  0  0  0  0  0  0  0  0  0
   25.5627  -21.7515  -12.6772 O   0  0  0  0  0  0  0  0  0  0  0  0
   27.1051  -20.5410  -11.4934 N   0  0  0  0  0  0  0  0  0  0  0  0
   26.5994  -21.0418  -10.2000 C   0  0  1  0  0  0  0  0  0  0  0  0
   27.6762  -21.0285   -9.1715 C   0  0  0  0  0  0  0  0  0  0  0  0
   27.2529  -20.6602   -7.8131 C   0  0  0  0  0  0  0  0  0  0  0  0
   25.9408  -20.8187   -7.3379 C   0  0  0  0  0  0  0  0  0  0  0  0
   25.8640  -20.4280   -6.0577 N   0  0  0  0  0  0  0  0  0  0  0  0
   27.0814  -20.0120   -5.6590 C   0  0  0  0  0  0  0  0  0  0  0  0
   27.4907  -19.5160   -4.4332 C   0  0  0  0  0  0  0  0  0  0  0  0
   28.8079  -19.1487   -4.2887 C   0  0  0  0  0  0  0  0  0  0  0  0
   29.6930  -19.2717   -5.3362 C   0  0  0  0  0  0  0  0  0  0  0  0
   29.2515  -19.7732   -6.5550 C   0  0  0  0  0  0  0  0  0  0  0  0
   27.9352  -20.1541   -6.7381 C   0  0  0  0  0  0  0  0  0  0  0  0
   25.3357  -20.4025   -9.8515 C   0  0  0  0  0  0  0  0  0  0  0  0
   25.0303  -19.2358  -10.1890 O   0  0  0  0  0  0  0  0  0  0  0  0
   24.4030  -21.1195   -9.0982 O   0  0  0  0  0  0  0  0  0  0  0  0
  1  2  1  0
  3  2  1  0
  3  4  2  0
  5  3  1  0
  6  5  1  0
  6  9  1  0
  6  7  1  6
  8  7  1  0
  9 11  1  0
  9 10  2  0
 11 12  1  0
 12 13  1  1
 14 15  2  0
 14 13  1  0
 16 15  1  0
 17 22  2  0
 17 16  1  0
 18 17  1  0
 19 20  1  0
 19 18  2  0
 20 21  2  0
 21 22  1  0
 22 14  1  0
 23 12  1  0
 23 25  1  0
 24 23  2  0
M  END
$$$$
