GCW.pdb
     RDKit          3D

 25 26  0  0  1  0  0  0  0  0999 V2000
   28.8790  -21.3187  -17.8879 N   0  0  0  0  0  0  0  0  0  0  0  0
   27.9269  -21.6356  -16.8387 C   0  0  0  0  0  0  0  0  0  0  0  0
   28.2095  -20.8478  -15.6155 C   0  0  0  0  0  0  0  0  0  0  0  0
   29.1030  -19.9635  -15.5746 O   0  0  0  0  0  0  0  0  0  0  0  0
   27.4520  -21.0948  -14.4519 N   0  0  0  0  0  0  0  0  0  0  0  0
   27.5704  -20.2411  -13.2621 C   0  0  1  0  0  0  0  0  0  0  0  0
   26.9064  -18.9254  -13.6559 C   0  0  0  0  0  0  0  0  0  0  0  0
   25.1434  -19.0867  -13.9535 S   0  0  0  0  0  0  0  0  0  0  0  0
   26.8597  -20.8519  -12.1169 C   0  0  0  0  0  0  0  0  0  0  0  0
   25.8498  -21.6002  -12.3644 O   0  0  0  0  0  0  0  0  0  0  0  0
   27.1991  -20.6842  -10.7563 N   0  0  0  0  0  0  0  0  0  0  0  0
   26.4605  -21.3516   -9.6661 C   0  0  1  0  0  0  0  0  0  0  0  0
   27.3547  -21.6093   -8.5035 C   0  0  0  0  0  0  0  0  0  0  0  0
   27.4852  -20.5032   -7.5447 C   0  0  0  0  0  0  0  0  0  0  0  0
   26.8363  -19.2664   -7.6917 C   0  0  0  0  0  0  0  0  0  0  0  0
   27.1180  -18.4713   -6.6496 N   0  0  0  0  0  0  0  0  0  0  0  0
   27.9353  -19.1342   -5.8088 C   0  0  0  0  0  0  0  0  0  0  0  0
   28.4958  -18.7247   -4.6113 C   0  0  0  0  0  0  0  0  0  0  0  0
   29.3149  -19.6044   -3.9435 C   0  0  0  0  0  0  0  0  0  0  0  0
   29.5691  -20.8574   -4.4546 C   0  0  0  0  0  0  0  0  0  0  0  0
   28.9914  -21.2394   -5.6597 C   0  0  0  0  0  0  0  0  0  0  0  0
   28.1616  -20.3831   -6.3592 C   0  0  0  0  0  0  0  0  0  0  0  0
   25.1981  -20.6717   -9.3991 C   0  0  0  0  0  0  0  0  0  0  0  0
   24.9460  -19.5025   -9.7700 O   0  0  0  0  0  0  0  0  0  0  0  0
   24.2042  -21.3504   -8.6899 O   0  0  0  0  0  0  0  0  0  0  0  0
  1  2  1  0
  3  2  1  0
  3  4  2  0
  5  3  1  0
  6  5  1  0
  6  9  1  0
  6  7  1  6
  8  7  1  0
  9 11  1  0
  9 10  2  0
 11 12  1  0
 12 13  1  1
 14 15  2  0
 14 13  1  0
 16 15  1  0
 17 22  2  0
 17 16  1  0
 18 17  1  0
 19 20  1  0
 19 18  2  0
 20 21  2  0
 21 22  1  0
 22 14  1  0
 23 12  1  0
 23 25  1  0
 24 23  2  0
M  END
$$$$
