GCW.pdb
     RDKit          3D

 25 26  0  0  1  0  0  0  0  0999 V2000
   30.1758  -22.8786  -16.8101 N   0  0  0  0  0  0  0  0  0  0  0  0
   28.7897  -22.6947  -16.4191 C   0  0  0  0  0  0  0  0  0  0  0  0
   28.6652  -21.6123  -15.4144 C   0  0  0  0  0  0  0  0  0  0  0  0
   29.6517  -20.9349  -15.0273 O   0  0  0  0  0  0  0  0  0  0  0  0
   27.3964  -21.3274  -14.8688 N   0  0  0  0  0  0  0  0  0  0  0  0
   27.2217  -20.3188  -13.8148 C   0  0  1  0  0  0  0  0  0  0  0  0
   26.2782  -19.2822  -14.4168 C   0  0  0  0  0  0  0  0  0  0  0  0
   25.5368  -18.2052  -13.1867 S   0  0  0  0  0  0  0  0  0  0  0  0
   26.6128  -20.9300  -12.6126 C   0  0  0  0  0  0  0  0  0  0  0  0
   25.6672  -21.7777  -12.7810 O   0  0  0  0  0  0  0  0  0  0  0  0
   26.9856  -20.6614  -11.2771 N   0  0  0  0  0  0  0  0  0  0  0  0
   26.3875  -21.3701  -10.1284 C   0  0  1  0  0  0  0  0  0  0  0  0
   27.3940  -21.5700   -9.0494 C   0  0  0  0  0  0  0  0  0  0  0  0
   27.4311  -20.5278   -8.0139 C   0  0  0  0  0  0  0  0  0  0  0  0
   26.6836  -19.3405   -8.0788 C   0  0  0  0  0  0  0  0  0  0  0  0
   26.8967  -18.6011   -6.9809 N   0  0  0  0  0  0  0  0  0  0  0  0
   27.7630  -19.2534   -6.1821 C   0  0  0  0  0  0  0  0  0  0  0  0
   28.2849  -18.8856   -4.9539 C   0  0  0  0  0  0  0  0  0  0  0  0
   29.1713  -19.7410   -4.3428 C   0  0  0  0  0  0  0  0  0  0  0  0
   29.5285  -20.9297   -4.9388 C   0  0  0  0  0  0  0  0  0  0  0  0
   28.9872  -21.2709   -6.1727 C   0  0  0  0  0  0  0  0  0  0  0  0
   28.0921  -20.4374   -6.8172 C   0  0  0  0  0  0  0  0  0  0  0  0
   25.1142  -20.7679   -9.7500 C   0  0  0  0  0  0  0  0  0  0  0  0
   24.3098  -21.2904   -8.9449 O   0  0  0  0  0  0  0  0  0  0  0  0
   24.7574  -19.5386  -10.3096 O   0  0  0  0  0  0  0  0  0  0  0  0
  1  2  1  0
  3  2  1  0
  3  4  2  0
  5  3  1  0
  6  5  1  0
  6  9  1  0
  6  7  1  6
  8  7  1  0
  9 11  1  0
  9 10  2  0
 11 12  1  0
 12 13  1  1
 14 15  2  0
 14 13  1  0
 16 15  1  0
 17 22  2  0
 17 16  1  0
 18 17  1  0
 19 20  1  0
 19 18  2  0
 20 21  2  0
 21 22  1  0
 22 14  1  0
 23 12  1  0
 23 25  1  0
 24 23  2  0
M  END
$$$$
