GCW.pdb
     RDKit          3D

 25 26  0  0  1  0  0  0  0  0999 V2000
   25.1368  -13.3440  -19.7374 N   0  0  0  0  0  0  0  0  0  0  0  0
   24.9673  -11.9021  -19.7341 C   0  0  0  0  0  0  0  0  0  0  0  0
   24.5165  -11.4279  -18.4043 C   0  0  0  0  0  0  0  0  0  0  0  0
   23.6321  -12.0260  -17.7393 O   0  0  0  0  0  0  0  0  0  0  0  0
   25.0968  -10.2636  -17.8598 N   0  0  0  0  0  0  0  0  0  0  0  0
   24.6260   -9.6911  -16.5913 C   0  0  1  0  0  0  0  0  0  0  0  0
   25.8749   -9.1095  -15.9362 C   0  0  0  0  0  0  0  0  0  0  0  0
   26.8824  -10.3481  -15.1155 S   0  0  0  0  0  0  0  0  0  0  0  0
   23.6345   -8.6223  -16.8448 C   0  0  0  0  0  0  0  0  0  0  0  0
   23.9156   -7.7368  -17.7269 O   0  0  0  0  0  0  0  0  0  0  0  0
   22.3878   -8.4884  -16.1950 N   0  0  0  0  0  0  0  0  0  0  0  0
   21.4038   -7.4542  -16.5714 C   0  0  1  0  0  0  0  0  0  0  0  0
   20.2509   -8.0604  -17.2930 C   0  0  0  0  0  0  0  0  0  0  0  0
   19.1596   -7.1378  -17.6361 C   0  0  0  0  0  0  0  0  0  0  0  0
   19.3658   -5.8299  -18.1046 C   0  0  0  0  0  0  0  0  0  0  0  0
   18.1889   -5.2420  -18.3631 N   0  0  0  0  0  0  0  0  0  0  0  0
   17.2002   -6.1126  -18.0827 C   0  0  0  0  0  0  0  0  0  0  0  0
   15.8283   -5.9578  -18.1833 C   0  0  0  0  0  0  0  0  0  0  0  0
   15.0274   -7.0145  -17.8192 C   0  0  0  0  0  0  0  0  0  0  0  0
   15.5776   -8.1929  -17.3670 C   0  0  0  0  0  0  0  0  0  0  0  0
   16.9590   -8.3177  -17.2772 C   0  0  0  0  0  0  0  0  0  0  0  0
   17.7966   -7.2778  -17.6352 C   0  0  0  0  0  0  0  0  0  0  0  0
   21.1006   -6.5864  -15.4390 C   0  0  0  0  0  0  0  0  0  0  0  0
   21.0683   -6.9798  -14.2505 O   0  0  0  0  0  0  0  0  0  0  0  0
   20.8281   -5.2373  -15.6780 O   0  0  0  0  0  0  0  0  0  0  0  0
  1  2  1  0
  3  2  1  0
  3  4  2  0
  5  3  1  0
  6  5  1  0
  6  9  1  0
  6  7  1  6
  8  7  1  0
  9 11  1  0
  9 10  2  0
 11 12  1  0
 12 13  1  1
 14 15  2  0
 14 13  1  0
 16 15  1  0
 17 22  2  0
 17 16  1  0
 18 17  1  0
 19 20  1  0
 19 18  2  0
 20 21  2  0
 21 22  1  0
 22 14  1  0
 23 12  1  0
 23 25  1  0
 24 23  2  0
M  END
$$$$
