GCW.pdb
     RDKit          3D

 25 26  0  0  1  0  0  0  0  0999 V2000
   34.4236  -37.3299   -7.5007 N   0  0  0  0  0  0  0  0  0  0  0  0
   34.1517  -36.8218   -6.1681 C   0  0  0  0  0  0  0  0  0  0  0  0
   32.8820  -37.3764   -5.6420 C   0  0  0  0  0  0  0  0  0  0  0  0
   32.1588  -38.1578   -6.3116 O   0  0  0  0  0  0  0  0  0  0  0  0
   32.4643  -37.0179   -4.3436 N   0  0  0  0  0  0  0  0  0  0  0  0
   31.1811  -37.4769   -3.7947 C   0  0  1  0  0  0  0  0  0  0  0  0
   31.4851  -37.8505   -2.3473 C   0  0  0  0  0  0  0  0  0  0  0  0
   30.0536  -38.4810   -1.4664 S   0  0  0  0  0  0  0  0  0  0  0  0
   30.1804  -36.3880   -3.8443 C   0  0  0  0  0  0  0  0  0  0  0  0
   30.5143  -35.2414   -3.3807 O   0  0  0  0  0  0  0  0  0  0  0  0
   28.8724  -36.4985   -4.3654 N   0  0  0  0  0  0  0  0  0  0  0  0
   27.8845  -35.4058   -4.2680 C   0  0  1  0  0  0  0  0  0  0  0  0
   26.8168  -35.5668   -5.2935 C   0  0  0  0  0  0  0  0  0  0  0  0
   25.7771  -34.5281   -5.2968 C   0  0  0  0  0  0  0  0  0  0  0  0
   25.8490  -33.3586   -6.0712 C   0  0  0  0  0  0  0  0  0  0  0  0
   24.7454  -32.6188   -5.8924 N   0  0  0  0  0  0  0  0  0  0  0  0
   23.9359  -33.2534   -5.0229 C   0  0  0  0  0  0  0  0  0  0  0  0
   22.6986  -32.8783   -4.5284 C   0  0  0  0  0  0  0  0  0  0  0  0
   22.0773  -33.7148   -3.6312 C   0  0  0  0  0  0  0  0  0  0  0  0
   22.6721  -34.8923   -3.2370 C   0  0  0  0  0  0  0  0  0  0  0  0
   23.9153  -35.2414   -3.7513 C   0  0  0  0  0  0  0  0  0  0  0  0
   24.5701  -34.4268   -4.6562 C   0  0  0  0  0  0  0  0  0  0  0  0
   27.4591  -35.2091   -2.8869 C   0  0  0  0  0  0  0  0  0  0  0  0
   27.2421  -36.1469   -2.0859 O   0  0  0  0  0  0  0  0  0  0  0  0
   27.2786  -33.9062   -2.4165 O   0  0  0  0  0  0  0  0  0  0  0  0
  1  2  1  0
  3  2  1  0
  3  4  2  0
  5  3  1  0
  6  5  1  0
  6  9  1  0
  6  7  1  1
  8  7  1  0
  9 11  1  0
  9 10  2  0
 11 12  1  0
 12 13  1  6
 14 15  2  0
 14 13  1  0
 16 15  1  0
 17 22  2  0
 17 16  1  0
 18 17  1  0
 19 20  1  0
 19 18  2  0
 20 21  2  0
 21 22  1  0
 22 14  1  0
 23 12  1  0
 23 25  1  0
 24 23  2  0
M  END
$$$$
