GCW.pdb
     RDKit          3D

 25 26  0  0  1  0  0  0  0  0999 V2000
   27.4133  -24.7410  -17.0544 N   0  0  0  0  0  0  0  0  0  0  0  0
   26.5153  -23.7180  -16.5498 C   0  0  0  0  0  0  0  0  0  0  0  0
   27.1281  -22.9946  -15.4106 C   0  0  0  0  0  0  0  0  0  0  0  0
   28.3683  -22.8046  -15.3211 O   0  0  0  0  0  0  0  0  0  0  0  0
   26.2949  -22.4992  -14.3863 N   0  0  0  0  0  0  0  0  0  0  0  0
   26.8167  -21.6272  -13.3252 C   0  0  1  0  0  0  0  0  0  0  0  0
   27.1450  -20.3119  -14.0247 C   0  0  0  0  0  0  0  0  0  0  0  0
   25.7390  -19.6007  -14.8848 S   0  0  0  0  0  0  0  0  0  0  0  0
   25.7884  -21.4116  -12.2833 C   0  0  0  0  0  0  0  0  0  0  0  0
   24.5578  -21.4272  -12.6390 O   0  0  0  0  0  0  0  0  0  0  0  0
   26.0434  -21.1886  -10.9122 N   0  0  0  0  0  0  0  0  0  0  0  0
   24.9831  -21.2536   -9.8870 C   0  0  1  0  0  0  0  0  0  0  0  0
   25.5691  -21.4625   -8.5341 C   0  0  0  0  0  0  0  0  0  0  0  0
   26.2790  -20.3088   -7.9640 C   0  0  0  0  0  0  0  0  0  0  0  0
   26.3362  -19.0486   -8.5814 C   0  0  0  0  0  0  0  0  0  0  0  0
   27.0233  -18.1903   -7.8142 N   0  0  0  0  0  0  0  0  0  0  0  0
   27.4295  -18.8338   -6.7029 C   0  0  0  0  0  0  0  0  0  0  0  0
   28.1694  -18.3680   -5.6297 C   0  0  0  0  0  0  0  0  0  0  0  0
   28.4608  -19.2459   -4.6123 C   0  0  0  0  0  0  0  0  0  0  0  0
   28.0275  -20.5518   -4.6624 C   0  0  0  0  0  0  0  0  0  0  0  0
   27.2863  -20.9897   -5.7537 C   0  0  0  0  0  0  0  0  0  0  0  0
   26.9726  -20.1363   -6.7951 C   0  0  0  0  0  0  0  0  0  0  0  0
   24.0393  -20.1525  -10.0426 C   0  0  0  0  0  0  0  0  0  0  0  0
   24.2670  -19.1341  -10.7349 O   0  0  0  0  0  0  0  0  0  0  0  0
   22.8074  -20.2234   -9.3878 O   0  0  0  0  0  0  0  0  0  0  0  0
  1  2  1  0
  3  2  1  0
  3  4  2  0
  5  3  1  0
  6  5  1  0
  6  9  1  0
  6  7  1  6
  8  7  1  0
  9 11  1  0
  9 10  2  0
 11 12  1  0
 12 13  1  1
 14 15  2  0
 14 13  1  0
 16 15  1  0
 17 22  2  0
 17 16  1  0
 18 17  1  0
 19 20  1  0
 19 18  2  0
 20 21  2  0
 21 22  1  0
 22 14  1  0
 23 12  1  0
 23 25  1  0
 24 23  2  0
M  END
$$$$
