GCW.pdb
     RDKit          3D

 25 26  0  0  1  0  0  0  0  0999 V2000
   29.8375  -23.6260  -16.3365 N   0  0  0  0  0  0  0  0  0  0  0  0
   28.6239  -22.8337  -16.4218 C   0  0  0  0  0  0  0  0  0  0  0  0
   28.5623  -21.8443  -15.3201 C   0  0  0  0  0  0  0  0  0  0  0  0
   29.4893  -21.7116  -14.4804 O   0  0  0  0  0  0  0  0  0  0  0  0
   27.4249  -21.0188  -15.2042 N   0  0  0  0  0  0  0  0  0  0  0  0
   27.2777  -20.0638  -14.0974 C   0  0  1  0  0  0  0  0  0  0  0  0
   26.3194  -18.9995  -14.6228 C   0  0  0  0  0  0  0  0  0  0  0  0
   25.5686  -18.0211  -13.3183 S   0  0  0  0  0  0  0  0  0  0  0  0
   26.6998  -20.7343  -12.9116 C   0  0  0  0  0  0  0  0  0  0  0  0
   25.7450  -21.5681  -13.0967 O   0  0  0  0  0  0  0  0  0  0  0  0
   27.1120  -20.5375  -11.5752 N   0  0  0  0  0  0  0  0  0  0  0  0
   26.5177  -21.2773  -10.4443 C   0  0  1  0  0  0  0  0  0  0  0  0
   27.5261  -21.5005   -9.3716 C   0  0  0  0  0  0  0  0  0  0  0  0
   27.4843  -20.5492   -8.2522 C   0  0  0  0  0  0  0  0  0  0  0  0
   26.6524  -19.4180   -8.2240 C   0  0  0  0  0  0  0  0  0  0  0  0
   26.8079  -18.7602   -7.0662 N   0  0  0  0  0  0  0  0  0  0  0  0
   27.7175  -19.4128   -6.3172 C   0  0  0  0  0  0  0  0  0  0  0  0
   28.2079  -19.1129   -5.0580 C   0  0  0  0  0  0  0  0  0  0  0  0
   29.1528  -19.9501   -4.5130 C   0  0  0  0  0  0  0  0  0  0  0  0
   29.5973  -21.0554   -5.2033 C   0  0  0  0  0  0  0  0  0  0  0  0
   29.0856  -21.3299   -6.4661 C   0  0  0  0  0  0  0  0  0  0  0  0
   28.1338  -20.5123   -7.0463 C   0  0  0  0  0  0  0  0  0  0  0  0
   25.2425  -20.6898  -10.0496 C   0  0  0  0  0  0  0  0  0  0  0  0
   24.9115  -19.5096  -10.3061 O   0  0  0  0  0  0  0  0  0  0  0  0
   24.3281  -21.4759   -9.3443 O   0  0  0  0  0  0  0  0  0  0  0  0
  1  2  1  0
  3  2  1  0
  3  4  2  0
  5  3  1  0
  6  5  1  0
  6  9  1  0
  6  7  1  6
  8  7  1  0
  9 11  1  0
  9 10  2  0
 11 12  1  0
 12 13  1  1
 14 15  2  0
 14 13  1  0
 16 15  1  0
 17 22  2  0
 17 16  1  0
 18 17  1  0
 19 20  1  0
 19 18  2  0
 20 21  2  0
 21 22  1  0
 22 14  1  0
 23 12  1  0
 23 25  1  0
 24 23  2  0
M  END
$$$$
