GCW.pdb
     RDKit          3D

 25 26  0  0  1  0  0  0  0  0999 V2000
   30.0642  -24.7109  -17.0174 N   0  0  0  0  0  0  0  0  0  0  0  0
   28.6614  -25.0394  -16.8382 C   0  0  0  0  0  0  0  0  0  0  0  0
   27.8945  -23.8507  -16.3961 C   0  0  0  0  0  0  0  0  0  0  0  0
   27.9272  -22.7578  -17.0178 O   0  0  0  0  0  0  0  0  0  0  0  0
   27.0975  -23.9427  -15.2363 N   0  0  0  0  0  0  0  0  0  0  0  0
   25.8516  -23.1766  -15.0971 C   0  0  1  0  0  0  0  0  0  0  0  0
   24.9457  -23.6959  -16.2092 C   0  0  0  0  0  0  0  0  0  0  0  0
   23.5497  -22.6176  -16.5425 S   0  0  0  0  0  0  0  0  0  0  0  0
   25.2369  -23.4285  -13.7749 C   0  0  0  0  0  0  0  0  0  0  0  0
   25.6376  -24.4465  -13.1083 O   0  0  0  0  0  0  0  0  0  0  0  0
   24.2354  -22.6366  -13.1710 N   0  0  0  0  0  0  0  0  0  0  0  0
   24.5263  -21.6846  -12.0808 C   0  0  1  0  0  0  0  0  0  0  0  0
   25.8918  -21.9121  -11.5320 C   0  0  0  0  0  0  0  0  0  0  0  0
   26.2275  -21.1439  -10.3249 C   0  0  0  0  0  0  0  0  0  0  0  0
   25.2808  -20.4395   -9.5633 C   0  0  0  0  0  0  0  0  0  0  0  0
   25.8741  -19.8649   -8.5072 N   0  0  0  0  0  0  0  0  0  0  0  0
   27.1879  -20.1603   -8.5360 C   0  0  0  0  0  0  0  0  0  0  0  0
   28.1988  -19.7887   -7.6665 C   0  0  0  0  0  0  0  0  0  0  0  0
   29.4760  -20.2234   -7.9323 C   0  0  0  0  0  0  0  0  0  0  0  0
   29.7391  -21.0064   -9.0339 C   0  0  0  0  0  0  0  0  0  0  0  0
   28.7025  -21.3628   -9.8885 C   0  0  0  0  0  0  0  0  0  0  0  0
   27.4055  -20.9460   -9.6536 C   0  0  0  0  0  0  0  0  0  0  0  0
   24.1830  -20.3224  -12.4728 C   0  0  0  0  0  0  0  0  0  0  0  0
   24.6252  -19.7626  -13.5021 O   0  0  0  0  0  0  0  0  0  0  0  0
   23.3129  -19.5875  -11.6639 O   0  0  0  0  0  0  0  0  0  0  0  0
  1  2  1  0
  3  2  1  0
  3  4  2  0
  5  3  1  0
  6  5  1  0
  6  9  1  0
  6  7  1  6
  8  7  1  0
  9 11  1  0
  9 10  2  0
 11 12  1  0
 12 13  1  6
 14 15  2  0
 14 13  1  0
 16 15  1  0
 17 22  2  0
 17 16  1  0
 18 17  1  0
 19 20  1  0
 19 18  2  0
 20 21  2  0
 21 22  1  0
 22 14  1  0
 23 12  1  0
 23 25  1  0
 24 23  2  0
M  END
$$$$
