GCW.pdb
     RDKit          3D

 25 26  0  0  1  0  0  0  0  0999 V2000
   25.6833  -17.0827  -15.6129 N   0  0  0  0  0  0  0  0  0  0  0  0
   26.1406  -17.4614  -14.2880 C   0  0  0  0  0  0  0  0  0  0  0  0
   26.3788  -18.9222  -14.2107 C   0  0  0  0  0  0  0  0  0  0  0  0
   25.7752  -19.7437  -14.9474 O   0  0  0  0  0  0  0  0  0  0  0  0
   27.3154  -19.4147  -13.2785 N   0  0  0  0  0  0  0  0  0  0  0  0
   27.4344  -20.8511  -12.9940 C   0  0  1  0  0  0  0  0  0  0  0  0
   28.9330  -21.1006  -12.8556 C   0  0  0  0  0  0  0  0  0  0  0  0
   29.7794  -19.8146  -11.9325 S   0  0  0  0  0  0  0  0  0  0  0  0
   26.7397  -21.1856  -11.7310 C   0  0  0  0  0  0  0  0  0  0  0  0
   26.7209  -22.4117  -11.3603 O   0  0  0  0  0  0  0  0  0  0  0  0
   26.0877  -20.2628  -10.8837 N   0  0  0  0  0  0  0  0  0  0  0  0
   25.4152  -20.6707   -9.6343 C   0  0  1  0  0  0  0  0  0  0  0  0
   25.8670  -19.8282   -8.4926 C   0  0  0  0  0  0  0  0  0  0  0  0
   27.1713  -20.1848   -7.9167 C   0  0  0  0  0  0  0  0  0  0  0  0
   28.1422  -20.9372   -8.5977 C   0  0  0  0  0  0  0  0  0  0  0  0
   29.2367  -21.0749   -7.8357 N   0  0  0  0  0  0  0  0  0  0  0  0
   29.0313  -20.4400   -6.6657 C   0  0  0  0  0  0  0  0  0  0  0  0
   29.8652  -20.3132   -5.5682 C   0  0  0  0  0  0  0  0  0  0  0  0
   29.4035  -19.6110   -4.4798 C   0  0  0  0  0  0  0  0  0  0  0  0
   28.1458  -19.0506   -4.4844 C   0  0  0  0  0  0  0  0  0  0  0  0
   27.3318  -19.1954   -5.6018 C   0  0  0  0  0  0  0  0  0  0  0  0
   27.7615  -19.8933   -6.7151 C   0  0  0  0  0  0  0  0  0  0  0  0
   23.9771  -20.8052   -9.8363 C   0  0  0  0  0  0  0  0  0  0  0  0
   23.4011  -20.5587  -10.9207 O   0  0  0  0  0  0  0  0  0  0  0  0
   23.1837  -21.2316   -8.7686 O   0  0  0  0  0  0  0  0  0  0  0  0
  1  2  1  0
  3  2  1  0
  3  4  2  0
  5  3  1  0
  6  5  1  0
  6  9  1  0
  6  7  1  1
  8  7  1  0
  9 11  1  0
  9 10  2  0
 11 12  1  0
 12 13  1  1
 14 15  2  0
 14 13  1  0
 16 15  1  0
 17 22  2  0
 17 16  1  0
 18 17  1  0
 19 20  1  0
 19 18  2  0
 20 21  2  0
 21 22  1  0
 22 14  1  0
 23 12  1  0
 23 25  1  0
 24 23  2  0
M  END
$$$$
