GCW.pdb
     RDKit          3D

 25 26  0  0  1  0  0  0  0  0999 V2000
   29.0454  -21.8486  -17.8116 N   0  0  0  0  0  0  0  0  0  0  0  0
   28.1173  -22.2015  -16.7523 C   0  0  0  0  0  0  0  0  0  0  0  0
   28.2075  -21.2373  -15.6303 C   0  0  0  0  0  0  0  0  0  0  0  0
   28.8931  -20.1850  -15.6990 O   0  0  0  0  0  0  0  0  0  0  0  0
   27.5010  -21.5047  -14.4395 N   0  0  0  0  0  0  0  0  0  0  0  0
   27.0804  -20.4249  -13.5363 C   0  0  1  0  0  0  0  0  0  0  0  0
   26.0680  -19.6142  -14.3392 C   0  0  0  0  0  0  0  0  0  0  0  0
   25.1260  -18.4656  -13.3312 S   0  0  0  0  0  0  0  0  0  0  0  0
   26.4432  -20.9858  -12.3243 C   0  0  0  0  0  0  0  0  0  0  0  0
   25.4642  -21.7975  -12.4791 O   0  0  0  0  0  0  0  0  0  0  0  0
   26.8224  -20.7054  -10.9930 N   0  0  0  0  0  0  0  0  0  0  0  0
   26.2412  -21.4148   -9.8362 C   0  0  1  0  0  0  0  0  0  0  0  0
   27.2765  -21.6633   -8.7950 C   0  0  0  0  0  0  0  0  0  0  0  0
   27.5319  -20.5472   -7.8737 C   0  0  0  0  0  0  0  0  0  0  0  0
   26.9952  -19.2605   -8.0436 C   0  0  0  0  0  0  0  0  0  0  0  0
   27.3749  -18.4656   -7.0330 N   0  0  0  0  0  0  0  0  0  0  0  0
   28.1492  -19.1768   -6.1912 C   0  0  0  0  0  0  0  0  0  0  0  0
   28.7751  -18.7869   -5.0197 C   0  0  0  0  0  0  0  0  0  0  0  0
   29.5271  -19.7190   -4.3441 C   0  0  0  0  0  0  0  0  0  0  0  0
   29.6526  -21.0041   -4.8223 C   0  0  0  0  0  0  0  0  0  0  0  0
   29.0119  -21.3652   -6.0018 C   0  0  0  0  0  0  0  0  0  0  0  0
   28.2464  -20.4563   -6.7081 C   0  0  0  0  0  0  0  0  0  0  0  0
   25.0004  -20.7808   -9.4054 C   0  0  0  0  0  0  0  0  0  0  0  0
   24.6443  -19.6348   -9.7636 O   0  0  0  0  0  0  0  0  0  0  0  0
   24.1509  -21.4788   -8.5438 O   0  0  0  0  0  0  0  0  0  0  0  0
  1  2  1  0
  3  2  1  0
  3  4  2  0
  5  3  1  0
  6  5  1  0
  6  9  1  0
  6  7  1  6
  8  7  1  0
  9 11  1  0
  9 10  2  0
 11 12  1  0
 12 13  1  1
 14 15  2  0
 14 13  1  0
 16 15  1  0
 17 22  2  0
 17 16  1  0
 18 17  1  0
 19 20  1  0
 19 18  2  0
 20 21  2  0
 21 22  1  0
 22 14  1  0
 23 12  1  0
 23 25  1  0
 24 23  2  0
M  END
$$$$
