GCW.pdb
     RDKit          3D

 25 26  0  0  1  0  0  0  0  0999 V2000
   27.9676  -17.9714  -15.9674 N   0  0  0  0  0  0  0  0  0  0  0  0
   27.8248  -17.5224  -14.5941 C   0  0  0  0  0  0  0  0  0  0  0  0
   26.8596  -18.3739  -13.8593 C   0  0  0  0  0  0  0  0  0  0  0  0
   25.7479  -17.9424  -13.4595 O   0  0  0  0  0  0  0  0  0  0  0  0
   27.1950  -19.7181  -13.5957 N   0  0  0  0  0  0  0  0  0  0  0  0
   26.2450  -20.6353  -12.9516 C   0  0  1  0  0  0  0  0  0  0  0  0
   26.3197  -21.9180  -13.7740 C   0  0  0  0  0  0  0  0  0  0  0  0
   25.5048  -23.3096  -12.9852 S   0  0  0  0  0  0  0  0  0  0  0  0
   26.6501  -20.8982  -11.5529 C   0  0  0  0  0  0  0  0  0  0  0  0
   27.8783  -21.1820  -11.3247 O   0  0  0  0  0  0  0  0  0  0  0  0
   25.7943  -20.8624  -10.4300 N   0  0  0  0  0  0  0  0  0  0  0  0
   26.3000  -20.9251   -9.0445 C   0  0  1  0  0  0  0  0  0  0  0  0
   27.3722  -19.9147   -8.8278 C   0  0  0  0  0  0  0  0  0  0  0  0
   27.5792  -19.4967   -7.4341 C   0  0  0  0  0  0  0  0  0  0  0  0
   26.8957  -18.4268   -6.8337 C   0  0  0  0  0  0  0  0  0  0  0  0
   27.2675  -18.3038   -5.5515 N   0  0  0  0  0  0  0  0  0  0  0  0
   28.1786  -19.2558   -5.2725 C   0  0  0  0  0  0  0  0  0  0  0  0
   28.8507  -19.5201   -4.0916 C   0  0  0  0  0  0  0  0  0  0  0  0
   29.7500  -20.5602   -4.0754 C   0  0  0  0  0  0  0  0  0  0  0  0
   29.9740  -21.3159   -5.2043 C   0  0  0  0  0  0  0  0  0  0  0  0
   29.2835  -21.0257   -6.3752 C   0  0  0  0  0  0  0  0  0  0  0  0
   28.3708  -19.9888   -6.4298 C   0  0  0  0  0  0  0  0  0  0  0  0
   25.1991  -20.9455   -8.0881 C   0  0  0  0  0  0  0  0  0  0  0  0
   24.0537  -20.5043   -8.3367 O   0  0  0  0  0  0  0  0  0  0  0  0
   25.4196  -21.4841   -6.8182 O   0  0  0  0  0  0  0  0  0  0  0  0
  1  2  1  0
  3  2  1  0
  3  4  2  0
  5  3  1  0
  6  5  1  0
  6  9  1  0
  6  7  1  6
  8  7  1  0
  9 11  1  0
  9 10  2  0
 11 12  1  0
 12 13  1  1
 14 15  2  0
 14 13  1  0
 16 15  1  0
 17 22  2  0
 17 16  1  0
 18 17  1  0
 19 20  1  0
 19 18  2  0
 20 21  2  0
 21 22  1  0
 22 14  1  0
 23 12  1  0
 23 25  1  0
 24 23  2  0
M  END
$$$$
