GCW.pdb
     RDKit          3D

 25 26  0  0  1  0  0  0  0  0999 V2000
   28.5960  -22.6216  -17.3812 N   0  0  0  0  0  0  0  0  0  0  0  0
   27.4630  -22.8010  -16.4912 C   0  0  0  0  0  0  0  0  0  0  0  0
   27.2220  -21.5763  -15.6921 C   0  0  0  0  0  0  0  0  0  0  0  0
   27.3837  -20.4212  -16.1630 O   0  0  0  0  0  0  0  0  0  0  0  0
   26.7961  -21.7048  -14.3539 N   0  0  0  0  0  0  0  0  0  0  0  0
   26.2962  -20.5522  -13.5922 C   0  0  1  0  0  0  0  0  0  0  0  0
   24.9734  -20.1862  -14.2580 C   0  0  0  0  0  0  0  0  0  0  0  0
   23.7194  -21.4586  -14.0813 S   0  0  0  0  0  0  0  0  0  0  0  0
   26.0727  -20.9267  -12.1783 C   0  0  0  0  0  0  0  0  0  0  0  0
   25.6070  -22.0942  -11.9307 O   0  0  0  0  0  0  0  0  0  0  0  0
   26.3313  -20.1033  -11.0603 N   0  0  0  0  0  0  0  0  0  0  0  0
   26.1793  -20.5800   -9.6715 C   0  0  1  0  0  0  0  0  0  0  0  0
   27.1343  -19.8825   -8.7666 C   0  0  0  0  0  0  0  0  0  0  0  0
   27.0390  -20.2403   -7.3443 C   0  0  0  0  0  0  0  0  0  0  0  0
   26.1400  -21.1951   -6.8415 C   0  0  0  0  0  0  0  0  0  0  0  0
   26.3050  -21.3314   -5.5180 N   0  0  0  0  0  0  0  0  0  0  0  0
   27.2847  -20.4988   -5.1166 C   0  0  0  0  0  0  0  0  0  0  0  0
   27.8006  -20.2830   -3.8504 C   0  0  0  0  0  0  0  0  0  0  0  0
   28.8070  -19.3567   -3.7087 C   0  0  0  0  0  0  0  0  0  0  0  0
   29.2861  -18.6642   -4.7981 C   0  0  0  0  0  0  0  0  0  0  0  0
   28.7473  -18.9033   -6.0569 C   0  0  0  0  0  0  0  0  0  0  0  0
   27.7356  -19.8276   -6.2390 C   0  0  0  0  0  0  0  0  0  0  0  0
   24.7754  -20.5953   -9.2762 C   0  0  0  0  0  0  0  0  0  0  0  0
   23.9483  -19.7179   -9.6142 O   0  0  0  0  0  0  0  0  0  0  0  0
   24.3125  -21.6416   -8.4747 O   0  0  0  0  0  0  0  0  0  0  0  0
  1  2  1  0
  3  2  1  0
  3  4  2  0
  5  3  1  0
  6  5  1  0
  6  9  1  0
  6  7  1  6
  8  7  1  0
  9 11  1  0
  9 10  2  0
 11 12  1  0
 12 13  1  1
 14 15  2  0
 14 13  1  0
 16 15  1  0
 17 22  2  0
 17 16  1  0
 18 17  1  0
 19 20  1  0
 19 18  2  0
 20 21  2  0
 21 22  1  0
 22 14  1  0
 23 12  1  0
 23 25  1  0
 24 23  2  0
M  END
$$$$
