GCW.pdb
     RDKit          3D

 25 26  0  0  1  0  0  0  0  0999 V2000
   29.8249  -23.6793  -17.5600 N   0  0  0  0  0  0  0  0  0  0  0  0
   29.0933  -22.4292  -17.6591 C   0  0  0  0  0  0  0  0  0  0  0  0
   29.0216  -21.7551  -16.3411 C   0  0  0  0  0  0  0  0  0  0  0  0
   29.7530  -22.0871  -15.3733 O   0  0  0  0  0  0  0  0  0  0  0  0
   28.1009  -20.7023  -16.1598 N   0  0  0  0  0  0  0  0  0  0  0  0
   27.9916  -19.9886  -14.8803 C   0  0  1  0  0  0  0  0  0  0  0  0
   27.6877  -18.5433  -15.2624 C   0  0  0  0  0  0  0  0  0  0  0  0
   26.9614  -17.5972  -13.9207 S   0  0  0  0  0  0  0  0  0  0  0  0
   26.8868  -20.5485  -14.0707 C   0  0  0  0  0  0  0  0  0  0  0  0
   25.7577  -20.7420  -14.6442 O   0  0  0  0  0  0  0  0  0  0  0  0
   26.9651  -20.8957  -12.7039 N   0  0  0  0  0  0  0  0  0  0  0  0
   25.8441  -21.5274  -11.9802 C   0  0  1  0  0  0  0  0  0  0  0  0
   26.3104  -22.1132  -10.6930 C   0  0  0  0  0  0  0  0  0  0  0  0
   26.4919  -21.1596   -9.5896 C   0  0  0  0  0  0  0  0  0  0  0  0
   25.4987  -20.2606   -9.1677 C   0  0  0  0  0  0  0  0  0  0  0  0
   25.9397  -19.5429   -8.1246 N   0  0  0  0  0  0  0  0  0  0  0  0
   27.1963  -19.9306   -7.8337 C   0  0  0  0  0  0  0  0  0  0  0  0
   28.0586  -19.4760   -6.8509 C   0  0  0  0  0  0  0  0  0  0  0  0
   29.3095  -20.0417   -6.7725 C   0  0  0  0  0  0  0  0  0  0  0  0
   29.6911  -21.0326   -7.6491 C   0  0  0  0  0  0  0  0  0  0  0  0
   28.8025  -21.4677   -8.6253 C   0  0  0  0  0  0  0  0  0  0  0  0
   27.5362  -20.9239   -8.7345 C   0  0  0  0  0  0  0  0  0  0  0  0
   24.6893  -20.6381  -11.9291 C   0  0  0  0  0  0  0  0  0  0  0  0
   24.7734  -19.3886  -11.9260 O   0  0  0  0  0  0  0  0  0  0  0  0
   23.4100  -21.1971  -11.8801 O   0  0  0  0  0  0  0  0  0  0  0  0
  1  2  1  0
  3  2  1  0
  3  4  2  0
  5  3  1  0
  6  5  1  0
  6  9  1  0
  6  7  1  6
  8  7  1  0
  9 11  1  0
  9 10  2  0
 11 12  1  0
 12 13  1  1
 14 15  2  0
 14 13  1  0
 16 15  1  0
 17 22  2  0
 17 16  1  0
 18 17  1  0
 19 20  1  0
 19 18  2  0
 20 21  2  0
 21 22  1  0
 22 14  1  0
 23 12  1  0
 23 25  1  0
 24 23  2  0
M  END
$$$$
