GCW.pdb
     RDKit          3D

 25 26  0  0  1  0  0  0  0  0999 V2000
   29.1360  -22.1095  -17.3441 N   0  0  0  0  0  0  0  0  0  0  0  0
   27.8627  -22.0023  -16.6548 C   0  0  0  0  0  0  0  0  0  0  0  0
   27.9467  -21.0271  -15.5419 C   0  0  0  0  0  0  0  0  0  0  0  0
   28.4475  -19.8822  -15.6850 O   0  0  0  0  0  0  0  0  0  0  0  0
   27.4487  -21.3911  -14.2738 N   0  0  0  0  0  0  0  0  0  0  0  0
   26.7038  -20.4395  -13.4384 C   0  0  1  0  0  0  0  0  0  0  0  0
   25.4713  -20.0768  -14.2610 C   0  0  0  0  0  0  0  0  0  0  0  0
   24.2810  -19.0893  -13.3497 S   0  0  0  0  0  0  0  0  0  0  0  0
   26.3014  -21.0767  -12.1650 C   0  0  0  0  0  0  0  0  0  0  0  0
   25.5888  -22.1398  -12.2221 O   0  0  0  0  0  0  0  0  0  0  0  0
   26.6376  -20.6143  -10.8735 N   0  0  0  0  0  0  0  0  0  0  0  0
   26.2379  -21.3295   -9.6455 C   0  0  1  0  0  0  0  0  0  0  0  0
   27.3753  -21.4101   -8.6878 C   0  0  0  0  0  0  0  0  0  0  0  0
   27.4756  -20.3036   -7.7258 C   0  0  0  0  0  0  0  0  0  0  0  0
   26.7917  -19.0852   -7.8683 C   0  0  0  0  0  0  0  0  0  0  0  0
   27.0521  -18.2856   -6.8241 N   0  0  0  0  0  0  0  0  0  0  0  0
   27.8889  -18.9276   -5.9863 C   0  0  0  0  0  0  0  0  0  0  0  0
   28.4390  -18.5059   -4.7882 C   0  0  0  0  0  0  0  0  0  0  0  0
   29.2836  -19.3640   -4.1240 C   0  0  0  0  0  0  0  0  0  0  0  0
   29.5725  -20.6078   -4.6392 C   0  0  0  0  0  0  0  0  0  0  0  0
   29.0043  -21.0024   -5.8448 C   0  0  0  0  0  0  0  0  0  0  0  0
   28.1497  -20.1678   -6.5407 C   0  0  0  0  0  0  0  0  0  0  0  0
   24.9703  -20.8201   -9.1348 C   0  0  0  0  0  0  0  0  0  0  0  0
   24.4155  -19.7816   -9.5615 O   0  0  0  0  0  0  0  0  0  0  0  0
   24.3266  -21.5192   -8.1108 O   0  0  0  0  0  0  0  0  0  0  0  0
  1  2  1  0
  3  2  1  0
  3  4  2  0
  5  3  1  0
  6  5  1  0
  6  9  1  0
  6  7  1  6
  8  7  1  0
  9 11  1  0
  9 10  2  0
 11 12  1  0
 12 13  1  1
 14 15  2  0
 14 13  1  0
 16 15  1  0
 17 22  2  0
 17 16  1  0
 18 17  1  0
 19 20  1  0
 19 18  2  0
 20 21  2  0
 21 22  1  0
 22 14  1  0
 23 12  1  0
 23 25  1  0
 24 23  2  0
M  END
$$$$
