GCW.pdb
     RDKit          3D

 25 26  0  0  1  0  0  0  0  0999 V2000
   17.0392  -25.3816   -5.5838 N   0  0  0  0  0  0  0  0  0  0  0  0
   17.9391  -25.6409   -4.4745 C   0  0  0  0  0  0  0  0  0  0  0  0
   17.2670  -26.4478   -3.4286 C   0  0  0  0  0  0  0  0  0  0  0  0
   16.0213  -26.6207   -3.4071 O   0  0  0  0  0  0  0  0  0  0  0  0
   18.0478  -27.0455   -2.4178 N   0  0  0  0  0  0  0  0  0  0  0  0
   17.5097  -28.1087   -1.5584 C   0  0  1  0  0  0  0  0  0  0  0  0
   17.0377  -29.1917   -2.5235 C   0  0  0  0  0  0  0  0  0  0  0  0
   15.2639  -29.1670   -2.7981 S   0  0  0  0  0  0  0  0  0  0  0  0
   18.5681  -28.6385   -0.6703 C   0  0  0  0  0  0  0  0  0  0  0  0
   19.7516  -28.7551   -1.1466 O   0  0  0  0  0  0  0  0  0  0  0  0
   18.3904  -29.0316    0.6745 N   0  0  0  0  0  0  0  0  0  0  0  0
   19.5044  -29.5157    1.5136 C   0  0  1  0  0  0  0  0  0  0  0  0
   19.4939  -28.8449    2.8430 C   0  0  0  0  0  0  0  0  0  0  0  0
   19.0030  -27.4597    2.8520 C   0  0  0  0  0  0  0  0  0  0  0  0
   17.6507  -27.1151    3.0109 C   0  0  0  0  0  0  0  0  0  0  0  0
   17.5117  -25.7817    3.0104 N   0  0  0  0  0  0  0  0  0  0  0  0
   18.7264  -25.2206    2.8557 C   0  0  0  0  0  0  0  0  0  0  0  0
   19.0833  -23.8849    2.7880 C   0  0  0  0  0  0  0  0  0  0  0  0
   20.4119  -23.5760    2.6145 C   0  0  0  0  0  0  0  0  0  0  0  0
   21.3590  -24.5701    2.5109 C   0  0  0  0  0  0  0  0  0  0  0  0
   20.9691  -25.9023    2.5826 C   0  0  0  0  0  0  0  0  0  0  0  0
   19.6432  -26.2519    2.7577 C   0  0  0  0  0  0  0  0  0  0  0  0
   19.5709  -30.9726    1.5018 C   0  0  0  0  0  0  0  0  0  0  0  0
   18.6686  -31.7062    1.0372 O   0  0  0  0  0  0  0  0  0  0  0  0
   20.6990  -31.5999    2.0361 O   0  0  0  0  0  0  0  0  0  0  0  0
  1  2  1  0
  3  2  1  0
  3  4  2  0
  5  3  1  0
  6  5  1  0
  6  9  1  0
  6  7  1  6
  8  7  1  0
  9 11  1  0
  9 10  2  0
 11 12  1  0
 12 13  1  1
 14 15  2  0
 14 13  1  0
 16 15  1  0
 17 22  2  0
 17 16  1  0
 18 17  1  0
 19 20  1  0
 19 18  2  0
 20 21  2  0
 21 22  1  0
 22 14  1  0
 23 12  1  0
 23 25  1  0
 24 23  2  0
M  END
$$$$
