GCW.pdb
     RDKit          3D

 25 26  0  0  1  0  0  0  0  0999 V2000
   22.8153  -13.9590  -19.0108 N   0  0  0  0  0  0  0  0  0  0  0  0
   23.2075  -12.5711  -18.8435 C   0  0  0  0  0  0  0  0  0  0  0  0
   22.4374  -11.9346  -17.7488 C   0  0  0  0  0  0  0  0  0  0  0  0
   21.4537  -11.1814  -17.9658 O   0  0  0  0  0  0  0  0  0  0  0  0
   22.8175  -12.1785  -16.4128 N   0  0  0  0  0  0  0  0  0  0  0  0
   22.1692  -11.4865  -15.2906 C   0  0  1  0  0  0  0  0  0  0  0  0
   22.3711  -12.4086  -14.0922 C   0  0  0  0  0  0  0  0  0  0  0  0
   21.3560  -13.8876  -14.1618 S   0  0  0  0  0  0  0  0  0  0  0  0
   22.8182  -10.1792  -15.0472 C   0  0  0  0  0  0  0  0  0  0  0  0
   24.0856  -10.0954  -15.2145 O   0  0  0  0  0  0  0  0  0  0  0  0
   22.1583   -8.9977  -14.6432 N   0  0  0  0  0  0  0  0  0  0  0  0
   22.7814   -7.6638  -14.7517 C   0  0  1  0  0  0  0  0  0  0  0  0
   23.3386   -7.4511  -16.1161 C   0  0  0  0  0  0  0  0  0  0  0  0
   23.9840   -6.1504  -16.3433 C   0  0  0  0  0  0  0  0  0  0  0  0
   23.7103   -5.0031  -15.5810 C   0  0  0  0  0  0  0  0  0  0  0  0
   24.4711   -3.9807  -15.9974 N   0  0  0  0  0  0  0  0  0  0  0  0
   25.2456   -4.4047  -17.0145 C   0  0  0  0  0  0  0  0  0  0  0  0
   26.1802   -3.7121  -17.7648 C   0  0  0  0  0  0  0  0  0  0  0  0
   26.8367   -4.3866  -18.7672 C   0  0  0  0  0  0  0  0  0  0  0  0
   26.5695   -5.7142  -19.0158 C   0  0  0  0  0  0  0  0  0  0  0  0
   25.6253   -6.3823  -18.2449 C   0  0  0  0  0  0  0  0  0  0  0  0
   24.9459   -5.7382  -17.2277 C   0  0  0  0  0  0  0  0  0  0  0  0
   21.8976   -6.6310  -14.2233 C   0  0  0  0  0  0  0  0  0  0  0  0
   20.7245   -6.4489  -14.6220 O   0  0  0  0  0  0  0  0  0  0  0  0
   22.3727   -5.7887  -13.2152 O   0  0  0  0  0  0  0  0  0  0  0  0
  1  2  1  0
  3  2  1  0
  3  4  2  0
  5  3  1  0
  6  5  1  0
  6  9  1  0
  6  7  1  1
  8  7  1  0
  9 11  1  0
  9 10  2  0
 11 12  1  0
 12 13  1  6
 14 15  2  0
 14 13  1  0
 16 15  1  0
 17 22  2  0
 17 16  1  0
 18 17  1  0
 19 20  1  0
 19 18  2  0
 20 21  2  0
 21 22  1  0
 22 14  1  0
 23 12  1  0
 23 25  1  0
 24 23  2  0
M  END
$$$$
