VRE.pdb
     RDKit          3D

 28 27  0  0  1  0  0  0  0  0999 V2000
    7.3914  -14.0432   18.7833 C   0  0  0  0  0  0  0  0  0  0  0  0
    7.8768  -13.2499   19.9689 C   0  0  2  0  0  0  0  0  0  0  0  0
    7.4800  -11.8058   19.7652 C   0  0  0  0  0  0  0  0  0  0  0  0
    9.3788  -13.3079   20.0796 C   0  0  2  0  0  0  0  0  0  0  0  0
    9.9853  -12.6783   18.9429 N   0  0  0  0  0  0  0  0  0  0  0  0
    9.9032  -14.6637   20.3675 C   0  0  0  0  0  0  0  0  0  0  0  0
    9.3582  -15.3834   21.2137 O   0  0  0  0  0  0  0  0  0  0  0  0
   15.5974  -20.5717   19.1767 N   0  0  0  0  0  0  0  0  0  0  0  0
   14.6759  -20.7772   18.1139 C   0  0  0  0  0  0  0  0  0  0  0  0
   14.3846  -21.9588   17.7013 N   0  0  0  0  0  0  0  0  0  0  0  0
   14.0407  -19.6598   17.4681 N   0  0  0  0  0  0  0  0  0  0  0  0
   14.3484  -18.3328   17.9352 C   0  0  0  0  0  0  0  0  0  0  0  0
   13.4012  -18.0069   19.0812 C   0  0  0  0  0  0  0  0  0  0  0  0
   12.6757  -16.7220   18.8589 C   0  0  0  0  0  0  0  0  0  0  0  0
   11.7220  -16.3743   19.9672 C   0  0  2  0  0  0  0  0  0  0  0  0
   11.0308  -15.1617   19.6888 N   0  0  0  0  0  0  0  0  0  0  0  0
   12.4528  -16.3424   21.2607 C   0  0  0  0  0  0  0  0  0  0  0  0
   13.4204  -15.5412   21.4187 O   0  0  0  0  0  0  0  0  0  0  0  0
   13.7023  -22.1300   16.9416 N   0  0  0  0  0  0  0  0  0  0  0  0
   12.1254  -17.1743   22.3560 C   0  0  2  0  0  0  0  0  0  0  0  0
   12.8276  -17.1190   23.6516 C   0  0  0  0  0  0  0  0  0  0  0  0
   12.1848  -18.0142   24.6317 C   0  0  0  0  0  0  0  0  0  0  0  0
   12.7466  -18.1061   25.9889 C   0  0  0  0  0  0  0  0  0  0  0  0
   12.2107  -19.0249   26.9704 O   0  0  0  0  0  0  0  0  0  0  0  0
   12.7007  -19.2718   28.0874 C   0  0  0  0  0  0  0  0  0  0  0  0
   14.2455  -17.3393   23.4572 O   0  0  0  0  0  0  0  0  0  0  0  0
   15.2802  -16.5819   24.0032 O   0  0  0  0  0  0  0  0  0  0  0  0
   11.0179  -19.7460   26.7008 O   0  0  0  0  0  0  0  0  0  0  0  0
  2  1  1  6
  3  2  1  0
  4  5  1  6
  4  2  1  0
  6  4  1  0
  7  6  2  0
  9  8  1  0
  9 10  2  0
 11  9  1  0
 12 11  1  0
 13 12  1  0
 14 13  1  0
 15 14  1  6
 15 16  1  0
 16  6  1  0
 17 15  1  0
 17 18  2  0
 19 17  1  0
 20 19  1  0
 20 21  1  6
 22 21  1  0
 23 22  1  0
 24 23  2  0
 25 20  1  0
 26 25  1  0
 27 23  1  0
 28 25  2  0
M  END
$$$$
