VRE.pdb
     RDKit          3D

 28 27  0  0  1  0  0  0  0  0999 V2000
    6.9111  -11.5193   25.2518 C   0  0  0  0  0  0  0  0  0  0  0  0
    6.1016  -12.2918   26.2610 C   0  0  2  0  0  0  0  0  0  0  0  0
    5.9199  -11.4236   27.4849 C   0  0  0  0  0  0  0  0  0  0  0  0
    6.8210  -13.5468   26.6843 C   0  0  2  0  0  0  0  0  0  0  0  0
    8.0543  -13.2162   27.3367 N   0  0  0  0  0  0  0  0  0  0  0  0
    6.9630  -14.5467   25.5999 C   0  0  0  0  0  0  0  0  0  0  0  0
    6.0660  -15.3705   25.3811 O   0  0  0  0  0  0  0  0  0  0  0  0
    8.2060  -14.6564   17.3409 N   0  0  0  0  0  0  0  0  0  0  0  0
    8.3140  -13.6242   18.3124 C   0  0  0  0  0  0  0  0  0  0  0  0
    8.2671  -12.3844   17.9780 N   0  0  0  0  0  0  0  0  0  0  0  0
    8.4796  -13.9431   19.7053 N   0  0  0  0  0  0  0  0  0  0  0  0
    8.8794  -15.2805   20.0593 C   0  0  0  0  0  0  0  0  0  0  0  0
    8.0308  -15.7268   21.2414 C   0  0  0  0  0  0  0  0  0  0  0  0
    8.1326  -14.7816   22.3916 C   0  0  0  0  0  0  0  0  0  0  0  0
    8.3679  -15.4657   23.7088 C   0  0  2  0  0  0  0  0  0  0  0  0
    8.1185  -14.5837   24.7978 N   0  0  0  0  0  0  0  0  0  0  0  0
    9.7368  -16.0439   23.7316 C   0  0  0  0  0  0  0  0  0  0  0  0
   10.7430  -15.2876   23.5952 O   0  0  0  0  0  0  0  0  0  0  0  0
    8.3870  -11.6185   18.6643 N   0  0  0  0  0  0  0  0  0  0  0  0
    9.9918  -17.4241   23.9009 C   0  0  1  0  0  0  0  0  0  0  0  0
   11.3507  -17.9933   23.9653 C   0  0  0  0  0  0  0  0  0  0  0  0
   11.3704  -19.2015   24.8108 C   0  0  0  0  0  0  0  0  0  0  0  0
   10.9771  -19.0887   26.2246 C   0  0  0  0  0  0  0  0  0  0  0  0
   10.9707  -20.2385   27.1036 O   0  0  0  0  0  0  0  0  0  0  0  0
   11.8716  -21.0916   27.2009 C   0  0  0  0  0  0  0  0  0  0  0  0
   11.8778  -18.1713   22.6284 O   0  0  0  0  0  0  0  0  0  0  0  0
   13.2152  -18.0709   22.2492 O   0  0  0  0  0  0  0  0  0  0  0  0
    9.8657  -20.4780   27.9622 O   0  0  0  0  0  0  0  0  0  0  0  0
  2  1  1  6
  3  2  1  0
  4  5  1  6
  4  2  1  0
  6  4  1  0
  7  6  2  0
  9  8  1  0
  9 10  2  0
 11  9  1  0
 12 11  1  0
 13 12  1  0
 14 13  1  0
 15 14  1  6
 15 16  1  0
 16  6  1  0
 17 15  1  0
 17 18  2  0
 19 17  1  0
 20 19  1  0
 20 21  1  6
 22 21  1  0
 23 22  1  0
 24 23  2  0
 25 20  1  0
 26 25  1  0
 27 23  1  0
 28 25  2  0
M  END
$$$$
