VRE.pdb
     RDKit          3D

 28 27  0  0  1  0  0  0  0  0999 V2000
    7.0648  -13.9317   19.3879 C   0  0  0  0  0  0  0  0  0  0  0  0
    7.9573  -12.9329   20.0781 C   0  0  2  0  0  0  0  0  0  0  0  0
    8.3035  -11.8452   19.0874 C   0  0  0  0  0  0  0  0  0  0  0  0
    9.2430  -13.5777   20.5285 C   0  0  2  0  0  0  0  0  0  0  0  0
    9.9745  -14.0699   19.3976 N   0  0  0  0  0  0  0  0  0  0  0  0
    9.0627  -14.5755   21.6091 C   0  0  0  0  0  0  0  0  0  0  0  0
    8.3821  -14.3074   22.6070 O   0  0  0  0  0  0  0  0  0  0  0  0
    9.9782  -19.8718   17.9388 N   0  0  0  0  0  0  0  0  0  0  0  0
    8.5639  -19.7290   17.9254 C   0  0  0  0  0  0  0  0  0  0  0  0
    7.9188  -19.5701   16.8254 N   0  0  0  0  0  0  0  0  0  0  0  0
    7.8125  -19.7589   19.1516 N   0  0  0  0  0  0  0  0  0  0  0  0
    8.5308  -19.8943   20.3924 C   0  0  0  0  0  0  0  0  0  0  0  0
    8.4002  -18.5841   21.1559 C   0  0  0  0  0  0  0  0  0  0  0  0
    9.6545  -18.2340   21.8846 C   0  0  0  0  0  0  0  0  0  0  0  0
    9.6193  -16.8700   22.5146 C   0  0  2  0  0  0  0  0  0  0  0  0
    9.6611  -15.8464   21.5265 N   0  0  0  0  0  0  0  0  0  0  0  0
   10.7118  -16.7560   23.5155 C   0  0  0  0  0  0  0  0  0  0  0  0
   11.8862  -16.4717   23.1374 O   0  0  0  0  0  0  0  0  0  0  0  0
    6.8862  -19.5036   16.7910 N   0  0  0  0  0  0  0  0  0  0  0  0
   10.5153  -16.9507   24.9020 C   0  0  1  0  0  0  0  0  0  0  0  0
   11.6093  -16.8948   25.8893 C   0  0  0  0  0  0  0  0  0  0  0  0
   11.1189  -16.3821   27.1823 C   0  0  0  0  0  0  0  0  0  0  0  0
   10.8856  -14.9368   27.3338 C   0  0  0  0  0  0  0  0  0  0  0  0
   10.4512  -14.3670   28.5913 O   0  0  0  0  0  0  0  0  0  0  0  0
    9.9272  -13.2489   28.7471 C   0  0  0  0  0  0  0  0  0  0  0  0
   12.2859  -18.1734   25.9531 O   0  0  0  0  0  0  0  0  0  0  0  0
   13.5802  -18.3992   26.4182 O   0  0  0  0  0  0  0  0  0  0  0  0
   10.6069  -15.0953   29.7999 O   0  0  0  0  0  0  0  0  0  0  0  0
  2  1  1  6
  3  2  1  0
  4  5  1  6
  4  2  1  0
  6  4  1  0
  7  6  2  0
  9  8  1  0
  9 10  2  0
 11  9  1  0
 12 11  1  0
 13 12  1  0
 14 13  1  0
 15 14  1  6
 15 16  1  0
 16  6  1  0
 17 15  1  0
 17 18  2  0
 19 17  1  0
 20 19  1  0
 20 21  1  6
 22 21  1  0
 23 22  1  0
 24 23  2  0
 25 20  1  0
 26 25  1  0
 27 23  1  0
 28 25  2  0
M  END
$$$$
