VRE.pdb
     RDKit          3D

 28 27  0  0  1  0  0  0  0  0999 V2000
    7.4003  -12.4863   19.1403 C   0  0  0  0  0  0  0  0  0  0  0  0
    7.7491  -13.4144   20.2750 C   0  0  2  0  0  0  0  0  0  0  0  0
    9.0289  -12.9226   20.9111 C   0  0  0  0  0  0  0  0  0  0  0  0
    7.9880  -14.8154   19.7733 C   0  0  2  0  0  0  0  0  0  0  0  0
    6.8763  -15.2559   18.9819 N   0  0  0  0  0  0  0  0  0  0  0  0
    8.3859  -15.7690   20.8354 C   0  0  0  0  0  0  0  0  0  0  0  0
    7.5555  -16.1828   21.6540 O   0  0  0  0  0  0  0  0  0  0  0  0
   11.4801  -18.3168   17.2339 N   0  0  0  0  0  0  0  0  0  0  0  0
   11.1931  -19.7047   17.3454 C   0  0  0  0  0  0  0  0  0  0  0  0
   10.6778  -20.3609   16.3682 N   0  0  0  0  0  0  0  0  0  0  0  0
   11.4742  -20.4157   18.5638 N   0  0  0  0  0  0  0  0  0  0  0  0
   11.9922  -19.6756   19.6853 C   0  0  0  0  0  0  0  0  0  0  0  0
   10.8755  -18.7899   20.2196 C   0  0  0  0  0  0  0  0  0  0  0  0
   11.3211  -17.9689   21.3832 C   0  0  0  0  0  0  0  0  0  0  0  0
   10.2404  -17.0857   21.9407 C   0  0  2  0  0  0  0  0  0  0  0  0
    9.7138  -16.2229   20.9387 N   0  0  0  0  0  0  0  0  0  0  0  0
   10.7588  -16.3522   23.1247 C   0  0  0  0  0  0  0  0  0  0  0  0
   11.2567  -15.1969   22.9824 O   0  0  0  0  0  0  0  0  0  0  0  0
   10.5070  -21.3811   16.4122 N   0  0  0  0  0  0  0  0  0  0  0  0
   10.7296  -16.8794   24.4362 C   0  0  1  0  0  0  0  0  0  0  0  0
   10.6870  -16.0367   25.6456 C   0  0  0  0  0  0  0  0  0  0  0  0
    9.6644  -14.9825   25.5107 C   0  0  0  0  0  0  0  0  0  0  0  0
    9.5100  -13.9965   26.5926 C   0  0  0  0  0  0  0  0  0  0  0  0
    8.6067  -12.8725   26.4703 O   0  0  0  0  0  0  0  0  0  0  0  0
    7.8099  -12.6709   25.5357 C   0  0  0  0  0  0  0  0  0  0  0  0
   10.5600  -16.8673   26.8248 O   0  0  0  0  0  0  0  0  0  0  0  0
    9.9842  -18.1352   26.8823 O   0  0  0  0  0  0  0  0  0  0  0  0
    8.5730  -11.8678   27.4728 O   0  0  0  0  0  0  0  0  0  0  0  0
  2  1  1  6
  3  2  1  0
  4  5  1  1
  4  2  1  0
  6  4  1  0
  7  6  2  0
  9  8  1  0
  9 10  2  0
 11  9  1  0
 12 11  1  0
 13 12  1  0
 14 13  1  0
 15 14  1  6
 15 16  1  0
 16  6  1  0
 17 15  1  0
 17 18  2  0
 19 17  1  0
 20 19  1  0
 20 21  1  6
 22 21  1  0
 23 22  1  0
 24 23  2  0
 25 20  1  0
 26 25  1  0
 27 23  1  0
 28 25  2  0
M  END
$$$$
