VRE.pdb
     RDKit          3D

 28 27  0  0  1  0  0  0  0  0999 V2000
    7.9228  -12.6872   27.2104 C   0  0  0  0  0  0  0  0  0  0  0  0
    6.8744  -12.4361   26.1577 C   0  0  2  0  0  0  0  0  0  0  0  0
    5.8773  -11.4442   26.7113 C   0  0  0  0  0  0  0  0  0  0  0  0
    6.1314  -13.7037   25.8218 C   0  0  2  0  0  0  0  0  0  0  0  0
    5.6053  -14.3017   27.0142 N   0  0  0  0  0  0  0  0  0  0  0  0
    6.9030  -14.6387   24.9696 C   0  0  0  0  0  0  0  0  0  0  0  0
    7.4369  -15.6422   25.4585 O   0  0  0  0  0  0  0  0  0  0  0  0
    7.7161  -13.5745   16.3413 N   0  0  0  0  0  0  0  0  0  0  0  0
    8.6294  -13.9086   17.3781 C   0  0  0  0  0  0  0  0  0  0  0  0
    9.4238  -13.0305   17.8773 N   0  0  0  0  0  0  0  0  0  0  0  0
    8.6885  -15.2480   17.8994 N   0  0  0  0  0  0  0  0  0  0  0  0
    7.8084  -15.6011   18.9832 C   0  0  0  0  0  0  0  0  0  0  0  0
    8.5544  -15.3674   20.2891 C   0  0  0  0  0  0  0  0  0  0  0  0
    7.7246  -14.6244   21.2821 C   0  0  0  0  0  0  0  0  0  0  0  0
    7.8600  -15.1467   22.6848 C   0  0  2  0  0  0  0  0  0  0  0  0
    7.0476  -14.4067   23.5893 N   0  0  0  0  0  0  0  0  0  0  0  0
    9.2943  -15.1637   23.0731 C   0  0  0  0  0  0  0  0  0  0  0  0
    9.8846  -14.0793   23.3535 O   0  0  0  0  0  0  0  0  0  0  0  0
   10.1794  -13.2775   18.5407 N   0  0  0  0  0  0  0  0  0  0  0  0
   10.0616  -16.3486   23.1509 C   0  0  2  0  0  0  0  0  0  0  0  0
   11.4889  -16.3648   23.5216 C   0  0  0  0  0  0  0  0  0  0  0  0
   11.7982  -17.5429   24.3531 C   0  0  0  0  0  0  0  0  0  0  0  0
   11.1072  -17.7070   25.6422 C   0  0  0  0  0  0  0  0  0  0  0  0
   11.3284  -18.8673   26.4784 O   0  0  0  0  0  0  0  0  0  0  0  0
   12.3508  -19.5768   26.4918 C   0  0  0  0  0  0  0  0  0  0  0  0
   12.3104  -16.2159   22.3386 O   0  0  0  0  0  0  0  0  0  0  0  0
   13.6577  -15.8600   22.3097 O   0  0  0  0  0  0  0  0  0  0  0  0
   10.3286  -19.2936   27.3917 O   0  0  0  0  0  0  0  0  0  0  0  0
  2  1  1  1
  3  2  1  0
  4  5  1  1
  4  2  1  0
  6  4  1  0
  7  6  2  0
  9  8  1  0
  9 10  2  0
 11  9  1  0
 12 11  1  0
 13 12  1  0
 14 13  1  0
 15 14  1  6
 15 16  1  0
 16  6  1  0
 17 15  1  0
 17 18  2  0
 19 17  1  0
 20 19  1  0
 20 21  1  6
 22 21  1  0
 23 22  1  0
 24 23  2  0
 25 20  1  0
 26 25  1  0
 27 23  1  0
 28 25  2  0
M  END
$$$$
