VRE.pdb
     RDKit          3D

 28 27  0  0  1  0  0  0  0  0999 V2000
    6.5614  -13.6544   21.1422 C   0  0  0  0  0  0  0  0  0  0  0  0
    7.9495  -13.1013   20.9478 C   0  0  2  0  0  0  0  0  0  0  0  0
    7.9299  -12.1891   19.7428 C   0  0  0  0  0  0  0  0  0  0  0  0
    8.9386  -14.2061   20.6783 C   0  0  2  0  0  0  0  0  0  0  0  0
    8.6871  -14.7958   19.3956 N   0  0  0  0  0  0  0  0  0  0  0  0
    9.0490  -15.1893   21.7814 C   0  0  0  0  0  0  0  0  0  0  0  0
    9.2634  -14.8140   22.9408 O   0  0  0  0  0  0  0  0  0  0  0  0
    6.8140  -22.6130   20.4308 N   0  0  0  0  0  0  0  0  0  0  0  0
    8.0670  -22.8480   21.0598 C   0  0  0  0  0  0  0  0  0  0  0  0
    8.9828  -23.5430   20.4858 N   0  0  0  0  0  0  0  0  0  0  0  0
    8.3445  -22.3098   22.3646 N   0  0  0  0  0  0  0  0  0  0  0  0
    7.8988  -20.9735   22.6637 C   0  0  0  0  0  0  0  0  0  0  0  0
    9.1295  -20.0905   22.8137 C   0  0  0  0  0  0  0  0  0  0  0  0
    9.1234  -18.9537   21.8472 C   0  0  0  0  0  0  0  0  0  0  0  0
    8.9651  -17.6112   22.5039 C   0  0  2  0  0  0  0  0  0  0  0  0
    8.9152  -16.5685   21.5364 N   0  0  0  0  0  0  0  0  0  0  0  0
   10.0423  -17.4192   23.5095 C   0  0  0  0  0  0  0  0  0  0  0  0
   11.2470  -17.3221   23.1324 O   0  0  0  0  0  0  0  0  0  0  0  0
    9.9020  -23.7240   20.9267 N   0  0  0  0  0  0  0  0  0  0  0  0
    9.7982  -17.3361   24.8996 C   0  0  2  0  0  0  0  0  0  0  0  0
   10.8554  -17.0652   25.8914 C   0  0  0  0  0  0  0  0  0  0  0  0
   10.3860  -16.1006   26.9035 C   0  0  0  0  0  0  0  0  0  0  0  0
    9.3795  -15.0977   26.5197 C   0  0  0  0  0  0  0  0  0  0  0  0
    8.8015  -14.1938   27.4910 O   0  0  0  0  0  0  0  0  0  0  0  0
    9.0655  -14.1580   28.7067 C   0  0  0  0  0  0  0  0  0  0  0  0
   11.3684  -18.3108   26.4224 O   0  0  0  0  0  0  0  0  0  0  0  0
   10.8796  -19.5872   26.1495 O   0  0  0  0  0  0  0  0  0  0  0  0
    7.8368  -13.2325   27.0902 O   0  0  0  0  0  0  0  0  0  0  0  0
  2  1  1  6
  3  2  1  0
  4  5  1  6
  4  2  1  0
  6  4  1  0
  7  6  2  0
  9  8  1  0
  9 10  2  0
 11  9  1  0
 12 11  1  0
 13 12  1  0
 14 13  1  0
 15 14  1  6
 15 16  1  0
 16  6  1  0
 17 15  1  0
 17 18  2  0
 19 17  1  0
 20 19  1  0
 20 21  1  6
 22 21  1  0
 23 22  1  0
 24 23  2  0
 25 20  1  0
 26 25  1  0
 27 23  1  0
 28 25  2  0
M  END
$$$$
