VRE.pdb
     RDKit          3D

 28 27  0  0  1  0  0  0  0  0999 V2000
    8.7704  -14.9504   29.6001 C   0  0  0  0  0  0  0  0  0  0  0  0
    9.1743  -15.3895   28.2165 C   0  0  2  0  0  0  0  0  0  0  0  0
    9.5854  -14.1639   27.4333 C   0  0  0  0  0  0  0  0  0  0  0  0
    8.0191  -16.0356   27.4957 C   0  0  2  0  0  0  0  0  0  0  0  0
    7.5824  -17.2034   28.2041 N   0  0  0  0  0  0  0  0  0  0  0  0
    8.2700  -16.2654   26.0534 C   0  0  0  0  0  0  0  0  0  0  0  0
    8.8041  -17.3121   25.6658 O   0  0  0  0  0  0  0  0  0  0  0  0
    6.9650  -13.9679   17.3696 N   0  0  0  0  0  0  0  0  0  0  0  0
    7.8145  -13.7341   18.4853 C   0  0  0  0  0  0  0  0  0  0  0  0
    8.2663  -12.5599   18.7465 N   0  0  0  0  0  0  0  0  0  0  0  0
    8.1930  -14.8138   19.3572 N   0  0  0  0  0  0  0  0  0  0  0  0
    7.4971  -14.9594   20.6095 C   0  0  0  0  0  0  0  0  0  0  0  0
    8.1017  -13.9745   21.6000 C   0  0  0  0  0  0  0  0  0  0  0  0
    7.5783  -14.1791   22.9824 C   0  0  0  0  0  0  0  0  0  0  0  0
    8.2391  -15.3160   23.7099 C   0  0  2  0  0  0  0  0  0  0  0  0
    7.9098  -15.3007   25.0945 N   0  0  0  0  0  0  0  0  0  0  0  0
    9.7038  -15.2817   23.4609 C   0  0  0  0  0  0  0  0  0  0  0  0
   10.3815  -14.2755   23.8231 O   0  0  0  0  0  0  0  0  0  0  0  0
    8.8603  -12.3635   19.5715 N   0  0  0  0  0  0  0  0  0  0  0  0
   10.4064  -16.3321   22.8271 C   0  0  2  0  0  0  0  0  0  0  0  0
   11.8734  -16.4725   22.8826 C   0  0  0  0  0  0  0  0  0  0  0  0
   12.2548  -17.6427   23.6953 C   0  0  0  0  0  0  0  0  0  0  0  0
   13.6741  -18.0246   23.7730 C   0  0  0  0  0  0  0  0  0  0  0  0
   14.1069  -19.1842   24.5230 O   0  0  0  0  0  0  0  0  0  0  0  0
   13.5953  -20.3179   24.4795 C   0  0  0  0  0  0  0  0  0  0  0  0
   12.4249  -16.4491   21.5440 O   0  0  0  0  0  0  0  0  0  0  0  0
   13.7516  -16.1918   21.2031 O   0  0  0  0  0  0  0  0  0  0  0  0
   15.2112  -19.0925   25.4104 O   0  0  0  0  0  0  0  0  0  0  0  0
  2  1  1  1
  3  2  1  0
  4  5  1  1
  4  2  1  0
  6  4  1  0
  7  6  2  0
  9  8  1  0
  9 10  2  0
 11  9  1  0
 12 11  1  0
 13 12  1  0
 14 13  1  0
 15 14  1  6
 15 16  1  0
 16  6  1  0
 17 15  1  0
 17 18  2  0
 19 17  1  0
 20 19  1  0
 20 21  1  6
 22 21  1  0
 23 22  1  0
 24 23  2  0
 25 20  1  0
 26 25  1  0
 27 23  1  0
 28 25  2  0
M  END
$$$$
