VRE.pdb
     RDKit          3D

 28 27  0  0  1  0  0  0  0  0999 V2000
    6.5813  -12.1282   28.0872 C   0  0  0  0  0  0  0  0  0  0  0  0
    7.3132  -13.0199   27.1177 C   0  0  2  0  0  0  0  0  0  0  0  0
    7.7456  -12.1800   25.9378 C   0  0  0  0  0  0  0  0  0  0  0  0
    6.4126  -14.1139   26.6042 C   0  0  2  0  0  0  0  0  0  0  0  0
    5.9320  -14.9135   27.6932 N   0  0  0  0  0  0  0  0  0  0  0  0
    7.0026  -14.8998   25.4951 C   0  0  0  0  0  0  0  0  0  0  0  0
    7.7804  -15.8334   25.7286 O   0  0  0  0  0  0  0  0  0  0  0  0
    8.6575  -12.2635   18.1506 N   0  0  0  0  0  0  0  0  0  0  0  0
    8.6512  -13.5925   17.6460 C   0  0  0  0  0  0  0  0  0  0  0  0
    9.4568  -13.9569   16.7136 N   0  0  0  0  0  0  0  0  0  0  0  0
    7.7363  -14.5710   18.1700 N   0  0  0  0  0  0  0  0  0  0  0  0
    6.9107  -14.2059   19.2919 C   0  0  0  0  0  0  0  0  0  0  0  0
    7.5629  -14.7543   20.5531 C   0  0  0  0  0  0  0  0  0  0  0  0
    6.6669  -14.6408   21.7409 C   0  0  0  0  0  0  0  0  0  0  0  0
    7.2668  -15.2035   22.9986 C   0  0  2  0  0  0  0  0  0  0  0  0
    6.6945  -14.6022   24.1547 N   0  0  0  0  0  0  0  0  0  0  0  0
    8.7461  -15.0707   22.9469 C   0  0  0  0  0  0  0  0  0  0  0  0
    9.2833  -13.9356   23.1081 O   0  0  0  0  0  0  0  0  0  0  0  0
    9.4746  -14.9224   16.3400 N   0  0  0  0  0  0  0  0  0  0  0  0
    9.6144  -16.1636   22.7225 C   0  0  2  0  0  0  0  0  0  0  0  0
   11.0391  -16.1557   23.1032 C   0  0  0  0  0  0  0  0  0  0  0  0
   11.3199  -17.2116   24.0939 C   0  0  0  0  0  0  0  0  0  0  0  0
   12.7045  -17.4089   24.5524 C   0  0  0  0  0  0  0  0  0  0  0  0
   13.0604  -18.4916   25.4444 O   0  0  0  0  0  0  0  0  0  0  0  0
   13.8989  -19.3828   25.2170 C   0  0  0  0  0  0  0  0  0  0  0  0
   11.8696  -16.1904   21.9176 O   0  0  0  0  0  0  0  0  0  0  0  0
   11.4375  -16.4328   20.6148 O   0  0  0  0  0  0  0  0  0  0  0  0
   12.4345  -18.6102   26.7130 O   0  0  0  0  0  0  0  0  0  0  0  0
  2  1  1  1
  3  2  1  0
  4  5  1  1
  4  2  1  0
  6  4  1  0
  7  6  2  0
  9  8  1  0
  9 10  2  0
 11  9  1  0
 12 11  1  0
 13 12  1  0
 14 13  1  0
 15 14  1  6
 15 16  1  0
 16  6  1  0
 17 15  1  0
 17 18  2  0
 19 17  1  0
 20 19  1  0
 20 21  1  6
 22 21  1  0
 23 22  1  0
 24 23  2  0
 25 20  1  0
 26 25  1  0
 27 23  1  0
 28 25  2  0
M  END
$$$$
