VRE.pdb
     RDKit          3D

 28 27  0  0  1  0  0  0  0  0999 V2000
   10.0454  -21.0576   15.2645 C   0  0  0  0  0  0  0  0  0  0  0  0
   10.7072  -20.0882   16.2094 C   0  0  2  0  0  0  0  0  0  0  0  0
   12.1918  -20.3721   16.2139 C   0  0  0  0  0  0  0  0  0  0  0  0
   10.1952  -20.2690   17.6153 C   0  0  2  0  0  0  0  0  0  0  0  0
    8.8420  -20.7430   17.5939 N   0  0  0  0  0  0  0  0  0  0  0  0
   10.4047  -19.0858   18.4826 C   0  0  0  0  0  0  0  0  0  0  0  0
   11.4937  -18.4985   18.4947 O   0  0  0  0  0  0  0  0  0  0  0  0
    8.4034  -12.2997   19.7631 N   0  0  0  0  0  0  0  0  0  0  0  0
    8.0407  -12.3567   21.1364 C   0  0  0  0  0  0  0  0  0  0  0  0
    8.2033  -11.3458   21.9128 N   0  0  0  0  0  0  0  0  0  0  0  0
    7.4780  -13.5561   21.6968 N   0  0  0  0  0  0  0  0  0  0  0  0
    7.3644  -14.7184   20.8542 C   0  0  0  0  0  0  0  0  0  0  0  0
    8.1054  -15.8629   21.5307 C   0  0  0  0  0  0  0  0  0  0  0  0
    8.0934  -17.1040   20.7023 C   0  0  0  0  0  0  0  0  0  0  0  0
    9.4573  -17.5186   20.2264 C   0  0  2  0  0  0  0  0  0  0  0  0
    9.3739  -18.6056   19.3114 N   0  0  0  0  0  0  0  0  0  0  0  0
   10.3254  -17.8100   21.3968 C   0  0  0  0  0  0  0  0  0  0  0  0
   10.1176  -18.8466   22.0934 O   0  0  0  0  0  0  0  0  0  0  0  0
    7.9959  -11.3841   22.9265 N   0  0  0  0  0  0  0  0  0  0  0  0
   11.3984  -16.9784   21.7914 C   0  0  2  0  0  0  0  0  0  0  0  0
   12.3278  -17.3213   22.8839 C   0  0  0  0  0  0  0  0  0  0  0  0
   13.5713  -16.5356   22.7764 C   0  0  0  0  0  0  0  0  0  0  0  0
   14.6270  -16.7308   23.7832 C   0  0  0  0  0  0  0  0  0  0  0  0
   15.8435  -15.9468   23.7675 O   0  0  0  0  0  0  0  0  0  0  0  0
   16.1091  -15.0218   22.9784 C   0  0  0  0  0  0  0  0  0  0  0  0
   11.6501  -17.2258   24.1599 O   0  0  0  0  0  0  0  0  0  0  0  0
   11.9190  -17.9880   25.2955 O   0  0  0  0  0  0  0  0  0  0  0  0
   16.8729  -16.2022   24.7113 O   0  0  0  0  0  0  0  0  0  0  0  0
  2  1  1  6
  3  2  1  0
  4  5  1  6
  4  2  1  0
  6  4  1  0
  7  6  2  0
  9  8  1  0
  9 10  2  0
 11  9  1  0
 12 11  1  0
 13 12  1  0
 14 13  1  0
 15 14  1  1
 15 16  1  0
 16  6  1  0
 17 15  1  0
 17 18  2  0
 19 17  1  0
 20 19  1  0
 20 21  1  6
 22 21  1  0
 23 22  1  0
 24 23  2  0
 25 20  1  0
 26 25  1  0
 27 23  1  0
 28 25  2  0
M  END
$$$$
