VRE.pdb
     RDKit          3D

 28 27  0  0  1  0  0  0  0  0999 V2000
    7.6782  -11.5885   26.1550 C   0  0  0  0  0  0  0  0  0  0  0  0
    6.3633  -12.3212   26.0865 C   0  0  2  0  0  0  0  0  0  0  0  0
    5.4988  -11.8479   27.2325 C   0  0  0  0  0  0  0  0  0  0  0  0
    6.5641  -13.8071   26.2388 C   0  0  2  0  0  0  0  0  0  0  0  0
    7.4564  -14.0787   27.3279 N   0  0  0  0  0  0  0  0  0  0  0  0
    6.9298  -14.4914   24.9763 C   0  0  0  0  0  0  0  0  0  0  0  0
    6.5634  -15.6534   24.7604 O   0  0  0  0  0  0  0  0  0  0  0  0
    8.0731  -13.1678   16.9605 N   0  0  0  0  0  0  0  0  0  0  0  0
    8.7684  -14.2504   17.5652 C   0  0  0  0  0  0  0  0  0  0  0  0
   10.0230  -14.4367   17.3596 N   0  0  0  0  0  0  0  0  0  0  0  0
    8.0805  -15.1720   18.4293 N   0  0  0  0  0  0  0  0  0  0  0  0
    7.4898  -14.6649   19.6408 C   0  0  0  0  0  0  0  0  0  0  0  0
    8.5230  -13.7904   20.3367 C   0  0  0  0  0  0  0  0  0  0  0  0
    8.0456  -13.3111   21.6667 C   0  0  0  0  0  0  0  0  0  0  0  0
    8.0958  -14.3661   22.7359 C   0  0  2  0  0  0  0  0  0  0  0  0
    7.7016  -13.8383   23.9976 N   0  0  0  0  0  0  0  0  0  0  0  0
    9.4469  -14.9845   22.7616 C   0  0  0  0  0  0  0  0  0  0  0  0
   10.4559  -14.2827   23.0656 O   0  0  0  0  0  0  0  0  0  0  0  0
   10.5410  -15.2347   17.7683 N   0  0  0  0  0  0  0  0  0  0  0  0
    9.6816  -16.3454   22.4591 C   0  0  2  0  0  0  0  0  0  0  0  0
   11.0181  -16.9665   22.5117 C   0  0  0  0  0  0  0  0  0  0  0  0
   11.0189  -18.1257   23.4235 C   0  0  0  0  0  0  0  0  0  0  0  0
   10.7287  -17.9105   24.8503 C   0  0  0  0  0  0  0  0  0  0  0  0
   10.7462  -19.0022   25.8003 O   0  0  0  0  0  0  0  0  0  0  0  0
   10.7866  -18.8947   27.0396 C   0  0  0  0  0  0  0  0  0  0  0  0
   11.4909  -17.2404   21.1707 O   0  0  0  0  0  0  0  0  0  0  0  0
   12.7789  -17.6372   20.8154 O   0  0  0  0  0  0  0  0  0  0  0  0
   10.7166  -20.3472   25.3470 O   0  0  0  0  0  0  0  0  0  0  0  0
  2  1  1  1
  3  2  1  0
  4  5  1  1
  4  2  1  0
  6  4  1  0
  7  6  2  0
  9  8  1  0
  9 10  2  0
 11  9  1  0
 12 11  1  0
 13 12  1  0
 14 13  1  0
 15 14  1  6
 15 16  1  0
 16  6  1  0
 17 15  1  0
 17 18  2  0
 19 17  1  0
 20 19  1  0
 20 21  1  6
 22 21  1  0
 23 22  1  0
 24 23  2  0
 25 20  1  0
 26 25  1  0
 27 23  1  0
 28 25  2  0
M  END
$$$$
