CCV.pdb
     RDKit          3D

 20 19  0  0  1  0  0  0  0  0999 V2000
    6.9895  -17.6220   19.5240 N   0  0  0  0  0  0  0  0  0  0  0  0
    7.7620  -16.6614   20.2541 C   0  0  1  0  0  0  0  0  0  0  0  0
    7.8806  -15.3627   19.4899 C   0  0  0  0  0  0  0  0  0  0  0  0
    8.9414  -14.2618   20.4776 S   0  0  0  0  0  0  0  0  0  0  0  0
    7.1799  -16.4882   21.5957 C   0  0  0  0  0  0  0  0  0  0  0  0
    5.9509  -16.3827   21.7599 O   0  0  0  0  0  0  0  0  0  0  0  0
    8.0408  -16.4424   22.7085 N   0  0  0  0  0  0  0  0  0  0  0  0
    7.4361  -16.3900   24.0372 C   0  0  1  0  0  0  0  0  0  0  0  0
    6.7445  -17.7197   24.2191 C   0  0  0  0  0  0  0  0  0  0  0  0
    7.4564  -18.7638   25.4821 S   0  0  0  0  0  0  0  0  0  0  0  0
    8.5029  -16.1429   25.0410 C   0  0  0  0  0  0  0  0  0  0  0  0
    9.7065  -16.4737   24.7698 O   0  0  0  0  0  0  0  0  0  0  0  0
   10.1346  -13.7171   29.0067 C   0  0  0  0  0  0  0  0  0  0  0  0
    8.9533  -14.1180   28.1591 C   0  0  1  0  0  0  0  0  0  0  0  0
    8.3022  -12.9160   27.5561 C   0  0  0  0  0  0  0  0  0  0  0  0
    9.3887  -15.1326   27.1209 C   0  0  2  0  0  0  0  0  0  0  0  0
    8.2827  -15.5557   26.3017 N   0  0  0  0  0  0  0  0  0  0  0  0
    9.9088  -16.3227   27.8732 C   0  0  0  0  0  0  0  0  0  0  0  0
    9.1362  -17.2549   28.2127 O   0  0  0  0  0  0  0  0  0  0  0  0
   11.2430  -16.4572   28.2283 O   0  0  0  0  0  0  0  0  0  0  0  0
  2  1  1  6
  2  5  1  0
  3  2  1  0
  4  3  1  0
  5  6  2  0
  7  5  1  0
  7  8  1  0
  8  9  1  1
 10  9  1  0
 11  8  1  0
 11 12  2  0
 14 13  1  6
 14 15  1  0
 14 16  1  0
 16 18  1  0
 16 17  1  1
 17 11  1  0
 18 20  1  0
 19 18  2  0
M  END
$$$$
