CCV.pdb
     RDKit          3D

 20 19  0  0  1  0  0  0  0  0999 V2000
    7.7106  -15.9616   18.3101 N   0  0  0  0  0  0  0  0  0  0  0  0
    7.9634  -14.9286   19.2701 C   0  0  1  0  0  0  0  0  0  0  0  0
    7.5089  -13.5823   18.7551 C   0  0  0  0  0  0  0  0  0  0  0  0
    9.0102  -12.6154   18.4029 S   0  0  0  0  0  0  0  0  0  0  0  0
    7.3394  -15.2943   20.5530 C   0  0  0  0  0  0  0  0  0  0  0  0
    6.1962  -15.7833   20.6011 O   0  0  0  0  0  0  0  0  0  0  0  0
    8.0602  -15.0820   21.7433 N   0  0  0  0  0  0  0  0  0  0  0  0
    7.4235  -15.4591   23.0029 C   0  0  1  0  0  0  0  0  0  0  0  0
    7.5886  -16.9563   23.1066 C   0  0  0  0  0  0  0  0  0  0  0  0
    9.2745  -17.5075   23.3210 S   0  0  0  0  0  0  0  0  0  0  0  0
    8.0784  -14.7196   24.1124 C   0  0  0  0  0  0  0  0  0  0  0  0
    9.3164  -14.4191   24.0196 O   0  0  0  0  0  0  0  0  0  0  0  0
    6.9395  -11.3876   25.9441 C   0  0  0  0  0  0  0  0  0  0  0  0
    7.1949  -12.5089   26.9199 C   0  0  1  0  0  0  0  0  0  0  0  0
    5.9076  -13.0957   27.4005 C   0  0  0  0  0  0  0  0  0  0  0  0
    8.1100  -13.5389   26.2886 C   0  0  2  0  0  0  0  0  0  0  0  0
    7.4210  -14.3135   25.2894 N   0  0  0  0  0  0  0  0  0  0  0  0
    8.5467  -14.4600   27.3902 C   0  0  0  0  0  0  0  0  0  0  0  0
    8.0987  -15.6328   27.4613 O   0  0  0  0  0  0  0  0  0  0  0  0
    9.4499  -14.0763   28.3707 O   0  0  0  0  0  0  0  0  0  0  0  0
  2  1  1  6
  2  5  1  0
  3  2  1  0
  4  3  1  0
  5  6  2  0
  7  5  1  0
  7  8  1  0
  8  9  1  1
 10  9  1  0
 11  8  1  0
 11 12  2  0
 14 13  1  6
 14 15  1  0
 14 16  1  0
 16 18  1  0
 16 17  1  6
 17 11  1  0
 18 20  1  0
 19 18  2  0
M  END
$$$$
