CCV.pdb
     RDKit          3D

 20 19  0  0  1  0  0  0  0  0999 V2000
    8.1072  -12.5017   19.6350 N   0  0  0  0  0  0  0  0  0  0  0  0
    7.3619  -13.4521   20.4057 C   0  0  1  0  0  0  0  0  0  0  0  0
    7.2784  -14.7841   19.6963 C   0  0  0  0  0  0  0  0  0  0  0  0
    6.2992  -14.5191   18.1851 S   0  0  0  0  0  0  0  0  0  0  0  0
    7.9494  -13.5534   21.7523 C   0  0  0  0  0  0  0  0  0  0  0  0
    9.1811  -13.5189   21.9258 O   0  0  0  0  0  0  0  0  0  0  0  0
    7.0906  -13.6919   22.8590 N   0  0  0  0  0  0  0  0  0  0  0  0
    7.6958  -13.7767   24.1858 C   0  0  1  0  0  0  0  0  0  0  0  0
    6.6737  -13.1970   25.1340 C   0  0  0  0  0  0  0  0  0  0  0  0
    7.0571  -13.4115   26.8657 S   0  0  0  0  0  0  0  0  0  0  0  0
    8.0231  -15.1966   24.4746 C   0  0  0  0  0  0  0  0  0  0  0  0
    7.1518  -16.1004   24.2388 O   0  0  0  0  0  0  0  0  0  0  0  0
   10.4183  -17.5117   23.0084 C   0  0  0  0  0  0  0  0  0  0  0  0
   10.7045  -17.5306   24.4892 C   0  0  1  0  0  0  0  0  0  0  0  0
   11.9431  -16.7546   24.7988 C   0  0  0  0  0  0  0  0  0  0  0  0
    9.4933  -17.0314   25.2513 C   0  0  2  0  0  0  0  0  0  0  0  0
    9.2534  -15.6338   25.0018 N   0  0  0  0  0  0  0  0  0  0  0  0
    9.7980  -17.2111   26.7099 C   0  0  0  0  0  0  0  0  0  0  0  0
    9.9828  -16.2146   27.4542 O   0  0  0  0  0  0  0  0  0  0  0  0
    9.8908  -18.4606   27.3053 O   0  0  0  0  0  0  0  0  0  0  0  0
  2  1  1  6
  2  5  1  0
  3  2  1  0
  4  3  1  0
  5  6  2  0
  7  5  1  0
  7  8  1  0
  8  9  1  1
 10  9  1  0
 11  8  1  0
 11 12  2  0
 14 13  1  6
 14 15  1  0
 14 16  1  0
 16 18  1  0
 16 17  1  1
 17 11  1  0
 18 20  1  0
 19 18  2  0
M  END
$$$$
