CCV.pdb
     RDKit          3D

 20 19  0  0  1  0  0  0  0  0999 V2000
    6.4316  -17.9830   19.2376 N   0  0  0  0  0  0  0  0  0  0  0  0
    7.4178  -17.4724   20.1427 C   0  0  1  0  0  0  0  0  0  0  0  0
    8.0666  -16.2225   19.5940 C   0  0  0  0  0  0  0  0  0  0  0  0
    6.7720  -14.9458   19.5118 S   0  0  0  0  0  0  0  0  0  0  0  0
    6.8038  -17.2684   21.4657 C   0  0  0  0  0  0  0  0  0  0  0  0
    5.5688  -17.2875   21.6165 O   0  0  0  0  0  0  0  0  0  0  0  0
    7.6409  -17.0481   22.5758 N   0  0  0  0  0  0  0  0  0  0  0  0
    7.0122  -16.9071   23.8869 C   0  0  1  0  0  0  0  0  0  0  0  0
    7.1620  -18.2534   24.5537 C   0  0  0  0  0  0  0  0  0  0  0  0
    6.8405  -18.2549   26.3112 S   0  0  0  0  0  0  0  0  0  0  0  0
    7.6858  -15.8092   24.6269 C   0  0  0  0  0  0  0  0  0  0  0  0
    8.9433  -15.6370   24.4838 O   0  0  0  0  0  0  0  0  0  0  0  0
    7.5579  -11.7288   27.4103 C   0  0  0  0  0  0  0  0  0  0  0  0
    6.7800  -12.8622   26.7898 C   0  0  1  0  0  0  0  0  0  0  0  0
    5.7200  -12.3388   25.8761 C   0  0  0  0  0  0  0  0  0  0  0  0
    7.7313  -13.8182   26.0984 C   0  0  2  0  0  0  0  0  0  0  0  0
    7.0260  -14.9198   25.4967 N   0  0  0  0  0  0  0  0  0  0  0  0
    8.6457  -14.3583   27.1590 C   0  0  0  0  0  0  0  0  0  0  0  0
    9.4817  -13.6102   27.7272 O   0  0  0  0  0  0  0  0  0  0  0  0
    8.6197  -15.6852   27.5628 O   0  0  0  0  0  0  0  0  0  0  0  0
  2  1  1  6
  2  5  1  0
  3  2  1  0
  4  3  1  0
  5  6  2  0
  7  5  1  0
  7  8  1  0
  8  9  1  1
 10  9  1  0
 11  8  1  0
 11 12  2  0
 14 13  1  6
 14 15  1  0
 14 16  1  0
 16 18  1  0
 16 17  1  1
 17 11  1  0
 18 20  1  0
 19 18  2  0
M  END
$$$$
