CCV.pdb
     RDKit          3D

 20 19  0  0  1  0  0  0  0  0999 V2000
    8.9003  -14.7794   19.9162 N   0  0  0  0  0  0  0  0  0  0  0  0
    8.3100  -15.5614   20.9615 C   0  0  1  0  0  0  0  0  0  0  0  0
    8.8423  -16.9761   20.9513 C   0  0  0  0  0  0  0  0  0  0  0  0
   10.6467  -16.8648   21.1620 S   0  0  0  0  0  0  0  0  0  0  0  0
    8.5123  -14.8801   22.2514 C   0  0  0  0  0  0  0  0  0  0  0  0
    9.3038  -13.9265   22.3631 O   0  0  0  0  0  0  0  0  0  0  0  0
    7.7902  -15.3252   23.3748 N   0  0  0  0  0  0  0  0  0  0  0  0
    7.9153  -14.5605   24.6131 C   0  0  1  0  0  0  0  0  0  0  0  0
    6.5291  -14.5294   25.2107 C   0  0  0  0  0  0  0  0  0  0  0  0
    6.3795  -13.5484   26.6964 S   0  0  0  0  0  0  0  0  0  0  0  0
    8.9154  -15.2241   25.4884 C   0  0  0  0  0  0  0  0  0  0  0  0
    9.3010  -16.4099   25.2114 O   0  0  0  0  0  0  0  0  0  0  0  0
   11.4677  -13.1690   28.1290 C   0  0  0  0  0  0  0  0  0  0  0  0
   10.9356  -14.5021   28.5921 C   0  0  1  0  0  0  0  0  0  0  0  0
    9.8498  -14.3168   29.6017 C   0  0  0  0  0  0  0  0  0  0  0  0
   10.4914  -15.3198   27.3958 C   0  0  2  0  0  0  0  0  0  0  0  0
    9.4863  -14.6295   26.6301 N   0  0  0  0  0  0  0  0  0  0  0  0
    9.8940  -16.5857   27.9373 C   0  0  0  0  0  0  0  0  0  0  0  0
   10.6282  -17.4914   28.4084 O   0  0  0  0  0  0  0  0  0  0  0  0
    8.5271  -16.8219   27.9479 O   0  0  0  0  0  0  0  0  0  0  0  0
  2  1  1  6
  2  5  1  0
  3  2  1  0
  4  3  1  0
  5  6  2  0
  7  5  1  0
  7  8  1  0
  8  9  1  1
 10  9  1  0
 11  8  1  0
 11 12  2  0
 14 13  1  6
 14 15  1  0
 14 16  1  0
 16 18  1  0
 16 17  1  1
 17 11  1  0
 18 20  1  0
 19 18  2  0
M  END
$$$$
