CCV.pdb
     RDKit          3D

 20 19  0  0  1  0  0  0  0  0999 V2000
    8.6508  -15.2794   20.4414 N   0  0  0  0  0  0  0  0  0  0  0  0
    7.7932  -15.6267   21.5353 C   0  0  1  0  0  0  0  0  0  0  0  0
    7.7011  -17.1262   21.7014 C   0  0  0  0  0  0  0  0  0  0  0  0
    6.6579  -17.4345   23.1607 S   0  0  0  0  0  0  0  0  0  0  0  0
    8.2570  -14.9405   22.7530 C   0  0  0  0  0  0  0  0  0  0  0  0
    9.4692  -14.8189   23.0062 O   0  0  0  0  0  0  0  0  0  0  0  0
    7.3005  -14.4149   23.6421 N   0  0  0  0  0  0  0  0  0  0  0  0
    7.7842  -13.7482   24.8485 C   0  0  1  0  0  0  0  0  0  0  0  0
    6.6035  -12.9736   25.3831 C   0  0  0  0  0  0  0  0  0  0  0  0
    6.8086  -12.3559   27.0470 S   0  0  0  0  0  0  0  0  0  0  0  0
    8.2877  -14.7756   25.7960 C   0  0  0  0  0  0  0  0  0  0  0  0
    7.6054  -15.8382   25.9880 O   0  0  0  0  0  0  0  0  0  0  0  0
   11.7186  -17.2449   28.1005 C   0  0  0  0  0  0  0  0  0  0  0  0
   11.2943  -16.2117   27.0869 C   0  0  1  0  0  0  0  0  0  0  0  0
   11.3891  -16.7603   25.7004 C   0  0  0  0  0  0  0  0  0  0  0  0
    9.9066  -15.7038   27.4236 C   0  0  2  0  0  0  0  0  0  0  0  0
    9.4920  -14.6646   26.5172 N   0  0  0  0  0  0  0  0  0  0  0  0
    9.9825  -15.1284   28.8077 C   0  0  0  0  0  0  0  0  0  0  0  0
   10.1666  -15.8741   29.8033 O   0  0  0  0  0  0  0  0  0  0  0  0
    9.8566  -13.7701   29.0600 O   0  0  0  0  0  0  0  0  0  0  0  0
  2  1  1  6
  2  5  1  0
  3  2  1  0
  4  3  1  0
  5  6  2  0
  7  5  1  0
  7  8  1  0
  8  9  1  1
 10  9  1  0
 11  8  1  0
 11 12  2  0
 14 13  1  1
 14 15  1  0
 14 16  1  0
 16 18  1  0
 16 17  1  6
 17 11  1  0
 18 20  1  0
 19 18  2  0
M  END
$$$$
