CCV.pdb
     RDKit          3D

 20 19  0  0  1  0  0  0  0  0999 V2000
    7.8411  -16.8395   18.3965 N   0  0  0  0  0  0  0  0  0  0  0  0
    8.0866  -15.7362   19.2768 C   0  0  1  0  0  0  0  0  0  0  0  0
    7.7700  -14.4204   18.6037 C   0  0  0  0  0  0  0  0  0  0  0  0
    8.0572  -13.1122   19.8361 S   0  0  0  0  0  0  0  0  0  0  0  0
    7.3369  -15.9370   20.5284 C   0  0  0  0  0  0  0  0  0  0  0  0
    6.1405  -16.2788   20.5190 O   0  0  0  0  0  0  0  0  0  0  0  0
    7.9973  -15.7355   21.7551 N   0  0  0  0  0  0  0  0  0  0  0  0
    7.2316  -15.9349   22.9830 C   0  0  1  0  0  0  0  0  0  0  0  0
    7.2953  -17.4173   23.2626 C   0  0  0  0  0  0  0  0  0  0  0  0
    6.7971  -17.8868   24.9129 S   0  0  0  0  0  0  0  0  0  0  0  0
    7.8313  -15.1093   24.0625 C   0  0  0  0  0  0  0  0  0  0  0  0
    9.1007  -14.9792   24.1194 O   0  0  0  0  0  0  0  0  0  0  0  0
    7.4567  -11.7456   27.6467 C   0  0  0  0  0  0  0  0  0  0  0  0
    6.7339  -12.6779   26.7069 C   0  0  1  0  0  0  0  0  0  0  0  0
    5.8701  -11.9099   25.7601 C   0  0  0  0  0  0  0  0  0  0  0  0
    7.7350  -13.5679   25.9980 C   0  0  2  0  0  0  0  0  0  0  0  0
    7.0873  -14.4409   25.0537 N   0  0  0  0  0  0  0  0  0  0  0  0
    8.3886  -14.4087   27.0556 C   0  0  0  0  0  0  0  0  0  0  0  0
    7.9479  -15.5546   27.3276 O   0  0  0  0  0  0  0  0  0  0  0  0
    9.4922  -13.9770   27.7768 O   0  0  0  0  0  0  0  0  0  0  0  0
  2  1  1  6
  2  5  1  0
  3  2  1  0
  4  3  1  0
  5  6  2  0
  7  5  1  0
  7  8  1  0
  8  9  1  1
 10  9  1  0
 11  8  1  0
 11 12  2  0
 14 13  1  1
 14 15  1  0
 14 16  1  0
 16 18  1  0
 16 17  1  6
 17 11  1  0
 18 20  1  0
 19 18  2  0
M  END
$$$$
