CCV.pdb
     RDKit          3D

 20 19  0  0  1  0  0  0  0  0999 V2000
    7.9714  -16.2817   18.5596 N   0  0  0  0  0  0  0  0  0  0  0  0
    8.0315  -15.1300   19.4097 C   0  0  1  0  0  0  0  0  0  0  0  0
    7.4980  -13.9038   18.7052 C   0  0  0  0  0  0  0  0  0  0  0  0
    8.6953  -12.5638   18.9944 S   0  0  0  0  0  0  0  0  0  0  0  0
    7.3289  -15.4200   20.6711 C   0  0  0  0  0  0  0  0  0  0  0  0
    6.1533  -15.8277   20.6789 O   0  0  0  0  0  0  0  0  0  0  0  0
    8.0110  -15.2284   21.8875 N   0  0  0  0  0  0  0  0  0  0  0  0
    7.2987  -15.5368   23.1250 C   0  0  1  0  0  0  0  0  0  0  0  0
    7.4072  -17.0336   23.2914 C   0  0  0  0  0  0  0  0  0  0  0  0
    6.8614  -17.6490   24.8774 S   0  0  0  0  0  0  0  0  0  0  0  0
    7.9211  -14.7773   24.2396 C   0  0  0  0  0  0  0  0  0  0  0  0
    9.1927  -14.7718   24.3602 O   0  0  0  0  0  0  0  0  0  0  0  0
    6.7261  -11.1870   25.8453 C   0  0  0  0  0  0  0  0  0  0  0  0
    6.9938  -12.2673   26.8633 C   0  0  1  0  0  0  0  0  0  0  0  0
    5.7129  -12.8130   27.4053 C   0  0  0  0  0  0  0  0  0  0  0  0
    7.8767  -13.3379   26.2539 C   0  0  2  0  0  0  0  0  0  0  0  0
    7.1970  -14.0430   25.1984 N   0  0  0  0  0  0  0  0  0  0  0  0
    8.1938  -14.3110   27.3517 C   0  0  0  0  0  0  0  0  0  0  0  0
    7.6544  -15.4466   27.3781 O   0  0  0  0  0  0  0  0  0  0  0  0
    9.0813  -14.0175   28.3767 O   0  0  0  0  0  0  0  0  0  0  0  0
  2  1  1  6
  2  5  1  0
  3  2  1  0
  4  3  1  0
  5  6  2  0
  7  5  1  0
  7  8  1  0
  8  9  1  1
 10  9  1  0
 11  8  1  0
 11 12  2  0
 14 13  1  6
 14 15  1  0
 14 16  1  0
 16 18  1  0
 16 17  1  6
 17 11  1  0
 18 20  1  0
 19 18  2  0
M  END
$$$$
