CCV.pdb
     RDKit          3D

 20 19  0  0  1  0  0  0  0  0999 V2000
    9.4291  -16.4448   19.2121 N   0  0  0  0  0  0  0  0  0  0  0  0
    9.7524  -17.2070   20.3814 C   0  0  1  0  0  0  0  0  0  0  0  0
   11.2472  -17.3799   20.5236 C   0  0  0  0  0  0  0  0  0  0  0  0
   11.9577  -15.7148   20.7117 S   0  0  0  0  0  0  0  0  0  0  0  0
    9.1317  -16.5770   21.5590 C   0  0  0  0  0  0  0  0  0  0  0  0
    8.8125  -15.3744   21.5574 O   0  0  0  0  0  0  0  0  0  0  0  0
    8.8992  -17.3611   22.7047 N   0  0  0  0  0  0  0  0  0  0  0  0
    8.2367  -16.7274   23.8421 C   0  0  1  0  0  0  0  0  0  0  0  0
    7.2040  -17.7227   24.3140 C   0  0  0  0  0  0  0  0  0  0  0  0
    6.3826  -17.2791   25.8374 S   0  0  0  0  0  0  0  0  0  0  0  0
    9.2559  -16.4074   24.8743 C   0  0  0  0  0  0  0  0  0  0  0  0
   10.3383  -17.0842   24.9164 O   0  0  0  0  0  0  0  0  0  0  0  0
    8.4167  -13.9699   28.2057 C   0  0  0  0  0  0  0  0  0  0  0  0
    9.8330  -13.9657   27.6873 C   0  0  1  0  0  0  0  0  0  0  0  0
   10.8059  -13.7857   28.8069 C   0  0  0  0  0  0  0  0  0  0  0  0
   10.0884  -15.2257   26.8847 C   0  0  2  0  0  0  0  0  0  0  0  0
    9.1162  -15.3874   25.8350 N   0  0  0  0  0  0  0  0  0  0  0  0
    9.9583  -16.3775   27.8382 C   0  0  0  0  0  0  0  0  0  0  0  0
    8.8932  -17.0433   27.8985 O   0  0  0  0  0  0  0  0  0  0  0  0
   10.9846  -16.7633   28.6880 O   0  0  0  0  0  0  0  0  0  0  0  0
  2  1  1  6
  2  5  1  0
  3  2  1  0
  4  3  1  0
  5  6  2  0
  7  5  1  0
  7  8  1  0
  8  9  1  1
 10  9  1  0
 11  8  1  0
 11 12  2  0
 14 13  1  1
 14 15  1  0
 14 16  1  0
 16 18  1  0
 16 17  1  6
 17 11  1  0
 18 20  1  0
 19 18  2  0
M  END
$$$$
