CCV.pdb
     RDKit          3D

 20 19  0  0  1  0  0  0  0  0999 V2000
    9.3971  -16.7131   16.3926 N   0  0  0  0  0  0  0  0  0  0  0  0
    8.4086  -17.0075   17.3869 C   0  0  1  0  0  0  0  0  0  0  0  0
    8.1259  -18.4909   17.4526 C   0  0  0  0  0  0  0  0  0  0  0  0
    7.0298  -18.7587   18.8807 S   0  0  0  0  0  0  0  0  0  0  0  0
    8.8369  -16.4458   18.6792 C   0  0  0  0  0  0  0  0  0  0  0  0
   10.0222  -16.5104   19.0525 O   0  0  0  0  0  0  0  0  0  0  0  0
    7.8773  -15.8253   19.5011 N   0  0  0  0  0  0  0  0  0  0  0  0
    8.3230  -15.2883   20.7845 C   0  0  1  0  0  0  0  0  0  0  0  0
    7.1837  -14.4313   21.2815 C   0  0  0  0  0  0  0  0  0  0  0  0
    7.2876  -13.9804   23.0072 S   0  0  0  0  0  0  0  0  0  0  0  0
    8.6445  -16.4190   21.6927 C   0  0  0  0  0  0  0  0  0  0  0  0
    7.8692  -17.4336   21.7280 O   0  0  0  0  0  0  0  0  0  0  0  0
   11.6775  -18.6225   21.9113 C   0  0  0  0  0  0  0  0  0  0  0  0
   11.4279  -18.0835   23.2976 C   0  0  1  0  0  0  0  0  0  0  0  0
   12.4332  -17.0347   23.6467 C   0  0  0  0  0  0  0  0  0  0  0  0
   10.0001  -17.5866   23.4045 C   0  0  2  0  0  0  0  0  0  0  0  0
    9.7688  -16.4590   22.5395 N   0  0  0  0  0  0  0  0  0  0  0  0
    9.8023  -17.1470   24.8259 C   0  0  0  0  0  0  0  0  0  0  0  0
    9.7237  -15.9256   25.1147 O   0  0  0  0  0  0  0  0  0  0  0  0
    9.6973  -18.0451   25.8779 O   0  0  0  0  0  0  0  0  0  0  0  0
  2  1  1  6
  2  5  1  0
  3  2  1  0
  4  3  1  0
  5  6  2  0
  7  5  1  0
  7  8  1  0
  8  9  1  1
 10  9  1  0
 11  8  1  0
 11 12  2  0
 14 13  1  6
 14 15  1  0
 14 16  1  0
 16 18  1  0
 16 17  1  6
 17 11  1  0
 18 20  1  0
 19 18  2  0
M  END
$$$$
