CCV.pdb
     RDKit          3D

 20 19  0  0  1  0  0  0  0  0999 V2000
    7.4503  -13.8130   20.0961 N   0  0  0  0  0  0  0  0  0  0  0  0
    6.9449  -14.5478   21.2174 C   0  0  1  0  0  0  0  0  0  0  0  0
    6.6154  -15.9718   20.8326 C   0  0  0  0  0  0  0  0  0  0  0  0
    4.8490  -16.0072   20.3951 S   0  0  0  0  0  0  0  0  0  0  0  0
    7.9067  -14.4602   22.3292 C   0  0  0  0  0  0  0  0  0  0  0  0
    9.1313  -14.3847   22.1218 O   0  0  0  0  0  0  0  0  0  0  0  0
    7.4196  -14.4628   23.6499 N   0  0  0  0  0  0  0  0  0  0  0  0
    8.3931  -14.3830   24.7362 C   0  0  1  0  0  0  0  0  0  0  0  0
    7.6760  -13.6925   25.8714 C   0  0  0  0  0  0  0  0  0  0  0  0
    8.5829  -13.6501   27.4102 S   0  0  0  0  0  0  0  0  0  0  0  0
    8.8448  -15.7562   25.0782 C   0  0  0  0  0  0  0  0  0  0  0  0
    7.9868  -16.7004   25.1397 O   0  0  0  0  0  0  0  0  0  0  0  0
   12.2873  -19.2174   25.4173 C   0  0  0  0  0  0  0  0  0  0  0  0
   11.9050  -17.8091   25.0360 C   0  0  1  0  0  0  0  0  0  0  0  0
   11.9609  -17.6283   23.5539 C   0  0  0  0  0  0  0  0  0  0  0  0
   10.5467  -17.4719   25.6176 C   0  0  2  0  0  0  0  0  0  0  0  0
   10.1822  -16.1056   25.3463 N   0  0  0  0  0  0  0  0  0  0  0  0
   10.6580  -17.6507   27.1037 C   0  0  0  0  0  0  0  0  0  0  0  0
   10.6654  -18.8005   27.6127 O   0  0  0  0  0  0  0  0  0  0  0  0
   10.7569  -16.5796   27.9797 O   0  0  0  0  0  0  0  0  0  0  0  0
  2  1  1  6
  2  5  1  0
  3  2  1  0
  4  3  1  0
  5  6  2  0
  7  5  1  0
  7  8  1  0
  8  9  1  1
 10  9  1  0
 11  8  1  0
 11 12  2  0
 14 13  1  6
 14 15  1  0
 14 16  1  0
 16 18  1  0
 16 17  1  1
 17 11  1  0
 18 20  1  0
 19 18  2  0
M  END
$$$$
