CCV.pdb
     RDKit          3D

 20 19  0  0  1  0  0  0  0  0999 V2000
    7.4664  -17.4263   18.5609 N   0  0  0  0  0  0  0  0  0  0  0  0
    8.2413  -16.9090   19.6493 C   0  0  1  0  0  0  0  0  0  0  0  0
    9.0713  -15.7236   19.2129 C   0  0  0  0  0  0  0  0  0  0  0  0
    7.9467  -14.5748   18.3595 S   0  0  0  0  0  0  0  0  0  0  0  0
    7.3477  -16.6010   20.7786 C   0  0  0  0  0  0  0  0  0  0  0  0
    6.1413  -16.9047   20.7515 O   0  0  0  0  0  0  0  0  0  0  0  0
    7.8799  -15.9493   21.9072 N   0  0  0  0  0  0  0  0  0  0  0  0
    7.1306  -16.0307   23.1585 C   0  0  1  0  0  0  0  0  0  0  0  0
    7.0837  -17.4991   23.5067 C   0  0  0  0  0  0  0  0  0  0  0  0
    6.4923  -17.8562   25.1543 S   0  0  0  0  0  0  0  0  0  0  0  0
    7.8194  -15.2073   24.1853 C   0  0  0  0  0  0  0  0  0  0  0  0
    9.0885  -15.2888   24.3050 O   0  0  0  0  0  0  0  0  0  0  0  0
    6.7787  -11.4055   25.4926 C   0  0  0  0  0  0  0  0  0  0  0  0
    7.0721  -12.4098   26.5790 C   0  0  1  0  0  0  0  0  0  0  0  0
    5.8070  -12.8837   27.2174 C   0  0  0  0  0  0  0  0  0  0  0  0
    7.9064  -13.5434   26.0169 C   0  0  2  0  0  0  0  0  0  0  0  0
    7.1626  -14.3199   25.0593 N   0  0  0  0  0  0  0  0  0  0  0  0
    8.2656  -14.4288   27.1743 C   0  0  0  0  0  0  0  0  0  0  0  0
    7.6949  -15.5377   27.3352 O   0  0  0  0  0  0  0  0  0  0  0  0
    9.2273  -14.0800   28.1113 O   0  0  0  0  0  0  0  0  0  0  0  0
  2  1  1  6
  2  5  1  0
  3  2  1  0
  4  3  1  0
  5  6  2  0
  7  5  1  0
  7  8  1  0
  8  9  1  1
 10  9  1  0
 11  8  1  0
 11 12  2  0
 14 13  1  6
 14 15  1  0
 14 16  1  0
 16 18  1  0
 16 17  1  6
 17 11  1  0
 18 20  1  0
 19 18  2  0
M  END
$$$$
