CCV.pdb
     RDKit          3D

 20 19  0  0  1  0  0  0  0  0999 V2000
    8.2086  -14.8371   19.9963 N   0  0  0  0  0  0  0  0  0  0  0  0
    7.6000  -15.3707   21.1784 C   0  0  1  0  0  0  0  0  0  0  0  0
    7.7781  -16.8697   21.2545 C   0  0  0  0  0  0  0  0  0  0  0  0
    6.6744  -17.4683   22.5721 S   0  0  0  0  0  0  0  0  0  0  0  0
    8.1316  -14.6677   22.3583 C   0  0  0  0  0  0  0  0  0  0  0  0
    9.2890  -14.2111   22.3732 O   0  0  0  0  0  0  0  0  0  0  0  0
    7.3045  -14.5148   23.4871 N   0  0  0  0  0  0  0  0  0  0  0  0
    7.8446  -13.7914   24.6355 C   0  0  1  0  0  0  0  0  0  0  0  0
    6.6508  -13.1676   25.3179 C   0  0  0  0  0  0  0  0  0  0  0  0
    5.6962  -14.2924   26.3258 S   0  0  0  0  0  0  0  0  0  0  0  0
    8.5810  -14.7470   25.5022 C   0  0  0  0  0  0  0  0  0  0  0  0
    8.6913  -15.9661   25.1373 O   0  0  0  0  0  0  0  0  0  0  0  0
    9.8820  -13.9651   29.3977 C   0  0  0  0  0  0  0  0  0  0  0  0
   10.9123  -14.5237   28.4484 C   0  0  1  0  0  0  0  0  0  0  0  0
   11.8723  -15.4113   29.1717 C   0  0  0  0  0  0  0  0  0  0  0  0
   10.2205  -15.2233   27.2956 C   0  0  2  0  0  0  0  0  0  0  0  0
    9.1833  -14.4021   26.7273 N   0  0  0  0  0  0  0  0  0  0  0  0
    9.5923  -16.4643   27.8595 C   0  0  0  0  0  0  0  0  0  0  0  0
    8.3480  -16.5343   28.0270 O   0  0  0  0  0  0  0  0  0  0  0  0
   10.3343  -17.5797   28.2195 O   0  0  0  0  0  0  0  0  0  0  0  0
  2  1  1  6
  2  5  1  0
  3  2  1  0
  4  3  1  0
  5  6  2  0
  7  5  1  0
  7  8  1  0
  8  9  1  1
 10  9  1  0
 11  8  1  0
 11 12  2  0
 14 13  1  1
 14 15  1  0
 14 16  1  0
 16 18  1  0
 16 17  1  1
 17 11  1  0
 18 20  1  0
 19 18  2  0
M  END
$$$$
