CCV.pdb
     RDKit          3D

 20 19  0  0  1  0  0  0  0  0999 V2000
    8.6518  -17.5395   20.9618 N   0  0  0  0  0  0  0  0  0  0  0  0
    9.3939  -16.3215   20.8262 C   0  0  1  0  0  0  0  0  0  0  0  0
    9.1156  -15.6583   19.4969 C   0  0  0  0  0  0  0  0  0  0  0  0
    9.1351  -16.9705   18.2357 S   0  0  0  0  0  0  0  0  0  0  0  0
    9.1074  -15.4474   21.9763 C   0  0  0  0  0  0  0  0  0  0  0  0
    9.6754  -14.3487   22.1122 O   0  0  0  0  0  0  0  0  0  0  0  0
    8.1697  -15.8736   22.9358 N   0  0  0  0  0  0  0  0  0  0  0  0
    7.9492  -15.0197   24.1004 C   0  0  1  0  0  0  0  0  0  0  0  0
    6.5421  -15.3180   24.5595 C   0  0  0  0  0  0  0  0  0  0  0  0
    5.9684  -14.3027   25.9131 S   0  0  0  0  0  0  0  0  0  0  0  0
    8.9779  -15.3311   25.1259 C   0  0  0  0  0  0  0  0  0  0  0  0
    9.6721  -16.3973   25.0127 O   0  0  0  0  0  0  0  0  0  0  0  0
    9.0162  -13.6607   28.9639 C   0  0  0  0  0  0  0  0  0  0  0  0
   10.3634  -13.8882   28.3250 C   0  0  1  0  0  0  0  0  0  0  0  0
   11.3791  -14.2686   29.3527 C   0  0  0  0  0  0  0  0  0  0  0  0
   10.2379  -14.9138   27.2162 C   0  0  2  0  0  0  0  0  0  0  0  0
    9.2537  -14.5186   26.2424 N   0  0  0  0  0  0  0  0  0  0  0  0
    9.7861  -16.1917   27.8607 C   0  0  0  0  0  0  0  0  0  0  0  0
   10.5853  -16.8849   28.5406 O   0  0  0  0  0  0  0  0  0  0  0  0
    8.4889  -16.6692   27.7444 O   0  0  0  0  0  0  0  0  0  0  0  0
  2  1  1  1
  2  5  1  0
  3  2  1  0
  4  3  1  0
  5  6  2  0
  7  5  1  0
  7  8  1  0
  8  9  1  1
 10  9  1  0
 11  8  1  0
 11 12  2  0
 14 13  1  1
 14 15  1  0
 14 16  1  0
 16 18  1  0
 16 17  1  6
 17 11  1  0
 18 20  1  0
 19 18  2  0
M  END
$$$$
