CCV.pdb
     RDKit          3D

 20 19  0  0  1  0  0  0  0  0999 V2000
   10.0886  -16.5990   12.5991 N   0  0  0  0  0  0  0  0  0  0  0  0
   10.1621  -17.4078   13.7794 C   0  0  1  0  0  0  0  0  0  0  0  0
   11.5790  -17.4856   14.2998 C   0  0  0  0  0  0  0  0  0  0  0  0
   12.2793  -19.0539   13.6974 S   0  0  0  0  0  0  0  0  0  0  0  0
    9.2095  -16.8961   14.7791 C   0  0  0  0  0  0  0  0  0  0  0  0
    8.7617  -15.7370   14.7134 O   0  0  0  0  0  0  0  0  0  0  0  0
    8.8037  -17.7444   15.8266 N   0  0  0  0  0  0  0  0  0  0  0  0
    7.8133  -17.2353   16.7721 C   0  0  1  0  0  0  0  0  0  0  0  0
    7.1572  -18.4579   17.3675 C   0  0  0  0  0  0  0  0  0  0  0  0
    6.1476  -18.1363   18.8060 S   0  0  0  0  0  0  0  0  0  0  0  0
    8.5026  -16.3908   17.7813 C   0  0  0  0  0  0  0  0  0  0  0  0
    9.7435  -16.5823   18.0157 O   0  0  0  0  0  0  0  0  0  0  0  0
    6.5548  -13.4907   20.2424 C   0  0  0  0  0  0  0  0  0  0  0  0
    7.9182  -13.2098   19.6619 C   0  0  1  0  0  0  0  0  0  0  0  0
    8.6937  -12.2936   20.5515 C   0  0  0  0  0  0  0  0  0  0  0  0
    8.6390  -14.5155   19.3925 C   0  0  2  0  0  0  0  0  0  0  0  0
    7.8757  -15.3678   18.5183 N   0  0  0  0  0  0  0  0  0  0  0  0
    8.7923  -15.2042   20.7172 C   0  0  0  0  0  0  0  0  0  0  0  0
    8.0451  -16.1658   21.0306 O   0  0  0  0  0  0  0  0  0  0  0  0
    9.7469  -14.8257   21.6498 O   0  0  0  0  0  0  0  0  0  0  0  0
  2  1  1  6
  2  5  1  0
  3  2  1  0
  4  3  1  0
  5  6  2  0
  7  5  1  0
  7  8  1  0
  8  9  1  1
 10  9  1  0
 11  8  1  0
 11 12  2  0
 14 13  1  1
 14 15  1  0
 14 16  1  0
 16 18  1  0
 16 17  1  6
 17 11  1  0
 18 20  1  0
 19 18  2  0
M  END
$$$$
