CCV.pdb
     RDKit          3D

 20 19  0  0  1  0  0  0  0  0999 V2000
    9.6921  -15.3576   20.4158 N   0  0  0  0  0  0  0  0  0  0  0  0
    8.7455  -15.9430   21.3180 C   0  0  1  0  0  0  0  0  0  0  0  0
    8.9053  -17.4448   21.3775 C   0  0  0  0  0  0  0  0  0  0  0  0
    7.7126  -18.0562   22.6089 S   0  0  0  0  0  0  0  0  0  0  0  0
    8.8685  -15.2988   22.6367 C   0  0  0  0  0  0  0  0  0  0  0  0
    9.9622  -14.8729   23.0499 O   0  0  0  0  0  0  0  0  0  0  0  0
    7.7186  -15.1673   23.4379 N   0  0  0  0  0  0  0  0  0  0  0  0
    7.8375  -14.4133   24.6834 C   0  0  1  0  0  0  0  0  0  0  0  0
    6.4209  -14.1096   25.1086 C   0  0  0  0  0  0  0  0  0  0  0  0
    6.2808  -13.2059   26.6435 S   0  0  0  0  0  0  0  0  0  0  0  0
    8.5824  -15.2340   25.6724 C   0  0  0  0  0  0  0  0  0  0  0  0
    8.5844  -16.5060   25.5557 O   0  0  0  0  0  0  0  0  0  0  0  0
   11.5843  -13.6445   28.1959 C   0  0  0  0  0  0  0  0  0  0  0  0
   10.7452  -14.7786   28.7293 C   0  0  1  0  0  0  0  0  0  0  0  0
    9.7228  -14.2722   29.6940 C   0  0  0  0  0  0  0  0  0  0  0  0
   10.1335  -15.5493   27.5765 C   0  0  2  0  0  0  0  0  0  0  0  0
    9.3060  -14.7026   26.7572 N   0  0  0  0  0  0  0  0  0  0  0  0
    9.2715  -16.6182   28.1824 C   0  0  0  0  0  0  0  0  0  0  0  0
    8.0179  -16.5472   28.1134 O   0  0  0  0  0  0  0  0  0  0  0  0
    9.7990  -17.7208   28.8383 O   0  0  0  0  0  0  0  0  0  0  0  0
  2  1  1  6
  2  5  1  0
  3  2  1  0
  4  3  1  0
  5  6  2  0
  7  5  1  0
  7  8  1  0
  8  9  1  1
 10  9  1  0
 11  8  1  0
 11 12  2  0
 14 13  1  6
 14 15  1  0
 14 16  1  0
 16 18  1  0
 16 17  1  6
 17 11  1  0
 18 20  1  0
 19 18  2  0
M  END
$$$$
