WMD.pdb
     RDKit          3D

 31 32  0  0  1  0  0  0  0  0999 V2000
   29.0871  -24.7016  -16.4769 N   0  0  0  0  0  0  0  0  0  0  0  0
   27.6742  -24.6049  -16.7266 C   0  0  1  0  0  0  0  0  0  0  0  0
   26.9798  -25.8492  -16.3154 C   0  0  0  0  0  0  0  0  0  0  0  0
   27.4909  -27.0019  -17.0928 C   0  0  0  0  0  0  0  0  0  0  0  0
   28.2405  -28.0724  -16.5907 C   0  0  0  0  0  0  0  0  0  0  0  0
   28.5044  -28.9504  -17.5727 N   0  0  0  0  0  0  0  0  0  0  0  0
   27.9723  -28.5283  -18.7126 C   0  0  0  0  0  0  0  0  0  0  0  0
   27.9773  -29.0691  -19.9769 C   0  0  0  0  0  0  0  0  0  0  0  0
   27.3459  -28.4173  -21.0201 C   0  0  0  0  0  0  0  0  0  0  0  0
   26.7244  -27.2254  -20.7420 C   0  0  0  0  0  0  0  0  0  0  0  0
   26.7156  -26.6726  -19.4631 C   0  0  0  0  0  0  0  0  0  0  0  0
   27.3358  -27.3128  -18.4318 C   0  0  0  0  0  0  0  0  0  0  0  0
   27.0892  -23.3713  -16.1450 C   0  0  0  0  0  0  0  0  0  0  0  0
   27.5959  -22.8616  -15.1126 O   0  0  0  0  0  0  0  0  0  0  0  0
   25.6918  -18.7883  -20.7751 C   0  0  0  0  0  0  0  0  0  0  0  0
   25.2203  -18.8049  -19.0064 S   0  0  0  0  0  0  0  0  0  0  0  0
   26.1926  -20.0755  -18.2149 C   0  0  0  0  0  0  0  0  0  0  0  0
   25.9934  -20.2106  -16.7356 C   0  0  0  0  0  0  0  0  0  0  0  0
   25.4364  -21.4682  -16.2400 C   0  0  2  0  0  0  0  0  0  0  0  0
   25.9709  -22.7059  -16.6803 N   0  0  0  0  0  0  0  0  0  0  0  0
   23.9656  -21.4928  -16.4713 C   0  0  0  0  0  0  0  0  0  0  0  0
   23.4704  -21.9864  -17.5437 O   0  0  0  0  0  0  0  0  0  0  0  0
   23.0217  -20.9911  -15.5572 N   0  0  0  0  0  0  0  0  0  0  0  0
   21.5727  -20.9426  -15.8339 C   0  0  1  0  0  0  0  0  0  0  0  0
   20.9540  -20.5047  -14.5265 C   0  0  0  0  0  0  0  0  0  0  0  0
   19.5010  -20.6094  -14.4654 C   0  0  0  0  0  0  0  0  0  0  0  0
   18.9599  -20.3529  -13.3387 O   0  0  0  0  0  0  0  0  0  0  0  0
   21.3785  -19.8544  -16.8443 C   0  0  0  0  0  0  0  0  0  0  0  0
   20.5094  -19.9793  -17.7652 O   0  0  0  0  0  0  0  0  0  0  0  0
   18.6546  -20.9517  -15.4786 O   0  0  0  0  0  0  0  0  0  0  0  0
   22.1255  -18.6919  -16.8135 O   0  0  0  0  0  0  0  0  0  0  0  0
  2  1  1  1
  2 13  1  0
  2  3  1  0
  3  4  1  0
  4  5  2  0
  6  5  1  0
  7  6  1  0
  8  7  2  0
  9  8  1  0
 10 11  1  0
 10  9  2  0
 11 12  2  0
 12  4  1  0
 12  7  1  0
 13 14  2  0
 16 15  1  0
 17 16  1  0
 19 18  1  6
 18 17  1  0
 20 19  1  0
 20 13  1  0
 21 22  2  0
 21 19  1  0
 23 21  1  0
 24 28  1  0
 24 23  1  0
 24 25  1  1
 26 30  1  0
 26 25  1  0
 27 26  2  0
 28 31  1  0
 29 28  2  0
M  END
$$$$
