WMD.pdb
     RDKit          3D

 31 32  0  0  1  0  0  0  0  0999 V2000
   27.0807  -21.1377  -15.7818 N   0  0  0  0  0  0  0  0  0  0  0  0
   27.0891  -20.3453  -14.5819 C   0  0  1  0  0  0  0  0  0  0  0  0
   26.4571  -19.0245  -14.8178 C   0  0  0  0  0  0  0  0  0  0  0  0
   27.0978  -18.3485  -15.9697 C   0  0  0  0  0  0  0  0  0  0  0  0
   26.4418  -17.8060  -17.0812 C   0  0  0  0  0  0  0  0  0  0  0  0
   27.3341  -17.2441  -17.9135 N   0  0  0  0  0  0  0  0  0  0  0  0
   28.5593  -17.3794  -17.4223 C   0  0  0  0  0  0  0  0  0  0  0  0
   29.7843  -16.9824  -17.9046 C   0  0  0  0  0  0  0  0  0  0  0  0
   30.9389  -17.2565  -17.1950 C   0  0  0  0  0  0  0  0  0  0  0  0
   30.8098  -17.9320  -16.0070 C   0  0  0  0  0  0  0  0  0  0  0  0
   29.5714  -18.3365  -15.5129 C   0  0  0  0  0  0  0  0  0  0  0  0
   28.4308  -18.0669  -16.2090 C   0  0  0  0  0  0  0  0  0  0  0  0
   26.5246  -21.0822  -13.4240 C   0  0  0  0  0  0  0  0  0  0  0  0
   25.6729  -21.9889  -13.6108 O   0  0  0  0  0  0  0  0  0  0  0  0
   26.9664  -18.7695   -6.9313 C   0  0  0  0  0  0  0  0  0  0  0  0
   26.3354  -20.4859   -6.8532 S   0  0  0  0  0  0  0  0  0  0  0  0
   25.6393  -20.8636   -8.4529 C   0  0  0  0  0  0  0  0  0  0  0  0
   26.5448  -20.6213   -9.6223 C   0  0  0  0  0  0  0  0  0  0  0  0
   26.0496  -20.9864  -10.9486 C   0  0  2  0  0  0  0  0  0  0  0  0
   26.8827  -20.8337  -12.0862 N   0  0  0  0  0  0  0  0  0  0  0  0
   24.7667  -20.2804  -11.2186 C   0  0  0  0  0  0  0  0  0  0  0  0
   24.7495  -19.0646  -11.6193 O   0  0  0  0  0  0  0  0  0  0  0  0
   23.5004  -20.8721  -11.0618 N   0  0  0  0  0  0  0  0  0  0  0  0
   22.2403  -20.1991  -11.4329 C   0  0  1  0  0  0  0  0  0  0  0  0
   21.9057  -20.7524  -12.7988 C   0  0  0  0  0  0  0  0  0  0  0  0
   20.5768  -20.4134  -13.2937 C   0  0  0  0  0  0  0  0  0  0  0  0
   19.9222  -19.5511  -12.6186 O   0  0  0  0  0  0  0  0  0  0  0  0
   21.2103  -20.6773  -10.4566 C   0  0  0  0  0  0  0  0  0  0  0  0
   21.3759  -21.7734   -9.8319 O   0  0  0  0  0  0  0  0  0  0  0  0
   19.9543  -20.9156  -14.3985 O   0  0  0  0  0  0  0  0  0  0  0  0
   20.0592  -19.9558  -10.2026 O   0  0  0  0  0  0  0  0  0  0  0  0
  2  1  1  6
  2 13  1  0
  2  3  1  0
  3  4  1  0
  4  5  2  0
  6  5  1  0
  7  6  1  0
  8  7  2  0
  9  8  1  0
 10 11  1  0
 10  9  2  0
 11 12  2  0
 12  4  1  0
 12  7  1  0
 13 14  2  0
 16 15  1  0
 17 16  1  0
 19 18  1  1
 18 17  1  0
 20 19  1  0
 20 13  1  0
 21 22  2  0
 21 19  1  0
 23 21  1  0
 24 28  1  0
 24 23  1  0
 24 25  1  6
 26 30  1  0
 26 25  1  0
 27 26  2  0
 28 31  1  0
 29 28  2  0
M  END
$$$$
