WMD.pdb
     RDKit          3D

 31 32  0  0  1  0  0  0  0  0999 V2000
   29.1763  -20.8279  -15.7468 N   0  0  0  0  0  0  0  0  0  0  0  0
   27.8767  -20.3213  -15.3969 C   0  0  1  0  0  0  0  0  0  0  0  0
   27.1438  -19.8705  -16.6048 C   0  0  0  0  0  0  0  0  0  0  0  0
   27.5898  -18.5137  -16.9980 C   0  0  0  0  0  0  0  0  0  0  0  0
   28.4206  -18.1958  -18.0789 C   0  0  0  0  0  0  0  0  0  0  0  0
   28.5898  -16.8652  -18.1538 N   0  0  0  0  0  0  0  0  0  0  0  0
   27.9168  -16.2674  -17.1791 C   0  0  0  0  0  0  0  0  0  0  0  0
   27.7872  -14.9410  -16.8403 C   0  0  0  0  0  0  0  0  0  0  0  0
   27.0210  -14.5677  -15.7516 C   0  0  0  0  0  0  0  0  0  0  0  0
   26.4059  -15.5640  -15.0353 C   0  0  0  0  0  0  0  0  0  0  0  0
   26.5330  -16.9096  -15.3737 C   0  0  0  0  0  0  0  0  0  0  0  0
   27.2865  -17.2815  -16.4471 C   0  0  0  0  0  0  0  0  0  0  0  0
   27.1149  -21.2767  -14.5548 C   0  0  0  0  0  0  0  0  0  0  0  0
   27.7049  -22.2480  -14.0154 O   0  0  0  0  0  0  0  0  0  0  0  0
   25.5321  -20.7852   -8.6635 C   0  0  0  0  0  0  0  0  0  0  0  0
   27.1121  -21.2092   -9.4847 S   0  0  0  0  0  0  0  0  0  0  0  0
   26.7222  -21.6877  -11.1597 C   0  0  0  0  0  0  0  0  0  0  0  0
   25.6548  -20.8761  -11.8291 C   0  0  0  0  0  0  0  0  0  0  0  0
   25.0817  -21.4015  -13.0671 C   0  0  2  0  0  0  0  0  0  0  0  0
   25.7338  -21.1742  -14.3060 N   0  0  0  0  0  0  0  0  0  0  0  0
   23.6694  -20.9485  -13.1998 C   0  0  0  0  0  0  0  0  0  0  0  0
   23.3758  -19.7050  -13.2800 O   0  0  0  0  0  0  0  0  0  0  0  0
   22.5689  -21.8231  -13.2476 N   0  0  0  0  0  0  0  0  0  0  0  0
   21.1804  -21.3671  -13.4538 C   0  0  1  0  0  0  0  0  0  0  0  0
   20.3825  -22.6423  -13.5983 C   0  0  0  0  0  0  0  0  0  0  0  0
   19.2690  -22.5710  -14.5369 C   0  0  0  0  0  0  0  0  0  0  0  0
   19.1054  -21.4589  -15.1406 O   0  0  0  0  0  0  0  0  0  0  0  0
   20.7726  -20.6881  -12.1827 C   0  0  0  0  0  0  0  0  0  0  0  0
   21.2729  -21.0508  -11.0704 O   0  0  0  0  0  0  0  0  0  0  0  0
   18.3816  -23.5608  -14.8418 O   0  0  0  0  0  0  0  0  0  0  0  0
   19.8514  -19.6578  -12.1721 O   0  0  0  0  0  0  0  0  0  0  0  0
  2  1  1  6
  2 13  1  0
  2  3  1  0
  3  4  1  0
  4  5  2  0
  6  5  1  0
  7  6  1  0
  8  7  2  0
  9  8  1  0
 10 11  1  0
 10  9  2  0
 11 12  2  0
 12  4  1  0
 12  7  1  0
 13 14  2  0
 16 15  1  0
 17 16  1  0
 19 18  1  1
 18 17  1  0
 20 19  1  0
 20 13  1  0
 21 22  2  0
 21 19  1  0
 23 21  1  0
 24 28  1  0
 24 23  1  0
 24 25  1  1
 26 30  1  0
 26 25  1  0
 27 26  2  0
 28 31  1  0
 29 28  2  0
M  END
$$$$
