WMD.pdb
     RDKit          3D

 31 32  0  0  1  0  0  0  0  0999 V2000
   14.9288  -14.9827    5.4365 N   0  0  0  0  0  0  0  0  0  0  0  0
   16.0884  -15.8294    5.3570 C   0  0  1  0  0  0  0  0  0  0  0  0
   17.2115  -15.2603    6.1408 C   0  0  0  0  0  0  0  0  0  0  0  0
   17.9172  -14.2267    5.3483 C   0  0  0  0  0  0  0  0  0  0  0  0
   17.9597  -12.8554    5.6267 C   0  0  0  0  0  0  0  0  0  0  0  0
   18.7174  -12.2237    4.7148 N   0  0  0  0  0  0  0  0  0  0  0  0
   19.1887  -13.0971    3.8342 C   0  0  0  0  0  0  0  0  0  0  0  0
   19.9918  -12.9358    2.7297 C   0  0  0  0  0  0  0  0  0  0  0  0
   20.3414  -14.0248    1.9527 C   0  0  0  0  0  0  0  0  0  0  0  0
   19.8584  -15.2540    2.3267 C   0  0  0  0  0  0  0  0  0  0  0  0
   19.0447  -15.4239    3.4448 C   0  0  0  0  0  0  0  0  0  0  0  0
   18.6990  -14.3530    4.2141 C   0  0  0  0  0  0  0  0  0  0  0  0
   15.7729  -17.2389    5.6975 C   0  0  0  0  0  0  0  0  0  0  0  0
   15.0620  -17.4989    6.7021 O   0  0  0  0  0  0  0  0  0  0  0  0
   14.5668  -24.8338    4.2378 C   0  0  0  0  0  0  0  0  0  0  0  0
   14.9789  -23.2387    3.4403 S   0  0  0  0  0  0  0  0  0  0  0  0
   15.2744  -22.0585    4.7465 C   0  0  0  0  0  0  0  0  0  0  0  0
   15.5473  -20.6552    4.2966 C   0  0  0  0  0  0  0  0  0  0  0  0
   16.0557  -19.7124    5.2916 C   0  0  2  0  0  0  0  0  0  0  0  0
   16.2255  -18.3451    4.9549 N   0  0  0  0  0  0  0  0  0  0  0  0
   17.3429  -20.2135    5.8479 C   0  0  0  0  0  0  0  0  0  0  0  0
   18.4669  -19.8297    5.3701 O   0  0  0  0  0  0  0  0  0  0  0  0
   17.4313  -21.1244    6.9159 N   0  0  0  0  0  0  0  0  0  0  0  0
   18.7132  -21.6216    7.4524 C   0  0  1  0  0  0  0  0  0  0  0  0
   18.4231  -21.9209    8.9050 C   0  0  0  0  0  0  0  0  0  0  0  0
   18.6003  -20.7954    9.8147 C   0  0  0  0  0  0  0  0  0  0  0  0
   19.3025  -19.8214    9.3831 O   0  0  0  0  0  0  0  0  0  0  0  0
   18.9887  -22.9114    6.7430 C   0  0  0  0  0  0  0  0  0  0  0  0
   20.0759  -23.5396    6.9492 O   0  0  0  0  0  0  0  0  0  0  0  0
   18.0994  -20.6671   11.0768 O   0  0  0  0  0  0  0  0  0  0  0  0
   18.0851  -23.4581    5.8514 O   0  0  0  0  0  0  0  0  0  0  0  0
  2  1  1  1
  2 13  1  0
  2  3  1  0
  3  4  1  0
  4  5  2  0
  6  5  1  0
  7  6  1  0
  8  7  2  0
  9  8  1  0
 10 11  1  0
 10  9  2  0
 11 12  2  0
 12  4  1  0
 12  7  1  0
 13 14  2  0
 16 15  1  0
 17 16  1  0
 19 18  1  6
 18 17  1  0
 20 19  1  0
 20 13  1  0
 21 22  2  0
 21 19  1  0
 23 21  1  0
 24 28  1  0
 24 23  1  0
 24 25  1  1
 26 30  1  0
 26 25  1  0
 27 26  2  0
 28 31  1  0
 29 28  2  0
M  END
$$$$
