WMD.pdb
     RDKit          3D

 31 32  0  0  1  0  0  0  0  0999 V2000
   18.8287  -24.1418   -7.2445 N   0  0  0  0  0  0  0  0  0  0  0  0
   17.8662  -25.1210   -6.8172 C   0  0  1  0  0  0  0  0  0  0  0  0
   18.2072  -26.4626   -7.3495 C   0  0  0  0  0  0  0  0  0  0  0  0
   18.0145  -26.4952   -8.8179 C   0  0  0  0  0  0  0  0  0  0  0  0
   18.9681  -26.1584   -9.7860 C   0  0  0  0  0  0  0  0  0  0  0  0
   18.4577  -26.3351  -11.0161 N   0  0  0  0  0  0  0  0  0  0  0  0
   17.2084  -26.7734  -10.9293 C   0  0  0  0  0  0  0  0  0  0  0  0
   16.2832  -27.0888  -11.8965 C   0  0  0  0  0  0  0  0  0  0  0  0
   15.0195  -27.5236  -11.5419 C   0  0  0  0  0  0  0  0  0  0  0  0
   14.7342  -27.6244  -10.2030 C   0  0  0  0  0  0  0  0  0  0  0  0
   15.6675  -27.3068   -9.2184 C   0  0  0  0  0  0  0  0  0  0  0  0
   16.9147  -26.8790   -9.5640 C   0  0  0  0  0  0  0  0  0  0  0  0
   17.6588  -25.0937   -5.3480 C   0  0  0  0  0  0  0  0  0  0  0  0
   18.6475  -25.1509   -4.5724 O   0  0  0  0  0  0  0  0  0  0  0  0
   13.0581  -20.5952   -2.7349 C   0  0  0  0  0  0  0  0  0  0  0  0
   13.0863  -22.3979   -2.4185 S   0  0  0  0  0  0  0  0  0  0  0  0
   14.6660  -23.0065   -2.9845 C   0  0  0  0  0  0  0  0  0  0  0  0
   14.8847  -24.4800   -2.8195 C   0  0  0  0  0  0  0  0  0  0  0  0
   16.1284  -25.0423   -3.3435 C   0  0  2  0  0  0  0  0  0  0  0  0
   16.3948  -25.0058   -4.7361 N   0  0  0  0  0  0  0  0  0  0  0  0
   16.2776  -26.4503   -2.8823 C   0  0  0  0  0  0  0  0  0  0  0  0
   15.9167  -27.4323   -3.6201 O   0  0  0  0  0  0  0  0  0  0  0  0
   16.8133  -26.8113   -1.6330 N   0  0  0  0  0  0  0  0  0  0  0  0
   16.8598  -28.2029   -1.1433 C   0  0  1  0  0  0  0  0  0  0  0  0
   18.0414  -28.2317   -0.2016 C   0  0  0  0  0  0  0  0  0  0  0  0
   18.2634  -29.5057    0.4717 C   0  0  0  0  0  0  0  0  0  0  0  0
   19.1900  -29.5309    1.3485 O   0  0  0  0  0  0  0  0  0  0  0  0
   15.6075  -28.4057   -0.3473 C   0  0  0  0  0  0  0  0  0  0  0  0
   15.0595  -29.5527   -0.2912 O   0  0  0  0  0  0  0  0  0  0  0  0
   17.5911  -30.6749    0.2688 O   0  0  0  0  0  0  0  0  0  0  0  0
   15.0104  -27.3692    0.3452 O   0  0  0  0  0  0  0  0  0  0  0  0
  2  1  1  1
  2 13  1  0
  2  3  1  0
  3  4  1  0
  4  5  2  0
  6  5  1  0
  7  6  1  0
  8  7  2  0
  9  8  1  0
 10 11  1  0
 10  9  2  0
 11 12  2  0
 12  4  1  0
 12  7  1  0
 13 14  2  0
 16 15  1  0
 17 16  1  0
 19 18  1  6
 18 17  1  0
 20 19  1  0
 20 13  1  0
 21 22  2  0
 21 19  1  0
 23 21  1  0
 24 28  1  0
 24 23  1  0
 24 25  1  1
 26 30  1  0
 26 25  1  0
 27 26  2  0
 28 31  1  0
 29 28  2  0
M  END
$$$$
