WMD.pdb
     RDKit          3D

 31 32  0  0  1  0  0  0  0  0999 V2000
   26.6048  -19.3872  -18.3795 N   0  0  0  0  0  0  0  0  0  0  0  0
   25.6951  -18.8301  -17.4152 C   0  0  1  0  0  0  0  0  0  0  0  0
   24.4271  -18.4169  -18.0639 C   0  0  0  0  0  0  0  0  0  0  0  0
   24.6309  -17.1720  -18.8405 C   0  0  0  0  0  0  0  0  0  0  0  0
   24.9362  -17.0872  -20.2041 C   0  0  0  0  0  0  0  0  0  0  0  0
   25.0188  -15.7995  -20.5782 N   0  0  0  0  0  0  0  0  0  0  0  0
   24.7856  -15.0098  -19.5377 C   0  0  0  0  0  0  0  0  0  0  0  0
   24.7651  -13.6400  -19.4188 C   0  0  0  0  0  0  0  0  0  0  0  0
   24.5007  -13.0467  -18.1982 C   0  0  0  0  0  0  0  0  0  0  0  0
   24.2637  -13.8727  -17.1278 C   0  0  0  0  0  0  0  0  0  0  0  0
   24.2827  -15.2612  -17.2420 C   0  0  0  0  0  0  0  0  0  0  0  0
   24.5418  -15.8498  -18.4439 C   0  0  0  0  0  0  0  0  0  0  0  0
   25.5070  -19.7243  -16.2458 C   0  0  0  0  0  0  0  0  0  0  0  0
   25.4558  -20.9705  -16.4093 O   0  0  0  0  0  0  0  0  0  0  0  0
   25.2206  -21.4141   -8.5390 C   0  0  0  0  0  0  0  0  0  0  0  0
   25.8564  -20.2014   -9.7537 S   0  0  0  0  0  0  0  0  0  0  0  0
   25.1042  -20.5878  -11.3257 C   0  0  0  0  0  0  0  0  0  0  0  0
   25.5195  -19.7139  -12.4702 C   0  0  0  0  0  0  0  0  0  0  0  0
   24.9971  -20.0413  -13.7959 C   0  0  2  0  0  0  0  0  0  0  0  0
   25.3767  -19.2666  -14.9217 N   0  0  0  0  0  0  0  0  0  0  0  0
   23.5096  -20.0926  -13.7520 C   0  0  0  0  0  0  0  0  0  0  0  0
   22.8036  -19.0387  -13.9247 O   0  0  0  0  0  0  0  0  0  0  0  0
   22.7741  -21.2696  -13.5243 N   0  0  0  0  0  0  0  0  0  0  0  0
   21.3002  -21.3266  -13.5768 C   0  0  1  0  0  0  0  0  0  0  0  0
   20.9904  -22.7683  -13.9074 C   0  0  0  0  0  0  0  0  0  0  0  0
   19.5795  -23.0613  -14.1298 C   0  0  0  0  0  0  0  0  0  0  0  0
   18.7708  -22.0812  -14.0144 O   0  0  0  0  0  0  0  0  0  0  0  0
   20.8232  -21.0406  -12.1863 C   0  0  0  0  0  0  0  0  0  0  0  0
   19.5965  -20.7828  -11.9672 O   0  0  0  0  0  0  0  0  0  0  0  0
   19.0268  -24.2671  -14.4473 O   0  0  0  0  0  0  0  0  0  0  0  0
   21.6856  -21.0462  -11.1063 O   0  0  0  0  0  0  0  0  0  0  0  0
  2  1  1  6
  2 13  1  0
  2  3  1  0
  3  4  1  0
  4  5  2  0
  6  5  1  0
  7  6  1  0
  8  7  2  0
  9  8  1  0
 10 11  1  0
 10  9  2  0
 11 12  2  0
 12  4  1  0
 12  7  1  0
 13 14  2  0
 16 15  1  0
 17 16  1  0
 19 18  1  1
 18 17  1  0
 20 19  1  0
 20 13  1  0
 21 22  2  0
 21 19  1  0
 23 21  1  0
 24 28  1  0
 24 23  1  0
 24 25  1  1
 26 30  1  0
 26 25  1  0
 27 26  2  0
 28 31  1  0
 29 28  2  0
M  END
$$$$
