WMD.pdb
     RDKit          3D

 31 32  0  0  1  0  0  0  0  0999 V2000
   26.8052  -22.3676  -13.5730 N   0  0  0  0  0  0  0  0  0  0  0  0
   25.7092  -21.5439  -13.1389 C   0  0  1  0  0  0  0  0  0  0  0  0
   26.1804  -20.1829  -12.7854 C   0  0  0  0  0  0  0  0  0  0  0  0
   27.1104  -20.2457  -11.6341 C   0  0  0  0  0  0  0  0  0  0  0  0
   28.5089  -20.2473  -11.6983 C   0  0  0  0  0  0  0  0  0  0  0  0
   29.0267  -20.2812  -10.4591 N   0  0  0  0  0  0  0  0  0  0  0  0
   28.0504  -20.3031   -9.5608 C   0  0  0  0  0  0  0  0  0  0  0  0
   28.0761  -20.3466   -8.1866 C   0  0  0  0  0  0  0  0  0  0  0  0
   26.8973  -20.3719   -7.4644 C   0  0  0  0  0  0  0  0  0  0  0  0
   25.7194  -20.3526   -8.1689 C   0  0  0  0  0  0  0  0  0  0  0  0
   25.6868  -20.3081   -9.5611 C   0  0  0  0  0  0  0  0  0  0  0  0
   26.8468  -20.2817  -10.2766 C   0  0  0  0  0  0  0  0  0  0  0  0
   24.5853  -21.5567  -14.1079 C   0  0  0  0  0  0  0  0  0  0  0  0
   24.7949  -21.2820  -15.3174 O   0  0  0  0  0  0  0  0  0  0  0  0
   21.9905  -23.9321  -18.2525 C   0  0  0  0  0  0  0  0  0  0  0  0
   23.2226  -24.8337  -17.2427 S   0  0  0  0  0  0  0  0  0  0  0  0
   23.1261  -24.1773  -15.5856 C   0  0  0  0  0  0  0  0  0  0  0  0
   21.9331  -23.3152  -15.3032 C   0  0  0  0  0  0  0  0  0  0  0  0
   22.1685  -22.0240  -14.6591 C   0  0  2  0  0  0  0  0  0  0  0  0
   23.2561  -21.8636  -13.7629 N   0  0  0  0  0  0  0  0  0  0  0  0
   20.9298  -21.5742  -13.9659 C   0  0  0  0  0  0  0  0  0  0  0  0
   20.7346  -21.8251  -12.7258 O   0  0  0  0  0  0  0  0  0  0  0  0
   19.8983  -20.8551  -14.5961 N   0  0  0  0  0  0  0  0  0  0  0  0
   18.7434  -20.2914  -13.8702 C   0  0  1  0  0  0  0  0  0  0  0  0
   18.2026  -19.2241  -14.7933 C   0  0  0  0  0  0  0  0  0  0  0  0
   18.9631  -17.9802  -14.8114 C   0  0  0  0  0  0  0  0  0  0  0  0
   19.3141  -17.5125  -13.6774 O   0  0  0  0  0  0  0  0  0  0  0  0
   17.7357  -21.3948  -13.7710 C   0  0  0  0  0  0  0  0  0  0  0  0
   17.7803  -22.3810  -14.5739 O   0  0  0  0  0  0  0  0  0  0  0  0
   19.3414  -17.2597  -15.9059 O   0  0  0  0  0  0  0  0  0  0  0  0
   16.7352  -21.3820  -12.8176 O   0  0  0  0  0  0  0  0  0  0  0  0
  2  1  1  6
  2 13  1  0
  2  3  1  0
  3  4  1  0
  4  5  2  0
  6  5  1  0
  7  6  1  0
  8  7  2  0
  9  8  1  0
 10 11  1  0
 10  9  2  0
 11 12  2  0
 12  4  1  0
 12  7  1  0
 13 14  2  0
 16 15  1  0
 17 16  1  0
 19 18  1  1
 18 17  1  0
 20 19  1  0
 20 13  1  0
 21 22  2  0
 21 19  1  0
 23 21  1  0
 24 28  1  0
 24 23  1  0
 24 25  1  6
 26 30  1  0
 26 25  1  0
 27 26  2  0
 28 31  1  0
 29 28  2  0
M  END
$$$$
