WMD.pdb
     RDKit          3D

 31 32  0  0  1  0  0  0  0  0999 V2000
   28.6377  -21.3222  -16.3867 N   0  0  0  0  0  0  0  0  0  0  0  0
   27.8132  -20.3639  -15.7014 C   0  0  1  0  0  0  0  0  0  0  0  0
   26.9870  -19.5955  -16.6639 C   0  0  0  0  0  0  0  0  0  0  0  0
   27.6802  -18.3444  -17.0495 C   0  0  0  0  0  0  0  0  0  0  0  0
   28.4414  -18.1424  -18.2069 C   0  0  0  0  0  0  0  0  0  0  0  0
   28.8945  -16.8783  -18.2452 N   0  0  0  0  0  0  0  0  0  0  0  0
   28.4792  -16.2157  -17.1733 C   0  0  0  0  0  0  0  0  0  0  0  0
   28.6856  -14.9186  -16.7660 C   0  0  0  0  0  0  0  0  0  0  0  0
   28.1421  -14.4620  -15.5794 C   0  0  0  0  0  0  0  0  0  0  0  0
   27.3997  -15.3470  -14.8380 C   0  0  0  0  0  0  0  0  0  0  0  0
   27.1866  -16.6623  -15.2455 C   0  0  0  0  0  0  0  0  0  0  0  0
   27.7198  -17.1157  -16.4152 C   0  0  0  0  0  0  0  0  0  0  0  0
   27.0323  -20.9856  -14.6032 C   0  0  0  0  0  0  0  0  0  0  0  0
   26.7291  -22.2050  -14.6598 O   0  0  0  0  0  0  0  0  0  0  0  0
   24.5202  -21.3984   -7.1492 C   0  0  0  0  0  0  0  0  0  0  0  0
   25.7734  -20.6683   -8.2659 S   0  0  0  0  0  0  0  0  0  0  0  0
   25.2605  -21.0266   -9.9377 C   0  0  0  0  0  0  0  0  0  0  0  0
   26.1676  -20.5111  -11.0137 C   0  0  0  0  0  0  0  0  0  0  0  0
   25.8168  -20.8187  -12.3993 C   0  0  2  0  0  0  0  0  0  0  0  0
   26.5900  -20.2887  -13.4636 N   0  0  0  0  0  0  0  0  0  0  0  0
   24.3907  -20.4688  -12.6468 C   0  0  0  0  0  0  0  0  0  0  0  0
   24.0346  -19.2621  -12.8833 O   0  0  0  0  0  0  0  0  0  0  0  0
   23.3432  -21.4074  -12.6429 N   0  0  0  0  0  0  0  0  0  0  0  0
   21.9535  -21.0716  -13.0094 C   0  0  1  0  0  0  0  0  0  0  0  0
   21.4412  -22.3059  -13.7150 C   0  0  0  0  0  0  0  0  0  0  0  0
   20.0528  -22.2343  -14.1546 C   0  0  0  0  0  0  0  0  0  0  0  0
   19.4536  -21.1240  -13.9649 O   0  0  0  0  0  0  0  0  0  0  0  0
   21.2097  -20.9138  -11.7191 C   0  0  0  0  0  0  0  0  0  0  0  0
   21.6496  -21.4513  -10.6530 O   0  0  0  0  0  0  0  0  0  0  0  0
   19.3221  -23.2225  -14.7459 O   0  0  0  0  0  0  0  0  0  0  0  0
   20.0354  -20.1890  -11.6409 O   0  0  0  0  0  0  0  0  0  0  0  0
  2  1  1  6
  2 13  1  0
  2  3  1  0
  3  4  1  0
  4  5  2  0
  6  5  1  0
  7  6  1  0
  8  7  2  0
  9  8  1  0
 10 11  1  0
 10  9  2  0
 11 12  2  0
 12  4  1  0
 12  7  1  0
 13 14  2  0
 16 15  1  0
 17 16  1  0
 19 18  1  1
 18 17  1  0
 20 19  1  0
 20 13  1  0
 21 22  2  0
 21 19  1  0
 23 21  1  0
 24 28  1  0
 24 23  1  0
 24 25  1  6
 26 30  1  0
 26 25  1  0
 27 26  2  0
 28 31  1  0
 29 28  2  0
M  END
$$$$
