WMD.pdb
     RDKit          3D

 31 32  0  0  1  0  0  0  0  0999 V2000
   26.4903  -21.7281   -9.8787 N   0  0  0  0  0  0  0  0  0  0  0  0
   26.2602  -20.3225   -9.6806 C   0  0  1  0  0  0  0  0  0  0  0  0
   27.3726  -19.7089   -8.9154 C   0  0  0  0  0  0  0  0  0  0  0  0
   27.3513  -20.1823   -7.5119 C   0  0  0  0  0  0  0  0  0  0  0  0
   26.4797  -21.1359   -6.9727 C   0  0  0  0  0  0  0  0  0  0  0  0
   26.7676  -21.3422   -5.6768 N   0  0  0  0  0  0  0  0  0  0  0  0
   27.7884  -20.5770   -5.3123 C   0  0  0  0  0  0  0  0  0  0  0  0
   28.4329  -20.4296   -4.1066 C   0  0  0  0  0  0  0  0  0  0  0  0
   29.4850  -19.5416   -3.9786 C   0  0  0  0  0  0  0  0  0  0  0  0
   29.8511  -18.8251   -5.0906 C   0  0  0  0  0  0  0  0  0  0  0  0
   29.2024  -18.9703   -6.3151 C   0  0  0  0  0  0  0  0  0  0  0  0
   28.1656  -19.8456   -6.4455 C   0  0  0  0  0  0  0  0  0  0  0  0
   25.9505  -19.6243  -10.9529 C   0  0  0  0  0  0  0  0  0  0  0  0
   25.4864  -18.4553  -10.9315 O   0  0  0  0  0  0  0  0  0  0  0  0
   29.3112  -19.0269  -16.2347 C   0  0  0  0  0  0  0  0  0  0  0  0
   28.1944  -17.5766  -16.2401 S   0  0  0  0  0  0  0  0  0  0  0  0
   26.8054  -17.9786  -15.1935 C   0  0  0  0  0  0  0  0  0  0  0  0
   26.9512  -19.2309  -14.3833 C   0  0  0  0  0  0  0  0  0  0  0  0
   25.8610  -19.5789  -13.4734 C   0  0  2  0  0  0  0  0  0  0  0  0
   26.1434  -20.1918  -12.2259 N   0  0  0  0  0  0  0  0  0  0  0  0
   24.8610  -20.4218  -14.1853 C   0  0  0  0  0  0  0  0  0  0  0  0
   24.8716  -21.6975  -14.0784 O   0  0  0  0  0  0  0  0  0  0  0  0
   23.8478  -19.9033  -15.0116 N   0  0  0  0  0  0  0  0  0  0  0  0
   22.4957  -20.4885  -15.0995 C   0  0  1  0  0  0  0  0  0  0  0  0
   21.9330  -20.3482  -13.7041 C   0  0  0  0  0  0  0  0  0  0  0  0
   21.2807  -21.5416  -13.1785 C   0  0  0  0  0  0  0  0  0  0  0  0
   21.2222  -22.5480  -13.9606 O   0  0  0  0  0  0  0  0  0  0  0  0
   21.7176  -19.6011  -16.0215 C   0  0  0  0  0  0  0  0  0  0  0  0
   21.9346  -18.3475  -16.0431 O   0  0  0  0  0  0  0  0  0  0  0  0
   20.7252  -21.7026  -11.9433 O   0  0  0  0  0  0  0  0  0  0  0  0
   20.7497  -20.1045  -16.8700 O   0  0  0  0  0  0  0  0  0  0  0  0
  2  1  1  6
  2 13  1  0
  2  3  1  0
  3  4  1  0
  4  5  2  0
  6  5  1  0
  7  6  1  0
  8  7  2  0
  9  8  1  0
 10 11  1  0
 10  9  2  0
 11 12  2  0
 12  4  1  0
 12  7  1  0
 13 14  2  0
 16 15  1  0
 17 16  1  0
 19 18  1  6
 18 17  1  0
 20 19  1  0
 20 13  1  0
 21 22  2  0
 21 19  1  0
 23 21  1  0
 24 28  1  0
 24 23  1  0
 24 25  1  1
 26 30  1  0
 26 25  1  0
 27 26  2  0
 28 31  1  0
 29 28  2  0
M  END
$$$$
