WMD.pdb
     RDKit          3D

 31 32  0  0  1  0  0  0  0  0999 V2000
   19.6883  -12.2831  -15.4666 N   0  0  0  0  0  0  0  0  0  0  0  0
   20.1077  -11.4073  -16.5272 C   0  0  1  0  0  0  0  0  0  0  0  0
   19.0222  -11.2257  -17.5213 C   0  0  0  0  0  0  0  0  0  0  0  0
   19.0385  -12.3327  -18.5055 C   0  0  0  0  0  0  0  0  0  0  0  0
   18.9362  -13.6988  -18.2172 C   0  0  0  0  0  0  0  0  0  0  0  0
   18.9556  -14.4123  -19.3553 N   0  0  0  0  0  0  0  0  0  0  0  0
   19.0663  -13.5991  -20.3978 C   0  0  0  0  0  0  0  0  0  0  0  0
   19.1340  -13.8510  -21.7479 C   0  0  0  0  0  0  0  0  0  0  0  0
   19.2597  -12.8101  -22.6493 C   0  0  0  0  0  0  0  0  0  0  0  0
   19.3135  -11.5348  -22.1444 C   0  0  0  0  0  0  0  0  0  0  0  0
   19.2449  -11.2731  -20.7776 C   0  0  0  0  0  0  0  0  0  0  0  0
   19.1197  -12.2966  -19.8860 C   0  0  0  0  0  0  0  0  0  0  0  0
   20.6661  -10.1335  -16.0095 C   0  0  0  0  0  0  0  0  0  0  0  0
   20.1609   -9.5933  -14.9920 O   0  0  0  0  0  0  0  0  0  0  0  0
   26.0163  -11.0428  -14.6801 C   0  0  0  0  0  0  0  0  0  0  0  0
   24.6058  -10.4023  -15.6552 S   0  0  0  0  0  0  0  0  0  0  0  0
   24.7823   -8.6277  -15.7319 C   0  0  0  0  0  0  0  0  0  0  0  0
   23.7052   -7.9056  -16.4833 C   0  0  0  0  0  0  0  0  0  0  0  0
   22.3178   -8.2329  -16.1586 C   0  0  2  0  0  0  0  0  0  0  0  0
   21.7562   -9.4610  -16.5920 N   0  0  0  0  0  0  0  0  0  0  0  0
   21.4223   -7.1319  -16.6094 C   0  0  0  0  0  0  0  0  0  0  0  0
   20.9897   -7.0788  -17.8132 O   0  0  0  0  0  0  0  0  0  0  0  0
   20.9870   -6.0866  -15.7750 N   0  0  0  0  0  0  0  0  0  0  0  0
   19.9910   -5.0799  -16.1906 C   0  0  1  0  0  0  0  0  0  0  0  0
   19.1931   -4.8000  -14.9381 C   0  0  0  0  0  0  0  0  0  0  0  0
   18.1188   -5.7474  -14.6657 C   0  0  0  0  0  0  0  0  0  0  0  0
   17.4956   -5.5977  -13.5625 O   0  0  0  0  0  0  0  0  0  0  0  0
   20.7671   -3.8503  -16.5493 C   0  0  0  0  0  0  0  0  0  0  0  0
   22.0050   -3.7658  -16.2671 O   0  0  0  0  0  0  0  0  0  0  0  0
   17.7053   -6.7771  -15.4588 O   0  0  0  0  0  0  0  0  0  0  0  0
   20.1754   -2.7784  -17.1904 O   0  0  0  0  0  0  0  0  0  0  0  0
  2  1  1  1
  2 13  1  0
  2  3  1  0
  3  4  1  0
  4  5  2  0
  6  5  1  0
  7  6  1  0
  8  7  2  0
  9  8  1  0
 10 11  1  0
 10  9  2  0
 11 12  2  0
 12  4  1  0
 12  7  1  0
 13 14  2  0
 16 15  1  0
 17 16  1  0
 19 18  1  6
 18 17  1  0
 20 19  1  0
 20 13  1  0
 21 22  2  0
 21 19  1  0
 23 21  1  0
 24 28  1  0
 24 23  1  0
 24 25  1  1
 26 30  1  0
 26 25  1  0
 27 26  2  0
 28 31  1  0
 29 28  2  0
M  END
$$$$
