WMD.pdb
     RDKit          3D

 31 32  0  0  1  0  0  0  0  0999 V2000
   19.7972  -30.0176  -10.7168 N   0  0  0  0  0  0  0  0  0  0  0  0
   21.1951  -29.8177  -10.9887 C   0  0  1  0  0  0  0  0  0  0  0  0
   21.5919  -28.4168  -10.7071 C   0  0  0  0  0  0  0  0  0  0  0  0
   20.5673  -27.4803  -11.2244 C   0  0  0  0  0  0  0  0  0  0  0  0
   19.5136  -26.9192  -10.4931 C   0  0  0  0  0  0  0  0  0  0  0  0
   18.8001  -26.0917  -11.2746 N   0  0  0  0  0  0  0  0  0  0  0  0
   19.3169  -26.0649  -12.4964 C   0  0  0  0  0  0  0  0  0  0  0  0
   18.9410  -25.3849  -13.6310 C   0  0  0  0  0  0  0  0  0  0  0  0
   19.6526  -25.5367  -14.8067 C   0  0  0  0  0  0  0  0  0  0  0  0
   20.7332  -26.3831  -14.7912 C   0  0  0  0  0  0  0  0  0  0  0  0
   21.1192  -27.0744  -13.6448 C   0  0  0  0  0  0  0  0  0  0  0  0
   20.4210  -26.9264  -12.4835 C   0  0  0  0  0  0  0  0  0  0  0  0
   22.0441  -30.8293  -10.3118 C   0  0  0  0  0  0  0  0  0  0  0  0
   21.8890  -31.0607   -9.0851 O   0  0  0  0  0  0  0  0  0  0  0  0
   24.6253  -32.0606   -5.9673 C   0  0  0  0  0  0  0  0  0  0  0  0
   25.2400  -33.5322   -6.8656 S   0  0  0  0  0  0  0  0  0  0  0  0
   25.6437  -33.0061   -8.5229 C   0  0  0  0  0  0  0  0  0  0  0  0
   24.6880  -32.0296   -9.1389 C   0  0  0  0  0  0  0  0  0  0  0  0
   23.9788  -32.4474  -10.3472 C   0  0  2  0  0  0  0  0  0  0  0  0
   23.0448  -31.5748  -10.9618 N   0  0  0  0  0  0  0  0  0  0  0  0
   23.3023  -33.7521  -10.1078 C   0  0  0  0  0  0  0  0  0  0  0  0
   23.9607  -34.7809   -9.7243 O   0  0  0  0  0  0  0  0  0  0  0  0
   21.9215  -33.9596  -10.2769 N   0  0  0  0  0  0  0  0  0  0  0  0
   21.2460  -35.2281   -9.9409 C   0  0  1  0  0  0  0  0  0  0  0  0
   21.3779  -35.3391   -8.4395 C   0  0  0  0  0  0  0  0  0  0  0  0
   21.5917  -36.6909   -7.9367 C   0  0  0  0  0  0  0  0  0  0  0  0
   21.6976  -37.6125   -8.8126 O   0  0  0  0  0  0  0  0  0  0  0  0
   19.8009  -35.0328  -10.2819 C   0  0  0  0  0  0  0  0  0  0  0  0
   18.9868  -34.5956   -9.4071 O   0  0  0  0  0  0  0  0  0  0  0  0
   21.6910  -37.0809   -6.6336 O   0  0  0  0  0  0  0  0  0  0  0  0
   19.3063  -35.3163  -11.5410 O   0  0  0  0  0  0  0  0  0  0  0  0
  2  1  1  1
  2 13  1  0
  2  3  1  0
  3  4  1  0
  4  5  2  0
  6  5  1  0
  7  6  1  0
  8  7  2  0
  9  8  1  0
 10 11  1  0
 10  9  2  0
 11 12  2  0
 12  4  1  0
 12  7  1  0
 13 14  2  0
 16 15  1  0
 17 16  1  0
 19 18  1  1
 18 17  1  0
 20 19  1  0
 20 13  1  0
 21 22  2  0
 21 19  1  0
 23 21  1  0
 24 28  1  0
 24 23  1  0
 24 25  1  1
 26 30  1  0
 26 25  1  0
 27 26  2  0
 28 31  1  0
 29 28  2  0
M  END
$$$$
