WMD.pdb
     RDKit          3D

 31 32  0  0  1  0  0  0  0  0999 V2000
   15.8878  -11.7334  -10.1074 N   0  0  0  0  0  0  0  0  0  0  0  0
   15.5459  -10.5108  -10.7830 C   0  0  1  0  0  0  0  0  0  0  0  0
   14.1476  -10.1169  -10.4847 C   0  0  0  0  0  0  0  0  0  0  0  0
   13.2184  -11.2122  -10.8469 C   0  0  0  0  0  0  0  0  0  0  0  0
   13.4138  -12.1651  -11.8537 C   0  0  0  0  0  0  0  0  0  0  0  0
   12.3818  -13.0248  -11.8806 N   0  0  0  0  0  0  0  0  0  0  0  0
   11.4989  -12.7018  -10.9444 C   0  0  0  0  0  0  0  0  0  0  0  0
   10.2962  -13.2671  -10.5909 C   0  0  0  0  0  0  0  0  0  0  0  0
    9.5427  -12.7268   -9.5653 C   0  0  0  0  0  0  0  0  0  0  0  0
   10.0404  -11.6186   -8.9262 C   0  0  0  0  0  0  0  0  0  0  0  0
   11.2584  -11.0415   -9.2794 C   0  0  0  0  0  0  0  0  0  0  0  0
   12.0047  -11.5720  -10.2892 C   0  0  0  0  0  0  0  0  0  0  0  0
   16.5388   -9.4376  -10.5284 C   0  0  0  0  0  0  0  0  0  0  0  0
   17.0246   -9.2910   -9.3774 O   0  0  0  0  0  0  0  0  0  0  0  0
   22.2087   -4.4099  -12.5039 C   0  0  0  0  0  0  0  0  0  0  0  0
   21.0243   -5.6026  -13.2287 S   0  0  0  0  0  0  0  0  0  0  0  0
   19.8254   -5.9878  -11.9636 C   0  0  0  0  0  0  0  0  0  0  0  0
   18.8840   -7.1077  -12.2886 C   0  0  0  0  0  0  0  0  0  0  0  0
   17.8484   -7.4275  -11.3074 C   0  0  2  0  0  0  0  0  0  0  0  0
   16.9931   -8.5402  -11.5123 N   0  0  0  0  0  0  0  0  0  0  0  0
   16.9969   -6.2299  -11.0661 C   0  0  0  0  0  0  0  0  0  0  0  0
   16.1108   -5.8635  -11.9143 O   0  0  0  0  0  0  0  0  0  0  0  0
   17.0902   -5.4226   -9.9181 N   0  0  0  0  0  0  0  0  0  0  0  0
   16.2288   -4.2476   -9.6822 C   0  0  1  0  0  0  0  0  0  0  0  0
   15.8699   -4.3317   -8.2166 C   0  0  0  0  0  0  0  0  0  0  0  0
   15.1166   -3.1956   -7.6992 C   0  0  0  0  0  0  0  0  0  0  0  0
   14.7390   -2.3275   -8.5547 O   0  0  0  0  0  0  0  0  0  0  0  0
   17.0970   -3.0460   -9.8948 C   0  0  0  0  0  0  0  0  0  0  0  0
   16.5989   -1.8760   -9.8485 O   0  0  0  0  0  0  0  0  0  0  0  0
   14.7704   -2.9564   -6.4019 O   0  0  0  0  0  0  0  0  0  0  0  0
   18.4512   -3.1628  -10.1454 O   0  0  0  0  0  0  0  0  0  0  0  0
  2  1  1  1
  2 13  1  0
  2  3  1  0
  3  4  1  0
  4  5  2  0
  6  5  1  0
  7  6  1  0
  8  7  2  0
  9  8  1  0
 10 11  1  0
 10  9  2  0
 11 12  2  0
 12  4  1  0
 12  7  1  0
 13 14  2  0
 16 15  1  0
 17 16  1  0
 19 18  1  6
 18 17  1  0
 20 19  1  0
 20 13  1  0
 21 22  2  0
 21 19  1  0
 23 21  1  0
 24 28  1  0
 24 23  1  0
 24 25  1  1
 26 30  1  0
 26 25  1  0
 27 26  2  0
 28 31  1  0
 29 28  2  0
M  END
$$$$
