WMD.pdb
     RDKit          3D

 31 32  0  0  1  0  0  0  0  0999 V2000
   28.4146  -21.1937  -15.7808 N   0  0  0  0  0  0  0  0  0  0  0  0
   27.4637  -20.4413  -15.0079 C   0  0  1  0  0  0  0  0  0  0  0  0
   26.4983  -19.7450  -15.8925 C   0  0  0  0  0  0  0  0  0  0  0  0
   27.1565  -18.6053  -16.5725 C   0  0  0  0  0  0  0  0  0  0  0  0
   27.6936  -18.6103  -17.8653 C   0  0  0  0  0  0  0  0  0  0  0  0
   28.1822  -17.3955  -18.1656 N   0  0  0  0  0  0  0  0  0  0  0  0
   28.0035  -16.5699  -17.1425 C   0  0  0  0  0  0  0  0  0  0  0  0
   28.3354  -15.2467  -16.9694 C   0  0  0  0  0  0  0  0  0  0  0  0
   28.0441  -14.6009  -15.7819 C   0  0  0  0  0  0  0  0  0  0  0  0
   27.4195  -15.3280  -14.7994 C   0  0  0  0  0  0  0  0  0  0  0  0
   27.0804  -16.6687  -14.9688 C   0  0  0  0  0  0  0  0  0  0  0  0
   27.3647  -17.3084  -16.1385 C   0  0  0  0  0  0  0  0  0  0  0  0
   26.8237  -21.2680  -13.9547 C   0  0  0  0  0  0  0  0  0  0  0  0
   26.5241  -22.4665  -14.1918 O   0  0  0  0  0  0  0  0  0  0  0  0
   27.4208  -18.6913   -7.3895 C   0  0  0  0  0  0  0  0  0  0  0  0
   26.8741  -20.3425   -7.9598 S   0  0  0  0  0  0  0  0  0  0  0  0
   26.4063  -20.1784   -9.6746 C   0  0  0  0  0  0  0  0  0  0  0  0
   25.9107  -21.4321  -10.3294 C   0  0  0  0  0  0  0  0  0  0  0  0
   25.5930  -21.3707  -11.7552 C   0  0  2  0  0  0  0  0  0  0  0  0
   26.5157  -20.7951  -12.6657 N   0  0  0  0  0  0  0  0  0  0  0  0
   24.2764  -20.7027  -11.9490 C   0  0  0  0  0  0  0  0  0  0  0  0
   24.1166  -19.4606  -11.6834 O   0  0  0  0  0  0  0  0  0  0  0  0
   23.1288  -21.3603  -12.4275 N   0  0  0  0  0  0  0  0  0  0  0  0
   21.8253  -20.6905  -12.6025 C   0  0  1  0  0  0  0  0  0  0  0  0
   21.6881  -20.5179  -14.0976 C   0  0  0  0  0  0  0  0  0  0  0  0
   21.9452  -21.7186  -14.8839 C   0  0  0  0  0  0  0  0  0  0  0  0
   22.1930  -22.7847  -14.2282 O   0  0  0  0  0  0  0  0  0  0  0  0
   20.7901  -21.6669  -12.1358 C   0  0  0  0  0  0  0  0  0  0  0  0
   21.1255  -22.8454  -11.7928 O   0  0  0  0  0  0  0  0  0  0  0  0
   21.9507  -21.8297  -16.2432 O   0  0  0  0  0  0  0  0  0  0  0  0
   19.4522  -21.3281  -12.0619 O   0  0  0  0  0  0  0  0  0  0  0  0
  2  1  1  6
  2 13  1  0
  2  3  1  0
  3  4  1  0
  4  5  2  0
  6  5  1  0
  7  6  1  0
  8  7  2  0
  9  8  1  0
 10 11  1  0
 10  9  2  0
 11 12  2  0
 12  4  1  0
 12  7  1  0
 13 14  2  0
 16 15  1  0
 17 16  1  0
 19 18  1  1
 18 17  1  0
 20 19  1  0
 20 13  1  0
 21 22  2  0
 21 19  1  0
 23 21  1  0
 24 28  1  0
 24 23  1  0
 24 25  1  6
 26 30  1  0
 26 25  1  0
 27 26  2  0
 28 31  1  0
 29 28  2  0
M  END
$$$$
