WMD.pdb
     RDKit          3D

 31 32  0  0  1  0  0  0  0  0999 V2000
   27.2880  -21.1004  -15.3311 N   0  0  0  0  0  0  0  0  0  0  0  0
   25.9504  -20.6073  -15.1427 C   0  0  1  0  0  0  0  0  0  0  0  0
   25.1696  -20.7073  -16.3996 C   0  0  0  0  0  0  0  0  0  0  0  0
   25.7533  -19.8255  -17.4368 C   0  0  0  0  0  0  0  0  0  0  0  0
   26.7190  -20.1873  -18.3837 C   0  0  0  0  0  0  0  0  0  0  0  0
   26.9916  -19.1441  -19.1851 N   0  0  0  0  0  0  0  0  0  0  0  0
   26.2605  -18.0959  -18.8285 C   0  0  0  0  0  0  0  0  0  0  0  0
   26.1909  -16.8184  -19.3324 C   0  0  0  0  0  0  0  0  0  0  0  0
   25.3387  -15.8878  -18.7673 C   0  0  0  0  0  0  0  0  0  0  0  0
   24.5777  -16.2895  -17.6978 C   0  0  0  0  0  0  0  0  0  0  0  0
   24.6434  -17.5825  -17.1829 C   0  0  0  0  0  0  0  0  0  0  0  0
   25.4815  -18.5031  -17.7381 C   0  0  0  0  0  0  0  0  0  0  0  0
   25.2860  -21.2329  -13.9724 C   0  0  0  0  0  0  0  0  0  0  0  0
   25.2782  -22.4847  -13.8490 O   0  0  0  0  0  0  0  0  0  0  0  0
   25.5625  -20.2173   -7.3186 C   0  0  0  0  0  0  0  0  0  0  0  0
   26.4895  -19.8356   -8.8500 S   0  0  0  0  0  0  0  0  0  0  0  0
   25.8464  -20.8976  -10.1326 C   0  0  0  0  0  0  0  0  0  0  0  0
   24.4029  -20.6890  -10.4773 C   0  0  0  0  0  0  0  0  0  0  0  0
   23.9713  -21.0457  -11.8278 C   0  0  2  0  0  0  0  0  0  0  0  0
   24.6414  -20.5054  -12.9551 N   0  0  0  0  0  0  0  0  0  0  0  0
   22.5161  -20.7695  -11.9804 C   0  0  0  0  0  0  0  0  0  0  0  0
   22.0723  -19.5712  -12.0579 O   0  0  0  0  0  0  0  0  0  0  0  0
   21.5330  -21.7729  -12.0514 N   0  0  0  0  0  0  0  0  0  0  0  0
   20.0959  -21.4875  -12.2296 C   0  0  1  0  0  0  0  0  0  0  0  0
   19.7257  -22.2017  -13.5088 C   0  0  0  0  0  0  0  0  0  0  0  0
   18.3101  -22.1542  -13.8551 C   0  0  0  0  0  0  0  0  0  0  0  0
   17.5672  -21.4319  -13.1105 O   0  0  0  0  0  0  0  0  0  0  0  0
   19.3945  -22.1557  -11.0874 C   0  0  0  0  0  0  0  0  0  0  0  0
   19.8533  -23.2348  -10.5933 O   0  0  0  0  0  0  0  0  0  0  0  0
   17.6905  -22.7962  -14.8866 O   0  0  0  0  0  0  0  0  0  0  0  0
   18.2401  -21.6319  -10.5367 O   0  0  0  0  0  0  0  0  0  0  0  0
  2  1  1  6
  2 13  1  0
  2  3  1  0
  3  4  1  0
  4  5  2  0
  6  5  1  0
  7  6  1  0
  8  7  2  0
  9  8  1  0
 10 11  1  0
 10  9  2  0
 11 12  2  0
 12  4  1  0
 12  7  1  0
 13 14  2  0
 16 15  1  0
 17 16  1  0
 19 18  1  1
 18 17  1  0
 20 19  1  0
 20 13  1  0
 21 22  2  0
 21 19  1  0
 23 21  1  0
 24 28  1  0
 24 23  1  0
 24 25  1  6
 26 30  1  0
 26 25  1  0
 27 26  2  0
 28 31  1  0
 29 28  2  0
M  END
$$$$
