WMD.pdb
     RDKit          3D

 31 32  0  0  1  0  0  0  0  0999 V2000
   13.3315  -18.6713    6.3862 N   0  0  0  0  0  0  0  0  0  0  0  0
   14.1913  -17.5325    6.5643 C   0  0  1  0  0  0  0  0  0  0  0  0
   13.4270  -16.3701    7.0784 C   0  0  0  0  0  0  0  0  0  0  0  0
   12.3855  -15.9703    6.1038 C   0  0  0  0  0  0  0  0  0  0  0  0
   12.5943  -15.2732    4.9078 C   0  0  0  0  0  0  0  0  0  0  0  0
   11.4285  -15.1102    4.2603 N   0  0  0  0  0  0  0  0  0  0  0  0
   10.4427  -15.6607    4.9571 C   0  0  0  0  0  0  0  0  0  0  0  0
    9.0916  -15.7453    4.7156 C   0  0  0  0  0  0  0  0  0  0  0  0
    8.2564  -16.3753    5.6197 C   0  0  0  0  0  0  0  0  0  0  0  0
    8.8269  -16.9036    6.7510 C   0  0  0  0  0  0  0  0  0  0  0  0
   10.1950  -16.8215    7.0011 C   0  0  0  0  0  0  0  0  0  0  0  0
   11.0218  -16.2023    6.1116 C   0  0  0  0  0  0  0  0  0  0  0  0
   15.3937  -17.8631    7.3688 C   0  0  0  0  0  0  0  0  0  0  0  0
   15.2795  -18.5499    8.4165 O   0  0  0  0  0  0  0  0  0  0  0  0
   23.0578  -19.3693    8.1565 C   0  0  0  0  0  0  0  0  0  0  0  0
   21.6581  -19.2439    6.9837 S   0  0  0  0  0  0  0  0  0  0  0  0
   20.2915  -18.5159    7.8719 C   0  0  0  0  0  0  0  0  0  0  0  0
   19.0566  -18.2656    7.0604 C   0  0  0  0  0  0  0  0  0  0  0  0
   17.8830  -17.7426    7.7579 C   0  0  2  0  0  0  0  0  0  0  0  0
   16.6973  -17.4512    7.0362 N   0  0  0  0  0  0  0  0  0  0  0  0
   18.2590  -16.5298    8.5358 C   0  0  0  0  0  0  0  0  0  0  0  0
   18.4206  -15.3968    7.9621 O   0  0  0  0  0  0  0  0  0  0  0  0
   18.4620  -16.5253    9.9276 N   0  0  0  0  0  0  0  0  0  0  0  0
   18.7534  -15.3016   10.6996 C   0  0  1  0  0  0  0  0  0  0  0  0
   18.2169  -15.5917   12.0823 C   0  0  0  0  0  0  0  0  0  0  0  0
   16.7671  -15.5079   12.2122 C   0  0  0  0  0  0  0  0  0  0  0  0
   16.1787  -14.6538   11.4690 O   0  0  0  0  0  0  0  0  0  0  0  0
   20.2458  -15.2032   10.7754 C   0  0  0  0  0  0  0  0  0  0  0  0
   20.9702  -16.2246   10.5495 O   0  0  0  0  0  0  0  0  0  0  0  0
   15.9687  -16.2407   13.0403 O   0  0  0  0  0  0  0  0  0  0  0  0
   20.8811  -14.0165   11.0891 O   0  0  0  0  0  0  0  0  0  0  0  0
  2  1  1  1
  2 13  1  0
  2  3  1  0
  3  4  1  0
  4  5  2  0
  6  5  1  0
  7  6  1  0
  8  7  2  0
  9  8  1  0
 10 11  1  0
 10  9  2  0
 11 12  2  0
 12  4  1  0
 12  7  1  0
 13 14  2  0
 16 15  1  0
 17 16  1  0
 19 18  1  6
 18 17  1  0
 20 19  1  0
 20 13  1  0
 21 22  2  0
 21 19  1  0
 23 21  1  0
 24 28  1  0
 24 23  1  0
 24 25  1  1
 26 30  1  0
 26 25  1  0
 27 26  2  0
 28 31  1  0
 29 28  2  0
M  END
$$$$
