WMD.pdb
     RDKit          3D

 31 32  0  0  1  0  0  0  0  0999 V2000
   26.9331  -22.6856  -13.5995 N   0  0  0  0  0  0  0  0  0  0  0  0
   26.5670  -21.6632  -12.6569 C   0  0  1  0  0  0  0  0  0  0  0  0
   27.3455  -20.4235  -12.8949 C   0  0  0  0  0  0  0  0  0  0  0  0
   28.7798  -20.6561  -12.6067 C   0  0  0  0  0  0  0  0  0  0  0  0
   29.8430  -20.4813  -13.5004 C   0  0  0  0  0  0  0  0  0  0  0  0
   31.0078  -20.7547  -12.8894 N   0  0  0  0  0  0  0  0  0  0  0  0
   30.7867  -21.1057  -11.6291 C   0  0  0  0  0  0  0  0  0  0  0  0
   31.6455  -21.4776  -10.6217 C   0  0  0  0  0  0  0  0  0  0  0  0
   31.1567  -21.8126   -9.3724 C   0  0  0  0  0  0  0  0  0  0  0  0
   29.7979  -21.7586   -9.1859 C   0  0  0  0  0  0  0  0  0  0  0  0
   28.9226  -21.3822  -10.2025 C   0  0  0  0  0  0  0  0  0  0  0  0
   29.4008  -21.0500  -11.4350 C   0  0  0  0  0  0  0  0  0  0  0  0
   25.0991  -21.4498  -12.6091 C   0  0  0  0  0  0  0  0  0  0  0  0
   24.3817  -21.7958  -13.5827 O   0  0  0  0  0  0  0  0  0  0  0  0
   19.6668  -18.8741   -8.0752 C   0  0  0  0  0  0  0  0  0  0  0  0
   20.5713  -20.4599   -7.9426 S   0  0  0  0  0  0  0  0  0  0  0  0
   21.1076  -20.8985   -9.5876 C   0  0  0  0  0  0  0  0  0  0  0  0
   22.5552  -20.6450   -9.8817 C   0  0  0  0  0  0  0  0  0  0  0  0
   23.0479  -21.0007  -11.2114 C   0  0  2  0  0  0  0  0  0  0  0  0
   24.4263  -20.8689  -11.5184 N   0  0  0  0  0  0  0  0  0  0  0  0
   22.2723  -20.2660  -12.2487 C   0  0  0  0  0  0  0  0  0  0  0  0
   22.5658  -19.0614  -12.5679 O   0  0  0  0  0  0  0  0  0  0  0  0
   21.1828  -20.8170  -12.9469 N   0  0  0  0  0  0  0  0  0  0  0  0
   20.4095  -20.0721  -13.9596 C   0  0  1  0  0  0  0  0  0  0  0  0
   20.5927  -20.8659  -15.2324 C   0  0  0  0  0  0  0  0  0  0  0  0
   19.8204  -20.3896  -16.3737 C   0  0  0  0  0  0  0  0  0  0  0  0
   19.1597  -19.3115  -16.2024 O   0  0  0  0  0  0  0  0  0  0  0  0
   18.9752  -20.1651  -13.5390 C   0  0  0  0  0  0  0  0  0  0  0  0
   18.5506  -21.1950  -12.9241 O   0  0  0  0  0  0  0  0  0  0  0  0
   19.7247  -20.9681  -17.6052 O   0  0  0  0  0  0  0  0  0  0  0  0
   18.0739  -19.1503  -13.7998 O   0  0  0  0  0  0  0  0  0  0  0  0
  2  1  1  6
  2 13  1  0
  2  3  1  0
  3  4  1  0
  4  5  2  0
  6  5  1  0
  7  6  1  0
  8  7  2  0
  9  8  1  0
 10 11  1  0
 10  9  2  0
 11 12  2  0
 12  4  1  0
 12  7  1  0
 13 14  2  0
 16 15  1  0
 17 16  1  0
 19 18  1  1
 18 17  1  0
 20 19  1  0
 20 13  1  0
 21 22  2  0
 21 19  1  0
 23 21  1  0
 24 28  1  0
 24 23  1  0
 24 25  1  6
 26 30  1  0
 26 25  1  0
 27 26  2  0
 28 31  1  0
 29 28  2  0
M  END
$$$$
