YKW.pdb
     RDKit          3D

 36 38  0  0  1  0  0  0  0  0999 V2000
   15.4608  -23.0132   19.5813 O   0  0  0  0  0  0  0  0  0  0  0  0
   14.6771  -21.9044   19.8751 C   0  0  0  0  0  0  0  0  0  0  0  0
   14.7940  -21.3583   21.1348 C   0  0  0  0  0  0  0  0  0  0  0  0
   14.0502  -20.2562   21.5045 C   0  0  0  0  0  0  0  0  0  0  0  0
   13.1725  -19.6732   20.6267 C   0  0  0  0  0  0  0  0  0  0  0  0
   12.3773  -18.4871   21.0343 C   0  0  0  0  0  0  0  0  0  0  0  0
   11.2440  -18.3422   20.0334 C   0  0  2  0  0  0  0  0  0  0  0  0
   11.7461  -17.7925   18.8013 N   0  0  0  0  0  0  0  0  0  0  0  0
   10.1625  -17.5030   20.6079 C   0  0  0  0  0  0  0  0  0  0  0  0
   10.2460  -16.2317   20.5531 O   0  0  0  0  0  0  0  0  0  0  0  0
   13.0756  -20.2416   19.3705 C   0  0  0  0  0  0  0  0  0  0  0  0
   13.8110  -21.3370   18.9942 C   0  0  0  0  0  0  0  0  0  0  0  0
    9.0558  -18.1539   21.2074 N   0  0  0  0  0  0  0  0  0  0  0  0
    7.9436  -17.4020   21.7433 C   0  0  1  0  0  0  0  0  0  0  0  0
    6.6626  -18.2193   21.6601 C   0  0  0  0  0  0  0  0  0  0  0  0
    6.4016  -18.6572   20.2368 C   0  0  0  0  0  0  0  0  0  0  0  0
    5.1675  -19.5140   20.1067 C   0  0  0  0  0  0  0  0  0  0  0  0
    4.9460  -19.9703   18.6725 C   0  0  0  0  0  0  0  0  0  0  0  0
    3.7374  -20.7794   18.5999 N   0  0  0  0  0  0  0  0  0  0  0  0
    8.2601  -17.0360   23.1411 C   0  0  0  0  0  0  0  0  0  0  0  0
    7.4425  -16.3493   23.7913 O   0  0  0  0  0  0  0  0  0  0  0  0
    9.4662  -17.4273   23.8049 N   0  0  0  0  0  0  0  0  0  0  0  0
    9.8527  -16.9547   25.0896 C   0  0  1  0  0  0  0  0  0  0  0  0
    9.8322  -15.4578   25.1526 C   0  0  0  0  0  0  0  0  0  0  0  0
    8.5348  -14.8439   25.4249 C   0  0  0  0  0  0  0  0  0  0  0  0
    7.3359  -15.5421   25.5395 C   0  0  0  0  0  0  0  0  0  0  0  0
    6.3890  -14.6371   25.7656 N   0  0  0  0  0  0  0  0  0  0  0  0
    6.9155  -13.3970   25.8026 C   0  0  0  0  0  0  0  0  0  0  0  0
    6.3459  -12.1654   26.0104 C   0  0  0  0  0  0  0  0  0  0  0  0
    7.1046  -11.0055   26.0137 C   0  0  0  0  0  0  0  0  0  0  0  0
    8.4697  -11.0788   25.8038 C   0  0  0  0  0  0  0  0  0  0  0  0
    9.0220  -12.3255   25.5968 C   0  0  0  0  0  0  0  0  0  0  0  0
    8.2884  -13.4983   25.5878 C   0  0  0  0  0  0  0  0  0  0  0  0
    9.0707  -17.5461   26.1983 C   0  0  0  0  0  0  0  0  0  0  0  0
    8.0588  -18.2742   26.0311 O   0  0  0  0  0  0  0  0  0  0  0  0
    9.4683  -17.2883   27.5023 O   0  0  0  0  0  0  0  0  0  0  0  0
  2  3  2  0
  2  1  1  0
  4  3  1  0
  5  4  2  0
  6  5  1  0
  7  6  1  0
  7  8  1  6
  9  7  1  0
 10  9  2  0
 11  5  1  0
 11 12  2  0
 12  2  1  0
 13  9  1  0
 14 20  1  0
 14 13  1  0
 14 15  1  1
 16 15  1  0
 17 16  1  0
 18 19  1  0
 18 17  1  0
 20 22  1  0
 21 20  2  0
 22 23  1  0
 23 34  1  0
 23 24  1  6
 24 25  1  0
 25 33  1  0
 26 27  1  0
 26 25  2  0
 27 28  1  0
 28 33  2  0
 28 29  1  0
 29 30  2  0
 30 31  1  0
 32 31  2  0
 33 32  1  0
 34 35  2  0
 34 36  1  0
M  END
$$$$
