YKW.pdb
     RDKit          3D

 36 38  0  0  1  0  0  0  0  0999 V2000
   17.0652  -13.9741   17.2336 O   0  0  0  0  0  0  0  0  0  0  0  0
   16.2094  -14.6655   18.0818 C   0  0  0  0  0  0  0  0  0  0  0  0
   15.9324  -14.0986   19.3068 C   0  0  0  0  0  0  0  0  0  0  0  0
   15.0918  -14.7225   20.2060 C   0  0  0  0  0  0  0  0  0  0  0  0
   14.5081  -15.9263   19.9047 C   0  0  0  0  0  0  0  0  0  0  0  0
   13.6045  -16.5890   20.8792 C   0  0  0  0  0  0  0  0  0  0  0  0
   12.1837  -16.3885   20.3808 C   0  0  2  0  0  0  0  0  0  0  0  0
   12.2004  -16.0190   18.9896 N   0  0  0  0  0  0  0  0  0  0  0  0
   11.4929  -15.3697   21.2106 C   0  0  0  0  0  0  0  0  0  0  0  0
   12.1699  -14.4679   21.8062 O   0  0  0  0  0  0  0  0  0  0  0  0
   14.8035  -16.4717   18.6695 C   0  0  0  0  0  0  0  0  0  0  0  0
   15.6378  -15.8588   17.7692 C   0  0  0  0  0  0  0  0  0  0  0  0
   10.0812  -15.4348   21.3143 N   0  0  0  0  0  0  0  0  0  0  0  0
    9.3371  -14.4424   22.0567 C   0  0  1  0  0  0  0  0  0  0  0  0
    8.2084  -13.8801   21.2049 C   0  0  0  0  0  0  0  0  0  0  0  0
    8.6124  -13.8332   19.7488 C   0  0  0  0  0  0  0  0  0  0  0  0
    7.4925  -13.3792   18.8467 C   0  0  0  0  0  0  0  0  0  0  0  0
    7.9157  -13.3644   17.3855 C   0  0  0  0  0  0  0  0  0  0  0  0
    7.0416  -14.2389   16.6163 N   0  0  0  0  0  0  0  0  0  0  0  0
    8.8189  -15.0753   23.2891 C   0  0  0  0  0  0  0  0  0  0  0  0
    7.7754  -14.6277   23.8117 O   0  0  0  0  0  0  0  0  0  0  0  0
    9.4512  -16.1881   23.9299 N   0  0  0  0  0  0  0  0  0  0  0  0
    9.7919  -16.2186   25.3105 C   0  0  1  0  0  0  0  0  0  0  0  0
    8.5799  -16.4099   26.1705 C   0  0  0  0  0  0  0  0  0  0  0  0
    7.4761  -15.4808   25.9412 C   0  0  0  0  0  0  0  0  0  0  0  0
    6.2500  -15.8292   25.3815 C   0  0  0  0  0  0  0  0  0  0  0  0
    5.5293  -14.7141   25.3201 N   0  0  0  0  0  0  0  0  0  0  0  0
    6.2264  -13.6699   25.8102 C   0  0  0  0  0  0  0  0  0  0  0  0
    5.9061  -12.3434   25.9598 C   0  0  0  0  0  0  0  0  0  0  0  0
    6.7998  -11.4379   26.5096 C   0  0  0  0  0  0  0  0  0  0  0  0
    8.0476  -11.8701   26.9211 C   0  0  0  0  0  0  0  0  0  0  0  0
    8.3495  -13.2064   26.7617 C   0  0  0  0  0  0  0  0  0  0  0  0
    7.4771  -14.1308   26.2160 C   0  0  0  0  0  0  0  0  0  0  0  0
   10.8415  -17.2087   25.6400 C   0  0  0  0  0  0  0  0  0  0  0  0
   11.3709  -17.9753   24.7952 O   0  0  0  0  0  0  0  0  0  0  0  0
   11.2738  -17.3050   26.9548 O   0  0  0  0  0  0  0  0  0  0  0  0
  2  3  2  0
  2  1  1  0
  4  3  1  0
  5  4  2  0
  6  5  1  0
  7  6  1  0
  7  8  1  6
  9  7  1  0
 10  9  2  0
 11  5  1  0
 11 12  2  0
 12  2  1  0
 13  9  1  0
 14 20  1  0
 14 13  1  0
 14 15  1  6
 16 15  1  0
 17 16  1  0
 18 19  1  0
 18 17  1  0
 20 22  1  0
 21 20  2  0
 22 23  1  0
 23 34  1  0
 23 24  1  1
 24 25  1  0
 25 33  1  0
 26 27  1  0
 26 25  2  0
 27 28  1  0
 28 33  2  0
 28 29  1  0
 29 30  2  0
 30 31  1  0
 32 31  2  0
 33 32  1  0
 34 35  2  0
 34 36  1  0
M  END
$$$$
