YKW.pdb
     RDKit          3D

 36 38  0  0  1  0  0  0  0  0999 V2000
    8.1085  -19.2481   30.1059 O   0  0  0  0  0  0  0  0  0  0  0  0
    7.9083  -19.4983   28.7541 C   0  0  0  0  0  0  0  0  0  0  0  0
    8.8454  -19.0084   27.8706 C   0  0  0  0  0  0  0  0  0  0  0  0
    8.7187  -19.2145   26.5120 C   0  0  0  0  0  0  0  0  0  0  0  0
    7.6546  -19.9138   26.0028 C   0  0  0  0  0  0  0  0  0  0  0  0
    7.5280  -20.1305   24.5391 C   0  0  0  0  0  0  0  0  0  0  0  0
    6.3879  -19.2523   24.0532 C   0  0  2  0  0  0  0  0  0  0  0  0
    5.2602  -20.0702   23.6902 N   0  0  0  0  0  0  0  0  0  0  0  0
    6.8427  -18.4104   22.9183 C   0  0  0  0  0  0  0  0  0  0  0  0
    7.4635  -18.9424   21.9396 O   0  0  0  0  0  0  0  0  0  0  0  0
    6.7302  -20.3935   26.9116 C   0  0  0  0  0  0  0  0  0  0  0  0
    6.8480  -20.1936   28.2637 C   0  0  0  0  0  0  0  0  0  0  0  0
    6.5668  -17.0212   22.9616 N   0  0  0  0  0  0  0  0  0  0  0  0
    7.4232  -16.0654   22.2962 C   0  0  1  0  0  0  0  0  0  0  0  0
    6.6486  -14.7963   21.9716 C   0  0  0  0  0  0  0  0  0  0  0  0
    7.5127  -13.8287   21.1953 C   0  0  0  0  0  0  0  0  0  0  0  0
    7.4601  -14.0639   19.7067 C   0  0  0  0  0  0  0  0  0  0  0  0
    8.3782  -13.1139   18.9525 C   0  0  0  0  0  0  0  0  0  0  0  0
    8.4537  -13.5164   17.5550 N   0  0  0  0  0  0  0  0  0  0  0  0
    8.5771  -15.7824   23.1773 C   0  0  0  0  0  0  0  0  0  0  0  0
    8.4825  -14.8764   24.0333 O   0  0  0  0  0  0  0  0  0  0  0  0
    9.8161  -16.4955   23.1073 N   0  0  0  0  0  0  0  0  0  0  0  0
   11.0930  -15.8772   23.2098 C   0  0  1  0  0  0  0  0  0  0  0  0
   11.1335  -14.8847   24.3316 C   0  0  0  0  0  0  0  0  0  0  0  0
   10.8231  -15.4045   25.6611 C   0  0  0  0  0  0  0  0  0  0  0  0
   11.2947  -16.6114   26.1702 C   0  0  0  0  0  0  0  0  0  0  0  0
   10.7782  -16.7380   27.3883 N   0  0  0  0  0  0  0  0  0  0  0  0
   10.0016  -15.6781   27.6880 C   0  0  0  0  0  0  0  0  0  0  0  0
    9.2771  -15.3608   28.8101 C   0  0  0  0  0  0  0  0  0  0  0  0
    8.5468  -14.1858   28.8951 C   0  0  0  0  0  0  0  0  0  0  0  0
    8.5408  -13.3040   27.8296 C   0  0  0  0  0  0  0  0  0  0  0  0
    9.2749  -13.6417   26.7119 C   0  0  0  0  0  0  0  0  0  0  0  0
   10.0116  -14.8072   26.6004 C   0  0  0  0  0  0  0  0  0  0  0  0
   12.2117  -16.8411   23.3097 C   0  0  0  0  0  0  0  0  0  0  0  0
   12.0570  -18.0808   23.4543 O   0  0  0  0  0  0  0  0  0  0  0  0
   13.5110  -16.3594   23.2412 O   0  0  0  0  0  0  0  0  0  0  0  0
  2  3  2  0
  2  1  1  0
  4  3  1  0
  5  4  2  0
  6  5  1  0
  7  6  1  0
  7  8  1  6
  9  7  1  0
 10  9  2  0
 11  5  1  0
 11 12  2  0
 12  2  1  0
 13  9  1  0
 14 20  1  0
 14 13  1  0
 14 15  1  1
 16 15  1  0
 17 16  1  0
 18 19  1  0
 18 17  1  0
 20 22  1  0
 21 20  2  0
 22 23  1  0
 23 34  1  0
 23 24  1  1
 24 25  1  0
 25 33  1  0
 26 27  1  0
 26 25  2  0
 27 28  1  0
 28 33  2  0
 28 29  1  0
 29 30  2  0
 30 31  1  0
 32 31  2  0
 33 32  1  0
 34 35  2  0
 34 36  1  0
M  END
$$$$
