YKW.pdb
     RDKit          3D

 36 38  0  0  1  0  0  0  0  0999 V2000
   16.5305  -14.0093   20.2292 O   0  0  0  0  0  0  0  0  0  0  0  0
   15.2028  -13.9801   19.8211 C   0  0  0  0  0  0  0  0  0  0  0  0
   14.2409  -14.2714   20.7637 C   0  0  0  0  0  0  0  0  0  0  0  0
   12.8999  -14.2636   20.4378 C   0  0  0  0  0  0  0  0  0  0  0  0
   12.4871  -13.9652   19.1646 C   0  0  0  0  0  0  0  0  0  0  0  0
   11.0415  -13.9588   18.8245 C   0  0  0  0  0  0  0  0  0  0  0  0
   10.7203  -15.3097   18.2088 C   0  0  2  0  0  0  0  0  0  0  0  0
    9.9370  -15.1298   17.0145 N   0  0  0  0  0  0  0  0  0  0  0  0
   10.0213  -16.1666   19.1992 C   0  0  0  0  0  0  0  0  0  0  0  0
    8.7827  -15.9813   19.4398 O   0  0  0  0  0  0  0  0  0  0  0  0
   13.4732  -13.6770   18.2398 C   0  0  0  0  0  0  0  0  0  0  0  0
   14.8085  -13.6823   18.5546 C   0  0  0  0  0  0  0  0  0  0  0  0
   10.7663  -17.1783   19.8545 N   0  0  0  0  0  0  0  0  0  0  0  0
   10.1812  -17.9778   20.9071 C   0  0  1  0  0  0  0  0  0  0  0  0
   10.8844  -19.3240   21.0027 C   0  0  0  0  0  0  0  0  0  0  0  0
   10.3977  -20.2575   19.9176 C   0  0  0  0  0  0  0  0  0  0  0  0
   11.1386  -21.5708   19.9019 C   0  0  0  0  0  0  0  0  0  0  0  0
   10.6874  -22.4595   18.7525 C   0  0  0  0  0  0  0  0  0  0  0  0
   11.5514  -23.6291   18.6730 N   0  0  0  0  0  0  0  0  0  0  0  0
   10.2844  -17.2241   22.1757 C   0  0  0  0  0  0  0  0  0  0  0  0
   11.4094  -16.8516   22.5734 O   0  0  0  0  0  0  0  0  0  0  0  0
    9.1548  -16.8904   22.9888 N   0  0  0  0  0  0  0  0  0  0  0  0
    9.2494  -16.2210   24.2402 C   0  0  1  0  0  0  0  0  0  0  0  0
    7.9402  -15.6086   24.6352 C   0  0  0  0  0  0  0  0  0  0  0  0
    7.9158  -14.9189   25.9227 C   0  0  0  0  0  0  0  0  0  0  0  0
    8.1187  -15.5337   27.1552 C   0  0  0  0  0  0  0  0  0  0  0  0
    7.9983  -14.5846   28.0780 N   0  0  0  0  0  0  0  0  0  0  0  0
    7.7297  -13.3950   27.5043 C   0  0  0  0  0  0  0  0  0  0  0  0
    7.5323  -12.1449   28.0360 C   0  0  0  0  0  0  0  0  0  0  0  0
    7.2742  -11.0459   27.2318 C   0  0  0  0  0  0  0  0  0  0  0  0
    7.2117  -11.2009   25.8589 C   0  0  0  0  0  0  0  0  0  0  0  0
    7.4126  -12.4649   25.3451 C   0  0  0  0  0  0  0  0  0  0  0  0
    7.6713  -13.5783   26.1243 C   0  0  0  0  0  0  0  0  0  0  0  0
    9.7911  -17.0685   25.3259 C   0  0  0  0  0  0  0  0  0  0  0  0
    9.4094  -18.2453   25.5523 O   0  0  0  0  0  0  0  0  0  0  0  0
   10.7779  -16.5437   26.1480 O   0  0  0  0  0  0  0  0  0  0  0  0
  2  3  2  0
  2  1  1  0
  4  3  1  0
  5  4  2  0
  6  5  1  0
  7  6  1  0
  7  8  1  6
  9  7  1  0
 10  9  2  0
 11  5  1  0
 11 12  2  0
 12  2  1  0
 13  9  1  0
 14 20  1  0
 14 13  1  0
 14 15  1  1
 16 15  1  0
 17 16  1  0
 18 19  1  0
 18 17  1  0
 20 22  1  0
 21 20  2  0
 22 23  1  0
 23 34  1  0
 23 24  1  1
 24 25  1  0
 25 33  1  0
 26 27  1  0
 26 25  2  0
 27 28  1  0
 28 33  2  0
 28 29  1  0
 29 30  2  0
 30 31  1  0
 32 31  2  0
 33 32  1  0
 34 35  2  0
 34 36  1  0
M  END
$$$$
