YKW.pdb
     RDKit          3D

 36 38  0  0  1  0  0  0  0  0999 V2000
    8.9469  -13.5509   15.5648 O   0  0  0  0  0  0  0  0  0  0  0  0
    8.5701  -13.7430   16.8881 C   0  0  0  0  0  0  0  0  0  0  0  0
    9.3045  -14.6377   17.6355 C   0  0  0  0  0  0  0  0  0  0  0  0
    8.9941  -14.8843   18.9574 C   0  0  0  0  0  0  0  0  0  0  0  0
    7.9441  -14.2444   19.5646 C   0  0  0  0  0  0  0  0  0  0  0  0
    7.6189  -14.5164   20.9878 C   0  0  0  0  0  0  0  0  0  0  0  0
    7.1427  -15.9564   21.0711 C   0  0  2  0  0  0  0  0  0  0  0  0
    5.9272  -16.1147   20.3162 N   0  0  0  0  0  0  0  0  0  0  0  0
    6.9617  -16.3507   22.4908 C   0  0  0  0  0  0  0  0  0  0  0  0
    6.3269  -15.5845   23.2885 O   0  0  0  0  0  0  0  0  0  0  0  0
    7.2249  -13.3525   18.7914 C   0  0  0  0  0  0  0  0  0  0  0  0
    7.5262  -13.1011   17.4768 C   0  0  0  0  0  0  0  0  0  0  0  0
    7.5095  -17.5856   22.9185 N   0  0  0  0  0  0  0  0  0  0  0  0
    7.4975  -17.9688   24.3123 C   0  0  1  0  0  0  0  0  0  0  0  0
    7.1525  -19.4443   24.4529 C   0  0  0  0  0  0  0  0  0  0  0  0
    7.2387  -19.8760   25.8993 C   0  0  0  0  0  0  0  0  0  0  0  0
    6.9624  -21.3465   26.0870 C   0  0  0  0  0  0  0  0  0  0  0  0
    6.9617  -21.7374   27.5572 C   0  0  0  0  0  0  0  0  0  0  0  0
    8.2854  -21.5132   28.1214 N   0  0  0  0  0  0  0  0  0  0  0  0
    8.8262  -17.6683   24.8887 C   0  0  0  0  0  0  0  0  0  0  0  0
    9.8500  -18.1078   24.3219 O   0  0  0  0  0  0  0  0  0  0  0  0
    9.0131  -16.8916   26.0764 N   0  0  0  0  0  0  0  0  0  0  0  0
   10.2848  -16.6151   26.6502 C   0  0  1  0  0  0  0  0  0  0  0  0
   10.5232  -15.1408   26.7712 C   0  0  0  0  0  0  0  0  0  0  0  0
    9.4529  -14.3658   27.3942 C   0  0  0  0  0  0  0  0  0  0  0  0
    9.2216  -14.2930   28.7650 C   0  0  0  0  0  0  0  0  0  0  0  0
    8.1568  -13.5148   28.9302 N   0  0  0  0  0  0  0  0  0  0  0  0
    7.6932  -13.0845   27.7401 C   0  0  0  0  0  0  0  0  0  0  0  0
    6.6399  -12.2694   27.4073 C   0  0  0  0  0  0  0  0  0  0  0  0
    6.3554  -11.9521   26.0884 C   0  0  0  0  0  0  0  0  0  0  0  0
    7.1452  -12.4635   25.0748 C   0  0  0  0  0  0  0  0  0  0  0  0
    8.1980  -13.2804   25.4305 C   0  0  0  0  0  0  0  0  0  0  0  0
    8.5038  -13.6133   26.7379 C   0  0  0  0  0  0  0  0  0  0  0  0
   10.5136  -17.3003   27.9419 C   0  0  0  0  0  0  0  0  0  0  0  0
    9.6230  -17.9305   28.5677 O   0  0  0  0  0  0  0  0  0  0  0  0
   11.7809  -17.2506   28.5044 O   0  0  0  0  0  0  0  0  0  0  0  0
  2  3  2  0
  2  1  1  0
  4  3  1  0
  5  4  2  0
  6  5  1  0
  7  6  1  0
  7  8  1  6
  9  7  1  0
 10  9  2  0
 11  5  1  0
 11 12  2  0
 12  2  1  0
 13  9  1  0
 14 20  1  0
 14 13  1  0
 14 15  1  6
 16 15  1  0
 17 16  1  0
 18 19  1  0
 18 17  1  0
 20 22  1  0
 21 20  2  0
 22 23  1  0
 23 34  1  0
 23 24  1  1
 24 25  1  0
 25 33  1  0
 26 27  1  0
 26 25  2  0
 27 28  1  0
 28 33  2  0
 28 29  1  0
 29 30  2  0
 30 31  1  0
 32 31  2  0
 33 32  1  0
 34 35  2  0
 34 36  1  0
M  END
$$$$
