YKW.pdb
     RDKit          3D

 36 38  0  0  1  0  0  0  0  0999 V2000
    4.8119  -10.0932   25.4158 O   0  0  0  0  0  0  0  0  0  0  0  0
    5.4299  -11.3298   25.5536 C   0  0  0  0  0  0  0  0  0  0  0  0
    6.5363  -11.5790   24.7710 C   0  0  0  0  0  0  0  0  0  0  0  0
    7.2065  -12.7829   24.8488 C   0  0  0  0  0  0  0  0  0  0  0  0
    6.7889  -13.7661   25.7087 C   0  0  0  0  0  0  0  0  0  0  0  0
    7.5175  -15.0579   25.7852 C   0  0  0  0  0  0  0  0  0  0  0  0
    6.9291  -15.9678   24.7208 C   0  0  2  0  0  0  0  0  0  0  0  0
    6.1034  -16.9728   25.3376 N   0  0  0  0  0  0  0  0  0  0  0  0
    8.0165  -16.5725   23.9110 C   0  0  0  0  0  0  0  0  0  0  0  0
    8.5316  -17.6839   24.2656 O   0  0  0  0  0  0  0  0  0  0  0  0
    5.6768  -13.4891   26.4814 C   0  0  0  0  0  0  0  0  0  0  0  0
    5.0043  -12.2953   26.4108 C   0  0  0  0  0  0  0  0  0  0  0  0
    8.4522  -15.8829   22.7524 N   0  0  0  0  0  0  0  0  0  0  0  0
    9.5145  -16.4062   21.9232 C   0  0  1  0  0  0  0  0  0  0  0  0
    9.4875  -15.7493   20.5508 C   0  0  0  0  0  0  0  0  0  0  0  0
    8.2124  -16.0992   19.8178 C   0  0  0  0  0  0  0  0  0  0  0  0
    8.3059  -17.4090   19.0764 C   0  0  0  0  0  0  0  0  0  0  0  0
    7.0687  -17.6679   18.2299 C   0  0  0  0  0  0  0  0  0  0  0  0
    7.2176  -18.9328   17.5237 N   0  0  0  0  0  0  0  0  0  0  0  0
   10.8021  -16.1663   22.6107 C   0  0  0  0  0  0  0  0  0  0  0  0
   11.2105  -14.9929   22.7477 O   0  0  0  0  0  0  0  0  0  0  0  0
   11.6221  -17.2146   23.1373 N   0  0  0  0  0  0  0  0  0  0  0  0
   12.8776  -16.9969   23.7692 C   0  0  1  0  0  0  0  0  0  0  0  0
   12.7545  -16.0467   24.9212 C   0  0  0  0  0  0  0  0  0  0  0  0
   12.0691  -16.5582   26.1055 C   0  0  0  0  0  0  0  0  0  0  0  0
   11.9177  -17.9075   26.4129 C   0  0  0  0  0  0  0  0  0  0  0  0
   11.2266  -17.9640   27.5469 N   0  0  0  0  0  0  0  0  0  0  0  0
   10.9271  -16.7246   27.9834 C   0  0  0  0  0  0  0  0  0  0  0  0
   10.2476  -16.2824   29.0913 C   0  0  0  0  0  0  0  0  0  0  0  0
   10.0684  -14.9311   29.3421 C   0  0  0  0  0  0  0  0  0  0  0  0
   10.5824  -13.9965   28.4617 C   0  0  0  0  0  0  0  0  0  0  0  0
   11.2614  -14.4616   27.3550 C   0  0  0  0  0  0  0  0  0  0  0  0
   11.4542  -15.8036   27.0804 C   0  0  0  0  0  0  0  0  0  0  0  0
   13.5596  -18.2452   24.1778 C   0  0  0  0  0  0  0  0  0  0  0  0
   14.6630  -18.2753   24.7808 O   0  0  0  0  0  0  0  0  0  0  0  0
   12.9552  -19.4588   23.8831 O   0  0  0  0  0  0  0  0  0  0  0  0
  2  3  2  0
  2  1  1  0
  4  3  1  0
  5  4  2  0
  6  5  1  0
  7  6  1  0
  7  8  1  1
  9  7  1  0
 10  9  2  0
 11  5  1  0
 11 12  2  0
 12  2  1  0
 13  9  1  0
 14 20  1  0
 14 13  1  0
 14 15  1  6
 16 15  1  0
 17 16  1  0
 18 19  1  0
 18 17  1  0
 20 22  1  0
 21 20  2  0
 22 23  1  0
 23 34  1  0
 23 24  1  1
 24 25  1  0
 25 33  1  0
 26 27  1  0
 26 25  2  0
 27 28  1  0
 28 33  2  0
 28 29  1  0
 29 30  2  0
 30 31  1  0
 32 31  2  0
 33 32  1  0
 34 35  2  0
 34 36  1  0
M  END
$$$$
