YKW.pdb
     RDKit          3D

 36 38  0  0  1  0  0  0  0  0999 V2000
    7.3620  -11.5852   17.3081 O   0  0  0  0  0  0  0  0  0  0  0  0
    7.4724  -12.4395   18.3980 C   0  0  0  0  0  0  0  0  0  0  0  0
    8.6325  -12.3789   19.1390 C   0  0  0  0  0  0  0  0  0  0  0  0
    8.8193  -13.1944   20.2366 C   0  0  0  0  0  0  0  0  0  0  0  0
    7.8536  -14.0892   20.6206 C   0  0  0  0  0  0  0  0  0  0  0  0
    8.0642  -14.9617   21.8036 C   0  0  0  0  0  0  0  0  0  0  0  0
    8.8158  -16.1918   21.3248 C   0  0  2  0  0  0  0  0  0  0  0  0
    7.9874  -16.9530   20.4267 N   0  0  0  0  0  0  0  0  0  0  0  0
    9.2548  -17.0039   22.4873 C   0  0  0  0  0  0  0  0  0  0  0  0
    8.3934  -17.6334   23.1860 O   0  0  0  0  0  0  0  0  0  0  0  0
    6.7006  -14.1285   19.8593 C   0  0  0  0  0  0  0  0  0  0  0  0
    6.5061  -13.3218   18.7668 C   0  0  0  0  0  0  0  0  0  0  0  0
   10.6391  -17.0531   22.7862 N   0  0  0  0  0  0  0  0  0  0  0  0
   11.1372  -17.8139   23.9099 C   0  0  1  0  0  0  0  0  0  0  0  0
   12.6222  -18.0997   23.7394 C   0  0  0  0  0  0  0  0  0  0  0  0
   12.8806  -18.8127   22.4316 C   0  0  0  0  0  0  0  0  0  0  0  0
   14.3496  -19.0167   22.1584 C   0  0  0  0  0  0  0  0  0  0  0  0
   14.5844  -19.7153   20.8276 C   0  0  0  0  0  0  0  0  0  0  0  0
   13.8553  -20.9756   20.8037 N   0  0  0  0  0  0  0  0  0  0  0  0
   10.8744  -17.0444   25.1456 C   0  0  0  0  0  0  0  0  0  0  0  0
   11.0491  -15.8067   25.1416 O   0  0  0  0  0  0  0  0  0  0  0  0
   10.4248  -17.6420   26.3660 N   0  0  0  0  0  0  0  0  0  0  0  0
   10.2135  -16.9180   27.5719 C   0  0  1  0  0  0  0  0  0  0  0  0
    8.7680  -16.9189   27.9662 C   0  0  0  0  0  0  0  0  0  0  0  0
    7.8799  -16.0907   27.1541 C   0  0  0  0  0  0  0  0  0  0  0  0
    6.8818  -16.5829   26.3177 C   0  0  0  0  0  0  0  0  0  0  0  0
    6.3140  -15.5283   25.7415 N   0  0  0  0  0  0  0  0  0  0  0  0
    6.8935  -14.3868   26.1631 C   0  0  0  0  0  0  0  0  0  0  0  0
    6.6503  -13.0698   25.8614 C   0  0  0  0  0  0  0  0  0  0  0  0
    7.3840  -12.0451   26.4381 C   0  0  0  0  0  0  0  0  0  0  0  0
    8.3880  -12.3449   27.3409 C   0  0  0  0  0  0  0  0  0  0  0  0
    8.6162  -13.6740   27.6300 C   0  0  0  0  0  0  0  0  0  0  0  0
    7.8998  -14.7158   27.0689 C   0  0  0  0  0  0  0  0  0  0  0  0
   11.0720  -17.3670   28.6907 C   0  0  0  0  0  0  0  0  0  0  0  0
   11.0233  -16.8807   29.8496 O   0  0  0  0  0  0  0  0  0  0  0  0
   11.9875  -18.3832   28.4584 O   0  0  0  0  0  0  0  0  0  0  0  0
  2  3  2  0
  2  1  1  0
  4  3  1  0
  5  4  2  0
  6  5  1  0
  7  6  1  0
  7  8  1  6
  9  7  1  0
 10  9  2  0
 11  5  1  0
 11 12  2  0
 12  2  1  0
 13  9  1  0
 14 20  1  0
 14 13  1  0
 14 15  1  6
 16 15  1  0
 17 16  1  0
 18 19  1  0
 18 17  1  0
 20 22  1  0
 21 20  2  0
 22 23  1  0
 23 34  1  0
 23 24  1  1
 24 25  1  0
 25 33  1  0
 26 27  1  0
 26 25  2  0
 27 28  1  0
 28 33  2  0
 28 29  1  0
 29 30  2  0
 30 31  1  0
 32 31  2  0
 33 32  1  0
 34 35  2  0
 34 36  1  0
M  END
$$$$
