YKW.pdb
     RDKit          3D

 36 38  0  0  1  0  0  0  0  0999 V2000
    7.3830  -11.6664   17.0512 O   0  0  0  0  0  0  0  0  0  0  0  0
    7.5934  -12.4296   18.1928 C   0  0  0  0  0  0  0  0  0  0  0  0
    6.6188  -13.3404   18.5379 C   0  0  0  0  0  0  0  0  0  0  0  0
    6.7529  -14.1363   19.6573 C   0  0  0  0  0  0  0  0  0  0  0  0
    7.8618  -14.0422   20.4586 C   0  0  0  0  0  0  0  0  0  0  0  0
    7.9966  -14.9038   21.6606 C   0  0  0  0  0  0  0  0  0  0  0  0
    8.8057  -16.1220   21.2501 C   0  0  2  0  0  0  0  0  0  0  0  0
    8.0689  -16.8973   20.2866 N   0  0  0  0  0  0  0  0  0  0  0  0
    9.1572  -16.9260   22.4475 C   0  0  0  0  0  0  0  0  0  0  0  0
    8.2410  -17.5172   23.1090 O   0  0  0  0  0  0  0  0  0  0  0  0
    8.8231  -13.1205   20.0887 C   0  0  0  0  0  0  0  0  0  0  0  0
    8.6985  -12.3253   18.9778 C   0  0  0  0  0  0  0  0  0  0  0  0
   10.5215  -17.0108   22.8211 N   0  0  0  0  0  0  0  0  0  0  0  0
   10.9413  -17.8071   23.9521 C   0  0  1  0  0  0  0  0  0  0  0  0
   12.3364  -18.3676   23.7166 C   0  0  0  0  0  0  0  0  0  0  0  0
   12.4179  -19.0437   22.3668 C   0  0  0  0  0  0  0  0  0  0  0  0
   13.7626  -19.6764   22.1112 C   0  0  0  0  0  0  0  0  0  0  0  0
   13.8359  -20.3072   20.7288 C   0  0  0  0  0  0  0  0  0  0  0  0
   12.7759  -21.2958   20.5877 N   0  0  0  0  0  0  0  0  0  0  0  0
   10.8990  -16.9563   25.1614 C   0  0  0  0  0  0  0  0  0  0  0  0
   11.4455  -15.8323   25.1351 O   0  0  0  0  0  0  0  0  0  0  0  0
   10.2593  -17.3492   26.3800 N   0  0  0  0  0  0  0  0  0  0  0  0
   10.3121  -16.5914   27.5825 C   0  0  1  0  0  0  0  0  0  0  0  0
    8.9414  -16.3381   28.1320 C   0  0  0  0  0  0  0  0  0  0  0  0
    7.9875  -15.7151   27.2176 C   0  0  0  0  0  0  0  0  0  0  0  0
    7.0690  -16.4103   26.4359 C   0  0  0  0  0  0  0  0  0  0  0  0
    6.4033  -15.5005   25.7318 N   0  0  0  0  0  0  0  0  0  0  0  0
    6.8447  -14.2600   26.0198 C   0  0  0  0  0  0  0  0  0  0  0  0
    6.4664  -13.0230   25.5602 C   0  0  0  0  0  0  0  0  0  0  0  0
    7.0703  -11.8623   26.0177 C   0  0  0  0  0  0  0  0  0  0  0  0
    8.0795  -11.9403   26.9602 C   0  0  0  0  0  0  0  0  0  0  0  0
    8.4445  -13.1925   27.4085 C   0  0  0  0  0  0  0  0  0  0  0  0
    7.8593  -14.3663   26.9687 C   0  0  0  0  0  0  0  0  0  0  0  0
   11.2001  -17.1756   28.6124 C   0  0  0  0  0  0  0  0  0  0  0  0
   11.7226  -18.3161   28.5213 O   0  0  0  0  0  0  0  0  0  0  0  0
   11.4790  -16.4301   29.7488 O   0  0  0  0  0  0  0  0  0  0  0  0
  2  3  2  0
  2  1  1  0
  4  3  1  0
  5  4  2  0
  6  5  1  0
  7  6  1  0
  7  8  1  6
  9  7  1  0
 10  9  2  0
 11  5  1  0
 11 12  2  0
 12  2  1  0
 13  9  1  0
 14 20  1  0
 14 13  1  0
 14 15  1  6
 16 15  1  0
 17 16  1  0
 18 19  1  0
 18 17  1  0
 20 22  1  0
 21 20  2  0
 22 23  1  0
 23 34  1  0
 23 24  1  1
 24 25  1  0
 25 33  1  0
 26 27  1  0
 26 25  2  0
 27 28  1  0
 28 33  2  0
 28 29  1  0
 29 30  2  0
 30 31  1  0
 32 31  2  0
 33 32  1  0
 34 35  2  0
 34 36  1  0
M  END
$$$$
