YKW.pdb
     RDKit          3D

 36 38  0  0  1  0  0  0  0  0999 V2000
    8.3103  -12.6081   15.7797 O   0  0  0  0  0  0  0  0  0  0  0  0
    8.1616  -13.1319   17.0578 C   0  0  0  0  0  0  0  0  0  0  0  0
    8.6799  -14.3862   17.2958 C   0  0  0  0  0  0  0  0  0  0  0  0
    8.5734  -14.9762   18.5388 C   0  0  0  0  0  0  0  0  0  0  0  0
    7.9474  -14.3291   19.5732 C   0  0  0  0  0  0  0  0  0  0  0  0
    7.8387  -14.9726   20.9072 C   0  0  0  0  0  0  0  0  0  0  0  0
    7.7768  -16.4727   20.6772 C   0  0  2  0  0  0  0  0  0  0  0  0
    6.5127  -16.8257   20.0857 N   0  0  0  0  0  0  0  0  0  0  0  0
    8.0046  -17.1929   21.9551 C   0  0  0  0  0  0  0  0  0  0  0  0
    7.0297  -17.4033   22.7500 O   0  0  0  0  0  0  0  0  0  0  0  0
    7.4369  -13.0727   19.3062 C   0  0  0  0  0  0  0  0  0  0  0  0
    7.5382  -12.4784   18.0739 C   0  0  0  0  0  0  0  0  0  0  0  0
    9.3193  -17.6295   22.2534 N   0  0  0  0  0  0  0  0  0  0  0  0
    9.6079  -18.3693   23.4613 C   0  0  1  0  0  0  0  0  0  0  0  0
   10.4647  -19.5865   23.1449 C   0  0  0  0  0  0  0  0  0  0  0  0
    9.6600  -20.6241   22.3955 C   0  0  0  0  0  0  0  0  0  0  0  0
   10.4636  -21.8549   22.0590 C   0  0  0  0  0  0  0  0  0  0  0  0
    9.6617  -22.8415   21.2237 C   0  0  0  0  0  0  0  0  0  0  0  0
   10.5057  -23.9715   20.8611 N   0  0  0  0  0  0  0  0  0  0  0  0
   10.2892  -17.4622   24.4106 C   0  0  0  0  0  0  0  0  0  0  0  0
   11.4737  -17.1283   24.1910 O   0  0  0  0  0  0  0  0  0  0  0  0
    9.6634  -16.9352   25.5849 N   0  0  0  0  0  0  0  0  0  0  0  0
   10.3752  -16.3387   26.6622 C   0  0  1  0  0  0  0  0  0  0  0  0
    9.8195  -14.9907   27.0074 C   0  0  0  0  0  0  0  0  0  0  0  0
    8.4122  -14.7731   26.6814 C   0  0  0  0  0  0  0  0  0  0  0  0
    7.4877  -15.7866   26.4443 C   0  0  0  0  0  0  0  0  0  0  0  0
    6.3336  -15.1903   26.1628 N   0  0  0  0  0  0  0  0  0  0  0  0
    6.4678  -13.8499   26.2069 C   0  0  0  0  0  0  0  0  0  0  0  0
    5.5705  -12.8318   26.0003 C   0  0  0  0  0  0  0  0  0  0  0  0
    5.9429  -11.5014   26.1122 C   0  0  0  0  0  0  0  0  0  0  0  0
    7.2478  -11.1802   26.4395 C   0  0  0  0  0  0  0  0  0  0  0  0
    8.1334  -12.2178   26.6426 C   0  0  0  0  0  0  0  0  0  0  0  0
    7.7885  -13.5533   26.5370 C   0  0  0  0  0  0  0  0  0  0  0  0
   10.4666  -17.2011   27.8616 C   0  0  0  0  0  0  0  0  0  0  0  0
    9.8026  -18.2580   28.0163 O   0  0  0  0  0  0  0  0  0  0  0  0
   11.3321  -16.8311   28.8808 O   0  0  0  0  0  0  0  0  0  0  0  0
  2  3  2  0
  2  1  1  0
  4  3  1  0
  5  4  2  0
  6  5  1  0
  7  6  1  0
  7  8  1  1
  9  7  1  0
 10  9  2  0
 11  5  1  0
 11 12  2  0
 12  2  1  0
 13  9  1  0
 14 20  1  0
 14 13  1  0
 14 15  1  6
 16 15  1  0
 17 16  1  0
 18 19  1  0
 18 17  1  0
 20 22  1  0
 21 20  2  0
 22 23  1  0
 23 34  1  0
 23 24  1  1
 24 25  1  0
 25 33  1  0
 26 27  1  0
 26 25  2  0
 27 28  1  0
 28 33  2  0
 28 29  1  0
 29 30  2  0
 30 31  1  0
 32 31  2  0
 33 32  1  0
 34 35  2  0
 34 36  1  0
M  END
$$$$
