HCS.pdb
     RDKit          3D

 23 23  0  0  1  0  0  0  0  0999 V2000
    9.7135  -15.3445   20.5951 N   0  0  0  0  0  0  0  0  0  0  0  0
    8.6985  -14.4997   21.1957 C   0  0  1  0  0  0  0  0  0  0  0  0
    7.4237  -14.7177   20.4440 C   0  0  0  0  0  0  0  0  0  0  0  0
    7.4831  -14.3713   19.0208 C   0  0  0  0  0  0  0  0  0  0  0  0
    7.7864  -13.1454   18.4875 C   0  0  0  0  0  0  0  0  0  0  0  0
    7.7315  -13.2498   17.1586 N   0  0  0  0  0  0  0  0  0  0  0  0
    7.4002  -14.5160   16.8578 C   0  0  0  0  0  0  0  0  0  0  0  0
    7.2424  -15.2245   17.9946 N   0  0  0  0  0  0  0  0  0  0  0  0
    8.5864  -14.6963   22.6469 C   0  0  0  0  0  0  0  0  0  0  0  0
    9.1609  -15.6845   23.1646 O   0  0  0  0  0  0  0  0  0  0  0  0
    7.8721  -13.8476   23.5187 N   0  0  0  0  0  0  0  0  0  0  0  0
    7.7805  -14.0044   24.9415 C   0  0  1  0  0  0  0  0  0  0  0  0
    6.8568  -13.0179   25.6039 C   0  0  0  0  0  0  0  0  0  0  0  0
    6.8437  -13.2008   27.4081 S   0  0  0  0  0  0  0  0  0  0  0  0
    7.2823  -15.3685   25.3140 C   0  0  0  0  0  0  0  0  0  0  0  0
    6.0691  -15.6698   25.1234 O   0  0  0  0  0  0  0  0  0  0  0  0
    9.0416  -18.5318   24.6791 O   0  0  0  0  0  0  0  0  0  0  0  0
    7.7298  -18.5903   25.1883 C   0  0  0  0  0  0  0  0  0  0  0  0
    7.6418  -17.6241   26.3776 C   0  0  2  0  0  0  0  0  0  0  0  0
    8.1310  -16.3479   25.8799 N   0  0  0  0  0  0  0  0  0  0  0  0
    8.5225  -18.1752   27.4310 C   0  0  0  0  0  0  0  0  0  0  0  0
    9.5908  -17.4432   27.9122 O   0  0  0  0  0  0  0  0  0  0  0  0
    8.3019  -19.3055   27.8887 O   0  0  0  0  0  0  0  0  0  0  0  0
  2  1  1  6
  2  9  1  0
  2  3  1  0
  3  4  1  0
  4  8  1  0
  4  5  2  0
  5  6  1  0
  7  6  1  0
  8  7  2  0
  9 11  1  0
 10  9  2  0
 11 12  1  0
 12 15  1  0
 13 14  1  0
 12 13  1  6
 15 16  2  0
 15 20  1  0
 18 17  1  0
 19 18  1  6
 19 21  1  0
 20 19  1  0
 21 22  1  0
 23 21  2  0
M  END
$$$$
