HCS.pdb
     RDKit          3D

 23 23  0  0  1  0  0  0  0  0999 V2000
   10.9230  -14.2111   19.7742 N   0  0  0  0  0  0  0  0  0  0  0  0
    9.5794  -14.1130   20.3124 C   0  0  1  0  0  0  0  0  0  0  0  0
    8.7091  -15.0474   19.5331 C   0  0  0  0  0  0  0  0  0  0  0  0
    8.3146  -14.5585   18.2085 C   0  0  0  0  0  0  0  0  0  0  0  0
    8.7055  -13.3846   17.6183 C   0  0  0  0  0  0  0  0  0  0  0  0
    8.1264  -13.3146   16.4184 N   0  0  0  0  0  0  0  0  0  0  0  0
    7.3845  -14.4218   16.2534 C   0  0  0  0  0  0  0  0  0  0  0  0
    7.4877  -15.2028   17.3483 N   0  0  0  0  0  0  0  0  0  0  0  0
    9.5371  -14.3174   21.7662 C   0  0  0  0  0  0  0  0  0  0  0  0
   10.4792  -14.9410   22.3121 O   0  0  0  0  0  0  0  0  0  0  0  0
    8.5036  -13.8601   22.6109 N   0  0  0  0  0  0  0  0  0  0  0  0
    8.3983  -14.1287   24.0159 C   0  0  1  0  0  0  0  0  0  0  0  0
    7.1658  -13.5482   24.6555 C   0  0  0  0  0  0  0  0  0  0  0  0
    7.0435  -13.9764   26.4135 S   0  0  0  0  0  0  0  0  0  0  0  0
    8.3671  -15.6017   24.2939 C   0  0  0  0  0  0  0  0  0  0  0  0
    7.3565  -16.2844   23.9598 O   0  0  0  0  0  0  0  0  0  0  0  0
   10.4496  -17.9188   23.2498 O   0  0  0  0  0  0  0  0  0  0  0  0
   10.4727  -18.3861   24.5782 C   0  0  0  0  0  0  0  0  0  0  0  0
    9.3679  -17.6564   25.3544 C   0  0  2  0  0  0  0  0  0  0  0  0
    9.4421  -16.2684   24.9258 N   0  0  0  0  0  0  0  0  0  0  0  0
    9.6961  -17.8049   26.7894 C   0  0  0  0  0  0  0  0  0  0  0  0
    9.9922  -16.6999   27.5638 O   0  0  0  0  0  0  0  0  0  0  0  0
    9.7063  -18.9317   27.3051 O   0  0  0  0  0  0  0  0  0  0  0  0
  2  1  1  6
  2  9  1  0
  2  3  1  0
  3  4  1  0
  4  8  1  0
  4  5  2  0
  5  6  1  0
  7  6  1  0
  8  7  2  0
  9 11  1  0
 10  9  2  0
 11 12  1  0
 12 15  1  0
 13 14  1  0
 12 13  1  6
 15 16  2  0
 15 20  1  0
 18 17  1  0
 19 18  1  6
 19 21  1  0
 20 19  1  0
 21 22  1  0
 23 21  2  0
M  END
$$$$
