HCS.pdb
     RDKit          3D

 23 23  0  0  1  0  0  0  0  0999 V2000
   11.3000  -13.8567   19.2796 N   0  0  0  0  0  0  0  0  0  0  0  0
   10.4286  -14.1842   20.3921 C   0  0  1  0  0  0  0  0  0  0  0  0
    9.2612  -14.9436   19.8458 C   0  0  0  0  0  0  0  0  0  0  0  0
    8.5876  -14.3026   18.7125 C   0  0  0  0  0  0  0  0  0  0  0  0
    7.8617  -13.1401   18.7412 C   0  0  0  0  0  0  0  0  0  0  0  0
    7.4171  -12.9021   17.5060 N   0  0  0  0  0  0  0  0  0  0  0  0
    7.8530  -13.8940   16.7125 C   0  0  0  0  0  0  0  0  0  0  0  0
    8.5780  -14.7691   17.4392 N   0  0  0  0  0  0  0  0  0  0  0  0
   11.1372  -14.8662   21.4829 C   0  0  0  0  0  0  0  0  0  0  0  0
   12.3594  -14.6318   21.6432 O   0  0  0  0  0  0  0  0  0  0  0  0
   10.5420  -15.7790   22.3791 N   0  0  0  0  0  0  0  0  0  0  0  0
   10.9505  -15.9973   23.7366 C   0  0  1  0  0  0  0  0  0  0  0  0
   10.7501  -14.8039   24.6315 C   0  0  0  0  0  0  0  0  0  0  0  0
    9.0693  -14.1340   24.5091 S   0  0  0  0  0  0  0  0  0  0  0  0
   10.1941  -17.1298   24.3636 C   0  0  0  0  0  0  0  0  0  0  0  0
    8.9586  -17.0059   24.6029 O   0  0  0  0  0  0  0  0  0  0  0  0
   11.9235  -20.6093   24.2965 O   0  0  0  0  0  0  0  0  0  0  0  0
   10.5398  -20.7101   24.5391 C   0  0  0  0  0  0  0  0  0  0  0  0
   10.1048  -19.4604   25.3166 C   0  0  2  0  0  0  0  0  0  0  0  0
   10.8193  -18.3517   24.7036 N   0  0  0  0  0  0  0  0  0  0  0  0
   10.5234  -19.6732   26.7196 C   0  0  0  0  0  0  0  0  0  0  0  0
   11.4681  -18.8536   27.3063 O   0  0  0  0  0  0  0  0  0  0  0  0
   10.0228  -20.5959   27.3782 O   0  0  0  0  0  0  0  0  0  0  0  0
  2  1  1  6
  2  9  1  0
  2  3  1  0
  3  4  1  0
  4  8  1  0
  4  5  2  0
  5  6  1  0
  7  6  1  0
  8  7  2  0
  9 11  1  0
 10  9  2  0
 11 12  1  0
 12 15  1  0
 13 14  1  0
 12 13  1  1
 15 16  2  0
 15 20  1  0
 18 17  1  0
 19 18  1  6
 19 21  1  0
 20 19  1  0
 21 22  1  0
 23 21  2  0
M  END
$$$$
