HCS.pdb
     RDKit          3D

 23 23  0  0  1  0  0  0  0  0999 V2000
    8.6309  -18.0013   18.3419 N   0  0  0  0  0  0  0  0  0  0  0  0
    9.5700  -16.9234   18.0956 C   0  0  1  0  0  0  0  0  0  0  0  0
    9.0083  -16.0736   17.0002 C   0  0  0  0  0  0  0  0  0  0  0  0
    9.0465  -16.6844   15.6681 C   0  0  0  0  0  0  0  0  0  0  0  0
    9.5480  -17.9190   15.3466 C   0  0  0  0  0  0  0  0  0  0  0  0
    9.3941  -18.0965   14.0333 N   0  0  0  0  0  0  0  0  0  0  0  0
    8.8071  -16.9963   13.5346 C   0  0  0  0  0  0  0  0  0  0  0  0
    8.5843  -16.1124   14.5287 N   0  0  0  0  0  0  0  0  0  0  0  0
    9.9156  -16.1852   19.3175 C   0  0  0  0  0  0  0  0  0  0  0  0
    9.4232  -15.0437   19.4882 O   0  0  0  0  0  0  0  0  0  0  0  0
   10.7715  -16.6664   20.3306 N   0  0  0  0  0  0  0  0  0  0  0  0
   11.0847  -15.9792   21.5500 C   0  0  1  0  0  0  0  0  0  0  0  0
    9.8953  -15.7547   22.4445 C   0  0  0  0  0  0  0  0  0  0  0  0
    9.0926  -17.3111   22.9156 S   0  0  0  0  0  0  0  0  0  0  0  0
   12.0917  -16.7344   22.3644 C   0  0  0  0  0  0  0  0  0  0  0  0
   11.9718  -17.9844   22.5130 O   0  0  0  0  0  0  0  0  0  0  0  0
   15.8961  -15.4765   22.7506 O   0  0  0  0  0  0  0  0  0  0  0  0
   15.3237  -15.8002   23.9960 C   0  0  0  0  0  0  0  0  0  0  0  0
   14.1958  -16.8111   23.7483 C   0  0  2  0  0  0  0  0  0  0  0  0
   13.1890  -16.0922   22.9833 N   0  0  0  0  0  0  0  0  0  0  0  0
   13.6903  -17.2096   25.0805 C   0  0  0  0  0  0  0  0  0  0  0  0
   14.4469  -18.0135   25.9110 O   0  0  0  0  0  0  0  0  0  0  0  0
   12.5764  -16.8194   25.4583 O   0  0  0  0  0  0  0  0  0  0  0  0
  2  1  1  1
  2  9  1  0
  2  3  1  0
  3  4  1  0
  4  8  1  0
  4  5  2  0
  5  6  1  0
  7  6  1  0
  8  7  2  0
  9 11  1  0
 10  9  2  0
 11 12  1  0
 12 15  1  0
 13 14  1  0
 12 13  1  1
 15 16  2  0
 15 20  1  0
 18 17  1  0
 19 18  1  1
 19 21  1  0
 20 19  1  0
 21 22  1  0
 23 21  2  0
M  END
$$$$
