HCS.pdb
     RDKit          3D

 23 23  0  0  1  0  0  0  0  0999 V2000
    9.4508  -17.3575   14.8186 N   0  0  0  0  0  0  0  0  0  0  0  0
    9.7105  -16.5747   16.0120 C   0  0  1  0  0  0  0  0  0  0  0  0
    8.5247  -15.6924   16.2429 C   0  0  0  0  0  0  0  0  0  0  0  0
    8.3112  -14.6692   15.2151 C   0  0  0  0  0  0  0  0  0  0  0  0
    9.0832  -14.4502   14.1037 C   0  0  0  0  0  0  0  0  0  0  0  0
    8.5515  -13.4301   13.4278 N   0  0  0  0  0  0  0  0  0  0  0  0
    7.4654  -13.0127   14.0984 C   0  0  0  0  0  0  0  0  0  0  0  0
    7.3001  -13.7655   15.2053 N   0  0  0  0  0  0  0  0  0  0  0  0
   10.0787  -17.4074   17.1645 C   0  0  0  0  0  0  0  0  0  0  0  0
    9.8222  -18.6350   17.1241 O   0  0  0  0  0  0  0  0  0  0  0  0
   10.7084  -16.9276   18.3324 N   0  0  0  0  0  0  0  0  0  0  0  0
   11.1343  -17.7350   19.4387 C   0  0  1  0  0  0  0  0  0  0  0  0
   12.2911  -18.6432   19.1191 C   0  0  0  0  0  0  0  0  0  0  0  0
   13.2230  -18.0767   17.6702 S   0  0  0  0  0  0  0  0  0  0  0  0
   11.5649  -16.8924   20.6016 C   0  0  0  0  0  0  0  0  0  0  0  0
   12.3263  -15.9005   20.4130 O   0  0  0  0  0  0  0  0  0  0  0  0
    9.1805  -15.7098   23.2170 O   0  0  0  0  0  0  0  0  0  0  0  0
   10.2290  -16.3058   23.9443 C   0  0  0  0  0  0  0  0  0  0  0  0
   11.4777  -16.3130   23.0521 C   0  0  2  0  0  0  0  0  0  0  0  0
   11.1454  -17.1683   21.9235 N   0  0  0  0  0  0  0  0  0  0  0  0
   12.5723  -16.8832   23.8680 C   0  0  0  0  0  0  0  0  0  0  0  0
   13.1609  -16.1435   24.8753 O   0  0  0  0  0  0  0  0  0  0  0  0
   12.9676  -18.0369   23.6476 O   0  0  0  0  0  0  0  0  0  0  0  0
  2  1  1  6
  2  9  1  0
  2  3  1  0
  3  4  1  0
  4  8  1  0
  4  5  2  0
  5  6  1  0
  7  6  1  0
  8  7  2  0
  9 11  1  0
 10  9  2  0
 11 12  1  0
 12 15  1  0
 13 14  1  0
 12 13  1  6
 15 16  2  0
 15 20  1  0
 18 17  1  0
 19 18  1  1
 19 21  1  0
 20 19  1  0
 21 22  1  0
 23 21  2  0
M  END
$$$$
