HCS.pdb
     RDKit          3D

 23 23  0  0  1  0  0  0  0  0999 V2000
   10.2214  -14.1115   20.9774 N   0  0  0  0  0  0  0  0  0  0  0  0
    8.9834  -13.9949   21.7246 C   0  0  1  0  0  0  0  0  0  0  0  0
    7.9468  -14.8070   21.0148 C   0  0  0  0  0  0  0  0  0  0  0  0
    7.6894  -14.3996   19.6303 C   0  0  0  0  0  0  0  0  0  0  0  0
    8.3363  -13.4128   18.9325 C   0  0  0  0  0  0  0  0  0  0  0  0
    7.8053  -13.3576   17.7098 N   0  0  0  0  0  0  0  0  0  0  0  0
    6.8422  -14.2906   17.6361 C   0  0  0  0  0  0  0  0  0  0  0  0
    6.7552  -14.9449   18.8124 N   0  0  0  0  0  0  0  0  0  0  0  0
    9.1472  -14.3309   23.1450 C   0  0  0  0  0  0  0  0  0  0  0  0
   10.1761  -14.9559   23.4989 O   0  0  0  0  0  0  0  0  0  0  0  0
    8.2237  -14.0006   24.1591 N   0  0  0  0  0  0  0  0  0  0  0  0
    8.3831  -14.2900   25.5549 C   0  0  1  0  0  0  0  0  0  0  0  0
    7.3657  -13.6162   26.4359 C   0  0  0  0  0  0  0  0  0  0  0  0
    5.7138  -13.6085   25.6878 S   0  0  0  0  0  0  0  0  0  0  0  0
    8.2739  -15.7601   25.8282 C   0  0  0  0  0  0  0  0  0  0  0  0
    7.2670  -16.4044   25.4157 O   0  0  0  0  0  0  0  0  0  0  0  0
   11.4111  -17.8237   26.0153 O   0  0  0  0  0  0  0  0  0  0  0  0
   10.2154  -18.5627   25.9262 C   0  0  0  0  0  0  0  0  0  0  0  0
    9.1754  -17.8883   26.8313 C   0  0  2  0  0  0  0  0  0  0  0  0
    9.2701  -16.4661   26.5414 N   0  0  0  0  0  0  0  0  0  0  0  0
    9.5727  -18.1913   28.2239 C   0  0  0  0  0  0  0  0  0  0  0  0
    9.5562  -19.4894   28.6962 O   0  0  0  0  0  0  0  0  0  0  0  0
    9.9247  -17.2725   28.9773 O   0  0  0  0  0  0  0  0  0  0  0  0
  2  1  1  6
  2  9  1  0
  2  3  1  0
  3  4  1  0
  4  8  1  0
  4  5  2  0
  5  6  1  0
  7  6  1  0
  8  7  2  0
  9 11  1  0
 10  9  2  0
 11 12  1  0
 12 15  1  0
 13 14  1  0
 12 13  1  1
 15 16  2  0
 15 20  1  0
 18 17  1  0
 19 18  1  6
 19 21  1  0
 20 19  1  0
 21 22  1  0
 23 21  2  0
M  END
$$$$
