HCS.pdb
     RDKit          3D

 23 23  0  0  1  0  0  0  0  0999 V2000
    7.1507  -20.8555   19.2363 N   0  0  0  0  0  0  0  0  0  0  0  0
    6.9833  -21.4587   20.5449 C   0  0  1  0  0  0  0  0  0  0  0  0
    7.3397  -22.9067   20.4261 C   0  0  0  0  0  0  0  0  0  0  0  0
    6.4561  -23.6871   19.5547 C   0  0  0  0  0  0  0  0  0  0  0  0
    5.1099  -23.8866   19.7194 C   0  0  0  0  0  0  0  0  0  0  0  0
    4.6813  -24.6521   18.7142 N   0  0  0  0  0  0  0  0  0  0  0  0
    5.7352  -24.9309   17.9299 C   0  0  0  0  0  0  0  0  0  0  0  0
    6.8408  -24.3438   18.4323 N   0  0  0  0  0  0  0  0  0  0  0  0
    7.7151  -20.7398   21.5960 C   0  0  0  0  0  0  0  0  0  0  0  0
    8.9318  -20.4908   21.4169 O   0  0  0  0  0  0  0  0  0  0  0  0
    7.1483  -20.3000   22.8108 N   0  0  0  0  0  0  0  0  0  0  0  0
    7.8476  -19.5996   23.8489 C   0  0  1  0  0  0  0  0  0  0  0  0
    6.9880  -18.6297   24.6142 C   0  0  0  0  0  0  0  0  0  0  0  0
    6.2652  -17.3621   23.5373 S   0  0  0  0  0  0  0  0  0  0  0  0
    8.4234  -20.5454   24.8597 C   0  0  0  0  0  0  0  0  0  0  0  0
    7.6581  -21.3107   25.5137 O   0  0  0  0  0  0  0  0  0  0  0  0
   12.3661  -20.3675   25.4262 O   0  0  0  0  0  0  0  0  0  0  0  0
   11.8648  -21.6444   25.7454 C   0  0  0  0  0  0  0  0  0  0  0  0
   10.3862  -21.4891   26.1265 C   0  0  2  0  0  0  0  0  0  0  0  0
    9.8125  -20.6161   25.1143 N   0  0  0  0  0  0  0  0  0  0  0  0
   10.3626  -20.8634   27.4669 C   0  0  0  0  0  0  0  0  0  0  0  0
   10.7609  -21.5720   28.5839 O   0  0  0  0  0  0  0  0  0  0  0  0
    9.9818  -19.6907   27.5922 O   0  0  0  0  0  0  0  0  0  0  0  0
  2  1  1  6
  2  9  1  0
  2  3  1  0
  3  4  1  0
  4  8  1  0
  4  5  2  0
  5  6  1  0
  7  6  1  0
  8  7  2  0
  9 11  1  0
 10  9  2  0
 11 12  1  0
 12 15  1  0
 13 14  1  0
 12 13  1  1
 15 16  2  0
 15 20  1  0
 18 17  1  0
 19 18  1  6
 19 21  1  0
 20 19  1  0
 21 22  1  0
 23 21  2  0
M  END
$$$$
