HCS.pdb
     RDKit          3D

 23 23  0  0  1  0  0  0  0  0999 V2000
    7.5657  -17.7801   21.5872 N   0  0  0  0  0  0  0  0  0  0  0  0
    7.0279  -17.5164   22.9084 C   0  0  1  0  0  0  0  0  0  0  0  0
    7.1614  -18.7715   23.7114 C   0  0  0  0  0  0  0  0  0  0  0  0
    6.2004  -19.8245   23.3695 C   0  0  0  0  0  0  0  0  0  0  0  0
    5.8470  -20.2341   22.1100 C   0  0  0  0  0  0  0  0  0  0  0  0
    4.9466  -21.2109   22.2325 N   0  0  0  0  0  0  0  0  0  0  0  0
    4.7350  -21.4148   23.5429 C   0  0  0  0  0  0  0  0  0  0  0  0
    5.5003  -20.5680   24.2617 N   0  0  0  0  0  0  0  0  0  0  0  0
    7.6260  -16.3305   23.5354 C   0  0  0  0  0  0  0  0  0  0  0  0
    8.8478  -16.1085   23.3552 O   0  0  0  0  0  0  0  0  0  0  0  0
    6.9234  -15.4064   24.3372 N   0  0  0  0  0  0  0  0  0  0  0  0
    7.5220  -14.4574   25.2307 C   0  0  1  0  0  0  0  0  0  0  0  0
    6.5341  -13.5252   25.8789 C   0  0  0  0  0  0  0  0  0  0  0  0
    7.3384  -12.3584   27.0104 S   0  0  0  0  0  0  0  0  0  0  0  0
    8.2571  -15.1389   26.3456 C   0  0  0  0  0  0  0  0  0  0  0  0
    7.6754  -16.0261   27.0337 O   0  0  0  0  0  0  0  0  0  0  0  0
   11.8836  -15.7184   25.8238 O   0  0  0  0  0  0  0  0  0  0  0  0
   11.8323  -15.4426   27.2040 C   0  0  0  0  0  0  0  0  0  0  0  0
   10.3694  -15.5568   27.6539 C   0  0  2  0  0  0  0  0  0  0  0  0
    9.5983  -14.8227   26.6628 N   0  0  0  0  0  0  0  0  0  0  0  0
   10.2909  -14.9229   28.9885 C   0  0  0  0  0  0  0  0  0  0  0  0
   10.9395  -15.4799   30.0737 O   0  0  0  0  0  0  0  0  0  0  0  0
    9.6370  -13.8809   29.1375 O   0  0  0  0  0  0  0  0  0  0  0  0
  2  1  1  6
  2  9  1  0
  2  3  1  0
  3  4  1  0
  4  8  1  0
  4  5  2  0
  5  6  1  0
  7  6  1  0
  8  7  2  0
  9 11  1  0
 10  9  2  0
 11 12  1  0
 12 15  1  0
 13 14  1  0
 12 13  1  1
 15 16  2  0
 15 20  1  0
 18 17  1  0
 19 18  1  6
 19 21  1  0
 20 19  1  0
 21 22  1  0
 23 21  2  0
M  END
$$$$
