HCS.pdb
     RDKit          3D

 23 23  0  0  1  0  0  0  0  0999 V2000
    9.1032  -17.0291   17.4753 N   0  0  0  0  0  0  0  0  0  0  0  0
    8.1025  -17.0718   18.5246 C   0  0  1  0  0  0  0  0  0  0  0  0
    7.6381  -18.4882   18.6515 C   0  0  0  0  0  0  0  0  0  0  0  0
    6.9635  -19.0220   17.4644 C   0  0  0  0  0  0  0  0  0  0  0  0
    5.8061  -18.5530   16.8991 C   0  0  0  0  0  0  0  0  0  0  0  0
    5.5291  -19.3130   15.8381 N   0  0  0  0  0  0  0  0  0  0  0  0
    6.4918  -20.2436   15.7348 C   0  0  0  0  0  0  0  0  0  0  0  0
    7.3873  -20.0805   16.7303 N   0  0  0  0  0  0  0  0  0  0  0  0
    8.5754  -16.4753   19.7807 C   0  0  0  0  0  0  0  0  0  0  0  0
    9.7409  -16.7347   20.1665 O   0  0  0  0  0  0  0  0  0  0  0  0
    7.8098  -15.6198   20.6008 N   0  0  0  0  0  0  0  0  0  0  0  0
    8.2208  -15.1010   21.8733 C   0  0  1  0  0  0  0  0  0  0  0  0
    7.1720  -14.2656   22.5570 C   0  0  0  0  0  0  0  0  0  0  0  0
    7.6626  -13.7973   24.2389 S   0  0  0  0  0  0  0  0  0  0  0  0
    8.5756  -16.2014   22.8277 C   0  0  0  0  0  0  0  0  0  0  0  0
    7.7305  -17.1050   23.0895 O   0  0  0  0  0  0  0  0  0  0  0  0
   12.3316  -16.9133   23.4170 O   0  0  0  0  0  0  0  0  0  0  0  0
   11.4790  -17.9548   23.8314 C   0  0  0  0  0  0  0  0  0  0  0  0
   10.1997  -17.3214   24.3949 C   0  0  2  0  0  0  0  0  0  0  0  0
    9.8400  -16.2693   23.4572 N   0  0  0  0  0  0  0  0  0  0  0  0
   10.5533  -16.7740   25.7232 C   0  0  0  0  0  0  0  0  0  0  0  0
   10.9136  -17.6134   26.7595 O   0  0  0  0  0  0  0  0  0  0  0  0
   10.5269  -15.5493   25.9112 O   0  0  0  0  0  0  0  0  0  0  0  0
  2  1  1  6
  2  9  1  0
  2  3  1  0
  3  4  1  0
  4  8  1  0
  4  5  2  0
  5  6  1  0
  7  6  1  0
  8  7  2  0
  9 11  1  0
 10  9  2  0
 11 12  1  0
 12 15  1  0
 13 14  1  0
 12 13  1  1
 15 16  2  0
 15 20  1  0
 18 17  1  0
 19 18  1  6
 19 21  1  0
 20 19  1  0
 21 22  1  0
 23 21  2  0
M  END
$$$$
