HCS.pdb
     RDKit          3D

 23 23  0  0  1  0  0  0  0  0999 V2000
   12.9752  -18.1243   17.7723 N   0  0  0  0  0  0  0  0  0  0  0  0
   12.3016  -18.8916   18.8028 C   0  0  1  0  0  0  0  0  0  0  0  0
   12.5213  -20.3412   18.5058 C   0  0  0  0  0  0  0  0  0  0  0  0
   11.9599  -20.7989   17.2313 C   0  0  0  0  0  0  0  0  0  0  0  0
   10.7741  -20.4031   16.6687 C   0  0  0  0  0  0  0  0  0  0  0  0
   10.6303  -21.0525   15.5122 N   0  0  0  0  0  0  0  0  0  0  0  0
   11.7034  -21.8429   15.3469 C   0  0  0  0  0  0  0  0  0  0  0  0
   12.5363  -21.7004   16.3983 N   0  0  0  0  0  0  0  0  0  0  0  0
   12.6957  -18.4851   20.1580 C   0  0  0  0  0  0  0  0  0  0  0  0
   13.9127  -18.2954   20.3974 O   0  0  0  0  0  0  0  0  0  0  0  0
   11.7988  -18.2881   21.2291 N   0  0  0  0  0  0  0  0  0  0  0  0
   12.1656  -17.8953   22.5590 C   0  0  1  0  0  0  0  0  0  0  0  0
   11.0457  -17.2563   23.3353 C   0  0  0  0  0  0  0  0  0  0  0  0
   10.3731  -15.8002   22.4889 S   0  0  0  0  0  0  0  0  0  0  0  0
   12.6301  -19.0671   23.3707 C   0  0  0  0  0  0  0  0  0  0  0  0
   12.0333  -20.1776   23.2724 O   0  0  0  0  0  0  0  0  0  0  0  0
   16.2026  -21.1327   25.7692 O   0  0  0  0  0  0  0  0  0  0  0  0
   15.7079  -19.9977   25.0979 C   0  0  0  0  0  0  0  0  0  0  0  0
   14.1764  -20.0934   25.0748 C   0  0  2  0  0  0  0  0  0  0  0  0
   13.7284  -18.9772   24.2568 N   0  0  0  0  0  0  0  0  0  0  0  0
   13.7271  -19.9593   26.4780 C   0  0  0  0  0  0  0  0  0  0  0  0
   13.1091  -18.8032   26.9139 O   0  0  0  0  0  0  0  0  0  0  0  0
   13.9057  -20.8926   27.2735 O   0  0  0  0  0  0  0  0  0  0  0  0
  2  1  1  6
  2  9  1  0
  2  3  1  0
  3  4  1  0
  4  8  1  0
  4  5  2  0
  5  6  1  0
  7  6  1  0
  8  7  2  0
  9 11  1  0
 10  9  2  0
 11 12  1  0
 12 15  1  0
 13 14  1  0
 12 13  1  1
 15 16  2  0
 15 20  1  0
 18 17  1  0
 19 18  1  1
 19 21  1  0
 20 19  1  0
 21 22  1  0
 23 21  2  0
M  END
$$$$
