SIT.pdb
     RDKit          3D

 22 21  0  0  1  0  0  0  0  0999 V2000
    7.0151  -17.1178   21.1258 O   0  0  0  0  0  0  0  0  0  0  0  0
    6.0506  -16.1437   21.2485 C   0  0  0  0  0  0  0  0  0  0  0  0
    6.6615  -14.7650   21.2796 C   0  0  2  0  0  0  0  0  0  0  0  0
    7.4788  -14.5930   20.1028 N   0  0  0  0  0  0  0  0  0  0  0  0
    7.5528  -14.6717   22.4870 C   0  0  0  0  0  0  0  0  0  0  0  0
    8.8128  -14.7104   22.3443 O   0  0  0  0  0  0  0  0  0  0  0  0
    5.8753  -11.4814   26.3400 C   0  0  0  0  0  0  0  0  0  0  0  0
    6.7354  -12.2715   25.3633 C   0  0  0  0  0  0  0  0  0  0  0  0
    7.2519  -13.5306   25.9535 C   0  0  2  0  0  0  0  0  0  0  0  0
    8.1556  -13.3095   27.1452 C   0  0  0  0  0  0  0  0  0  0  0  0
    7.9608  -14.3779   24.9262 C   0  0  2  0  0  0  0  0  0  0  0  0
    7.0460  -14.5415   23.7884 N   0  0  0  0  0  0  0  0  0  0  0  0
    8.3996  -15.6958   25.4107 C   0  0  0  0  0  0  0  0  0  0  0  0
    7.6629  -16.4183   26.0846 O   0  0  0  0  0  0  0  0  0  0  0  0
   10.7136  -18.1384   23.1524 C   0  0  0  0  0  0  0  0  0  0  0  0
   11.2614  -17.9244   24.5412 C   0  0  1  0  0  0  0  0  0  0  0  0
   12.2227  -16.8920   24.5179 O   0  0  0  0  0  0  0  0  0  0  0  0
   10.1860  -17.4668   25.5100 C   0  0  2  0  0  0  0  0  0  0  0  0
    9.7161  -16.1629   25.0976 N   0  0  0  0  0  0  0  0  0  0  0  0
   10.8273  -17.3333   26.8379 C   0  0  0  0  0  0  0  0  0  0  0  0
   11.2525  -18.3465   27.4309 O   0  0  0  0  0  0  0  0  0  0  0  0
   10.9669  -16.0913   27.4435 O   0  0  0  0  0  0  0  0  0  0  0  0
  1  2  1  0
  3  2  1  0
  3  4  1  6
  3  5  1  0
  5 12  1  0
  6  5  2  0
  8  7  1  0
  9  8  1  0
  9 11  1  0
  9 10  1  1
 11 13  1  0
 11 12  1  6
 13 19  1  0
 13 14  2  0
 16 15  1  6
 16 18  1  0
 17 16  1  0
 18 20  1  0
 18 19  1  6
 20 21  2  0
 20 22  1  0
M  END
$$$$
