SIT.pdb
     RDKit          3D

 22 21  0  0  1  0  0  0  0  0999 V2000
    7.4148  -16.8956   20.4624 O   0  0  0  0  0  0  0  0  0  0  0  0
    6.5250  -16.0120   21.0294 C   0  0  0  0  0  0  0  0  0  0  0  0
    7.1026  -14.6206   21.1036 C   0  0  2  0  0  0  0  0  0  0  0  0
    8.0825  -14.4685   20.0553 N   0  0  0  0  0  0  0  0  0  0  0  0
    7.8034  -14.4712   22.4255 C   0  0  0  0  0  0  0  0  0  0  0  0
    9.0701  -14.5218   22.4761 O   0  0  0  0  0  0  0  0  0  0  0  0
    5.7853  -11.1754   25.9623 C   0  0  0  0  0  0  0  0  0  0  0  0
    6.7922  -12.0060   25.1786 C   0  0  0  0  0  0  0  0  0  0  0  0
    7.0745  -13.3114   25.8240 C   0  0  2  0  0  0  0  0  0  0  0  0
    7.8066  -13.1852   27.1408 C   0  0  0  0  0  0  0  0  0  0  0  0
    7.8344  -14.2350   24.9045 C   0  0  2  0  0  0  0  0  0  0  0  0
    7.1085  -14.2748   23.6279 N   0  0  0  0  0  0  0  0  0  0  0  0
    8.0206  -15.6006   25.4188 C   0  0  0  0  0  0  0  0  0  0  0  0
    7.0642  -16.3171   25.7203 O   0  0  0  0  0  0  0  0  0  0  0  0
    9.8048  -18.2872   23.5987 C   0  0  0  0  0  0  0  0  0  0  0  0
   10.4907  -18.1407   24.9339 C   0  0  1  0  0  0  0  0  0  0  0  0
   11.6019  -17.2810   24.8042 O   0  0  0  0  0  0  0  0  0  0  0  0
    9.5859  -17.4944   25.9674 C   0  0  2  0  0  0  0  0  0  0  0  0
    9.3439  -16.1230   25.5778 N   0  0  0  0  0  0  0  0  0  0  0  0
   10.3259  -17.4916   27.2500 C   0  0  0  0  0  0  0  0  0  0  0  0
   10.5173  -18.5625   27.8629 O   0  0  0  0  0  0  0  0  0  0  0  0
   10.8164  -16.3101   27.7905 O   0  0  0  0  0  0  0  0  0  0  0  0
  1  2  1  0
  3  2  1  0
  3  4  1  6
  3  5  1  0
  5 12  1  0
  6  5  2  0
  8  7  1  0
  9  8  1  0
  9 11  1  0
  9 10  1  1
 11 13  1  0
 11 12  1  6
 13 19  1  0
 13 14  2  0
 16 15  1  6
 16 18  1  0
 17 16  1  0
 18 20  1  0
 18 19  1  6
 20 21  2  0
 20 22  1  0
M  END
$$$$
