SIT.pdb
     RDKit          3D

 22 21  0  0  1  0  0  0  0  0999 V2000
    6.7545  -16.6055   19.6040 O   0  0  0  0  0  0  0  0  0  0  0  0
    6.9952  -16.3170   20.9280 C   0  0  0  0  0  0  0  0  0  0  0  0
    7.1025  -14.8299   21.1565 C   0  0  2  0  0  0  0  0  0  0  0  0
    7.8648  -14.2486   20.0780 N   0  0  0  0  0  0  0  0  0  0  0  0
    7.8557  -14.6034   22.4381 C   0  0  0  0  0  0  0  0  0  0  0  0
    9.1190  -14.4883   22.4142 O   0  0  0  0  0  0  0  0  0  0  0  0
    5.9345  -11.4650   26.2162 C   0  0  0  0  0  0  0  0  0  0  0  0
    6.8318  -12.2804   25.2952 C   0  0  0  0  0  0  0  0  0  0  0  0
    7.2244  -13.5804   25.8921 C   0  0  2  0  0  0  0  0  0  0  0  0
    8.0003  -13.4397   27.1821 C   0  0  0  0  0  0  0  0  0  0  0  0
    8.0042  -14.4281   24.9179 C   0  0  2  0  0  0  0  0  0  0  0  0
    7.2143  -14.5117   23.6820 N   0  0  0  0  0  0  0  0  0  0  0  0
    8.3280  -15.7801   25.3989 C   0  0  0  0  0  0  0  0  0  0  0  0
    7.4628  -16.5344   25.8476 O   0  0  0  0  0  0  0  0  0  0  0  0
   10.4921  -18.4809   23.5732 C   0  0  0  0  0  0  0  0  0  0  0  0
   11.0912  -18.1480   24.9167 C   0  0  1  0  0  0  0  0  0  0  0  0
   12.0956  -17.1697   24.7587 O   0  0  0  0  0  0  0  0  0  0  0  0
   10.0671  -17.5413   25.8588 C   0  0  2  0  0  0  0  0  0  0  0  0
    9.6815  -16.2438   25.3498 N   0  0  0  0  0  0  0  0  0  0  0  0
   10.7392  -17.3495   27.1642 C   0  0  0  0  0  0  0  0  0  0  0  0
   10.9940  -16.1973   27.5723 O   0  0  0  0  0  0  0  0  0  0  0  0
   11.0956  -18.4363   27.9520 O   0  0  0  0  0  0  0  0  0  0  0  0
  1  2  1  0
  3  2  1  0
  3  4  1  6
  3  5  1  0
  5 12  1  0
  6  5  2  0
  8  7  1  0
  9  8  1  0
  9 11  1  0
  9 10  1  1
 11 13  1  0
 11 12  1  6
 13 19  1  0
 13 14  2  0
 16 15  1  6
 16 18  1  0
 17 16  1  0
 18 20  1  0
 18 19  1  6
 20 21  2  0
 20 22  1  0
M  END
$$$$
