SIT.pdb
     RDKit          3D

 22 21  0  0  1  0  0  0  0  0999 V2000
    5.8349  -20.5748   23.7976 O   0  0  0  0  0  0  0  0  0  0  0  0
    6.0074  -19.5022   24.6424 C   0  0  0  0  0  0  0  0  0  0  0  0
    5.2066  -18.3080   24.1865 C   0  0  2  0  0  0  0  0  0  0  0  0
    4.5907  -18.6190   22.9191 N   0  0  0  0  0  0  0  0  0  0  0  0
    6.1527  -17.1580   23.9783 C   0  0  0  0  0  0  0  0  0  0  0  0
    6.6607  -16.9599   22.8327 O   0  0  0  0  0  0  0  0  0  0  0  0
    5.9343  -12.5923   26.8976 C   0  0  0  0  0  0  0  0  0  0  0  0
    6.1886  -13.5567   25.7473 C   0  0  0  0  0  0  0  0  0  0  0  0
    7.4841  -14.2671   25.8795 C   0  0  2  0  0  0  0  0  0  0  0  0
    8.6822  -13.3463   25.8332 C   0  0  0  0  0  0  0  0  0  0  0  0
    7.6336  -15.3513   24.8411 C   0  0  2  0  0  0  0  0  0  0  0  0
    6.5062  -16.2776   25.0113 N   0  0  0  0  0  0  0  0  0  0  0  0
    8.9040  -16.0907   24.9005 C   0  0  0  0  0  0  0  0  0  0  0  0
    9.2752  -16.6627   25.9272 O   0  0  0  0  0  0  0  0  0  0  0  0
   10.2467  -17.9893   21.5465 C   0  0  0  0  0  0  0  0  0  0  0  0
   11.3224  -17.2137   22.2649 C   0  0  1  0  0  0  0  0  0  0  0  0
   11.4762  -15.9471   21.6626 O   0  0  0  0  0  0  0  0  0  0  0  0
   10.9537  -16.9417   23.7121 C   0  0  2  0  0  0  0  0  0  0  0  0
    9.7408  -16.1548   23.7408 N   0  0  0  0  0  0  0  0  0  0  0  0
   12.0489  -16.1323   24.2936 C   0  0  0  0  0  0  0  0  0  0  0  0
   11.8315  -14.9587   24.6601 O   0  0  0  0  0  0  0  0  0  0  0  0
   13.3262  -16.6574   24.4410 O   0  0  0  0  0  0  0  0  0  0  0  0
  1  2  1  0
  3  2  1  0
  3  4  1  6
  3  5  1  0
  5 12  1  0
  6  5  2  0
  8  7  1  0
  9  8  1  0
  9 11  1  0
  9 10  1  6
 11 13  1  0
 11 12  1  1
 13 19  1  0
 13 14  2  0
 16 15  1  6
 16 18  1  0
 17 16  1  0
 18 20  1  0
 18 19  1  6
 20 21  2  0
 20 22  1  0
M  END
$$$$
