SIT.pdb
     RDKit          3D

 22 21  0  0  1  0  0  0  0  0999 V2000
    6.5256  -16.9789   19.5544 O   0  0  0  0  0  0  0  0  0  0  0  0
    6.9723  -16.6152   20.8042 C   0  0  0  0  0  0  0  0  0  0  0  0
    7.3241  -15.1494   20.8580 C   0  0  2  0  0  0  0  0  0  0  0  0
    8.2683  -14.8599   19.8059 N   0  0  0  0  0  0  0  0  0  0  0  0
    7.9922  -14.8733   22.1765 C   0  0  0  0  0  0  0  0  0  0  0  0
    9.2449  -15.0359   22.2940 O   0  0  0  0  0  0  0  0  0  0  0  0
    7.2378  -11.6764   27.3457 C   0  0  0  0  0  0  0  0  0  0  0  0
    7.9232  -12.8177   26.6070 C   0  0  0  0  0  0  0  0  0  0  0  0
    7.2498  -13.1498   25.3276 C   0  0  2  0  0  0  0  0  0  0  0  0
    5.7923  -13.5158   25.4928 C   0  0  0  0  0  0  0  0  0  0  0  0
    7.9709  -14.2488   24.5872 C   0  0  2  0  0  0  0  0  0  0  0  0
    7.2812  -14.4362   23.3037 N   0  0  0  0  0  0  0  0  0  0  0  0
    8.0480  -15.5293   25.3072 C   0  0  0  0  0  0  0  0  0  0  0  0
    7.0360  -16.1423   25.6525 O   0  0  0  0  0  0  0  0  0  0  0  0
    9.5674  -18.6537   24.0979 C   0  0  0  0  0  0  0  0  0  0  0  0
   10.3020  -18.2762   25.3598 C   0  0  1  0  0  0  0  0  0  0  0  0
   11.4516  -17.5264   25.0330 O   0  0  0  0  0  0  0  0  0  0  0  0
    9.4651  -17.3811   26.2560 C   0  0  2  0  0  0  0  0  0  0  0  0
    9.3276  -16.0892   25.6211 N   0  0  0  0  0  0  0  0  0  0  0  0
   10.2200  -17.2033   27.5174 C   0  0  0  0  0  0  0  0  0  0  0  0
   10.6856  -16.0834   27.8141 O   0  0  0  0  0  0  0  0  0  0  0  0
   10.4228  -18.2677   28.3860 O   0  0  0  0  0  0  0  0  0  0  0  0
  1  2  1  0
  3  2  1  0
  3  4  1  6
  3  5  1  0
  5 12  1  0
  6  5  2  0
  8  7  1  0
  9  8  1  0
  9 11  1  0
  9 10  1  1
 11 13  1  0
 11 12  1  6
 13 19  1  0
 13 14  2  0
 16 15  1  6
 16 18  1  0
 17 16  1  0
 18 20  1  0
 18 19  1  6
 20 21  2  0
 20 22  1  0
M  END
$$$$
