SIT.pdb
     RDKit          3D

 22 21  0  0  1  0  0  0  0  0999 V2000
    7.5420  -17.1683   21.5311 O   0  0  0  0  0  0  0  0  0  0  0  0
    6.5777  -16.2252   21.2578 C   0  0  0  0  0  0  0  0  0  0  0  0
    7.1268  -14.8256   21.3782 C   0  0  2  0  0  0  0  0  0  0  0  0
    8.0622  -14.6001   20.3028 N   0  0  0  0  0  0  0  0  0  0  0  0
    7.8744  -14.7230   22.6788 C   0  0  0  0  0  0  0  0  0  0  0  0
    9.1427  -14.7537   22.6804 O   0  0  0  0  0  0  0  0  0  0  0  0
    6.1144  -11.3620   26.2896 C   0  0  0  0  0  0  0  0  0  0  0  0
    6.9925  -12.2638   25.4332 C   0  0  0  0  0  0  0  0  0  0  0  0
    7.2673  -13.5691   26.0822 C   0  0  2  0  0  0  0  0  0  0  0  0
    8.0213  -13.4449   27.3867 C   0  0  0  0  0  0  0  0  0  0  0  0
    8.0004  -14.5082   25.1568 C   0  0  2  0  0  0  0  0  0  0  0  0
    7.2221  -14.5926   23.9137 N   0  0  0  0  0  0  0  0  0  0  0  0
    8.2268  -15.8566   25.6996 C   0  0  0  0  0  0  0  0  0  0  0  0
    7.3099  -16.5259   26.1797 O   0  0  0  0  0  0  0  0  0  0  0  0
   10.3613  -18.6354   23.8749 C   0  0  0  0  0  0  0  0  0  0  0  0
   10.8754  -18.3832   25.2701 C   0  0  1  0  0  0  0  0  0  0  0  0
   11.9394  -17.4577   25.2233 O   0  0  0  0  0  0  0  0  0  0  0  0
    9.8176  -17.7531   26.1581 C   0  0  2  0  0  0  0  0  0  0  0  0
    9.5435  -16.4179   25.6753 N   0  0  0  0  0  0  0  0  0  0  0  0
   10.3983  -17.6483   27.5162 C   0  0  0  0  0  0  0  0  0  0  0  0
   10.6839  -16.5283   27.9887 O   0  0  0  0  0  0  0  0  0  0  0  0
   10.6341  -18.7819   28.2831 O   0  0  0  0  0  0  0  0  0  0  0  0
  1  2  1  0
  3  2  1  0
  3  4  1  6
  3  5  1  0
  5 12  1  0
  6  5  2  0
  8  7  1  0
  9  8  1  0
  9 11  1  0
  9 10  1  1
 11 13  1  0
 11 12  1  6
 13 19  1  0
 13 14  2  0
 16 15  1  6
 16 18  1  0
 17 16  1  0
 18 20  1  0
 18 19  1  6
 20 21  2  0
 20 22  1  0
M  END
$$$$
