SIT.pdb
     RDKit          3D

 22 21  0  0  1  0  0  0  0  0999 V2000
   17.4051   71.6088  -22.3080 O   0  0  0  0  0  0  0  0  0  0  0  0
   18.4872   70.7779  -22.1271 C   0  0  0  0  0  0  0  0  0  0  0  0
   19.6620   71.5230  -21.5443 C   0  0  2  0  0  0  0  0  0  0  0  0
   19.3623   72.9346  -21.5440 N   0  0  0  0  0  0  0  0  0  0  0  0
   20.8522   71.2968  -22.4349 C   0  0  0  0  0  0  0  0  0  0  0  0
   21.8555   70.6569  -21.9950 O   0  0  0  0  0  0  0  0  0  0  0  0
   19.8125   70.2059  -24.1953 C   0  0  0  0  0  0  0  0  0  0  0  0
   20.3225   70.0584  -25.6222 C   0  0  0  0  0  0  0  0  0  0  0  0
   21.5623   70.8362  -25.8640 C   0  0  2  0  0  0  0  0  0  0  0  0
   22.6651   70.0254  -26.5059 C   0  0  0  0  0  0  0  0  0  0  0  0
   22.0726   71.4790  -24.5982 C   0  0  2  0  0  0  0  0  0  0  0  0
   20.9055   71.7693  -23.7544 N   0  0  0  0  0  0  0  0  0  0  0  0
   22.8605   72.7042  -24.8033 C   0  0  0  0  0  0  0  0  0  0  0  0
   23.8613   72.9535  -24.1285 O   0  0  0  0  0  0  0  0  0  0  0  0
   21.8447   76.2382  -27.1985 C   0  0  0  0  0  0  0  0  0  0  0  0
   21.3475   75.7739  -25.8524 C   0  0  1  0  0  0  0  0  0  0  0  0
   20.0740   76.3266  -25.6010 O   0  0  0  0  0  0  0  0  0  0  0  0
   21.1615   74.2680  -25.8061 C   0  0  2  0  0  0  0  0  0  0  0  0
   22.4643   73.6404  -25.8112 N   0  0  0  0  0  0  0  0  0  0  0  0
   20.4519   73.8806  -27.0466 C   0  0  0  0  0  0  0  0  0  0  0  0
   19.2063   73.7947  -27.0529 O   0  0  0  0  0  0  0  0  0  0  0  0
   21.1509   73.6080  -28.2153 O   0  0  0  0  0  0  0  0  0  0  0  0
  1  2  1  0
  3  2  1  0
  3  4  1  6
  3  5  1  0
  5 12  1  0
  6  5  2  0
  8  7  1  0
  9  8  1  0
  9 11  1  0
  9 10  1  1
 11 13  1  0
 11 12  1  1
 13 19  1  0
 13 14  2  0
 16 15  1  6
 16 18  1  0
 17 16  1  0
 18 20  1  0
 18 19  1  6
 20 21  2  0
 20 22  1  0
M  END
$$$$
