SIT.pdb
     RDKit          3D

 22 21  0  0  1  0  0  0  0  0999 V2000
    7.3752  -17.1960   21.3046 O   0  0  0  0  0  0  0  0  0  0  0  0
    6.4999  -16.2258   20.8726 C   0  0  0  0  0  0  0  0  0  0  0  0
    7.1510  -14.8654   20.8548 C   0  0  2  0  0  0  0  0  0  0  0  0
    8.1422  -14.8392   19.8064 N   0  0  0  0  0  0  0  0  0  0  0  0
    7.8531  -14.6619   22.1688 C   0  0  0  0  0  0  0  0  0  0  0  0
    9.1026  -14.8650   22.2534 O   0  0  0  0  0  0  0  0  0  0  0  0
    7.4055  -11.5258   27.3829 C   0  0  0  0  0  0  0  0  0  0  0  0
    7.9947  -12.7086   26.6267 C   0  0  0  0  0  0  0  0  0  0  0  0
    7.2518  -13.0100   25.3787 C   0  0  2  0  0  0  0  0  0  0  0  0
    5.7917  -13.3268   25.6099 C   0  0  0  0  0  0  0  0  0  0  0  0
    7.8994  -14.1289   24.6011 C   0  0  2  0  0  0  0  0  0  0  0  0
    7.1779  -14.2501   23.3271 N   0  0  0  0  0  0  0  0  0  0  0  0
    7.9204  -15.4277   25.2914 C   0  0  0  0  0  0  0  0  0  0  0  0
    6.8829  -15.9973   25.6354 O   0  0  0  0  0  0  0  0  0  0  0  0
    9.4506  -18.5295   23.9276 C   0  0  0  0  0  0  0  0  0  0  0  0
   10.1186  -18.2487   25.2503 C   0  0  1  0  0  0  0  0  0  0  0  0
   11.3048  -17.5155   25.0362 O   0  0  0  0  0  0  0  0  0  0  0  0
    9.2537  -17.3834   26.1490 C   0  0  2  0  0  0  0  0  0  0  0  0
    9.1738  -16.0575   25.5773 N   0  0  0  0  0  0  0  0  0  0  0  0
    9.9456  -17.2877   27.4547 C   0  0  0  0  0  0  0  0  0  0  0  0
   10.4626  -16.2080   27.8099 O   0  0  0  0  0  0  0  0  0  0  0  0
   10.0322  -18.3855   28.3008 O   0  0  0  0  0  0  0  0  0  0  0  0
  1  2  1  0
  3  2  1  0
  3  4  1  6
  3  5  1  0
  5 12  1  0
  6  5  2  0
  8  7  1  0
  9  8  1  0
  9 11  1  0
  9 10  1  1
 11 13  1  0
 11 12  1  6
 13 19  1  0
 13 14  2  0
 16 15  1  6
 16 18  1  0
 17 16  1  0
 18 20  1  0
 18 19  1  6
 20 21  2  0
 20 22  1  0
M  END
$$$$
