SIT.pdb
     RDKit          3D

 22 21  0  0  1  0  0  0  0  0999 V2000
    7.4697  -17.0979   21.0178 O   0  0  0  0  0  0  0  0  0  0  0  0
    6.5276  -16.0947   21.0198 C   0  0  0  0  0  0  0  0  0  0  0  0
    7.1708  -14.7359   21.1428 C   0  0  2  0  0  0  0  0  0  0  0  0
    8.1398  -14.5838   20.0844 N   0  0  0  0  0  0  0  0  0  0  0  0
    7.8989  -14.6765   22.4571 C   0  0  0  0  0  0  0  0  0  0  0  0
    9.1632  -14.7793   22.4819 O   0  0  0  0  0  0  0  0  0  0  0  0
    5.9194  -11.4447   26.1600 C   0  0  0  0  0  0  0  0  0  0  0  0
    6.8447  -12.2674   25.2740 C   0  0  0  0  0  0  0  0  0  0  0  0
    7.2054  -13.5695   25.8862 C   0  0  2  0  0  0  0  0  0  0  0  0
    7.9545  -13.4329   27.1922 C   0  0  0  0  0  0  0  0  0  0  0  0
    7.9942  -14.4336   24.9338 C   0  0  2  0  0  0  0  0  0  0  0  0
    7.2325  -14.5096   23.6799 N   0  0  0  0  0  0  0  0  0  0  0  0
    8.2847  -15.7886   25.4273 C   0  0  0  0  0  0  0  0  0  0  0  0
    7.3865  -16.5718   25.7420 O   0  0  0  0  0  0  0  0  0  0  0  0
   10.5813  -18.2981   23.6331 C   0  0  0  0  0  0  0  0  0  0  0  0
   11.0805  -18.0858   25.0404 C   0  0  1  0  0  0  0  0  0  0  0  0
   12.0869  -17.0970   25.0424 O   0  0  0  0  0  0  0  0  0  0  0  0
    9.9875  -17.5658   25.9565 C   0  0  2  0  0  0  0  0  0  0  0  0
    9.6438  -16.2212   25.5501 N   0  0  0  0  0  0  0  0  0  0  0  0
   10.5571  -17.5093   27.3222 C   0  0  0  0  0  0  0  0  0  0  0  0
   10.7061  -16.4082   27.8918 O   0  0  0  0  0  0  0  0  0  0  0  0
   10.9329  -18.6680   27.9892 O   0  0  0  0  0  0  0  0  0  0  0  0
  1  2  1  0
  3  2  1  0
  3  4  1  6
  3  5  1  0
  5 12  1  0
  6  5  2  0
  8  7  1  0
  9  8  1  0
  9 11  1  0
  9 10  1  1
 11 13  1  0
 11 12  1  6
 13 19  1  0
 13 14  2  0
 16 15  1  6
 16 18  1  0
 17 16  1  0
 18 20  1  0
 18 19  1  6
 20 21  2  0
 20 22  1  0
M  END
$$$$
