EET.pdb
     RDKit          3D

 26 25  0  0  1  0  0  0  0  0999 V2000
   18.7389  -12.0931  -16.1893 N   0  0  0  0  0  0  0  0  0  0  0  0
   18.6681  -10.6555  -16.3291 C   0  0  1  0  0  0  0  0  0  0  0  0
   17.3222  -10.1049  -16.0187 C   0  0  0  0  0  0  0  0  0  0  0  0
   16.3506  -10.3527  -17.1334 C   0  0  0  0  0  0  0  0  0  0  0  0
   15.0466   -9.7327  -16.9006 C   0  0  0  0  0  0  0  0  0  0  0  0
   14.9692   -8.4971  -16.6562 O   0  0  0  0  0  0  0  0  0  0  0  0
   19.7408  -10.0459  -15.4828 C   0  0  0  0  0  0  0  0  0  0  0  0
   19.7289  -10.1649  -14.2263 O   0  0  0  0  0  0  0  0  0  0  0  0
   13.8483  -10.4700  -16.9381 O   0  0  0  0  0  0  0  0  0  0  0  0
   20.7805   -9.3294  -16.0775 N   0  0  0  0  0  0  0  0  0  0  0  0
   21.9163   -8.7327  -15.3468 C   0  0  1  0  0  0  0  0  0  0  0  0
   23.1898   -9.1186  -16.0601 C   0  0  0  0  0  0  0  0  0  0  0  0
   23.7455  -10.3649  -15.4519 C   0  0  0  0  0  0  0  0  0  0  0  0
   25.0097  -10.7911  -16.1395 C   0  0  0  0  0  0  0  0  0  0  0  0
   25.4495  -10.1862  -17.1171 O   0  0  0  0  0  0  0  0  0  0  0  0
   21.7362   -7.2884  -15.4441 C   0  0  0  0  0  0  0  0  0  0  0  0
   21.5537   -6.7646  -16.5703 O   0  0  0  0  0  0  0  0  0  0  0  0
   25.6586  -11.8870  -15.6325 O   0  0  0  0  0  0  0  0  0  0  0  0
   19.3972   -5.2566  -15.6104 C   0  0  0  0  0  0  0  0  0  0  0  0
   20.1074   -4.6514  -14.4309 C   0  0  1  0  0  0  0  0  0  0  0  0
   19.5587   -5.0689  -13.2273 O   0  0  0  0  0  0  0  0  0  0  0  0
   21.6000   -5.0214  -14.5019 C   0  0  2  0  0  0  0  0  0  0  0  0
   21.7497   -6.4497  -14.3152 N   0  0  0  0  0  0  0  0  0  0  0  0
   22.3340   -4.3068  -13.4613 C   0  0  0  0  0  0  0  0  0  0  0  0
   22.5399   -2.9508  -13.5398 O   0  0  0  0  0  0  0  0  0  0  0  0
   22.7902   -4.9627  -12.4632 O   0  0  0  0  0  0  0  0  0  0  0  0
  2  1  1  1
  2  7  1  0
  3  2  1  0
  4  5  1  0
  4  3  1  0
  5  6  2  0
  5  9  1  0
  7 10  1  0
  7  8  2  0
 10 11  1  0
 11 12  1  6
 12 13  1  0
 13 14  1  0
 14 15  2  0
 16 11  1  0
 16 17  2  0
 18 14  1  0
 20 19  1  6
 20 21  1  0
 20 22  1  0
 22 23  1  1
 23 16  1  0
 24 25  1  0
 24 22  1  0
 26 24  2  0
M  END
$$$$
