EET.pdb
     RDKit          3D

 26 25  0  0  1  0  0  0  0  0999 V2000
   19.3437  -11.3548  -17.3953 N   0  0  0  0  0  0  0  0  0  0  0  0
   19.0728  -11.2174  -15.9815 C   0  0  1  0  0  0  0  0  0  0  0  0
   18.9844  -12.5228  -15.2750 C   0  0  0  0  0  0  0  0  0  0  0  0
   17.8956  -13.3861  -15.8381 C   0  0  0  0  0  0  0  0  0  0  0  0
   16.5656  -12.7973  -15.6855 C   0  0  0  0  0  0  0  0  0  0  0  0
   16.1460  -11.9575  -16.5287 O   0  0  0  0  0  0  0  0  0  0  0  0
   20.1108  -10.3185  -15.3875 C   0  0  0  0  0  0  0  0  0  0  0  0
   20.1272  -10.0665  -14.1508 O   0  0  0  0  0  0  0  0  0  0  0  0
   15.7148  -13.1337  -14.6160 O   0  0  0  0  0  0  0  0  0  0  0  0
   21.0858   -9.7397  -16.2015 N   0  0  0  0  0  0  0  0  0  0  0  0
   22.2002   -8.9030  -15.7139 C   0  0  1  0  0  0  0  0  0  0  0  0
   23.3603   -9.0621  -16.6669 C   0  0  0  0  0  0  0  0  0  0  0  0
   24.0990  -10.3213  -16.3495 C   0  0  0  0  0  0  0  0  0  0  0  0
   25.1367  -10.6229  -17.3911 C   0  0  0  0  0  0  0  0  0  0  0  0
   25.8230  -11.6436  -17.3433 O   0  0  0  0  0  0  0  0  0  0  0  0
   21.7200   -7.5269  -15.7755 C   0  0  0  0  0  0  0  0  0  0  0  0
   21.3627   -7.0478  -16.8795 O   0  0  0  0  0  0  0  0  0  0  0  0
   25.2905   -9.7114  -18.4032 O   0  0  0  0  0  0  0  0  0  0  0  0
   19.3513   -3.7884  -14.1099 C   0  0  0  0  0  0  0  0  0  0  0  0
   19.7356   -5.2401  -14.1925 C   0  0  1  0  0  0  0  0  0  0  0  0
   18.8330   -5.9712  -14.9508 O   0  0  0  0  0  0  0  0  0  0  0  0
   21.1524   -5.3495  -14.7845 C   0  0  2  0  0  0  0  0  0  0  0  0
   21.6311   -6.7081  -14.6354 N   0  0  0  0  0  0  0  0  0  0  0  0
   22.0485   -4.4301  -14.0887 C   0  0  0  0  0  0  0  0  0  0  0  0
   22.6818   -4.7976  -12.9262 O   0  0  0  0  0  0  0  0  0  0  0  0
   22.2408   -3.2642  -14.5766 O   0  0  0  0  0  0  0  0  0  0  0  0
  2  1  1  6
  2  7  1  0
  3  2  1  0
  4  5  1  0
  4  3  1  0
  5  6  2  0
  5  9  1  0
  7 10  1  0
  7  8  2  0
 10 11  1  0
 11 12  1  6
 12 13  1  0
 13 14  1  0
 14 15  2  0
 16 11  1  0
 16 17  2  0
 18 14  1  0
 20 19  1  6
 20 21  1  0
 20 22  1  0
 22 23  1  1
 23 16  1  0
 24 25  1  0
 24 22  1  0
 26 24  2  0
M  END
$$$$
