EET.pdb
     RDKit          3D

 26 25  0  0  1  0  0  0  0  0999 V2000
   21.6418  -13.1288  -18.1460 N   0  0  0  0  0  0  0  0  0  0  0  0
   22.4332  -11.9799  -17.7651 C   0  0  1  0  0  0  0  0  0  0  0  0
   23.6038  -11.7573  -18.6545 C   0  0  0  0  0  0  0  0  0  0  0  0
   23.7823  -12.8824  -19.6293 C   0  0  0  0  0  0  0  0  0  0  0  0
   24.2279  -12.4294  -20.9465 C   0  0  0  0  0  0  0  0  0  0  0  0
   23.3955  -12.3064  -21.8871 O   0  0  0  0  0  0  0  0  0  0  0  0
   21.5325  -10.7870  -17.7013 C   0  0  0  0  0  0  0  0  0  0  0  0
   20.8884  -10.3992  -18.7151 O   0  0  0  0  0  0  0  0  0  0  0  0
   25.5735  -12.1179  -21.2169 O   0  0  0  0  0  0  0  0  0  0  0  0
   21.3907  -10.0787  -16.5070 N   0  0  0  0  0  0  0  0  0  0  0  0
   20.5444   -8.8813  -16.3347 C   0  0  1  0  0  0  0  0  0  0  0  0
   19.4084   -9.2374  -15.4062 C   0  0  0  0  0  0  0  0  0  0  0  0
   18.4817  -10.1877  -16.0917 C   0  0  0  0  0  0  0  0  0  0  0  0
   17.2729  -10.4748  -15.2496 C   0  0  0  0  0  0  0  0  0  0  0  0
   16.1533  -10.5971  -15.7462 O   0  0  0  0  0  0  0  0  0  0  0  0
   21.3922   -7.8856  -15.6881 C   0  0  0  0  0  0  0  0  0  0  0  0
   22.3618   -8.2641  -14.9864 O   0  0  0  0  0  0  0  0  0  0  0  0
   17.4665  -10.5960  -13.8980 O   0  0  0  0  0  0  0  0  0  0  0  0
   22.7690   -3.2199  -14.9723 C   0  0  0  0  0  0  0  0  0  0  0  0
   21.8973   -4.1778  -15.7368 C   0  0  1  0  0  0  0  0  0  0  0  0
   22.2176   -4.2036  -17.0862 O   0  0  0  0  0  0  0  0  0  0  0  0
   22.0369   -5.5817  -15.1209 C   0  0  2  0  0  0  0  0  0  0  0  0
   21.1714   -6.5035  -15.8269 N   0  0  0  0  0  0  0  0  0  0  0  0
   21.6669   -5.5384  -13.7090 C   0  0  0  0  0  0  0  0  0  0  0  0
   22.5992   -5.2654  -12.7376 O   0  0  0  0  0  0  0  0  0  0  0  0
   20.4517   -5.7606  -13.3798 O   0  0  0  0  0  0  0  0  0  0  0  0
  2  1  1  6
  2  7  1  0
  3  2  1  0
  4  5  1  0
  4  3  1  0
  5  6  2  0
  5  9  1  0
  7 10  1  0
  7  8  2  0
 10 11  1  0
 11 12  1  1
 12 13  1  0
 13 14  1  0
 14 15  2  0
 16 11  1  0
 16 17  2  0
 18 14  1  0
 20 19  1  1
 20 21  1  0
 20 22  1  0
 22 23  1  6
 23 16  1  0
 24 25  1  0
 24 22  1  0
 26 24  2  0
M  END
$$$$
