EET.pdb
     RDKit          3D

 26 25  0  0  1  0  0  0  0  0999 V2000
   16.2119  -12.6012  -12.1238 N   0  0  0  0  0  0  0  0  0  0  0  0
   15.5002  -11.3448  -12.2026 C   0  0  1  0  0  0  0  0  0  0  0  0
   14.0631  -11.4649  -11.8401 C   0  0  0  0  0  0  0  0  0  0  0  0
   13.3103  -12.3063  -12.8265 C   0  0  0  0  0  0  0  0  0  0  0  0
   11.8751  -12.3608  -12.5504 C   0  0  0  0  0  0  0  0  0  0  0  0
   11.1362  -11.3835  -12.8526 O   0  0  0  0  0  0  0  0  0  0  0  0
   16.2184  -10.3420  -11.3559 C   0  0  0  0  0  0  0  0  0  0  0  0
   16.5612  -10.6121  -10.1715 O   0  0  0  0  0  0  0  0  0  0  0  0
   11.2690  -13.4797  -11.9492 O   0  0  0  0  0  0  0  0  0  0  0  0
   16.5223   -9.0802  -11.8693 N   0  0  0  0  0  0  0  0  0  0  0  0
   17.2759   -8.0369  -11.1459 C   0  0  1  0  0  0  0  0  0  0  0  0
   18.2693   -7.4242  -12.1036 C   0  0  0  0  0  0  0  0  0  0  0  0
   19.4491   -8.3294  -12.2471 C   0  0  0  0  0  0  0  0  0  0  0  0
   20.5235   -7.6975  -13.0831 C   0  0  0  0  0  0  0  0  0  0  0  0
   21.0007   -8.2698  -14.0629 O   0  0  0  0  0  0  0  0  0  0  0  0
   16.2934   -7.0264  -10.7694 C   0  0  0  0  0  0  0  0  0  0  0  0
   15.4446   -6.6479  -11.6132 O   0  0  0  0  0  0  0  0  0  0  0  0
   20.9546   -6.4509  -12.7101 O   0  0  0  0  0  0  0  0  0  0  0  0
   15.8988   -5.9402   -6.8226 C   0  0  0  0  0  0  0  0  0  0  0  0
   14.7010   -5.7989   -7.7211 C   0  0  1  0  0  0  0  0  0  0  0  0
   13.8546   -4.7846   -7.2981 O   0  0  0  0  0  0  0  0  0  0  0  0
   15.1829   -5.5365   -9.1594 C   0  0  2  0  0  0  0  0  0  0  0  0
   16.2514   -6.4587   -9.4833 N   0  0  0  0  0  0  0  0  0  0  0  0
   15.6635   -4.1624   -9.2741 C   0  0  0  0  0  0  0  0  0  0  0  0
   14.7907   -3.1015   -9.2757 O   0  0  0  0  0  0  0  0  0  0  0  0
   16.9206   -3.9521   -9.3752 O   0  0  0  0  0  0  0  0  0  0  0  0
  2  1  1  1
  2  7  1  0
  3  2  1  0
  4  5  1  0
  4  3  1  0
  5  6  2  0
  5  9  1  0
  7 10  1  0
  7  8  2  0
 10 11  1  0
 11 12  1  6
 12 13  1  0
 13 14  1  0
 14 15  2  0
 16 11  1  0
 16 17  2  0
 18 14  1  0
 20 19  1  1
 20 21  1  0
 20 22  1  0
 22 23  1  1
 23 16  1  0
 24 25  1  0
 24 22  1  0
 26 24  2  0
M  END
$$$$
