EET.pdb
     RDKit          3D

 26 25  0  0  1  0  0  0  0  0999 V2000
   19.8370  -11.4195  -15.6956 N   0  0  0  0  0  0  0  0  0  0  0  0
   18.6756  -10.6910  -16.1555 C   0  0  1  0  0  0  0  0  0  0  0  0
   17.4471  -11.5269  -16.2111 C   0  0  0  0  0  0  0  0  0  0  0  0
   17.4388  -12.5736  -15.1377 C   0  0  0  0  0  0  0  0  0  0  0  0
   16.2631  -13.4414  -15.1975 C   0  0  0  0  0  0  0  0  0  0  0  0
   16.1259  -14.3775  -14.3624 O   0  0  0  0  0  0  0  0  0  0  0  0
   18.5029   -9.4833  -15.2895 C   0  0  0  0  0  0  0  0  0  0  0  0
   17.8153   -9.5300  -14.2320 O   0  0  0  0  0  0  0  0  0  0  0  0
   15.2563  -13.2744  -16.1666 O   0  0  0  0  0  0  0  0  0  0  0  0
   19.1060   -8.2752  -15.6428 N   0  0  0  0  0  0  0  0  0  0  0  0
   19.1707   -7.0821  -14.7755 C   0  0  1  0  0  0  0  0  0  0  0  0
   20.6105   -6.6349  -14.6967 C   0  0  0  0  0  0  0  0  0  0  0  0
   20.7079   -5.4108  -13.8459 C   0  0  0  0  0  0  0  0  0  0  0  0
   22.1311   -4.9547  -13.7063 C   0  0  0  0  0  0  0  0  0  0  0  0
   22.8911   -5.4531  -12.8762 O   0  0  0  0  0  0  0  0  0  0  0  0
   18.3904   -6.0542  -15.4557 C   0  0  0  0  0  0  0  0  0  0  0  0
   18.4719   -5.9435  -16.7035 O   0  0  0  0  0  0  0  0  0  0  0  0
   22.5529   -3.9557  -14.5447 O   0  0  0  0  0  0  0  0  0  0  0  0
   15.0276   -4.4538  -13.7754 C   0  0  0  0  0  0  0  0  0  0  0  0
   15.2680   -4.4266  -15.2598 C   0  0  1  0  0  0  0  0  0  0  0  0
   14.5160   -3.4444  -15.8872 O   0  0  0  0  0  0  0  0  0  0  0  0
   16.7693   -4.2066  -15.5194 C   0  0  2  0  0  0  0  0  0  0  0  0
   17.5341   -5.1778  -14.7650 N   0  0  0  0  0  0  0  0  0  0  0  0
   17.1461   -2.8559  -15.1120 C   0  0  0  0  0  0  0  0  0  0  0  0
   16.6204   -1.7517  -15.7379 O   0  0  0  0  0  0  0  0  0  0  0  0
   17.9814   -2.7075  -14.1555 O   0  0  0  0  0  0  0  0  0  0  0  0
  2  1  1  1
  2  7  1  0
  3  2  1  0
  4  5  1  0
  4  3  1  0
  5  6  2  0
  5  9  1  0
  7 10  1  0
  7  8  2  0
 10 11  1  0
 11 12  1  6
 12 13  1  0
 13 14  1  0
 14 15  2  0
 16 11  1  0
 16 17  2  0
 18 14  1  0
 20 19  1  1
 20 21  1  0
 20 22  1  0
 22 23  1  1
 23 16  1  0
 24 25  1  0
 24 22  1  0
 26 24  2  0
M  END
$$$$
