EET.pdb
     RDKit          3D

 26 25  0  0  1  0  0  0  0  0999 V2000
   17.2791  -11.8339  -16.8211 N   0  0  0  0  0  0  0  0  0  0  0  0
   16.8637  -11.7579  -15.4380 C   0  0  1  0  0  0  0  0  0  0  0  0
   17.0482  -13.0370  -14.7026 C   0  0  0  0  0  0  0  0  0  0  0  0
   16.8090  -14.2247  -15.5859 C   0  0  0  0  0  0  0  0  0  0  0  0
   15.3891  -14.4768  -15.8292 C   0  0  0  0  0  0  0  0  0  0  0  0
   14.5174  -13.7131  -15.3299 O   0  0  0  0  0  0  0  0  0  0  0  0
   17.5872  -10.6200  -14.7901 C   0  0  0  0  0  0  0  0  0  0  0  0
   17.4622  -10.3833  -13.5565 O   0  0  0  0  0  0  0  0  0  0  0  0
   14.9428  -15.5573  -16.6128 O   0  0  0  0  0  0  0  0  0  0  0  0
   18.4193   -9.7952  -15.5488 N   0  0  0  0  0  0  0  0  0  0  0  0
   19.1820   -8.6496  -15.0143 C   0  0  1  0  0  0  0  0  0  0  0  0
   20.5595   -8.6721  -15.6319 C   0  0  0  0  0  0  0  0  0  0  0  0
   21.3395   -7.4897  -15.1571 C   0  0  0  0  0  0  0  0  0  0  0  0
   22.6920   -7.4318  -15.8054 C   0  0  0  0  0  0  0  0  0  0  0  0
   22.9186   -6.6929  -16.7634 O   0  0  0  0  0  0  0  0  0  0  0  0
   18.4769   -7.4563  -15.4691 C   0  0  0  0  0  0  0  0  0  0  0  0
   18.0666   -7.3970  -16.6540 O   0  0  0  0  0  0  0  0  0  0  0  0
   23.6701   -8.2389  -15.2852 O   0  0  0  0  0  0  0  0  0  0  0  0
   15.8981   -3.4260  -14.6803 C   0  0  0  0  0  0  0  0  0  0  0  0
   16.4651   -4.7310  -14.1932 C   0  0  1  0  0  0  0  0  0  0  0  0
   15.4855   -5.7049  -14.0665 O   0  0  0  0  0  0  0  0  0  0  0  0
   17.5643   -5.1933  -15.1668 C   0  0  2  0  0  0  0  0  0  0  0  0
   18.2268   -6.3607  -14.6233 N   0  0  0  0  0  0  0  0  0  0  0  0
   18.5342   -4.1189  -15.3596 C   0  0  0  0  0  0  0  0  0  0  0  0
   18.2562   -3.0473  -16.1731 O   0  0  0  0  0  0  0  0  0  0  0  0
   19.6601   -4.1852  -14.7575 O   0  0  0  0  0  0  0  0  0  0  0  0
  2  1  1  6
  2  7  1  0
  3  2  1  0
  4  5  1  0
  4  3  1  0
  5  6  2  0
  5  9  1  0
  7 10  1  0
  7  8  2  0
 10 11  1  0
 11 12  1  6
 12 13  1  0
 13 14  1  0
 14 15  2  0
 16 11  1  0
 16 17  2  0
 18 14  1  0
 20 19  1  6
 20 21  1  0
 20 22  1  0
 22 23  1  1
 23 16  1  0
 24 25  1  0
 24 22  1  0
 26 24  2  0
M  END
$$$$
