EET.pdb
     RDKit          3D

 26 25  0  0  1  0  0  0  0  0999 V2000
   19.0880  -11.7548  -14.4562 N   0  0  0  0  0  0  0  0  0  0  0  0
   18.3690  -11.0982  -15.5254 C   0  0  1  0  0  0  0  0  0  0  0  0
   17.0281  -11.6899  -15.7759 C   0  0  0  0  0  0  0  0  0  0  0  0
   16.7546  -12.8501  -14.8664 C   0  0  0  0  0  0  0  0  0  0  0  0
   15.4098  -13.4001  -15.0336 C   0  0  0  0  0  0  0  0  0  0  0  0
   15.0828  -13.9494  -16.1217 O   0  0  0  0  0  0  0  0  0  0  0  0
   18.2968   -9.6361  -15.2169 C   0  0  0  0  0  0  0  0  0  0  0  0
   17.7005   -8.8339  -15.9877 O   0  0  0  0  0  0  0  0  0  0  0  0
   14.4435  -13.3423  -14.0120 O   0  0  0  0  0  0  0  0  0  0  0  0
   18.8945   -9.1332  -14.0601 N   0  0  0  0  0  0  0  0  0  0  0  0
   18.8620   -7.7171  -13.6441 C   0  0  1  0  0  0  0  0  0  0  0  0
   18.7458   -7.6711  -12.1394 C   0  0  0  0  0  0  0  0  0  0  0  0
   17.3787   -7.2051  -11.7576 C   0  0  0  0  0  0  0  0  0  0  0  0
   17.2069   -7.1805  -10.2668 C   0  0  0  0  0  0  0  0  0  0  0  0
   16.3556   -7.8678   -9.7028 O   0  0  0  0  0  0  0  0  0  0  0  0
   20.1503   -7.1577  -14.0385 C   0  0  0  0  0  0  0  0  0  0  0  0
   21.1860   -7.8586  -13.9284 O   0  0  0  0  0  0  0  0  0  0  0  0
   18.0402   -6.3577   -9.5545 O   0  0  0  0  0  0  0  0  0  0  0  0
   22.8378   -3.9520  -16.5248 C   0  0  0  0  0  0  0  0  0  0  0  0
   21.4890   -4.5381  -16.2098 C   0  0  1  0  0  0  0  0  0  0  0  0
   21.0038   -5.3097  -17.2555 O   0  0  0  0  0  0  0  0  0  0  0  0
   21.5962   -5.3769  -14.9234 C   0  0  2  0  0  0  0  0  0  0  0  0
   20.2808   -5.8546  -14.5511 N   0  0  0  0  0  0  0  0  0  0  0  0
   22.1483   -4.5586  -13.8473 C   0  0  0  0  0  0  0  0  0  0  0  0
   23.4975   -4.5396  -13.5890 O   0  0  0  0  0  0  0  0  0  0  0  0
   21.3547   -3.8511  -13.1373 O   0  0  0  0  0  0  0  0  0  0  0  0
  2  1  1  1
  2  7  1  0
  3  2  1  0
  4  5  1  0
  4  3  1  0
  5  6  2  0
  5  9  1  0
  7 10  1  0
  7  8  2  0
 10 11  1  0
 11 12  1  1
 12 13  1  0
 13 14  1  0
 14 15  2  0
 16 11  1  0
 16 17  2  0
 18 14  1  0
 20 19  1  6
 20 21  1  0
 20 22  1  0
 22 23  1  1
 23 16  1  0
 24 25  1  0
 24 22  1  0
 26 24  2  0
M  END
$$$$
