EET.pdb
     RDKit          3D

 26 25  0  0  1  0  0  0  0  0999 V2000
   21.9656  -11.9052  -15.5617 N   0  0  0  0  0  0  0  0  0  0  0  0
   21.6968  -11.7738  -16.9766 C   0  0  1  0  0  0  0  0  0  0  0  0
   20.8594  -12.8778  -17.5161 C   0  0  0  0  0  0  0  0  0  0  0  0
   20.6865  -13.9825  -16.5173 C   0  0  0  0  0  0  0  0  0  0  0  0
   19.7788  -15.0317  -16.9800 C   0  0  0  0  0  0  0  0  0  0  0  0
   18.9423  -15.5398  -16.1834 O   0  0  0  0  0  0  0  0  0  0  0  0
   21.0885  -10.4285  -17.2181 C   0  0  0  0  0  0  0  0  0  0  0  0
   20.8130  -10.0356  -18.3856 O   0  0  0  0  0  0  0  0  0  0  0  0
   19.7979  -15.5099  -18.3036 O   0  0  0  0  0  0  0  0  0  0  0  0
   20.8146   -9.5799  -16.1443 N   0  0  0  0  0  0  0  0  0  0  0  0
   20.2641   -8.2157  -16.2696 C   0  0  1  0  0  0  0  0  0  0  0  0
   18.9192   -8.1862  -15.5841 C   0  0  0  0  0  0  0  0  0  0  0  0
   18.2981   -6.8388  -15.7597 C   0  0  0  0  0  0  0  0  0  0  0  0
   16.9492   -6.7700  -15.1051 C   0  0  0  0  0  0  0  0  0  0  0  0
   16.0769   -5.9973  -15.5016 O   0  0  0  0  0  0  0  0  0  0  0  0
   21.1858   -7.3475  -15.5452 C   0  0  0  0  0  0  0  0  0  0  0  0
   21.9209   -7.8370  -14.6530 O   0  0  0  0  0  0  0  0  0  0  0  0
   16.7262   -7.6065  -14.0423 O   0  0  0  0  0  0  0  0  0  0  0  0
   23.1662   -2.9049  -14.7438 C   0  0  0  0  0  0  0  0  0  0  0  0
   22.2734   -3.7480  -15.6122 C   0  0  1  0  0  0  0  0  0  0  0  0
   22.6990   -3.7607  -16.9324 O   0  0  0  0  0  0  0  0  0  0  0  0
   22.2293   -5.1783  -15.0445 C   0  0  2  0  0  0  0  0  0  0  0  0
   21.2929   -5.9711  -15.8137 N   0  0  0  0  0  0  0  0  0  0  0  0
   21.8125   -5.1395  -13.6455 C   0  0  0  0  0  0  0  0  0  0  0  0
   20.4853   -5.0541  -13.3011 O   0  0  0  0  0  0  0  0  0  0  0  0
   22.7052   -5.1856  -12.7315 O   0  0  0  0  0  0  0  0  0  0  0  0
  2  1  1  1
  2  7  1  0
  3  2  1  0
  4  5  1  0
  4  3  1  0
  5  6  2  0
  5  9  1  0
  7 10  1  0
  7  8  2  0
 10 11  1  0
 11 12  1  1
 12 13  1  0
 13 14  1  0
 14 15  2  0
 16 11  1  0
 16 17  2  0
 18 14  1  0
 20 19  1  1
 20 21  1  0
 20 22  1  0
 22 23  1  6
 23 16  1  0
 24 25  1  0
 24 22  1  0
 26 24  2  0
M  END
$$$$
