EET.pdb
     RDKit          3D

 26 25  0  0  1  0  0  0  0  0999 V2000
   15.3865  -10.1511  -10.1242 N   0  0  0  0  0  0  0  0  0  0  0  0
   15.0924   -9.0211  -10.9772 C   0  0  1  0  0  0  0  0  0  0  0  0
   14.8015   -7.7766  -10.2170 C   0  0  0  0  0  0  0  0  0  0  0  0
   15.8920   -7.4555   -9.2395 C   0  0  0  0  0  0  0  0  0  0  0  0
   15.5966   -6.2786   -8.4231 C   0  0  0  0  0  0  0  0  0  0  0  0
   14.5144   -5.6509   -8.5881 O   0  0  0  0  0  0  0  0  0  0  0  0
   16.2255   -8.8483  -11.9387 C   0  0  0  0  0  0  0  0  0  0  0  0
   17.1965   -9.6545  -11.9565 O   0  0  0  0  0  0  0  0  0  0  0  0
   16.4859   -5.8053   -7.4403 O   0  0  0  0  0  0  0  0  0  0  0  0
   16.2247   -7.7816  -12.8389 N   0  0  0  0  0  0  0  0  0  0  0  0
   17.1988   -7.6046  -13.9341 C   0  0  1  0  0  0  0  0  0  0  0  0
   16.5292   -6.8215  -15.0376 C   0  0  0  0  0  0  0  0  0  0  0  0
   17.4722   -6.6704  -16.1865 C   0  0  0  0  0  0  0  0  0  0  0  0
   16.8370   -5.9169  -17.3186 C   0  0  0  0  0  0  0  0  0  0  0  0
   16.9418   -4.6948  -17.4211 O   0  0  0  0  0  0  0  0  0  0  0  0
   18.2837   -6.8053  -13.3752 C   0  0  0  0  0  0  0  0  0  0  0  0
   18.0333   -5.9766  -12.4661 O   0  0  0  0  0  0  0  0  0  0  0  0
   16.1318   -6.6481  -18.2390 O   0  0  0  0  0  0  0  0  0  0  0  0
   21.1425   -7.7409  -11.3275 C   0  0  0  0  0  0  0  0  0  0  0  0
   21.7035   -7.0929  -12.5633 C   0  0  1  0  0  0  0  0  0  0  0  0
   22.1023   -8.0317  -13.5034 O   0  0  0  0  0  0  0  0  0  0  0  0
   20.6432   -6.1487  -13.1583 C   0  0  2  0  0  0  0  0  0  0  0  0
   19.6149   -6.9323  -13.8109 N   0  0  0  0  0  0  0  0  0  0  0  0
   21.2702   -5.2520  -14.1253 C   0  0  0  0  0  0  0  0  0  0  0  0
   22.1616   -4.2861  -13.7254 O   0  0  0  0  0  0  0  0  0  0  0  0
   20.9781   -5.3744  -15.3639 O   0  0  0  0  0  0  0  0  0  0  0  0
  2  1  1  1
  2  7  1  0
  3  2  1  0
  4  5  1  0
  4  3  1  0
  5  6  2  0
  5  9  1  0
  7 10  1  0
  7  8  2  0
 10 11  1  0
 11 12  1  6
 12 13  1  0
 13 14  1  0
 14 15  2  0
 16 11  1  0
 16 17  2  0
 18 14  1  0
 20 19  1  1
 20 21  1  0
 20 22  1  0
 22 23  1  6
 23 16  1  0
 24 25  1  0
 24 22  1  0
 26 24  2  0
M  END
$$$$
