EET.pdb
     RDKit          3D

 26 25  0  0  1  0  0  0  0  0999 V2000
   19.2743  -12.7296  -15.0728 N   0  0  0  0  0  0  0  0  0  0  0  0
   19.0718  -12.4828  -16.4832 C   0  0  1  0  0  0  0  0  0  0  0  0
   17.9520  -13.2739  -17.0588 C   0  0  0  0  0  0  0  0  0  0  0  0
   16.7804  -13.3381  -16.1255 C   0  0  0  0  0  0  0  0  0  0  0  0
   15.6626  -14.1103  -16.6669 C   0  0  0  0  0  0  0  0  0  0  0  0
   15.7375  -15.3682  -16.7338 O   0  0  0  0  0  0  0  0  0  0  0  0
   18.8901  -11.0113  -16.6833 C   0  0  0  0  0  0  0  0  0  0  0  0
   18.7922  -10.5160  -17.8401 O   0  0  0  0  0  0  0  0  0  0  0  0
   14.4814  -13.4985  -17.1265 O   0  0  0  0  0  0  0  0  0  0  0  0
   18.8261  -10.1566  -15.5816 N   0  0  0  0  0  0  0  0  0  0  0  0
   18.6503   -8.6929  -15.6618 C   0  0  1  0  0  0  0  0  0  0  0  0
   17.5229   -8.3029  -14.7364 C   0  0  0  0  0  0  0  0  0  0  0  0
   16.2177   -8.4527  -15.4477 C   0  0  0  0  0  0  0  0  0  0  0  0
   15.0765   -7.9666  -14.6027 C   0  0  0  0  0  0  0  0  0  0  0  0
   14.6590   -6.8115  -14.6829 O   0  0  0  0  0  0  0  0  0  0  0  0
   19.8944   -8.1158  -15.1646 C   0  0  0  0  0  0  0  0  0  0  0  0
   20.5624   -8.7396  -14.3041 O   0  0  0  0  0  0  0  0  0  0  0  0
   14.5146   -8.8653  -13.7335 O   0  0  0  0  0  0  0  0  0  0  0  0
   23.8472   -5.4432  -15.7729 C   0  0  0  0  0  0  0  0  0  0  0  0
   22.5570   -6.0041  -16.3046 C   0  0  1  0  0  0  0  0  0  0  0  0
   22.7714   -7.0887  -17.1424 O   0  0  0  0  0  0  0  0  0  0  0  0
   21.6600   -6.4052  -15.1197 C   0  0  2  0  0  0  0  0  0  0  0  0
   20.3869   -6.8799  -15.6208 N   0  0  0  0  0  0  0  0  0  0  0  0
   21.4500   -5.2517  -14.2492 C   0  0  0  0  0  0  0  0  0  0  0  0
   22.2152   -5.0611  -13.1243 O   0  0  0  0  0  0  0  0  0  0  0  0
   20.5351   -4.4097  -14.5463 O   0  0  0  0  0  0  0  0  0  0  0  0
  2  1  1  1
  2  7  1  0
  3  2  1  0
  4  5  1  0
  4  3  1  0
  5  6  2  0
  5  9  1  0
  7 10  1  0
  7  8  2  0
 10 11  1  0
 11 12  1  1
 12 13  1  0
 13 14  1  0
 14 15  2  0
 16 11  1  0
 16 17  2  0
 18 14  1  0
 20 19  1  1
 20 21  1  0
 20 22  1  0
 22 23  1  6
 23 16  1  0
 24 25  1  0
 24 22  1  0
 26 24  2  0
M  END
$$$$
