EET.pdb
     RDKit          3D

 26 25  0  0  1  0  0  0  0  0999 V2000
   19.8795  -11.0408  -17.7839 N   0  0  0  0  0  0  0  0  0  0  0  0
   19.0300  -11.3789  -16.6635 C   0  0  1  0  0  0  0  0  0  0  0  0
   19.4078  -12.6605  -16.0110 C   0  0  0  0  0  0  0  0  0  0  0  0
   18.4333  -13.7543  -16.3300 C   0  0  0  0  0  0  0  0  0  0  0  0
   18.8137  -15.0426  -15.7517 C   0  0  0  0  0  0  0  0  0  0  0  0
   19.8887  -15.1494  -15.0994 O   0  0  0  0  0  0  0  0  0  0  0  0
   19.0337  -10.2301  -15.7051 C   0  0  0  0  0  0  0  0  0  0  0  0
   18.3674  -10.2701  -14.6339 O   0  0  0  0  0  0  0  0  0  0  0  0
   18.0160  -16.1933  -15.8939 O   0  0  0  0  0  0  0  0  0  0  0  0
   19.7820   -9.0856  -15.9855 N   0  0  0  0  0  0  0  0  0  0  0  0
   19.8924   -7.9137  -15.0943 C   0  0  1  0  0  0  0  0  0  0  0  0
   21.2694   -7.3191  -15.2672 C   0  0  0  0  0  0  0  0  0  0  0  0
   21.4392   -6.1700  -14.3276 C   0  0  0  0  0  0  0  0  0  0  0  0
   22.7700   -5.5022  -14.5168 C   0  0  0  0  0  0  0  0  0  0  0  0
   23.6024   -5.9339  -15.3143 O   0  0  0  0  0  0  0  0  0  0  0  0
   18.8988   -6.9577  -15.5705 C   0  0  0  0  0  0  0  0  0  0  0  0
   18.7000   -6.8388  -16.8043 O   0  0  0  0  0  0  0  0  0  0  0  0
   23.0229   -4.3863  -13.7621 O   0  0  0  0  0  0  0  0  0  0  0  0
   14.9064   -4.3036  -15.0414 C   0  0  0  0  0  0  0  0  0  0  0  0
   15.8158   -5.4260  -14.6231 C   0  0  1  0  0  0  0  0  0  0  0  0
   15.3083   -6.6649  -14.9861 O   0  0  0  0  0  0  0  0  0  0  0  0
   17.2040   -5.2054  -15.2507 C   0  0  2  0  0  0  0  0  0  0  0  0
   18.1393   -6.1612  -14.6949 N   0  0  0  0  0  0  0  0  0  0  0  0
   17.6601   -3.8467  -14.9707 C   0  0  0  0  0  0  0  0  0  0  0  0
   18.4135   -3.5648  -13.8570 O   0  0  0  0  0  0  0  0  0  0  0  0
   17.3475   -2.9088  -15.7813 O   0  0  0  0  0  0  0  0  0  0  0  0
  2  1  1  6
  2  7  1  0
  3  2  1  0
  4  5  1  0
  4  3  1  0
  5  6  2  0
  5  9  1  0
  7 10  1  0
  7  8  2  0
 10 11  1  0
 11 12  1  6
 12 13  1  0
 13 14  1  0
 14 15  2  0
 16 11  1  0
 16 17  2  0
 18 14  1  0
 20 19  1  6
 20 21  1  0
 20 22  1  0
 22 23  1  1
 23 16  1  0
 24 25  1  0
 24 22  1  0
 26 24  2  0
M  END
$$$$
