EET.pdb
     RDKit          3D

 26 25  0  0  1  0  0  0  0  0999 V2000
   23.0153  -11.6751  -17.1007 N   0  0  0  0  0  0  0  0  0  0  0  0
   22.5031  -10.9657  -18.2521 C   0  0  1  0  0  0  0  0  0  0  0  0
   21.8689  -11.8620  -19.2548 C   0  0  0  0  0  0  0  0  0  0  0  0
   21.2995  -13.0936  -18.6169 C   0  0  0  0  0  0  0  0  0  0  0  0
   20.6909  -14.0064  -19.5840 C   0  0  0  0  0  0  0  0  0  0  0  0
   19.4450  -14.2066  -19.5663 O   0  0  0  0  0  0  0  0  0  0  0  0
   21.5701   -9.8991  -17.7723 C   0  0  0  0  0  0  0  0  0  0  0  0
   20.9850   -9.1289  -18.5833 O   0  0  0  0  0  0  0  0  0  0  0  0
   21.4504  -14.6860  -20.5546 O   0  0  0  0  0  0  0  0  0  0  0  0
   21.3314   -9.7389  -16.4064 N   0  0  0  0  0  0  0  0  0  0  0  0
   20.4857   -8.6810  -15.8187 C   0  0  1  0  0  0  0  0  0  0  0  0
   19.5883   -9.3163  -14.7840 C   0  0  0  0  0  0  0  0  0  0  0  0
   18.3887   -9.9020  -15.4545 C   0  0  0  0  0  0  0  0  0  0  0  0
   17.5004  -10.6035  -14.4688 C   0  0  0  0  0  0  0  0  0  0  0  0
   17.7559  -10.6184  -13.2649 O   0  0  0  0  0  0  0  0  0  0  0  0
   21.4034   -7.7632  -15.1527 C   0  0  0  0  0  0  0  0  0  0  0  0
   22.3232   -8.2251  -14.4340 O   0  0  0  0  0  0  0  0  0  0  0  0
   16.3872  -11.2304  -14.9656 O   0  0  0  0  0  0  0  0  0  0  0  0
   23.6021   -5.0735  -16.6468 C   0  0  0  0  0  0  0  0  0  0  0  0
   22.7638   -4.4341  -15.5743 C   0  0  1  0  0  0  0  0  0  0  0  0
   21.6930   -3.7306  -16.1060 O   0  0  0  0  0  0  0  0  0  0  0  0
   22.2675   -5.5264  -14.6096 C   0  0  2  0  0  0  0  0  0  0  0  0
   21.3051   -6.3671  -15.2909 N   0  0  0  0  0  0  0  0  0  0  0  0
   21.6449   -4.9065  -13.4432 C   0  0  0  0  0  0  0  0  0  0  0  0
   22.3889   -4.1938  -12.5345 O   0  0  0  0  0  0  0  0  0  0  0  0
   20.3844   -5.0352  -13.2720 O   0  0  0  0  0  0  0  0  0  0  0  0
  2  1  1  1
  2  7  1  0
  3  2  1  0
  4  5  1  0
  4  3  1  0
  5  6  2  0
  5  9  1  0
  7 10  1  0
  7  8  2  0
 10 11  1  0
 11 12  1  1
 12 13  1  0
 13 14  1  0
 14 15  2  0
 16 11  1  0
 16 17  2  0
 18 14  1  0
 20 19  1  6
 20 21  1  0
 20 22  1  0
 22 23  1  6
 23 16  1  0
 24 25  1  0
 24 22  1  0
 26 24  2  0
M  END
$$$$
