EET.pdb
     RDKit          3D

 26 25  0  0  1  0  0  0  0  0999 V2000
   19.6135   -8.5931  -19.4698 N   0  0  0  0  0  0  0  0  0  0  0  0
   18.2250   -8.6390  -19.0684 C   0  0  1  0  0  0  0  0  0  0  0  0
   17.7547  -10.0136  -18.7513 C   0  0  0  0  0  0  0  0  0  0  0  0
   18.7925  -11.0447  -19.0791 C   0  0  0  0  0  0  0  0  0  0  0  0
   19.5516  -11.4812  -17.9077 C   0  0  0  0  0  0  0  0  0  0  0  0
   20.8108  -11.3989  -17.9044 O   0  0  0  0  0  0  0  0  0  0  0  0
   18.0332   -7.6944  -17.9242 C   0  0  0  0  0  0  0  0  0  0  0  0
   16.8980   -7.5258  -17.3987 O   0  0  0  0  0  0  0  0  0  0  0  0
   18.9254  -12.0001  -16.7590 O   0  0  0  0  0  0  0  0  0  0  0  0
   19.1187   -6.9785  -17.4166 N   0  0  0  0  0  0  0  0  0  0  0  0
   19.0399   -6.0027  -16.3115 C   0  0  1  0  0  0  0  0  0  0  0  0
   19.8956   -6.5084  -15.1751 C   0  0  0  0  0  0  0  0  0  0  0  0
   19.1349   -7.5282  -14.3920 C   0  0  0  0  0  0  0  0  0  0  0  0
   19.9621   -8.0826  -13.2689 C   0  0  0  0  0  0  0  0  0  0  0  0
   19.5229   -8.1643  -12.1220 O   0  0  0  0  0  0  0  0  0  0  0  0
   19.6194   -4.7683  -16.8298 C   0  0  0  0  0  0  0  0  0  0  0  0
   20.6145   -4.8276  -17.5928 O   0  0  0  0  0  0  0  0  0  0  0  0
   21.2329   -8.4964  -13.5731 O   0  0  0  0  0  0  0  0  0  0  0  0
   19.3613    0.0830  -17.5873 C   0  0  0  0  0  0  0  0  0  0  0  0
   18.7172   -1.1417  -16.9982 C   0  0  1  0  0  0  0  0  0  0  0  0
   17.5079   -1.4351  -17.6111 O   0  0  0  0  0  0  0  0  0  0  0  0
   19.6896   -2.3284  -17.1251 C   0  0  2  0  0  0  0  0  0  0  0  0
   19.0984   -3.5007  -16.5140 N   0  0  0  0  0  0  0  0  0  0  0  0
   20.9489   -2.0056  -16.4600 C   0  0  0  0  0  0  0  0  0  0  0  0
   22.0197   -1.5126  -17.1654 O   0  0  0  0  0  0  0  0  0  0  0  0
   21.0482   -2.1890  -15.1986 O   0  0  0  0  0  0  0  0  0  0  0  0
  2  1  1  1
  2  7  1  0
  3  2  1  0
  4  5  1  0
  4  3  1  0
  5  6  2  0
  5  9  1  0
  7 10  1  0
  7  8  2  0
 10 11  1  0
 11 12  1  1
 12 13  1  0
 13 14  1  0
 14 15  2  0
 16 11  1  0
 16 17  2  0
 18 14  1  0
 20 19  1  6
 20 21  1  0
 20 22  1  0
 22 23  1  1
 23 16  1  0
 24 25  1  0
 24 22  1  0
 26 24  2  0
M  END
$$$$
