EET.pdb
     RDKit          3D

 26 25  0  0  1  0  0  0  0  0999 V2000
   15.6237  -12.1728  -10.3010 N   0  0  0  0  0  0  0  0  0  0  0  0
   15.2130  -10.8259  -10.6300 C   0  0  1  0  0  0  0  0  0  0  0  0
   13.9640  -10.4114   -9.9376 C   0  0  0  0  0  0  0  0  0  0  0  0
   12.7992  -11.2682  -10.3338 C   0  0  0  0  0  0  0  0  0  0  0  0
   11.5379  -10.8239   -9.7415 C   0  0  0  0  0  0  0  0  0  0  0  0
   10.4864  -11.5001   -9.9138 O   0  0  0  0  0  0  0  0  0  0  0  0
   16.3545   -9.9018  -10.3451 C   0  0  0  0  0  0  0  0  0  0  0  0
   16.9595   -9.9322   -9.2377 O   0  0  0  0  0  0  0  0  0  0  0  0
   11.4437   -9.6499   -8.9710 O   0  0  0  0  0  0  0  0  0  0  0  0
   16.7707   -8.9833  -11.3101 N   0  0  0  0  0  0  0  0  0  0  0  0
   17.8938   -8.0395  -11.1440 C   0  0  1  0  0  0  0  0  0  0  0  0
   18.7825   -8.1467  -12.3598 C   0  0  0  0  0  0  0  0  0  0  0  0
   19.8635   -7.1186  -12.2811 C   0  0  0  0  0  0  0  0  0  0  0  0
   20.7767   -7.1944  -13.4698 C   0  0  0  0  0  0  0  0  0  0  0  0
   21.8214   -7.8447  -13.4420 O   0  0  0  0  0  0  0  0  0  0  0  0
   17.2937   -6.7103  -11.1098 C   0  0  0  0  0  0  0  0  0  0  0  0
   16.4896   -6.3739  -12.0132 O   0  0  0  0  0  0  0  0  0  0  0  0
   20.3988   -6.5070  -14.5938 O   0  0  0  0  0  0  0  0  0  0  0  0
   16.2609   -2.5408   -8.7409 C   0  0  0  0  0  0  0  0  0  0  0  0
   16.8590   -3.9197   -8.6902 C   0  0  1  0  0  0  0  0  0  0  0  0
   16.1408   -4.7642   -7.8564 O   0  0  0  0  0  0  0  0  0  0  0  0
   16.9186   -4.4920  -10.1180 C   0  0  2  0  0  0  0  0  0  0  0  0
   17.5748   -5.7827  -10.0907 N   0  0  0  0  0  0  0  0  0  0  0  0
   17.6594   -3.5785  -10.9835 C   0  0  0  0  0  0  0  0  0  0  0  0
   18.9134   -3.8967  -11.4458 O   0  0  0  0  0  0  0  0  0  0  0  0
   17.1243   -2.4646  -11.3113 O   0  0  0  0  0  0  0  0  0  0  0  0
  2  1  1  1
  2  7  1  0
  3  2  1  0
  4  5  1  0
  4  3  1  0
  5  6  2  0
  5  9  1  0
  7 10  1  0
  7  8  2  0
 10 11  1  0
 11 12  1  6
 12 13  1  0
 13 14  1  0
 14 15  2  0
 16 11  1  0
 16 17  2  0
 18 14  1  0
 20 19  1  6
 20 21  1  0
 20 22  1  0
 22 23  1  1
 23 16  1  0
 24 25  1  0
 24 22  1  0
 26 24  2  0
M  END
$$$$
