EET.pdb
     RDKit          3D

 26 25  0  0  1  0  0  0  0  0999 V2000
   20.9825  -12.6841  -18.6540 N   0  0  0  0  0  0  0  0  0  0  0  0
   21.9147  -11.9091  -17.8656 C   0  0  1  0  0  0  0  0  0  0  0  0
   23.2661  -11.8218  -18.4796 C   0  0  0  0  0  0  0  0  0  0  0  0
   23.3466  -12.6013  -19.7577 C   0  0  0  0  0  0  0  0  0  0  0  0
   24.5547  -13.4205  -19.8501 C   0  0  0  0  0  0  0  0  0  0  0  0
   25.4573  -13.3158  -18.9744 O   0  0  0  0  0  0  0  0  0  0  0  0
   21.3150  -10.5613  -17.6165 C   0  0  0  0  0  0  0  0  0  0  0  0
   21.3258   -9.6663  -18.5065 O   0  0  0  0  0  0  0  0  0  0  0  0
   24.7589  -14.3403  -20.8956 O   0  0  0  0  0  0  0  0  0  0  0  0
   20.7294  -10.2715  -16.3831 N   0  0  0  0  0  0  0  0  0  0  0  0
   20.0241   -9.0150  -16.0613 C   0  0  1  0  0  0  0  0  0  0  0  0
   18.9195   -9.3327  -15.0823 C   0  0  0  0  0  0  0  0  0  0  0  0
   17.8043  -10.0260  -15.7946 C   0  0  0  0  0  0  0  0  0  0  0  0
   16.6595  -10.3135  -14.8675 C   0  0  0  0  0  0  0  0  0  0  0  0
   16.7415  -11.1668  -13.9843 O   0  0  0  0  0  0  0  0  0  0  0  0
   21.0100   -8.1631  -15.4052 C   0  0  0  0  0  0  0  0  0  0  0  0
   22.0049   -8.6884  -14.8482 O   0  0  0  0  0  0  0  0  0  0  0  0
   15.5127   -9.5837  -15.0445 O   0  0  0  0  0  0  0  0  0  0  0  0
   23.2894   -3.9096  -14.9420 C   0  0  0  0  0  0  0  0  0  0  0  0
   22.2785   -4.7715  -15.6469 C   0  0  1  0  0  0  0  0  0  0  0  0
   22.7311   -5.1868  -16.8907 O   0  0  0  0  0  0  0  0  0  0  0  0
   21.9495   -5.9849  -14.7586 C   0  0  2  0  0  0  0  0  0  0  0  0
   20.8959   -6.7616  -15.3782 N   0  0  0  0  0  0  0  0  0  0  0  0
   21.5172   -5.5271  -13.4411 C   0  0  0  0  0  0  0  0  0  0  0  0
   22.4179   -5.3491  -12.4192 O   0  0  0  0  0  0  0  0  0  0  0  0
   20.2763   -5.2908  -13.2436 O   0  0  0  0  0  0  0  0  0  0  0  0
  2  1  1  6
  2  7  1  0
  3  2  1  0
  4  5  1  0
  4  3  1  0
  5  6  2  0
  5  9  1  0
  7 10  1  0
  7  8  2  0
 10 11  1  0
 11 12  1  1
 12 13  1  0
 13 14  1  0
 14 15  2  0
 16 11  1  0
 16 17  2  0
 18 14  1  0
 20 19  1  1
 20 21  1  0
 20 22  1  0
 22 23  1  6
 23 16  1  0
 24 25  1  0
 24 22  1  0
 26 24  2  0
M  END
$$$$
