EET.pdb
     RDKit          3D

 26 25  0  0  1  0  0  0  0  0999 V2000
   18.8491  -10.5246  -15.0576 N   0  0  0  0  0  0  0  0  0  0  0  0
   17.6047  -10.3208  -14.3497 C   0  0  1  0  0  0  0  0  0  0  0  0
   16.8572  -11.5834  -14.1088 C   0  0  0  0  0  0  0  0  0  0  0  0
   16.7960  -12.4359  -15.3406 C   0  0  0  0  0  0  0  0  0  0  0  0
   16.0747  -13.6906  -15.1297 C   0  0  0  0  0  0  0  0  0  0  0  0
   15.5832  -13.9540  -13.9976 O   0  0  0  0  0  0  0  0  0  0  0  0
   17.8987   -9.5833  -13.0816 C   0  0  0  0  0  0  0  0  0  0  0  0
   18.0637  -10.1975  -11.9913 O   0  0  0  0  0  0  0  0  0  0  0  0
   15.9010  -14.6375  -16.1564 O   0  0  0  0  0  0  0  0  0  0  0  0
   17.9954   -8.1909  -13.0867 N   0  0  0  0  0  0  0  0  0  0  0  0
   18.4097   -7.3723  -11.9300 C   0  0  1  0  0  0  0  0  0  0  0  0
   19.4159   -6.3542  -12.4100 C   0  0  0  0  0  0  0  0  0  0  0  0
   20.7522   -7.0048  -12.5615 C   0  0  0  0  0  0  0  0  0  0  0  0
   21.7591   -6.0553  -13.1423 C   0  0  0  0  0  0  0  0  0  0  0  0
   22.4097   -6.3387  -14.1480 O   0  0  0  0  0  0  0  0  0  0  0  0
   17.2069   -6.6779  -11.4839 C   0  0  0  0  0  0  0  0  0  0  0  0
   16.3137   -6.3941  -12.3190 O   0  0  0  0  0  0  0  0  0  0  0  0
   21.9261   -4.8535  -12.5047 O   0  0  0  0  0  0  0  0  0  0  0  0
   14.6469   -7.6282   -8.8199 C   0  0  0  0  0  0  0  0  0  0  0  0
   15.2024   -6.2691   -8.4939 C   0  0  1  0  0  0  0  0  0  0  0  0
   16.1769   -6.3318   -7.5087 O   0  0  0  0  0  0  0  0  0  0  0  0
   15.7717   -5.6401   -9.7784 C   0  0  2  0  0  0  0  0  0  0  0  0
   16.9998   -6.3168  -10.1404 N   0  0  0  0  0  0  0  0  0  0  0  0
   16.0357   -4.2212   -9.5561 C   0  0  0  0  0  0  0  0  0  0  0  0
   15.0085   -3.3243   -9.3898 O   0  0  0  0  0  0  0  0  0  0  0  0
   17.2474   -3.8150   -9.5178 O   0  0  0  0  0  0  0  0  0  0  0  0
  2  1  1  1
  2  7  1  0
  3  2  1  0
  4  5  1  0
  4  3  1  0
  5  6  2  0
  5  9  1  0
  7 10  1  0
  7  8  2  0
 10 11  1  0
 11 12  1  6
 12 13  1  0
 13 14  1  0
 14 15  2  0
 16 11  1  0
 16 17  2  0
 18 14  1  0
 20 19  1  6
 20 21  1  0
 20 22  1  0
 22 23  1  1
 23 16  1  0
 24 25  1  0
 24 22  1  0
 26 24  2  0
M  END
$$$$
