DTL.pdb
     RDKit          3D

 24 23  0  0  1  0  0  0  0  0999 V2000
   11.3631  -18.5665   22.0259 N   0  0  0  0  0  0  0  0  0  0  0  0
   11.9932  -17.3744   21.4286 C   0  0  1  0  0  0  0  0  0  0  0  0
   12.2566  -17.6994   19.9916 C   0  0  0  0  0  0  0  0  0  0  0  0
   13.4717  -18.5017   19.8150 C   0  0  0  0  0  0  0  0  0  0  0  0
   14.5460  -18.2778   20.4122 O   0  0  0  0  0  0  0  0  0  0  0  0
   10.9823  -16.2853   21.5342 C   0  0  0  0  0  0  0  0  0  0  0  0
   11.1381  -15.1408   21.0006 O   0  0  0  0  0  0  0  0  0  0  0  0
   13.4901  -19.6033   18.9329 O   0  0  0  0  0  0  0  0  0  0  0  0
    7.0474  -17.2409   22.3635 C   0  0  0  0  0  0  0  0  0  0  0  0
    7.4799  -15.9779   21.6713 C   0  0  1  0  0  0  0  0  0  0  0  0
    6.4872  -15.0098   21.6687 O   0  0  0  0  0  0  0  0  0  0  0  0
    8.7583  -15.4620   22.2771 C   0  0  2  0  0  0  0  0  0  0  0  0
    9.7828  -16.5128   22.2581 N   0  0  0  0  0  0  0  0  0  0  0  0
    8.5741  -14.9704   23.6510 C   0  0  0  0  0  0  0  0  0  0  0  0
    7.9582  -13.8685   23.8250 O   0  0  0  0  0  0  0  0  0  0  0  0
    7.7175  -12.3942   26.8219 C   0  0  0  0  0  0  0  0  0  0  0  0
    7.0292  -13.3357   25.8183 C   0  0  2  0  0  0  0  0  0  0  0  0
    5.5426  -12.9771   25.9598 C   0  0  0  0  0  0  0  0  0  0  0  0
    7.3149  -14.7332   26.2501 C   0  0  0  0  0  0  0  0  0  0  0  0
    8.7491  -15.1723   26.0923 C   0  0  2  0  0  0  0  0  0  0  0  0
    9.0440  -15.6593   24.7817 N   0  0  0  0  0  0  0  0  0  0  0  0
    9.2155  -16.1318   27.0962 C   0  0  0  0  0  0  0  0  0  0  0  0
    9.1479  -15.8209   28.3136 O   0  0  0  0  0  0  0  0  0  0  0  0
    9.7399  -17.3877   26.8188 O   0  0  0  0  0  0  0  0  0  0  0  0
  2  1  1  1
  2  6  1  0
  3  2  1  0
  3  4  1  0
  4  5  2  0
  4  8  1  0
  6  7  2  0
 10  9  1  1
 10 12  1  0
 11 10  1  0
 12 14  1  0
 13  6  1  0
 12 13  1  1
 14 21  1  0
 15 14  2  0
 17 16  1  1
 17 18  1  0
 19 17  1  0
 20 19  1  6
 21 20  1  0
 22 20  1  0
 23 22  2  0
 24 22  1  0
M  END
$$$$
