DTL.pdb
     RDKit          3D

 24 23  0  0  1  0  0  0  0  0999 V2000
    9.4168  -17.7454   19.6009 N   0  0  0  0  0  0  0  0  0  0  0  0
    8.5734  -16.5697   19.3157 C   0  0  1  0  0  0  0  0  0  0  0  0
    7.6763  -16.9473   18.1788 C   0  0  0  0  0  0  0  0  0  0  0  0
    8.4195  -17.1812   16.9361 C   0  0  0  0  0  0  0  0  0  0  0  0
    9.5662  -17.6753   16.8938 O   0  0  0  0  0  0  0  0  0  0  0  0
    7.7718  -16.3365   20.5496 C   0  0  0  0  0  0  0  0  0  0  0  0
    6.8219  -15.4920   20.6098 O   0  0  0  0  0  0  0  0  0  0  0  0
    7.8592  -16.8495   15.6839 O   0  0  0  0  0  0  0  0  0  0  0  0
    5.6123  -18.6565   22.4552 C   0  0  0  0  0  0  0  0  0  0  0  0
    6.6750  -18.1700   23.4015 C   0  0  1  0  0  0  0  0  0  0  0  0
    7.6693  -19.1137   23.6105 O   0  0  0  0  0  0  0  0  0  0  0  0
    7.2429  -16.8610   22.9204 C   0  0  2  0  0  0  0  0  0  0  0  0
    8.0635  -17.0793   21.7233 N   0  0  0  0  0  0  0  0  0  0  0  0
    8.0379  -16.1771   23.9517 C   0  0  0  0  0  0  0  0  0  0  0  0
    9.3037  -16.1313   23.8127 O   0  0  0  0  0  0  0  0  0  0  0  0
    7.9233  -11.7887   25.4136 C   0  0  0  0  0  0  0  0  0  0  0  0
    6.8694  -12.7987   25.9002 C   0  0  2  0  0  0  0  0  0  0  0  0
    5.8860  -11.9276   26.6955 C   0  0  0  0  0  0  0  0  0  0  0  0
    7.5691  -13.7910   26.7646 C   0  0  0  0  0  0  0  0  0  0  0  0
    8.2959  -14.8858   26.0247 C   0  0  2  0  0  0  0  0  0  0  0  0
    7.4673  -15.5701   25.0830 N   0  0  0  0  0  0  0  0  0  0  0  0
    8.9851  -15.8564   26.8785 C   0  0  0  0  0  0  0  0  0  0  0  0
    8.5309  -17.0271   26.9595 O   0  0  0  0  0  0  0  0  0  0  0  0
   10.1254  -15.5948   27.6271 O   0  0  0  0  0  0  0  0  0  0  0  0
  2  1  1  1
  2  6  1  0
  3  2  1  0
  3  4  1  0
  4  5  2  0
  4  8  1  0
  6  7  2  0
 10  9  1  6
 10 12  1  0
 11 10  1  0
 12 14  1  0
 13  6  1  0
 12 13  1  6
 14 21  1  0
 15 14  2  0
 17 16  1  1
 17 18  1  0
 19 17  1  0
 20 19  1  1
 21 20  1  0
 22 20  1  0
 23 22  2  0
 24 22  1  0
M  END
$$$$
