DTL.pdb
     RDKit          3D

 24 23  0  0  1  0  0  0  0  0999 V2000
   12.5674  -14.1367   18.9765 N   0  0  0  0  0  0  0  0  0  0  0  0
   12.2464  -15.1044   20.0420 C   0  0  1  0  0  0  0  0  0  0  0  0
   13.3597  -15.0332   21.0397 C   0  0  0  0  0  0  0  0  0  0  0  0
   14.6208  -15.5593   20.5066 C   0  0  0  0  0  0  0  0  0  0  0  0
   14.7850  -15.8977   19.3152 O   0  0  0  0  0  0  0  0  0  0  0  0
   10.9745  -14.6274   20.6536 C   0  0  0  0  0  0  0  0  0  0  0  0
   10.7338  -13.3994   20.8838 O   0  0  0  0  0  0  0  0  0  0  0  0
   15.7498  -15.7153   21.3390 O   0  0  0  0  0  0  0  0  0  0  0  0
    6.3188  -15.4248   21.8987 C   0  0  0  0  0  0  0  0  0  0  0  0
    7.5925  -15.9829   21.3264 C   0  0  1  0  0  0  0  0  0  0  0  0
    7.5055  -16.2057   19.9605 O   0  0  0  0  0  0  0  0  0  0  0  0
    8.7550  -15.0900   21.6713 C   0  0  2  0  0  0  0  0  0  0  0  0
    9.9712  -15.5684   21.0034 N   0  0  0  0  0  0  0  0  0  0  0  0
    8.9859  -14.9981   23.1210 C   0  0  0  0  0  0  0  0  0  0  0  0
    9.8142  -14.1305   23.5509 O   0  0  0  0  0  0  0  0  0  0  0  0
    5.7905  -12.5973   26.6324 C   0  0  0  0  0  0  0  0  0  0  0  0
    7.0616  -13.4583   26.7358 C   0  0  2  0  0  0  0  0  0  0  0  0
    8.1378  -12.4493   27.1625 C   0  0  0  0  0  0  0  0  0  0  0  0
    7.3264  -14.0260   25.3835 C   0  0  0  0  0  0  0  0  0  0  0  0
    8.0689  -15.3387   25.3735 C   0  0  2  0  0  0  0  0  0  0  0  0
    8.3347  -15.8210   24.0551 N   0  0  0  0  0  0  0  0  0  0  0  0
    7.4584  -16.4000   26.1779 C   0  0  0  0  0  0  0  0  0  0  0  0
    6.3521  -16.8784   25.8165 O   0  0  0  0  0  0  0  0  0  0  0  0
    8.0047  -16.9409   27.3347 O   0  0  0  0  0  0  0  0  0  0  0  0
  2  1  1  6
  2  6  1  0
  3  2  1  0
  3  4  1  0
  4  5  2  0
  4  8  1  0
  6  7  2  0
 10  9  1  6
 10 12  1  0
 11 10  1  0
 12 14  1  0
 13  6  1  0
 12 13  1  6
 14 21  1  0
 15 14  2  0
 17 16  1  6
 17 18  1  0
 19 17  1  0
 20 19  1  6
 21 20  1  0
 22 20  1  0
 23 22  2  0
 24 22  1  0
M  END
$$$$
