DTL.pdb
     RDKit          3D

 24 23  0  0  1  0  0  0  0  0999 V2000
    9.2513  -16.1063   18.9319 N   0  0  0  0  0  0  0  0  0  0  0  0
    8.6185  -14.7914   19.1455 C   0  0  1  0  0  0  0  0  0  0  0  0
    7.6664  -14.5809   18.0100 C   0  0  0  0  0  0  0  0  0  0  0  0
    8.3301  -14.6575   16.7043 C   0  0  0  0  0  0  0  0  0  0  0  0
    9.5106  -15.0342   16.5451 O   0  0  0  0  0  0  0  0  0  0  0  0
    7.8723  -14.9041   20.4300 C   0  0  0  0  0  0  0  0  0  0  0  0
    6.9729  -14.0766   20.7841 O   0  0  0  0  0  0  0  0  0  0  0  0
    7.6471  -14.2981   15.5227 O   0  0  0  0  0  0  0  0  0  0  0  0
    5.9357  -17.9327   21.7341 C   0  0  0  0  0  0  0  0  0  0  0  0
    6.9678  -17.5371   22.7537 C   0  0  1  0  0  0  0  0  0  0  0  0
    8.0619  -18.3890   22.7566 O   0  0  0  0  0  0  0  0  0  0  0  0
    7.3798  -16.1031   22.5502 C   0  0  2  0  0  0  0  0  0  0  0  0
    8.1614  -15.9757   21.3145 N   0  0  0  0  0  0  0  0  0  0  0  0
    8.1502  -15.5705   23.6843 C   0  0  0  0  0  0  0  0  0  0  0  0
    9.4108  -15.4381   23.5544 O   0  0  0  0  0  0  0  0  0  0  0  0
    7.9440  -11.5869   25.7269 C   0  0  0  0  0  0  0  0  0  0  0  0
    6.9007  -12.6335   26.1555 C   0  0  2  0  0  0  0  0  0  0  0  0
    5.9784  -11.8472   27.0987 C   0  0  0  0  0  0  0  0  0  0  0  0
    7.6291  -13.7256   26.8612 C   0  0  0  0  0  0  0  0  0  0  0  0
    8.3702  -14.6855   25.9646 C   0  0  2  0  0  0  0  0  0  0  0  0
    7.5612  -15.1989   24.9046 N   0  0  0  0  0  0  0  0  0  0  0  0
    9.0392  -15.7884   26.6589 C   0  0  0  0  0  0  0  0  0  0  0  0
    8.5981  -16.9577   26.5117 O   0  0  0  0  0  0  0  0  0  0  0  0
   10.1461  -15.6571   27.4875 O   0  0  0  0  0  0  0  0  0  0  0  0
  2  1  1  6
  2  6  1  0
  3  2  1  0
  3  4  1  0
  4  5  2  0
  4  8  1  0
  6  7  2  0
 10  9  1  6
 10 12  1  0
 11 10  1  0
 12 14  1  0
 13  6  1  0
 12 13  1  6
 14 21  1  0
 15 14  2  0
 17 16  1  1
 17 18  1  0
 19 17  1  0
 20 19  1  1
 21 20  1  0
 22 20  1  0
 23 22  2  0
 24 22  1  0
M  END
$$$$
