DTL.pdb
     RDKit          3D

 24 23  0  0  1  0  0  0  0  0999 V2000
   11.2547  -15.7723   18.2245 N   0  0  0  0  0  0  0  0  0  0  0  0
   11.6900  -15.6311   19.6265 C   0  0  1  0  0  0  0  0  0  0  0  0
   12.4850  -14.3656   19.7065 C   0  0  0  0  0  0  0  0  0  0  0  0
   13.8764  -14.5535   19.2820 C   0  0  0  0  0  0  0  0  0  0  0  0
   14.3084  -14.2359   18.1536 O   0  0  0  0  0  0  0  0  0  0  0  0
   10.4407  -15.5069   20.4285 C   0  0  0  0  0  0  0  0  0  0  0  0
    9.4474  -14.8024   20.0598 O   0  0  0  0  0  0  0  0  0  0  0  0
   14.8293  -15.1209   20.1550 O   0  0  0  0  0  0  0  0  0  0  0  0
    7.9047  -17.7688   20.9147 C   0  0  0  0  0  0  0  0  0  0  0  0
    8.3772  -17.4971   22.3162 C   0  0  1  0  0  0  0  0  0  0  0  0
    9.1902  -18.5083   22.8055 O   0  0  0  0  0  0  0  0  0  0  0  0
    9.0555  -16.1546   22.3875 C   0  0  2  0  0  0  0  0  0  0  0  0
   10.3315  -16.1976   21.6637 N   0  0  0  0  0  0  0  0  0  0  0  0
    9.2819  -15.7089   23.7708 C   0  0  0  0  0  0  0  0  0  0  0  0
   10.4741  -15.7039   24.2205 O   0  0  0  0  0  0  0  0  0  0  0  0
    8.0400  -11.7923   26.1945 C   0  0  0  0  0  0  0  0  0  0  0  0
    7.0070  -12.8862   25.8719 C   0  0  2  0  0  0  0  0  0  0  0  0
    5.6928  -12.3002   26.4085 C   0  0  0  0  0  0  0  0  0  0  0  0
    7.4165  -14.1165   26.6067 C   0  0  0  0  0  0  0  0  0  0  0  0
    8.5320  -14.9041   25.9664 C   0  0  2  0  0  0  0  0  0  0  0  0
    8.2453  -15.2864   24.6198 N   0  0  0  0  0  0  0  0  0  0  0  0
    8.9818  -16.0707   26.7299 C   0  0  0  0  0  0  0  0  0  0  0  0
    8.6919  -17.2214   26.3113 O   0  0  0  0  0  0  0  0  0  0  0  0
    9.7195  -16.0206   27.9057 O   0  0  0  0  0  0  0  0  0  0  0  0
  2  1  1  6
  2  6  1  0
  3  2  1  0
  3  4  1  0
  4  5  2  0
  4  8  1  0
  6  7  2  0
 10  9  1  6
 10 12  1  0
 11 10  1  0
 12 14  1  0
 13  6  1  0
 12 13  1  6
 14 21  1  0
 15 14  2  0
 17 16  1  1
 17 18  1  0
 19 17  1  0
 20 19  1  1
 21 20  1  0
 22 20  1  0
 23 22  2  0
 24 22  1  0
M  END
$$$$
