DTL.pdb
     RDKit          3D

 24 23  0  0  1  0  0  0  0  0999 V2000
    5.2599  -19.4168   20.7666 N   0  0  0  0  0  0  0  0  0  0  0  0
    5.1216  -18.1648   21.5337 C   0  0  1  0  0  0  0  0  0  0  0  0
    4.0866  -18.4148   22.5853 C   0  0  0  0  0  0  0  0  0  0  0  0
    2.8412  -18.9507   22.0257 C   0  0  0  0  0  0  0  0  0  0  0  0
    2.5816  -20.1703   21.9479 O   0  0  0  0  0  0  0  0  0  0  0  0
    6.4502  -17.9264   22.1640 C   0  0  0  0  0  0  0  0  0  0  0  0
    7.1361  -18.8508   22.7063 O   0  0  0  0  0  0  0  0  0  0  0  0
    1.8398  -18.0881   21.5306 O   0  0  0  0  0  0  0  0  0  0  0  0
    9.4480  -17.1474   20.4703 C   0  0  0  0  0  0  0  0  0  0  0  0
    9.2241  -15.9946   21.4096 C   0  0  1  0  0  0  0  0  0  0  0  0
    8.6718  -14.8934   20.7731 O   0  0  0  0  0  0  0  0  0  0  0  0
    8.3915  -16.4331   22.5851 C   0  0  2  0  0  0  0  0  0  0  0  0
    6.9953  -16.6159   22.1713 N   0  0  0  0  0  0  0  0  0  0  0  0
    8.4584  -15.4867   23.7091 C   0  0  0  0  0  0  0  0  0  0  0  0
    8.5540  -14.2425   23.4514 O   0  0  0  0  0  0  0  0  0  0  0  0
    7.9273  -12.0506   25.8058 C   0  0  0  0  0  0  0  0  0  0  0  0
    6.9107  -13.2053   25.8305 C   0  0  2  0  0  0  0  0  0  0  0  0
    5.6728  -12.5722   26.4827 C   0  0  0  0  0  0  0  0  0  0  0  0
    7.4928  -14.2937   26.6657 C   0  0  0  0  0  0  0  0  0  0  0  0
    8.7210  -14.9547   26.0921 C   0  0  2  0  0  0  0  0  0  0  0  0
    8.4202  -15.8897   25.0544 N   0  0  0  0  0  0  0  0  0  0  0  0
    9.6068  -15.5757   27.0800 C   0  0  0  0  0  0  0  0  0  0  0  0
    9.9853  -14.8977   28.0702 O   0  0  0  0  0  0  0  0  0  0  0  0
   10.0796  -16.8804   27.0214 O   0  0  0  0  0  0  0  0  0  0  0  0
  2  1  1  6
  2  6  1  0
  3  2  1  0
  3  4  1  0
  4  5  2  0
  4  8  1  0
  6  7  2  0
 10  9  1  6
 10 12  1  0
 11 10  1  0
 12 14  1  0
 13  6  1  0
 12 13  1  6
 14 21  1  0
 15 14  2  0
 17 16  1  1
 17 18  1  0
 19 17  1  0
 20 19  1  1
 21 20  1  0
 22 20  1  0
 23 22  2  0
 24 22  1  0
M  END
$$$$
