DTL.pdb
     RDKit          3D

 24 23  0  0  1  0  0  0  0  0999 V2000
   10.2770  -17.7911   18.7930 N   0  0  0  0  0  0  0  0  0  0  0  0
   11.0359  -17.4238   20.0030 C   0  0  1  0  0  0  0  0  0  0  0  0
   12.2940  -16.7593   19.5385 C   0  0  0  0  0  0  0  0  0  0  0  0
   13.3157  -17.7270   19.1250 C   0  0  0  0  0  0  0  0  0  0  0  0
   14.4583  -17.4076   18.7333 O   0  0  0  0  0  0  0  0  0  0  0  0
   10.1804  -16.4512   20.7389 C   0  0  0  0  0  0  0  0  0  0  0  0
   10.1585  -15.2072   20.4726 O   0  0  0  0  0  0  0  0  0  0  0  0
   13.0520  -19.1133   19.1492 O   0  0  0  0  0  0  0  0  0  0  0  0
    6.6249  -16.3295   20.6142 C   0  0  0  0  0  0  0  0  0  0  0  0
    6.9583  -16.5033   22.0702 C   0  0  1  0  0  0  0  0  0  0  0  0
    6.7973  -17.8128   22.4970 O   0  0  0  0  0  0  0  0  0  0  0  0
    8.3467  -15.9931   22.3524 C   0  0  2  0  0  0  0  0  0  0  0  0
    9.3433  -16.9113   21.7887 N   0  0  0  0  0  0  0  0  0  0  0  0
    8.5983  -15.8055   23.7894 C   0  0  0  0  0  0  0  0  0  0  0  0
    9.7067  -16.2102   24.2704 O   0  0  0  0  0  0  0  0  0  0  0  0
    8.3367  -12.0156   26.6748 C   0  0  0  0  0  0  0  0  0  0  0  0
    7.0827  -12.7504   26.1697 C   0  0  2  0  0  0  0  0  0  0  0  0
    5.9293  -11.8866   26.7008 C   0  0  0  0  0  0  0  0  0  0  0  0
    7.0907  -14.1127   26.7741 C   0  0  0  0  0  0  0  0  0  0  0  0
    7.9470  -15.1267   26.0578 C   0  0  2  0  0  0  0  0  0  0  0  0
    7.6745  -15.1994   24.6571 N   0  0  0  0  0  0  0  0  0  0  0  0
    7.9286  -16.4714   26.6387 C   0  0  0  0  0  0  0  0  0  0  0  0
    7.2471  -17.3681   26.0776 O   0  0  0  0  0  0  0  0  0  0  0  0
    8.6138  -16.8571   27.7837 O   0  0  0  0  0  0  0  0  0  0  0  0
  2  1  1  6
  2  6  1  0
  3  2  1  0
  3  4  1  0
  4  5  2  0
  4  8  1  0
  6  7  2  0
 10  9  1  6
 10 12  1  0
 11 10  1  0
 12 14  1  0
 13  6  1  0
 12 13  1  1
 14 21  1  0
 15 14  2  0
 17 16  1  1
 17 18  1  0
 19 17  1  0
 20 19  1  1
 21 20  1  0
 22 20  1  0
 23 22  2  0
 24 22  1  0
M  END
$$$$
