DTL.pdb
     RDKit          3D

 24 23  0  0  1  0  0  0  0  0999 V2000
   11.9522  -16.9044   19.2043 N   0  0  0  0  0  0  0  0  0  0  0  0
   11.0830  -17.5353   20.2150 C   0  0  1  0  0  0  0  0  0  0  0  0
   11.9849  -18.2220   21.1921 C   0  0  0  0  0  0  0  0  0  0  0  0
   12.7864  -19.2779   20.5643 C   0  0  0  0  0  0  0  0  0  0  0  0
   12.7915  -19.5106   19.3369 O   0  0  0  0  0  0  0  0  0  0  0  0
   10.3572  -16.4175   20.8806 C   0  0  0  0  0  0  0  0  0  0  0  0
   10.7359  -15.2049   20.8086 O   0  0  0  0  0  0  0  0  0  0  0  0
   13.6198  -20.1121   21.3398 O   0  0  0  0  0  0  0  0  0  0  0  0
    6.8132  -15.3627   20.2908 C   0  0  0  0  0  0  0  0  0  0  0  0
    6.9655  -15.7021   21.7479 C   0  0  1  0  0  0  0  0  0  0  0  0
    6.4539  -16.9537   22.0556 O   0  0  0  0  0  0  0  0  0  0  0  0
    8.4061  -15.5718   22.1665 C   0  0  2  0  0  0  0  0  0  0  0  0
    9.1871  -16.6947   21.6346 N   0  0  0  0  0  0  0  0  0  0  0  0
    8.5657  -15.5010   23.6269 C   0  0  0  0  0  0  0  0  0  0  0  0
    9.5586  -16.0961   24.1595 O   0  0  0  0  0  0  0  0  0  0  0  0
    8.3588  -11.8080   26.7520 C   0  0  0  0  0  0  0  0  0  0  0  0
    7.1134  -12.4327   26.0990 C   0  0  2  0  0  0  0  0  0  0  0  0
    5.9679  -11.5387   26.5960 C   0  0  0  0  0  0  0  0  0  0  0  0
    6.9980  -13.8296   26.6055 C   0  0  0  0  0  0  0  0  0  0  0  0
    7.8447  -14.8461   25.8813 C   0  0  2  0  0  0  0  0  0  0  0  0
    7.6755  -14.8065   24.4630 N   0  0  0  0  0  0  0  0  0  0  0  0
    7.7027  -16.2229   26.3611 C   0  0  0  0  0  0  0  0  0  0  0  0
    8.1559  -16.5222   27.4962 O   0  0  0  0  0  0  0  0  0  0  0  0
    7.0967  -17.2561   25.6579 O   0  0  0  0  0  0  0  0  0  0  0  0
  2  1  1  6
  2  6  1  0
  3  2  1  0
  3  4  1  0
  4  5  2  0
  4  8  1  0
  6  7  2  0
 10  9  1  6
 10 12  1  0
 11 10  1  0
 12 14  1  0
 13  6  1  0
 12 13  1  1
 14 21  1  0
 15 14  2  0
 17 16  1  1
 17 18  1  0
 19 17  1  0
 20 19  1  1
 21 20  1  0
 22 20  1  0
 23 22  2  0
 24 22  1  0
M  END
$$$$
