DTL.pdb
     RDKit          3D

 24 23  0  0  1  0  0  0  0  0999 V2000
   11.3657  -18.2316   20.1017 N   0  0  0  0  0  0  0  0  0  0  0  0
   11.8238  -16.9154   20.5842 C   0  0  1  0  0  0  0  0  0  0  0  0
   12.3561  -16.1805   19.3940 C   0  0  0  0  0  0  0  0  0  0  0  0
   13.7140  -16.6055   19.0378 C   0  0  0  0  0  0  0  0  0  0  0  0
   14.3395  -17.5078   19.6340 O   0  0  0  0  0  0  0  0  0  0  0  0
   10.6099  -16.2317   21.1118 C   0  0  0  0  0  0  0  0  0  0  0  0
   10.2750  -15.0525   20.7708 O   0  0  0  0  0  0  0  0  0  0  0  0
   14.4058  -15.9974   17.9684 O   0  0  0  0  0  0  0  0  0  0  0  0
    6.9452  -17.4191   21.1239 C   0  0  0  0  0  0  0  0  0  0  0  0
    7.4030  -17.1671   22.5339 C   0  0  1  0  0  0  0  0  0  0  0  0
    7.6852  -18.3409   23.2160 O   0  0  0  0  0  0  0  0  0  0  0  0
    8.5768  -16.2238   22.5409 C   0  0  2  0  0  0  0  0  0  0  0  0
    9.7740  -16.9081   22.0383 N   0  0  0  0  0  0  0  0  0  0  0  0
    8.8449  -15.6657   23.8751 C   0  0  0  0  0  0  0  0  0  0  0  0
   10.0183  -15.7816   24.3580 O   0  0  0  0  0  0  0  0  0  0  0  0
    6.0153  -11.5025   26.6966 C   0  0  0  0  0  0  0  0  0  0  0  0
    7.3480  -12.2196   26.4182 C   0  0  2  0  0  0  0  0  0  0  0  0
    7.6694  -11.8183   24.9711 C   0  0  0  0  0  0  0  0  0  0  0  0
    7.1035  -13.6833   26.5557 C   0  0  0  0  0  0  0  0  0  0  0  0
    8.1725  -14.5698   25.9674 C   0  0  2  0  0  0  0  0  0  0  0  0
    7.8682  -15.0089   24.6422 N   0  0  0  0  0  0  0  0  0  0  0  0
    8.5499  -15.7165   26.7972 C   0  0  0  0  0  0  0  0  0  0  0  0
    9.0655  -15.5082   27.9260 O   0  0  0  0  0  0  0  0  0  0  0  0
    8.3860  -17.0491   26.4415 O   0  0  0  0  0  0  0  0  0  0  0  0
  2  1  1  6
  2  6  1  0
  3  2  1  0
  3  4  1  0
  4  5  2  0
  4  8  1  0
  6  7  2  0
 10  9  1  6
 10 12  1  0
 11 10  1  0
 12 14  1  0
 13  6  1  0
 12 13  1  1
 14 21  1  0
 15 14  2  0
 17 16  1  6
 17 18  1  0
 19 17  1  0
 20 19  1  1
 21 20  1  0
 22 20  1  0
 23 22  2  0
 24 22  1  0
M  END
$$$$
