DTL.pdb
     RDKit          3D

 24 23  0  0  1  0  0  0  0  0999 V2000
    8.8146  -16.3241   18.1249 N   0  0  0  0  0  0  0  0  0  0  0  0
    8.8854  -15.0307   18.8297 C   0  0  1  0  0  0  0  0  0  0  0  0
    8.2111  -14.0232   17.9522 C   0  0  0  0  0  0  0  0  0  0  0  0
    8.7156  -14.0565   16.5753 C   0  0  0  0  0  0  0  0  0  0  0  0
    9.7136  -14.7166   16.2159 O   0  0  0  0  0  0  0  0  0  0  0  0
    8.1147  -15.2135   20.0915 C   0  0  0  0  0  0  0  0  0  0  0  0
    6.8579  -15.0304   20.1688 O   0  0  0  0  0  0  0  0  0  0  0  0
    8.0790  -13.3207   15.5529 O   0  0  0  0  0  0  0  0  0  0  0  0
    7.0957  -18.0698   21.2966 C   0  0  0  0  0  0  0  0  0  0  0  0
    7.9392  -17.5720   22.4377 C   0  0  1  0  0  0  0  0  0  0  0  0
    9.2051  -18.1380   22.4458 O   0  0  0  0  0  0  0  0  0  0  0  0
    8.0027  -16.0676   22.4225 C   0  0  2  0  0  0  0  0  0  0  0  0
    8.7929  -15.6099   21.2736 N   0  0  0  0  0  0  0  0  0  0  0  0
    8.5621  -15.5134   23.6648 C   0  0  0  0  0  0  0  0  0  0  0  0
    9.7994  -15.2101   23.6921 O   0  0  0  0  0  0  0  0  0  0  0  0
    7.6983  -11.6221   25.6223 C   0  0  0  0  0  0  0  0  0  0  0  0
    6.7091  -12.7723   25.8793 C   0  0  2  0  0  0  0  0  0  0  0  0
    5.5639  -12.0897   26.6416 C   0  0  0  0  0  0  0  0  0  0  0  0
    7.4134  -13.7880   26.7121 C   0  0  0  0  0  0  0  0  0  0  0  0
    8.3809  -14.6708   25.9644 C   0  0  2  0  0  0  0  0  0  0  0  0
    7.7960  -15.3008   24.8231 N   0  0  0  0  0  0  0  0  0  0  0  0
    9.0679  -15.6698   26.7867 C   0  0  0  0  0  0  0  0  0  0  0  0
    9.6784  -15.2924   27.8202 O   0  0  0  0  0  0  0  0  0  0  0  0
    9.1076  -17.0327   26.5219 O   0  0  0  0  0  0  0  0  0  0  0  0
  2  1  1  6
  2  6  1  0
  3  2  1  0
  3  4  1  0
  4  5  2  0
  4  8  1  0
  6  7  2  0
 10  9  1  6
 10 12  1  0
 11 10  1  0
 12 14  1  0
 13  6  1  0
 12 13  1  6
 14 21  1  0
 15 14  2  0
 17 16  1  1
 17 18  1  0
 19 17  1  0
 20 19  1  1
 21 20  1  0
 22 20  1  0
 23 22  2  0
 24 22  1  0
M  END
$$$$
