DTL.pdb
     RDKit          3D

 24 23  0  0  1  0  0  0  0  0999 V2000
   11.0901  -15.1172   18.1364 N   0  0  0  0  0  0  0  0  0  0  0  0
   11.5579  -15.1267   19.5350 C   0  0  1  0  0  0  0  0  0  0  0  0
   12.4175  -13.9143   19.7111 C   0  0  0  0  0  0  0  0  0  0  0  0
   13.7486  -14.0837   19.1187 C   0  0  0  0  0  0  0  0  0  0  0  0
   14.1273  -13.5011   18.0805 O   0  0  0  0  0  0  0  0  0  0  0  0
   10.3317  -15.0157   20.3736 C   0  0  0  0  0  0  0  0  0  0  0  0
    9.3265  -14.3098   20.0418 O   0  0  0  0  0  0  0  0  0  0  0  0
   14.7006  -14.9413   19.7105 O   0  0  0  0  0  0  0  0  0  0  0  0
    7.7783  -17.0950   20.6684 C   0  0  0  0  0  0  0  0  0  0  0  0
    8.2647  -17.0319   22.0900 C   0  0  1  0  0  0  0  0  0  0  0  0
    9.0444  -18.1267   22.4312 O   0  0  0  0  0  0  0  0  0  0  0  0
    8.9886  -15.7349   22.3370 C   0  0  2  0  0  0  0  0  0  0  0  0
   10.2595  -15.7214   21.6030 N   0  0  0  0  0  0  0  0  0  0  0  0
    9.2358  -15.4892   23.7660 C   0  0  0  0  0  0  0  0  0  0  0  0
   10.4289  -15.5876   24.2024 O   0  0  0  0  0  0  0  0  0  0  0  0
    7.9183  -11.7896   26.7080 C   0  0  0  0  0  0  0  0  0  0  0  0
    7.0565  -12.9266   26.1318 C   0  0  2  0  0  0  0  0  0  0  0  0
    5.6273  -12.5154   26.5150 C   0  0  0  0  0  0  0  0  0  0  0  0
    7.4782  -14.1891   26.8023 C   0  0  0  0  0  0  0  0  0  0  0  0
    8.5177  -14.9921   26.0613 C   0  0  2  0  0  0  0  0  0  0  0  0
    8.2181  -15.1495   24.6730 N   0  0  0  0  0  0  0  0  0  0  0  0
    8.8300  -16.2950   26.6537 C   0  0  0  0  0  0  0  0  0  0  0  0
    8.4602  -17.3396   26.0576 O   0  0  0  0  0  0  0  0  0  0  0  0
    9.5158  -16.4872   27.8461 O   0  0  0  0  0  0  0  0  0  0  0  0
  2  1  1  6
  2  6  1  0
  3  2  1  0
  3  4  1  0
  4  5  2  0
  4  8  1  0
  6  7  2  0
 10  9  1  6
 10 12  1  0
 11 10  1  0
 12 14  1  0
 13  6  1  0
 12 13  1  6
 14 21  1  0
 15 14  2  0
 17 16  1  1
 17 18  1  0
 19 17  1  0
 20 19  1  1
 21 20  1  0
 22 20  1  0
 23 22  2  0
 24 22  1  0
M  END
$$$$
