DTL.pdb
     RDKit          3D

 24 23  0  0  1  0  0  0  0  0999 V2000
   10.1222  -13.4438   19.4317 N   0  0  0  0  0  0  0  0  0  0  0  0
    8.7488  -12.9129   19.5154 C   0  0  1  0  0  0  0  0  0  0  0  0
    8.1490  -13.0501   18.1511 C   0  0  0  0  0  0  0  0  0  0  0  0
    8.5834  -14.2752   17.4716 C   0  0  0  0  0  0  0  0  0  0  0  0
    9.2880  -15.1561   18.0087 O   0  0  0  0  0  0  0  0  0  0  0  0
    8.0332  -13.7899   20.4840 C   0  0  0  0  0  0  0  0  0  0  0  0
    6.7956  -13.6628   20.7508 O   0  0  0  0  0  0  0  0  0  0  0  0
    8.2159  -14.5299   16.1329 O   0  0  0  0  0  0  0  0  0  0  0  0
    7.4045  -17.4587   20.5778 C   0  0  0  0  0  0  0  0  0  0  0  0
    8.2061  -17.1063   21.8004 C   0  0  1  0  0  0  0  0  0  0  0  0
    9.5436  -17.4489   21.6726 O   0  0  0  0  0  0  0  0  0  0  0  0
    8.0350  -15.6479   22.1342 C   0  0  2  0  0  0  0  0  0  0  0  0
    8.7446  -14.8210   21.1511 N   0  0  0  0  0  0  0  0  0  0  0  0
    8.5012  -15.3205   23.4902 C   0  0  0  0  0  0  0  0  0  0  0  0
    9.6758  -14.8473   23.6316 O   0  0  0  0  0  0  0  0  0  0  0  0
    8.0602  -12.0305   26.4688 C   0  0  0  0  0  0  0  0  0  0  0  0
    6.9173  -13.0082   26.1441 C   0  0  2  0  0  0  0  0  0  0  0  0
    5.7009  -12.3703   26.8310 C   0  0  0  0  0  0  0  0  0  0  0  0
    7.2748  -14.3258   26.7417 C   0  0  0  0  0  0  0  0  0  0  0  0
    8.2282  -15.1623   25.9257 C   0  0  2  0  0  0  0  0  0  0  0  0
    7.7117  -15.5033   24.6378 N   0  0  0  0  0  0  0  0  0  0  0  0
    8.7244  -16.3659   26.5974 C   0  0  0  0  0  0  0  0  0  0  0  0
    8.3354  -17.4927   26.1944 O   0  0  0  0  0  0  0  0  0  0  0  0
    9.6095  -16.3766   27.6678 O   0  0  0  0  0  0  0  0  0  0  0  0
  2  1  1  6
  2  6  1  0
  3  2  1  0
  3  4  1  0
  4  5  2  0
  4  8  1  0
  6  7  2  0
 10  9  1  6
 10 12  1  0
 11 10  1  0
 12 14  1  0
 13  6  1  0
 12 13  1  6
 14 21  1  0
 15 14  2  0
 17 16  1  1
 17 18  1  0
 19 17  1  0
 20 19  1  1
 21 20  1  0
 22 20  1  0
 23 22  2  0
 24 22  1  0
M  END
$$$$
