FMK.pdb
     RDKit          3D

 29 29  0  0  1  0  0  0  0  0999 V2000
   23.7186  -19.9318  -17.0364 N   0  0  0  0  0  0  0  0  0  0  0  0
   23.0981  -19.3221  -15.9052 C   0  0  1  0  0  0  0  0  0  0  0  0
   21.7018  -18.8239  -16.1893 C   0  0  0  0  0  0  0  0  0  0  0  0
   21.7566  -17.8708  -17.2997 C   0  0  0  0  0  0  0  0  0  0  0  0
   22.1559  -16.5749  -17.0488 C   0  0  0  0  0  0  0  0  0  0  0  0
   22.2148  -15.6542  -18.0833 C   0  0  0  0  0  0  0  0  0  0  0  0
   21.8800  -16.0028  -19.3761 C   0  0  0  0  0  0  0  0  0  0  0  0
   21.4790  -17.3023  -19.6304 C   0  0  0  0  0  0  0  0  0  0  0  0
   21.4298  -18.1963  -18.5852 C   0  0  0  0  0  0  0  0  0  0  0  0
   22.9514  -20.3157  -14.7774 C   0  0  0  0  0  0  0  0  0  0  0  0
   22.9169  -21.5544  -15.0166 O   0  0  0  0  0  0  0  0  0  0  0  0
   24.7191  -23.6216  -12.2004 C   0  0  0  0  0  0  0  0  0  0  0  0
   25.8746  -22.4333  -11.4504 S   0  0  0  0  0  0  0  0  0  0  0  0
   25.2635  -20.7696  -11.7150 C   0  0  0  0  0  0  0  0  0  0  0  0
   23.8632  -20.5326  -11.3575 C   0  0  0  0  0  0  0  0  0  0  0  0
   22.7708  -20.8758  -12.3085 C   0  0  2  0  0  0  0  0  0  0  0  0
   22.8499  -19.8842  -13.4331 N   0  0  0  0  0  0  0  0  0  0  0  0
   21.4064  -20.9235  -11.8281 C   0  0  0  0  0  0  0  0  0  0  0  0
   21.1894  -21.5392  -10.7369 O   0  0  0  0  0  0  0  0  0  0  0  0
   20.2530  -20.3448  -12.4315 N   0  0  0  0  0  0  0  0  0  0  0  0
   19.1054  -21.1868  -12.8011 C   0  0  1  0  0  0  0  0  0  0  0  0
   19.0126  -21.2059  -14.3299 C   0  0  0  0  0  0  0  0  0  0  0  0
   17.9200  -22.1418  -14.7520 C   0  0  0  0  0  0  0  0  0  0  0  0
   16.6156  -21.3799  -15.0041 C   0  0  0  0  0  0  0  0  0  0  0  0
   15.5948  -22.2130  -15.7167 C   0  0  0  0  0  0  0  0  0  0  0  0
   14.3446  -21.5312  -15.9454 N   0  0  0  0  0  0  0  0  0  0  0  0
   19.1855  -22.5399  -12.2720 C   0  0  0  0  0  0  0  0  0  0  0  0
   19.9706  -23.4179  -12.6961 O   0  0  0  0  0  0  0  0  0  0  0  0
   18.3604  -22.9296  -11.2266 O   0  0  0  0  0  0  0  0  0  0  0  0
  2  1  1  6
  3  2  1  0
  3  4  1  0
  4  9  2  0
  4  5  1  0
  5  6  2  0
  6  7  1  0
  8  7  2  0
  9  8  1  0
 10  2  1  0
 11 10  2  0
 12 13  1  0
 13 14  1  0
 15 14  1  0
 16 15  1  1
 16 17  1  0
 17 10  1  0
 18 16  1  0
 18 20  1  0
 19 18  2  0
 21 20  1  0
 21 27  1  0
 21 22  1  6
 23 22  1  0
 24 23  1  0
 25 24  1  0
 26 25  1  0
 27 29  1  0
 28 27  2  0
M  END
$$$$
