FMK.pdb
     RDKit          3D

 29 29  0  0  1  0  0  0  0  0999 V2000
   26.9004  -21.5324  -13.5810 N   0  0  0  0  0  0  0  0  0  0  0  0
   26.6287  -20.4375  -12.7069 C   0  0  1  0  0  0  0  0  0  0  0  0
   25.5340  -19.5298  -13.2131 C   0  0  0  0  0  0  0  0  0  0  0  0
   26.0162  -18.8253  -14.4028 C   0  0  0  0  0  0  0  0  0  0  0  0
   27.1215  -18.0078  -14.2929 C   0  0  0  0  0  0  0  0  0  0  0  0
   27.5962  -17.3295  -15.4047 C   0  0  0  0  0  0  0  0  0  0  0  0
   26.9850  -17.4507  -16.6362 C   0  0  0  0  0  0  0  0  0  0  0  0
   25.8760  -18.2702  -16.7490 C   0  0  0  0  0  0  0  0  0  0  0  0
   25.4257  -18.9323  -15.6296 C   0  0  0  0  0  0  0  0  0  0  0  0
   26.1532  -20.9339  -11.3623 C   0  0  0  0  0  0  0  0  0  0  0  0
   25.6638  -22.0912  -11.2441 O   0  0  0  0  0  0  0  0  0  0  0  0
   29.1411  -19.7088   -5.4727 C   0  0  0  0  0  0  0  0  0  0  0  0
   27.4264  -19.1227   -5.3121 S   0  0  0  0  0  0  0  0  0  0  0  0
   26.3762  -20.0625   -6.4190 C   0  0  0  0  0  0  0  0  0  0  0  0
   26.5737  -19.8262   -7.8508 C   0  0  0  0  0  0  0  0  0  0  0  0
   25.8446  -20.6418   -8.8600 C   0  0  2  0  0  0  0  0  0  0  0  0
   26.2448  -20.1182  -10.2091 N   0  0  0  0  0  0  0  0  0  0  0  0
   24.4003  -20.7121   -8.8003 C   0  0  0  0  0  0  0  0  0  0  0  0
   23.7429  -19.8154   -9.4174 O   0  0  0  0  0  0  0  0  0  0  0  0
   23.6055  -21.6875   -8.1321 N   0  0  0  0  0  0  0  0  0  0  0  0
   22.1378  -21.6037   -8.1701 C   0  0  1  0  0  0  0  0  0  0  0  0
   21.5801  -22.8647   -7.5031 C   0  0  0  0  0  0  0  0  0  0  0  0
   20.0818  -22.8332   -7.5501 C   0  0  0  0  0  0  0  0  0  0  0  0
   19.4892  -24.0995   -6.9248 C   0  0  0  0  0  0  0  0  0  0  0  0
   17.9990  -24.1623   -7.0627 C   0  0  0  0  0  0  0  0  0  0  0  0
   17.4099  -25.3412   -6.4767 N   0  0  0  0  0  0  0  0  0  0  0  0
   21.6092  -20.4066   -7.5340 C   0  0  0  0  0  0  0  0  0  0  0  0
   20.5963  -19.7863   -7.9294 O   0  0  0  0  0  0  0  0  0  0  0  0
   22.2320  -19.8813   -6.4106 O   0  0  0  0  0  0  0  0  0  0  0  0
  2  1  1  6
  3  2  1  0
  3  4  1  0
  4  9  2  0
  4  5  1  0
  5  6  2  0
  6  7  1  0
  8  7  2  0
  9  8  1  0
 10  2  1  0
 11 10  2  0
 12 13  1  0
 13 14  1  0
 15 14  1  0
 16 15  1  1
 16 17  1  0
 17 10  1  0
 18 16  1  0
 18 20  1  0
 19 18  2  0
 21 20  1  0
 21 27  1  0
 21 22  1  1
 23 22  1  0
 24 23  1  0
 25 24  1  0
 26 25  1  0
 27 29  1  0
 28 27  2  0
M  END
$$$$
