FMK.pdb
     RDKit          3D

 29 29  0  0  1  0  0  0  0  0999 V2000
   26.9624  -21.5020  -18.0453 N   0  0  0  0  0  0  0  0  0  0  0  0
   26.2291  -20.4607  -17.4015 C   0  0  1  0  0  0  0  0  0  0  0  0
   25.1715  -19.8443  -18.2848 C   0  0  0  0  0  0  0  0  0  0  0  0
   25.8265  -19.0148  -19.2983 C   0  0  0  0  0  0  0  0  0  0  0  0
   26.0247  -17.6749  -19.0387 C   0  0  0  0  0  0  0  0  0  0  0  0
   26.6415  -16.8690  -19.9829 C   0  0  0  0  0  0  0  0  0  0  0  0
   27.0688  -17.3769  -21.1931 C   0  0  0  0  0  0  0  0  0  0  0  0
   26.8709  -18.7208  -21.4558 C   0  0  0  0  0  0  0  0  0  0  0  0
   26.2563  -19.4984  -20.5010 C   0  0  0  0  0  0  0  0  0  0  0  0
   25.4900  -20.9947  -16.1977 C   0  0  0  0  0  0  0  0  0  0  0  0
   24.9496  -22.1347  -16.2326 O   0  0  0  0  0  0  0  0  0  0  0  0
   27.2845  -21.7683  -10.5851 C   0  0  0  0  0  0  0  0  0  0  0  0
   25.4695  -21.8561  -10.4974 S   0  0  0  0  0  0  0  0  0  0  0  0
   24.7709  -20.3976  -11.2692 C   0  0  0  0  0  0  0  0  0  0  0  0
   25.2518  -20.0886  -12.6176 C   0  0  0  0  0  0  0  0  0  0  0  0
   24.6757  -20.7794  -13.8034 C   0  0  2  0  0  0  0  0  0  0  0  0
   25.3864  -20.2341  -15.0084 N   0  0  0  0  0  0  0  0  0  0  0  0
   23.2490  -20.7099  -14.0363 C   0  0  0  0  0  0  0  0  0  0  0  0
   22.7778  -19.6111  -14.4695 O   0  0  0  0  0  0  0  0  0  0  0  0
   22.2873  -21.7439  -13.8481 N   0  0  0  0  0  0  0  0  0  0  0  0
   20.8606  -21.4863  -14.0948 C   0  0  1  0  0  0  0  0  0  0  0  0
   20.3331  -22.6045  -14.9990 C   0  0  0  0  0  0  0  0  0  0  0  0
   18.8859  -22.3589  -15.3041 C   0  0  0  0  0  0  0  0  0  0  0  0
   18.3365  -23.4339  -16.2465 C   0  0  0  0  0  0  0  0  0  0  0  0
   16.9572  -23.1150  -16.7361 C   0  0  0  0  0  0  0  0  0  0  0  0
   16.4023  -24.1213  -17.6076 N   0  0  0  0  0  0  0  0  0  0  0  0
   20.0700  -21.3913  -12.8769 C   0  0  0  0  0  0  0  0  0  0  0  0
   18.8641  -21.0572  -12.8429 O   0  0  0  0  0  0  0  0  0  0  0  0
   20.6449  -21.6834  -11.6481 O   0  0  0  0  0  0  0  0  0  0  0  0
  2  1  1  6
  3  2  1  0
  3  4  1  0
  4  9  2  0
  4  5  1  0
  5  6  2  0
  6  7  1  0
  8  7  2  0
  9  8  1  0
 10  2  1  0
 11 10  2  0
 12 13  1  0
 13 14  1  0
 15 14  1  0
 16 15  1  1
 16 17  1  0
 17 10  1  0
 18 16  1  0
 18 20  1  0
 19 18  2  0
 21 20  1  0
 21 27  1  0
 21 22  1  6
 23 22  1  0
 24 23  1  0
 25 24  1  0
 26 25  1  0
 27 29  1  0
 28 27  2  0
M  END
$$$$
