FMK.pdb
     RDKit          3D

 29 29  0  0  1  0  0  0  0  0999 V2000
   28.5645  -20.7411  -15.2574 N   0  0  0  0  0  0  0  0  0  0  0  0
   27.8411  -19.9150  -14.3460 C   0  0  1  0  0  0  0  0  0  0  0  0
   26.7338  -19.1293  -15.0057 C   0  0  0  0  0  0  0  0  0  0  0  0
   27.3150  -17.9638  -15.6751 C   0  0  0  0  0  0  0  0  0  0  0  0
   27.4279  -16.7798  -14.9771 C   0  0  0  0  0  0  0  0  0  0  0  0
   27.9738  -15.6625  -15.5896 C   0  0  0  0  0  0  0  0  0  0  0  0
   28.4136  -15.7020  -16.8972 C   0  0  0  0  0  0  0  0  0  0  0  0
   28.3014  -16.8887  -17.5996 C   0  0  0  0  0  0  0  0  0  0  0  0
   27.7560  -17.9829  -16.9675 C   0  0  0  0  0  0  0  0  0  0  0  0
   27.1664  -20.7535  -13.2866 C   0  0  0  0  0  0  0  0  0  0  0  0
   26.6603  -21.8714  -13.5817 O   0  0  0  0  0  0  0  0  0  0  0  0
   27.7077  -19.4586   -7.0373 C   0  0  0  0  0  0  0  0  0  0  0  0
   26.3701  -20.6809   -6.8742 S   0  0  0  0  0  0  0  0  0  0  0  0
   25.6851  -21.0248   -8.4940 C   0  0  0  0  0  0  0  0  0  0  0  0
   26.5093  -20.6323   -9.6392 C   0  0  0  0  0  0  0  0  0  0  0  0
   26.0077  -20.8107  -11.0291 C   0  0  2  0  0  0  0  0  0  0  0  0
   27.0863  -20.3088  -11.9452 N   0  0  0  0  0  0  0  0  0  0  0  0
   24.7535  -20.1976  -11.4107 C   0  0  0  0  0  0  0  0  0  0  0  0
   24.8059  -19.1683  -12.1557 O   0  0  0  0  0  0  0  0  0  0  0  0
   23.4389  -20.6183  -11.0583 N   0  0  0  0  0  0  0  0  0  0  0  0
   22.4493  -20.9195  -12.1035 C   0  0  1  0  0  0  0  0  0  0  0  0
   23.0136  -22.0494  -12.9701 C   0  0  0  0  0  0  0  0  0  0  0  0
   22.0907  -22.3018  -14.1244 C   0  0  0  0  0  0  0  0  0  0  0  0
   21.4727  -23.7001  -14.0338 C   0  0  0  0  0  0  0  0  0  0  0  0
   20.6497  -24.0411  -15.2380 C   0  0  0  0  0  0  0  0  0  0  0  0
   19.2712  -23.6293  -15.1358 N   0  0  0  0  0  0  0  0  0  0  0  0
   21.1409  -21.2774  -11.5768 C   0  0  0  0  0  0  0  0  0  0  0  0
   20.0553  -20.8665  -12.0454 O   0  0  0  0  0  0  0  0  0  0  0  0
   21.0378  -22.1296  -10.4865 O   0  0  0  0  0  0  0  0  0  0  0  0
  2  1  1  6
  3  2  1  0
  3  4  1  0
  4  9  2  0
  4  5  1  0
  5  6  2  0
  6  7  1  0
  8  7  2  0
  9  8  1  0
 10  2  1  0
 11 10  2  0
 12 13  1  0
 13 14  1  0
 15 14  1  0
 16 15  1  1
 16 17  1  0
 17 10  1  0
 18 16  1  0
 18 20  1  0
 19 18  2  0
 21 20  1  0
 21 27  1  0
 21 22  1  1
 23 22  1  0
 24 23  1  0
 25 24  1  0
 26 25  1  0
 27 29  1  0
 28 27  2  0
M  END
$$$$
