FMK.pdb
     RDKit          3D

 29 29  0  0  1  0  0  0  0  0999 V2000
   19.2015  -13.0001  -16.3763 N   0  0  0  0  0  0  0  0  0  0  0  0
   19.0564  -11.6548  -16.8297 C   0  0  1  0  0  0  0  0  0  0  0  0
   17.6157  -11.2244  -16.9634 C   0  0  0  0  0  0  0  0  0  0  0  0
   17.0110  -11.9399  -18.0888 C   0  0  0  0  0  0  0  0  0  0  0  0
   16.1232  -12.9632  -17.8305 C   0  0  0  0  0  0  0  0  0  0  0  0
   15.5386  -13.6560  -18.8791 C   0  0  0  0  0  0  0  0  0  0  0  0
   15.8241  -13.3464  -20.1934 C   0  0  0  0  0  0  0  0  0  0  0  0
   16.7145  -12.3203  -20.4552 C   0  0  0  0  0  0  0  0  0  0  0  0
   17.2803  -11.6486  -19.3956 C   0  0  0  0  0  0  0  0  0  0  0  0
   19.6769  -10.6909  -15.8466 C   0  0  0  0  0  0  0  0  0  0  0  0
   19.6190  -10.9164  -14.6062 O   0  0  0  0  0  0  0  0  0  0  0  0
   25.6926  -10.5441  -14.7778 C   0  0  0  0  0  0  0  0  0  0  0  0
   24.1777   -9.5839  -14.4733 S   0  0  0  0  0  0  0  0  0  0  0  0
   23.4558   -9.1083  -16.0430 C   0  0  0  0  0  0  0  0  0  0  0  0
   22.3118   -8.1964  -15.9767 C   0  0  0  0  0  0  0  0  0  0  0  0
   21.0444   -8.6185  -15.3202 C   0  0  2  0  0  0  0  0  0  0  0  0
   20.3348   -9.5186  -16.2900 N   0  0  0  0  0  0  0  0  0  0  0  0
   20.1160   -7.6070  -14.8627 C   0  0  0  0  0  0  0  0  0  0  0  0
   19.4622   -6.9675  -15.7462 O   0  0  0  0  0  0  0  0  0  0  0  0
   19.8280   -7.2379  -13.5172 N   0  0  0  0  0  0  0  0  0  0  0  0
   18.8778   -6.1527  -13.2309 C   0  0  1  0  0  0  0  0  0  0  0  0
   18.3312   -6.3707  -11.8168 C   0  0  0  0  0  0  0  0  0  0  0  0
   17.3703   -5.2708  -11.4780 C   0  0  0  0  0  0  0  0  0  0  0  0
   16.8550   -5.4186  -10.0433 C   0  0  0  0  0  0  0  0  0  0  0  0
   16.5118   -6.8361   -9.7018 C   0  0  0  0  0  0  0  0  0  0  0  0
   16.0102   -7.0059   -8.3602 N   0  0  0  0  0  0  0  0  0  0  0  0
   19.4586   -4.8249  -13.3607 C   0  0  0  0  0  0  0  0  0  0  0  0
   18.7939   -3.7647  -13.3984 O   0  0  0  0  0  0  0  0  0  0  0  0
   20.8350   -4.6717  -13.4486 O   0  0  0  0  0  0  0  0  0  0  0  0
  2  1  1  1
  3  2  1  0
  3  4  1  0
  4  9  2  0
  4  5  1  0
  5  6  2  0
  6  7  1  0
  8  7  2  0
  9  8  1  0
 10  2  1  0
 11 10  2  0
 12 13  1  0
 13 14  1  0
 15 14  1  0
 16 15  1  6
 16 17  1  0
 17 10  1  0
 18 16  1  0
 18 20  1  0
 19 18  2  0
 21 20  1  0
 21 27  1  0
 21 22  1  1
 23 22  1  0
 24 23  1  0
 25 24  1  0
 26 25  1  0
 27 29  1  0
 28 27  2  0
M  END
$$$$
