FMK.pdb
     RDKit          3D

 29 29  0  0  1  0  0  0  0  0999 V2000
   27.9387  -19.0389  -15.7057 N   0  0  0  0  0  0  0  0  0  0  0  0
   27.0617  -18.4906  -14.7225 C   0  0  1  0  0  0  0  0  0  0  0  0
   26.0002  -17.5910  -15.3078 C   0  0  0  0  0  0  0  0  0  0  0  0
   26.6438  -16.3971  -15.8597 C   0  0  0  0  0  0  0  0  0  0  0  0
   26.2375  -15.9279  -17.0913 C   0  0  0  0  0  0  0  0  0  0  0  0
   26.8324  -14.8002  -17.6350 C   0  0  0  0  0  0  0  0  0  0  0  0
   27.8347  -14.1240  -16.9693 C   0  0  0  0  0  0  0  0  0  0  0  0
   28.2441  -14.5928  -15.7337 C   0  0  0  0  0  0  0  0  0  0  0  0
   27.6365  -15.7143  -15.2167 C   0  0  0  0  0  0  0  0  0  0  0  0
   26.3117  -19.5879  -14.0055 C   0  0  0  0  0  0  0  0  0  0  0  0
   26.0536  -20.6752  -14.5921 O   0  0  0  0  0  0  0  0  0  0  0  0
   26.5778  -19.7579   -7.7341 C   0  0  0  0  0  0  0  0  0  0  0  0
   25.4043  -21.1431   -7.8502 S   0  0  0  0  0  0  0  0  0  0  0  0
   24.7982  -21.2628   -9.5323 C   0  0  0  0  0  0  0  0  0  0  0  0
   25.4477  -20.3927  -10.5152 C   0  0  0  0  0  0  0  0  0  0  0  0
   25.1208  -20.5097  -11.9625 C   0  0  2  0  0  0  0  0  0  0  0  0
   25.8831  -19.4244  -12.6665 N   0  0  0  0  0  0  0  0  0  0  0  0
   23.7365  -20.4490  -12.3802 C   0  0  0  0  0  0  0  0  0  0  0  0
   23.2538  -19.3035  -12.6484 O   0  0  0  0  0  0  0  0  0  0  0  0
   22.8306  -21.5363  -12.5435 N   0  0  0  0  0  0  0  0  0  0  0  0
   21.4321  -21.2882  -12.9245 C   0  0  1  0  0  0  0  0  0  0  0  0
   20.8863  -22.5702  -13.5607 C   0  0  0  0  0  0  0  0  0  0  0  0
   19.4601  -22.3560  -13.9707 C   0  0  0  0  0  0  0  0  0  0  0  0
   18.8576  -23.6422  -14.5435 C   0  0  0  0  0  0  0  0  0  0  0  0
   17.4913  -23.4274  -15.1187 C   0  0  0  0  0  0  0  0  0  0  0  0
   16.9157  -24.6112  -15.7081 N   0  0  0  0  0  0  0  0  0  0  0  0
   20.5944  -20.8672  -11.8117 C   0  0  0  0  0  0  0  0  0  0  0  0
   19.4840  -20.3033  -11.9385 O   0  0  0  0  0  0  0  0  0  0  0  0
   21.0088  -21.0861  -10.5055 O   0  0  0  0  0  0  0  0  0  0  0  0
  2  1  1  6
  3  2  1  0
  3  4  1  0
  4  9  2  0
  4  5  1  0
  5  6  2  0
  6  7  1  0
  8  7  2  0
  9  8  1  0
 10  2  1  0
 11 10  2  0
 12 13  1  0
 13 14  1  0
 15 14  1  0
 16 15  1  1
 16 17  1  0
 17 10  1  0
 18 16  1  0
 18 20  1  0
 19 18  2  0
 21 20  1  0
 21 27  1  0
 21 22  1  1
 23 22  1  0
 24 23  1  0
 25 24  1  0
 26 25  1  0
 27 29  1  0
 28 27  2  0
M  END
$$$$
