FMK.pdb
     RDKit          3D

 29 29  0  0  1  0  0  0  0  0999 V2000
   22.3562  -15.3159  -19.2620 N   0  0  0  0  0  0  0  0  0  0  0  0
   22.8624  -16.5343  -18.7180 C   0  0  1  0  0  0  0  0  0  0  0  0
   24.3684  -16.5610  -18.6190 C   0  0  0  0  0  0  0  0  0  0  0  0
   24.9311  -16.5666  -19.9709 C   0  0  0  0  0  0  0  0  0  0  0  0
   24.7221  -17.6658  -20.7770 C   0  0  0  0  0  0  0  0  0  0  0  0
   25.2456  -17.6950  -22.0602 C   0  0  0  0  0  0  0  0  0  0  0  0
   25.9811  -16.6399  -22.5610 C   0  0  0  0  0  0  0  0  0  0  0  0
   26.1922  -15.5360  -21.7541 C   0  0  0  0  0  0  0  0  0  0  0  0
   25.6610  -15.5328  -20.4845 C   0  0  0  0  0  0  0  0  0  0  0  0
   22.3606  -16.7380  -17.3083 C   0  0  0  0  0  0  0  0  0  0  0  0
   22.3980  -15.7926  -16.4730 O   0  0  0  0  0  0  0  0  0  0  0  0
   18.5666  -18.4932  -12.6074 C   0  0  0  0  0  0  0  0  0  0  0  0
   18.7293  -16.9065  -13.4823 S   0  0  0  0  0  0  0  0  0  0  0  0
   19.0096  -17.2200  -15.2243 C   0  0  0  0  0  0  0  0  0  0  0  0
   19.8885  -18.3473  -15.5433 C   0  0  0  0  0  0  0  0  0  0  0  0
   21.3677  -18.1945  -15.4822 C   0  0  2  0  0  0  0  0  0  0  0  0
   21.8390  -17.9864  -16.8925 N   0  0  0  0  0  0  0  0  0  0  0  0
   22.1610  -19.2439  -14.8789 C   0  0  0  0  0  0  0  0  0  0  0  0
   22.1875  -20.3714  -15.4665 O   0  0  0  0  0  0  0  0  0  0  0  0
   22.9421  -19.1672  -13.6900 N   0  0  0  0  0  0  0  0  0  0  0  0
   23.6623  -20.3502  -13.1958 C   0  0  1  0  0  0  0  0  0  0  0  0
   24.6178  -19.8884  -12.0913 C   0  0  0  0  0  0  0  0  0  0  0  0
   25.4215  -21.0572  -11.6055 C   0  0  0  0  0  0  0  0  0  0  0  0
   26.3156  -20.6539  -10.4293 C   0  0  0  0  0  0  0  0  0  0  0  0
   27.2437  -21.7534  -10.0128 C   0  0  0  0  0  0  0  0  0  0  0  0
   28.1061  -21.4007   -8.9118 N   0  0  0  0  0  0  0  0  0  0  0  0
   22.7828  -21.4030  -12.7103 C   0  0  0  0  0  0  0  0  0  0  0  0
   21.7547  -21.2030  -12.0247 O   0  0  0  0  0  0  0  0  0  0  0  0
   23.0579  -22.7312  -13.0032 O   0  0  0  0  0  0  0  0  0  0  0  0
  2  1  1  1
  3  2  1  0
  3  4  1  0
  4  9  2  0
  4  5  1  0
  5  6  2  0
  6  7  1  0
  8  7  2  0
  9  8  1  0
 10  2  1  0
 11 10  2  0
 12 13  1  0
 13 14  1  0
 15 14  1  0
 16 15  1  6
 16 17  1  0
 17 10  1  0
 18 16  1  0
 18 20  1  0
 19 18  2  0
 21 20  1  0
 21 27  1  0
 21 22  1  1
 23 22  1  0
 24 23  1  0
 25 24  1  0
 26 25  1  0
 27 29  1  0
 28 27  2  0
M  END
$$$$
