FMK.pdb
     RDKit          3D

 29 29  0  0  1  0  0  0  0  0999 V2000
   30.6956  -35.2297   -1.7707 N   0  0  0  0  0  0  0  0  0  0  0  0
   31.2323  -35.5733   -0.4939 C   0  0  1  0  0  0  0  0  0  0  0  0
   30.3032  -36.4309    0.3306 C   0  0  0  0  0  0  0  0  0  0  0  0
   29.2406  -35.5852    0.8784 C   0  0  0  0  0  0  0  0  0  0  0  0
   27.9613  -35.7124    0.3792 C   0  0  0  0  0  0  0  0  0  0  0  0
   26.9389  -34.9222    0.8809 C   0  0  0  0  0  0  0  0  0  0  0  0
   27.1683  -33.9982    1.8801 C   0  0  0  0  0  0  0  0  0  0  0  0
   28.4509  -33.8686    2.3825 C   0  0  0  0  0  0  0  0  0  0  0  0
   29.4474  -34.6657    1.8668 C   0  0  0  0  0  0  0  0  0  0  0  0
   32.4988  -36.3815   -0.6478 C   0  0  0  0  0  0  0  0  0  0  0  0
   32.6211  -37.2045   -1.5968 O   0  0  0  0  0  0  0  0  0  0  0  0
   37.7402  -37.3993   -3.4804 C   0  0  0  0  0  0  0  0  0  0  0  0
   37.8352  -36.0576   -2.2556 S   0  0  0  0  0  0  0  0  0  0  0  0
   36.1836  -35.6656   -1.6813 C   0  0  0  0  0  0  0  0  0  0  0  0
   35.8955  -35.9832   -0.2809 C   0  0  0  0  0  0  0  0  0  0  0  0
   34.8564  -36.9899    0.0685 C   0  0  2  0  0  0  0  0  0  0  0  0
   33.5727  -36.2359    0.2628 N   0  0  0  0  0  0  0  0  0  0  0  0
   35.0652  -37.8514    1.2125 C   0  0  0  0  0  0  0  0  0  0  0  0
   34.9230  -37.3384    2.3674 O   0  0  0  0  0  0  0  0  0  0  0  0
   35.4061  -39.2346    1.2070 N   0  0  0  0  0  0  0  0  0  0  0  0
   35.6073  -39.9560    2.4726 C   0  0  1  0  0  0  0  0  0  0  0  0
   35.6888  -41.4513    2.1506 C   0  0  0  0  0  0  0  0  0  0  0  0
   35.7799  -42.2325    3.4271 C   0  0  0  0  0  0  0  0  0  0  0  0
   35.8804  -43.7339    3.1423 C   0  0  0  0  0  0  0  0  0  0  0  0
   35.9456  -44.5510    4.3961 C   0  0  0  0  0  0  0  0  0  0  0  0
   36.1059  -45.9650    4.1610 N   0  0  0  0  0  0  0  0  0  0  0  0
   36.7862  -39.5210    3.2062 C   0  0  0  0  0  0  0  0  0  0  0  0
   37.8832  -39.2369    2.6741 O   0  0  0  0  0  0  0  0  0  0  0  0
   36.7404  -39.3944    4.5873 O   0  0  0  0  0  0  0  0  0  0  0  0
  2  1  1  6
  3  2  1  0
  3  4  1  0
  4  9  2  0
  4  5  1  0
  5  6  2  0
  6  7  1  0
  8  7  2  0
  9  8  1  0
 10  2  1  0
 11 10  2  0
 12 13  1  0
 13 14  1  0
 15 14  1  0
 16 15  1  1
 16 17  1  0
 17 10  1  0
 18 16  1  0
 18 20  1  0
 19 18  2  0
 21 20  1  0
 21 27  1  0
 21 22  1  6
 23 22  1  0
 24 23  1  0
 25 24  1  0
 26 25  1  0
 27 29  1  0
 28 27  2  0
M  END
$$$$
