FMK.pdb
     RDKit          3D

 29 29  0  0  1  0  0  0  0  0999 V2000
   22.3393  -13.0182  -19.2359 N   0  0  0  0  0  0  0  0  0  0  0  0
   21.7217  -13.3694  -17.9982 C   0  0  1  0  0  0  0  0  0  0  0  0
   22.2191  -14.6790  -17.4359 C   0  0  0  0  0  0  0  0  0  0  0  0
   21.9436  -15.7438  -18.4027 C   0  0  0  0  0  0  0  0  0  0  0  0
   20.6862  -16.3094  -18.4333 C   0  0  0  0  0  0  0  0  0  0  0  0
   20.4015  -17.3196  -19.3388 C   0  0  0  0  0  0  0  0  0  0  0  0
   21.3548  -17.7823  -20.2232 C   0  0  0  0  0  0  0  0  0  0  0  0
   22.6170  -17.2165  -20.1943 C   0  0  0  0  0  0  0  0  0  0  0  0
   22.8728  -16.2149  -19.2857 C   0  0  0  0  0  0  0  0  0  0  0  0
   22.0219  -12.3347  -16.9400 C   0  0  0  0  0  0  0  0  0  0  0  0
   21.6412  -12.5084  -15.7493 O   0  0  0  0  0  0  0  0  0  0  0  0
   28.2373  -11.9673  -15.6059 C   0  0  0  0  0  0  0  0  0  0  0  0
   27.2262  -10.5266  -16.0659 S   0  0  0  0  0  0  0  0  0  0  0  0
   25.4918  -10.9607  -15.9449 C   0  0  0  0  0  0  0  0  0  0  0  0
   24.5372   -9.9037  -16.2857 C   0  0  0  0  0  0  0  0  0  0  0  0
   23.0720  -10.1482  -16.1926 C   0  0  2  0  0  0  0  0  0  0  0  0
   22.7334  -11.1526  -17.2561 N   0  0  0  0  0  0  0  0  0  0  0  0
   22.1613   -9.0291  -16.3056 C   0  0  0  0  0  0  0  0  0  0  0  0
   21.9665   -8.5457  -17.4656 O   0  0  0  0  0  0  0  0  0  0  0  0
   21.4312   -8.3949  -15.2596 N   0  0  0  0  0  0  0  0  0  0  0  0
   20.5890   -7.2237  -15.5448 C   0  0  1  0  0  0  0  0  0  0  0  0
   19.1271   -7.6441  -15.3656 C   0  0  0  0  0  0  0  0  0  0  0  0
   18.2299   -6.5027  -15.7399 C   0  0  0  0  0  0  0  0  0  0  0  0
   16.7616   -6.9381  -15.7352 C   0  0  0  0  0  0  0  0  0  0  0  0
   15.8645   -5.9326  -16.3896 C   0  0  0  0  0  0  0  0  0  0  0  0
   15.5601   -4.7955  -15.5562 N   0  0  0  0  0  0  0  0  0  0  0  0
   20.8999   -6.0704  -14.7137 C   0  0  0  0  0  0  0  0  0  0  0  0
   20.4861   -4.9097  -14.9344 O   0  0  0  0  0  0  0  0  0  0  0  0
   21.7010   -6.2166  -13.5901 O   0  0  0  0  0  0  0  0  0  0  0  0
  2  1  1  6
  3  2  1  0
  3  4  1  0
  4  9  2  0
  4  5  1  0
  5  6  2  0
  6  7  1  0
  8  7  2  0
  9  8  1  0
 10  2  1  0
 11 10  2  0
 12 13  1  0
 13 14  1  0
 15 14  1  0
 16 15  1  6
 16 17  1  0
 17 10  1  0
 18 16  1  0
 18 20  1  0
 19 18  2  0
 21 20  1  0
 21 27  1  0
 21 22  1  1
 23 22  1  0
 24 23  1  0
 25 24  1  0
 26 25  1  0
 27 29  1  0
 28 27  2  0
M  END
$$$$
