FMK.pdb
     RDKit          3D

 29 29  0  0  1  0  0  0  0  0999 V2000
   20.5348  -12.1953  -21.6196 N   0  0  0  0  0  0  0  0  0  0  0  0
   21.3376  -11.0614  -21.2936 C   0  0  1  0  0  0  0  0  0  0  0  0
   20.7374   -9.7554  -21.7548 C   0  0  0  0  0  0  0  0  0  0  0  0
   20.9632   -9.6136  -23.1947 C   0  0  0  0  0  0  0  0  0  0  0  0
   22.0758   -8.9259  -23.6320 C   0  0  0  0  0  0  0  0  0  0  0  0
   22.3105   -8.7774  -24.9900 C   0  0  0  0  0  0  0  0  0  0  0  0
   21.4497   -9.3059  -25.9306 C   0  0  0  0  0  0  0  0  0  0  0  0
   20.3328   -9.9962  -25.4944 C   0  0  0  0  0  0  0  0  0  0  0  0
   20.1238  -10.1291  -24.1406 C   0  0  0  0  0  0  0  0  0  0  0  0
   21.4917  -10.9296  -19.7971 C   0  0  0  0  0  0  0  0  0  0  0  0
   20.7475  -11.5859  -19.0171 O   0  0  0  0  0  0  0  0  0  0  0  0
   26.7853  -10.4963  -14.1499 C   0  0  0  0  0  0  0  0  0  0  0  0
   26.3107  -10.7237  -15.8913 S   0  0  0  0  0  0  0  0  0  0  0  0
   24.6125  -10.1962  -16.1131 C   0  0  0  0  0  0  0  0  0  0  0  0
   24.0707  -10.3199  -17.4681 C   0  0  0  0  0  0  0  0  0  0  0  0
   22.6499   -9.9773  -17.7493 C   0  0  2  0  0  0  0  0  0  0  0  0
   22.4689  -10.0725  -19.2367 N   0  0  0  0  0  0  0  0  0  0  0  0
   22.1289   -8.7041  -17.2998 C   0  0  0  0  0  0  0  0  0  0  0  0
   22.0843   -8.4978  -16.0458 O   0  0  0  0  0  0  0  0  0  0  0  0
   21.6604   -7.6252  -18.1036 N   0  0  0  0  0  0  0  0  0  0  0  0
   21.1198   -6.4103  -17.4758 C   0  0  1  0  0  0  0  0  0  0  0  0
   19.5969   -6.5581  -17.4059 C   0  0  0  0  0  0  0  0  0  0  0  0
   19.0902   -7.1222  -18.6994 C   0  0  0  0  0  0  0  0  0  0  0  0
   17.5590   -7.1382  -18.7256 C   0  0  0  0  0  0  0  0  0  0  0  0
   17.0143   -7.6663  -20.0171 C   0  0  0  0  0  0  0  0  0  0  0  0
   15.5770   -7.7848  -20.0369 N   0  0  0  0  0  0  0  0  0  0  0  0
   21.6736   -6.1444  -16.1567 C   0  0  0  0  0  0  0  0  0  0  0  0
   21.3700   -5.1565  -15.4503 O   0  0  0  0  0  0  0  0  0  0  0  0
   22.6000   -7.0154  -15.6011 O   0  0  0  0  0  0  0  0  0  0  0  0
  2  1  1  1
  3  2  1  0
  3  4  1  0
  4  9  2  0
  4  5  1  0
  5  6  2  0
  6  7  1  0
  8  7  2  0
  9  8  1  0
 10  2  1  0
 11 10  2  0
 12 13  1  0
 13 14  1  0
 15 14  1  0
 16 15  1  6
 16 17  1  0
 17 10  1  0
 18 16  1  0
 18 20  1  0
 19 18  2  0
 21 20  1  0
 21 27  1  0
 21 22  1  1
 23 22  1  0
 24 23  1  0
 25 24  1  0
 26 25  1  0
 27 29  1  0
 28 27  2  0
M  END
$$$$
