FMK.pdb
     RDKit          3D

 29 29  0  0  1  0  0  0  0  0999 V2000
   28.6645  -20.3812  -15.0633 N   0  0  0  0  0  0  0  0  0  0  0  0
   27.7923  -19.5746  -14.2727 C   0  0  1  0  0  0  0  0  0  0  0  0
   26.8308  -18.7537  -15.0975 C   0  0  0  0  0  0  0  0  0  0  0  0
   27.5406  -17.5896  -15.6317 C   0  0  0  0  0  0  0  0  0  0  0  0
   27.5657  -16.4255  -14.8927 C   0  0  0  0  0  0  0  0  0  0  0  0
   28.2302  -15.3098  -15.3777 C   0  0  0  0  0  0  0  0  0  0  0  0
   28.8765  -15.3314  -16.5971 C   0  0  0  0  0  0  0  0  0  0  0  0
   28.8526  -16.4981  -17.3403 C   0  0  0  0  0  0  0  0  0  0  0  0
   28.1859  -17.5911  -16.8353 C   0  0  0  0  0  0  0  0  0  0  0  0
   26.9284  -20.4370  -13.3835 C   0  0  0  0  0  0  0  0  0  0  0  0
   26.5087  -21.5558  -13.7898 O   0  0  0  0  0  0  0  0  0  0  0  0
   27.4710  -20.2078   -7.1104 C   0  0  0  0  0  0  0  0  0  0  0  0
   25.7252  -20.7173   -7.0645 S   0  0  0  0  0  0  0  0  0  0  0  0
   25.1818  -21.1099   -8.7264 C   0  0  0  0  0  0  0  0  0  0  0  0
   25.9564  -20.5122   -9.8161 C   0  0  0  0  0  0  0  0  0  0  0  0
   25.6356  -20.8285  -11.2347 C   0  0  2  0  0  0  0  0  0  0  0  0
   26.5710  -20.0139  -12.0809 N   0  0  0  0  0  0  0  0  0  0  0  0
   24.2847  -20.6289  -11.7140 C   0  0  0  0  0  0  0  0  0  0  0  0
   23.9855  -19.4776  -12.1637 O   0  0  0  0  0  0  0  0  0  0  0  0
   23.2287  -21.5841  -11.7567 N   0  0  0  0  0  0  0  0  0  0  0  0
   21.9216  -21.2227  -12.3254 C   0  0  1  0  0  0  0  0  0  0  0  0
   21.5957  -22.2343  -13.4284 C   0  0  0  0  0  0  0  0  0  0  0  0
   20.3567  -22.9935  -13.0592 C   0  0  0  0  0  0  0  0  0  0  0  0
   19.9974  -24.0131  -14.1441 C   0  0  0  0  0  0  0  0  0  0  0  0
   18.8106  -24.8486  -13.7737 C   0  0  0  0  0  0  0  0  0  0  0  0
   18.3649  -25.7257  -14.8284 N   0  0  0  0  0  0  0  0  0  0  0  0
   20.8538  -21.1738  -11.3381 C   0  0  0  0  0  0  0  0  0  0  0  0
   19.6879  -20.7865  -11.5785 O   0  0  0  0  0  0  0  0  0  0  0  0
   21.0935  -21.5754  -10.0316 O   0  0  0  0  0  0  0  0  0  0  0  0
  2  1  1  6
  3  2  1  0
  3  4  1  0
  4  9  2  0
  4  5  1  0
  5  6  2  0
  6  7  1  0
  8  7  2  0
  9  8  1  0
 10  2  1  0
 11 10  2  0
 12 13  1  0
 13 14  1  0
 15 14  1  0
 16 15  1  1
 16 17  1  0
 17 10  1  0
 18 16  1  0
 18 20  1  0
 19 18  2  0
 21 20  1  0
 21 27  1  0
 21 22  1  6
 23 22  1  0
 24 23  1  0
 25 24  1  0
 26 25  1  0
 27 29  1  0
 28 27  2  0
M  END
$$$$
