FMK.pdb
     RDKit          3D

 29 29  0  0  1  0  0  0  0  0999 V2000
   23.6720  -19.5993  -15.5105 N   0  0  0  0  0  0  0  0  0  0  0  0
   23.8522  -20.2034  -14.2303 C   0  0  1  0  0  0  0  0  0  0  0  0
   24.9526  -19.5624  -13.4198 C   0  0  0  0  0  0  0  0  0  0  0  0
   26.2048  -19.6443  -14.1744 C   0  0  0  0  0  0  0  0  0  0  0  0
   26.8515  -20.8590  -14.2657 C   0  0  0  0  0  0  0  0  0  0  0  0
   28.0388  -20.9615  -14.9736 C   0  0  0  0  0  0  0  0  0  0  0  0
   28.6004  -19.8664  -15.5985 C   0  0  0  0  0  0  0  0  0  0  0  0
   27.9536  -18.6468  -15.5082 C   0  0  0  0  0  0  0  0  0  0  0  0
   26.7761  -18.5729  -14.7996 C   0  0  0  0  0  0  0  0  0  0  0  0
   22.6017  -20.0656  -13.3949 C   0  0  0  0  0  0  0  0  0  0  0  0
   22.1124  -18.9265  -13.1586 O   0  0  0  0  0  0  0  0  0  0  0  0
   17.2332  -21.4039  -16.0281 C   0  0  0  0  0  0  0  0  0  0  0  0
   17.1078  -20.5956  -14.4031 S   0  0  0  0  0  0  0  0  0  0  0  0
   18.7061  -19.9196  -13.9561 C   0  0  0  0  0  0  0  0  0  0  0  0
   19.8171  -20.8724  -13.9030 C   0  0  0  0  0  0  0  0  0  0  0  0
   20.4721  -21.1997  -12.6072 C   0  0  2  0  0  0  0  0  0  0  0  0
   21.9520  -21.2039  -12.8603 N   0  0  0  0  0  0  0  0  0  0  0  0
   20.1152  -22.4259  -11.9262 C   0  0  0  0  0  0  0  0  0  0  0  0
   20.3142  -23.5196  -12.5437 O   0  0  0  0  0  0  0  0  0  0  0  0
   19.5679  -22.5649  -10.6183 N   0  0  0  0  0  0  0  0  0  0  0  0
   19.2220  -23.8947  -10.0944 C   0  0  1  0  0  0  0  0  0  0  0  0
   19.0357  -23.7664   -8.5794 C   0  0  0  0  0  0  0  0  0  0  0  0
   18.6836  -25.1057   -8.0047 C   0  0  0  0  0  0  0  0  0  0  0  0
   18.5327  -25.0241   -6.4828 C   0  0  0  0  0  0  0  0  0  0  0  0
   18.1646  -26.3418   -5.8728 C   0  0  0  0  0  0  0  0  0  0  0  0
   17.9924  -26.2923   -4.4417 N   0  0  0  0  0  0  0  0  0  0  0  0
   18.0378  -24.4710  -10.7130 C   0  0  0  0  0  0  0  0  0  0  0  0
   17.8587  -25.6977  -10.8866 O   0  0  0  0  0  0  0  0  0  0  0  0
   17.0106  -23.6481  -11.1529 O   0  0  0  0  0  0  0  0  0  0  0  0
  2  1  1  6
  3  2  1  0
  3  4  1  0
  4  9  2  0
  4  5  1  0
  5  6  2  0
  6  7  1  0
  8  7  2  0
  9  8  1  0
 10  2  1  0
 11 10  2  0
 12 13  1  0
 13 14  1  0
 15 14  1  0
 16 15  1  6
 16 17  1  0
 17 10  1  0
 18 16  1  0
 18 20  1  0
 19 18  2  0
 21 20  1  0
 21 27  1  0
 21 22  1  1
 23 22  1  0
 24 23  1  0
 25 24  1  0
 26 25  1  0
 27 29  1  0
 28 27  2  0
M  END
$$$$
