FMK.pdb
     RDKit          3D

 29 29  0  0  1  0  0  0  0  0999 V2000
   24.6253  -20.1298  -16.7176 N   0  0  0  0  0  0  0  0  0  0  0  0
   23.8291  -19.4935  -15.7187 C   0  0  1  0  0  0  0  0  0  0  0  0
   22.4628  -19.0883  -16.2162 C   0  0  0  0  0  0  0  0  0  0  0  0
   22.6153  -17.9980  -17.1817 C   0  0  0  0  0  0  0  0  0  0  0  0
   22.3869  -18.2520  -18.5178 C   0  0  0  0  0  0  0  0  0  0  0  0
   22.5259  -17.2364  -19.4509 C   0  0  0  0  0  0  0  0  0  0  0  0
   22.8919  -15.9597  -19.0752 C   0  0  0  0  0  0  0  0  0  0  0  0
   23.1216  -15.7024  -17.7353 C   0  0  0  0  0  0  0  0  0  0  0  0
   22.9762  -16.7287  -16.8299 C   0  0  0  0  0  0  0  0  0  0  0  0
   23.5768  -20.4302  -14.5613 C   0  0  0  0  0  0  0  0  0  0  0  0
   23.8528  -21.6578  -14.6598 O   0  0  0  0  0  0  0  0  0  0  0  0
   27.6526  -21.9289  -11.3187 C   0  0  0  0  0  0  0  0  0  0  0  0
   25.8373  -22.0277  -11.3843 S   0  0  0  0  0  0  0  0  0  0  0  0
   25.1481  -20.3950  -11.1184 C   0  0  0  0  0  0  0  0  0  0  0  0
   23.6868  -20.3127  -11.0660 C   0  0  0  0  0  0  0  0  0  0  0  0
   22.8573  -20.8724  -12.1678 C   0  0  2  0  0  0  0  0  0  0  0  0
   23.0285  -19.9566  -13.3453 N   0  0  0  0  0  0  0  0  0  0  0  0
   21.4426  -21.0847  -11.9480 C   0  0  0  0  0  0  0  0  0  0  0  0
   21.1058  -21.8510  -10.9907 O   0  0  0  0  0  0  0  0  0  0  0  0
   20.3566  -20.5215  -12.6779 N   0  0  0  0  0  0  0  0  0  0  0  0
   19.1547  -21.3212  -12.9580 C   0  0  1  0  0  0  0  0  0  0  0  0
   19.2037  -21.7388  -14.4309 C   0  0  0  0  0  0  0  0  0  0  0  0
   18.0651  -22.6691  -14.7242 C   0  0  0  0  0  0  0  0  0  0  0  0
   16.9203  -21.9282  -15.4213 C   0  0  0  0  0  0  0  0  0  0  0  0
   15.7338  -22.8091  -15.6664 C   0  0  0  0  0  0  0  0  0  0  0  0
   14.5824  -22.1055  -16.1758 N   0  0  0  0  0  0  0  0  0  0  0  0
   19.0196  -22.4855  -12.0958 C   0  0  0  0  0  0  0  0  0  0  0  0
   19.7938  -23.4691  -12.1122 O   0  0  0  0  0  0  0  0  0  0  0  0
   17.9827  -22.5554  -11.1763 O   0  0  0  0  0  0  0  0  0  0  0  0
  2  1  1  6
  3  2  1  0
  3  4  1  0
  4  9  2  0
  4  5  1  0
  5  6  2  0
  6  7  1  0
  8  7  2  0
  9  8  1  0
 10  2  1  0
 11 10  2  0
 12 13  1  0
 13 14  1  0
 15 14  1  0
 16 15  1  1
 16 17  1  0
 17 10  1  0
 18 16  1  0
 18 20  1  0
 19 18  2  0
 21 20  1  0
 21 27  1  0
 21 22  1  6
 23 22  1  0
 24 23  1  0
 25 24  1  0
 26 25  1  0
 27 29  1  0
 28 27  2  0
M  END
$$$$
