EAY.pdb
     RDKit          3D

 27 27  0  0  1  0  0  0  0  0999 V2000
   19.0624   -1.0472  -18.7234 N   0  0  0  0  0  0  0  0  0  0  0  0
   18.7628   -1.6552  -17.4398 C   0  0  1  0  0  0  0  0  0  0  0  0
   17.5340   -2.4738  -17.4558 C   0  0  0  0  0  0  0  0  0  0  0  0
   16.2525   -1.7413  -17.6166 C   0  0  0  0  0  0  0  0  0  0  0  0
   15.1336   -2.7407  -17.5844 C   0  0  0  0  0  0  0  0  0  0  0  0
   14.3480   -2.7932  -16.6067 O   0  0  0  0  0  0  0  0  0  0  0  0
   19.9863   -2.3160  -16.9479 C   0  0  0  0  0  0  0  0  0  0  0  0
   20.7094   -2.9968  -17.7540 O   0  0  0  0  0  0  0  0  0  0  0  0
   14.9241   -3.6353  -18.6193 O   0  0  0  0  0  0  0  0  0  0  0  0
   22.2241   -2.4928  -13.9024 C   0  0  0  0  0  0  0  0  0  0  0  0
   21.6211   -3.0206  -15.1595 C   0  0  2  0  0  0  0  0  0  0  0  0
   20.4647   -2.2742  -15.6119 N   0  0  0  0  0  0  0  0  0  0  0  0
   21.2964   -4.4884  -15.0630 C   0  0  0  0  0  0  0  0  0  0  0  0
   20.1179   -4.8664  -14.8027 O   0  0  0  0  0  0  0  0  0  0  0  0
   21.6548  -13.2337  -15.4884 O   0  0  0  0  0  0  0  0  0  0  0  0
   22.0046  -11.8737  -15.5318 C   0  0  0  0  0  0  0  0  0  0  0  0
   21.5157  -11.0652  -16.5405 C   0  0  0  0  0  0  0  0  0  0  0  0
   21.8651   -9.7287  -16.5752 C   0  0  0  0  0  0  0  0  0  0  0  0
   22.6950   -9.1842  -15.6198 C   0  0  0  0  0  0  0  0  0  0  0  0
   23.0802   -7.7589  -15.6653 C   0  0  0  0  0  0  0  0  0  0  0  0
   21.9845   -6.9243  -15.1092 C   0  0  2  0  0  0  0  0  0  0  0  0
   22.2774   -5.4856  -15.2557 N   0  0  0  0  0  0  0  0  0  0  0  0
   21.5642   -7.2352  -13.7368 C   0  0  0  0  0  0  0  0  0  0  0  0
   22.1692   -6.5000  -12.6930 O   0  0  0  0  0  0  0  0  0  0  0  0
   23.1748   -9.9910  -14.6248 C   0  0  0  0  0  0  0  0  0  0  0  0
   22.8315  -11.3138  -14.5868 C   0  0  0  0  0  0  0  0  0  0  0  0
   20.7312   -8.0776  -13.3930 O   0  0  0  0  0  0  0  0  0  0  0  0
  2  1  1  6
  2  3  1  0
  4  3  1  0
  5  4  1  0
  6  5  2  0
  7  2  1  0
  8  7  2  0
  9  5  1  0
 11 10  1  1
 11 12  1  0
 12  7  1  0
 13 11  1  0
 13 22  1  0
 14 13  2  0
 15 16  1  0
 16 17  2  0
 17 18  1  0
 19 18  2  0
 19 20  1  0
 21 20  1  1
 21 22  1  0
 21 23  1  0
 23 24  1  0
 25 19  1  0
 26 16  1  0
 26 25  2  0
 27 23  2  0
M  END
$$$$
