EAY.pdb
     RDKit          3D

 27 27  0  0  1  0  0  0  0  0999 V2000
   17.6805  -20.4026  -14.7881 N   0  0  0  0  0  0  0  0  0  0  0  0
   17.1788  -21.5791  -15.4747 C   0  0  1  0  0  0  0  0  0  0  0  0
   16.8031  -21.3181  -16.8787 C   0  0  0  0  0  0  0  0  0  0  0  0
   17.2440  -20.0213  -17.4518 C   0  0  0  0  0  0  0  0  0  0  0  0
   18.4211  -20.2795  -18.3460 C   0  0  0  0  0  0  0  0  0  0  0  0
   18.4148  -21.2406  -19.1535 O   0  0  0  0  0  0  0  0  0  0  0  0
   18.1267  -22.6852  -15.2428 C   0  0  0  0  0  0  0  0  0  0  0  0
   17.8400  -23.8640  -15.6482 O   0  0  0  0  0  0  0  0  0  0  0  0
   19.5489  -19.4781  -18.3175 O   0  0  0  0  0  0  0  0  0  0  0  0
   21.6530  -23.5138  -14.6850 C   0  0  0  0  0  0  0  0  0  0  0  0
   20.2281  -23.7092  -14.2926 C   0  0  2  0  0  0  0  0  0  0  0  0
   19.3796  -22.5718  -14.5848 N   0  0  0  0  0  0  0  0  0  0  0  0
   20.0853  -24.1165  -12.8494 C   0  0  0  0  0  0  0  0  0  0  0  0
   20.9808  -23.8149  -12.0088 O   0  0  0  0  0  0  0  0  0  0  0  0
   17.0598  -24.7629   -4.8680 O   0  0  0  0  0  0  0  0  0  0  0  0
   17.4891  -24.5227   -6.1840 C   0  0  0  0  0  0  0  0  0  0  0  0
   16.5922  -24.0692   -7.1327 C   0  0  0  0  0  0  0  0  0  0  0  0
   17.0235  -23.8356   -8.4246 C   0  0  0  0  0  0  0  0  0  0  0  0
   18.3358  -24.0470   -8.7868 C   0  0  0  0  0  0  0  0  0  0  0  0
   18.7935  -23.8112  -10.1713 C   0  0  0  0  0  0  0  0  0  0  0  0
   18.7149  -25.0745  -10.9486 C   0  0  2  0  0  0  0  0  0  0  0  0
   18.9653  -24.8392  -12.3835 N   0  0  0  0  0  0  0  0  0  0  0  0
   17.5033  -25.8816  -10.7548 C   0  0  0  0  0  0  0  0  0  0  0  0
   17.5809  -26.9550   -9.8394 O   0  0  0  0  0  0  0  0  0  0  0  0
   19.2173  -24.4959   -7.8420 C   0  0  0  0  0  0  0  0  0  0  0  0
   18.7947  -24.7282   -6.5628 C   0  0  0  0  0  0  0  0  0  0  0  0
   16.4136  -25.7220  -11.3104 O   0  0  0  0  0  0  0  0  0  0  0  0
  2  1  1  6
  2  3  1  0
  4  3  1  0
  5  4  1  0
  6  5  2  0
  7  2  1  0
  8  7  2  0
  9  5  1  0
 11 10  1  1
 11 12  1  0
 12  7  1  0
 13 11  1  0
 13 22  1  0
 14 13  2  0
 15 16  1  0
 16 17  2  0
 17 18  1  0
 19 18  2  0
 19 20  1  0
 21 20  1  1
 21 22  1  0
 21 23  1  0
 23 24  1  0
 25 19  1  0
 26 16  1  0
 26 25  2  0
 27 23  2  0
M  END
$$$$
