EAY.pdb
     RDKit          3D

 27 27  0  0  1  0  0  0  0  0999 V2000
   18.4375   -9.9271  -19.4575 N   0  0  0  0  0  0  0  0  0  0  0  0
   19.3333   -8.9365  -18.8888 C   0  0  1  0  0  0  0  0  0  0  0  0
   20.2861   -8.3811  -19.8707 C   0  0  0  0  0  0  0  0  0  0  0  0
   21.2142   -9.3466  -20.5120 C   0  0  0  0  0  0  0  0  0  0  0  0
   22.1329   -8.5823  -21.4193 C   0  0  0  0  0  0  0  0  0  0  0  0
   23.2193   -8.1208  -20.9918 O   0  0  0  0  0  0  0  0  0  0  0  0
   18.5215   -7.9613  -18.1367 C   0  0  0  0  0  0  0  0  0  0  0  0
   17.2713   -7.8504  -18.3827 O   0  0  0  0  0  0  0  0  0  0  0  0
   21.8241   -8.3572  -22.7494 O   0  0  0  0  0  0  0  0  0  0  0  0
   17.0235   -7.0393  -15.6647 C   0  0  0  0  0  0  0  0  0  0  0  0
   18.1411   -6.2796  -16.2943 C   0  0  2  0  0  0  0  0  0  0  0  0
   19.0068   -7.0929  -17.1238 N   0  0  0  0  0  0  0  0  0  0  0  0
   18.9502   -5.5125  -15.2813 C   0  0  0  0  0  0  0  0  0  0  0  0
   18.3780   -4.7423  -14.4573 O   0  0  0  0  0  0  0  0  0  0  0  0
   25.5544   -7.1558  -18.1271 O   0  0  0  0  0  0  0  0  0  0  0  0
   24.7477   -6.8003  -17.0332 C   0  0  0  0  0  0  0  0  0  0  0  0
   23.7449   -7.6507  -16.6075 C   0  0  0  0  0  0  0  0  0  0  0  0
   22.9563   -7.2927  -15.5306 C   0  0  0  0  0  0  0  0  0  0  0  0
   23.1513   -6.0993  -14.8704 C   0  0  0  0  0  0  0  0  0  0  0  0
   22.2990   -5.7100  -13.7286 C   0  0  0  0  0  0  0  0  0  0  0  0
   21.1578   -4.8900  -14.2099 C   0  0  2  0  0  0  0  0  0  0  0  0
   20.3564   -5.6195  -15.2113 N   0  0  0  0  0  0  0  0  0  0  0  0
   21.4839   -3.5391  -14.6845 C   0  0  0  0  0  0  0  0  0  0  0  0
   22.0834   -2.6556  -13.7591 O   0  0  0  0  0  0  0  0  0  0  0  0
   24.1459   -5.2631  -15.2980 C   0  0  0  0  0  0  0  0  0  0  0  0
   24.9283   -5.6136  -16.3629 C   0  0  0  0  0  0  0  0  0  0  0  0
   21.2891   -3.0872  -15.8157 O   0  0  0  0  0  0  0  0  0  0  0  0
  2  1  1  6
  2  3  1  0
  4  3  1  0
  5  4  1  0
  6  5  2  0
  7  2  1  0
  8  7  2  0
  9  5  1  0
 11 10  1  1
 11 12  1  0
 12  7  1  0
 13 11  1  0
 13 22  1  0
 14 13  2  0
 15 16  1  0
 16 17  2  0
 17 18  1  0
 19 18  2  0
 19 20  1  0
 21 20  1  6
 21 22  1  0
 21 23  1  0
 23 24  1  0
 25 19  1  0
 26 16  1  0
 26 25  2  0
 27 23  2  0
M  END
$$$$
