EAY.pdb
     RDKit          3D

 27 27  0  0  1  0  0  0  0  0999 V2000
   19.3142   -7.0296  -21.4012 N   0  0  0  0  0  0  0  0  0  0  0  0
   20.0905   -6.4214  -20.3361 C   0  0  1  0  0  0  0  0  0  0  0  0
   20.7539   -5.1664  -20.7427 C   0  0  0  0  0  0  0  0  0  0  0  0
   21.8701   -5.2921  -21.7138 C   0  0  0  0  0  0  0  0  0  0  0  0
   23.0918   -5.7433  -20.9684 C   0  0  0  0  0  0  0  0  0  0  0  0
   23.0275   -6.0385  -19.7500 O   0  0  0  0  0  0  0  0  0  0  0  0
   19.2435   -6.3562  -19.1302 C   0  0  0  0  0  0  0  0  0  0  0  0
   18.1064   -5.7728  -19.1825 O   0  0  0  0  0  0  0  0  0  0  0  0
   24.3253   -5.8511  -21.5863 O   0  0  0  0  0  0  0  0  0  0  0  0
   18.3772   -8.0930  -16.0721 C   0  0  0  0  0  0  0  0  0  0  0  0
   18.7153   -6.7839  -16.7001 C   0  0  2  0  0  0  0  0  0  0  0  0
   19.5759   -6.8965  -17.8602 N   0  0  0  0  0  0  0  0  0  0  0  0
   19.2928   -5.8084  -15.7081 C   0  0  0  0  0  0  0  0  0  0  0  0
   18.6475   -5.5006  -14.6649 O   0  0  0  0  0  0  0  0  0  0  0  0
   22.0588  -10.2405  -13.0212 O   0  0  0  0  0  0  0  0  0  0  0  0
   22.1548   -8.8834  -13.3719 C   0  0  0  0  0  0  0  0  0  0  0  0
   22.7819   -8.5150  -14.5472 C   0  0  0  0  0  0  0  0  0  0  0  0
   22.8716   -7.1779  -14.8840 C   0  0  0  0  0  0  0  0  0  0  0  0
   22.3459   -6.2006  -14.0676 C   0  0  0  0  0  0  0  0  0  0  0  0
   22.4547   -4.7704  -14.4205 C   0  0  0  0  0  0  0  0  0  0  0  0
   21.1463   -4.2750  -14.9192 C   0  0  2  0  0  0  0  0  0  0  0  0
   20.5563   -5.2076  -15.8987 N   0  0  0  0  0  0  0  0  0  0  0  0
   21.1254   -2.8982  -15.4299 C   0  0  0  0  0  0  0  0  0  0  0  0
   21.6799   -1.8940  -14.6051 O   0  0  0  0  0  0  0  0  0  0  0  0
   21.7269   -6.5734  -12.9060 C   0  0  0  0  0  0  0  0  0  0  0  0
   21.6360   -7.8952  -12.5691 C   0  0  0  0  0  0  0  0  0  0  0  0
   20.6715   -2.5196  -16.5126 O   0  0  0  0  0  0  0  0  0  0  0  0
  2  1  1  6
  2  3  1  0
  4  3  1  0
  5  4  1  0
  6  5  2  0
  7  2  1  0
  8  7  2  0
  9  5  1  0
 11 10  1  1
 11 12  1  0
 12  7  1  0
 13 11  1  0
 13 22  1  0
 14 13  2  0
 15 16  1  0
 16 17  2  0
 17 18  1  0
 19 18  2  0
 19 20  1  0
 21 20  1  6
 21 22  1  0
 21 23  1  0
 23 24  1  0
 25 19  1  0
 26 16  1  0
 26 25  2  0
 27 23  2  0
M  END
$$$$
