EAY.pdb
     RDKit          3D

 27 27  0  0  1  0  0  0  0  0999 V2000
   18.3695  -11.5023  -17.7159 N   0  0  0  0  0  0  0  0  0  0  0  0
   19.6339  -10.8414  -17.9830 C   0  0  1  0  0  0  0  0  0  0  0  0
   19.5862   -9.9447  -19.1553 C   0  0  0  0  0  0  0  0  0  0  0  0
   20.3714  -10.3656  -20.3431 C   0  0  0  0  0  0  0  0  0  0  0  0
   21.1297   -9.1742  -20.8503 C   0  0  0  0  0  0  0  0  0  0  0  0
   20.5269   -8.2038  -21.3706 O   0  0  0  0  0  0  0  0  0  0  0  0
   20.1178  -10.2489  -16.7218 C   0  0  0  0  0  0  0  0  0  0  0  0
   19.3158   -9.5773  -15.9858 O   0  0  0  0  0  0  0  0  0  0  0  0
   22.5089   -9.0971  -20.7664 O   0  0  0  0  0  0  0  0  0  0  0  0
   23.1937  -10.1288  -14.5024 C   0  0  0  0  0  0  0  0  0  0  0  0
   21.9071   -9.6198  -15.0575 C   0  0  2  0  0  0  0  0  0  0  0  0
   21.4416  -10.3500  -16.2191 N   0  0  0  0  0  0  0  0  0  0  0  0
   21.9569   -8.1427  -15.3485 C   0  0  0  0  0  0  0  0  0  0  0  0
   22.5164   -7.7170  -16.3998 O   0  0  0  0  0  0  0  0  0  0  0  0
   18.7876   -6.2801  -20.2932 O   0  0  0  0  0  0  0  0  0  0  0  0
   19.1586   -5.9744  -18.9731 C   0  0  0  0  0  0  0  0  0  0  0  0
   19.9236   -4.8536  -18.7111 C   0  0  0  0  0  0  0  0  0  0  0  0
   20.2838   -4.5608  -17.4095 C   0  0  0  0  0  0  0  0  0  0  0  0
   19.8933   -5.3678  -16.3635 C   0  0  0  0  0  0  0  0  0  0  0  0
   20.2905   -5.0628  -14.9739 C   0  0  0  0  0  0  0  0  0  0  0  0
   21.5762   -5.7366  -14.6593 C   0  0  2  0  0  0  0  0  0  0  0  0
   21.3910   -7.1888  -14.4747 N   0  0  0  0  0  0  0  0  0  0  0  0
   22.3556   -5.1643  -13.5539 C   0  0  0  0  0  0  0  0  0  0  0  0
   22.7264   -3.8051  -13.6599 O   0  0  0  0  0  0  0  0  0  0  0  0
   19.1362   -6.4753  -16.6311 C   0  0  0  0  0  0  0  0  0  0  0  0
   18.7778   -6.7686  -17.9174 C   0  0  0  0  0  0  0  0  0  0  0  0
   22.7254   -5.7480  -12.5320 O   0  0  0  0  0  0  0  0  0  0  0  0
  2  1  1  1
  2  3  1  0
  4  3  1  0
  5  4  1  0
  6  5  2  0
  7  2  1  0
  8  7  2  0
  9  5  1  0
 11 10  1  6
 11 12  1  0
 12  7  1  0
 13 11  1  0
 13 22  1  0
 14 13  2  0
 15 16  1  0
 16 17  2  0
 17 18  1  0
 19 18  2  0
 19 20  1  0
 21 20  1  1
 21 22  1  0
 21 23  1  0
 23 24  1  0
 25 19  1  0
 26 16  1  0
 26 25  2  0
 27 23  2  0
M  END
$$$$
