EAY.pdb
     RDKit          3D

 27 27  0  0  1  0  0  0  0  0999 V2000
   21.0446   -7.9381  -20.5068 N   0  0  0  0  0  0  0  0  0  0  0  0
   21.6332   -9.0556  -19.7914 C   0  0  1  0  0  0  0  0  0  0  0  0
   23.1054   -8.9808  -19.7041 C   0  0  0  0  0  0  0  0  0  0  0  0
   23.8619   -9.3859  -20.9157 C   0  0  0  0  0  0  0  0  0  0  0  0
   24.0287  -10.8769  -20.8880 C   0  0  0  0  0  0  0  0  0  0  0  0
   24.7387  -11.4269  -20.0110 O   0  0  0  0  0  0  0  0  0  0  0  0
   20.9069   -9.2196  -18.5181 C   0  0  0  0  0  0  0  0  0  0  0  0
   21.2154  -10.1775  -17.7287 O   0  0  0  0  0  0  0  0  0  0  0  0
   23.4138  -11.6974  -21.8173 O   0  0  0  0  0  0  0  0  0  0  0  0
   18.9687  -10.0335  -16.4535 C   0  0  0  0  0  0  0  0  0  0  0  0
   19.1679   -8.5970  -16.7989 C   0  0  2  0  0  0  0  0  0  0  0  0
   19.8521   -8.3877  -18.0587 N   0  0  0  0  0  0  0  0  0  0  0  0
   19.8525   -7.8352  -15.6943 C   0  0  0  0  0  0  0  0  0  0  0  0
   19.3389   -7.7843  -14.5397 O   0  0  0  0  0  0  0  0  0  0  0  0
   26.3283   -5.9543  -19.1903 O   0  0  0  0  0  0  0  0  0  0  0  0
   25.5382   -6.2146  -18.0581 C   0  0  0  0  0  0  0  0  0  0  0  0
   25.2784   -5.2066  -17.1489 C   0  0  0  0  0  0  0  0  0  0  0  0
   24.5002   -5.4717  -16.0382 C   0  0  0  0  0  0  0  0  0  0  0  0
   23.9761   -6.7268  -15.8186 C   0  0  0  0  0  0  0  0  0  0  0  0
   23.1563   -7.0139  -14.6239 C   0  0  0  0  0  0  0  0  0  0  0  0
   21.7886   -6.4651  -14.8092 C   0  0  2  0  0  0  0  0  0  0  0  0
   21.0745   -7.1580  -15.8988 N   0  0  0  0  0  0  0  0  0  0  0  0
   21.6891   -5.0080  -14.9626 C   0  0  0  0  0  0  0  0  0  0  0  0
   22.2649   -4.2101  -13.9486 O   0  0  0  0  0  0  0  0  0  0  0  0
   24.2378   -7.7190  -16.7232 C   0  0  0  0  0  0  0  0  0  0  0  0
   25.0073   -7.4608  -17.8233 C   0  0  0  0  0  0  0  0  0  0  0  0
   21.1516   -4.3986  -15.8907 O   0  0  0  0  0  0  0  0  0  0  0  0
  2  1  1  1
  2  3  1  0
  4  3  1  0
  5  4  1  0
  6  5  2  0
  7  2  1  0
  8  7  2  0
  9  5  1  0
 11 10  1  1
 11 12  1  0
 12  7  1  0
 13 11  1  0
 13 22  1  0
 14 13  2  0
 15 16  1  0
 16 17  2  0
 17 18  1  0
 19 18  2  0
 19 20  1  0
 21 20  1  6
 21 22  1  0
 21 23  1  0
 23 24  1  0
 25 19  1  0
 26 16  1  0
 26 25  2  0
 27 23  2  0
M  END
$$$$
