EAY.pdb
     RDKit          3D

 27 27  0  0  1  0  0  0  0  0999 V2000
   22.1022   -2.0089  -20.1228 N   0  0  0  0  0  0  0  0  0  0  0  0
   21.0409   -2.4393  -19.2310 C   0  0  1  0  0  0  0  0  0  0  0  0
   19.9756   -3.1977  -19.9169 C   0  0  0  0  0  0  0  0  0  0  0  0
   18.6095   -2.6186  -19.8609 C   0  0  0  0  0  0  0  0  0  0  0  0
   17.8443   -3.3254  -18.7808 C   0  0  0  0  0  0  0  0  0  0  0  0
   17.1090   -2.6843  -17.9907 O   0  0  0  0  0  0  0  0  0  0  0  0
   21.6600   -3.0884  -18.0600 C   0  0  0  0  0  0  0  0  0  0  0  0
   22.6284   -3.9076  -18.2250 O   0  0  0  0  0  0  0  0  0  0  0  0
   17.9168   -4.6971  -18.6131 O   0  0  0  0  0  0  0  0  0  0  0  0
   21.6555   -2.9130  -14.2755 C   0  0  0  0  0  0  0  0  0  0  0  0
   21.9135   -3.5592  -15.5940 C   0  0  2  0  0  0  0  0  0  0  0  0
   21.2734   -2.8904  -16.7084 N   0  0  0  0  0  0  0  0  0  0  0  0
   21.5651   -5.0247  -15.5880 C   0  0  0  0  0  0  0  0  0  0  0  0
   20.4309   -5.4135  -15.9901 O   0  0  0  0  0  0  0  0  0  0  0  0
   21.9088  -13.7668  -15.2171 O   0  0  0  0  0  0  0  0  0  0  0  0
   22.2461  -12.4051  -15.2917 C   0  0  0  0  0  0  0  0  0  0  0  0
   21.8859  -11.6625  -16.4003 C   0  0  0  0  0  0  0  0  0  0  0  0
   22.2220  -10.3237  -16.4649 C   0  0  0  0  0  0  0  0  0  0  0  0
   22.9121   -9.7121  -15.4414 C   0  0  0  0  0  0  0  0  0  0  0  0
   23.2840   -8.2846  -15.5170 C   0  0  0  0  0  0  0  0  0  0  0  0
   22.1336   -7.4428  -15.0994 C   0  0  2  0  0  0  0  0  0  0  0  0
   22.4747   -6.0078  -15.1408 N   0  0  0  0  0  0  0  0  0  0  0  0
   21.5031   -7.7937  -13.8203 C   0  0  0  0  0  0  0  0  0  0  0  0
   21.8840   -7.0446  -12.6845 O   0  0  0  0  0  0  0  0  0  0  0  0
   23.2650  -10.4539  -14.3475 C   0  0  0  0  0  0  0  0  0  0  0  0
   22.9345  -11.7788  -14.2796 C   0  0  0  0  0  0  0  0  0  0  0  0
   20.6679   -8.6809  -13.6281 O   0  0  0  0  0  0  0  0  0  0  0  0
  2  1  1  6
  2  3  1  0
  4  3  1  0
  5  4  1  0
  6  5  2  0
  7  2  1  0
  8  7  2  0
  9  5  1  0
 11 10  1  1
 11 12  1  0
 12  7  1  0
 13 11  1  0
 13 22  1  0
 14 13  2  0
 15 16  1  0
 16 17  2  0
 17 18  1  0
 19 18  2  0
 19 20  1  0
 21 20  1  1
 21 22  1  0
 21 23  1  0
 23 24  1  0
 25 19  1  0
 26 16  1  0
 26 25  2  0
 27 23  2  0
M  END
$$$$
