EAY.pdb
     RDKit          3D

 27 27  0  0  1  0  0  0  0  0999 V2000
   19.3475  -11.8527  -15.7229 N   0  0  0  0  0  0  0  0  0  0  0  0
   18.6294  -10.5943  -15.8108 C   0  0  1  0  0  0  0  0  0  0  0  0
   17.2034  -10.7604  -16.1566 C   0  0  0  0  0  0  0  0  0  0  0  0
   16.9069  -11.2466  -17.5278 C   0  0  0  0  0  0  0  0  0  0  0  0
   15.4167  -11.3197  -17.6877 C   0  0  0  0  0  0  0  0  0  0  0  0
   14.7509  -10.2946  -17.9737 O   0  0  0  0  0  0  0  0  0  0  0  0
   18.9241   -9.8115  -14.5959 C   0  0  0  0  0  0  0  0  0  0  0  0
   18.6714  -10.3062  -13.4437 O   0  0  0  0  0  0  0  0  0  0  0  0
   14.7230  -12.5064  -17.5282 O   0  0  0  0  0  0  0  0  0  0  0  0
   20.3277   -6.4295  -13.5538 C   0  0  0  0  0  0  0  0  0  0  0  0
   19.5888   -7.7106  -13.3664 C   0  0  2  0  0  0  0  0  0  0  0  0
   19.4825   -8.5065  -14.5723 N   0  0  0  0  0  0  0  0  0  0  0  0
   18.2295   -7.4997  -12.7524 C   0  0  0  0  0  0  0  0  0  0  0  0
   17.2303   -7.2444  -13.4845 O   0  0  0  0  0  0  0  0  0  0  0  0
   10.9635   -7.4897   -8.1212 O   0  0  0  0  0  0  0  0  0  0  0  0
   12.2319   -7.7692   -8.6568 C   0  0  0  0  0  0  0  0  0  0  0  0
   13.3091   -7.9726   -7.8151 C   0  0  0  0  0  0  0  0  0  0  0  0
   14.5530   -8.2470   -8.3509 C   0  0  0  0  0  0  0  0  0  0  0  0
   14.7409   -8.3220   -9.7136 C   0  0  0  0  0  0  0  0  0  0  0  0
   16.0735   -8.6009  -10.2866 C   0  0  0  0  0  0  0  0  0  0  0  0
   16.7000   -7.3335  -10.7419 C   0  0  2  0  0  0  0  0  0  0  0  0
   18.0183   -7.5767  -11.3584 N   0  0  0  0  0  0  0  0  0  0  0  0
   16.7785   -6.2547   -9.7485 C   0  0  0  0  0  0  0  0  0  0  0  0
   17.9563   -6.1748   -8.9723 O   0  0  0  0  0  0  0  0  0  0  0  0
   13.6697   -8.1194  -10.5399 C   0  0  0  0  0  0  0  0  0  0  0  0
   12.4375   -7.8477  -10.0139 C   0  0  0  0  0  0  0  0  0  0  0  0
   15.9183   -5.4017   -9.5159 O   0  0  0  0  0  0  0  0  0  0  0  0
  2  1  1  1
  2  3  1  0
  4  3  1  0
  5  4  1  0
  6  5  2  0
  7  2  1  0
  8  7  2  0
  9  5  1  0
 11 10  1  6
 11 12  1  0
 12  7  1  0
 13 11  1  0
 13 22  1  0
 14 13  2  0
 15 16  1  0
 16 17  2  0
 17 18  1  0
 19 18  2  0
 19 20  1  0
 21 20  1  1
 21 22  1  0
 21 23  1  0
 23 24  1  0
 25 19  1  0
 26 16  1  0
 26 25  2  0
 27 23  2  0
M  END
$$$$
