RAA.pdb
     RDKit          3D

 22 21  0  0  1  0  0  0  0  0999 V2000
    7.2270  -14.2480   19.5527 N   0  0  0  0  0  0  0  0  0  0  0  0
    8.0236  -13.9975   18.4075 C   0  0  0  0  0  0  0  0  0  0  0  0
    7.8682  -12.8630   17.8090 N   0  0  0  0  0  0  0  0  0  0  0  0
    8.9591  -14.9048   17.8937 N   0  0  0  0  0  0  0  0  0  0  0  0
    9.1633  -16.2226   18.4725 C   0  0  0  0  0  0  0  0  0  0  0  0
    8.3941  -16.3072   19.7812 C   0  0  0  0  0  0  0  0  0  0  0  0
    9.2347  -15.7961   20.9052 C   0  0  0  0  0  0  0  0  0  0  0  0
    8.7392  -16.2824   22.2314 C   0  0  2  0  0  0  0  0  0  0  0  0
    7.3089  -16.6175   22.1012 N   0  0  0  0  0  0  0  0  0  0  0  0
    8.9445  -15.2790   23.2785 C   0  0  0  0  0  0  0  0  0  0  0  0
   10.0362  -14.7097   23.4412 O   0  0  0  0  0  0  0  0  0  0  0  0
    8.3878  -12.5624   16.9601 C   0  0  0  0  0  0  0  0  0  0  0  0
    6.6874  -13.7255   25.8307 C   0  0  2  0  0  0  0  0  0  0  0  0
    8.0575  -14.0485   25.2544 N   0  0  0  0  0  0  0  0  0  0  0  0
    7.8469  -14.9496   24.1383 C   0  0  0  0  0  0  0  0  0  0  0  0
    8.9038  -14.7341   26.2493 O   0  0  0  0  0  0  0  0  0  0  0  0
    9.0527  -15.9570   26.2095 C   0  0  0  0  0  0  0  0  0  0  0  0
   10.9245  -13.7618   29.3328 C   0  0  1  0  0  0  0  0  0  0  0  0
   10.3748  -14.6962   28.2808 N   0  0  0  0  0  0  0  0  0  0  0  0
    9.5838  -14.0123   27.2958 C   0  0  0  0  0  0  0  0  0  0  0  0
    9.5380  -15.7034   28.9698 O   0  0  0  0  0  0  0  0  0  0  0  0
    8.2933  -15.6673   28.8234 O   0  0  0  0  0  0  0  0  0  0  0  0
  1  2  1  0
  2  4  1  0
  3  2  2  0
  4  5  1  0
  5  6  1  0
  6  7  1  0
  7  8  1  0
  8 10  1  0
  8  9  1  6
 10 14  1  0
 10 11  2  0
 13 15  1  0
 13 12  1  6
 14 13  1  0
 15 16  2  0
 18 17  1  6
 19 18  1  0
 19 15  1  0
 20 22  1  0
 20 18  1  0
 21 20  2  0
M  END
$$$$
