RAA.pdb
     RDKit          3D

 22 21  0  0  1  0  0  0  0  0999 V2000
    7.6266  -12.8581   18.9463 N   0  0  0  0  0  0  0  0  0  0  0  0
    8.2760  -13.3969   17.8076 C   0  0  0  0  0  0  0  0  0  0  0  0
    7.5758  -13.5341   16.7304 N   0  0  0  0  0  0  0  0  0  0  0  0
    9.6214  -13.7865   17.7877 N   0  0  0  0  0  0  0  0  0  0  0  0
   10.4281  -13.8580   18.9949 C   0  0  0  0  0  0  0  0  0  0  0  0
   10.1705  -15.1917   19.6777 C   0  0  0  0  0  0  0  0  0  0  0  0
   11.0022  -15.3054   20.9133 C   0  0  0  0  0  0  0  0  0  0  0  0
   10.3947  -16.2492   21.9037 C   0  0  2  0  0  0  0  0  0  0  0  0
    9.1332  -16.7672   21.3420 N   0  0  0  0  0  0  0  0  0  0  0  0
   10.1591  -15.5927   23.1916 C   0  0  0  0  0  0  0  0  0  0  0  0
   11.0644  -15.0087   23.8093 O   0  0  0  0  0  0  0  0  0  0  0  0
    7.9247  -13.9488   15.8431 C   0  0  0  0  0  0  0  0  0  0  0  0
    7.1482  -14.5078   25.0089 C   0  0  2  0  0  0  0  0  0  0  0  0
    8.5874  -14.9996   25.0310 N   0  0  0  0  0  0  0  0  0  0  0  0
    8.8403  -15.6301   23.7501 C   0  0  0  0  0  0  0  0  0  0  0  0
    8.7881  -16.0066   26.0900 O   0  0  0  0  0  0  0  0  0  0  0  0
    8.5444  -15.7353   27.2675 C   0  0  0  0  0  0  0  0  0  0  0  0
    8.9092  -19.6659   26.4577 C   0  0  2  0  0  0  0  0  0  0  0  0
    9.4517  -18.3077   26.8363 N   0  0  0  0  0  0  0  0  0  0  0  0
    9.2708  -17.3331   25.7966 C   0  0  0  0  0  0  0  0  0  0  0  0
   10.8961  -18.4648   27.1164 O   0  0  0  0  0  0  0  0  0  0  0  0
   11.7294  -17.9243   26.3513 O   0  0  0  0  0  0  0  0  0  0  0  0
  1  2  1  0
  2  4  1  0
  3  2  2  0
  4  5  1  0
  5  6  1  0
  6  7  1  0
  7  8  1  0
  8 10  1  0
  8  9  1  6
 10 14  1  0
 10 11  2  0
 13 15  1  0
 13 12  1  6
 14 13  1  0
 15 16  2  0
 18 17  1  1
 19 18  1  0
 19 15  1  0
 20 22  1  0
 20 18  1  0
 21 20  2  0
M  END
$$$$
