RAA.pdb
     RDKit          3D

 22 21  0  0  1  0  0  0  0  0999 V2000
    9.3202  -15.2754   17.0786 N   0  0  0  0  0  0  0  0  0  0  0  0
    8.5116  -14.2035   16.6248 C   0  0  0  0  0  0  0  0  0  0  0  0
    8.2251  -14.1636   15.3655 N   0  0  0  0  0  0  0  0  0  0  0  0
    8.0129  -13.1945   17.4588 N   0  0  0  0  0  0  0  0  0  0  0  0
    8.4389  -13.0468   18.8408 C   0  0  0  0  0  0  0  0  0  0  0  0
    7.3923  -13.6767   19.7459 C   0  0  0  0  0  0  0  0  0  0  0  0
    7.8248  -13.5851   21.1727 C   0  0  0  0  0  0  0  0  0  0  0  0
    8.4358  -14.8661   21.6485 C   0  0  2  0  0  0  0  0  0  0  0  0
    7.6453  -15.9887   21.1102 N   0  0  0  0  0  0  0  0  0  0  0  0
    8.4880  -14.9217   23.1112 C   0  0  0  0  0  0  0  0  0  0  0  0
    9.0665  -14.0527   23.7838 O   0  0  0  0  0  0  0  0  0  0  0  0
    7.6522  -13.4258   14.9091 C   0  0  0  0  0  0  0  0  0  0  0  0
    6.5625  -16.4977   25.7338 C   0  0  2  0  0  0  0  0  0  0  0  0
    7.9465  -16.1285   25.2220 N   0  0  0  0  0  0  0  0  0  0  0  0
    7.8499  -16.0164   23.7798 C   0  0  0  0  0  0  0  0  0  0  0  0
    8.9285  -17.1825   25.5394 O   0  0  0  0  0  0  0  0  0  0  0  0
    9.1857  -17.4677   26.7106 C   0  0  0  0  0  0  0  0  0  0  0  0
   10.5934  -20.0936   23.9492 C   0  0  2  0  0  0  0  0  0  0  0  0
   10.6468  -18.8655   24.8273 N   0  0  0  0  0  0  0  0  0  0  0  0
    9.6193  -17.9142   24.5069 C   0  0  0  0  0  0  0  0  0  0  0  0
   11.9734  -18.2378   24.6388 O   0  0  0  0  0  0  0  0  0  0  0  0
   13.0040  -18.8834   24.9439 O   0  0  0  0  0  0  0  0  0  0  0  0
  1  2  1  0
  2  4  1  0
  3  2  2  0
  4  5  1  0
  5  6  1  0
  6  7  1  0
  7  8  1  0
  8 10  1  0
  8  9  1  1
 10 14  1  0
 10 11  2  0
 13 15  1  0
 13 12  1  1
 14 13  1  0
 15 16  2  0
 18 17  1  1
 19 18  1  0
 19 15  1  0
 20 22  1  0
 20 18  1  0
 21 20  2  0
M  END
$$$$
