RAA.pdb
     RDKit          3D

 22 21  0  0  1  0  0  0  0  0999 V2000
    6.9205  -20.4140   15.7917 N   0  0  0  0  0  0  0  0  0  0  0  0
    7.5477  -20.2856   14.5273 C   0  0  0  0  0  0  0  0  0  0  0  0
    7.0162  -20.9134   13.5309 N   0  0  0  0  0  0  0  0  0  0  0  0
    8.7020  -19.5244   14.3022 N   0  0  0  0  0  0  0  0  0  0  0  0
    9.3788  -18.8044   15.3684 C   0  0  0  0  0  0  0  0  0  0  0  0
    8.6423  -17.4988   15.6220 C   0  0  0  0  0  0  0  0  0  0  0  0
    8.7509  -16.6074   14.4283 C   0  0  0  0  0  0  0  0  0  0  0  0
    8.0050  -15.3248   14.6266 C   0  0  2  0  0  0  0  0  0  0  0  0
    8.1350  -14.5148   13.4011 N   0  0  0  0  0  0  0  0  0  0  0  0
    8.5064  -14.5903   15.7905 C   0  0  0  0  0  0  0  0  0  0  0  0
    9.6835  -14.2022   15.8683 O   0  0  0  0  0  0  0  0  0  0  0  0
    7.3869  -20.9096   12.5595 C   0  0  0  0  0  0  0  0  0  0  0  0
    6.9003  -13.1264   18.8180 C   0  0  1  0  0  0  0  0  0  0  0  0
    8.1041  -13.6884   18.0774 N   0  0  0  0  0  0  0  0  0  0  0  0
    7.6046  -14.3152   16.8692 C   0  0  0  0  0  0  0  0  0  0  0  0
    8.7902  -14.7165   18.8824 O   0  0  0  0  0  0  0  0  0  0  0  0
    9.2356  -14.4445   19.9991 C   0  0  0  0  0  0  0  0  0  0  0  0
    8.8893  -17.5342   20.3648 C   0  0  2  0  0  0  0  0  0  0  0  0
    9.6811  -17.0430   19.1758 N   0  0  0  0  0  0  0  0  0  0  0  0
    8.9660  -16.0651   18.4039 C   0  0  0  0  0  0  0  0  0  0  0  0
    9.9840  -18.2149   18.3247 O   0  0  0  0  0  0  0  0  0  0  0  0
    9.1606  -19.1587   18.2685 O   0  0  0  0  0  0  0  0  0  0  0  0
  1  2  1  0
  2  4  1  0
  3  2  2  0
  4  5  1  0
  5  6  1  0
  6  7  1  0
  7  8  1  0
  8 10  1  0
  8  9  1  6
 10 14  1  0
 10 11  2  0
 13 15  1  0
 13 12  1  6
 14 13  1  0
 15 16  2  0
 18 17  1  1
 19 18  1  0
 19 15  1  0
 20 22  1  0
 20 18  1  0
 21 20  2  0
M  END
$$$$
