RAA.pdb
     RDKit          3D

 22 21  0  0  1  0  0  0  0  0999 V2000
    8.4492  -12.4577   19.6167 N   0  0  0  0  0  0  0  0  0  0  0  0
    7.3962  -13.2295   19.0649 C   0  0  0  0  0  0  0  0  0  0  0  0
    6.8622  -12.8108   17.9654 N   0  0  0  0  0  0  0  0  0  0  0  0
    6.9070  -14.4083   19.6424 N   0  0  0  0  0  0  0  0  0  0  0  0
    7.7040  -15.2196   20.5477 C   0  0  0  0  0  0  0  0  0  0  0  0
    8.8715  -15.8125   19.7751 C   0  0  0  0  0  0  0  0  0  0  0  0
    9.6886  -16.6864   20.6695 C   0  0  0  0  0  0  0  0  0  0  0  0
   10.7794  -17.3820   19.9164 C   0  0  2  0  0  0  0  0  0  0  0  0
   10.1696  -18.4178   19.0618 N   0  0  0  0  0  0  0  0  0  0  0  0
   11.7637  -17.9724   20.8264 C   0  0  0  0  0  0  0  0  0  0  0  0
   11.6670  -19.1416   21.2336 O   0  0  0  0  0  0  0  0  0  0  0  0
    6.1288  -13.3172   17.4300 C   0  0  0  0  0  0  0  0  0  0  0  0
   15.1106  -16.9172   22.0445 C   0  0  1  0  0  0  0  0  0  0  0  0
   13.8240  -17.7132   22.2022 N   0  0  0  0  0  0  0  0  0  0  0  0
   12.8695  -17.1693   21.2560 C   0  0  0  0  0  0  0  0  0  0  0  0
   13.2681  -17.5602   23.5599 O   0  0  0  0  0  0  0  0  0  0  0  0
   13.9162  -17.9154   24.5465 C   0  0  0  0  0  0  0  0  0  0  0  0
   10.3179  -15.7791   25.1400 C   0  0  2  0  0  0  0  0  0  0  0  0
   11.4774  -16.7472   25.1171 N   0  0  0  0  0  0  0  0  0  0  0  0
   11.9611  -16.9957   23.7875 C   0  0  0  0  0  0  0  0  0  0  0  0
   11.0117  -18.0177   25.7158 O   0  0  0  0  0  0  0  0  0  0  0  0
   10.9039  -19.0330   24.9881 O   0  0  0  0  0  0  0  0  0  0  0  0
  1  2  1  0
  2  4  1  0
  3  2  2  0
  4  5  1  0
  5  6  1  0
  6  7  1  0
  7  8  1  0
  8 10  1  0
  8  9  1  1
 10 14  1  0
 10 11  2  0
 13 15  1  0
 13 12  1  6
 14 13  1  0
 15 16  2  0
 18 17  1  1
 19 18  1  0
 19 15  1  0
 20 22  1  0
 20 18  1  0
 21 20  2  0
M  END
$$$$
