RAA.pdb
     RDKit          3D

 22 21  0  0  1  0  0  0  0  0999 V2000
   10.9336  -14.3807   20.7236 N   0  0  0  0  0  0  0  0  0  0  0  0
   11.2370  -13.8048   19.4646 C   0  0  0  0  0  0  0  0  0  0  0  0
   12.3872  -14.0796   18.9442 N   0  0  0  0  0  0  0  0  0  0  0  0
   10.3668  -12.9611   18.7622 N   0  0  0  0  0  0  0  0  0  0  0  0
    9.1161  -12.4865   19.3310 C   0  0  0  0  0  0  0  0  0  0  0  0
    8.0138  -13.4740   18.9828 C   0  0  0  0  0  0  0  0  0  0  0  0
    7.2561  -13.8529   20.2131 C   0  0  0  0  0  0  0  0  0  0  0  0
    7.3486  -15.3213   20.4888 C   0  0  2  0  0  0  0  0  0  0  0  0
    6.3310  -16.0140   19.6766 N   0  0  0  0  0  0  0  0  0  0  0  0
    7.1615  -15.6099   21.9126 C   0  0  0  0  0  0  0  0  0  0  0  0
    6.0439  -15.5685   22.4525 O   0  0  0  0  0  0  0  0  0  0  0  0
   12.7855  -13.6159   18.1032 C   0  0  0  0  0  0  0  0  0  0  0  0
    9.1784  -17.2900   24.4765 C   0  0  1  0  0  0  0  0  0  0  0  0
    8.1484  -16.2311   24.1139 N   0  0  0  0  0  0  0  0  0  0  0  0
    8.3088  -15.9492   22.7008 C   0  0  0  0  0  0  0  0  0  0  0  0
    8.3832  -14.9830   24.8643 O   0  0  0  0  0  0  0  0  0  0  0  0
    9.3283  -14.2463   24.5756 C   0  0  0  0  0  0  0  0  0  0  0  0
    6.3990  -12.6147   26.8914 C   0  0  2  0  0  0  0  0  0  0  0  0
    7.7086  -13.3134   26.6106 N   0  0  0  0  0  0  0  0  0  0  0  0
    7.5284  -14.5773   25.9521 C   0  0  0  0  0  0  0  0  0  0  0  0
    8.3887  -13.5277   27.9071 O   0  0  0  0  0  0  0  0  0  0  0  0
    8.7112  -12.5336   28.5998 O   0  0  0  0  0  0  0  0  0  0  0  0
  1  2  1  0
  2  4  1  0
  3  2  2  0
  4  5  1  0
  5  6  1  0
  6  7  1  0
  7  8  1  0
  8 10  1  0
  8  9  1  6
 10 14  1  0
 10 11  2  0
 13 15  1  0
 13 12  1  6
 14 13  1  0
 15 16  2  0
 18 17  1  6
 19 18  1  0
 19 15  1  0
 20 22  1  0
 20 18  1  0
 21 20  2  0
M  END
$$$$
