RAA.pdb
     RDKit          3D

 22 21  0  0  1  0  0  0  0  0999 V2000
    8.0141  -13.2145   18.0350 N   0  0  0  0  0  0  0  0  0  0  0  0
    8.5024  -12.9712   19.3431 C   0  0  0  0  0  0  0  0  0  0  0  0
    9.1675  -11.8809   19.5387 N   0  0  0  0  0  0  0  0  0  0  0  0
    8.3065  -13.8409   20.4237 N   0  0  0  0  0  0  0  0  0  0  0  0
    7.7631  -15.1788   20.2565 C   0  0  0  0  0  0  0  0  0  0  0  0
    6.3640  -15.2169   20.8502 C   0  0  0  0  0  0  0  0  0  0  0  0
    6.4350  -15.5034   22.3145 C   0  0  0  0  0  0  0  0  0  0  0  0
    6.5769  -16.9689   22.5847 C   0  0  2  0  0  0  0  0  0  0  0  0
    5.5121  -17.6833   21.8563 N   0  0  0  0  0  0  0  0  0  0  0  0
    6.5080  -17.2563   24.0193 C   0  0  0  0  0  0  0  0  0  0  0  0
    5.7233  -16.6593   24.7743 O   0  0  0  0  0  0  0  0  0  0  0  0
    9.5746  -11.5879   20.4494 C   0  0  0  0  0  0  0  0  0  0  0  0
    7.2364  -19.6496   26.4982 C   0  0  1  0  0  0  0  0  0  0  0  0
    7.6466  -18.2776   25.9854 N   0  0  0  0  0  0  0  0  0  0  0  0
    7.3766  -18.2585   24.5611 C   0  0  0  0  0  0  0  0  0  0  0  0
    9.0894  -18.0454   26.1860 O   0  0  0  0  0  0  0  0  0  0  0  0
    9.5517  -17.9155   27.3213 C   0  0  0  0  0  0  0  0  0  0  0  0
   12.2506  -18.9445   24.9589 C   0  0  2  0  0  0  0  0  0  0  0  0
   11.4102  -17.7327   25.2869 N   0  0  0  0  0  0  0  0  0  0  0  0
   10.0077  -17.9622   25.0776 C   0  0  0  0  0  0  0  0  0  0  0  0
   11.8621  -16.6255   24.4156 O   0  0  0  0  0  0  0  0  0  0  0  0
   11.0807  -16.1749   23.5448 O   0  0  0  0  0  0  0  0  0  0  0  0
  1  2  1  0
  2  4  1  0
  3  2  2  0
  4  5  1  0
  5  6  1  0
  6  7  1  0
  7  8  1  0
  8 10  1  0
  8  9  1  6
 10 14  1  0
 10 11  2  0
 13 15  1  0
 13 12  1  1
 14 13  1  0
 15 16  2  0
 18 17  1  1
 19 18  1  0
 19 15  1  0
 20 22  1  0
 20 18  1  0
 21 20  2  0
M  END
$$$$
