RAA.pdb
     RDKit          3D

 22 21  0  0  1  0  0  0  0  0999 V2000
    7.5946  -11.9781   18.4455 N   0  0  0  0  0  0  0  0  0  0  0  0
    7.8901  -13.2807   17.9714 C   0  0  0  0  0  0  0  0  0  0  0  0
    8.1229  -13.4173   16.7078 N   0  0  0  0  0  0  0  0  0  0  0  0
    7.9410  -14.4164   18.7899 N   0  0  0  0  0  0  0  0  0  0  0  0
    7.7057  -14.3532   20.2230 C   0  0  0  0  0  0  0  0  0  0  0  0
    7.8660  -15.7475   20.8076 C   0  0  0  0  0  0  0  0  0  0  0  0
    7.5263  -15.7368   22.2622 C   0  0  0  0  0  0  0  0  0  0  0  0
    8.0192  -16.9694   22.9539 C   0  0  2  0  0  0  0  0  0  0  0  0
    7.2042  -18.1139   22.5059 N   0  0  0  0  0  0  0  0  0  0  0  0
    7.9566  -16.8254   24.4102 C   0  0  0  0  0  0  0  0  0  0  0  0
    6.9330  -17.1022   25.0567 O   0  0  0  0  0  0  0  0  0  0  0  0
    8.3477  -14.3174   16.2385 C   0  0  0  0  0  0  0  0  0  0  0  0
   10.4867  -16.3251   27.0602 C   0  0  1  0  0  0  0  0  0  0  0  0
    9.0660  -16.1657   26.5407 N   0  0  0  0  0  0  0  0  0  0  0  0
    9.1165  -16.3493   25.1034 C   0  0  0  0  0  0  0  0  0  0  0  0
    8.5487  -14.8120   26.8163 O   0  0  0  0  0  0  0  0  0  0  0  0
    8.3935  -14.4243   27.9760 C   0  0  0  0  0  0  0  0  0  0  0  0
    7.6346  -11.7119   24.8041 C   0  0  2  0  0  0  0  0  0  0  0  0
    7.7068  -12.5811   26.0376 N   0  0  0  0  0  0  0  0  0  0  0  0
    8.2079  -13.8974   25.7552 C   0  0  0  0  0  0  0  0  0  0  0  0
    6.3392  -12.6848   26.5928 O   0  0  0  0  0  0  0  0  0  0  0  0
    5.7972  -11.6634   27.0775 O   0  0  0  0  0  0  0  0  0  0  0  0
  1  2  1  0
  2  4  1  0
  3  2  2  0
  4  5  1  0
  5  6  1  0
  6  7  1  0
  7  8  1  0
  8 10  1  0
  8  9  1  6
 10 14  1  0
 10 11  2  0
 13 15  1  0
 13 12  1  1
 14 13  1  0
 15 16  2  0
 18 17  1  1
 19 18  1  0
 19 15  1  0
 20 22  1  0
 20 18  1  0
 21 20  2  0
M  END
$$$$
