RAA.pdb
     RDKit          3D

 22 21  0  0  1  0  0  0  0  0999 V2000
    8.0646  -12.1657   18.3534 N   0  0  0  0  0  0  0  0  0  0  0  0
    8.3719  -13.4775   17.9137 C   0  0  0  0  0  0  0  0  0  0  0  0
    8.0625  -13.7873   16.6981 N   0  0  0  0  0  0  0  0  0  0  0  0
    8.9849  -14.4469   18.7181 N   0  0  0  0  0  0  0  0  0  0  0  0
    8.7900  -14.4992   20.1577 C   0  0  0  0  0  0  0  0  0  0  0  0
    7.3077  -14.6767   20.4451 C   0  0  0  0  0  0  0  0  0  0  0  0
    7.0694  -14.6988   21.9195 C   0  0  0  0  0  0  0  0  0  0  0  0
    8.0577  -15.5732   22.6261 C   0  0  2  0  0  0  0  0  0  0  0  0
    8.3224  -16.7543   21.7835 N   0  0  0  0  0  0  0  0  0  0  0  0
    7.5663  -15.9761   23.9458 C   0  0  0  0  0  0  0  0  0  0  0  0
    7.2147  -15.1461   24.8000 O   0  0  0  0  0  0  0  0  0  0  0  0
    8.2009  -14.7245   16.2696 C   0  0  0  0  0  0  0  0  0  0  0  0
    5.9215  -18.6497   25.5227 C   0  0  2  0  0  0  0  0  0  0  0  0
    7.1754  -17.7927   25.6048 N   0  0  0  0  0  0  0  0  0  0  0  0
    7.4923  -17.3733   24.2536 C   0  0  0  0  0  0  0  0  0  0  0  0
    8.3156  -18.5688   26.1278 O   0  0  0  0  0  0  0  0  0  0  0  0
    8.2145  -19.1980   27.1829 C   0  0  0  0  0  0  0  0  0  0  0  0
   11.8491  -19.4523   25.0216 C   0  0  2  0  0  0  0  0  0  0  0  0
   10.7114  -19.3018   26.0040 N   0  0  0  0  0  0  0  0  0  0  0  0
    9.5793  -18.6240   25.4360 C   0  0  0  0  0  0  0  0  0  0  0  0
   11.2173  -18.5291   27.1599 O   0  0  0  0  0  0  0  0  0  0  0  0
   10.6695  -17.4404   27.4544 O   0  0  0  0  0  0  0  0  0  0  0  0
  1  2  1  0
  2  4  1  0
  3  2  2  0
  4  5  1  0
  5  6  1  0
  6  7  1  0
  7  8  1  0
  8 10  1  0
  8  9  1  6
 10 14  1  0
 10 11  2  0
 13 15  1  0
 13 12  1  1
 14 13  1  0
 15 16  2  0
 18 17  1  6
 19 18  1  0
 19 15  1  0
 20 22  1  0
 20 18  1  0
 21 20  2  0
M  END
$$$$
