ICL.pdb
     RDKit          3D

 23 22  0  0  1  0  0  0  0  0999 V2000
    8.0890  -11.9849   19.7279 C   0  0  0  0  0  0  0  0  0  0  0  0
    7.6658  -13.4291   19.8216 C   0  0  0  0  0  0  0  0  0  0  0  0
    8.7331  -14.4037   19.4752 C   0  0  2  0  0  0  0  0  0  0  0  0
    9.1749  -14.1178   18.0400 C   0  0  0  0  0  0  0  0  0  0  0  0
    8.3913  -15.8489   19.6402 C   0  0  2  0  0  0  0  0  0  0  0  0
    7.2998  -16.1123   18.6773 N   0  0  0  0  0  0  0  0  0  0  0  0
    7.9264  -16.2723   20.9537 C   0  0  0  0  0  0  0  0  0  0  0  0
    6.6595  -16.2677   21.1891 O   0  0  0  0  0  0  0  0  0  0  0  0
    8.6941  -16.7103   22.0590 N   0  0  0  0  0  0  0  0  0  0  0  0
    8.1459  -16.9678   23.3600 C   0  0  1  0  0  0  0  0  0  0  0  0
    8.3602  -18.4764   23.5896 C   0  0  0  0  0  0  0  0  0  0  0  0
    7.8028  -18.9292   25.2575 S   0  0  0  0  0  0  0  0  0  0  0  0
    8.6934  -16.1728   24.4561 C   0  0  0  0  0  0  0  0  0  0  0  0
    9.9516  -15.9224   24.4986 O   0  0  0  0  0  0  0  0  0  0  0  0
    7.4723  -12.1449   25.4423 C   0  0  0  0  0  0  0  0  0  0  0  0
    6.6611  -13.2057   26.2085 C   0  0  2  0  0  0  0  0  0  0  0  0
    5.4805  -12.5190   26.7966 C   0  0  0  0  0  0  0  0  0  0  0  0
    7.5820  -13.8380   27.1809 C   0  0  0  0  0  0  0  0  0  0  0  0
    8.5825  -14.7802   26.5766 C   0  0  2  0  0  0  0  0  0  0  0  0
    7.9737  -15.6087   25.5419 N   0  0  0  0  0  0  0  0  0  0  0  0
    9.2831  -15.5751   27.5830 C   0  0  0  0  0  0  0  0  0  0  0  0
   10.0774  -14.8828   28.5186 O   0  0  0  0  0  0  0  0  0  0  0  0
    9.2611  -16.8188   27.7148 O   0  0  0  0  0  0  0  0  0  0  0  0
  2  1  1  0
  2  3  1  0
  3  4  1  6
  5  7  1  0
  5  3  1  0
  5  6  1  6
  7  8  2  0
  9 10  1  0
  9  7  1  0
 10 11  1  1
 11 12  1  0
 13 10  1  0
 14 13  2  0
 16 15  1  1
 17 16  1  0
 18 16  1  0
 19 18  1  1
 19 20  1  0
 20 13  1  0
 21 22  1  0
 21 19  1  0
 23 21  2  0
M  END
$$$$
