ICL.pdb
     RDKit          3D

 23 22  0  0  1  0  0  0  0  0999 V2000
    7.5284  -11.9915   18.1278 C   0  0  0  0  0  0  0  0  0  0  0  0
    8.0343  -13.4118   18.1437 C   0  0  0  0  0  0  0  0  0  0  0  0
    7.9206  -14.0876   19.4625 C   0  0  2  0  0  0  0  0  0  0  0  0
    8.7340  -13.2767   20.4713 C   0  0  0  0  0  0  0  0  0  0  0  0
    8.3168  -15.5277   19.5068 C   0  0  2  0  0  0  0  0  0  0  0  0
    7.3533  -16.2326   18.6335 N   0  0  0  0  0  0  0  0  0  0  0  0
    8.2865  -16.1817   20.8075 C   0  0  0  0  0  0  0  0  0  0  0  0
    7.1533  -16.3038   21.4088 O   0  0  0  0  0  0  0  0  0  0  0  0
    9.3654  -16.7301   21.5412 N   0  0  0  0  0  0  0  0  0  0  0  0
    9.2729  -17.1342   22.9151 C   0  0  1  0  0  0  0  0  0  0  0  0
   10.4601  -18.0933   23.1275 C   0  0  0  0  0  0  0  0  0  0  0  0
   10.5175  -18.6249   24.8631 S   0  0  0  0  0  0  0  0  0  0  0  0
    9.2668  -16.0575   23.9019 C   0  0  0  0  0  0  0  0  0  0  0  0
   10.0422  -15.0459   23.7499 O   0  0  0  0  0  0  0  0  0  0  0  0
    5.7352  -12.5435   27.1587 C   0  0  0  0  0  0  0  0  0  0  0  0
    7.2046  -12.9749   26.9999 C   0  0  2  0  0  0  0  0  0  0  0  0
    7.9671  -11.7841   26.5395 C   0  0  0  0  0  0  0  0  0  0  0  0
    7.2194  -14.1369   26.0817 C   0  0  0  0  0  0  0  0  0  0  0  0
    8.5261  -14.8737   26.0228 C   0  0  2  0  0  0  0  0  0  0  0  0
    8.4692  -15.9798   25.0736 N   0  0  0  0  0  0  0  0  0  0  0  0
    8.9905  -15.2979   27.3418 C   0  0  0  0  0  0  0  0  0  0  0  0
    9.7123  -14.3607   28.1075 O   0  0  0  0  0  0  0  0  0  0  0  0
    8.8206  -16.4135   27.8813 O   0  0  0  0  0  0  0  0  0  0  0  0
  2  1  1  0
  2  3  1  0
  3  4  1  1
  5  7  1  0
  5  3  1  0
  5  6  1  6
  7  8  2  0
  9 10  1  0
  9  7  1  0
 10 11  1  1
 11 12  1  0
 13 10  1  0
 14 13  2  0
 16 15  1  6
 17 16  1  0
 18 16  1  0
 19 18  1  1
 19 20  1  0
 20 13  1  0
 21 22  1  0
 21 19  1  0
 23 21  2  0
M  END
$$$$
