ICL.pdb
     RDKit          3D

 23 22  0  0  1  0  0  0  0  0999 V2000
    7.6869  -12.1016   18.1822 C   0  0  0  0  0  0  0  0  0  0  0  0
    8.3619  -13.4438   18.3101 C   0  0  0  0  0  0  0  0  0  0  0  0
    8.1352  -14.1214   19.6134 C   0  0  2  0  0  0  0  0  0  0  0  0
    8.6763  -13.2070   20.7124 C   0  0  0  0  0  0  0  0  0  0  0  0
    8.6991  -15.4982   19.7525 C   0  0  2  0  0  0  0  0  0  0  0  0
    7.9627  -16.3304   18.7763 N   0  0  0  0  0  0  0  0  0  0  0  0
    8.5705  -16.1363   21.0551 C   0  0  0  0  0  0  0  0  0  0  0  0
    7.5363  -16.8711   21.2811 O   0  0  0  0  0  0  0  0  0  0  0  0
    9.4541  -16.0682   22.1586 N   0  0  0  0  0  0  0  0  0  0  0  0
    9.1974  -16.6896   23.4264 C   0  0  1  0  0  0  0  0  0  0  0  0
   10.0535  -17.9708   23.4212 C   0  0  0  0  0  0  0  0  0  0  0  0
    9.9171  -18.8074   25.0272 S   0  0  0  0  0  0  0  0  0  0  0  0
    9.4598  -15.8711   24.6073 C   0  0  0  0  0  0  0  0  0  0  0  0
   10.6108  -15.3251   24.7645 O   0  0  0  0  0  0  0  0  0  0  0  0
    7.8206  -12.0783   25.9209 C   0  0  0  0  0  0  0  0  0  0  0  0
    6.9212  -13.2572   26.3354 C   0  0  2  0  0  0  0  0  0  0  0  0
    5.6300  -12.6851   26.8009 C   0  0  0  0  0  0  0  0  0  0  0  0
    7.6714  -14.0430   27.3419 C   0  0  0  0  0  0  0  0  0  0  0  0
    8.8867  -14.7463   26.8106 C   0  0  2  0  0  0  0  0  0  0  0  0
    8.5557  -15.5843   25.6634 N   0  0  0  0  0  0  0  0  0  0  0  0
    9.6058  -15.4837   27.8472 C   0  0  0  0  0  0  0  0  0  0  0  0
   10.2090  -14.7338   28.8764 O   0  0  0  0  0  0  0  0  0  0  0  0
    9.7519  -16.7232   27.9309 O   0  0  0  0  0  0  0  0  0  0  0  0
  2  1  1  0
  2  3  1  0
  3  4  1  1
  5  7  1  0
  5  3  1  0
  5  6  1  6
  7  8  2  0
  9 10  1  0
  9  7  1  0
 10 11  1  1
 11 12  1  0
 13 10  1  0
 14 13  2  0
 16 15  1  1
 17 16  1  0
 18 16  1  0
 19 18  1  1
 19 20  1  0
 20 13  1  0
 21 22  1  0
 21 19  1  0
 23 21  2  0
M  END
$$$$
