ICL.pdb
     RDKit          3D

 23 22  0  0  1  0  0  0  0  0999 V2000
    7.7346  -12.0534   18.3375 C   0  0  0  0  0  0  0  0  0  0  0  0
    8.0640  -13.5244   18.3740 C   0  0  0  0  0  0  0  0  0  0  0  0
    7.8307  -14.1715   19.6915 C   0  0  2  0  0  0  0  0  0  0  0  0
    8.6471  -13.4086   20.7346 C   0  0  0  0  0  0  0  0  0  0  0  0
    8.1163  -15.6361   19.7714 C   0  0  2  0  0  0  0  0  0  0  0  0
    7.1667  -16.2784   18.8368 N   0  0  0  0  0  0  0  0  0  0  0  0
    7.9480  -16.2722   21.0705 C   0  0  0  0  0  0  0  0  0  0  0  0
    6.7818  -16.2539   21.6183 O   0  0  0  0  0  0  0  0  0  0  0  0
    8.9186  -16.9399   21.8548 N   0  0  0  0  0  0  0  0  0  0  0  0
    8.7205  -17.3073   23.2278 C   0  0  1  0  0  0  0  0  0  0  0  0
    9.6944  -18.4766   23.4704 C   0  0  0  0  0  0  0  0  0  0  0  0
    9.5724  -19.0298   25.1958 S   0  0  0  0  0  0  0  0  0  0  0  0
    8.9026  -16.2418   24.2100 C   0  0  0  0  0  0  0  0  0  0  0  0
    9.9686  -15.5271   24.1886 O   0  0  0  0  0  0  0  0  0  0  0  0
    5.8875  -11.9579   27.0573 C   0  0  0  0  0  0  0  0  0  0  0  0
    7.2678  -12.6110   26.8612 C   0  0  2  0  0  0  0  0  0  0  0  0
    7.9861  -11.8228   25.8249 C   0  0  0  0  0  0  0  0  0  0  0  0
    7.0315  -14.0352   26.5306 C   0  0  0  0  0  0  0  0  0  0  0  0
    8.2719  -14.8212   26.2181 C   0  0  2  0  0  0  0  0  0  0  0  0
    8.0024  -15.8727   25.2438 N   0  0  0  0  0  0  0  0  0  0  0  0
    8.9288  -15.3328   27.4190 C   0  0  0  0  0  0  0  0  0  0  0  0
    9.7799  -14.4532   28.1173 O   0  0  0  0  0  0  0  0  0  0  0  0
    8.8236  -16.4787   27.9093 O   0  0  0  0  0  0  0  0  0  0  0  0
  2  1  1  0
  2  3  1  0
  3  4  1  1
  5  7  1  0
  5  3  1  0
  5  6  1  6
  7  8  2  0
  9 10  1  0
  9  7  1  0
 10 11  1  1
 11 12  1  0
 13 10  1  0
 14 13  2  0
 16 15  1  6
 17 16  1  0
 18 16  1  0
 19 18  1  1
 19 20  1  0
 20 13  1  0
 21 22  1  0
 21 19  1  0
 23 21  2  0
M  END
$$$$
