ICL.pdb
     RDKit          3D

 23 22  0  0  1  0  0  0  0  0999 V2000
    6.9283  -11.8437   19.3642 C   0  0  0  0  0  0  0  0  0  0  0  0
    7.5279  -13.2227   19.2530 C   0  0  0  0  0  0  0  0  0  0  0  0
    7.6709  -13.9346   20.5498 C   0  0  2  0  0  0  0  0  0  0  0  0
    8.5098  -13.0521   21.4739 C   0  0  0  0  0  0  0  0  0  0  0  0
    8.2362  -15.3165   20.4896 C   0  0  2  0  0  0  0  0  0  0  0  0
    7.3242  -16.0818   19.6119 N   0  0  0  0  0  0  0  0  0  0  0  0
    8.3427  -16.0423   21.7476 C   0  0  0  0  0  0  0  0  0  0  0  0
    7.2693  -16.5248   22.2725 O   0  0  0  0  0  0  0  0  0  0  0  0
    9.5029  -16.3106   22.5123 N   0  0  0  0  0  0  0  0  0  0  0  0
    9.4746  -16.8015   23.8605 C   0  0  1  0  0  0  0  0  0  0  0  0
   10.2315  -18.1429   23.8105 C   0  0  0  0  0  0  0  0  0  0  0  0
   10.7011  -18.5198   22.0972 S   0  0  0  0  0  0  0  0  0  0  0  0
   10.0234  -15.9108   24.8796 C   0  0  0  0  0  0  0  0  0  0  0  0
   10.3227  -14.6999   24.5770 O   0  0  0  0  0  0  0  0  0  0  0  0
    9.2147  -12.6327   27.4188 C   0  0  0  0  0  0  0  0  0  0  0  0
    8.2658  -13.5982   26.6854 C   0  0  2  0  0  0  0  0  0  0  0  0
    6.8896  -13.0509   26.8187 C   0  0  0  0  0  0  0  0  0  0  0  0
    8.4776  -14.9427   27.2692 C   0  0  0  0  0  0  0  0  0  0  0  0
    9.9144  -15.3691   27.3581 C   0  0  2  0  0  0  0  0  0  0  0  0
   10.2831  -16.2284   26.2386 N   0  0  0  0  0  0  0  0  0  0  0  0
   10.2423  -15.9690   28.6496 C   0  0  0  0  0  0  0  0  0  0  0  0
   10.0039  -17.3493   28.8027 O   0  0  0  0  0  0  0  0  0  0  0  0
   10.7179  -15.3928   29.6528 O   0  0  0  0  0  0  0  0  0  0  0  0
  2  1  1  0
  2  3  1  0
  3  4  1  1
  5  7  1  0
  5  3  1  0
  5  6  1  6
  7  8  2  0
  9 10  1  0
  9  7  1  0
 10 11  1  6
 11 12  1  0
 13 10  1  0
 14 13  2  0
 16 15  1  1
 17 16  1  0
 18 16  1  0
 19 18  1  1
 19 20  1  0
 20 13  1  0
 21 22  1  0
 21 19  1  0
 23 21  2  0
M  END
$$$$
