ICL.pdb
     RDKit          3D

 23 22  0  0  1  0  0  0  0  0999 V2000
    7.9368  -12.1051   19.3641 C   0  0  0  0  0  0  0  0  0  0  0  0
    7.7837  -13.6041   19.4212 C   0  0  0  0  0  0  0  0  0  0  0  0
    7.5030  -14.1396   20.7789 C   0  0  2  0  0  0  0  0  0  0  0  0
    8.6278  -13.6740   21.7034 C   0  0  0  0  0  0  0  0  0  0  0  0
    7.3170  -15.6186   20.8836 C   0  0  2  0  0  0  0  0  0  0  0  0
    6.1565  -15.9358   20.0231 N   0  0  0  0  0  0  0  0  0  0  0  0
    7.0391  -16.1575   22.2076 C   0  0  0  0  0  0  0  0  0  0  0  0
    5.9989  -15.7332   22.8389 O   0  0  0  0  0  0  0  0  0  0  0  0
    7.7737  -17.1236   22.9355 N   0  0  0  0  0  0  0  0  0  0  0  0
    7.6324  -17.3365   24.3477 C   0  0  1  0  0  0  0  0  0  0  0  0
    7.2489  -18.8223   24.4888 C   0  0  0  0  0  0  0  0  0  0  0  0
    6.9879  -19.2257   26.2401 S   0  0  0  0  0  0  0  0  0  0  0  0
    8.7937  -16.9997   25.1669 C   0  0  0  0  0  0  0  0  0  0  0  0
    9.9771  -17.2126   24.7177 O   0  0  0  0  0  0  0  0  0  0  0  0
    9.5001  -12.8795   28.9307 C   0  0  0  0  0  0  0  0  0  0  0  0
    9.6513  -13.8547   27.7489 C   0  0  2  0  0  0  0  0  0  0  0  0
    8.4719  -13.6623   26.8640 C   0  0  0  0  0  0  0  0  0  0  0  0
    9.8048  -15.2116   28.3224 C   0  0  0  0  0  0  0  0  0  0  0  0
    9.9690  -16.3066   27.3086 C   0  0  2  0  0  0  0  0  0  0  0  0
    8.7829  -16.4348   26.4693 N   0  0  0  0  0  0  0  0  0  0  0  0
   10.3600  -17.5776   27.9144 C   0  0  0  0  0  0  0  0  0  0  0  0
   11.6252  -17.6399   28.5315 O   0  0  0  0  0  0  0  0  0  0  0  0
    9.6933  -18.6353   27.9510 O   0  0  0  0  0  0  0  0  0  0  0  0
  2  1  1  0
  2  3  1  0
  3  4  1  1
  5  7  1  0
  5  3  1  0
  5  6  1  6
  7  8  2  0
  9 10  1  0
  9  7  1  0
 10 11  1  6
 11 12  1  0
 13 10  1  0
 14 13  2  0
 16 15  1  1
 17 16  1  0
 18 16  1  0
 19 18  1  1
 19 20  1  0
 20 13  1  0
 21 22  1  0
 21 19  1  0
 23 21  2  0
M  END
$$$$
