ICL.pdb
     RDKit          3D

 23 22  0  0  1  0  0  0  0  0999 V2000
    5.5988  -18.7958   17.9591 C   0  0  0  0  0  0  0  0  0  0  0  0
    6.5515  -17.7363   18.4524 C   0  0  0  0  0  0  0  0  0  0  0  0
    6.7375  -17.7186   19.9269 C   0  0  2  0  0  0  0  0  0  0  0  0
    5.3535  -17.6178   20.5682 C   0  0  0  0  0  0  0  0  0  0  0  0
    7.6443  -16.6619   20.4689 C   0  0  2  0  0  0  0  0  0  0  0  0
    8.8705  -16.7283   19.6443 N   0  0  0  0  0  0  0  0  0  0  0  0
    8.0479  -16.7886   21.8623 C   0  0  0  0  0  0  0  0  0  0  0  0
    7.1365  -16.7545   22.7726 O   0  0  0  0  0  0  0  0  0  0  0  0
    9.3512  -16.9537   22.3886 N   0  0  0  0  0  0  0  0  0  0  0  0
    9.6324  -17.1253   23.7854 C   0  0  1  0  0  0  0  0  0  0  0  0
   11.0132  -17.8077   23.8315 C   0  0  0  0  0  0  0  0  0  0  0  0
   11.5261  -18.0404   25.5580 S   0  0  0  0  0  0  0  0  0  0  0  0
    9.6029  -15.9133   24.5998 C   0  0  0  0  0  0  0  0  0  0  0  0
   10.3164  -14.9001   24.2651 O   0  0  0  0  0  0  0  0  0  0  0  0
    5.9546  -12.1821   26.8080 C   0  0  0  0  0  0  0  0  0  0  0  0
    7.3839  -12.5845   26.4008 C   0  0  2  0  0  0  0  0  0  0  0  0
    7.4674  -12.4785   24.9199 C   0  0  0  0  0  0  0  0  0  0  0  0
    7.6311  -13.9336   26.9594 C   0  0  0  0  0  0  0  0  0  0  0  0
    8.9739  -14.5154   26.6242 C   0  0  2  0  0  0  0  0  0  0  0  0
    8.8442  -15.6978   25.7801 N   0  0  0  0  0  0  0  0  0  0  0  0
    9.7877  -14.7678   27.8114 C   0  0  0  0  0  0  0  0  0  0  0  0
   10.2764  -13.6476   28.5128 O   0  0  0  0  0  0  0  0  0  0  0  0
   10.1077  -15.8794   28.2872 O   0  0  0  0  0  0  0  0  0  0  0  0
  2  1  1  0
  2  3  1  0
  3  4  1  1
  5  7  1  0
  5  3  1  0
  5  6  1  6
  7  8  2  0
  9 10  1  0
  9  7  1  0
 10 11  1  6
 11 12  1  0
 13 10  1  0
 14 13  2  0
 16 15  1  6
 17 16  1  0
 18 16  1  0
 19 18  1  1
 19 20  1  0
 20 13  1  0
 21 22  1  0
 21 19  1  0
 23 21  2  0
M  END
$$$$
