ICL.pdb
     RDKit          3D

 23 22  0  0  1  0  0  0  0  0999 V2000
    7.3909  -12.1763   19.5093 C   0  0  0  0  0  0  0  0  0  0  0  0
    7.1453  -13.6259   19.8438 C   0  0  0  0  0  0  0  0  0  0  0  0
    8.3080  -14.5173   19.5942 C   0  0  2  0  0  0  0  0  0  0  0  0
    8.7691  -14.2871   18.1550 C   0  0  0  0  0  0  0  0  0  0  0  0
    8.0944  -15.9741   19.8491 C   0  0  2  0  0  0  0  0  0  0  0  0
    7.0516  -16.3974   18.8893 N   0  0  0  0  0  0  0  0  0  0  0  0
    7.6418  -16.3525   21.1805 C   0  0  0  0  0  0  0  0  0  0  0  0
    6.3863  -16.2566   21.4542 O   0  0  0  0  0  0  0  0  0  0  0  0
    8.4109  -16.8342   22.2666 N   0  0  0  0  0  0  0  0  0  0  0  0
    7.9015  -16.9878   23.5994 C   0  0  1  0  0  0  0  0  0  0  0  0
    8.0685  -18.4862   23.9180 C   0  0  0  0  0  0  0  0  0  0  0  0
    7.5667  -18.8092   25.6332 S   0  0  0  0  0  0  0  0  0  0  0  0
    8.5177  -16.1474   24.6228 C   0  0  0  0  0  0  0  0  0  0  0  0
    9.7960  -16.1046   24.7312 O   0  0  0  0  0  0  0  0  0  0  0  0
    8.3807  -11.7549   25.6756 C   0  0  0  0  0  0  0  0  0  0  0  0
    7.1748  -12.5746   26.1701 C   0  0  2  0  0  0  0  0  0  0  0  0
    6.1445  -11.6082   26.6344 C   0  0  0  0  0  0  0  0  0  0  0  0
    7.6798  -13.5130   27.1986 C   0  0  0  0  0  0  0  0  0  0  0  0
    8.5190  -14.6375   26.6645 C   0  0  2  0  0  0  0  0  0  0  0  0
    7.8484  -15.3248   25.5665 N   0  0  0  0  0  0  0  0  0  0  0  0
    8.9546  -15.5585   27.7120 C   0  0  0  0  0  0  0  0  0  0  0  0
    9.8024  -15.0465   28.7143 O   0  0  0  0  0  0  0  0  0  0  0  0
    8.6592  -16.7685   27.8266 O   0  0  0  0  0  0  0  0  0  0  0  0
  2  1  1  0
  2  3  1  0
  3  4  1  6
  5  7  1  0
  5  3  1  0
  5  6  1  6
  7  8  2  0
  9 10  1  0
  9  7  1  0
 10 11  1  1
 11 12  1  0
 13 10  1  0
 14 13  2  0
 16 15  1  1
 17 16  1  0
 18 16  1  0
 19 18  1  1
 19 20  1  0
 20 13  1  0
 21 22  1  0
 21 19  1  0
 23 21  2  0
M  END
$$$$
