ICL.pdb
     RDKit          3D

 23 22  0  0  1  0  0  0  0  0999 V2000
    7.8907  -12.2866   17.7837 C   0  0  0  0  0  0  0  0  0  0  0  0
    8.3153  -13.6869   18.1476 C   0  0  0  0  0  0  0  0  0  0  0  0
    7.8546  -14.1379   19.4868 C   0  0  2  0  0  0  0  0  0  0  0  0
    8.4529  -13.1908   20.5269 C   0  0  0  0  0  0  0  0  0  0  0  0
    8.1445  -15.5594   19.8444 C   0  0  2  0  0  0  0  0  0  0  0  0
    7.3377  -16.3769   18.9124 N   0  0  0  0  0  0  0  0  0  0  0  0
    7.8100  -15.9819   21.1973 C   0  0  0  0  0  0  0  0  0  0  0  0
    6.7422  -16.6801   21.3778 O   0  0  0  0  0  0  0  0  0  0  0  0
    8.5173  -15.7301   22.3971 N   0  0  0  0  0  0  0  0  0  0  0  0
    8.1386  -16.2642   23.6741 C   0  0  1  0  0  0  0  0  0  0  0  0
    8.0376  -17.7860   23.4538 C   0  0  0  0  0  0  0  0  0  0  0  0
    7.6142  -18.6063   25.0177 S   0  0  0  0  0  0  0  0  0  0  0  0
    9.0196  -15.9390   24.7927 C   0  0  0  0  0  0  0  0  0  0  0  0
    9.8392  -16.8203   25.2389 O   0  0  0  0  0  0  0  0  0  0  0  0
    8.0975  -12.1087   26.1957 C   0  0  0  0  0  0  0  0  0  0  0  0
    6.8145  -12.9314   26.4135 C   0  0  2  0  0  0  0  0  0  0  0  0
    5.9021  -12.1121   27.2547 C   0  0  0  0  0  0  0  0  0  0  0  0
    7.2248  -14.2303   26.9948 C   0  0  0  0  0  0  0  0  0  0  0  0
    8.6909  -14.5334   26.8818 C   0  0  2  0  0  0  0  0  0  0  0  0
    9.0916  -14.7044   25.4897 N   0  0  0  0  0  0  0  0  0  0  0  0
    9.0965  -15.6607   27.7184 C   0  0  0  0  0  0  0  0  0  0  0  0
    8.6151  -16.9369   27.3650 O   0  0  0  0  0  0  0  0  0  0  0  0
    9.8332  -15.6267   28.7287 O   0  0  0  0  0  0  0  0  0  0  0  0
  2  1  1  0
  2  3  1  0
  3  4  1  1
  5  7  1  0
  5  3  1  0
  5  6  1  6
  7  8  2  0
  9 10  1  0
  9  7  1  0
 10 11  1  6
 11 12  1  0
 13 10  1  0
 14 13  2  0
 16 15  1  1
 17 16  1  0
 18 16  1  0
 19 18  1  6
 19 20  1  0
 20 13  1  0
 21 22  1  0
 21 19  1  0
 23 21  2  0
M  END
$$$$
