ICL.pdb
     RDKit          3D

 23 22  0  0  1  0  0  0  0  0999 V2000
    7.4133  -12.4481   17.7204 C   0  0  0  0  0  0  0  0  0  0  0  0
    8.4723  -13.2983   18.3756 C   0  0  0  0  0  0  0  0  0  0  0  0
    8.0877  -13.8383   19.7057 C   0  0  2  0  0  0  0  0  0  0  0  0
    7.7145  -12.6541   20.5974 C   0  0  0  0  0  0  0  0  0  0  0  0
    9.0945  -14.7088   20.3851 C   0  0  2  0  0  0  0  0  0  0  0  0
    9.3713  -15.8109   19.4382 N   0  0  0  0  0  0  0  0  0  0  0  0
    8.7009  -15.3099   21.6517 C   0  0  0  0  0  0  0  0  0  0  0  0
    8.2970  -14.5371   22.6005 O   0  0  0  0  0  0  0  0  0  0  0  0
    8.6932  -16.6789   22.0104 N   0  0  0  0  0  0  0  0  0  0  0  0
    8.3900  -17.1570   23.3291 C   0  0  1  0  0  0  0  0  0  0  0  0
    8.2693  -18.6858   23.1791 C   0  0  0  0  0  0  0  0  0  0  0  0
    9.8842  -19.3891   22.7369 S   0  0  0  0  0  0  0  0  0  0  0  0
    9.3384  -16.7917   24.3781 C   0  0  0  0  0  0  0  0  0  0  0  0
   10.5527  -16.5093   24.0728 O   0  0  0  0  0  0  0  0  0  0  0  0
    9.6533  -14.1438   29.8609 C   0  0  0  0  0  0  0  0  0  0  0  0
   10.4710  -14.8357   28.7549 C   0  0  2  0  0  0  0  0  0  0  0  0
   11.4709  -13.8509   28.2635 C   0  0  0  0  0  0  0  0  0  0  0  0
    9.5064  -15.3253   27.7433 C   0  0  0  0  0  0  0  0  0  0  0  0
   10.0726  -16.3089   26.7606 C   0  0  2  0  0  0  0  0  0  0  0  0
    9.0765  -16.7030   25.7705 N   0  0  0  0  0  0  0  0  0  0  0  0
   10.6917  -17.4604   27.4133 C   0  0  0  0  0  0  0  0  0  0  0  0
   12.0968  -17.4681   27.5188 O   0  0  0  0  0  0  0  0  0  0  0  0
   10.1125  -18.4575   27.8980 O   0  0  0  0  0  0  0  0  0  0  0  0
  2  1  1  0
  2  3  1  0
  3  4  1  1
  5  7  1  0
  5  3  1  0
  5  6  1  6
  7  8  2  0
  9 10  1  0
  9  7  1  0
 10 11  1  6
 11 12  1  0
 13 10  1  0
 14 13  2  0
 16 15  1  1
 17 16  1  0
 18 16  1  0
 19 18  1  1
 19 20  1  0
 20 13  1  0
 21 22  1  0
 21 19  1  0
 23 21  2  0
M  END
$$$$
