ICL.pdb
     RDKit          3D

 23 22  0  0  1  0  0  0  0  0999 V2000
    7.1687  -12.2740   18.2574 C   0  0  0  0  0  0  0  0  0  0  0  0
    8.0209  -13.5070   18.4225 C   0  0  0  0  0  0  0  0  0  0  0  0
    7.8474  -14.2012   19.7251 C   0  0  2  0  0  0  0  0  0  0  0  0
    8.3098  -13.2462   20.8255 C   0  0  0  0  0  0  0  0  0  0  0  0
    8.5212  -15.5275   19.8653 C   0  0  2  0  0  0  0  0  0  0  0  0
    7.8832  -16.4063   18.8611 N   0  0  0  0  0  0  0  0  0  0  0  0
    8.4130  -16.1905   21.1573 C   0  0  0  0  0  0  0  0  0  0  0  0
    7.4350  -17.0070   21.3501 O   0  0  0  0  0  0  0  0  0  0  0  0
    9.2626  -16.0673   22.2825 N   0  0  0  0  0  0  0  0  0  0  0  0
    8.9623  -16.6174   23.5736 C   0  0  1  0  0  0  0  0  0  0  0  0
    9.7223  -17.9571   23.6208 C   0  0  0  0  0  0  0  0  0  0  0  0
   11.4974  -17.6655   23.3722 S   0  0  0  0  0  0  0  0  0  0  0  0
    9.2852  -15.7740   24.7215 C   0  0  0  0  0  0  0  0  0  0  0  0
   10.3275  -15.0254   24.6925 O   0  0  0  0  0  0  0  0  0  0  0  0
    8.6077  -11.9109   26.1210 C   0  0  0  0  0  0  0  0  0  0  0  0
    7.4744  -12.9372   26.3021 C   0  0  2  0  0  0  0  0  0  0  0  0
    6.2181  -12.1730   26.5238 C   0  0  0  0  0  0  0  0  0  0  0  0
    7.8769  -13.8385   27.4062 C   0  0  0  0  0  0  0  0  0  0  0  0
    8.9546  -14.8221   27.0523 C   0  0  2  0  0  0  0  0  0  0  0  0
    8.5542  -15.6684   25.9337 N   0  0  0  0  0  0  0  0  0  0  0  0
    9.4032  -15.6009   28.2045 C   0  0  0  0  0  0  0  0  0  0  0  0
    9.9797  -14.8955   29.2794 O   0  0  0  0  0  0  0  0  0  0  0  0
    9.3350  -16.8411   28.3525 O   0  0  0  0  0  0  0  0  0  0  0  0
  2  1  1  0
  2  3  1  0
  3  4  1  1
  5  7  1  0
  5  3  1  0
  5  6  1  6
  7  8  2  0
  9 10  1  0
  9  7  1  0
 10 11  1  1
 11 12  1  0
 13 10  1  0
 14 13  2  0
 16 15  1  1
 17 16  1  0
 18 16  1  0
 19 18  1  1
 19 20  1  0
 20 13  1  0
 21 22  1  0
 21 19  1  0
 23 21  2  0
M  END
$$$$
