MMS.pdb
     RDKit          3D

 23 22  0  0  1  0  0  0  0  0999 V2000
   27.4716  -14.1304  -15.0706 C   0  0  0  0  0  0  0  0  0  0  0  0
   25.7419  -14.4394  -15.5392 S   0  0  0  0  0  0  0  0  0  0  0  0
   24.6603  -13.3234  -14.6096 C   0  0  0  0  0  0  0  0  0  0  0  0
   24.1797  -12.1647  -15.4512 C   0  0  0  0  0  0  0  0  0  0  0  0
   22.8643  -12.4186  -16.1114 C   0  0  2  0  0  0  0  0  0  0  0  0
   22.9205  -13.5012  -17.0547 N   0  0  0  0  0  0  0  0  0  0  0  0
   22.4574  -11.1729  -16.8113 C   0  0  0  0  0  0  0  0  0  0  0  0
   22.6427  -11.0662  -18.0619 O   0  0  0  0  0  0  0  0  0  0  0  0
   17.9422   -6.7849  -20.3702 C   0  0  0  0  0  0  0  0  0  0  0  0
   18.4557   -8.3466  -19.6237 S   0  0  0  0  0  0  0  0  0  0  0  0
   19.7479   -8.0565  -18.3972 C   0  0  0  0  0  0  0  0  0  0  0  0
   20.2008   -9.3629  -17.7331 C   0  0  0  0  0  0  0  0  0  0  0  0
   21.2738   -8.9693  -16.7388 C   0  0  2  0  0  0  0  0  0  0  0  0
   21.8618  -10.0997  -16.0869 N   0  0  0  0  0  0  0  0  0  0  0  0
   20.7732   -7.9487  -15.7745 C   0  0  0  0  0  0  0  0  0  0  0  0
   20.0423   -8.3287  -14.8332 O   0  0  0  0  0  0  0  0  0  0  0  0
   22.9124   -4.9918  -14.3309 O   0  0  0  0  0  0  0  0  0  0  0  0
   21.7016   -5.4579  -13.8212 C   0  0  0  0  0  0  0  0  0  0  0  0
   20.6658   -5.5704  -14.9354 C   0  0  2  0  0  0  0  0  0  0  0  0
   21.0868   -6.5776  -15.8757 N   0  0  0  0  0  0  0  0  0  0  0  0
   20.4208   -4.2630  -15.5664 C   0  0  0  0  0  0  0  0  0  0  0  0
   19.8416   -3.2040  -14.8810 O   0  0  0  0  0  0  0  0  0  0  0  0
   20.7362   -4.0663  -16.7688 O   0  0  0  0  0  0  0  0  0  0  0  0
  1  2  1  0
  2  3  1  0
  4  5  1  0
  4  3  1  0
  5  7  1  0
  5  6  1  6
  7  8  2  0
  9 10  1  0
 10 11  1  0
 11 12  1  0
 13 12  1  1
 13 15  1  0
 14  7  1  0
 14 13  1  0
 15 20  1  0
 16 15  2  0
 18 17  1  0
 19 18  1  1
 20 19  1  0
 21 19  1  0
 22 21  1  0
 23 21  2  0
M  END
$$$$
