MMS.pdb
     RDKit          3D

 23 22  0  0  1  0  0  0  0  0999 V2000
   10.8983  -15.6596    7.3293 C   0  0  0  0  0  0  0  0  0  0  0  0
   10.9523  -17.4763    7.3911 S   0  0  0  0  0  0  0  0  0  0  0  0
   12.0216  -18.0899    6.0648 C   0  0  0  0  0  0  0  0  0  0  0  0
   13.4829  -17.8303    6.3459 C   0  0  0  0  0  0  0  0  0  0  0  0
   14.3005  -17.6509    5.1090 C   0  0  2  0  0  0  0  0  0  0  0  0
   14.3919  -18.8542    4.3289 N   0  0  0  0  0  0  0  0  0  0  0  0
   15.6625  -17.2233    5.5207 C   0  0  0  0  0  0  0  0  0  0  0  0
   16.5806  -18.0896    5.6490 O   0  0  0  0  0  0  0  0  0  0  0  0
   19.9457  -11.0038    6.6078 C   0  0  0  0  0  0  0  0  0  0  0  0
   19.5713  -12.1404    5.2559 S   0  0  0  0  0  0  0  0  0  0  0  0
   19.0199  -13.7293    5.9115 C   0  0  0  0  0  0  0  0  0  0  0  0
   17.5736  -14.0379    5.5044 C   0  0  0  0  0  0  0  0  0  0  0  0
   17.2511  -15.3846    6.1185 C   0  0  2  0  0  0  0  0  0  0  0  0
   15.9423  -15.8486    5.7719 N   0  0  0  0  0  0  0  0  0  0  0  0
   17.4860  -15.3810    7.5905 C   0  0  0  0  0  0  0  0  0  0  0  0
   16.6629  -14.7878    8.3222 O   0  0  0  0  0  0  0  0  0  0  0  0
   19.3325  -18.3597    9.5119 O   0  0  0  0  0  0  0  0  0  0  0  0
   18.5822  -17.3941   10.1813 C   0  0  0  0  0  0  0  0  0  0  0  0
   18.8675  -16.0098    9.6075 C   0  0  2  0  0  0  0  0  0  0  0  0
   18.5918  -16.0154    8.1933 N   0  0  0  0  0  0  0  0  0  0  0  0
   20.2389  -15.5767    9.9229 C   0  0  0  0  0  0  0  0  0  0  0  0
   20.6779  -15.3903   11.2264 O   0  0  0  0  0  0  0  0  0  0  0  0
   21.0668  -15.3593    9.0003 O   0  0  0  0  0  0  0  0  0  0  0  0
  1  2  1  0
  2  3  1  0
  4  5  1  0
  4  3  1  0
  5  7  1  0
  5  6  1  1
  7  8  2  0
  9 10  1  0
 10 11  1  0
 11 12  1  0
 13 12  1  1
 13 15  1  0
 14  7  1  0
 14 13  1  0
 15 20  1  0
 16 15  2  0
 18 17  1  0
 19 18  1  6
 20 19  1  0
 21 19  1  0
 22 21  1  0
 23 21  2  0
M  END
$$$$
