MMS.pdb
     RDKit          3D

 23 22  0  0  1  0  0  0  0  0999 V2000
   20.0617  -17.1072  -20.8083 C   0  0  0  0  0  0  0  0  0  0  0  0
   20.4052  -15.6637  -19.7571 S   0  0  0  0  0  0  0  0  0  0  0  0
   21.8562  -16.0030  -18.7281 C   0  0  0  0  0  0  0  0  0  0  0  0
   22.2128  -14.8318  -17.8432 C   0  0  0  0  0  0  0  0  0  0  0  0
   22.1147  -13.5137  -18.5384 C   0  0  2  0  0  0  0  0  0  0  0  0
   23.0851  -13.3704  -19.5885 N   0  0  0  0  0  0  0  0  0  0  0  0
   22.3211  -12.4471  -17.5249 C   0  0  0  0  0  0  0  0  0  0  0  0
   21.6176  -12.4396  -16.4691 O   0  0  0  0  0  0  0  0  0  0  0  0
   28.2758  -12.1010  -15.0168 C   0  0  0  0  0  0  0  0  0  0  0  0
   27.4533  -10.7378  -15.8682 S   0  0  0  0  0  0  0  0  0  0  0  0
   25.6968  -11.0997  -16.0733 C   0  0  0  0  0  0  0  0  0  0  0  0
   24.9494   -9.9266  -16.7197 C   0  0  0  0  0  0  0  0  0  0  0  0
   23.5005  -10.3597  -16.8084 C   0  0  2  0  0  0  0  0  0  0  0  0
   23.3026  -11.4348  -17.7322 N   0  0  0  0  0  0  0  0  0  0  0  0
   22.6024   -9.2008  -17.0778 C   0  0  0  0  0  0  0  0  0  0  0  0
   22.5409   -8.7555  -18.2452 O   0  0  0  0  0  0  0  0  0  0  0  0
   18.6297   -6.8258  -16.1376 O   0  0  0  0  0  0  0  0  0  0  0  0
   19.5208   -7.8645  -15.8724 C   0  0  0  0  0  0  0  0  0  0  0  0
   20.9317   -7.4749  -16.3021 C   0  0  2  0  0  0  0  0  0  0  0  0
   21.8207   -8.5862  -16.0779 N   0  0  0  0  0  0  0  0  0  0  0  0
   21.3713   -6.2430  -15.6262 C   0  0  0  0  0  0  0  0  0  0  0  0
   20.9695   -4.9820  -16.0446 O   0  0  0  0  0  0  0  0  0  0  0  0
   22.1389   -6.3013  -14.6306 O   0  0  0  0  0  0  0  0  0  0  0  0
  1  2  1  0
  2  3  1  0
  4  5  1  0
  4  3  1  0
  5  7  1  0
  5  6  1  6
  7  8  2  0
  9 10  1  0
 10 11  1  0
 11 12  1  0
 13 12  1  6
 13 15  1  0
 14  7  1  0
 14 13  1  0
 15 20  1  0
 16 15  2  0
 18 17  1  0
 19 18  1  1
 20 19  1  0
 21 19  1  0
 22 21  1  0
 23 21  2  0
M  END
$$$$
