MMS.pdb
     RDKit          3D

 23 22  0  0  1  0  0  0  0  0999 V2000
   15.5249  -10.3412  -19.1389 C   0  0  0  0  0  0  0  0  0  0  0  0
   16.3609  -11.3222  -20.4217 S   0  0  0  0  0  0  0  0  0  0  0  0
   18.0341  -11.7352  -19.8656 C   0  0  0  0  0  0  0  0  0  0  0  0
   18.4849  -10.8606  -18.7194 C   0  0  0  0  0  0  0  0  0  0  0  0
   19.9165  -11.0655  -18.3466 C   0  0  2  0  0  0  0  0  0  0  0  0
   20.1825  -12.4029  -17.8936 N   0  0  0  0  0  0  0  0  0  0  0  0
   20.2487  -10.1016  -17.2659 C   0  0  0  0  0  0  0  0  0  0  0  0
   19.6183  -10.1498  -16.1659 O   0  0  0  0  0  0  0  0  0  0  0  0
   23.0063  -10.5352  -12.4964 C   0  0  0  0  0  0  0  0  0  0  0  0
   22.7939  -10.2235  -14.2619 S   0  0  0  0  0  0  0  0  0  0  0  0
   23.3094   -8.5411  -14.6648 C   0  0  0  0  0  0  0  0  0  0  0  0
   23.1552   -8.2456  -16.1619 C   0  0  0  0  0  0  0  0  0  0  0  0
   21.6636   -8.2168  -16.4250 C   0  0  2  0  0  0  0  0  0  0  0  0
   21.2691   -9.1253  -17.4581 N   0  0  0  0  0  0  0  0  0  0  0  0
   21.1816   -6.8276  -16.6695 C   0  0  0  0  0  0  0  0  0  0  0  0
   21.3180   -6.3442  -17.8152 O   0  0  0  0  0  0  0  0  0  0  0  0
   18.3532   -3.1805  -15.2497 O   0  0  0  0  0  0  0  0  0  0  0  0
   18.8256   -4.4803  -15.0742 C   0  0  0  0  0  0  0  0  0  0  0  0
   20.1146   -4.6866  -15.8635 C   0  0  2  0  0  0  0  0  0  0  0  0
   20.5798   -6.0363  -15.6694 N   0  0  0  0  0  0  0  0  0  0  0  0
   21.1232   -3.6752  -15.5067 C   0  0  0  0  0  0  0  0  0  0  0  0
   21.2111   -2.4520  -16.1567 O   0  0  0  0  0  0  0  0  0  0  0  0
   21.9498   -3.8970  -14.5840 O   0  0  0  0  0  0  0  0  0  0  0  0
  1  2  1  0
  2  3  1  0
  4  5  1  0
  4  3  1  0
  5  7  1  0
  5  6  1  1
  7  8  2  0
  9 10  1  0
 10 11  1  0
 11 12  1  0
 13 12  1  6
 13 15  1  0
 14  7  1  0
 14 13  1  0
 15 20  1  0
 16 15  2  0
 18 17  1  0
 19 18  1  1
 20 19  1  0
 21 19  1  0
 22 21  1  0
 23 21  2  0
M  END
$$$$
