MMS.pdb
     RDKit          3D

 23 22  0  0  1  0  0  0  0  0999 V2000
   17.6689   -9.8853  -20.5475 C   0  0  0  0  0  0  0  0  0  0  0  0
   18.8839  -11.1428  -21.0470 S   0  0  0  0  0  0  0  0  0  0  0  0
   19.3902  -12.0979  -19.5941 C   0  0  0  0  0  0  0  0  0  0  0  0
   20.0684  -11.2365  -18.5549 C   0  0  0  0  0  0  0  0  0  0  0  0
   21.2328  -11.9049  -17.9010 C   0  0  2  0  0  0  0  0  0  0  0  0
   20.8890  -13.1782  -17.3304 N   0  0  0  0  0  0  0  0  0  0  0  0
   21.7352  -11.0032  -16.8324 C   0  0  0  0  0  0  0  0  0  0  0  0
   21.0099  -10.7657  -15.8189 O   0  0  0  0  0  0  0  0  0  0  0  0
   27.7152  -12.7005  -14.8583 C   0  0  0  0  0  0  0  0  0  0  0  0
   27.2598  -11.0560  -15.4482 S   0  0  0  0  0  0  0  0  0  0  0  0
   25.4638  -10.8774  -15.4727 C   0  0  0  0  0  0  0  0  0  0  0  0
   25.0414   -9.4685  -15.9075 C   0  0  0  0  0  0  0  0  0  0  0  0
   23.5276   -9.4901  -15.9610 C   0  0  2  0  0  0  0  0  0  0  0  0
   23.0243  -10.4049  -16.9398 N   0  0  0  0  0  0  0  0  0  0  0  0
   22.9699   -8.1169  -16.1204 C   0  0  0  0  0  0  0  0  0  0  0  0
   23.0023   -7.5903  -17.2547 O   0  0  0  0  0  0  0  0  0  0  0  0
   19.7139   -4.9405  -15.2563 O   0  0  0  0  0  0  0  0  0  0  0  0
   20.3047   -6.1933  -15.0982 C   0  0  0  0  0  0  0  0  0  0  0  0
   21.8237   -6.0762  -15.1751 C   0  0  2  0  0  0  0  0  0  0  0  0
   22.4082   -7.3873  -15.0524 N   0  0  0  0  0  0  0  0  0  0  0  0
   22.3340   -5.1245  -14.1744 C   0  0  0  0  0  0  0  0  0  0  0  0
   22.4257   -3.7621  -14.4236 O   0  0  0  0  0  0  0  0  0  0  0  0
   22.7088   -5.5288  -13.0430 O   0  0  0  0  0  0  0  0  0  0  0  0
  1  2  1  0
  2  3  1  0
  4  5  1  0
  4  3  1  0
  5  7  1  0
  5  6  1  1
  7  8  2  0
  9 10  1  0
 10 11  1  0
 11 12  1  0
 13 12  1  6
 13 15  1  0
 14  7  1  0
 14 13  1  0
 15 20  1  0
 16 15  2  0
 18 17  1  0
 19 18  1  1
 20 19  1  0
 21 19  1  0
 22 21  1  0
 23 21  2  0
M  END
$$$$
