MMS.pdb
     RDKit          3D

 23 22  0  0  1  0  0  0  0  0999 V2000
   30.7189   -9.5111  -23.3327 C   0  0  0  0  0  0  0  0  0  0  0  0
   31.4386   -9.0085  -21.7401 S   0  0  0  0  0  0  0  0  0  0  0  0
   30.1097   -8.7391  -20.5398 C   0  0  0  0  0  0  0  0  0  0  0  0
   30.6326   -8.2340  -19.2157 C   0  0  0  0  0  0  0  0  0  0  0  0
   31.1326   -9.3221  -18.3232 C   0  0  2  0  0  0  0  0  0  0  0  0
   30.0804  -10.1870  -17.8653 N   0  0  0  0  0  0  0  0  0  0  0  0
   31.7939   -8.6857  -17.1548 C   0  0  0  0  0  0  0  0  0  0  0  0
   31.0882   -8.2459  -16.1965 O   0  0  0  0  0  0  0  0  0  0  0  0
   36.1750  -11.7998  -12.9458 C   0  0  0  0  0  0  0  0  0  0  0  0
   36.5192  -10.5209  -14.1727 S   0  0  0  0  0  0  0  0  0  0  0  0
   34.9884   -9.7015  -14.6658 C   0  0  0  0  0  0  0  0  0  0  0  0
   35.2405   -8.6232  -15.7272 C   0  0  0  0  0  0  0  0  0  0  0  0
   33.8939   -7.9813  -15.9906 C   0  0  2  0  0  0  0  0  0  0  0  0
   33.2133   -8.5668  -17.1051 N   0  0  0  0  0  0  0  0  0  0  0  0
   34.0114   -6.4997  -16.1056 C   0  0  0  0  0  0  0  0  0  0  0  0
   34.4935   -6.0216  -17.1562 O   0  0  0  0  0  0  0  0  0  0  0  0
   32.1937   -4.0323  -13.2762 O   0  0  0  0  0  0  0  0  0  0  0  0
   32.3491   -3.6061  -14.5944 C   0  0  0  0  0  0  0  0  0  0  0  0
   33.6321   -4.1787  -15.1886 C   0  0  2  0  0  0  0  0  0  0  0  0
   33.6036   -5.6155  -15.0856 N   0  0  0  0  0  0  0  0  0  0  0  0
   34.8214   -3.5817  -14.5586 C   0  0  0  0  0  0  0  0  0  0  0  0
   35.1036   -2.2252  -14.6404 O   0  0  0  0  0  0  0  0  0  0  0  0
   35.6308   -4.3000  -13.9162 O   0  0  0  0  0  0  0  0  0  0  0  0
  1  2  1  0
  2  3  1  0
  4  5  1  0
  4  3  1  0
  5  7  1  0
  5  6  1  1
  7  8  2  0
  9 10  1  0
 10 11  1  0
 11 12  1  0
 13 12  1  6
 13 15  1  0
 14  7  1  0
 14 13  1  0
 15 20  1  0
 16 15  2  0
 18 17  1  0
 19 18  1  1
 20 19  1  0
 21 19  1  0
 22 21  1  0
 23 21  2  0
M  END
$$$$
