MMS.pdb
     RDKit          3D

 23 22  0  0  1  0  0  0  0  0999 V2000
   17.7629  -16.8424  -16.9310 C   0  0  0  0  0  0  0  0  0  0  0  0
   18.7120  -17.7849  -15.6990 S   0  0  0  0  0  0  0  0  0  0  0  0
   20.4506  -17.8482  -16.2016 C   0  0  0  0  0  0  0  0  0  0  0  0
   21.2218  -16.6352  -15.7372 C   0  0  0  0  0  0  0  0  0  0  0  0
   21.0081  -15.4333  -16.5975 C   0  0  2  0  0  0  0  0  0  0  0  0
   21.4450  -15.6389  -17.9509 N   0  0  0  0  0  0  0  0  0  0  0  0
   21.7653  -14.3037  -15.9992 C   0  0  0  0  0  0  0  0  0  0  0  0
   21.5978  -14.0138  -14.7754 O   0  0  0  0  0  0  0  0  0  0  0  0
   27.8725  -12.5811  -14.9828 C   0  0  0  0  0  0  0  0  0  0  0  0
   26.2570  -13.3854  -14.9302 S   0  0  0  0  0  0  0  0  0  0  0  0
   25.5536  -13.4809  -16.5898 C   0  0  0  0  0  0  0  0  0  0  0  0
   24.7387  -12.2272  -16.9317 C   0  0  0  0  0  0  0  0  0  0  0  0
   23.3895  -12.4195  -16.2702 C   0  0  2  0  0  0  0  0  0  0  0  0
   22.6764  -13.5458  -16.7909 N   0  0  0  0  0  0  0  0  0  0  0  0
   22.5837  -11.1658  -16.3049 C   0  0  0  0  0  0  0  0  0  0  0  0
   21.9390  -10.9024  -17.3440 O   0  0  0  0  0  0  0  0  0  0  0  0
   20.8715   -7.3506  -13.7795 O   0  0  0  0  0  0  0  0  0  0  0  0
   21.6455   -8.5098  -13.8032 C   0  0  0  0  0  0  0  0  0  0  0  0
   21.7838   -9.0254  -15.2322 C   0  0  2  0  0  0  0  0  0  0  0  0
   22.5155  -10.2665  -15.2209 N   0  0  0  0  0  0  0  0  0  0  0  0
   22.3915   -8.0089  -16.1069 C   0  0  0  0  0  0  0  0  0  0  0  0
   21.6305   -7.1454  -16.8827 O   0  0  0  0  0  0  0  0  0  0  0  0
   23.6427   -7.8933  -16.1762 O   0  0  0  0  0  0  0  0  0  0  0  0
  1  2  1  0
  2  3  1  0
  4  5  1  0
  4  3  1  0
  5  7  1  0
  5  6  1  6
  7  8  2  0
  9 10  1  0
 10 11  1  0
 11 12  1  0
 13 12  1  6
 13 15  1  0
 14  7  1  0
 14 13  1  0
 15 20  1  0
 16 15  2  0
 18 17  1  0
 19 18  1  1
 20 19  1  0
 21 19  1  0
 22 21  1  0
 23 21  2  0
M  END
$$$$
