MMS.pdb
     RDKit          3D

 23 22  0  0  1  0  0  0  0  0999 V2000
   27.8368  -23.1136  -16.3443 C   0  0  0  0  0  0  0  0  0  0  0  0
   27.9252  -21.5183  -17.2125 S   0  0  0  0  0  0  0  0  0  0  0  0
   28.5910  -20.2616  -16.0915 C   0  0  0  0  0  0  0  0  0  0  0  0
   28.4487  -20.6597  -14.6413 C   0  0  0  0  0  0  0  0  0  0  0  0
   27.1830  -20.1728  -14.0157 C   0  0  2  0  0  0  0  0  0  0  0  0
   27.2135  -18.7641  -13.7336 N   0  0  0  0  0  0  0  0  0  0  0  0
   26.9800  -20.9264  -12.7514 C   0  0  0  0  0  0  0  0  0  0  0  0
   27.2866  -22.1563  -12.6974 O   0  0  0  0  0  0  0  0  0  0  0  0
   26.6554  -20.7518   -6.2411 C   0  0  0  0  0  0  0  0  0  0  0  0
   26.9639  -19.3856   -7.3803 S   0  0  0  0  0  0  0  0  0  0  0  0
   26.7925  -19.9462   -9.0875 C   0  0  0  0  0  0  0  0  0  0  0  0
   25.3462  -20.3418   -9.4104 C   0  0  0  0  0  0  0  0  0  0  0  0
   25.3627  -20.8299  -10.8444 C   0  0  2  0  0  0  0  0  0  0  0  0
   26.4435  -20.2765  -11.6020 N   0  0  0  0  0  0  0  0  0  0  0  0
   24.0403  -20.6284  -11.5023 C   0  0  0  0  0  0  0  0  0  0  0  0
   23.8420  -19.5608  -12.1233 O   0  0  0  0  0  0  0  0  0  0  0  0
   19.7180  -20.0310  -11.2169 O   0  0  0  0  0  0  0  0  0  0  0  0
   21.0634  -20.2462  -10.9220 C   0  0  0  0  0  0  0  0  0  0  0  0
   21.6376  -21.3304  -11.8286 C   0  0  2  0  0  0  0  0  0  0  0  0
   23.0059  -21.5857  -11.4563 N   0  0  0  0  0  0  0  0  0  0  0  0
   21.4869  -20.9702  -13.2481 C   0  0  0  0  0  0  0  0  0  0  0  0
   20.2845  -21.1119  -13.9270 O   0  0  0  0  0  0  0  0  0  0  0  0
   22.4641  -20.5150  -13.8976 O   0  0  0  0  0  0  0  0  0  0  0  0
  1  2  1  0
  2  3  1  0
  4  5  1  0
  4  3  1  0
  5  7  1  0
  5  6  1  1
  7  8  2  0
  9 10  1  0
 10 11  1  0
 11 12  1  0
 13 12  1  1
 13 15  1  0
 14  7  1  0
 14 13  1  0
 15 20  1  0
 16 15  2  0
 18 17  1  0
 19 18  1  1
 20 19  1  0
 21 19  1  0
 22 21  1  0
 23 21  2  0
M  END
$$$$
