MMS.pdb
     RDKit          3D

 23 22  0  0  1  0  0  0  0  0999 V2000
   18.2467  -21.8061  -11.9291 C   0  0  0  0  0  0  0  0  0  0  0  0
   19.4513  -23.1666  -11.8586 S   0  0  0  0  0  0  0  0  0  0  0  0
   18.5975  -24.7386  -12.1403 C   0  0  0  0  0  0  0  0  0  0  0  0
   17.8720  -25.2213  -10.9064 C   0  0  0  0  0  0  0  0  0  0  0  0
   18.7357  -26.0210   -9.9873 C   0  0  2  0  0  0  0  0  0  0  0  0
   19.0988  -27.2960  -10.5416 N   0  0  0  0  0  0  0  0  0  0  0  0
   17.9860  -26.2271   -8.7212 C   0  0  0  0  0  0  0  0  0  0  0  0
   17.0619  -27.0951   -8.6729 O   0  0  0  0  0  0  0  0  0  0  0  0
   17.2200  -27.3052   -1.5907 C   0  0  0  0  0  0  0  0  0  0  0  0
   18.2560  -26.9121   -3.0161 S   0  0  0  0  0  0  0  0  0  0  0  0
   17.5949  -25.4786   -3.8913 C   0  0  0  0  0  0  0  0  0  0  0  0
   18.4267  -25.1425   -5.1355 C   0  0  0  0  0  0  0  0  0  0  0  0
   17.6183  -25.6368   -6.3175 C   0  0  2  0  0  0  0  0  0  0  0  0
   18.2985  -25.4565   -7.5637 N   0  0  0  0  0  0  0  0  0  0  0  0
   16.2483  -25.0493   -6.3228 C   0  0  0  0  0  0  0  0  0  0  0  0
   16.1095  -23.8688   -6.7128 O   0  0  0  0  0  0  0  0  0  0  0  0
   13.2026  -27.3485   -4.9084 O   0  0  0  0  0  0  0  0  0  0  0  0
   12.7577  -26.3264   -5.7455 C   0  0  0  0  0  0  0  0  0  0  0  0
   13.7841  -25.1990   -5.7965 C   0  0  2  0  0  0  0  0  0  0  0  0
   15.1048  -25.7634   -5.9093 N   0  0  0  0  0  0  0  0  0  0  0  0
   13.6416  -24.2986   -4.6404 C   0  0  0  0  0  0  0  0  0  0  0  0
   12.4880  -23.5620   -4.4099 O   0  0  0  0  0  0  0  0  0  0  0  0
   14.5812  -24.1699   -3.8130 O   0  0  0  0  0  0  0  0  0  0  0  0
  1  2  1  0
  2  3  1  0
  4  5  1  0
  4  3  1  0
  5  7  1  0
  5  6  1  6
  7  8  2  0
  9 10  1  0
 10 11  1  0
 11 12  1  0
 13 12  1  1
 13 15  1  0
 14  7  1  0
 14 13  1  0
 15 20  1  0
 16 15  2  0
 18 17  1  0
 19 18  1  1
 20 19  1  0
 21 19  1  0
 22 21  1  0
 23 21  2  0
M  END
$$$$
