MMS.pdb
     RDKit          3D

 23 22  0  0  1  0  0  0  0  0999 V2000
   28.7557  -17.6795  -14.7867 C   0  0  0  0  0  0  0  0  0  0  0  0
   28.1883  -17.2084  -16.4489 S   0  0  0  0  0  0  0  0  0  0  0  0
   27.6428  -18.6885  -17.3382 C   0  0  0  0  0  0  0  0  0  0  0  0
   26.7940  -19.5911  -16.4742 C   0  0  0  0  0  0  0  0  0  0  0  0
   27.5956  -20.5241  -15.6272 C   0  0  2  0  0  0  0  0  0  0  0  0
   28.2031  -21.5787  -16.3912 N   0  0  0  0  0  0  0  0  0  0  0  0
   26.6865  -21.1110  -14.6092 C   0  0  0  0  0  0  0  0  0  0  0  0
   25.9266  -22.0758  -14.9276 O   0  0  0  0  0  0  0  0  0  0  0  0
   26.1999  -19.2373   -8.1228 C   0  0  0  0  0  0  0  0  0  0  0  0
   25.3477  -20.8246   -8.2402 S   0  0  0  0  0  0  0  0  0  0  0  0
   25.0497  -21.2461   -9.9698 C   0  0  0  0  0  0  0  0  0  0  0  0
   26.0958  -20.6117  -10.8949 C   0  0  0  0  0  0  0  0  0  0  0  0
   25.7343  -21.0615  -12.2956 C   0  0  2  0  0  0  0  0  0  0  0  0
   26.6633  -20.5968  -13.2802 N   0  0  0  0  0  0  0  0  0  0  0  0
   24.3238  -20.7147  -12.6306 C   0  0  0  0  0  0  0  0  0  0  0  0
   24.0323  -19.5101  -12.8005 O   0  0  0  0  0  0  0  0  0  0  0  0
   19.9312  -22.3723  -13.9562 O   0  0  0  0  0  0  0  0  0  0  0  0
   21.2755  -22.6216  -13.6843 C   0  0  0  0  0  0  0  0  0  0  0  0
   21.9317  -21.3850  -13.0782 C   0  0  2  0  0  0  0  0  0  0  0  0
   23.3063  -21.6817  -12.7649 N   0  0  0  0  0  0  0  0  0  0  0  0
   21.1710  -20.8959  -11.9164 C   0  0  0  0  0  0  0  0  0  0  0  0
   20.0771  -20.0515  -12.0466 O   0  0  0  0  0  0  0  0  0  0  0  0
   21.4989  -21.2370  -10.7503 O   0  0  0  0  0  0  0  0  0  0  0  0
  1  2  1  0
  2  3  1  0
  4  5  1  0
  4  3  1  0
  5  7  1  0
  5  6  1  6
  7  8  2  0
  9 10  1  0
 10 11  1  0
 11 12  1  0
 13 12  1  1
 13 15  1  0
 14  7  1  0
 14 13  1  0
 15 20  1  0
 16 15  2  0
 18 17  1  0
 19 18  1  1
 20 19  1  0
 21 19  1  0
 22 21  1  0
 23 21  2  0
M  END
$$$$
