MMS.pdb
     RDKit          3D

 23 22  0  0  1  0  0  0  0  0999 V2000
   20.4951  -24.3060  -14.1645 C   0  0  0  0  0  0  0  0  0  0  0  0
   19.9872  -23.9469  -15.8733 S   0  0  0  0  0  0  0  0  0  0  0  0
   20.1206  -22.1666  -16.1770 C   0  0  0  0  0  0  0  0  0  0  0  0
   21.4157  -21.5949  -15.6502 C   0  0  0  0  0  0  0  0  0  0  0  0
   21.4244  -21.4180  -14.1673 C   0  0  2  0  0  0  0  0  0  0  0  0
   20.4564  -20.4544  -13.7211 N   0  0  0  0  0  0  0  0  0  0  0  0
   22.7851  -20.9736  -13.7690 C   0  0  0  0  0  0  0  0  0  0  0  0
   23.1765  -19.8045  -14.0686 O   0  0  0  0  0  0  0  0  0  0  0  0
   25.2996  -19.5891   -9.2077 C   0  0  0  0  0  0  0  0  0  0  0  0
   26.7392  -20.6607   -9.4045 S   0  0  0  0  0  0  0  0  0  0  0  0
   26.7671  -21.3694  -11.0644 C   0  0  0  0  0  0  0  0  0  0  0  0
   25.4471  -22.0746  -11.4005 C   0  0  0  0  0  0  0  0  0  0  0  0
   24.9992  -21.4996  -12.7286 C   0  0  2  0  0  0  0  0  0  0  0  0
   23.6507  -21.8517  -13.0543 N   0  0  0  0  0  0  0  0  0  0  0  0
   25.9584  -21.8379  -13.8184 C   0  0  0  0  0  0  0  0  0  0  0  0
   26.0526  -23.0324  -14.1775 O   0  0  0  0  0  0  0  0  0  0  0  0
   25.9792  -20.8971  -18.0211 O   0  0  0  0  0  0  0  0  0  0  0  0
   25.7309  -20.8660  -16.6498 C   0  0  0  0  0  0  0  0  0  0  0  0
   27.0442  -20.8539  -15.8738 C   0  0  2  0  0  0  0  0  0  0  0  0
   26.7617  -20.8735  -14.4611 N   0  0  0  0  0  0  0  0  0  0  0  0
   27.8872  -19.7153  -16.2746 C   0  0  0  0  0  0  0  0  0  0  0  0
   28.8717  -19.8257  -17.2467 O   0  0  0  0  0  0  0  0  0  0  0  0
   27.7348  -18.5884  -15.7355 O   0  0  0  0  0  0  0  0  0  0  0  0
  1  2  1  0
  2  3  1  0
  4  5  1  0
  4  3  1  0
  5  7  1  0
  5  6  1  6
  7  8  2  0
  9 10  1  0
 10 11  1  0
 11 12  1  0
 13 12  1  1
 13 15  1  0
 14  7  1  0
 14 13  1  0
 15 20  1  0
 16 15  2  0
 18 17  1  0
 19 18  1  6
 20 19  1  0
 21 19  1  0
 22 21  1  0
 23 21  2  0
M  END
$$$$
