MMS.pdb
     RDKit          3D

 23 22  0  0  1  0  0  0  0  0999 V2000
   21.6581  -11.2813  -21.1270 C   0  0  0  0  0  0  0  0  0  0  0  0
   21.4513  -10.1620  -19.7088 S   0  0  0  0  0  0  0  0  0  0  0  0
   19.7603   -9.5140  -19.6979 C   0  0  0  0  0  0  0  0  0  0  0  0
   19.5462   -8.5007  -18.5982 C   0  0  0  0  0  0  0  0  0  0  0  0
   19.7817   -9.0531  -17.2308 C   0  0  2  0  0  0  0  0  0  0  0  0
   18.8142  -10.0505  -16.8647 N   0  0  0  0  0  0  0  0  0  0  0  0
   19.7187   -7.9249  -16.2662 C   0  0  0  0  0  0  0  0  0  0  0  0
   18.5906   -7.4809  -15.8920 O   0  0  0  0  0  0  0  0  0  0  0  0
   22.1983   -9.9264  -11.8272 C   0  0  0  0  0  0  0  0  0  0  0  0
   22.3274   -8.8484  -13.2697 S   0  0  0  0  0  0  0  0  0  0  0  0
   21.8819   -7.1564  -12.8258 C   0  0  0  0  0  0  0  0  0  0  0  0
   22.1418   -6.1815  -13.9810 C   0  0  0  0  0  0  0  0  0  0  0  0
   20.9033   -6.2345  -14.8517 C   0  0  2  0  0  0  0  0  0  0  0  0
   20.9159   -7.3400  -15.7605 N   0  0  0  0  0  0  0  0  0  0  0  0
   20.6649   -4.9324  -15.5373 C   0  0  0  0  0  0  0  0  0  0  0  0
   21.2517   -4.7150  -16.6204 O   0  0  0  0  0  0  0  0  0  0  0  0
   17.7704   -1.5636  -16.8894 O   0  0  0  0  0  0  0  0  0  0  0  0
   18.1117   -2.7780  -16.2961 C   0  0  0  0  0  0  0  0  0  0  0  0
   19.5059   -2.6947  -15.6828 C   0  0  2  0  0  0  0  0  0  0  0  0
   19.8090   -3.9379  -15.0207 N   0  0  0  0  0  0  0  0  0  0  0  0
   19.6260   -1.5271  -14.7940 C   0  0  0  0  0  0  0  0  0  0  0  0
   20.0924   -0.2984  -15.2403 O   0  0  0  0  0  0  0  0  0  0  0  0
   19.3027   -1.6135  -13.5808 O   0  0  0  0  0  0  0  0  0  0  0  0
  1  2  1  0
  2  3  1  0
  4  5  1  0
  4  3  1  0
  5  7  1  0
  5  6  1  1
  7  8  2  0
  9 10  1  0
 10 11  1  0
 11 12  1  0
 13 12  1  6
 13 15  1  0
 14  7  1  0
 14 13  1  0
 15 20  1  0
 16 15  2  0
 18 17  1  0
 19 18  1  1
 20 19  1  0
 21 19  1  0
 22 21  1  0
 23 21  2  0
M  END
$$$$
