MMS.pdb
     RDKit          3D

 23 22  0  0  1  0  0  0  0  0999 V2000
   21.9362   -6.7426  -13.5735 C   0  0  0  0  0  0  0  0  0  0  0  0
   22.2192   -7.9118  -12.2097 S   0  0  0  0  0  0  0  0  0  0  0  0
   20.8000   -9.0283  -12.0729 C   0  0  0  0  0  0  0  0  0  0  0  0
   19.5249   -8.2898  -11.7404 C   0  0  0  0  0  0  0  0  0  0  0  0
   18.3300   -9.1816  -11.6548 C   0  0  2  0  0  0  0  0  0  0  0  0
   18.0357   -9.8307  -12.9026 N   0  0  0  0  0  0  0  0  0  0  0  0
   17.1692   -8.3504  -11.2435 C   0  0  0  0  0  0  0  0  0  0  0  0
   16.4800   -7.7538  -12.1259 O   0  0  0  0  0  0  0  0  0  0  0  0
   11.5130   -9.0823   -8.0829 C   0  0  0  0  0  0  0  0  0  0  0  0
   12.4165   -7.8313   -7.1457 S   0  0  0  0  0  0  0  0  0  0  0  0
   13.6965   -7.0839   -8.1757 C   0  0  0  0  0  0  0  0  0  0  0  0
   14.8802   -8.0362   -8.3871 C   0  0  0  0  0  0  0  0  0  0  0  0
   15.7672   -7.3689   -9.4180 C   0  0  2  0  0  0  0  0  0  0  0  0
   16.8271   -8.2198   -9.8661 N   0  0  0  0  0  0  0  0  0  0  0  0
   16.2592   -6.0465   -8.9370 C   0  0  0  0  0  0  0  0  0  0  0  0
   17.3022   -6.0156   -8.2471 O   0  0  0  0  0  0  0  0  0  0  0  0
   17.6869   -1.9103   -9.8631 O   0  0  0  0  0  0  0  0  0  0  0  0
   17.1853   -3.1976  -10.0488 C   0  0  0  0  0  0  0  0  0  0  0  0
   16.1541   -3.5246   -8.9733 C   0  0  2  0  0  0  0  0  0  0  0  0
   15.6032   -4.8319   -9.2250 N   0  0  0  0  0  0  0  0  0  0  0  0
   15.1251   -2.4751   -8.8879 C   0  0  0  0  0  0  0  0  0  0  0  0
   15.2997   -1.3231   -8.1335 O   0  0  0  0  0  0  0  0  0  0  0  0
   14.0373   -2.5967   -9.5089 O   0  0  0  0  0  0  0  0  0  0  0  0
  1  2  1  0
  2  3  1  0
  4  5  1  0
  4  3  1  0
  5  7  1  0
  5  6  1  6
  7  8  2  0
  9 10  1  0
 10 11  1  0
 11 12  1  0
 13 12  1  1
 13 15  1  0
 14  7  1  0
 14 13  1  0
 15 20  1  0
 16 15  2  0
 18 17  1  0
 19 18  1  6
 20 19  1  0
 21 19  1  0
 22 21  1  0
 23 21  2  0
M  END
$$$$
