HNT.pdb
     RDKit          3D

 26 26  0  0  1  0  0  0  0  0999 V2000
   19.5636  -10.3944  -16.6291 N   0  0  0  0  0  0  0  0  0  0  0  0
   18.5693  -10.0576  -15.6597 C   0  0  1  0  0  0  0  0  0  0  0  0
   18.2579  -11.1700  -14.6867 C   0  0  0  0  0  0  0  0  0  0  0  0
   17.8975  -12.3689  -15.4673 C   0  0  0  0  0  0  0  0  0  0  0  0
   16.8951  -12.4597  -16.4037 C   0  0  0  0  0  0  0  0  0  0  0  0
   16.8904  -13.7050  -16.8799 N   0  0  0  0  0  0  0  0  0  0  0  0
   17.8608  -14.3931  -16.2676 C   0  0  0  0  0  0  0  0  0  0  0  0
   18.4815  -13.5732  -15.3982 N   0  0  0  0  0  0  0  0  0  0  0  0
   18.9020   -8.7977  -14.8912 C   0  0  0  0  0  0  0  0  0  0  0  0
   18.3471   -8.6797  -13.7921 O   0  0  0  0  0  0  0  0  0  0  0  0
   21.0502   -4.1520  -13.7341 N   0  0  0  0  0  0  0  0  0  0  0  0
   22.0325   -5.1385  -13.9465 C   0  0  0  0  0  0  0  0  0  0  0  0
   23.2245   -4.8737  -13.5822 O   0  0  0  0  0  0  0  0  0  0  0  0
   21.6499   -6.4003  -14.5638 C   0  0  0  0  0  0  0  0  0  0  0  0
   20.1706   -6.5644  -14.8557 C   0  0  2  0  0  0  0  0  0  0  0  0
   19.7768   -7.8322  -15.3893 N   0  0  0  0  0  0  0  0  0  0  0  0
   19.6700   -5.3855  -15.5629 C   0  0  0  0  0  0  0  0  0  0  0  0
   20.1740   -5.0329  -16.6810 O   0  0  0  0  0  0  0  0  0  0  0  0
   16.0143   -4.4463  -16.6330 C   0  0  0  0  0  0  0  0  0  0  0  0
   16.6217   -3.3666  -15.7580 C   0  0  1  0  0  0  0  0  0  0  0  0
   16.1871   -3.5433  -14.4521 O   0  0  0  0  0  0  0  0  0  0  0  0
   18.1333   -3.4362  -15.8589 C   0  0  2  0  0  0  0  0  0  0  0  0
   18.6119   -4.5655  -15.0738 N   0  0  0  0  0  0  0  0  0  0  0  0
   18.6763   -2.1668  -15.3298 C   0  0  0  0  0  0  0  0  0  0  0  0
   18.4493   -0.9366  -15.9230 O   0  0  0  0  0  0  0  0  0  0  0  0
   19.3786   -2.2046  -14.2904 O   0  0  0  0  0  0  0  0  0  0  0  0
  2  3  1  0
  2  9  1  0
  2  1  1  1
  4  5  2  0
  4  3  1  0
  6  5  1  0
  7  8  2  0
  7  6  1  0
  8  4  1  0
  9 16  1  0
 10  9  2  0
 12 14  1  0
 12 11  1  0
 13 12  2  0
 15 14  1  6
 16 15  1  0
 17 23  1  0
 17 15  1  0
 18 17  2  0
 20 19  1  6
 20 22  1  0
 21 20  1  0
 22 24  1  0
 22 23  1  1
 24 25  1  0
 26 24  2  0
M  END
$$$$
