HNT.pdb
     RDKit          3D

 26 26  0  0  1  0  0  0  0  0999 V2000
   21.3962  -12.7388  -16.3299 N   0  0  0  0  0  0  0  0  0  0  0  0
   20.3137  -11.8112  -16.4273 C   0  0  1  0  0  0  0  0  0  0  0  0
   19.0569  -12.2568  -15.7181 C   0  0  0  0  0  0  0  0  0  0  0  0
   18.6509  -13.5563  -16.2863 C   0  0  0  0  0  0  0  0  0  0  0  0
   18.2480  -13.7891  -17.5799 C   0  0  0  0  0  0  0  0  0  0  0  0
   17.9664  -15.0872  -17.6944 N   0  0  0  0  0  0  0  0  0  0  0  0
   18.1822  -15.6705  -16.5098 C   0  0  0  0  0  0  0  0  0  0  0  0
   18.6032  -14.7307  -15.6422 N   0  0  0  0  0  0  0  0  0  0  0  0
   20.6876  -10.4219  -15.9597 C   0  0  0  0  0  0  0  0  0  0  0  0
   20.7484  -10.2688  -14.7338 O   0  0  0  0  0  0  0  0  0  0  0  0
   24.6707   -9.0939  -17.7132 N   0  0  0  0  0  0  0  0  0  0  0  0
   23.8358   -8.5072  -16.7426 C   0  0  0  0  0  0  0  0  0  0  0  0
   24.0933   -8.7478  -15.5182 O   0  0  0  0  0  0  0  0  0  0  0  0
   22.7305   -7.6630  -17.1734 C   0  0  0  0  0  0  0  0  0  0  0  0
   21.3683   -8.0345  -16.6192 C   0  0  2  0  0  0  0  0  0  0  0  0
   20.9462   -9.3816  -16.8520 N   0  0  0  0  0  0  0  0  0  0  0  0
   20.3972   -6.9905  -16.9469 C   0  0  0  0  0  0  0  0  0  0  0  0
   20.0360   -6.7916  -18.1546 O   0  0  0  0  0  0  0  0  0  0  0  0
   16.9164   -6.7362  -16.3023 C   0  0  0  0  0  0  0  0  0  0  0  0
   17.4862   -5.4659  -15.7009 C   0  0  1  0  0  0  0  0  0  0  0  0
   17.6342   -5.6388  -14.3321 O   0  0  0  0  0  0  0  0  0  0  0  0
   18.8091   -5.1479  -16.3710 C   0  0  2  0  0  0  0  0  0  0  0  0
   19.7962   -6.1417  -15.9725 N   0  0  0  0  0  0  0  0  0  0  0  0
   19.2215   -3.7983  -15.9298 C   0  0  0  0  0  0  0  0  0  0  0  0
   18.5393   -2.6440  -16.2745 O   0  0  0  0  0  0  0  0  0  0  0  0
   20.2413   -3.6920  -15.2060 O   0  0  0  0  0  0  0  0  0  0  0  0
  2  3  1  0
  2  9  1  0
  2  1  1  1
  4  5  2  0
  4  3  1  0
  6  5  1  0
  7  8  2  0
  7  6  1  0
  8  4  1  0
  9 16  1  0
 10  9  2  0
 12 14  1  0
 12 11  1  0
 13 12  2  0
 15 14  1  6
 16 15  1  0
 17 23  1  0
 17 15  1  0
 18 17  2  0
 20 19  1  6
 20 22  1  0
 21 20  1  0
 22 24  1  0
 22 23  1  1
 24 25  1  0
 26 24  2  0
M  END
$$$$
