HNT.pdb
     RDKit          3D

 26 26  0  0  1  0  0  0  0  0999 V2000
   19.3344  -11.0550  -17.8721 N   0  0  0  0  0  0  0  0  0  0  0  0
   20.6282  -10.6683  -17.4050 C   0  0  1  0  0  0  0  0  0  0  0  0
   21.7636  -11.1312  -18.2868 C   0  0  0  0  0  0  0  0  0  0  0  0
   21.6830  -12.6001  -18.3978 C   0  0  0  0  0  0  0  0  0  0  0  0
   21.3610  -13.4764  -17.3886 C   0  0  0  0  0  0  0  0  0  0  0  0
   21.3986  -14.7111  -17.8902 N   0  0  0  0  0  0  0  0  0  0  0  0
   21.7345  -14.6300  -19.1827 C   0  0  0  0  0  0  0  0  0  0  0  0
   21.9099  -13.3324  -19.4971 N   0  0  0  0  0  0  0  0  0  0  0  0
   20.7477   -9.1778  -17.1748 C   0  0  0  0  0  0  0  0  0  0  0  0
   20.1367   -8.4623  -17.9778 O   0  0  0  0  0  0  0  0  0  0  0  0
   22.0500   -4.6714  -14.7808 N   0  0  0  0  0  0  0  0  0  0  0  0
   22.0305   -5.6863  -13.8047 C   0  0  0  0  0  0  0  0  0  0  0  0
   22.1401   -5.3352  -12.5847 O   0  0  0  0  0  0  0  0  0  0  0  0
   21.8880   -7.0730  -14.2248 C   0  0  0  0  0  0  0  0  0  0  0  0
   21.6949   -7.2895  -15.7136 C   0  0  2  0  0  0  0  0  0  0  0  0
   21.4978   -8.6452  -16.1265 N   0  0  0  0  0  0  0  0  0  0  0  0
   22.6971   -6.5290  -16.4603 C   0  0  0  0  0  0  0  0  0  0  0  0
   23.9422   -6.7600  -16.3022 O   0  0  0  0  0  0  0  0  0  0  0  0
   23.1074   -6.2930  -20.1979 C   0  0  0  0  0  0  0  0  0  0  0  0
   22.9934   -4.8827  -19.6516 C   0  0  1  0  0  0  0  0  0  0  0  0
   21.6878   -4.4397  -19.8086 O   0  0  0  0  0  0  0  0  0  0  0  0
   23.4145   -4.8779  -18.1947 C   0  0  2  0  0  0  0  0  0  0  0  0
   22.3708   -5.5037  -17.3948 N   0  0  0  0  0  0  0  0  0  0  0  0
   23.6074   -3.4692  -17.7890 C   0  0  0  0  0  0  0  0  0  0  0  0
   24.6170   -2.6650  -18.2896 O   0  0  0  0  0  0  0  0  0  0  0  0
   22.8165   -2.9759  -16.9485 O   0  0  0  0  0  0  0  0  0  0  0  0
  2  3  1  0
  2  9  1  0
  2  1  1  6
  4  5  2  0
  4  3  1  0
  6  5  1  0
  7  8  2  0
  7  6  1  0
  8  4  1  0
  9 16  1  0
 10  9  2  0
 12 14  1  0
 12 11  1  0
 13 12  2  0
 15 14  1  1
 16 15  1  0
 17 23  1  0
 17 15  1  0
 18 17  2  0
 20 19  1  1
 20 22  1  0
 21 20  1  0
 22 24  1  0
 22 23  1  1
 24 25  1  0
 26 24  2  0
M  END
$$$$
