HNT.pdb
     RDKit          3D

 26 26  0  0  1  0  0  0  0  0999 V2000
   15.2856  -10.5540  -14.4155 N   0  0  0  0  0  0  0  0  0  0  0  0
   16.6114  -10.2536  -13.9752 C   0  0  1  0  0  0  0  0  0  0  0  0
   17.6686  -10.4396  -15.0376 C   0  0  0  0  0  0  0  0  0  0  0  0
   17.7226  -11.8738  -15.3788 C   0  0  0  0  0  0  0  0  0  0  0  0
   17.0597  -12.8900  -14.7325 C   0  0  0  0  0  0  0  0  0  0  0  0
   17.3703  -14.0347  -15.3414 N   0  0  0  0  0  0  0  0  0  0  0  0
   18.2075  -13.7616  -16.3486 C   0  0  0  0  0  0  0  0  0  0  0  0
   18.4256  -12.4330  -16.3735 N   0  0  0  0  0  0  0  0  0  0  0  0
   16.7331   -8.8664  -13.3840 C   0  0  0  0  0  0  0  0  0  0  0  0
   15.8855   -8.0483  -13.7611 O   0  0  0  0  0  0  0  0  0  0  0  0
   18.5938   -4.9226  -10.4380 N   0  0  0  0  0  0  0  0  0  0  0  0
   17.9530   -5.9400   -9.7049 C   0  0  0  0  0  0  0  0  0  0  0  0
   17.7107   -5.7185   -8.4738 O   0  0  0  0  0  0  0  0  0  0  0  0
   17.5996   -7.1832  -10.3752 C   0  0  0  0  0  0  0  0  0  0  0  0
   18.0318   -7.2912  -11.8251 C   0  0  2  0  0  0  0  0  0  0  0  0
   17.7355   -8.5316  -12.4738 N   0  0  0  0  0  0  0  0  0  0  0  0
   19.4016   -6.7992  -11.9730 C   0  0  0  0  0  0  0  0  0  0  0  0
   20.3281   -7.2055  -11.1952 O   0  0  0  0  0  0  0  0  0  0  0  0
   21.7049   -7.6519  -14.3232 C   0  0  0  0  0  0  0  0  0  0  0  0
   21.6844   -6.1414  -14.4581 C   0  0  1  0  0  0  0  0  0  0  0  0
   20.8634   -5.7921  -15.5210 O   0  0  0  0  0  0  0  0  0  0  0  0
   21.2029   -5.5319  -13.1555 C   0  0  2  0  0  0  0  0  0  0  0  0
   19.7961   -5.8581  -12.9679 N   0  0  0  0  0  0  0  0  0  0  0  0
   21.3900   -4.0682  -13.2499 C   0  0  0  0  0  0  0  0  0  0  0  0
   20.3401   -3.1733  -13.3670 O   0  0  0  0  0  0  0  0  0  0  0  0
   22.5590   -3.6123  -13.2225 O   0  0  0  0  0  0  0  0  0  0  0  0
  2  3  1  0
  2  9  1  0
  2  1  1  6
  4  5  2  0
  4  3  1  0
  6  5  1  0
  7  8  2  0
  7  6  1  0
  8  4  1  0
  9 16  1  0
 10  9  2  0
 12 14  1  0
 12 11  1  0
 13 12  2  0
 15 14  1  1
 16 15  1  0
 17 23  1  0
 17 15  1  0
 18 17  2  0
 20 19  1  1
 20 22  1  0
 21 20  1  0
 22 24  1  0
 22 23  1  6
 24 25  1  0
 26 24  2  0
M  END
$$$$
