HNT.pdb
     RDKit          3D

 26 26  0  0  1  0  0  0  0  0999 V2000
   22.3935  -12.1070  -19.9682 N   0  0  0  0  0  0  0  0  0  0  0  0
   23.0151  -11.3477  -18.9296 C   0  0  1  0  0  0  0  0  0  0  0  0
   24.3565  -10.7678  -19.3110 C   0  0  0  0  0  0  0  0  0  0  0  0
   25.2501  -11.8860  -19.6680 C   0  0  0  0  0  0  0  0  0  0  0  0
   25.7874  -12.8076  -18.8009 C   0  0  0  0  0  0  0  0  0  0  0  0
   26.5380  -13.6499  -19.5113 N   0  0  0  0  0  0  0  0  0  0  0  0
   26.4840  -13.2804  -20.7960 C   0  0  0  0  0  0  0  0  0  0  0  0
   25.6924  -12.1955  -20.8947 N   0  0  0  0  0  0  0  0  0  0  0  0
   22.1261  -10.2461  -18.3956 C   0  0  0  0  0  0  0  0  0  0  0  0
   21.6049   -9.5187  -19.2495 O   0  0  0  0  0  0  0  0  0  0  0  0
   19.2424   -7.4228  -15.0786 N   0  0  0  0  0  0  0  0  0  0  0  0
   19.0507   -8.8022  -14.8689 C   0  0  0  0  0  0  0  0  0  0  0  0
   18.0889   -9.1569  -14.1122 O   0  0  0  0  0  0  0  0  0  0  0  0
   19.9464   -9.7500  -15.5163 C   0  0  0  0  0  0  0  0  0  0  0  0
   21.0673   -9.1378  -16.3345 C   0  0  2  0  0  0  0  0  0  0  0  0
   21.9088  -10.0624  -17.0302 N   0  0  0  0  0  0  0  0  0  0  0  0
   21.7518   -8.1106  -15.5491 C   0  0  0  0  0  0  0  0  0  0  0  0
   22.3385   -8.4087  -14.4557 O   0  0  0  0  0  0  0  0  0  0  0  0
   23.9978   -5.0945  -17.0760 C   0  0  0  0  0  0  0  0  0  0  0  0
   22.9922   -4.6252  -16.0422 C   0  0  1  0  0  0  0  0  0  0  0  0
   21.8896   -4.0896  -16.6924 O   0  0  0  0  0  0  0  0  0  0  0  0
   22.6063   -5.7945  -15.1567 C   0  0  2  0  0  0  0  0  0  0  0  0
   21.8160   -6.7397  -15.9331 N   0  0  0  0  0  0  0  0  0  0  0  0
   21.8162   -5.2592  -14.0274 C   0  0  0  0  0  0  0  0  0  0  0  0
   22.3295   -4.3798  -13.0893 O   0  0  0  0  0  0  0  0  0  0  0  0
   20.6194   -5.6191  -13.9119 O   0  0  0  0  0  0  0  0  0  0  0  0
  2  3  1  0
  2  9  1  0
  2  1  1  6
  4  5  2  0
  4  3  1  0
  6  5  1  0
  7  8  2  0
  7  6  1  0
  8  4  1  0
  9 16  1  0
 10  9  2  0
 12 14  1  0
 12 11  1  0
 13 12  2  0
 15 14  1  1
 16 15  1  0
 17 23  1  0
 17 15  1  0
 18 17  2  0
 20 19  1  6
 20 22  1  0
 21 20  1  0
 22 24  1  0
 22 23  1  6
 24 25  1  0
 26 24  2  0
M  END
$$$$
