HNT.pdb
     RDKit          3D

 26 26  0  0  1  0  0  0  0  0999 V2000
   21.7105  -13.3198  -16.5102 N   0  0  0  0  0  0  0  0  0  0  0  0
   22.3109  -12.0424  -16.2876 C   0  0  1  0  0  0  0  0  0  0  0  0
   23.5173  -11.7710  -17.1547 C   0  0  0  0  0  0  0  0  0  0  0  0
   24.5113  -12.8297  -16.8947 C   0  0  0  0  0  0  0  0  0  0  0  0
   24.7625  -13.9235  -17.6887 C   0  0  0  0  0  0  0  0  0  0  0  0
   25.7269  -14.6384  -17.1088 N   0  0  0  0  0  0  0  0  0  0  0  0
   26.0843  -14.0221  -15.9763 C   0  0  0  0  0  0  0  0  0  0  0  0
   25.3378  -12.9093  -15.8426 N   0  0  0  0  0  0  0  0  0  0  0  0
   21.3281  -10.9003  -16.4241 C   0  0  0  0  0  0  0  0  0  0  0  0
   20.3641  -11.1110  -17.1698 O   0  0  0  0  0  0  0  0  0  0  0  0
   17.5407   -7.2546  -15.9097 N   0  0  0  0  0  0  0  0  0  0  0  0
   18.3600   -7.7405  -14.8725 C   0  0  0  0  0  0  0  0  0  0  0  0
   18.3101   -7.1404  -13.7496 O   0  0  0  0  0  0  0  0  0  0  0  0
   19.2163   -8.8909  -15.1236 C   0  0  0  0  0  0  0  0  0  0  0  0
   20.6177   -8.5709  -15.6076 C   0  0  2  0  0  0  0  0  0  0  0  0
   21.4980   -9.6893  -15.7535 N   0  0  0  0  0  0  0  0  0  0  0  0
   21.1493   -7.4260  -14.8679 C   0  0  0  0  0  0  0  0  0  0  0  0
   21.6527   -7.5777  -13.7051 O   0  0  0  0  0  0  0  0  0  0  0  0
   23.6978   -5.1792  -16.5785 C   0  0  0  0  0  0  0  0  0  0  0  0
   22.6839   -4.2913  -15.8828 C   0  0  1  0  0  0  0  0  0  0  0  0
   21.7679   -3.8300  -16.8175 O   0  0  0  0  0  0  0  0  0  0  0  0
   22.0071   -5.0798  -14.7780 C   0  0  2  0  0  0  0  0  0  0  0  0
   21.1480   -6.0937  -15.3736 N   0  0  0  0  0  0  0  0  0  0  0  0
   21.2102   -4.1293  -13.9732 C   0  0  0  0  0  0  0  0  0  0  0  0
   19.8267   -4.1475  -13.9245 O   0  0  0  0  0  0  0  0  0  0  0  0
   21.8170   -3.2616  -13.2995 O   0  0  0  0  0  0  0  0  0  0  0  0
  2  3  1  0
  2  9  1  0
  2  1  1  6
  4  5  2  0
  4  3  1  0
  6  5  1  0
  7  8  2  0
  7  6  1  0
  8  4  1  0
  9 16  1  0
 10  9  2  0
 12 14  1  0
 12 11  1  0
 13 12  2  0
 15 14  1  1
 16 15  1  0
 17 23  1  0
 17 15  1  0
 18 17  2  0
 20 19  1  6
 20 22  1  0
 21 20  1  0
 22 24  1  0
 22 23  1  6
 24 25  1  0
 26 24  2  0
M  END
$$$$
