HNT.pdb
     RDKit          3D

 26 26  0  0  1  0  0  0  0  0999 V2000
   19.2270  -12.2444  -16.6350 N   0  0  0  0  0  0  0  0  0  0  0  0
   19.0859  -10.8231  -16.6766 C   0  0  1  0  0  0  0  0  0  0  0  0
   17.7657  -10.3207  -16.1421 C   0  0  0  0  0  0  0  0  0  0  0  0
   16.6906  -10.8971  -16.9717 C   0  0  0  0  0  0  0  0  0  0  0  0
   16.2448  -10.4125  -18.1785 C   0  0  0  0  0  0  0  0  0  0  0  0
   15.2659  -11.2110  -18.6047 N   0  0  0  0  0  0  0  0  0  0  0  0
   15.0886  -12.1794  -17.6987 C   0  0  0  0  0  0  0  0  0  0  0  0
   15.9639  -11.9883  -16.6934 N   0  0  0  0  0  0  0  0  0  0  0  0
   20.2171  -10.1005  -15.9787 C   0  0  0  0  0  0  0  0  0  0  0  0
   20.2065  -10.1580  -14.7433 O   0  0  0  0  0  0  0  0  0  0  0  0
   24.4369  -10.8393  -18.1603 N   0  0  0  0  0  0  0  0  0  0  0  0
   24.1032  -10.2371  -16.9318 C   0  0  0  0  0  0  0  0  0  0  0  0
   24.2334  -10.9378  -15.8755 O   0  0  0  0  0  0  0  0  0  0  0  0
   23.6309   -8.8600  -16.9211 C   0  0  0  0  0  0  0  0  0  0  0  0
   22.3076   -8.6271  -16.2173 C   0  0  2  0  0  0  0  0  0  0  0  0
   21.2067   -9.4140  -16.6821 N   0  0  0  0  0  0  0  0  0  0  0  0
   22.0612   -7.1911  -16.0851 C   0  0  0  0  0  0  0  0  0  0  0  0
   22.4282   -6.3796  -16.9991 O   0  0  0  0  0  0  0  0  0  0  0  0
   18.7516   -5.5200  -15.6023 C   0  0  0  0  0  0  0  0  0  0  0  0
   19.6677   -4.9819  -14.5200 C   0  0  1  0  0  0  0  0  0  0  0  0
   19.3914   -5.6338  -13.3265 O   0  0  0  0  0  0  0  0  0  0  0  0
   21.1100   -5.1801  -14.9449 C   0  0  2  0  0  0  0  0  0  0  0  0
   21.4107   -6.6049  -14.9607 N   0  0  0  0  0  0  0  0  0  0  0  0
   21.9660   -4.4781  -13.9648 C   0  0  0  0  0  0  0  0  0  0  0  0
   21.9860   -3.1013  -13.8211 O   0  0  0  0  0  0  0  0  0  0  0  0
   22.7128   -5.1635  -13.2248 O   0  0  0  0  0  0  0  0  0  0  0  0
  2  3  1  0
  2  9  1  0
  2  1  1  1
  4  5  2  0
  4  3  1  0
  6  5  1  0
  7  8  2  0
  7  6  1  0
  8  4  1  0
  9 16  1  0
 10  9  2  0
 12 14  1  0
 12 11  1  0
 13 12  2  0
 15 14  1  6
 16 15  1  0
 17 23  1  0
 17 15  1  0
 18 17  2  0
 20 19  1  6
 20 22  1  0
 21 20  1  0
 22 24  1  0
 22 23  1  1
 24 25  1  0
 26 24  2  0
M  END
$$$$
