HNT.pdb
     RDKit          3D

 26 26  0  0  1  0  0  0  0  0999 V2000
   15.9767  -10.5337  -15.2033 N   0  0  0  0  0  0  0  0  0  0  0  0
   17.1602  -10.3230  -14.4307 C   0  0  1  0  0  0  0  0  0  0  0  0
   18.4215  -10.8315  -15.0877 C   0  0  0  0  0  0  0  0  0  0  0  0
   18.2579  -12.2780  -15.3270 C   0  0  0  0  0  0  0  0  0  0  0  0
   18.2186  -12.9012  -16.5517 C   0  0  0  0  0  0  0  0  0  0  0  0
   18.0575  -14.2080  -16.3418 N   0  0  0  0  0  0  0  0  0  0  0  0
   17.9954  -14.4174  -15.0219 C   0  0  0  0  0  0  0  0  0  0  0  0
   18.1184  -13.2316  -14.3957 N   0  0  0  0  0  0  0  0  0  0  0  0
   17.3508   -8.8761  -14.0320 C   0  0  0  0  0  0  0  0  0  0  0  0
   17.0368   -8.0400  -14.8877 O   0  0  0  0  0  0  0  0  0  0  0  0
   19.0298   -5.6757   -9.1284 N   0  0  0  0  0  0  0  0  0  0  0  0
   18.1451   -5.7169  -10.2233 C   0  0  0  0  0  0  0  0  0  0  0  0
   17.7084   -4.6073  -10.6724 O   0  0  0  0  0  0  0  0  0  0  0  0
   17.7730   -7.0065  -10.7873 C   0  0  0  0  0  0  0  0  0  0  0  0
   18.1538   -7.2204  -12.2398 C   0  0  2  0  0  0  0  0  0  0  0  0
   17.8482   -8.5088  -12.7818 N   0  0  0  0  0  0  0  0  0  0  0  0
   19.5119   -6.7296  -12.4747 C   0  0  0  0  0  0  0  0  0  0  0  0
   20.5012   -7.2151  -11.8313 O   0  0  0  0  0  0  0  0  0  0  0  0
   20.7303   -5.1918  -16.0297 C   0  0  0  0  0  0  0  0  0  0  0  0
   21.6767   -5.7323  -14.9750 C   0  0  1  0  0  0  0  0  0  0  0  0
   22.9621   -5.2859  -15.2475 O   0  0  0  0  0  0  0  0  0  0  0  0
   21.2061   -5.2808  -13.6058 C   0  0  2  0  0  0  0  0  0  0  0  0
   19.8260   -5.7037  -13.4128 N   0  0  0  0  0  0  0  0  0  0  0  0
   21.3102   -3.8065  -13.5602 C   0  0  0  0  0  0  0  0  0  0  0  0
   22.5127   -3.1260  -13.6462 O   0  0  0  0  0  0  0  0  0  0  0  0
   20.2559   -3.1367  -13.4377 O   0  0  0  0  0  0  0  0  0  0  0  0
  2  3  1  0
  2  9  1  0
  2  1  1  6
  4  5  2  0
  4  3  1  0
  6  5  1  0
  7  8  2  0
  7  6  1  0
  8  4  1  0
  9 16  1  0
 10  9  2  0
 12 14  1  0
 12 11  1  0
 13 12  2  0
 15 14  1  1
 16 15  1  0
 17 23  1  0
 17 15  1  0
 18 17  2  0
 20 19  1  6
 20 22  1  0
 21 20  1  0
 22 24  1  0
 22 23  1  6
 24 25  1  0
 26 24  2  0
M  END
$$$$
