HNT.pdb
     RDKit          3D

 26 26  0  0  1  0  0  0  0  0999 V2000
   20.1452  -12.2375  -18.0331 N   0  0  0  0  0  0  0  0  0  0  0  0
   21.0387  -11.1279  -17.9216 C   0  0  1  0  0  0  0  0  0  0  0  0
   21.3660  -10.4677  -19.2400 C   0  0  0  0  0  0  0  0  0  0  0  0
   22.0849  -11.4496  -20.0739 C   0  0  0  0  0  0  0  0  0  0  0  0
   23.0654  -12.3150  -19.6500 C   0  0  0  0  0  0  0  0  0  0  0  0
   23.4610  -13.0332  -20.7013 N   0  0  0  0  0  0  0  0  0  0  0  0
   22.7555  -12.6407  -21.7683 C   0  0  0  0  0  0  0  0  0  0  0  0
   21.9085  -11.6667  -21.3846 N   0  0  0  0  0  0  0  0  0  0  0  0
   20.5547  -10.0808  -16.9429 C   0  0  0  0  0  0  0  0  0  0  0  0
   19.3449   -9.8269  -16.9866 O   0  0  0  0  0  0  0  0  0  0  0  0
   20.7919   -6.5358  -13.0410 N   0  0  0  0  0  0  0  0  0  0  0  0
   21.1560   -7.8296  -12.6207 C   0  0  0  0  0  0  0  0  0  0  0  0
   21.2694   -8.0342  -11.3682 O   0  0  0  0  0  0  0  0  0  0  0  0
   21.3837   -8.8632  -13.6206 C   0  0  0  0  0  0  0  0  0  0  0  0
   21.1612   -8.4417  -15.0605 C   0  0  2  0  0  0  0  0  0  0  0  0
   21.4159   -9.4430  -16.0502 N   0  0  0  0  0  0  0  0  0  0  0  0
   21.7741   -7.1342  -15.2958 C   0  0  0  0  0  0  0  0  0  0  0  0
   23.0415   -7.0146  -15.3846 O   0  0  0  0  0  0  0  0  0  0  0  0
   20.4386   -4.5640  -18.0077 C   0  0  0  0  0  0  0  0  0  0  0  0
   20.7008   -3.8753  -16.6821 C   0  0  1  0  0  0  0  0  0  0  0  0
   19.4976   -3.7104  -16.0108 O   0  0  0  0  0  0  0  0  0  0  0  0
   21.6821   -4.7045  -15.8761 C   0  0  2  0  0  0  0  0  0  0  0  0
   21.0262   -5.9298  -15.4412 N   0  0  0  0  0  0  0  0  0  0  0  0
   22.1002   -3.8959  -14.7109 C   0  0  0  0  0  0  0  0  0  0  0  0
   21.7522   -4.2044  -13.4069 O   0  0  0  0  0  0  0  0  0  0  0  0
   22.8066   -2.8783  -14.9124 O   0  0  0  0  0  0  0  0  0  0  0  0
  2  3  1  0
  2  9  1  0
  2  1  1  6
  4  5  2  0
  4  3  1  0
  6  5  1  0
  7  8  2  0
  7  6  1  0
  8  4  1  0
  9 16  1  0
 10  9  2  0
 12 14  1  0
 12 11  1  0
 13 12  2  0
 15 14  1  1
 16 15  1  0
 17 23  1  0
 17 15  1  0
 18 17  2  0
 20 19  1  6
 20 22  1  0
 21 20  1  0
 22 24  1  0
 22 23  1  1
 24 25  1  0
 26 24  2  0
M  END
$$$$
