HNT.pdb
     RDKit          3D

 26 26  0  0  1  0  0  0  0  0999 V2000
   18.7731  -25.7520  -12.2065 N   0  0  0  0  0  0  0  0  0  0  0  0
   18.6694  -26.0993  -10.8243 C   0  0  1  0  0  0  0  0  0  0  0  0
   19.9784  -26.5135  -10.1950 C   0  0  0  0  0  0  0  0  0  0  0  0
   20.4796  -27.6942  -10.9239 C   0  0  0  0  0  0  0  0  0  0  0  0
   20.3029  -29.0090  -10.5635 C   0  0  0  0  0  0  0  0  0  0  0  0
   20.9061  -29.7694  -11.4776 N   0  0  0  0  0  0  0  0  0  0  0  0
   21.4535  -28.9668  -12.3974 C   0  0  0  0  0  0  0  0  0  0  0  0
   21.1925  -27.6899  -12.0588 N   0  0  0  0  0  0  0  0  0  0  0  0
   18.0356  -25.0074   -9.9908 C   0  0  0  0  0  0  0  0  0  0  0  0
   18.2589  -23.8504  -10.3666 O   0  0  0  0  0  0  0  0  0  0  0  0
   17.0934  -22.0388   -9.3165 N   0  0  0  0  0  0  0  0  0  0  0  0
   15.7772  -22.4674   -9.5759 C   0  0  0  0  0  0  0  0  0  0  0  0
   15.0499  -21.7279  -10.3159 O   0  0  0  0  0  0  0  0  0  0  0  0
   15.3107  -23.7189   -8.9962 C   0  0  0  0  0  0  0  0  0  0  0  0
   16.3246  -24.4678   -8.1526 C   0  0  2  0  0  0  0  0  0  0  0  0
   17.2515  -25.2868   -8.8717 N   0  0  0  0  0  0  0  0  0  0  0  0
   15.6548  -25.1002   -7.0160 C   0  0  0  0  0  0  0  0  0  0  0  0
   14.5591  -25.7348   -7.1753 O   0  0  0  0  0  0  0  0  0  0  0  0
   17.2807  -27.3460   -4.2133 C   0  0  0  0  0  0  0  0  0  0  0  0
   16.4528  -26.2392   -3.5888 C   0  0  1  0  0  0  0  0  0  0  0  0
   17.2991  -25.2270   -3.1592 O   0  0  0  0  0  0  0  0  0  0  0  0
   15.4483  -25.7344   -4.6068 C   0  0  2  0  0  0  0  0  0  0  0  0
   16.1593  -25.0594   -5.6837 N   0  0  0  0  0  0  0  0  0  0  0  0
   14.5411  -24.7952   -3.9130 C   0  0  0  0  0  0  0  0  0  0  0  0
   13.6930  -25.1753   -2.8868 O   0  0  0  0  0  0  0  0  0  0  0  0
   14.5388  -23.5924   -4.2711 O   0  0  0  0  0  0  0  0  0  0  0  0
  2  3  1  0
  2  9  1  0
  2  1  1  6
  4  5  2  0
  4  3  1  0
  6  5  1  0
  7  8  2  0
  7  6  1  0
  8  4  1  0
  9 16  1  0
 10  9  2  0
 12 14  1  0
 12 11  1  0
 13 12  2  0
 15 14  1  6
 16 15  1  0
 17 23  1  0
 17 15  1  0
 18 17  2  0
 20 19  1  6
 20 22  1  0
 21 20  1  0
 22 24  1  0
 22 23  1  6
 24 25  1  0
 26 24  2  0
M  END
$$$$
