HNT.pdb
     RDKit          3D

 26 26  0  0  1  0  0  0  0  0999 V2000
   25.9643  -23.0900  -15.0783 N   0  0  0  0  0  0  0  0  0  0  0  0
   24.6555  -23.1011  -15.6517 C   0  0  1  0  0  0  0  0  0  0  0  0
   24.2407  -24.4415  -16.2103 C   0  0  0  0  0  0  0  0  0  0  0  0
   25.2203  -24.8259  -17.2442 C   0  0  0  0  0  0  0  0  0  0  0  0
   25.2997  -24.3183  -18.5193 C   0  0  0  0  0  0  0  0  0  0  0  0
   26.3142  -24.9223  -19.1387 N   0  0  0  0  0  0  0  0  0  0  0  0
   26.8696  -25.7916  -18.2866 C   0  0  0  0  0  0  0  0  0  0  0  0
   26.1983  -25.7340  -17.1207 N   0  0  0  0  0  0  0  0  0  0  0  0
   23.5922  -22.6050  -14.6966 C   0  0  0  0  0  0  0  0  0  0  0  0
   23.5165  -23.2096  -13.6202 O   0  0  0  0  0  0  0  0  0  0  0  0
   20.7299  -19.1470  -12.0171 N   0  0  0  0  0  0  0  0  0  0  0  0
   20.8302  -18.7119  -13.3528 C   0  0  0  0  0  0  0  0  0  0  0  0
   20.0773  -17.7516  -13.7196 O   0  0  0  0  0  0  0  0  0  0  0  0
   21.7760  -19.3680  -14.2442 C   0  0  0  0  0  0  0  0  0  0  0  0
   21.7421  -20.8843  -14.2336 C   0  0  2  0  0  0  0  0  0  0  0  0
   22.7521  -21.5365  -15.0093 N   0  0  0  0  0  0  0  0  0  0  0  0
   20.3712  -21.3521  -14.4390 C   0  0  0  0  0  0  0  0  0  0  0  0
   19.7368  -21.0630  -15.5079 O   0  0  0  0  0  0  0  0  0  0  0  0
   18.0881  -23.4004  -11.4711 C   0  0  0  0  0  0  0  0  0  0  0  0
   18.0632  -23.8708  -12.9128 C   0  0  1  0  0  0  0  0  0  0  0  0
   16.8250  -24.4354  -13.1843 O   0  0  0  0  0  0  0  0  0  0  0  0
   18.3539  -22.6946  -13.8251 C   0  0  2  0  0  0  0  0  0  0  0  0
   19.6602  -22.1441  -13.4913 N   0  0  0  0  0  0  0  0  0  0  0  0
   17.2935  -21.6872  -13.6085 C   0  0  0  0  0  0  0  0  0  0  0  0
   17.5176  -20.4672  -12.9935 O   0  0  0  0  0  0  0  0  0  0  0  0
   16.1309  -21.9496  -14.0017 O   0  0  0  0  0  0  0  0  0  0  0  0
  2  3  1  0
  2  9  1  0
  2  1  1  1
  4  5  2  0
  4  3  1  0
  6  5  1  0
  7  8  2  0
  7  6  1  0
  8  4  1  0
  9 16  1  0
 10  9  2  0
 12 14  1  0
 12 11  1  0
 13 12  2  0
 15 14  1  6
 16 15  1  0
 17 23  1  0
 17 15  1  0
 18 17  2  0
 20 19  1  1
 20 22  1  0
 21 20  1  0
 22 24  1  0
 22 23  1  1
 24 25  1  0
 26 24  2  0
M  END
$$$$
