HNT.pdb
     RDKit          3D

 26 26  0  0  1  0  0  0  0  0999 V2000
   21.0323  -13.0744  -17.2259 N   0  0  0  0  0  0  0  0  0  0  0  0
   20.1418  -11.9656  -17.0869 C   0  0  1  0  0  0  0  0  0  0  0  0
   19.2480  -12.0439  -15.8720 C   0  0  0  0  0  0  0  0  0  0  0  0
   18.4109  -13.2518  -16.0008 C   0  0  0  0  0  0  0  0  0  0  0  0
   17.2472  -13.3626  -16.7244 C   0  0  0  0  0  0  0  0  0  0  0  0
   16.7953  -14.6093  -16.5858 N   0  0  0  0  0  0  0  0  0  0  0  0
   17.6435  -15.2788  -15.7969 C   0  0  0  0  0  0  0  0  0  0  0  0
   18.6380  -14.4458  -15.4359 N   0  0  0  0  0  0  0  0  0  0  0  0
   20.8579  -10.6330  -17.0975 C   0  0  0  0  0  0  0  0  0  0  0  0
   21.8365  -10.5460  -16.3461 O   0  0  0  0  0  0  0  0  0  0  0  0
   22.0876   -5.7159  -18.4624 N   0  0  0  0  0  0  0  0  0  0  0  0
   21.4384   -6.3052  -19.5645 C   0  0  0  0  0  0  0  0  0  0  0  0
   21.3880   -5.6362  -20.6477 O   0  0  0  0  0  0  0  0  0  0  0  0
   20.8613   -7.6342  -19.4213 C   0  0  0  0  0  0  0  0  0  0  0  0
   20.9572   -8.2439  -18.0358 C   0  0  2  0  0  0  0  0  0  0  0  0
   20.4419   -9.5718  -17.9014 N   0  0  0  0  0  0  0  0  0  0  0  0
   20.5088   -7.2757  -17.0349 C   0  0  0  0  0  0  0  0  0  0  0  0
   19.2925   -6.8913  -16.9983 O   0  0  0  0  0  0  0  0  0  0  0  0
   20.9653   -7.7007  -13.3252 C   0  0  0  0  0  0  0  0  0  0  0  0
   21.4331   -6.2985  -13.6651 C   0  0  1  0  0  0  0  0  0  0  0  0
   22.8197   -6.2826  -13.7146 O   0  0  0  0  0  0  0  0  0  0  0  0
   20.8211   -5.8765  -14.9870 C   0  0  2  0  0  0  0  0  0  0  0  0
   21.3688   -6.7052  -16.0519 N   0  0  0  0  0  0  0  0  0  0  0  0
   21.1634   -4.4547  -15.2053 C   0  0  0  0  0  0  0  0  0  0  0  0
   20.7057   -3.4293  -14.3955 O   0  0  0  0  0  0  0  0  0  0  0  0
   21.9065   -4.1609  -16.1730 O   0  0  0  0  0  0  0  0  0  0  0  0
  2  3  1  0
  2  9  1  0
  2  1  1  1
  4  5  2  0
  4  3  1  0
  6  5  1  0
  7  8  2  0
  7  6  1  0
  8  4  1  0
  9 16  1  0
 10  9  2  0
 12 14  1  0
 12 11  1  0
 13 12  2  0
 15 14  1  6
 16 15  1  0
 17 23  1  0
 17 15  1  0
 18 17  2  0
 20 19  1  6
 20 22  1  0
 21 20  1  0
 22 24  1  0
 22 23  1  6
 24 25  1  0
 26 24  2  0
M  END
$$$$
