ERM.pdb
     RDKit          3D

 29 28  0  0  1  0  0  0  0  0999 V2000
   20.4784  -19.2605  -15.9430 N   0  0  0  0  0  0  0  0  0  0  0  0
   20.2579  -20.6515  -15.7942 C   0  0  1  0  0  0  0  0  0  0  0  0
   21.4225  -21.5606  -15.9371 C   0  0  0  0  0  0  0  0  0  0  0  0
   22.7729  -20.9489  -15.8966 C   0  0  0  0  0  0  0  0  0  0  0  0
   23.7347  -21.6916  -15.1017 C   0  0  0  0  0  0  0  0  0  0  0  0
   24.8940  -21.2132  -14.9636 O   0  0  0  0  0  0  0  0  0  0  0  0
   19.5548  -20.8542  -14.4749 C   0  0  0  0  0  0  0  0  0  0  0  0
   19.7482  -20.0817  -13.4866 O   0  0  0  0  0  0  0  0  0  0  0  0
   23.4261  -22.8885  -14.4966 O   0  0  0  0  0  0  0  0  0  0  0  0
   12.5391  -24.5683  -10.6007 N   0  0  0  0  0  0  0  0  0  0  0  0
   12.5467  -23.6158  -11.6840 C   0  0  0  0  0  0  0  0  0  0  0  0
   11.5306  -22.8393  -11.8651 N   0  0  0  0  0  0  0  0  0  0  0  0
   13.6604  -23.5401  -12.5394 N   0  0  0  0  0  0  0  0  0  0  0  0
   14.8698  -24.2616  -12.2317 C   0  0  0  0  0  0  0  0  0  0  0  0
   16.0258  -23.3189  -11.8723 C   0  0  0  0  0  0  0  0  0  0  0  0
   16.7365  -23.0250  -13.1576 C   0  0  0  0  0  0  0  0  0  0  0  0
   17.9352  -22.1571  -13.0520 C   0  0  2  0  0  0  0  0  0  0  0  0
   18.6421  -21.9137  -14.2633 N   0  0  0  0  0  0  0  0  0  0  0  0
   18.8210  -22.7849  -12.0044 C   0  0  0  0  0  0  0  0  0  0  0  0
   19.4836  -23.7938  -12.3291 O   0  0  0  0  0  0  0  0  0  0  0  0
   11.5428  -22.1469  -12.6374 C   0  0  0  0  0  0  0  0  0  0  0  0
   23.5933  -20.4600   -9.5498 S   0  0  0  0  0  0  0  0  0  0  0  0
   23.0300  -21.1303   -7.9410 C   0  0  0  0  0  0  0  0  0  0  0  0
   21.7705  -22.4156   -8.2866 C   0  0  0  0  0  0  0  0  0  0  0  0
   20.8233  -21.8544   -9.2799 C   0  0  1  0  0  0  0  0  0  0  0  0
   19.8704  -22.9174   -9.7736 N   0  0  0  0  0  0  0  0  0  0  0  0
   18.9141  -22.2725  -10.7044 C   0  0  0  0  0  0  0  0  0  0  0  0
   19.1276  -23.4675   -8.6139 O   0  0  0  0  0  0  0  0  0  0  0  0
   17.7737  -23.3588   -8.4046 O   0  0  0  0  0  0  0  0  0  0  0  0
  2  7  1  0
  2  1  1  1
  3  2  1  0
  4  3  1  0
  4  5  1  0
  5  6  2  0
  5  9  1  0
  7  8  2  0
 10 11  1  0
 11 13  1  0
 12 11  2  0
 13 14  1  0
 14 15  1  0
 15 16  1  0
 17 19  1  0
 17 16  1  6
 18 17  1  0
 18  7  1  0
 19 26  1  0
 19 20  2  0
 22 21  1  0
 23 24  1  0
 23 22  1  0
 25 24  1  6
 26 25  1  0
 27 28  1  0
 27 25  1  0
 29 27  2  0
M  END
$$$$
