ERM.pdb
     RDKit          3D

 29 28  0  0  1  0  0  0  0  0999 V2000
   25.0543  -27.8517  -17.0772 N   0  0  0  0  0  0  0  0  0  0  0  0
   25.8897  -27.1642  -17.9911 C   0  0  1  0  0  0  0  0  0  0  0  0
   25.2762  -26.6395  -19.2366 C   0  0  0  0  0  0  0  0  0  0  0  0
   24.7307  -27.6296  -20.1966 C   0  0  0  0  0  0  0  0  0  0  0  0
   25.7192  -28.1725  -21.1114 C   0  0  0  0  0  0  0  0  0  0  0  0
   26.5800  -27.3883  -21.5972 O   0  0  0  0  0  0  0  0  0  0  0  0
   26.5962  -26.0768  -17.2201 C   0  0  0  0  0  0  0  0  0  0  0  0
   26.0032  -25.3915  -16.3315 O   0  0  0  0  0  0  0  0  0  0  0  0
   25.7503  -29.5032  -21.4611 O   0  0  0  0  0  0  0  0  0  0  0  0
   33.4851  -25.0993  -14.1928 N   0  0  0  0  0  0  0  0  0  0  0  0
   33.5182  -25.7560  -15.4767 C   0  0  0  0  0  0  0  0  0  0  0  0
   34.2241  -26.8260  -15.6340 N   0  0  0  0  0  0  0  0  0  0  0  0
   32.7831  -25.2250  -16.5518 N   0  0  0  0  0  0  0  0  0  0  0  0
   32.3625  -23.8464  -16.5405 C   0  0  0  0  0  0  0  0  0  0  0  0
   30.8875  -23.6987  -16.1444 C   0  0  0  0  0  0  0  0  0  0  0  0
   30.1420  -24.7367  -16.9256 C   0  0  0  0  0  0  0  0  0  0  0  0
   28.6633  -24.6966  -16.8111 C   0  0  2  0  0  0  0  0  0  0  0  0
   27.9563  -25.7586  -17.4422 N   0  0  0  0  0  0  0  0  0  0  0  0
   28.2346  -23.3492  -17.3375 C   0  0  0  0  0  0  0  0  0  0  0  0
   28.3128  -23.1524  -18.5694 O   0  0  0  0  0  0  0  0  0  0  0  0
   34.2323  -27.3071  -16.5530 C   0  0  0  0  0  0  0  0  0  0  0  0
   23.0647  -20.5471  -15.9810 S   0  0  0  0  0  0  0  0  0  0  0  0
   23.4666  -19.8629  -17.6318 C   0  0  0  0  0  0  0  0  0  0  0  0
   25.2918  -19.8379  -17.7920 C   0  0  0  0  0  0  0  0  0  0  0  0
   25.8091  -21.0854  -17.1797 C   0  0  1  0  0  0  0  0  0  0  0  0
   27.3183  -21.0673  -17.1172 N   0  0  0  0  0  0  0  0  0  0  0  0
   27.7618  -22.3366  -16.4936 C   0  0  0  0  0  0  0  0  0  0  0  0
   27.7467  -19.9300  -16.2674 O   0  0  0  0  0  0  0  0  0  0  0  0
   28.2536  -20.0274  -14.9938 O   0  0  0  0  0  0  0  0  0  0  0  0
  2  7  1  0
  2  1  1  1
  3  2  1  0
  4  3  1  0
  4  5  1  0
  5  6  2  0
  5  9  1  0
  7  8  2  0
 10 11  1  0
 11 13  1  0
 12 11  2  0
 13 14  1  0
 14 15  1  0
 15 16  1  0
 17 19  1  0
 17 16  1  6
 18 17  1  0
 18  7  1  0
 19 26  1  0
 19 20  2  0
 22 21  1  0
 23 24  1  0
 23 22  1  0
 25 24  1  6
 26 25  1  0
 27 28  1  0
 27 25  1  0
 29 27  2  0
M  END
$$$$
