ERM.pdb
     RDKit          3D

 29 28  0  0  1  0  0  0  0  0999 V2000
   31.5668  -26.4809  -17.2984 N   0  0  0  0  0  0  0  0  0  0  0  0
   30.3906  -26.1997  -16.5614 C   0  0  1  0  0  0  0  0  0  0  0  0
   29.9952  -24.7787  -16.3961 C   0  0  0  0  0  0  0  0  0  0  0  0
   29.7062  -24.0046  -17.6277 C   0  0  0  0  0  0  0  0  0  0  0  0
   29.2858  -22.6367  -17.3811 C   0  0  0  0  0  0  0  0  0  0  0  0
   29.9152  -21.7045  -17.9529 O   0  0  0  0  0  0  0  0  0  0  0  0
   29.2773  -27.0183  -17.1667 C   0  0  0  0  0  0  0  0  0  0  0  0
   29.2872  -27.3643  -18.3878 O   0  0  0  0  0  0  0  0  0  0  0  0
   28.2309  -22.3255  -16.5539 O   0  0  0  0  0  0  0  0  0  0  0  0
   25.5337  -33.7126  -13.9960 N   0  0  0  0  0  0  0  0  0  0  0  0
   26.7550  -33.1739  -14.5430 C   0  0  0  0  0  0  0  0  0  0  0  0
   27.8938  -33.6595  -14.1753 N   0  0  0  0  0  0  0  0  0  0  0  0
   26.6985  -32.1199  -15.4725 N   0  0  0  0  0  0  0  0  0  0  0  0
   25.4492  -31.4578  -15.7528 C   0  0  0  0  0  0  0  0  0  0  0  0
   25.6276  -30.2788  -16.7183 C   0  0  0  0  0  0  0  0  0  0  0  0
   26.7301  -29.4395  -16.1494 C   0  0  0  0  0  0  0  0  0  0  0  0
   27.0762  -28.2171  -16.9158 C   0  0  2  0  0  0  0  0  0  0  0  0
   28.1611  -27.4464  -16.4109 N   0  0  0  0  0  0  0  0  0  0  0  0
   25.8089  -27.4039  -17.0099 C   0  0  0  0  0  0  0  0  0  0  0  0
   25.5195  -26.6612  -16.0471 O   0  0  0  0  0  0  0  0  0  0  0  0
   28.7677  -33.3098  -14.6113 C   0  0  0  0  0  0  0  0  0  0  0  0
   23.1310  -23.0301  -22.2531 S   0  0  0  0  0  0  0  0  0  0  0  0
   23.1424  -24.8076  -21.8110 C   0  0  0  0  0  0  0  0  0  0  0  0
   23.6754  -24.9405  -20.0630 C   0  0  0  0  0  0  0  0  0  0  0  0
   23.4425  -26.3401  -19.6321 C   0  0  2  0  0  0  0  0  0  0  0  0
   23.8211  -26.5256  -18.1816 N   0  0  0  0  0  0  0  0  0  0  0  0
   24.9682  -27.4627  -18.1284 C   0  0  0  0  0  0  0  0  0  0  0  0
   22.6701  -27.1214  -17.4608 O   0  0  0  0  0  0  0  0  0  0  0  0
   21.6313  -26.4233  -16.8934 O   0  0  0  0  0  0  0  0  0  0  0  0
  2  7  1  0
  2  1  1  6
  3  2  1  0
  4  3  1  0
  4  5  1  0
  5  6  2  0
  5  9  1  0
  7  8  2  0
 10 11  1  0
 11 13  1  0
 12 11  2  0
 13 14  1  0
 14 15  1  0
 15 16  1  0
 17 19  1  0
 17 16  1  1
 18 17  1  0
 18  7  1  0
 19 26  1  0
 19 20  2  0
 22 21  1  0
 23 24  1  0
 23 22  1  0
 25 24  1  6
 26 25  1  0
 27 28  1  0
 27 25  1  0
 29 27  2  0
M  END
$$$$
