ERM.pdb
     RDKit          3D

 29 28  0  0  1  0  0  0  0  0999 V2000
   17.4236  -13.2679  -16.0836 N   0  0  0  0  0  0  0  0  0  0  0  0
   17.9238  -12.2238  -16.8993 C   0  0  1  0  0  0  0  0  0  0  0  0
   16.9889  -11.1417  -17.2969 C   0  0  0  0  0  0  0  0  0  0  0  0
   15.7997  -11.5281  -18.0944 C   0  0  0  0  0  0  0  0  0  0  0  0
   14.9699  -10.4073  -18.4993 C   0  0  0  0  0  0  0  0  0  0  0  0
   15.3060   -9.2489  -18.1290 O   0  0  0  0  0  0  0  0  0  0  0  0
   19.1517  -11.6730  -16.2175 C   0  0  0  0  0  0  0  0  0  0  0  0
   19.2308  -11.5766  -14.9544 O   0  0  0  0  0  0  0  0  0  0  0  0
   13.8403  -10.5644  -19.2695 O   0  0  0  0  0  0  0  0  0  0  0  0
   27.2775  -13.3454  -17.5523 N   0  0  0  0  0  0  0  0  0  0  0  0
   26.4701  -13.7016  -16.4112 C   0  0  0  0  0  0  0  0  0  0  0  0
   26.7026  -14.8024  -15.7770 N   0  0  0  0  0  0  0  0  0  0  0  0
   25.4314  -12.8485  -15.9972 N   0  0  0  0  0  0  0  0  0  0  0  0
   25.1475  -11.6359  -16.7229 C   0  0  0  0  0  0  0  0  0  0  0  0
   23.9821  -10.8543  -16.1024 C   0  0  0  0  0  0  0  0  0  0  0  0
   22.7375  -11.3848  -16.7453 C   0  0  0  0  0  0  0  0  0  0  0  0
   21.4730  -10.7066  -16.3680 C   0  0  2  0  0  0  0  0  0  0  0  0
   20.2827  -11.2332  -16.9440 N   0  0  0  0  0  0  0  0  0  0  0  0
   21.6588   -9.2476  -16.7046 C   0  0  0  0  0  0  0  0  0  0  0  0
   21.5903   -8.9130  -17.9069 O   0  0  0  0  0  0  0  0  0  0  0  0
   26.1035  -15.0703  -14.9737 C   0  0  0  0  0  0  0  0  0  0  0  0
   21.4528   -4.6496  -12.4426 S   0  0  0  0  0  0  0  0  0  0  0  0
   21.4336   -3.5496  -13.9071 C   0  0  0  0  0  0  0  0  0  0  0  0
   21.9205   -4.5534  -15.3606 C   0  0  0  0  0  0  0  0  0  0  0  0
   21.7434   -5.9797  -14.9957 C   0  0  1  0  0  0  0  0  0  0  0  0
   22.0903   -6.8788  -16.1589 N   0  0  0  0  0  0  0  0  0  0  0  0
   21.9014   -8.2818  -15.7199 C   0  0  0  0  0  0  0  0  0  0  0  0
   23.5136   -6.6668  -16.5173 O   0  0  0  0  0  0  0  0  0  0  0  0
   23.9759   -5.8254  -17.5006 O   0  0  0  0  0  0  0  0  0  0  0  0
  2  7  1  0
  2  1  1  1
  3  2  1  0
  4  3  1  0
  4  5  1  0
  5  6  2  0
  5  9  1  0
  7  8  2  0
 10 11  1  0
 11 13  1  0
 12 11  2  0
 13 14  1  0
 14 15  1  0
 15 16  1  0
 17 19  1  0
 17 16  1  6
 18 17  1  0
 18  7  1  0
 19 26  1  0
 19 20  2  0
 22 21  1  0
 23 24  1  0
 23 22  1  0
 25 24  1  6
 26 25  1  0
 27 28  1  0
 27 25  1  0
 29 27  2  0
M  END
$$$$
