ERM.pdb
     RDKit          3D

 29 28  0  0  1  0  0  0  0  0999 V2000
   17.7153  -11.6010    7.0367 N   0  0  0  0  0  0  0  0  0  0  0  0
   18.8857  -12.3914    6.9323 C   0  0  1  0  0  0  0  0  0  0  0  0
   20.0462  -12.0338    7.7857 C   0  0  0  0  0  0  0  0  0  0  0  0
   20.7090  -10.7332    7.5238 C   0  0  0  0  0  0  0  0  0  0  0  0
   21.5693  -10.7331    6.3540 C   0  0  0  0  0  0  0  0  0  0  0  0
   21.5786  -11.7576    5.6175 O   0  0  0  0  0  0  0  0  0  0  0  0
   18.4736  -13.8291    7.1306 C   0  0  0  0  0  0  0  0  0  0  0  0
   17.7873  -14.1975    8.1327 O   0  0  0  0  0  0  0  0  0  0  0  0
   22.3660   -9.6610    6.0226 O   0  0  0  0  0  0  0  0  0  0  0  0
   16.4887  -20.0365    2.8625 N   0  0  0  0  0  0  0  0  0  0  0  0
   15.3834  -19.1104    2.8996 C   0  0  0  0  0  0  0  0  0  0  0  0
   14.1940  -19.5158    2.6012 N   0  0  0  0  0  0  0  0  0  0  0  0
   15.6080  -17.7691    3.2582 N   0  0  0  0  0  0  0  0  0  0  0  0
   16.9306  -17.3178    3.6115 C   0  0  0  0  0  0  0  0  0  0  0  0
   17.3163  -17.7292    5.0384 C   0  0  0  0  0  0  0  0  0  0  0  0
   18.6653  -17.1300    5.2927 C   0  0  0  0  0  0  0  0  0  0  0  0
   18.7683  -16.2442    6.4786 C   0  0  2  0  0  0  0  0  0  0  0  0
   18.8272  -14.8468    6.2144 N   0  0  0  0  0  0  0  0  0  0  0  0
   19.9713  -16.7172    7.2566 C   0  0  0  0  0  0  0  0  0  0  0  0
   21.1006  -16.5338    6.7532 O   0  0  0  0  0  0  0  0  0  0  0  0
   13.3971  -18.8535    2.6489 C   0  0  0  0  0  0  0  0  0  0  0  0
   21.3187  -13.4602   11.3683 S   0  0  0  0  0  0  0  0  0  0  0  0
   22.5110  -14.8506   11.3844 C   0  0  0  0  0  0  0  0  0  0  0  0
   22.2051  -15.8603    9.8863 C   0  0  0  0  0  0  0  0  0  0  0  0
   21.4383  -17.0581   10.3063 C   0  0  2  0  0  0  0  0  0  0  0  0
   21.0783  -17.9110    9.1126 N   0  0  0  0  0  0  0  0  0  0  0  0
   19.8519  -17.3440    8.5032 C   0  0  0  0  0  0  0  0  0  0  0  0
   20.7986  -19.2905    9.5794 O   0  0  0  0  0  0  0  0  0  0  0  0
   21.7048  -20.1342   10.1756 O   0  0  0  0  0  0  0  0  0  0  0  0
  2  7  1  0
  2  1  1  1
  3  2  1  0
  4  3  1  0
  4  5  1  0
  5  6  2  0
  5  9  1  0
  7  8  2  0
 10 11  1  0
 11 13  1  0
 12 11  2  0
 13 14  1  0
 14 15  1  0
 15 16  1  0
 17 19  1  0
 17 16  1  6
 18 17  1  0
 18  7  1  0
 19 26  1  0
 19 20  2  0
 22 21  1  0
 23 24  1  0
 23 22  1  0
 25 24  1  6
 26 25  1  0
 27 28  1  0
 27 25  1  0
 29 27  2  0
M  END
$$$$
