ERM.pdb
     RDKit          3D

 29 28  0  0  1  0  0  0  0  0999 V2000
   27.8835  -22.2176  -16.3649 N   0  0  0  0  0  0  0  0  0  0  0  0
   28.0056  -21.1699  -15.4199 C   0  0  1  0  0  0  0  0  0  0  0  0
   27.8873  -19.7735  -15.9088 C   0  0  0  0  0  0  0  0  0  0  0  0
   26.6521  -19.4124  -16.6459 C   0  0  0  0  0  0  0  0  0  0  0  0
   26.8072  -19.4009  -18.0897 C   0  0  0  0  0  0  0  0  0  0  0  0
   25.7874  -19.1825  -18.7998 O   0  0  0  0  0  0  0  0  0  0  0  0
   27.0251  -21.4534  -14.3089 C   0  0  0  0  0  0  0  0  0  0  0  0
   25.9251  -22.0498  -14.5215 O   0  0  0  0  0  0  0  0  0  0  0  0
   28.0196  -19.6154  -18.7044 O   0  0  0  0  0  0  0  0  0  0  0  0
   31.0032  -22.0983  -10.3116 N   0  0  0  0  0  0  0  0  0  0  0  0
   30.7985  -21.4099   -9.0606 C   0  0  0  0  0  0  0  0  0  0  0  0
   31.6016  -21.6205   -8.0713 N   0  0  0  0  0  0  0  0  0  0  0  0
   29.7226  -20.5144   -8.9244 N   0  0  0  0  0  0  0  0  0  0  0  0
   28.3889  -21.0045   -8.6823 C   0  0  0  0  0  0  0  0  0  0  0  0
   27.8252  -21.7593   -9.8934 C   0  0  0  0  0  0  0  0  0  0  0  0
   26.8562  -20.8251  -10.5505 C   0  0  0  0  0  0  0  0  0  0  0  0
   26.3636  -21.2371  -11.8880 C   0  0  2  0  0  0  0  0  0  0  0  0
   27.2737  -21.0719  -12.9699 N   0  0  0  0  0  0  0  0  0  0  0  0
   25.0791  -20.4797  -12.1175 C   0  0  0  0  0  0  0  0  0  0  0  0
   25.1621  -19.2774  -12.4492 O   0  0  0  0  0  0  0  0  0  0  0  0
   31.4768  -21.0949   -7.1858 C   0  0  0  0  0  0  0  0  0  0  0  0
   22.6344  -19.6872  -16.8942 S   0  0  0  0  0  0  0  0  0  0  0  0
   21.0428  -20.1845  -16.1365 C   0  0  0  0  0  0  0  0  0  0  0  0
   21.1727  -19.8924  -14.3322 C   0  0  0  0  0  0  0  0  0  0  0  0
   22.3998  -20.5767  -13.8581 C   0  0  1  0  0  0  0  0  0  0  0  0
   22.6313  -20.3080  -12.3898 N   0  0  0  0  0  0  0  0  0  0  0  0
   23.8235  -21.0819  -11.9695 C   0  0  0  0  0  0  0  0  0  0  0  0
   21.4499  -20.7787  -11.6270 O   0  0  0  0  0  0  0  0  0  0  0  0
   21.4190  -21.8661  -10.7873 O   0  0  0  0  0  0  0  0  0  0  0  0
  2  7  1  0
  2  1  1  6
  3  2  1  0
  4  3  1  0
  4  5  1  0
  5  6  2  0
  5  9  1  0
  7  8  2  0
 10 11  1  0
 11 13  1  0
 12 11  2  0
 13 14  1  0
 14 15  1  0
 15 16  1  0
 17 19  1  0
 17 16  1  1
 18 17  1  0
 18  7  1  0
 19 26  1  0
 19 20  2  0
 22 21  1  0
 23 24  1  0
 23 22  1  0
 25 24  1  6
 26 25  1  0
 27 28  1  0
 27 25  1  0
 29 27  2  0
M  END
$$$$
