ERM.pdb
     RDKit          3D

 29 28  0  0  1  0  0  0  0  0999 V2000
   21.0953  -28.3121  -11.5970 N   0  0  0  0  0  0  0  0  0  0  0  0
   19.9186  -28.4383  -10.8191 C   0  0  1  0  0  0  0  0  0  0  0  0
   19.7219  -29.6937  -10.0522 C   0  0  0  0  0  0  0  0  0  0  0  0
   19.7303  -30.9658  -10.8145 C   0  0  0  0  0  0  0  0  0  0  0  0
   18.4089  -31.5127  -11.0664 C   0  0  0  0  0  0  0  0  0  0  0  0
   18.3055  -32.4861  -11.8626 O   0  0  0  0  0  0  0  0  0  0  0  0
   19.8408  -27.2249   -9.9261 C   0  0  0  0  0  0  0  0  0  0  0  0
   20.6522  -26.2555  -10.0398 O   0  0  0  0  0  0  0  0  0  0  0  0
   17.2753  -31.0112  -10.4687 O   0  0  0  0  0  0  0  0  0  0  0  0
   16.9235  -20.3178  -10.1667 N   0  0  0  0  0  0  0  0  0  0  0  0
   17.5229  -21.1670  -11.1669 C   0  0  0  0  0  0  0  0  0  0  0  0
   18.2561  -20.6488  -12.0954 N   0  0  0  0  0  0  0  0  0  0  0  0
   17.3030  -22.5555  -11.1269 N   0  0  0  0  0  0  0  0  0  0  0  0
   16.3420  -23.1180  -10.2116 C   0  0  0  0  0  0  0  0  0  0  0  0
   17.0170  -23.7617   -8.9933 C   0  0  0  0  0  0  0  0  0  0  0  0
   17.5635  -25.0736   -9.4666 C   0  0  0  0  0  0  0  0  0  0  0  0
   18.3082  -25.8675   -8.4584 C   0  0  2  0  0  0  0  0  0  0  0  0
   18.8621  -27.0973   -8.9130 N   0  0  0  0  0  0  0  0  0  0  0  0
   17.3633  -26.0741   -7.3005 C   0  0  0  0  0  0  0  0  0  0  0  0
   16.2588  -26.6094   -7.5373 O   0  0  0  0  0  0  0  0  0  0  0  0
   18.6391  -21.2530  -12.8464 C   0  0  0  0  0  0  0  0  0  0  0  0
   18.5635  -26.3665   -0.8317 S   0  0  0  0  0  0  0  0  0  0  0  0
   19.5523  -27.1441   -2.1631 C   0  0  0  0  0  0  0  0  0  0  0  0
   18.4788  -27.2832   -3.6416 C   0  0  0  0  0  0  0  0  0  0  0  0
   17.5441  -26.1322   -3.6223 C   0  0  2  0  0  0  0  0  0  0  0  0
   16.7543  -26.0602   -4.9080 N   0  0  0  0  0  0  0  0  0  0  0  0
   17.6901  -25.6869   -5.9950 C   0  0  0  0  0  0  0  0  0  0  0  0
   15.7182  -25.0079   -4.7728 O   0  0  0  0  0  0  0  0  0  0  0  0
   14.5590  -25.1134   -4.0423 O   0  0  0  0  0  0  0  0  0  0  0  0
  2  7  1  0
  2  1  1  1
  3  2  1  0
  4  3  1  0
  4  5  1  0
  5  6  2  0
  5  9  1  0
  7  8  2  0
 10 11  1  0
 11 13  1  0
 12 11  2  0
 13 14  1  0
 14 15  1  0
 15 16  1  0
 17 19  1  0
 17 16  1  6
 18 17  1  0
 18  7  1  0
 19 26  1  0
 19 20  2  0
 22 21  1  0
 23 24  1  0
 23 22  1  0
 25 24  1  6
 26 25  1  0
 27 28  1  0
 27 25  1  0
 29 27  2  0
M  END
$$$$
