ERM.pdb
     RDKit          3D

 29 28  0  0  1  0  0  0  0  0999 V2000
   21.1236  -19.8091  -17.0244 N   0  0  0  0  0  0  0  0  0  0  0  0
   20.6606  -18.9435  -16.0036 C   0  0  1  0  0  0  0  0  0  0  0  0
   19.7434  -19.5023  -14.9793 C   0  0  0  0  0  0  0  0  0  0  0  0
   19.8880  -20.9405  -14.6477 C   0  0  0  0  0  0  0  0  0  0  0  0
   19.0875  -21.3693  -13.5145 C   0  0  0  0  0  0  0  0  0  0  0  0
   19.1130  -22.5884  -13.1904 O   0  0  0  0  0  0  0  0  0  0  0  0
   21.8742  -18.3066  -15.3730 C   0  0  0  0  0  0  0  0  0  0  0  0
   21.7733  -17.4103  -14.4801 O   0  0  0  0  0  0  0  0  0  0  0  0
   18.3106  -20.4974  -12.7864 O   0  0  0  0  0  0  0  0  0  0  0  0
   27.3143  -19.8569  -11.3296 N   0  0  0  0  0  0  0  0  0  0  0  0
   26.0945  -20.6251  -11.2765 C   0  0  0  0  0  0  0  0  0  0  0  0
   25.4952  -20.8036  -10.1464 N   0  0  0  0  0  0  0  0  0  0  0  0
   25.5656  -21.1781  -12.4566 N   0  0  0  0  0  0  0  0  0  0  0  0
   26.2693  -21.0429  -13.7073 C   0  0  0  0  0  0  0  0  0  0  0  0
   25.4080  -20.3650  -14.7810 C   0  0  0  0  0  0  0  0  0  0  0  0
   25.1766  -18.9641  -14.3040 C   0  0  0  0  0  0  0  0  0  0  0  0
   24.3787  -18.0959  -15.2046 C   0  0  2  0  0  0  0  0  0  0  0  0
   23.1911  -18.6701  -15.7392 N   0  0  0  0  0  0  0  0  0  0  0  0
   25.3179  -17.6391  -16.2934 C   0  0  0  0  0  0  0  0  0  0  0  0
   25.1693  -18.1269  -17.4345 O   0  0  0  0  0  0  0  0  0  0  0  0
   24.6318  -21.3770  -10.1063 C   0  0  0  0  0  0  0  0  0  0  0  0
   29.5630  -19.7494  -18.4987 S   0  0  0  0  0  0  0  0  0  0  0  0
   29.0625  -18.6544  -19.8791 C   0  0  0  0  0  0  0  0  0  0  0  0
   28.3998  -17.1099  -19.1490 C   0  0  0  0  0  0  0  0  0  0  0  0
   27.7012  -17.4756  -17.8933 C   0  0  1  0  0  0  0  0  0  0  0  0
   27.1381  -16.2489  -17.2151 N   0  0  0  0  0  0  0  0  0  0  0  0
   26.3305  -16.7010  -16.0574 C   0  0  0  0  0  0  0  0  0  0  0  0
   26.2603  -15.5349  -18.1736 O   0  0  0  0  0  0  0  0  0  0  0  0
   25.1827  -16.0777  -18.8313 O   0  0  0  0  0  0  0  0  0  0  0  0
  2  7  1  0
  2  1  1  6
  3  2  1  0
  4  3  1  0
  4  5  1  0
  5  6  2  0
  5  9  1  0
  7  8  2  0
 10 11  1  0
 11 13  1  0
 12 11  2  0
 13 14  1  0
 14 15  1  0
 15 16  1  0
 17 19  1  0
 17 16  1  6
 18 17  1  0
 18  7  1  0
 19 26  1  0
 19 20  2  0
 22 21  1  0
 23 24  1  0
 23 22  1  0
 25 24  1  1
 26 25  1  0
 27 28  1  0
 27 25  1  0
 29 27  2  0
M  END
$$$$
