ERM.pdb
     RDKit          3D

 29 28  0  0  1  0  0  0  0  0999 V2000
   19.1683  -27.8833  -11.5997 N   0  0  0  0  0  0  0  0  0  0  0  0
   19.2115  -27.2524  -12.8669 C   0  0  1  0  0  0  0  0  0  0  0  0
   17.9449  -26.7101  -13.4186 C   0  0  0  0  0  0  0  0  0  0  0  0
   17.3629  -27.4017  -14.5944 C   0  0  0  0  0  0  0  0  0  0  0  0
   17.5448  -28.8424  -14.5825 C   0  0  0  0  0  0  0  0  0  0  0  0
   18.1719  -29.3588  -13.6170 O   0  0  0  0  0  0  0  0  0  0  0  0
   20.2863  -26.1956  -12.8037 C   0  0  0  0  0  0  0  0  0  0  0  0
   20.3370  -25.3465  -11.8616 O   0  0  0  0  0  0  0  0  0  0  0  0
   17.0576  -29.6570  -15.5790 O   0  0  0  0  0  0  0  0  0  0  0  0
   25.2077  -22.2132  -17.0946 N   0  0  0  0  0  0  0  0  0  0  0  0
   26.4894  -22.5808  -16.5442 C   0  0  0  0  0  0  0  0  0  0  0  0
   27.4870  -21.7658  -16.6367 N   0  0  0  0  0  0  0  0  0  0  0  0
   26.6462  -23.8272  -15.9117 N   0  0  0  0  0  0  0  0  0  0  0  0
   25.5358  -24.7407  -15.8097 C   0  0  0  0  0  0  0  0  0  0  0  0
   24.5122  -24.2863  -14.7610 C   0  0  0  0  0  0  0  0  0  0  0  0
   23.4449  -25.3370  -14.7403 C   0  0  0  0  0  0  0  0  0  0  0  0
   22.3084  -25.0889  -13.8194 C   0  0  2  0  0  0  0  0  0  0  0  0
   21.2968  -26.0897  -13.7876 N   0  0  0  0  0  0  0  0  0  0  0  0
   21.7477  -23.7391  -14.1934 C   0  0  0  0  0  0  0  0  0  0  0  0
   21.0646  -23.6600  -15.2371 O   0  0  0  0  0  0  0  0  0  0  0  0
   28.3760  -21.9825  -16.1481 C   0  0  0  0  0  0  0  0  0  0  0  0
   21.0212  -19.2670  -10.0074 S   0  0  0  0  0  0  0  0  0  0  0  0
   20.2599  -18.2745  -11.3454 C   0  0  0  0  0  0  0  0  0  0  0  0
   20.4355  -19.2199  -12.9052 C   0  0  0  0  0  0  0  0  0  0  0  0
   21.1180  -20.4950  -12.5780 C   0  0  2  0  0  0  0  0  0  0  0  0
   21.2984  -21.3409  -13.8165 N   0  0  0  0  0  0  0  0  0  0  0  0
   21.9721  -22.5980  -13.4132 C   0  0  0  0  0  0  0  0  0  0  0  0
   22.1636  -20.6082  -14.7723 O   0  0  0  0  0  0  0  0  0  0  0  0
   23.4894  -20.8729  -15.0187 O   0  0  0  0  0  0  0  0  0  0  0  0
  2  7  1  0
  2  1  1  1
  3  2  1  0
  4  3  1  0
  4  5  1  0
  5  6  2  0
  5  9  1  0
  7  8  2  0
 10 11  1  0
 11 13  1  0
 12 11  2  0
 13 14  1  0
 14 15  1  0
 15 16  1  0
 17 19  1  0
 17 16  1  6
 18 17  1  0
 18  7  1  0
 19 26  1  0
 19 20  2  0
 22 21  1  0
 23 24  1  0
 23 22  1  0
 25 24  1  1
 26 25  1  0
 27 28  1  0
 27 25  1  0
 29 27  2  0
M  END
$$$$
