ERM.pdb
     RDKit          3D

 29 28  0  0  1  0  0  0  0  0999 V2000
   22.4159  -19.5133  -17.8161 N   0  0  0  0  0  0  0  0  0  0  0  0
   22.9240  -18.7131  -16.7639 C   0  0  1  0  0  0  0  0  0  0  0  0
   21.9515  -18.0782  -15.8397 C   0  0  0  0  0  0  0  0  0  0  0  0
   21.0932  -17.0009  -16.3894 C   0  0  0  0  0  0  0  0  0  0  0  0
   19.6725  -17.2081  -16.1717 C   0  0  0  0  0  0  0  0  0  0  0  0
   19.3162  -18.0787  -15.3308 O   0  0  0  0  0  0  0  0  0  0  0  0
   23.9360  -19.5463  -16.0171 C   0  0  0  0  0  0  0  0  0  0  0  0
   23.6769  -20.7263  -15.6280 O   0  0  0  0  0  0  0  0  0  0  0  0
   18.7095  -16.4907  -16.8439 O   0  0  0  0  0  0  0  0  0  0  0  0
   30.0353  -23.8711  -16.1444 N   0  0  0  0  0  0  0  0  0  0  0  0
   29.6425  -23.2743  -17.3975 C   0  0  0  0  0  0  0  0  0  0  0  0
   29.7010  -23.9666  -18.4862 N   0  0  0  0  0  0  0  0  0  0  0  0
   29.2003  -21.9395  -17.4269 N   0  0  0  0  0  0  0  0  0  0  0  0
   28.6097  -21.3385  -16.2575 C   0  0  0  0  0  0  0  0  0  0  0  0
   28.2185  -19.8747  -16.4989 C   0  0  0  0  0  0  0  0  0  0  0  0
   27.6241  -19.3865  -15.2136 C   0  0  0  0  0  0  0  0  0  0  0  0
   26.2132  -19.7716  -14.9641 C   0  0  2  0  0  0  0  0  0  0  0  0
   25.2285  -19.0623  -15.7079 N   0  0  0  0  0  0  0  0  0  0  0  0
   25.9947  -19.6374  -13.4773 C   0  0  0  0  0  0  0  0  0  0  0  0
   25.7746  -18.4949  -13.0208 O   0  0  0  0  0  0  0  0  0  0  0  0
   29.4557  -23.5241  -19.3917 C   0  0  0  0  0  0  0  0  0  0  0  0
   21.2991  -20.0800  -11.8134 S   0  0  0  0  0  0  0  0  0  0  0  0
   21.7400  -19.8344  -10.0526 C   0  0  0  0  0  0  0  0  0  0  0  0
   23.5481  -20.0849   -9.8939 C   0  0  0  0  0  0  0  0  0  0  0  0
   24.1037  -20.1963  -11.2643 C   0  0  1  0  0  0  0  0  0  0  0  0
   25.5722  -20.5477  -11.2216 N   0  0  0  0  0  0  0  0  0  0  0  0
   26.0329  -20.7418  -12.6169 C   0  0  0  0  0  0  0  0  0  0  0  0
   25.7371  -21.8167  -10.4720 O   0  0  0  0  0  0  0  0  0  0  0  0
   25.8436  -21.9333   -9.1069 O   0  0  0  0  0  0  0  0  0  0  0  0
  2  7  1  0
  2  1  1  6
  3  2  1  0
  4  3  1  0
  4  5  1  0
  5  6  2  0
  5  9  1  0
  7  8  2  0
 10 11  1  0
 11 13  1  0
 12 11  2  0
 13 14  1  0
 14 15  1  0
 15 16  1  0
 17 19  1  0
 17 16  1  1
 18 17  1  0
 18  7  1  0
 19 26  1  0
 19 20  2  0
 22 21  1  0
 23 24  1  0
 23 22  1  0
 25 24  1  6
 26 25  1  0
 27 28  1  0
 27 25  1  0
 29 27  2  0
M  END
$$$$
