ERM.pdb
     RDKit          3D

 29 28  0  0  1  0  0  0  0  0999 V2000
   15.7698  -10.9198  -14.4730 N   0  0  0  0  0  0  0  0  0  0  0  0
   16.7057  -10.5882  -13.4632 C   0  0  1  0  0  0  0  0  0  0  0  0
   18.0759  -10.2020  -13.8830 C   0  0  0  0  0  0  0  0  0  0  0  0
   18.8938  -11.2320  -14.5684 C   0  0  0  0  0  0  0  0  0  0  0  0
   18.7782  -11.2116  -16.0158 C   0  0  0  0  0  0  0  0  0  0  0  0
   18.7415  -10.0928  -16.5979 O   0  0  0  0  0  0  0  0  0  0  0  0
   16.0717   -9.5283  -12.5968 C   0  0  0  0  0  0  0  0  0  0  0  0
   15.4262   -8.5545  -13.0930 O   0  0  0  0  0  0  0  0  0  0  0  0
   18.7110  -12.3621  -16.7680 O   0  0  0  0  0  0  0  0  0  0  0  0
   10.8426   -7.9891   -8.6170 N   0  0  0  0  0  0  0  0  0  0  0  0
   10.4639   -9.3716   -8.4562 C   0  0  0  0  0  0  0  0  0  0  0  0
    9.2198   -9.7106   -8.5295 N   0  0  0  0  0  0  0  0  0  0  0  0
   11.4524  -10.3431   -8.2174 N   0  0  0  0  0  0  0  0  0  0  0  0
   12.8365   -9.9622   -8.0883 C   0  0  0  0  0  0  0  0  0  0  0  0
   13.3698   -9.2933   -9.3621 C   0  0  0  0  0  0  0  0  0  0  0  0
   14.8408   -9.1083   -9.1490 C   0  0  0  0  0  0  0  0  0  0  0  0
   15.6032   -8.5841  -10.3090 C   0  0  2  0  0  0  0  0  0  0  0  0
   16.1596   -9.5578  -11.1855 N   0  0  0  0  0  0  0  0  0  0  0  0
   16.6627   -7.6722   -9.7416 C   0  0  0  0  0  0  0  0  0  0  0  0
   17.6889   -8.1989   -9.2601 O   0  0  0  0  0  0  0  0  0  0  0  0
    8.9495  -10.7054   -8.4145 C   0  0  0  0  0  0  0  0  0  0  0  0
   22.7707   -4.8447  -11.4585 S   0  0  0  0  0  0  0  0  0  0  0  0
   21.1500   -5.6414  -11.7645 C   0  0  0  0  0  0  0  0  0  0  0  0
   19.9994   -5.0779  -10.4545 C   0  0  0  0  0  0  0  0  0  0  0  0
   18.7548   -5.8738  -10.5832 C   0  0  1  0  0  0  0  0  0  0  0  0
   17.7434   -5.4616   -9.5397 N   0  0  0  0  0  0  0  0  0  0  0  0
   16.5236   -6.2787   -9.7425 C   0  0  0  0  0  0  0  0  0  0  0  0
   17.4106   -4.0300   -9.7375 O   0  0  0  0  0  0  0  0  0  0  0  0
   18.0042   -2.9724   -9.0914 O   0  0  0  0  0  0  0  0  0  0  0  0
  2  7  1  0
  2  1  1  6
  3  2  1  0
  4  3  1  0
  4  5  1  0
  5  6  2  0
  5  9  1  0
  7  8  2  0
 10 11  1  0
 11 13  1  0
 12 11  2  0
 13 14  1  0
 14 15  1  0
 15 16  1  0
 17 19  1  0
 17 16  1  1
 18 17  1  0
 18  7  1  0
 19 26  1  0
 19 20  2  0
 22 21  1  0
 23 24  1  0
 23 22  1  0
 25 24  1  1
 26 25  1  0
 27 28  1  0
 27 25  1  0
 29 27  2  0
M  END
$$$$
