ERM.pdb
     RDKit          3D

 29 28  0  0  1  0  0  0  0  0999 V2000
   28.7646  -18.5822  -16.3645 N   0  0  0  0  0  0  0  0  0  0  0  0
   27.6920  -19.4737  -16.6100 C   0  0  1  0  0  0  0  0  0  0  0  0
   28.0199  -20.8760  -16.9690 C   0  0  0  0  0  0  0  0  0  0  0  0
   29.3393  -21.3985  -16.5380 C   0  0  0  0  0  0  0  0  0  0  0  0
   29.5449  -22.8044  -16.8378 C   0  0  0  0  0  0  0  0  0  0  0  0
   30.6050  -23.3547  -16.4310 O   0  0  0  0  0  0  0  0  0  0  0  0
   26.7732  -19.4075  -15.4153 C   0  0  0  0  0  0  0  0  0  0  0  0
   27.1365  -18.8823  -14.3184 O   0  0  0  0  0  0  0  0  0  0  0  0
   28.6287  -23.5515  -17.5424 O   0  0  0  0  0  0  0  0  0  0  0  0
   20.5533  -23.3404  -14.8282 N   0  0  0  0  0  0  0  0  0  0  0  0
   19.8813  -22.8063  -13.6689 C   0  0  0  0  0  0  0  0  0  0  0  0
   19.0754  -23.5539  -12.9910 N   0  0  0  0  0  0  0  0  0  0  0  0
   20.1059  -21.4721  -13.2847 N   0  0  0  0  0  0  0  0  0  0  0  0
   20.7844  -20.5599  -14.1707 C   0  0  0  0  0  0  0  0  0  0  0  0
   22.1292  -20.0947  -13.5969 C   0  0  0  0  0  0  0  0  0  0  0  0
   23.1295  -20.2568  -14.6999 C   0  0  0  0  0  0  0  0  0  0  0  0
   24.5196  -19.8486  -14.3799 C   0  0  2  0  0  0  0  0  0  0  0  0
   25.4575  -19.9254  -15.4479 N   0  0  0  0  0  0  0  0  0  0  0  0
   24.9458  -20.6870  -13.2003 C   0  0  0  0  0  0  0  0  0  0  0  0
   25.5650  -21.7478  -13.4319 O   0  0  0  0  0  0  0  0  0  0  0  0
   18.5745  -23.1610  -12.1721 C   0  0  0  0  0  0  0  0  0  0  0  0
   29.7024  -21.8106  -11.8418 S   0  0  0  0  0  0  0  0  0  0  0  0
   29.3579  -21.2350  -10.1373 C   0  0  0  0  0  0  0  0  0  0  0  0
   27.5689  -21.4754   -9.8223 C   0  0  0  0  0  0  0  0  0  0  0  0
   26.8323  -20.8772  -10.9618 C   0  0  1  0  0  0  0  0  0  0  0  0
   25.3421  -21.0567  -10.7916 N   0  0  0  0  0  0  0  0  0  0  0  0
   24.6680  -20.3103  -11.8804 C   0  0  0  0  0  0  0  0  0  0  0  0
   24.9390  -20.4835   -9.4846 O   0  0  0  0  0  0  0  0  0  0  0  0
   25.1070  -21.0841   -8.2600 O   0  0  0  0  0  0  0  0  0  0  0  0
  2  7  1  0
  2  1  1  1
  3  2  1  0
  4  3  1  0
  4  5  1  0
  5  6  2  0
  5  9  1  0
  7  8  2  0
 10 11  1  0
 11 13  1  0
 12 11  2  0
 13 14  1  0
 14 15  1  0
 15 16  1  0
 17 19  1  0
 17 16  1  6
 18 17  1  0
 18  7  1  0
 19 26  1  0
 19 20  2  0
 22 21  1  0
 23 24  1  0
 23 22  1  0
 25 24  1  6
 26 25  1  0
 27 28  1  0
 27 25  1  0
 29 27  2  0
M  END
$$$$
