ERM.pdb
     RDKit          3D

 29 28  0  0  1  0  0  0  0  0999 V2000
   21.5016  -19.8181  -13.0959 N   0  0  0  0  0  0  0  0  0  0  0  0
   21.3534  -20.7389  -12.0301 C   0  0  1  0  0  0  0  0  0  0  0  0
   20.5124  -21.9402  -12.2593 C   0  0  0  0  0  0  0  0  0  0  0  0
   19.2979  -21.7721  -13.0937 C   0  0  0  0  0  0  0  0  0  0  0  0
   18.1382  -21.2962  -12.3605 C   0  0  0  0  0  0  0  0  0  0  0  0
   17.6780  -22.0182  -11.4338 O   0  0  0  0  0  0  0  0  0  0  0  0
   22.7394  -21.1127  -11.5662 C   0  0  0  0  0  0  0  0  0  0  0  0
   22.9353  -22.0267  -10.7077 O   0  0  0  0  0  0  0  0  0  0  0  0
   17.5311  -20.0928  -12.6382 O   0  0  0  0  0  0  0  0  0  0  0  0
   27.4945  -22.5044  -15.5582 N   0  0  0  0  0  0  0  0  0  0  0  0
   28.8879  -22.3820  -15.2058 C   0  0  0  0  0  0  0  0  0  0  0  0
   29.7448  -23.2321  -15.6654 N   0  0  0  0  0  0  0  0  0  0  0  0
   29.3054  -21.3382  -14.3607 N   0  0  0  0  0  0  0  0  0  0  0  0
   28.3402  -20.4485  -13.7653 C   0  0  0  0  0  0  0  0  0  0  0  0
   27.1617  -21.2106  -13.1454 C   0  0  0  0  0  0  0  0  0  0  0  0
   26.3152  -20.1811  -12.4618 C   0  0  0  0  0  0  0  0  0  0  0  0
   25.2249  -20.7047  -11.6025 C   0  0  2  0  0  0  0  0  0  0  0  0
   23.8977  -20.4680  -12.0593 N   0  0  0  0  0  0  0  0  0  0  0  0
   25.4545  -20.1261  -10.2282 C   0  0  0  0  0  0  0  0  0  0  0  0
   25.1501  -18.9283  -10.0412 O   0  0  0  0  0  0  0  0  0  0  0  0
   30.7322  -23.1894  -15.3505 C   0  0  0  0  0  0  0  0  0  0  0  0
   30.3530  -21.8432   -6.3207 S   0  0  0  0  0  0  0  0  0  0  0  0
   28.9863  -21.5700   -5.1322 C   0  0  0  0  0  0  0  0  0  0  0  0
   27.7824  -20.4373   -5.9230 C   0  0  0  0  0  0  0  0  0  0  0  0
   27.2779  -21.1076   -7.1457 C   0  0  1  0  0  0  0  0  0  0  0  0
   26.4081  -20.1715   -7.9513 N   0  0  0  0  0  0  0  0  0  0  0  0
   25.9902  -20.8860   -9.1808 C   0  0  0  0  0  0  0  0  0  0  0  0
   27.2090  -18.9811   -8.3268 O   0  0  0  0  0  0  0  0  0  0  0  0
   28.0508  -18.8903   -9.4091 O   0  0  0  0  0  0  0  0  0  0  0  0
  2  7  1  0
  2  1  1  6
  3  2  1  0
  4  3  1  0
  4  5  1  0
  5  6  2  0
  5  9  1  0
  7  8  2  0
 10 11  1  0
 11 13  1  0
 12 11  2  0
 13 14  1  0
 14 15  1  0
 15 16  1  0
 17 19  1  0
 17 16  1  6
 18 17  1  0
 18  7  1  0
 19 26  1  0
 19 20  2  0
 22 21  1  0
 23 24  1  0
 23 22  1  0
 25 24  1  1
 26 25  1  0
 27 28  1  0
 27 25  1  0
 29 27  2  0
M  END
$$$$
