ERM.pdb
     RDKit          3D

 29 28  0  0  1  0  0  0  0  0999 V2000
   27.1221  -21.4706  -15.4931 N   0  0  0  0  0  0  0  0  0  0  0  0
   27.7892  -20.3779  -14.8878 C   0  0  1  0  0  0  0  0  0  0  0  0
   28.1678  -19.2295  -15.7484 C   0  0  0  0  0  0  0  0  0  0  0  0
   27.4168  -19.0509  -17.0148 C   0  0  0  0  0  0  0  0  0  0  0  0
   28.2353  -19.1669  -18.2087 C   0  0  0  0  0  0  0  0  0  0  0  0
   29.4846  -19.0325  -18.0937 O   0  0  0  0  0  0  0  0  0  0  0  0
   26.9515  -19.9379  -13.7128 C   0  0  0  0  0  0  0  0  0  0  0  0
   27.2655  -18.9325  -13.0046 O   0  0  0  0  0  0  0  0  0  0  0  0
   27.6989  -19.4193  -19.4507 O   0  0  0  0  0  0  0  0  0  0  0  0
   19.8404  -22.6416  -13.0496 N   0  0  0  0  0  0  0  0  0  0  0  0
   19.9495  -22.4925  -11.6190 C   0  0  0  0  0  0  0  0  0  0  0  0
   19.4923  -23.4149  -10.8392 N   0  0  0  0  0  0  0  0  0  0  0  0
   20.5514  -21.3409  -11.0809 N   0  0  0  0  0  0  0  0  0  0  0  0
   21.0966  -20.3270  -11.9483 C   0  0  0  0  0  0  0  0  0  0  0  0
   22.5037  -19.8955  -11.5147 C   0  0  0  0  0  0  0  0  0  0  0  0
   23.4469  -20.4913  -12.5143 C   0  0  0  0  0  0  0  0  0  0  0  0
   24.8870  -20.2091  -12.2952 C   0  0  2  0  0  0  0  0  0  0  0  0
   25.7712  -20.6183  -13.3329 N   0  0  0  0  0  0  0  0  0  0  0  0
   25.2457  -20.8418  -10.9734 C   0  0  0  0  0  0  0  0  0  0  0  0
   25.5239  -22.0603  -10.9662 O   0  0  0  0  0  0  0  0  0  0  0  0
   19.5787  -23.3096   -9.8110 C   0  0  0  0  0  0  0  0  0  0  0  0
   28.2566  -19.9278   -3.8506 S   0  0  0  0  0  0  0  0  0  0  0  0
   27.7249  -19.1563   -5.4245 C   0  0  0  0  0  0  0  0  0  0  0  0
   26.8026  -20.4206   -6.3776 C   0  0  0  0  0  0  0  0  0  0  0  0
   26.4403  -19.8170   -7.6827 C   0  0  1  0  0  0  0  0  0  0  0  0
   25.6999  -20.8104   -8.5468 N   0  0  0  0  0  0  0  0  0  0  0  0
   25.2726  -20.1087   -9.7805 C   0  0  0  0  0  0  0  0  0  0  0  0
   24.5005  -21.2804   -7.8121 O   0  0  0  0  0  0  0  0  0  0  0  0
   24.5003  -22.1637   -6.7594 O   0  0  0  0  0  0  0  0  0  0  0  0
  2  7  1  0
  2  1  1  6
  3  2  1  0
  4  3  1  0
  4  5  1  0
  5  6  2  0
  5  9  1  0
  7  8  2  0
 10 11  1  0
 11 13  1  0
 12 11  2  0
 13 14  1  0
 14 15  1  0
 15 16  1  0
 17 19  1  0
 17 16  1  6
 18 17  1  0
 18  7  1  0
 19 26  1  0
 19 20  2  0
 22 21  1  0
 23 24  1  0
 23 22  1  0
 25 24  1  6
 26 25  1  0
 27 28  1  0
 27 25  1  0
 29 27  2  0
M  END
$$$$
