ERM.pdb
     RDKit          3D

 29 28  0  0  1  0  0  0  0  0999 V2000
   24.6470  -20.7515   -9.0216 N   0  0  0  0  0  0  0  0  0  0  0  0
   24.8848  -21.2043  -10.3422 C   0  0  1  0  0  0  0  0  0  0  0  0
   23.7115  -21.4336  -11.2218 C   0  0  0  0  0  0  0  0  0  0  0  0
   22.5726  -20.4919  -11.0972 C   0  0  0  0  0  0  0  0  0  0  0  0
   21.4949  -20.7397  -12.0384 C   0  0  0  0  0  0  0  0  0  0  0  0
   21.2632  -19.8725  -12.9252 O   0  0  0  0  0  0  0  0  0  0  0  0
   25.8713  -20.2516  -10.9707 C   0  0  0  0  0  0  0  0  0  0  0  0
   25.8206  -19.0005  -10.7630 O   0  0  0  0  0  0  0  0  0  0  0  0
   20.7261  -21.8804  -11.9981 O   0  0  0  0  0  0  0  0  0  0  0  0
   32.6691  -22.8197   -9.8352 N   0  0  0  0  0  0  0  0  0  0  0  0
   32.7163  -23.1631  -11.2355 C   0  0  0  0  0  0  0  0  0  0  0  0
   33.6670  -23.9148  -11.6819 N   0  0  0  0  0  0  0  0  0  0  0  0
   31.7274  -22.6745  -12.1080 N   0  0  0  0  0  0  0  0  0  0  0  0
   30.8799  -21.5777  -11.7125 C   0  0  0  0  0  0  0  0  0  0  0  0
   29.8589  -21.2190  -12.8003 C   0  0  0  0  0  0  0  0  0  0  0  0
   29.2003  -19.9515  -12.3496 C   0  0  0  0  0  0  0  0  0  0  0  0
   27.7428  -19.8505  -12.6083 C   0  0  2  0  0  0  0  0  0  0  0  0
   26.9068  -20.6957  -11.8256 N   0  0  0  0  0  0  0  0  0  0  0  0
   27.5576  -20.0940  -14.0857 C   0  0  0  0  0  0  0  0  0  0  0  0
   26.8999  -21.0984  -14.4334 O   0  0  0  0  0  0  0  0  0  0  0  0
   33.7181  -24.1336  -12.6945 C   0  0  0  0  0  0  0  0  0  0  0  0
   23.4257  -14.6264  -16.0753 S   0  0  0  0  0  0  0  0  0  0  0  0
   24.6205  -15.5199  -15.0127 C   0  0  0  0  0  0  0  0  0  0  0  0
   25.4165  -16.8122  -16.0392 C   0  0  0  0  0  0  0  0  0  0  0  0
   26.4029  -17.5149  -15.1836 C   0  0  2  0  0  0  0  0  0  0  0  0
   27.1546  -18.5582  -15.9763 N   0  0  0  0  0  0  0  0  0  0  0  0
   28.0956  -19.2375  -15.0543 C   0  0  0  0  0  0  0  0  0  0  0  0
   27.9244  -17.8802  -17.0472 O   0  0  0  0  0  0  0  0  0  0  0  0
   27.5733  -17.8251  -18.3747 O   0  0  0  0  0  0  0  0  0  0  0  0
  2  7  1  0
  2  1  1  1
  3  2  1  0
  4  3  1  0
  4  5  1  0
  5  6  2  0
  5  9  1  0
  7  8  2  0
 10 11  1  0
 11 13  1  0
 12 11  2  0
 13 14  1  0
 14 15  1  0
 15 16  1  0
 17 19  1  0
 17 16  1  1
 18 17  1  0
 18  7  1  0
 19 26  1  0
 19 20  2  0
 22 21  1  0
 23 24  1  0
 23 22  1  0
 25 24  1  1
 26 25  1  0
 27 28  1  0
 27 25  1  0
 29 27  2  0
M  END
$$$$
