YLN.pdb
     RDKit          3D

 29 29  0  0  1  0  0  0  0  0999 V2000
    7.0257  -13.5228   16.2073 O   0  0  0  0  0  0  0  0  0  0  0  0
    7.6845  -13.7109   17.4267 C   0  0  0  0  0  0  0  0  0  0  0  0
    8.3289  -14.9016   17.7118 C   0  0  0  0  0  0  0  0  0  0  0  0
    8.9713  -15.0540   18.9289 C   0  0  0  0  0  0  0  0  0  0  0  0
    8.9697  -14.0256   19.8533 C   0  0  0  0  0  0  0  0  0  0  0  0
    9.6504  -14.1716   21.1585 C   0  0  0  0  0  0  0  0  0  0  0  0
    9.1680  -15.3765   21.9230 C   0  0  2  0  0  0  0  0  0  0  0  0
    7.7575  -15.5400   21.7666 N   0  0  0  0  0  0  0  0  0  0  0  0
    9.4550  -15.1198   23.3809 C   0  0  0  0  0  0  0  0  0  0  0  0
   10.6460  -14.9463   23.7347 O   0  0  0  0  0  0  0  0  0  0  0  0
    8.3249  -12.8450   19.5583 C   0  0  0  0  0  0  0  0  0  0  0  0
    7.6729  -12.6735   18.3379 C   0  0  0  0  0  0  0  0  0  0  0  0
    5.6034  -12.4296   26.2869 C   0  0  0  0  0  0  0  0  0  0  0  0
    6.9440  -12.9752   25.7889 C   0  0  1  0  0  0  0  0  0  0  0  0
    7.9857  -12.0277   26.4091 C   0  0  0  0  0  0  0  0  0  0  0  0
    7.1512  -14.3711   26.2559 C   0  0  0  0  0  0  0  0  0  0  0  0
    8.4039  -15.0014   25.6683 C   0  0  2  0  0  0  0  0  0  0  0  0
    8.3617  -15.0935   24.2421 N   0  0  0  0  0  0  0  0  0  0  0  0
    8.8463  -16.1925   26.3769 C   0  0  0  0  0  0  0  0  0  0  0  0
    8.9630  -16.1950   27.6555 O   0  0  0  0  0  0  0  0  0  0  0  0
   10.3754  -20.9077   27.6720 N   0  0  0  0  0  0  0  0  0  0  0  0
   10.1168  -20.9829   26.2595 C   0  0  0  0  0  0  0  0  0  0  0  0
   10.3095  -22.1049   25.7454 O   0  0  0  0  0  0  0  0  0  0  0  0
    9.6596  -19.7748   25.5442 C   0  0  0  0  0  0  0  0  0  0  0  0
    9.6431  -18.5830   26.4326 C   0  0  2  0  0  0  0  0  0  0  0  0
    9.1680  -17.3908   25.7344 N   0  0  0  0  0  0  0  0  0  0  0  0
   11.0616  -18.2504   26.8080 C   0  0  0  0  0  0  0  0  0  0  0  0
   11.8660  -17.6799   26.0635 O   0  0  0  0  0  0  0  0  0  0  0  0
   11.5546  -18.5919   28.0849 O   0  0  0  0  0  0  0  0  0  0  0  0
  2  3  2  0
  2  1  1  0
  4  3  1  0
  5  4  2  0
  6  5  1  0
  6  7  1  0
  7  8  1  1
  9  7  1  0
  9 18  1  0
 10  9  2  0
 11  5  1  0
 11 12  2  0
 12  2  1  0
 14 13  1  1
 14 15  1  0
 16 14  1  0
 17 16  1  1
 17 18  1  0
 19 17  1  0
 20 19  2  0
 21 22  1  0
 22 24  1  0
 23 22  2  0
 25 24  1  6
 25 26  1  0
 25 27  1  0
 26 19  1  0
 27 29  1  0
 28 27  2  0
M  END
$$$$
