YLN.pdb
     RDKit          3D

 29 29  0  0  1  0  0  0  0  0999 V2000
   12.4659  -22.7050   13.5882 O   0  0  0  0  0  0  0  0  0  0  0  0
   12.2991  -21.6081   14.4399 C   0  0  0  0  0  0  0  0  0  0  0  0
   11.0596  -21.3024   14.9733 C   0  0  0  0  0  0  0  0  0  0  0  0
   10.9302  -20.2091   15.8130 C   0  0  0  0  0  0  0  0  0  0  0  0
   12.0298  -19.4278   16.1172 C   0  0  0  0  0  0  0  0  0  0  0  0
   11.9095  -18.2561   17.0120 C   0  0  0  0  0  0  0  0  0  0  0  0
   11.2403  -17.0876   16.3365 C   0  0  2  0  0  0  0  0  0  0  0  0
   12.0060  -16.6502   15.2127 N   0  0  0  0  0  0  0  0  0  0  0  0
   11.1916  -15.9641   17.3411 C   0  0  0  0  0  0  0  0  0  0  0  0
   12.2197  -15.2645   17.5066 O   0  0  0  0  0  0  0  0  0  0  0  0
   13.2586  -19.7419   15.5803 C   0  0  0  0  0  0  0  0  0  0  0  0
   13.4079  -20.8390   14.7329 C   0  0  0  0  0  0  0  0  0  0  0  0
    8.4281  -12.1691   20.0264 C   0  0  0  0  0  0  0  0  0  0  0  0
    8.0259  -13.6003   20.3910 C   0  0  1  0  0  0  0  0  0  0  0  0
    6.5215  -13.4983   20.6972 C   0  0  0  0  0  0  0  0  0  0  0  0
    8.2750  -14.5239   19.2533 C   0  0  0  0  0  0  0  0  0  0  0  0
    9.7493  -14.8563   19.0856 C   0  0  2  0  0  0  0  0  0  0  0  0
    9.9918  -15.7814   18.0227 N   0  0  0  0  0  0  0  0  0  0  0  0
   10.4341  -15.1249   20.3407 C   0  0  0  0  0  0  0  0  0  0  0  0
   10.3837  -14.2877   21.3128 O   0  0  0  0  0  0  0  0  0  0  0  0
    9.4545  -19.2708   22.0850 N   0  0  0  0  0  0  0  0  0  0  0  0
   10.3224  -18.3489   22.7668 C   0  0  0  0  0  0  0  0  0  0  0  0
    9.8580  -17.8663   23.8212 O   0  0  0  0  0  0  0  0  0  0  0  0
   11.6499  -18.0495   22.1941 C   0  0  0  0  0  0  0  0  0  0  0  0
   11.7924  -16.6080   21.8599 C   0  0  2  0  0  0  0  0  0  0  0  0
   11.1780  -16.2844   20.5746 N   0  0  0  0  0  0  0  0  0  0  0  0
   13.2529  -16.3093   21.6567 C   0  0  0  0  0  0  0  0  0  0  0  0
   14.1195  -16.4338   22.5286 O   0  0  0  0  0  0  0  0  0  0  0  0
   13.7147  -15.8539   20.4039 O   0  0  0  0  0  0  0  0  0  0  0  0
  2  3  2  0
  2  1  1  0
  4  3  1  0
  5  4  2  0
  6  5  1  0
  6  7  1  0
  7  8  1  6
  9  7  1  0
  9 18  1  0
 10  9  2  0
 11  5  1  0
 11 12  2  0
 12  2  1  0
 14 13  1  6
 14 15  1  0
 16 14  1  0
 17 16  1  1
 17 18  1  0
 19 17  1  0
 20 19  2  0
 21 22  1  0
 22 24  1  0
 23 22  2  0
 25 24  1  6
 25 26  1  0
 25 27  1  0
 26 19  1  0
 27 29  1  0
 28 27  2  0
M  END
$$$$
