YLN.pdb
     RDKit          3D

 29 29  0  0  1  0  0  0  0  0999 V2000
    7.7098  -13.8130   15.9791 O   0  0  0  0  0  0  0  0  0  0  0  0
    8.0987  -13.8571   17.3219 C   0  0  0  0  0  0  0  0  0  0  0  0
    7.7558  -12.8411   18.1964 C   0  0  0  0  0  0  0  0  0  0  0  0
    8.1575  -12.9167   19.5194 C   0  0  0  0  0  0  0  0  0  0  0  0
    8.8953  -13.9981   19.9648 C   0  0  0  0  0  0  0  0  0  0  0  0
    9.3331  -14.0946   21.3745 C   0  0  0  0  0  0  0  0  0  0  0  0
    8.7767  -15.3133   22.0634 C   0  0  2  0  0  0  0  0  0  0  0  0
    7.3713  -15.4240   21.8326 N   0  0  0  0  0  0  0  0  0  0  0  0
    8.9991  -15.1255   23.5430 C   0  0  0  0  0  0  0  0  0  0  0  0
   10.1777  -15.0868   23.9707 O   0  0  0  0  0  0  0  0  0  0  0  0
    9.2307  -15.0032   19.0851 C   0  0  0  0  0  0  0  0  0  0  0  0
    8.8350  -14.9441   17.7494 C   0  0  0  0  0  0  0  0  0  0  0  0
    5.7488  -11.7253   26.2157 C   0  0  0  0  0  0  0  0  0  0  0  0
    6.9425  -12.5976   25.8193 C   0  0  1  0  0  0  0  0  0  0  0  0
    8.1376  -11.9401   26.5315 C   0  0  0  0  0  0  0  0  0  0  0  0
    6.7508  -13.9963   26.2845 C   0  0  0  0  0  0  0  0  0  0  0  0
    7.8296  -14.9346   25.7672 C   0  0  2  0  0  0  0  0  0  0  0  0
    7.8637  -15.0070   24.3396 N   0  0  0  0  0  0  0  0  0  0  0  0
    7.8904  -16.2030   26.4771 C   0  0  0  0  0  0  0  0  0  0  0  0
    7.8470  -16.2447   27.7595 O   0  0  0  0  0  0  0  0  0  0  0  0
    6.5210  -22.0483   26.0515 N   0  0  0  0  0  0  0  0  0  0  0  0
    6.9001  -20.8881   26.8118 C   0  0  0  0  0  0  0  0  0  0  0  0
    7.2642  -21.1196   27.9841 O   0  0  0  0  0  0  0  0  0  0  0  0
    6.8345  -19.5565   26.1774 C   0  0  0  0  0  0  0  0  0  0  0  0
    8.0112  -18.7200   26.5316 C   0  0  2  0  0  0  0  0  0  0  0  0
    7.9974  -17.4377   25.8316 N   0  0  0  0  0  0  0  0  0  0  0  0
    9.2511  -19.4045   26.0238 C   0  0  0  0  0  0  0  0  0  0  0  0
    9.3957  -19.8225   24.8701 O   0  0  0  0  0  0  0  0  0  0  0  0
   10.3509  -19.6066   26.8839 O   0  0  0  0  0  0  0  0  0  0  0  0
  2  3  2  0
  2  1  1  0
  4  3  1  0
  5  4  2  0
  6  5  1  0
  6  7  1  0
  7  8  1  1
  9  7  1  0
  9 18  1  0
 10  9  2  0
 11  5  1  0
 11 12  2  0
 12  2  1  0
 14 13  1  1
 14 15  1  0
 16 14  1  0
 17 16  1  6
 17 18  1  0
 19 17  1  0
 20 19  2  0
 21 22  1  0
 22 24  1  0
 23 22  2  0
 25 24  1  6
 25 26  1  0
 25 27  1  0
 26 19  1  0
 27 29  1  0
 28 27  2  0
M  END
$$$$
