YLN.pdb
     RDKit          3D

 29 29  0  0  1  0  0  0  0  0999 V2000
    7.4907  -13.7467   15.6776 O   0  0  0  0  0  0  0  0  0  0  0  0
    7.8090  -13.7590   17.0395 C   0  0  0  0  0  0  0  0  0  0  0  0
    8.0593  -14.9478   17.7017 C   0  0  0  0  0  0  0  0  0  0  0  0
    8.3715  -14.9235   19.0505 C   0  0  0  0  0  0  0  0  0  0  0  0
    8.4332  -13.7217   19.7318 C   0  0  0  0  0  0  0  0  0  0  0  0
    8.7647  -13.6774   21.1727 C   0  0  0  0  0  0  0  0  0  0  0  0
    8.9894  -15.0506   21.7499 C   0  0  2  0  0  0  0  0  0  0  0  0
    7.7877  -15.8212   21.6973 N   0  0  0  0  0  0  0  0  0  0  0  0
    9.3690  -14.8657   23.1975 C   0  0  0  0  0  0  0  0  0  0  0  0
   10.5280  -14.4677   23.4660 O   0  0  0  0  0  0  0  0  0  0  0  0
    8.1820  -12.5449   19.0620 C   0  0  0  0  0  0  0  0  0  0  0  0
    7.8661  -12.5499   17.7040 C   0  0  0  0  0  0  0  0  0  0  0  0
    5.8220  -12.4958   26.5067 C   0  0  0  0  0  0  0  0  0  0  0  0
    7.0964  -13.0440   25.8596 C   0  0  1  0  0  0  0  0  0  0  0  0
    8.2139  -12.1450   26.4169 C   0  0  0  0  0  0  0  0  0  0  0  0
    7.3146  -14.4630   26.2446 C   0  0  0  0  0  0  0  0  0  0  0  0
    8.5328  -15.0693   25.5661 C   0  0  2  0  0  0  0  0  0  0  0  0
    8.3917  -15.1541   24.1458 N   0  0  0  0  0  0  0  0  0  0  0  0
    9.0430  -16.2569   26.2337 C   0  0  0  0  0  0  0  0  0  0  0  0
    9.1743  -16.2917   27.5104 O   0  0  0  0  0  0  0  0  0  0  0  0
   11.9406  -19.6349   23.7667 N   0  0  0  0  0  0  0  0  0  0  0  0
   10.5352  -19.4213   23.9834 C   0  0  0  0  0  0  0  0  0  0  0  0
    9.9197  -18.9270   23.0152 O   0  0  0  0  0  0  0  0  0  0  0  0
    9.9419  -19.7872   25.2850 C   0  0  0  0  0  0  0  0  0  0  0  0
    9.8976  -18.6280   26.2145 C   0  0  2  0  0  0  0  0  0  0  0  0
    9.4177  -17.4176   25.5519 N   0  0  0  0  0  0  0  0  0  0  0  0
   11.3062  -18.2918   26.6226 C   0  0  0  0  0  0  0  0  0  0  0  0
   11.8774  -17.2299   26.3523 O   0  0  0  0  0  0  0  0  0  0  0  0
   12.0683  -19.2180   27.3651 O   0  0  0  0  0  0  0  0  0  0  0  0
  2  3  2  0
  2  1  1  0
  4  3  1  0
  5  4  2  0
  6  5  1  0
  6  7  1  0
  7  8  1  1
  9  7  1  0
  9 18  1  0
 10  9  2  0
 11  5  1  0
 11 12  2  0
 12  2  1  0
 14 13  1  1
 14 15  1  0
 16 14  1  0
 17 16  1  1
 17 18  1  0
 19 17  1  0
 20 19  2  0
 21 22  1  0
 22 24  1  0
 23 22  2  0
 25 24  1  6
 25 26  1  0
 25 27  1  0
 26 19  1  0
 27 29  1  0
 28 27  2  0
M  END
$$$$
