YLN.pdb
     RDKit          3D

 29 29  0  0  1  0  0  0  0  0999 V2000
    8.2211  -13.2455   15.5783 O   0  0  0  0  0  0  0  0  0  0  0  0
    8.5014  -13.4550   16.9325 C   0  0  0  0  0  0  0  0  0  0  0  0
    9.2095  -14.5681   17.3495 C   0  0  0  0  0  0  0  0  0  0  0  0
    9.4693  -14.7444   18.6980 C   0  0  0  0  0  0  0  0  0  0  0  0
    9.0253  -13.8165   19.6222 C   0  0  0  0  0  0  0  0  0  0  0  0
    9.2935  -13.9894   21.0666 C   0  0  0  0  0  0  0  0  0  0  0  0
    8.6998  -15.2629   21.6096 C   0  0  2  0  0  0  0  0  0  0  0  0
    7.2877  -15.2908   21.3958 N   0  0  0  0  0  0  0  0  0  0  0  0
    8.9528  -15.2706   23.0962 C   0  0  0  0  0  0  0  0  0  0  0  0
   10.1365  -15.3632   23.5012 O   0  0  0  0  0  0  0  0  0  0  0  0
    8.3214  -12.7124   19.1953 C   0  0  0  0  0  0  0  0  0  0  0  0
    8.0505  -12.5183   17.8414 C   0  0  0  0  0  0  0  0  0  0  0  0
    5.5961  -12.1330   26.0778 C   0  0  0  0  0  0  0  0  0  0  0  0
    6.8101  -12.9127   25.5667 C   0  0  1  0  0  0  0  0  0  0  0  0
    8.0061  -12.2372   26.2603 C   0  0  0  0  0  0  0  0  0  0  0  0
    6.7149  -14.3461   25.9485 C   0  0  0  0  0  0  0  0  0  0  0  0
    7.8371  -15.1824   25.3541 C   0  0  2  0  0  0  0  0  0  0  0  0
    7.8382  -15.1729   23.9243 N   0  0  0  0  0  0  0  0  0  0  0  0
    7.9967  -16.4817   25.9888 C   0  0  0  0  0  0  0  0  0  0  0  0
    6.9873  -17.2520   26.1792 O   0  0  0  0  0  0  0  0  0  0  0  0
   10.0407  -21.5232   25.5253 N   0  0  0  0  0  0  0  0  0  0  0  0
   10.6826  -20.4241   26.1944 C   0  0  0  0  0  0  0  0  0  0  0  0
   11.4866  -20.7488   27.0935 O   0  0  0  0  0  0  0  0  0  0  0  0
   10.3581  -19.0425   25.7870 C   0  0  0  0  0  0  0  0  0  0  0  0
    9.4664  -18.3741   26.7708 C   0  0  2  0  0  0  0  0  0  0  0  0
    9.2289  -16.9743   26.4262 N   0  0  0  0  0  0  0  0  0  0  0  0
   10.1799  -18.3127   28.0940 C   0  0  0  0  0  0  0  0  0  0  0  0
    9.9361  -19.0510   29.0543 O   0  0  0  0  0  0  0  0  0  0  0  0
   11.2045  -17.3657   28.3025 O   0  0  0  0  0  0  0  0  0  0  0  0
  2  3  2  0
  2  1  1  0
  4  3  1  0
  5  4  2  0
  6  5  1  0
  6  7  1  0
  7  8  1  1
  9  7  1  0
  9 18  1  0
 10  9  2  0
 11  5  1  0
 11 12  2  0
 12  2  1  0
 14 13  1  1
 14 15  1  0
 16 14  1  0
 17 16  1  6
 17 18  1  0
 19 17  1  0
 20 19  2  0
 21 22  1  0
 22 24  1  0
 23 22  2  0
 25 24  1  6
 25 26  1  0
 25 27  1  0
 26 19  1  0
 27 29  1  0
 28 27  2  0
M  END
$$$$
