YLN.pdb
     RDKit          3D

 29 29  0  0  1  0  0  0  0  0999 V2000
    9.9041  -21.5785   30.8706 O   0  0  0  0  0  0  0  0  0  0  0  0
    9.5842  -20.6155   29.9080 C   0  0  0  0  0  0  0  0  0  0  0  0
   10.5674  -20.0371   29.1249 C   0  0  0  0  0  0  0  0  0  0  0  0
   10.2154  -19.0868   28.1814 C   0  0  0  0  0  0  0  0  0  0  0  0
    8.8925  -18.7174   28.0217 C   0  0  0  0  0  0  0  0  0  0  0  0
    8.4989  -17.7035   27.0191 C   0  0  0  0  0  0  0  0  0  0  0  0
    7.1980  -18.0455   26.3408 C   0  0  2  0  0  0  0  0  0  0  0  0
    7.1908  -19.4128   25.9268 N   0  0  0  0  0  0  0  0  0  0  0  0
    7.0990  -17.1790   25.1107 C   0  0  0  0  0  0  0  0  0  0  0  0
    7.0420  -17.7371   23.9887 O   0  0  0  0  0  0  0  0  0  0  0  0
    7.9226  -19.3000   28.8070 C   0  0  0  0  0  0  0  0  0  0  0  0
    8.2583  -20.2587   29.7621 C   0  0  0  0  0  0  0  0  0  0  0  0
    8.0397  -11.9022   26.3269 C   0  0  0  0  0  0  0  0  0  0  0  0
    7.2109  -13.1844   26.2156 C   0  0  1  0  0  0  0  0  0  0  0  0
    5.9986  -12.9250   27.1271 C   0  0  0  0  0  0  0  0  0  0  0  0
    6.7803  -13.4134   24.8114 C   0  0  0  0  0  0  0  0  0  0  0  0
    7.1664  -14.7931   24.3021 C   0  0  2  0  0  0  0  0  0  0  0  0
    7.0777  -15.8018   25.3116 N   0  0  0  0  0  0  0  0  0  0  0  0
    8.3738  -14.7996   23.4907 C   0  0  0  0  0  0  0  0  0  0  0  0
    8.4850  -14.0340   22.4661 O   0  0  0  0  0  0  0  0  0  0  0  0
   12.3552  -16.1974   20.6941 N   0  0  0  0  0  0  0  0  0  0  0  0
   12.5062  -15.1034   21.6151 C   0  0  0  0  0  0  0  0  0  0  0  0
   13.6120  -14.5241   21.5717 O   0  0  0  0  0  0  0  0  0  0  0  0
   11.3864  -14.7557   22.5124 C   0  0  0  0  0  0  0  0  0  0  0  0
   10.5130  -15.9282   22.7816 C   0  0  2  0  0  0  0  0  0  0  0  0
    9.4734  -15.6186   23.7602 N   0  0  0  0  0  0  0  0  0  0  0  0
   11.3404  -16.9945   23.4466 C   0  0  0  0  0  0  0  0  0  0  0  0
   12.2924  -17.5743   22.9134 O   0  0  0  0  0  0  0  0  0  0  0  0
   11.0500  -17.3947   24.7678 O   0  0  0  0  0  0  0  0  0  0  0  0
  2  3  2  0
  2  1  1  0
  4  3  1  0
  5  4  2  0
  6  5  1  0
  6  7  1  0
  7  8  1  6
  9  7  1  0
  9 18  1  0
 10  9  2  0
 11  5  1  0
 11 12  2  0
 12  2  1  0
 14 13  1  6
 14 15  1  0
 16 14  1  0
 17 16  1  1
 17 18  1  0
 19 17  1  0
 20 19  2  0
 21 22  1  0
 22 24  1  0
 23 22  2  0
 25 24  1  1
 25 26  1  0
 25 27  1  0
 26 19  1  0
 27 29  1  0
 28 27  2  0
M  END
$$$$
