YLN.pdb
     RDKit          3D

 29 29  0  0  1  0  0  0  0  0999 V2000
    7.4837  -20.2443   17.0053 O   0  0  0  0  0  0  0  0  0  0  0  0
    7.6217  -19.4731   18.1640 C   0  0  0  0  0  0  0  0  0  0  0  0
    6.6732  -18.5256   18.5062 C   0  0  0  0  0  0  0  0  0  0  0  0
    6.8413  -17.7795   19.6604 C   0  0  0  0  0  0  0  0  0  0  0  0
    7.9476  -17.9783   20.4660 C   0  0  0  0  0  0  0  0  0  0  0  0
    8.1432  -17.1898   21.7021 C   0  0  0  0  0  0  0  0  0  0  0  0
    8.3695  -15.7279   21.4176 C   0  0  2  0  0  0  0  0  0  0  0  0
    9.4369  -15.5565   20.4838 N   0  0  0  0  0  0  0  0  0  0  0  0
    8.7719  -15.0809   22.7189 C   0  0  0  0  0  0  0  0  0  0  0  0
    9.9875  -15.0647   23.0283 O   0  0  0  0  0  0  0  0  0  0  0  0
    8.8850  -18.9242   20.1150 C   0  0  0  0  0  0  0  0  0  0  0  0
    8.7324  -19.6849   18.9566 C   0  0  0  0  0  0  0  0  0  0  0  0
    7.6988  -11.1802   26.4174 C   0  0  0  0  0  0  0  0  0  0  0  0
    6.8309  -12.4390   26.4900 C   0  0  1  0  0  0  0  0  0  0  0  0
    5.4738  -11.9271   27.0035 C   0  0  0  0  0  0  0  0  0  0  0  0
    6.6905  -13.0606   25.1470 C   0  0  0  0  0  0  0  0  0  0  0  0
    7.8930  -13.9119   24.7712 C   0  0  2  0  0  0  0  0  0  0  0  0
    7.7505  -14.5401   23.4947 N   0  0  0  0  0  0  0  0  0  0  0  0
    8.3720  -14.7570   25.8541 C   0  0  0  0  0  0  0  0  0  0  0  0
    8.4920  -14.2973   27.0469 O   0  0  0  0  0  0  0  0  0  0  0  0
    8.8666  -19.8932   28.2034 N   0  0  0  0  0  0  0  0  0  0  0  0
    8.1859  -19.2887   27.0902 C   0  0  0  0  0  0  0  0  0  0  0  0
    7.9241  -20.0636   26.1461 O   0  0  0  0  0  0  0  0  0  0  0  0
    7.8575  -17.8501   27.1401 C   0  0  0  0  0  0  0  0  0  0  0  0
    9.0281  -17.0060   26.7837 C   0  0  2  0  0  0  0  0  0  0  0  0
    8.7273  -16.0971   25.6801 N   0  0  0  0  0  0  0  0  0  0  0  0
   10.1107  -17.8993   26.2417 C   0  0  0  0  0  0  0  0  0  0  0  0
   10.4109  -17.9872   25.0464 O   0  0  0  0  0  0  0  0  0  0  0  0
   10.8628  -18.7110   27.1167 O   0  0  0  0  0  0  0  0  0  0  0  0
  2  3  2  0
  2  1  1  0
  4  3  1  0
  5  4  2  0
  6  5  1  0
  6  7  1  0
  7  8  1  6
  9  7  1  0
  9 18  1  0
 10  9  2  0
 11  5  1  0
 11 12  2  0
 12  2  1  0
 14 13  1  6
 14 15  1  0
 16 14  1  0
 17 16  1  1
 17 18  1  0
 19 17  1  0
 20 19  2  0
 21 22  1  0
 22 24  1  0
 23 22  2  0
 25 24  1  6
 25 26  1  0
 25 27  1  0
 26 19  1  0
 27 29  1  0
 28 27  2  0
M  END
$$$$
