YLN.pdb
     RDKit          3D

 29 29  0  0  1  0  0  0  0  0999 V2000
    7.4357  -14.0525   15.7766 O   0  0  0  0  0  0  0  0  0  0  0  0
    7.7291  -13.9719   17.1418 C   0  0  0  0  0  0  0  0  0  0  0  0
    7.8554  -12.7466   17.7720 C   0  0  0  0  0  0  0  0  0  0  0  0
    8.1467  -12.7034   19.1250 C   0  0  0  0  0  0  0  0  0  0  0  0
    8.3104  -13.8744   19.8422 C   0  0  0  0  0  0  0  0  0  0  0  0
    8.6223  -13.8466   21.2878 C   0  0  0  0  0  0  0  0  0  0  0  0
    8.7581  -15.2294   21.8698 C   0  0  2  0  0  0  0  0  0  0  0  0
    7.5121  -15.9255   21.8086 N   0  0  0  0  0  0  0  0  0  0  0  0
    9.1361  -15.0641   23.3202 C   0  0  0  0  0  0  0  0  0  0  0  0
   10.2614  -14.5819   23.5940 O   0  0  0  0  0  0  0  0  0  0  0  0
    8.1824  -15.0880   19.2039 C   0  0  0  0  0  0  0  0  0  0  0  0
    7.8893  -15.1510   17.8423 C   0  0  0  0  0  0  0  0  0  0  0  0
    6.0390  -12.2121   26.1432 C   0  0  0  0  0  0  0  0  0  0  0  0
    7.2980  -13.0034   25.7803 C   0  0  1  0  0  0  0  0  0  0  0  0
    8.4277  -12.2670   26.5213 C   0  0  0  0  0  0  0  0  0  0  0  0
    7.1879  -14.4112   26.2444 C   0  0  0  0  0  0  0  0  0  0  0  0
    8.2881  -15.2972   25.6819 C   0  0  2  0  0  0  0  0  0  0  0  0
    8.1954  -15.4644   24.2649 N   0  0  0  0  0  0  0  0  0  0  0  0
    8.5196  -16.5056   26.4583 C   0  0  0  0  0  0  0  0  0  0  0  0
    8.6781  -16.4523   27.7312 O   0  0  0  0  0  0  0  0  0  0  0  0
   13.2379  -18.4646   25.3259 N   0  0  0  0  0  0  0  0  0  0  0  0
   11.9844  -18.9134   24.7826 C   0  0  0  0  0  0  0  0  0  0  0  0
   12.0136  -20.0415   24.2469 O   0  0  0  0  0  0  0  0  0  0  0  0
   10.7973  -18.0424   24.8921 C   0  0  0  0  0  0  0  0  0  0  0  0
    9.8004  -18.5892   25.8497 C   0  0  2  0  0  0  0  0  0  0  0  0
    8.5844  -17.7805   25.8900 N   0  0  0  0  0  0  0  0  0  0  0  0
   10.3651  -18.4764   27.2398 C   0  0  0  0  0  0  0  0  0  0  0  0
   10.2817  -19.3579   28.1016 O   0  0  0  0  0  0  0  0  0  0  0  0
   11.0449  -17.3051   27.6348 O   0  0  0  0  0  0  0  0  0  0  0  0
  2  3  2  0
  2  1  1  0
  4  3  1  0
  5  4  2  0
  6  5  1  0
  6  7  1  0
  7  8  1  1
  9  7  1  0
  9 18  1  0
 10  9  2  0
 11  5  1  0
 11 12  2  0
 12  2  1  0
 14 13  1  1
 14 15  1  0
 16 14  1  0
 17 16  1  1
 17 18  1  0
 19 17  1  0
 20 19  2  0
 21 22  1  0
 22 24  1  0
 23 22  2  0
 25 24  1  6
 25 26  1  0
 25 27  1  0
 26 19  1  0
 27 29  1  0
 28 27  2  0
M  END
$$$$
