YLN.pdb
     RDKit          3D

 29 29  0  0  1  0  0  0  0  0999 V2000
    7.6588  -14.0386   15.8725 O   0  0  0  0  0  0  0  0  0  0  0  0
    7.9816  -13.9615   17.2312 C   0  0  0  0  0  0  0  0  0  0  0  0
    7.5662  -12.8904   18.0023 C   0  0  0  0  0  0  0  0  0  0  0  0
    7.9036  -12.8459   19.3445 C   0  0  0  0  0  0  0  0  0  0  0  0
    8.6498  -13.8627   19.9114 C   0  0  0  0  0  0  0  0  0  0  0  0
    9.0196  -13.8309   21.3433 C   0  0  0  0  0  0  0  0  0  0  0  0
    8.8174  -15.1638   22.0155 C   0  0  2  0  0  0  0  0  0  0  0  0
    7.4561  -15.5821   21.9039 N   0  0  0  0  0  0  0  0  0  0  0  0
    9.1353  -14.9751   23.4774 C   0  0  0  0  0  0  0  0  0  0  0  0
   10.3089  -14.6716   23.8001 O   0  0  0  0  0  0  0  0  0  0  0  0
    9.0577  -14.9238   19.1338 C   0  0  0  0  0  0  0  0  0  0  0  0
    8.7272  -14.9856   17.7807 C   0  0  0  0  0  0  0  0  0  0  0  0
    5.5227  -12.3434   26.5637 C   0  0  0  0  0  0  0  0  0  0  0  0
    6.8203  -12.9474   26.0212 C   0  0  1  0  0  0  0  0  0  0  0  0
    7.9275  -12.1085   26.6830 C   0  0  0  0  0  0  0  0  0  0  0  0
    6.9367  -14.3786   26.4057 C   0  0  0  0  0  0  0  0  0  0  0  0
    8.1617  -15.0460   25.8007 C   0  0  2  0  0  0  0  0  0  0  0  0
    8.0881  -15.1538   24.3769 N   0  0  0  0  0  0  0  0  0  0  0  0
    8.5897  -16.2390   26.5148 C   0  0  0  0  0  0  0  0  0  0  0  0
    8.6810  -16.2449   27.7955 O   0  0  0  0  0  0  0  0  0  0  0  0
    6.2080  -20.4526   26.5717 N   0  0  0  0  0  0  0  0  0  0  0  0
    7.5220  -20.1761   27.0863 C   0  0  0  0  0  0  0  0  0  0  0  0
    7.6289  -20.2459   28.3289 O   0  0  0  0  0  0  0  0  0  0  0  0
    8.6098  -19.8419   26.1457 C   0  0  0  0  0  0  0  0  0  0  0  0
    9.3632  -18.6368   26.5818 C   0  0  2  0  0  0  0  0  0  0  0  0
    8.9239  -17.4357   25.8756 N   0  0  0  0  0  0  0  0  0  0  0  0
   10.8014  -18.8012   26.1715 C   0  0  0  0  0  0  0  0  0  0  0  0
   11.2627  -18.4428   25.0827 O   0  0  0  0  0  0  0  0  0  0  0  0
   11.7255  -19.3989   27.0541 O   0  0  0  0  0  0  0  0  0  0  0  0
  2  3  2  0
  2  1  1  0
  4  3  1  0
  5  4  2  0
  6  5  1  0
  6  7  1  0
  7  8  1  1
  9  7  1  0
  9 18  1  0
 10  9  2  0
 11  5  1  0
 11 12  2  0
 12  2  1  0
 14 13  1  1
 14 15  1  0
 16 14  1  0
 17 16  1  1
 17 18  1  0
 19 17  1  0
 20 19  2  0
 21 22  1  0
 22 24  1  0
 23 22  2  0
 25 24  1  6
 25 26  1  0
 25 27  1  0
 26 19  1  0
 27 29  1  0
 28 27  2  0
M  END
$$$$
