YLN.pdb
     RDKit          3D

 29 29  0  0  1  0  0  0  0  0999 V2000
   10.7371  -14.5051   31.3084 O   0  0  0  0  0  0  0  0  0  0  0  0
   10.5286  -14.8067   29.9587 C   0  0  0  0  0  0  0  0  0  0  0  0
   10.8430  -16.0548   29.4509 C   0  0  0  0  0  0  0  0  0  0  0  0
   10.6239  -16.3195   28.1096 C   0  0  0  0  0  0  0  0  0  0  0  0
   10.0951  -15.3455   27.2826 C   0  0  0  0  0  0  0  0  0  0  0  0
    9.8551  -15.6110   25.8474 C   0  0  0  0  0  0  0  0  0  0  0  0
    8.4516  -16.0894   25.5816 C   0  0  2  0  0  0  0  0  0  0  0  0
    8.2236  -17.3527   26.2083 N   0  0  0  0  0  0  0  0  0  0  0  0
    8.3208  -16.2713   24.0904 C   0  0  0  0  0  0  0  0  0  0  0  0
    8.3445  -17.4362   23.6255 O   0  0  0  0  0  0  0  0  0  0  0  0
    9.7861  -14.1069   27.7994 C   0  0  0  0  0  0  0  0  0  0  0  0
    9.9999  -13.8223   29.1474 C   0  0  0  0  0  0  0  0  0  0  0  0
    6.6693  -14.2060   19.3022 C   0  0  0  0  0  0  0  0  0  0  0  0
    7.9251  -13.5641   19.8971 C   0  0  1  0  0  0  0  0  0  0  0  0
    7.8595  -12.1031   19.4187 C   0  0  0  0  0  0  0  0  0  0  0  0
    7.9025  -13.6384   21.3815 C   0  0  0  0  0  0  0  0  0  0  0  0
    8.2355  -15.0286   21.8997 C   0  0  2  0  0  0  0  0  0  0  0  0
    8.1812  -15.1166   23.3258 N   0  0  0  0  0  0  0  0  0  0  0  0
    9.3984  -15.6267   21.2623 C   0  0  0  0  0  0  0  0  0  0  0  0
    9.3296  -16.0945   20.0686 O   0  0  0  0  0  0  0  0  0  0  0  0
   14.2878  -16.6722   19.8765 N   0  0  0  0  0  0  0  0  0  0  0  0
   14.2930  -16.3522   21.2784 C   0  0  0  0  0  0  0  0  0  0  0  0
   15.3581  -16.6133   21.8767 O   0  0  0  0  0  0  0  0  0  0  0  0
   13.0855  -15.7605   21.8880 C   0  0  0  0  0  0  0  0  0  0  0  0
   11.8443  -16.2338   21.2207 C   0  0  2  0  0  0  0  0  0  0  0  0
   10.6441  -15.7330   21.8864 N   0  0  0  0  0  0  0  0  0  0  0  0
   11.7589  -17.7275   21.3802 C   0  0  0  0  0  0  0  0  0  0  0  0
   11.3968  -18.3004   22.4134 O   0  0  0  0  0  0  0  0  0  0  0  0
   12.1047  -18.5750   20.3067 O   0  0  0  0  0  0  0  0  0  0  0  0
  2  3  2  0
  2  1  1  0
  4  3  1  0
  5  4  2  0
  6  5  1  0
  6  7  1  0
  7  8  1  1
  9  7  1  0
  9 18  1  0
 10  9  2  0
 11  5  1  0
 11 12  2  0
 12  2  1  0
 14 13  1  6
 14 15  1  0
 16 14  1  0
 17 16  1  1
 17 18  1  0
 19 17  1  0
 20 19  2  0
 21 22  1  0
 22 24  1  0
 23 22  2  0
 25 24  1  1
 25 26  1  0
 25 27  1  0
 26 19  1  0
 27 29  1  0
 28 27  2  0
M  END
$$$$
