YLN.pdb
     RDKit          3D

 29 29  0  0  1  0  0  0  0  0999 V2000
    7.5069  -14.2487   16.0481 O   0  0  0  0  0  0  0  0  0  0  0  0
    7.7203  -14.1718   17.4282 C   0  0  0  0  0  0  0  0  0  0  0  0
    7.8384  -15.3170   18.1956 C   0  0  0  0  0  0  0  0  0  0  0  0
    8.0492  -15.2044   19.5595 C   0  0  0  0  0  0  0  0  0  0  0  0
    8.1411  -13.9581   20.1516 C   0  0  0  0  0  0  0  0  0  0  0  0
    8.3655  -13.8194   21.6071 C   0  0  0  0  0  0  0  0  0  0  0  0
    8.6159  -15.1459   22.2757 C   0  0  2  0  0  0  0  0  0  0  0  0
    7.4597  -15.9802   22.1871 N   0  0  0  0  0  0  0  0  0  0  0  0
    8.8843  -14.8637   23.7325 C   0  0  0  0  0  0  0  0  0  0  0  0
   10.0512  -14.5592   24.0778 O   0  0  0  0  0  0  0  0  0  0  0  0
    8.0219  -12.8253   19.3775 C   0  0  0  0  0  0  0  0  0  0  0  0
    7.8095  -12.9193   18.0028 C   0  0  0  0  0  0  0  0  0  0  0  0
    5.6116  -11.8767   26.6431 C   0  0  0  0  0  0  0  0  0  0  0  0
    6.8510  -12.6584   26.2004 C   0  0  1  0  0  0  0  0  0  0  0  0
    8.0175  -11.9300   26.8905 C   0  0  0  0  0  0  0  0  0  0  0  0
    6.7693  -14.0736   26.6480 C   0  0  0  0  0  0  0  0  0  0  0  0
    7.8536  -14.9426   26.0308 C   0  0  2  0  0  0  0  0  0  0  0  0
    7.8019  -14.9628   24.6021 N   0  0  0  0  0  0  0  0  0  0  0  0
    8.0137  -16.2312   26.6869 C   0  0  0  0  0  0  0  0  0  0  0  0
    8.2213  -16.3070   27.9516 O   0  0  0  0  0  0  0  0  0  0  0  0
    7.8423  -22.2032   25.6537 N   0  0  0  0  0  0  0  0  0  0  0  0
    7.4534  -21.1283   26.5262 C   0  0  0  0  0  0  0  0  0  0  0  0
    7.3312  -21.4413   27.7293 O   0  0  0  0  0  0  0  0  0  0  0  0
    7.2344  -19.7825   25.9597 C   0  0  0  0  0  0  0  0  0  0  0  0
    8.0408  -18.7514   26.6643 C   0  0  2  0  0  0  0  0  0  0  0  0
    7.9544  -17.4500   26.0061 N   0  0  0  0  0  0  0  0  0  0  0  0
    9.4937  -19.1260   26.5525 C   0  0  0  0  0  0  0  0  0  0  0  0
   10.0409  -20.0096   27.2207 O   0  0  0  0  0  0  0  0  0  0  0  0
   10.3300  -18.4526   25.6374 O   0  0  0  0  0  0  0  0  0  0  0  0
  2  3  2  0
  2  1  1  0
  4  3  1  0
  5  4  2  0
  6  5  1  0
  6  7  1  0
  7  8  1  1
  9  7  1  0
  9 18  1  0
 10  9  2  0
 11  5  1  0
 11 12  2  0
 12  2  1  0
 14 13  1  1
 14 15  1  0
 16 14  1  0
 17 16  1  1
 17 18  1  0
 19 17  1  0
 20 19  2  0
 21 22  1  0
 22 24  1  0
 23 22  2  0
 25 24  1  6
 25 26  1  0
 25 27  1  0
 26 19  1  0
 27 29  1  0
 28 27  2  0
M  END
$$$$
