YLN.pdb
     RDKit          3D

 29 29  0  0  1  0  0  0  0  0999 V2000
    9.4821  -18.8026   29.8211 O   0  0  0  0  0  0  0  0  0  0  0  0
    8.7827  -18.9424   28.6179 C   0  0  0  0  0  0  0  0  0  0  0  0
    7.4345  -19.2536   28.6098 C   0  0  0  0  0  0  0  0  0  0  0  0
    6.7730  -19.3847   27.4004 C   0  0  0  0  0  0  0  0  0  0  0  0
    7.4527  -19.2063   26.2094 C   0  0  0  0  0  0  0  0  0  0  0  0
    6.7618  -19.3431   24.9086 C   0  0  0  0  0  0  0  0  0  0  0  0
    5.9770  -18.1095   24.5459 C   0  0  2  0  0  0  0  0  0  0  0  0
    5.2100  -18.3314   23.3614 N   0  0  0  0  0  0  0  0  0  0  0  0
    6.9764  -17.0161   24.2636 C   0  0  0  0  0  0  0  0  0  0  0  0
    7.6166  -17.0546   23.1855 O   0  0  0  0  0  0  0  0  0  0  0  0
    8.7945  -18.8969   26.2302 C   0  0  0  0  0  0  0  0  0  0  0  0
    9.4770  -18.7609   27.4383 C   0  0  0  0  0  0  0  0  0  0  0  0
    5.9560  -12.1522   26.8966 C   0  0  0  0  0  0  0  0  0  0  0  0
    6.3895  -13.1253   25.7973 C   0  0  1  0  0  0  0  0  0  0  0  0
    6.6048  -12.2263   24.5672 C   0  0  0  0  0  0  0  0  0  0  0  0
    7.6485  -13.8198   26.1745 C   0  0  0  0  0  0  0  0  0  0  0  0
    8.0220  -14.9205   25.1943 C   0  0  2  0  0  0  0  0  0  0  0  0
    7.1188  -16.0283   25.2339 N   0  0  0  0  0  0  0  0  0  0  0  0
    9.4398  -15.2464   25.1941 C   0  0  0  0  0  0  0  0  0  0  0  0
   10.1585  -15.0678   26.2428 O   0  0  0  0  0  0  0  0  0  0  0  0
   13.1392  -19.4338   24.6058 N   0  0  0  0  0  0  0  0  0  0  0  0
   12.9829  -18.0317   24.8843 C   0  0  0  0  0  0  0  0  0  0  0  0
   14.0499  -17.4004   25.0369 O   0  0  0  0  0  0  0  0  0  0  0  0
   11.6243  -17.4595   24.9670 C   0  0  0  0  0  0  0  0  0  0  0  0
   11.4840  -16.2500   24.1141 C   0  0  2  0  0  0  0  0  0  0  0  0
   10.1064  -15.7648   24.0808 N   0  0  0  0  0  0  0  0  0  0  0  0
   11.7737  -16.6370   22.6893 C   0  0  0  0  0  0  0  0  0  0  0  0
   12.8627  -17.0613   22.2881 O   0  0  0  0  0  0  0  0  0  0  0  0
   10.7672  -16.5264   21.7070 O   0  0  0  0  0  0  0  0  0  0  0  0
  2  3  2  0
  2  1  1  0
  4  3  1  0
  5  4  2  0
  6  5  1  0
  6  7  1  0
  7  8  1  6
  9  7  1  0
  9 18  1  0
 10  9  2  0
 11  5  1  0
 11 12  2  0
 12  2  1  0
 14 13  1  1
 14 15  1  0
 16 14  1  0
 17 16  1  1
 17 18  1  0
 19 17  1  0
 20 19  2  0
 21 22  1  0
 22 24  1  0
 23 22  2  0
 25 24  1  1
 25 26  1  0
 25 27  1  0
 26 19  1  0
 27 29  1  0
 28 27  2  0
M  END
$$$$
