YLN.pdb
     RDKit          3D

 29 29  0  0  1  0  0  0  0  0999 V2000
   10.1684  -21.5125   13.0716 O   0  0  0  0  0  0  0  0  0  0  0  0
   10.3223  -20.6646   14.1733 C   0  0  0  0  0  0  0  0  0  0  0  0
    9.3172  -19.7891   14.5442 C   0  0  0  0  0  0  0  0  0  0  0  0
    9.5030  -18.9636   15.6402 C   0  0  0  0  0  0  0  0  0  0  0  0
   10.6830  -19.0124   16.3596 C   0  0  0  0  0  0  0  0  0  0  0  0
   10.8985  -18.1374   17.5326 C   0  0  0  0  0  0  0  0  0  0  0  0
   10.9274  -16.6782   17.1595 C   0  0  2  0  0  0  0  0  0  0  0  0
   12.0564  -16.3928   16.3322 N   0  0  0  0  0  0  0  0  0  0  0  0
   11.0710  -15.8965   18.4409 C   0  0  0  0  0  0  0  0  0  0  0  0
   12.2256  -15.6435   18.8613 O   0  0  0  0  0  0  0  0  0  0  0  0
   11.6763  -19.8880   15.9808 C   0  0  0  0  0  0  0  0  0  0  0  0
   11.5069  -20.7267   14.8800 C   0  0  0  0  0  0  0  0  0  0  0  0
    6.4964  -13.0000   19.4890 C   0  0  0  0  0  0  0  0  0  0  0  0
    7.9431  -13.4659   19.3075 C   0  0  1  0  0  0  0  0  0  0  0  0
    8.7283  -12.1629   19.0766 C   0  0  0  0  0  0  0  0  0  0  0  0
    8.4271  -14.1692   20.5244 C   0  0  0  0  0  0  0  0  0  0  0  0
    9.7893  -14.8134   20.3211 C   0  0  2  0  0  0  0  0  0  0  0  0
    9.8948  -15.5059   19.0746 N   0  0  0  0  0  0  0  0  0  0  0  0
   10.2821  -15.5202   21.4933 C   0  0  0  0  0  0  0  0  0  0  0  0
   10.2583  -14.9715   22.6537 O   0  0  0  0  0  0  0  0  0  0  0  0
   12.2902  -19.0162   24.6876 N   0  0  0  0  0  0  0  0  0  0  0  0
   11.5810  -19.7373   23.6655 C   0  0  0  0  0  0  0  0  0  0  0  0
   11.4631  -20.9642   23.8686 O   0  0  0  0  0  0  0  0  0  0  0  0
   11.0624  -19.0046   22.4932 C   0  0  0  0  0  0  0  0  0  0  0  0
   11.2874  -17.5403   22.6162 C   0  0  2  0  0  0  0  0  0  0  0  0
   10.8041  -16.8154   21.4435 N   0  0  0  0  0  0  0  0  0  0  0  0
   12.7704  -17.2863   22.6220 C   0  0  0  0  0  0  0  0  0  0  0  0
   13.4820  -17.3245   23.6314 O   0  0  0  0  0  0  0  0  0  0  0  0
   13.4409  -16.9798   21.4192 O   0  0  0  0  0  0  0  0  0  0  0  0
  2  3  2  0
  2  1  1  0
  4  3  1  0
  5  4  2  0
  6  5  1  0
  6  7  1  0
  7  8  1  6
  9  7  1  0
  9 18  1  0
 10  9  2  0
 11  5  1  0
 11 12  2  0
 12  2  1  0
 14 13  1  1
 14 15  1  0
 16 14  1  0
 17 16  1  1
 17 18  1  0
 19 17  1  0
 20 19  2  0
 21 22  1  0
 22 24  1  0
 23 22  2  0
 25 24  1  6
 25 26  1  0
 25 27  1  0
 26 19  1  0
 27 29  1  0
 28 27  2  0
M  END
$$$$
