YLN.pdb
     RDKit          3D

 29 29  0  0  1  0  0  0  0  0999 V2000
    7.7701  -14.2256   15.9809 O   0  0  0  0  0  0  0  0  0  0  0  0
    8.0692  -14.1176   17.3429 C   0  0  0  0  0  0  0  0  0  0  0  0
    7.6667  -13.0148   18.0753 C   0  0  0  0  0  0  0  0  0  0  0  0
    7.9798  -12.9402   19.4220 C   0  0  0  0  0  0  0  0  0  0  0  0
    8.6891  -13.9586   20.0318 C   0  0  0  0  0  0  0  0  0  0  0  0
    9.0326  -13.8950   21.4692 C   0  0  0  0  0  0  0  0  0  0  0  0
    8.7483  -15.1909   22.1826 C   0  0  2  0  0  0  0  0  0  0  0  0
    7.3869  -15.5807   21.9943 N   0  0  0  0  0  0  0  0  0  0  0  0
    8.9698  -14.9443   23.6536 C   0  0  0  0  0  0  0  0  0  0  0  0
   10.1264  -14.6558   24.0444 O   0  0  0  0  0  0  0  0  0  0  0  0
    9.0844  -15.0513   19.2926 C   0  0  0  0  0  0  0  0  0  0  0  0
    8.7781  -15.1437   17.9355 C   0  0  0  0  0  0  0  0  0  0  0  0
    5.4524  -11.8944   26.3013 C   0  0  0  0  0  0  0  0  0  0  0  0
    6.7147  -12.6603   25.8972 C   0  0  1  0  0  0  0  0  0  0  0  0
    7.8557  -11.8844   26.5782 C   0  0  0  0  0  0  0  0  0  0  0  0
    6.6598  -14.0627   26.3868 C   0  0  0  0  0  0  0  0  0  0  0  0
    7.8384  -14.8938   25.9049 C   0  0  2  0  0  0  0  0  0  0  0  0
    7.8586  -15.0561   24.4845 N   0  0  0  0  0  0  0  0  0  0  0  0
    8.0672  -16.0952   26.6928 C   0  0  0  0  0  0  0  0  0  0  0  0
    8.2064  -16.0322   27.9676 O   0  0  0  0  0  0  0  0  0  0  0  0
    7.0782  -18.9046   24.4801 N   0  0  0  0  0  0  0  0  0  0  0  0
    6.9345  -19.8888   25.5186 C   0  0  0  0  0  0  0  0  0  0  0  0
    6.4458  -20.9781   25.1511 O   0  0  0  0  0  0  0  0  0  0  0  0
    7.3582  -19.5549   26.8929 C   0  0  0  0  0  0  0  0  0  0  0  0
    8.4750  -18.5737   26.9010 C   0  0  2  0  0  0  0  0  0  0  0  0
    8.1498  -17.3733   26.1343 N   0  0  0  0  0  0  0  0  0  0  0  0
    9.6420  -19.1759   26.1668 C   0  0  0  0  0  0  0  0  0  0  0  0
   10.0896  -18.7498   25.0968 O   0  0  0  0  0  0  0  0  0  0  0  0
   10.3043  -20.3043   26.6943 O   0  0  0  0  0  0  0  0  0  0  0  0
  2  3  2  0
  2  1  1  0
  4  3  1  0
  5  4  2  0
  6  5  1  0
  6  7  1  0
  7  8  1  1
  9  7  1  0
  9 18  1  0
 10  9  2  0
 11  5  1  0
 11 12  2  0
 12  2  1  0
 14 13  1  1
 14 15  1  0
 16 14  1  0
 17 16  1  1
 17 18  1  0
 19 17  1  0
 20 19  2  0
 21 22  1  0
 22 24  1  0
 23 22  2  0
 25 24  1  6
 25 26  1  0
 25 27  1  0
 26 19  1  0
 27 29  1  0
 28 27  2  0
M  END
$$$$
