VLG.pdb
     RDKit          3D

 20 19  0  0  1  0  0  0  0  0999 V2000
    6.2758  -21.0428   25.3417 C   0  0  0  0  0  0  0  0  0  0  0  0
    6.9746  -19.7103   25.1697 C   0  0  1  0  0  0  0  0  0  0  0  0
    8.2304  -19.9093   24.3902 C   0  0  0  0  0  0  0  0  0  0  0  0
    5.9967  -18.7689   24.5038 C   0  0  2  0  0  0  0  0  0  0  0  0
    5.5647  -19.3016   23.2274 N   0  0  0  0  0  0  0  0  0  0  0  0
    6.5349  -17.4209   24.3162 C   0  0  0  0  0  0  0  0  0  0  0  0
    7.1042  -17.1154   23.2155 O   0  0  0  0  0  0  0  0  0  0  0  0
    6.4392  -11.8814   27.0193 C   0  0  0  0  0  0  0  0  0  0  0  0
    7.2669  -12.7378   26.0407 C   0  0  2  0  0  0  0  0  0  0  0  0
    7.3240  -11.9656   24.7638 C   0  0  0  0  0  0  0  0  0  0  0  0
    6.6291  -14.0678   26.0034 C   0  0  0  0  0  0  0  0  0  0  0  0
    7.2243  -15.1281   25.1644 C   0  0  2  0  0  0  0  0  0  0  0  0
    6.4820  -16.3868   25.2738 N   0  0  0  0  0  0  0  0  0  0  0  0
    8.6578  -15.3345   25.4199 C   0  0  0  0  0  0  0  0  0  0  0  0
    9.0354  -15.4398   26.6225 O   0  0  0  0  0  0  0  0  0  0  0  0
    9.6678  -15.4174   24.4168 N   0  0  0  0  0  0  0  0  0  0  0  0
   11.0710  -15.4546   24.6197 C   0  0  0  0  0  0  0  0  0  0  0  0
   11.9556  -15.5483   23.4710 C   0  0  0  0  0  0  0  0  0  0  0  0
   11.6871  -15.7001   22.2756 O   0  0  0  0  0  0  0  0  0  0  0  0
   13.3495  -15.4528   23.7438 O   0  0  0  0  0  0  0  0  0  0  0  0
  2  1  1  6
  3  2  1  0
  4  2  1  0
  4  5  1  6
  6 13  1  0
  6  4  1  0
  7  6  2  0
  9  8  1  1
  9 10  1  0
  9 11  1  0
 12 11  1  1
 12 14  1  0
 12 13  1  0
 14 15  2  0
 16 14  1  0
 16 17  1  0
 18 20  1  0
 18 17  1  0
 19 18  2  0
M  END
$$$$
