VLG.pdb
     RDKit          3D

 20 19  0  0  1  0  0  0  0  0999 V2000
    6.6477  -14.5781   19.0329 C   0  0  0  0  0  0  0  0  0  0  0  0
    7.2637  -14.8168   20.3956 C   0  0  1  0  0  0  0  0  0  0  0  0
    8.4274  -15.7390   20.2557 C   0  0  0  0  0  0  0  0  0  0  0  0
    7.6320  -13.4671   20.9688 C   0  0  2  0  0  0  0  0  0  0  0  0
    8.5832  -12.7909   20.1101 N   0  0  0  0  0  0  0  0  0  0  0  0
    8.1687  -13.5479   22.3279 C   0  0  0  0  0  0  0  0  0  0  0  0
    9.4121  -13.3424   22.5294 O   0  0  0  0  0  0  0  0  0  0  0  0
    7.5986  -11.2851   26.3175 C   0  0  0  0  0  0  0  0  0  0  0  0
    6.4324  -12.2046   25.9043 C   0  0  2  0  0  0  0  0  0  0  0  0
    5.3280  -11.9297   26.8711 C   0  0  0  0  0  0  0  0  0  0  0  0
    6.9738  -13.5765   25.8623 C   0  0  0  0  0  0  0  0  0  0  0  0
    7.9744  -13.9240   24.8325 C   0  0  2  0  0  0  0  0  0  0  0  0
    7.4127  -13.8428   23.4815 N   0  0  0  0  0  0  0  0  0  0  0  0
    8.6155  -15.2274   25.0622 C   0  0  0  0  0  0  0  0  0  0  0  0
    9.1066  -15.4518   26.2062 O   0  0  0  0  0  0  0  0  0  0  0  0
    8.7392  -16.2649   24.0920 N   0  0  0  0  0  0  0  0  0  0  0  0
    9.2667  -17.5655   24.2959 C   0  0  0  0  0  0  0  0  0  0  0  0
   10.6785  -17.7230   24.6004 C   0  0  0  0  0  0  0  0  0  0  0  0
   11.5606  -16.8688   24.7284 O   0  0  0  0  0  0  0  0  0  0  0  0
   11.1352  -19.0588   24.7830 O   0  0  0  0  0  0  0  0  0  0  0  0
  2  1  1  6
  3  2  1  0
  4  2  1  0
  4  5  1  6
  6 13  1  0
  6  4  1  0
  7  6  2  0
  9  8  1  1
  9 10  1  0
  9 11  1  0
 12 11  1  1
 12 14  1  0
 12 13  1  0
 14 15  2  0
 16 14  1  0
 16 17  1  0
 18 20  1  0
 18 17  1  0
 19 18  2  0
M  END
$$$$
