VLG.pdb
     RDKit          3D

 20 19  0  0  1  0  0  0  0  0999 V2000
    7.8811  -18.0599   21.6933 C   0  0  0  0  0  0  0  0  0  0  0  0
    8.9774  -17.4834   20.8220 C   0  0  1  0  0  0  0  0  0  0  0  0
    8.7820  -17.9416   19.4164 C   0  0  0  0  0  0  0  0  0  0  0  0
    8.9342  -15.9799   20.9755 C   0  0  2  0  0  0  0  0  0  0  0  0
    9.9337  -15.3527   20.1347 N   0  0  0  0  0  0  0  0  0  0  0  0
    9.1106  -15.5391   22.3599 C   0  0  0  0  0  0  0  0  0  0  0  0
   10.2680  -15.5872   22.8957 O   0  0  0  0  0  0  0  0  0  0  0  0
    5.8913  -12.5421   26.6923 C   0  0  0  0  0  0  0  0  0  0  0  0
    7.2113  -13.3055   26.4662 C   0  0  2  0  0  0  0  0  0  0  0  0
    8.3040  -12.3609   26.8451 C   0  0  0  0  0  0  0  0  0  0  0  0
    7.1832  -13.7893   25.0726 C   0  0  0  0  0  0  0  0  0  0  0  0
    8.2728  -14.6636   24.5923 C   0  0  2  0  0  0  0  0  0  0  0  0
    8.0827  -15.0468   23.1907 N   0  0  0  0  0  0  0  0  0  0  0  0
    8.4853  -15.8460   25.4406 C   0  0  0  0  0  0  0  0  0  0  0  0
    7.4665  -16.4920   25.8212 O   0  0  0  0  0  0  0  0  0  0  0  0
    9.7543  -16.3240   25.8814 N   0  0  0  0  0  0  0  0  0  0  0  0
   10.0179  -17.5371   26.5672 C   0  0  0  0  0  0  0  0  0  0  0  0
   10.1690  -17.5215   28.0121 C   0  0  0  0  0  0  0  0  0  0  0  0
   10.3525  -18.4551   28.7988 O   0  0  0  0  0  0  0  0  0  0  0  0
   10.0979  -16.2440   28.6361 O   0  0  0  0  0  0  0  0  0  0  0  0
  2  1  1  1
  3  2  1  0
  4  2  1  0
  4  5  1  6
  6 13  1  0
  6  4  1  0
  7  6  2  0
  9  8  1  6
  9 10  1  0
  9 11  1  0
 12 11  1  1
 12 14  1  0
 12 13  1  0
 14 15  2  0
 16 14  1  0
 16 17  1  0
 18 20  1  0
 18 17  1  0
 19 18  2  0
M  END
$$$$
