VLG.pdb
     RDKit          3D

 20 19  0  0  1  0  0  0  0  0999 V2000
    7.1928  -17.2017   21.8347 C   0  0  0  0  0  0  0  0  0  0  0  0
    7.7574  -16.2899   20.7655 C   0  0  1  0  0  0  0  0  0  0  0  0
    7.1856  -16.6697   19.4415 C   0  0  0  0  0  0  0  0  0  0  0  0
    7.4423  -14.8677   21.1705 C   0  0  2  0  0  0  0  0  0  0  0  0
    7.7800  -13.9470   20.1039 N   0  0  0  0  0  0  0  0  0  0  0  0
    8.1168  -14.4593   22.4034 C   0  0  0  0  0  0  0  0  0  0  0  0
    9.3078  -14.0035   22.3508 O   0  0  0  0  0  0  0  0  0  0  0  0
    7.7767  -11.3051   25.9389 C   0  0  0  0  0  0  0  0  0  0  0  0
    6.6648  -12.3669   25.8268 C   0  0  2  0  0  0  0  0  0  0  0  0
    5.6381  -11.9981   26.8466 C   0  0  0  0  0  0  0  0  0  0  0  0
    7.3225  -13.6802   25.9678 C   0  0  0  0  0  0  0  0  0  0  0  0
    8.2587  -14.1325   24.9184 C   0  0  2  0  0  0  0  0  0  0  0  0
    7.5537  -14.5240   23.6949 N   0  0  0  0  0  0  0  0  0  0  0  0
    9.1670  -15.1971   25.3702 C   0  0  0  0  0  0  0  0  0  0  0  0
    9.9411  -14.9434   26.3380 O   0  0  0  0  0  0  0  0  0  0  0  0
    9.2555  -16.5000   24.7976 N   0  0  0  0  0  0  0  0  0  0  0  0
   10.0730  -17.5719   25.2379 C   0  0  0  0  0  0  0  0  0  0  0  0
   10.0004  -18.0018   26.6238 C   0  0  0  0  0  0  0  0  0  0  0  0
    9.2766  -17.6006   27.5400 O   0  0  0  0  0  0  0  0  0  0  0  0
   10.8918  -19.0443   27.0043 O   0  0  0  0  0  0  0  0  0  0  0  0
  2  1  1  1
  3  2  1  0
  4  2  1  0
  4  5  1  6
  6 13  1  0
  6  4  1  0
  7  6  2  0
  9  8  1  1
  9 10  1  0
  9 11  1  0
 12 11  1  1
 12 14  1  0
 12 13  1  0
 14 15  2  0
 16 14  1  0
 16 17  1  0
 18 20  1  0
 18 17  1  0
 19 18  2  0
M  END
$$$$
