VLG.pdb
     RDKit          3D

 20 19  0  0  1  0  0  0  0  0999 V2000
    6.8336  -17.7418   20.9362 C   0  0  0  0  0  0  0  0  0  0  0  0
    7.6803  -17.1138   22.0234 C   0  0  1  0  0  0  0  0  0  0  0  0
    9.0938  -17.5634   21.8688 C   0  0  0  0  0  0  0  0  0  0  0  0
    7.5115  -15.6150   21.9198 C   0  0  2  0  0  0  0  0  0  0  0  0
    8.0244  -15.1305   20.6542 N   0  0  0  0  0  0  0  0  0  0  0  0
    8.1492  -14.8883   23.0185 C   0  0  0  0  0  0  0  0  0  0  0  0
    9.2817  -14.3296   22.8332 O   0  0  0  0  0  0  0  0  0  0  0  0
    7.4756  -11.1039   25.6112 C   0  0  0  0  0  0  0  0  0  0  0  0
    6.4880  -12.2592   25.8689 C   0  0  2  0  0  0  0  0  0  0  0  0
    5.4605  -11.7211   26.8094 C   0  0  0  0  0  0  0  0  0  0  0  0
    7.2944  -13.4069   26.3265 C   0  0  0  0  0  0  0  0  0  0  0  0
    8.2719  -14.0145   25.4003 C   0  0  2  0  0  0  0  0  0  0  0  0
    7.6100  -14.7409   24.3134 N   0  0  0  0  0  0  0  0  0  0  0  0
    9.2637  -14.8631   26.0777 C   0  0  0  0  0  0  0  0  0  0  0  0
    9.8300  -14.4023   27.1107 O   0  0  0  0  0  0  0  0  0  0  0  0
    9.6506  -16.1699   25.6584 N   0  0  0  0  0  0  0  0  0  0  0  0
   10.5539  -17.0443   26.3149 C   0  0  0  0  0  0  0  0  0  0  0  0
   10.7196  -18.4007   25.8216 C   0  0  0  0  0  0  0  0  0  0  0  0
   10.2482  -18.9403   24.8162 O   0  0  0  0  0  0  0  0  0  0  0  0
   11.5487  -19.2548   26.6022 O   0  0  0  0  0  0  0  0  0  0  0  0
  2  1  1  6
  3  2  1  0
  4  2  1  0
  4  5  1  6
  6 13  1  0
  6  4  1  0
  7  6  2  0
  9  8  1  1
  9 10  1  0
  9 11  1  0
 12 11  1  1
 12 14  1  0
 12 13  1  0
 14 15  2  0
 16 14  1  0
 16 17  1  0
 18 20  1  0
 18 17  1  0
 19 18  2  0
M  END
$$$$
