VLG.pdb
     RDKit          3D

 20 19  0  0  1  0  0  0  0  0999 V2000
    7.2788  -16.1757   21.0114 C   0  0  0  0  0  0  0  0  0  0  0  0
    7.9557  -15.0941   20.1958 C   0  0  1  0  0  0  0  0  0  0  0  0
    7.5120  -15.1971   18.7757 C   0  0  0  0  0  0  0  0  0  0  0  0
    7.6187  -13.7665   20.8359 C   0  0  2  0  0  0  0  0  0  0  0  0
    8.1193  -12.6706   20.0310 N   0  0  0  0  0  0  0  0  0  0  0  0
    8.1263  -13.6432   22.2030 C   0  0  0  0  0  0  0  0  0  0  0  0
    9.3024  -13.1891   22.4017 O   0  0  0  0  0  0  0  0  0  0  0  0
    7.5042  -11.3274   26.3365 C   0  0  0  0  0  0  0  0  0  0  0  0
    6.3211  -12.1869   25.8486 C   0  0  2  0  0  0  0  0  0  0  0  0
    5.2203  -11.9706   26.8342 C   0  0  0  0  0  0  0  0  0  0  0  0
    6.8358  -13.5610   25.6945 C   0  0  0  0  0  0  0  0  0  0  0  0
    7.9241  -13.8178   24.7290 C   0  0  2  0  0  0  0  0  0  0  0  0
    7.4111  -13.9922   23.3675 N   0  0  0  0  0  0  0  0  0  0  0  0
    8.7910  -14.9407   25.1164 C   0  0  0  0  0  0  0  0  0  0  0  0
    9.2362  -14.9635   26.3003 O   0  0  0  0  0  0  0  0  0  0  0  0
    9.1828  -16.0104   24.2590 N   0  0  0  0  0  0  0  0  0  0  0  0
    9.9783  -17.1329   24.6037 C   0  0  0  0  0  0  0  0  0  0  0  0
   10.2358  -18.1579   23.6069 C   0  0  0  0  0  0  0  0  0  0  0  0
    9.9535  -19.3597   23.6163 O   0  0  0  0  0  0  0  0  0  0  0  0
   10.9168  -17.7324   22.4315 O   0  0  0  0  0  0  0  0  0  0  0  0
  2  1  1  1
  3  2  1  0
  4  2  1  0
  4  5  1  6
  6 13  1  0
  6  4  1  0
  7  6  2  0
  9  8  1  1
  9 10  1  0
  9 11  1  0
 12 11  1  1
 12 14  1  0
 12 13  1  0
 14 15  2  0
 16 14  1  0
 16 17  1  0
 18 20  1  0
 18 17  1  0
 19 18  2  0
M  END
$$$$
