VLG.pdb
     RDKit          3D

 20 19  0  0  1  0  0  0  0  0999 V2000
    6.3366  -21.1389   25.7511 C   0  0  0  0  0  0  0  0  0  0  0  0
    7.0145  -19.8210   25.4398 C   0  0  1  0  0  0  0  0  0  0  0  0
    8.2176  -20.0731   24.5953 C   0  0  0  0  0  0  0  0  0  0  0  0
    5.9894  -18.9305   24.7749 C   0  0  2  0  0  0  0  0  0  0  0  0
    5.5029  -19.5377   23.5525 N   0  0  0  0  0  0  0  0  0  0  0  0
    6.4956  -17.5876   24.4882 C   0  0  0  0  0  0  0  0  0  0  0  0
    7.0164  -17.3383   23.3500 O   0  0  0  0  0  0  0  0  0  0  0  0
    6.4848  -11.9078   26.8882 C   0  0  0  0  0  0  0  0  0  0  0  0
    7.2971  -12.8263   25.9540 C   0  0  2  0  0  0  0  0  0  0  0  0
    7.3597  -12.1241   24.6377 C   0  0  0  0  0  0  0  0  0  0  0  0
    6.6412  -14.1475   25.9897 C   0  0  0  0  0  0  0  0  0  0  0  0
    7.2113  -15.2556   25.1963 C   0  0  2  0  0  0  0  0  0  0  0  0
    6.4611  -16.5000   25.3855 N   0  0  0  0  0  0  0  0  0  0  0  0
    8.6477  -15.4615   25.4349 C   0  0  0  0  0  0  0  0  0  0  0  0
    9.0484  -15.5030   26.6340 O   0  0  0  0  0  0  0  0  0  0  0  0
    9.6367  -15.6103   24.4186 N   0  0  0  0  0  0  0  0  0  0  0  0
   11.0436  -15.6410   24.5949 C   0  0  0  0  0  0  0  0  0  0  0  0
   11.9047  -15.7976   23.4353 C   0  0  0  0  0  0  0  0  0  0  0  0
   11.6108  -15.9792   22.2500 O   0  0  0  0  0  0  0  0  0  0  0  0
   13.3053  -15.7351   23.6815 O   0  0  0  0  0  0  0  0  0  0  0  0
  2  1  1  6
  3  2  1  0
  4  2  1  0
  4  5  1  6
  6 13  1  0
  6  4  1  0
  7  6  2  0
  9  8  1  1
  9 10  1  0
  9 11  1  0
 12 11  1  1
 12 14  1  0
 12 13  1  0
 14 15  2  0
 16 14  1  0
 16 17  1  0
 18 20  1  0
 18 17  1  0
 19 18  2  0
M  END
$$$$
