VLG.pdb
     RDKit          3D

 20 19  0  0  1  0  0  0  0  0999 V2000
    5.3893  -19.6525   23.6678 C   0  0  0  0  0  0  0  0  0  0  0  0
    6.4629  -18.6653   24.0757 C   0  0  1  0  0  0  0  0  0  0  0  0
    7.8038  -19.2385   23.7635 C   0  0  0  0  0  0  0  0  0  0  0  0
    6.1816  -17.3667   23.3545 C   0  0  2  0  0  0  0  0  0  0  0  0
    6.2563  -17.5539   21.9196 N   0  0  0  0  0  0  0  0  0  0  0  0
    7.0783  -16.2817   23.7553 C   0  0  0  0  0  0  0  0  0  0  0  0
    8.0844  -15.9914   23.0255 O   0  0  0  0  0  0  0  0  0  0  0  0
    6.8988  -11.6034   24.8629 C   0  0  0  0  0  0  0  0  0  0  0  0
    6.2197  -12.5982   25.8250 C   0  0  2  0  0  0  0  0  0  0  0  0
    5.5234  -11.7679   26.8526 C   0  0  0  0  0  0  0  0  0  0  0  0
    7.2753  -13.5164   26.2937 C   0  0  0  0  0  0  0  0  0  0  0  0
    7.8824  -14.4635   25.3361 C   0  0  2  0  0  0  0  0  0  0  0  0
    6.9305  -15.4957   24.9169 N   0  0  0  0  0  0  0  0  0  0  0  0
    9.1325  -15.0633   25.8262 C   0  0  0  0  0  0  0  0  0  0  0  0
   10.0672  -14.2840   26.1715 O   0  0  0  0  0  0  0  0  0  0  0  0
    9.3847  -16.4623   25.9370 N   0  0  0  0  0  0  0  0  0  0  0  0
   10.5646  -17.0808   26.4234 C   0  0  0  0  0  0  0  0  0  0  0  0
   11.6985  -17.2548   25.5319 C   0  0  0  0  0  0  0  0  0  0  0  0
   11.8382  -16.9142   24.3535 O   0  0  0  0  0  0  0  0  0  0  0  0
   12.8323  -17.9171   26.0815 O   0  0  0  0  0  0  0  0  0  0  0  0
  2  1  1  6
  3  2  1  0
  4  2  1  0
  4  5  1  6
  6 13  1  0
  6  4  1  0
  7  6  2  0
  9  8  1  6
  9 10  1  0
  9 11  1  0
 12 11  1  1
 12 14  1  0
 12 13  1  0
 14 15  2  0
 16 14  1  0
 16 17  1  0
 18 20  1  0
 18 17  1  0
 19 18  2  0
M  END
$$$$
