APR.pdb
     RDKit          3D

 24 24  0  0  1  0  0  0  0  0999 V2000
   24.4347  -22.5109  -11.1009 C   0  0  0  0  0  0  0  0  0  0  0  0
   25.2039  -21.3253  -10.5377 C   0  0  2  0  0  0  0  0  0  0  0  0
   24.6349  -20.8029   -9.3389 N   0  0  0  0  0  0  0  0  0  0  0  0
   25.4929  -20.3334  -11.5875 C   0  0  0  0  0  0  0  0  0  0  0  0
   24.5628  -19.5595  -11.8964 O   0  0  0  0  0  0  0  0  0  0  0  0
   26.7642  -20.2166  -12.2582 N   0  0  0  0  0  0  0  0  0  0  0  0
   27.9643  -20.8421  -11.7333 C   0  0  0  0  0  0  0  0  0  0  0  0
   29.0793  -20.4345  -12.6694 C   0  0  0  0  0  0  0  0  0  0  0  0
   28.3632  -20.1219  -13.9640 C   0  0  0  0  0  0  0  0  0  0  0  0
   27.0847  -19.5019  -13.4216 C   0  0  1  0  0  0  0  0  0  0  0  0
   26.0551  -19.4939  -14.5033 C   0  0  0  0  0  0  0  0  0  0  0  0
   25.5685  -20.5721  -14.8764 O   0  0  0  0  0  0  0  0  0  0  0  0
   19.3458  -14.9990  -15.8010 N   0  0  0  0  0  0  0  0  0  0  0  0
   20.6176  -14.3610  -15.8108 C   0  0  0  0  0  0  0  0  0  0  0  0
   20.7310  -13.1700  -15.3727 N   0  0  0  0  0  0  0  0  0  0  0  0
   21.7693  -15.0546  -16.3123 N   0  0  0  0  0  0  0  0  0  0  0  0
   21.6253  -16.4333  -16.7556 C   0  0  0  0  0  0  0  0  0  0  0  0
   22.9804  -16.8240  -17.3398 C   0  0  0  0  0  0  0  0  0  0  0  0
   24.0479  -16.8537  -16.2885 C   0  0  0  0  0  0  0  0  0  0  0  0
   24.5812  -18.2351  -16.1337 C   0  0  2  0  0  0  0  0  0  0  0  0
   25.6261  -18.2854  -15.1069 N   0  0  0  0  0  0  0  0  0  0  0  0
   25.0111  -18.8180  -17.3867 C   0  0  0  0  0  0  0  0  0  0  0  0
   24.1890  -19.5321  -18.2221 O   0  0  0  0  0  0  0  0  0  0  0  0
   26.2220  -18.6627  -17.7316 O   0  0  0  0  0  0  0  0  0  0  0  0
  2  1  1  6
  2  3  1  0
  4  2  1  0
  5  4  2  0
  6 10  1  0
  6  4  1  0
  7  6  1  0
  8  7  1  0
  8  9  1  0
  9 10  1  0
 10 11  1  6
 11 12  2  0
 13 14  1  0
 14 15  2  0
 16 17  1  0
 16 14  1  0
 18 17  1  0
 19 18  1  0
 20 21  1  0
 20 19  1  6
 21 11  1  0
 22 20  1  0
 23 22  1  0
 24 22  2  0
M  END
$$$$
