APR.pdb
     RDKit          3D

 24 24  0  0  1  0  0  0  0  0999 V2000
   27.2724  -21.8134  -12.9517 C   0  0  0  0  0  0  0  0  0  0  0  0
   26.9226  -20.5542  -12.1729 C   0  0  2  0  0  0  0  0  0  0  0  0
   26.6596  -20.8004  -10.7931 N   0  0  0  0  0  0  0  0  0  0  0  0
   25.9052  -19.7583  -12.8806 C   0  0  0  0  0  0  0  0  0  0  0  0
   24.7197  -19.9228  -12.5244 O   0  0  0  0  0  0  0  0  0  0  0  0
   26.2045  -18.8236  -13.9373 N   0  0  0  0  0  0  0  0  0  0  0  0
   27.5517  -18.3330  -14.1633 C   0  0  0  0  0  0  0  0  0  0  0  0
   27.4386  -17.3380  -15.2960 C   0  0  0  0  0  0  0  0  0  0  0  0
   26.1851  -17.7667  -16.0249 C   0  0  0  0  0  0  0  0  0  0  0  0
   25.3302  -18.2151  -14.8496 C   0  0  1  0  0  0  0  0  0  0  0  0
   24.2091  -19.0584  -15.3618 C   0  0  0  0  0  0  0  0  0  0  0  0
   24.4675  -20.1714  -15.8441 O   0  0  0  0  0  0  0  0  0  0  0  0
   16.5851  -21.1664  -14.2263 N   0  0  0  0  0  0  0  0  0  0  0  0
   17.2987  -22.3879  -14.3798 C   0  0  0  0  0  0  0  0  0  0  0  0
   16.8121  -23.4678  -13.9103 N   0  0  0  0  0  0  0  0  0  0  0  0
   18.5620  -22.4053  -15.0599 N   0  0  0  0  0  0  0  0  0  0  0  0
   19.6557  -21.5992  -14.5383 C   0  0  0  0  0  0  0  0  0  0  0  0
   19.4666  -20.2078  -15.1372 C   0  0  0  0  0  0  0  0  0  0  0  0
   20.5872  -19.2870  -14.7609 C   0  0  0  0  0  0  0  0  0  0  0  0
   21.7305  -19.4553  -15.6998 C   0  0  2  0  0  0  0  0  0  0  0  0
   22.8644  -18.6136  -15.3066 N   0  0  0  0  0  0  0  0  0  0  0  0
   21.3565  -19.2645  -17.0847 C   0  0  0  0  0  0  0  0  0  0  0  0
   21.4095  -18.0564  -17.7338 O   0  0  0  0  0  0  0  0  0  0  0  0
   20.9513  -20.2745  -17.7369 O   0  0  0  0  0  0  0  0  0  0  0  0
  2  1  1  6
  2  3  1  0
  4  2  1  0
  5  4  2  0
  6 10  1  0
  6  4  1  0
  7  6  1  0
  8  7  1  0
  8  9  1  0
  9 10  1  0
 10 11  1  6
 11 12  2  0
 13 14  1  0
 14 15  2  0
 16 17  1  0
 16 14  1  0
 18 17  1  0
 19 18  1  0
 20 21  1  0
 20 19  1  1
 21 11  1  0
 22 20  1  0
 23 22  1  0
 24 22  2  0
M  END
$$$$
