APR.pdb
     RDKit          3D

 24 24  0  0  1  0  0  0  0  0999 V2000
   29.6399  -23.0888  -19.3868 C   0  0  0  0  0  0  0  0  0  0  0  0
   30.1340  -22.5229  -18.0638 C   0  0  2  0  0  0  0  0  0  0  0  0
   30.5421  -23.5284  -17.1386 N   0  0  0  0  0  0  0  0  0  0  0  0
   29.1978  -21.5162  -17.5349 C   0  0  0  0  0  0  0  0  0  0  0  0
   28.3137  -21.9300  -16.7562 O   0  0  0  0  0  0  0  0  0  0  0  0
   29.2517  -20.1134  -17.8648 N   0  0  0  0  0  0  0  0  0  0  0  0
   30.3478  -19.5516  -18.6328 C   0  0  0  0  0  0  0  0  0  0  0  0
   30.0756  -18.0661  -18.7051 C   0  0  0  0  0  0  0  0  0  0  0  0
   28.5796  -17.9666  -18.5091 C   0  0  0  0  0  0  0  0  0  0  0  0
   28.3643  -19.0886  -17.5051 C   0  0  1  0  0  0  0  0  0  0  0  0
   26.9136  -19.4422  -17.4796 C   0  0  0  0  0  0  0  0  0  0  0  0
   26.4422  -20.1092  -18.4130 O   0  0  0  0  0  0  0  0  0  0  0  0
   23.3704  -24.1771  -13.0355 N   0  0  0  0  0  0  0  0  0  0  0  0
   22.6473  -23.0354  -13.4811 C   0  0  0  0  0  0  0  0  0  0  0  0
   21.5761  -23.1884  -14.1537 N   0  0  0  0  0  0  0  0  0  0  0  0
   23.1216  -21.7161  -13.1757 N   0  0  0  0  0  0  0  0  0  0  0  0
   22.3267  -20.5678  -13.5854 C   0  0  0  0  0  0  0  0  0  0  0  0
   22.8040  -20.2146  -14.9917 C   0  0  0  0  0  0  0  0  0  0  0  0
   24.2305  -19.7558  -14.9925 C   0  0  0  0  0  0  0  0  0  0  0  0
   24.6412  -19.3500  -16.3649 C   0  0  2  0  0  0  0  0  0  0  0  0
   26.0714  -19.0329  -16.4156 N   0  0  0  0  0  0  0  0  0  0  0  0
   23.8215  -18.2885  -16.9086 C   0  0  0  0  0  0  0  0  0  0  0  0
   22.6788  -18.4996  -17.6389 O   0  0  0  0  0  0  0  0  0  0  0  0
   24.1835  -17.0904  -16.7011 O   0  0  0  0  0  0  0  0  0  0  0  0
  2  1  1  6
  2  3  1  0
  4  2  1  0
  5  4  2  0
  6 10  1  0
  6  4  1  0
  7  6  1  0
  8  7  1  0
  8  9  1  0
  9 10  1  0
 10 11  1  6
 11 12  2  0
 13 14  1  0
 14 15  2  0
 16 17  1  0
 16 14  1  0
 18 17  1  0
 19 18  1  0
 20 21  1  0
 20 19  1  1
 21 11  1  0
 22 20  1  0
 23 22  1  0
 24 22  2  0
M  END
$$$$
