APR.pdb
     RDKit          3D

 24 24  0  0  1  0  0  0  0  0999 V2000
   27.3018  -21.7660  -17.8556 C   0  0  0  0  0  0  0  0  0  0  0  0
   27.4961  -21.7114  -16.3476 C   0  0  2  0  0  0  0  0  0  0  0  0
   27.7217  -22.9921  -15.7622 N   0  0  0  0  0  0  0  0  0  0  0  0
   26.4497  -20.8964  -15.7071 C   0  0  0  0  0  0  0  0  0  0  0  0
   25.4316  -21.5028  -15.3137 O   0  0  0  0  0  0  0  0  0  0  0  0
   26.5421  -19.4697  -15.5182 N   0  0  0  0  0  0  0  0  0  0  0  0
   27.7689  -18.7420  -15.7871 C   0  0  0  0  0  0  0  0  0  0  0  0
   27.4836  -17.3070  -15.4063 C   0  0  0  0  0  0  0  0  0  0  0  0
   25.9799  -17.1982  -15.5225 C   0  0  0  0  0  0  0  0  0  0  0  0
   25.5715  -18.5798  -15.0351 C   0  0  1  0  0  0  0  0  0  0  0  0
   24.1615  -18.8417  -15.4518 C   0  0  0  0  0  0  0  0  0  0  0  0
   23.9287  -19.1244  -16.6368 O   0  0  0  0  0  0  0  0  0  0  0  0
   19.8041  -22.9400   -9.9880 N   0  0  0  0  0  0  0  0  0  0  0  0
   19.5292  -23.3294  -11.3287 C   0  0  0  0  0  0  0  0  0  0  0  0
   18.7400  -24.3036  -11.5551 N   0  0  0  0  0  0  0  0  0  0  0  0
   20.1382  -22.6290  -12.4230 N   0  0  0  0  0  0  0  0  0  0  0  0
   21.0168  -21.5040  -12.1396 C   0  0  0  0  0  0  0  0  0  0  0  0
   21.4836  -20.9904  -13.4992 C   0  0  0  0  0  0  0  0  0  0  0  0
   20.9298  -19.6301  -13.7963 C   0  0  0  0  0  0  0  0  0  0  0  0
   21.6932  -18.9930  -14.9045 C   0  0  2  0  0  0  0  0  0  0  0  0
   23.0918  -18.7744  -14.5243 N   0  0  0  0  0  0  0  0  0  0  0  0
   21.0635  -17.7901  -15.4052 C   0  0  0  0  0  0  0  0  0  0  0  0
   20.0940  -17.7794  -16.3767 O   0  0  0  0  0  0  0  0  0  0  0  0
   21.4328  -16.6778  -14.9194 O   0  0  0  0  0  0  0  0  0  0  0  0
  2  1  1  6
  2  3  1  0
  4  2  1  0
  5  4  2  0
  6 10  1  0
  6  4  1  0
  7  6  1  0
  8  7  1  0
  8  9  1  0
  9 10  1  0
 10 11  1  6
 11 12  2  0
 13 14  1  0
 14 15  2  0
 16 17  1  0
 16 14  1  0
 18 17  1  0
 19 18  1  0
 20 21  1  0
 20 19  1  1
 21 11  1  0
 22 20  1  0
 23 22  1  0
 24 22  2  0
M  END
$$$$
