APR.pdb
     RDKit          3D

 24 24  0  0  1  0  0  0  0  0999 V2000
   31.8645  -20.5436   -9.2052 C   0  0  0  0  0  0  0  0  0  0  0  0
   31.3827  -21.5229   -8.1453 C   0  0  2  0  0  0  0  0  0  0  0  0
   31.9547  -22.8224   -8.2777 N   0  0  0  0  0  0  0  0  0  0  0  0
   29.9159  -21.4854   -8.0160 C   0  0  0  0  0  0  0  0  0  0  0  0
   29.2671  -22.2089   -8.8002 O   0  0  0  0  0  0  0  0  0  0  0  0
   29.2120  -20.6744   -7.0534 N   0  0  0  0  0  0  0  0  0  0  0  0
   29.9055  -19.9997   -5.9714 C   0  0  0  0  0  0  0  0  0  0  0  0
   28.8275  -19.3225   -5.1559 C   0  0  0  0  0  0  0  0  0  0  0  0
   27.6911  -19.1496   -6.1383 C   0  0  0  0  0  0  0  0  0  0  0  0
   27.8350  -20.4310   -6.9448 C   0  0  1  0  0  0  0  0  0  0  0  0
   27.0817  -20.2828   -8.2257 C   0  0  0  0  0  0  0  0  0  0  0  0
   27.3425  -19.3236   -8.9676 O   0  0  0  0  0  0  0  0  0  0  0  0
   25.2955  -23.7903  -14.8242 N   0  0  0  0  0  0  0  0  0  0  0  0
   24.0876  -23.0383  -14.8095 C   0  0  0  0  0  0  0  0  0  0  0  0
   23.4414  -22.8585  -15.8927 N   0  0  0  0  0  0  0  0  0  0  0  0
   23.5979  -22.4833  -13.5803 N   0  0  0  0  0  0  0  0  0  0  0  0
   24.3511  -22.7069  -12.3552 C   0  0  0  0  0  0  0  0  0  0  0  0
   23.5392  -22.0468  -11.2437 C   0  0  0  0  0  0  0  0  0  0  0  0
   24.2449  -22.1224   -9.9240 C   0  0  0  0  0  0  0  0  0  0  0  0
   25.3212  -21.0960   -9.8549 C   0  0  2  0  0  0  0  0  0  0  0  0
   26.0816  -21.2118   -8.6071 N   0  0  0  0  0  0  0  0  0  0  0  0
   24.8348  -19.7519  -10.0814 C   0  0  0  0  0  0  0  0  0  0  0  0
   25.0078  -19.0615  -11.2549 O   0  0  0  0  0  0  0  0  0  0  0  0
   24.2145  -19.1757   -9.1365 O   0  0  0  0  0  0  0  0  0  0  0  0
  2  1  1  6
  2  3  1  0
  4  2  1  0
  5  4  2  0
  6 10  1  0
  6  4  1  0
  7  6  1  0
  8  7  1  0
  8  9  1  0
  9 10  1  0
 10 11  1  6
 11 12  2  0
 13 14  1  0
 14 15  2  0
 16 17  1  0
 16 14  1  0
 18 17  1  0
 19 18  1  0
 20 21  1  0
 20 19  1  1
 21 11  1  0
 22 20  1  0
 23 22  1  0
 24 22  2  0
M  END
$$$$
