APR.pdb
     RDKit          3D

 24 24  0  0  1  0  0  0  0  0999 V2000
   22.8362  -20.6860  -13.0455 C   0  0  0  0  0  0  0  0  0  0  0  0
   22.9586  -21.0859  -14.5083 C   0  0  2  0  0  0  0  0  0  0  0  0
   22.4014  -20.1256  -15.4032 N   0  0  0  0  0  0  0  0  0  0  0  0
   22.5201  -22.4766  -14.7165 C   0  0  0  0  0  0  0  0  0  0  0  0
   21.2884  -22.6817  -14.7053 O   0  0  0  0  0  0  0  0  0  0  0  0
   23.4209  -23.5830  -14.9264 N   0  0  0  0  0  0  0  0  0  0  0  0
   24.8130  -23.3768  -15.2821 C   0  0  0  0  0  0  0  0  0  0  0  0
   25.3928  -24.7593  -15.4780 C   0  0  0  0  0  0  0  0  0  0  0  0
   24.4895  -25.6465  -14.6513 C   0  0  0  0  0  0  0  0  0  0  0  0
   23.1526  -24.9589  -14.8816 C   0  0  1  0  0  0  0  0  0  0  0  0
   22.1881  -25.4158  -13.8369 C   0  0  0  0  0  0  0  0  0  0  0  0
   22.4769  -25.2535  -12.6417 O   0  0  0  0  0  0  0  0  0  0  0  0
   19.6710  -23.8025   -9.2621 N   0  0  0  0  0  0  0  0  0  0  0  0
   18.5988  -24.5453   -8.6933 C   0  0  0  0  0  0  0  0  0  0  0  0
   18.6480  -24.8889   -7.4674 N   0  0  0  0  0  0  0  0  0  0  0  0
   17.4660  -24.9076   -9.4960 N   0  0  0  0  0  0  0  0  0  0  0  0
   17.5059  -24.6542  -10.9285 C   0  0  0  0  0  0  0  0  0  0  0  0
   18.3065  -25.8062  -11.5305 C   0  0  0  0  0  0  0  0  0  0  0  0
   19.2320  -25.3319  -12.6094 C   0  0  0  0  0  0  0  0  0  0  0  0
   19.9842  -26.4805  -13.1855 C   0  0  2  0  0  0  0  0  0  0  0  0
   20.9570  -26.0267  -14.1837 N   0  0  0  0  0  0  0  0  0  0  0  0
   19.1195  -27.5240  -13.6931 C   0  0  0  0  0  0  0  0  0  0  0  0
   18.4974  -28.4568  -12.9015 O   0  0  0  0  0  0  0  0  0  0  0  0
   18.9282  -27.5824  -14.9459 O   0  0  0  0  0  0  0  0  0  0  0  0
  2  1  1  1
  2  3  1  0
  4  2  1  0
  5  4  2  0
  6 10  1  0
  6  4  1  0
  7  6  1  0
  8  7  1  0
  8  9  1  0
  9 10  1  0
 10 11  1  1
 11 12  2  0
 13 14  1  0
 14 15  2  0
 16 17  1  0
 16 14  1  0
 18 17  1  0
 19 18  1  0
 20 21  1  0
 20 19  1  6
 21 11  1  0
 22 20  1  0
 23 22  1  0
 24 22  2  0
M  END
$$$$
