APR.pdb
     RDKit          3D

 24 24  0  0  1  0  0  0  0  0999 V2000
   21.0031  -10.3834  -18.3716 C   0  0  0  0  0  0  0  0  0  0  0  0
   21.7249  -10.7368  -17.0799 C   0  0  2  0  0  0  0  0  0  0  0  0
   22.0841  -12.1142  -16.9942 N   0  0  0  0  0  0  0  0  0  0  0  0
   21.0152  -10.1922  -15.9096 C   0  0  0  0  0  0  0  0  0  0  0  0
   19.9723  -10.7850  -15.5629 O   0  0  0  0  0  0  0  0  0  0  0  0
   21.4551   -9.0379  -15.1655 N   0  0  0  0  0  0  0  0  0  0  0  0
   22.7384   -8.4093  -15.4201 C   0  0  0  0  0  0  0  0  0  0  0  0
   22.8553   -7.2953  -14.4046 C   0  0  0  0  0  0  0  0  0  0  0  0
   21.4190   -6.9797  -14.0529 C   0  0  0  0  0  0  0  0  0  0  0  0
   20.8154   -8.3746  -14.1081 C   0  0  1  0  0  0  0  0  0  0  0  0
   19.3295   -8.2547  -14.1987 C   0  0  0  0  0  0  0  0  0  0  0  0
   18.8144   -7.9950  -15.2967 O   0  0  0  0  0  0  0  0  0  0  0  0
   12.2751  -10.5945   -9.0749 N   0  0  0  0  0  0  0  0  0  0  0  0
   11.8632  -10.3381  -10.4126 C   0  0  0  0  0  0  0  0  0  0  0  0
   10.6566  -10.5601  -10.7562 N   0  0  0  0  0  0  0  0  0  0  0  0
   12.8020   -9.8320  -11.3725 N   0  0  0  0  0  0  0  0  0  0  0  0
   14.2198   -9.8377  -11.0440 C   0  0  0  0  0  0  0  0  0  0  0  0
   14.9137   -9.1096  -12.1924 C   0  0  0  0  0  0  0  0  0  0  0  0
   16.4033   -9.1128  -12.0293 C   0  0  0  0  0  0  0  0  0  0  0  0
   17.0425   -8.3155  -13.1121 C   0  0  2  0  0  0  0  0  0  0  0  0
   18.5028   -8.4316  -13.0611 N   0  0  0  0  0  0  0  0  0  0  0  0
   16.5995   -6.9380  -13.1357 C   0  0  0  0  0  0  0  0  0  0  0  0
   15.5526   -6.4822  -13.8973 O   0  0  0  0  0  0  0  0  0  0  0  0
   17.2188   -6.1005  -12.4114 O   0  0  0  0  0  0  0  0  0  0  0  0
  2  1  1  6
  2  3  1  0
  4  2  1  0
  5  4  2  0
  6 10  1  0
  6  4  1  0
  7  6  1  0
  8  7  1  0
  8  9  1  0
  9 10  1  0
 10 11  1  6
 11 12  2  0
 13 14  1  0
 14 15  2  0
 16 17  1  0
 16 14  1  0
 18 17  1  0
 19 18  1  0
 20 21  1  0
 20 19  1  1
 21 11  1  0
 22 20  1  0
 23 22  1  0
 24 22  2  0
M  END
$$$$
