APR.pdb
     RDKit          3D

 24 24  0  0  1  0  0  0  0  0999 V2000
   27.8269  -16.9865  -15.6692 C   0  0  0  0  0  0  0  0  0  0  0  0
   28.3490  -18.3756  -16.0046 C   0  0  2  0  0  0  0  0  0  0  0  0
   28.1907  -18.7198  -17.3794 N   0  0  0  0  0  0  0  0  0  0  0  0
   27.8575  -19.3742  -15.0398 C   0  0  0  0  0  0  0  0  0  0  0  0
   26.7159  -19.8359  -15.2462 O   0  0  0  0  0  0  0  0  0  0  0  0
   28.6113  -19.8314  -13.8986 N   0  0  0  0  0  0  0  0  0  0  0  0
   30.0446  -19.6252  -13.7982 C   0  0  0  0  0  0  0  0  0  0  0  0
   30.4641  -20.2980  -12.5109 C   0  0  0  0  0  0  0  0  0  0  0  0
   29.1979  -20.3103  -11.6845 C   0  0  0  0  0  0  0  0  0  0  0  0
   28.1658  -20.5454  -12.7766 C   0  0  1  0  0  0  0  0  0  0  0  0
   26.8154  -20.1848  -12.2506 C   0  0  0  0  0  0  0  0  0  0  0  0
   26.5266  -18.9869  -12.1098 O   0  0  0  0  0  0  0  0  0  0  0  0
   19.7717  -19.3428  -14.3900 N   0  0  0  0  0  0  0  0  0  0  0  0
   19.1483  -19.9627  -13.2712 C   0  0  0  0  0  0  0  0  0  0  0  0
   18.0140  -19.5455  -12.8678 N   0  0  0  0  0  0  0  0  0  0  0  0
   19.7934  -21.0534  -12.5981 N   0  0  0  0  0  0  0  0  0  0  0  0
   21.0808  -21.5230  -13.0881 C   0  0  0  0  0  0  0  0  0  0  0  0
   22.1132  -21.0304  -12.0773 C   0  0  0  0  0  0  0  0  0  0  0  0
   23.5055  -21.4137  -12.4775 C   0  0  0  0  0  0  0  0  0  0  0  0
   24.4913  -20.8632  -11.5070 C   0  0  2  0  0  0  0  0  0  0  0  0
   25.8639  -21.1794  -11.9124 N   0  0  0  0  0  0  0  0  0  0  0  0
   24.2163  -21.2530  -10.1407 C   0  0  0  0  0  0  0  0  0  0  0  0
   23.2616  -20.6613   -9.3519 O   0  0  0  0  0  0  0  0  0  0  0  0
   24.9019  -22.1961   -9.6407 O   0  0  0  0  0  0  0  0  0  0  0  0
  2  1  1  6
  2  3  1  0
  4  2  1  0
  5  4  2  0
  6 10  1  0
  6  4  1  0
  7  6  1  0
  8  7  1  0
  8  9  1  0
  9 10  1  0
 10 11  1  1
 11 12  2  0
 13 14  1  0
 14 15  2  0
 16 17  1  0
 16 14  1  0
 18 17  1  0
 19 18  1  0
 20 21  1  0
 20 19  1  6
 21 11  1  0
 22 20  1  0
 23 22  1  0
 24 22  2  0
M  END
$$$$
