APR.pdb
     RDKit          3D

 24 24  0  0  1  0  0  0  0  0999 V2000
   28.6327  -17.7991  -15.8253 C   0  0  0  0  0  0  0  0  0  0  0  0
   29.0876  -19.2499  -15.8775 C   0  0  2  0  0  0  0  0  0  0  0  0
   28.9714  -19.8302  -17.1750 N   0  0  0  0  0  0  0  0  0  0  0  0
   28.4964  -20.0311  -14.7777 C   0  0  0  0  0  0  0  0  0  0  0  0
   27.3305  -20.4442  -14.9496 O   0  0  0  0  0  0  0  0  0  0  0  0
   29.1808  -20.3333  -13.5449 N   0  0  0  0  0  0  0  0  0  0  0  0
   30.6115  -20.1372  -13.3983 C   0  0  0  0  0  0  0  0  0  0  0  0
   30.9498  -20.6267  -12.0085 C   0  0  0  0  0  0  0  0  0  0  0  0
   29.6436  -20.5017  -11.2573 C   0  0  0  0  0  0  0  0  0  0  0  0
   28.6628  -20.8736  -12.3587 C   0  0  1  0  0  0  0  0  0  0  0  0
   27.2962  -20.4210  -11.9616 C   0  0  0  0  0  0  0  0  0  0  0  0
   27.0706  -19.2050  -11.8679 O   0  0  0  0  0  0  0  0  0  0  0  0
   18.6430  -21.9615  -12.2128 N   0  0  0  0  0  0  0  0  0  0  0  0
   19.0728  -20.8091  -12.9283 C   0  0  0  0  0  0  0  0  0  0  0  0
   18.2158  -20.0798  -13.5259 N   0  0  0  0  0  0  0  0  0  0  0  0
   20.4657  -20.4682  -12.9783 N   0  0  0  0  0  0  0  0  0  0  0  0
   21.4565  -21.5242  -12.8315 C   0  0  0  0  0  0  0  0  0  0  0  0
   22.5281  -20.9600  -11.9023 C   0  0  0  0  0  0  0  0  0  0  0  0
   23.8954  -21.4468  -12.2753 C   0  0  0  0  0  0  0  0  0  0  0  0
   24.9056  -20.9403  -11.3058 C   0  0  2  0  0  0  0  0  0  0  0  0
   26.2591  -21.3488  -11.6924 N   0  0  0  0  0  0  0  0  0  0  0  0
   24.5956  -21.2862   -9.9352 C   0  0  0  0  0  0  0  0  0  0  0  0
   23.7714  -20.5458   -9.1251 O   0  0  0  0  0  0  0  0  0  0  0  0
   25.1208  -22.3353   -9.4521 O   0  0  0  0  0  0  0  0  0  0  0  0
  2  1  1  6
  2  3  1  0
  4  2  1  0
  5  4  2  0
  6 10  1  0
  6  4  1  0
  7  6  1  0
  8  7  1  0
  8  9  1  0
  9 10  1  0
 10 11  1  1
 11 12  2  0
 13 14  1  0
 14 15  2  0
 16 17  1  0
 16 14  1  0
 18 17  1  0
 19 18  1  0
 20 21  1  0
 20 19  1  6
 21 11  1  0
 22 20  1  0
 23 22  1  0
 24 22  2  0
M  END
$$$$
