APR.pdb
     RDKit          3D

 24 24  0  0  1  0  0  0  0  0999 V2000
   24.3830  -14.3385  -14.9938 C   0  0  0  0  0  0  0  0  0  0  0  0
   24.8334  -15.0495  -16.2611 C   0  0  2  0  0  0  0  0  0  0  0  0
   24.0589  -14.7025  -17.4071 N   0  0  0  0  0  0  0  0  0  0  0  0
   25.0074  -16.4931  -16.0262 C   0  0  0  0  0  0  0  0  0  0  0  0
   23.9645  -17.1708  -15.9151 O   0  0  0  0  0  0  0  0  0  0  0  0
   26.2900  -17.1438  -15.9207 N   0  0  0  0  0  0  0  0  0  0  0  0
   27.5185  -16.4770  -16.3119 C   0  0  0  0  0  0  0  0  0  0  0  0
   28.6161  -17.4987  -16.1191 C   0  0  0  0  0  0  0  0  0  0  0  0
   28.0468  -18.4449  -15.0861 C   0  0  0  0  0  0  0  0  0  0  0  0
   26.5841  -18.4499  -15.5028 C   0  0  1  0  0  0  0  0  0  0  0  0
   25.7633  -18.9901  -14.3781 C   0  0  0  0  0  0  0  0  0  0  0  0
   25.6000  -18.2925  -13.3656 O   0  0  0  0  0  0  0  0  0  0  0  0
   18.4135  -21.8516  -12.9834 N   0  0  0  0  0  0  0  0  0  0  0  0
   18.9766  -21.9978  -11.6849 C   0  0  0  0  0  0  0  0  0  0  0  0
   18.2738  -22.4889  -10.7424 N   0  0  0  0  0  0  0  0  0  0  0  0
   20.3307  -21.5935  -11.4356 N   0  0  0  0  0  0  0  0  0  0  0  0
   21.1035  -21.0077  -12.5208 C   0  0  0  0  0  0  0  0  0  0  0  0
   22.2691  -21.9635  -12.7618 C   0  0  0  0  0  0  0  0  0  0  0  0
   23.1394  -21.5007  -13.8904 C   0  0  0  0  0  0  0  0  0  0  0  0
   24.3634  -20.8391  -13.3603 C   0  0  2  0  0  0  0  0  0  0  0  0
   25.1712  -20.2760  -14.4460 N   0  0  0  0  0  0  0  0  0  0  0  0
   25.1351  -21.6967  -12.4866 C   0  0  0  0  0  0  0  0  0  0  0  0
   24.9169  -21.8114  -11.1364 O   0  0  0  0  0  0  0  0  0  0  0  0
   26.0725  -22.3808  -12.9992 O   0  0  0  0  0  0  0  0  0  0  0  0
  2  1  1  1
  2  3  1  0
  4  2  1  0
  5  4  2  0
  6 10  1  0
  6  4  1  0
  7  6  1  0
  8  7  1  0
  8  9  1  0
  9 10  1  0
 10 11  1  1
 11 12  2  0
 13 14  1  0
 14 15  2  0
 16 17  1  0
 16 14  1  0
 18 17  1  0
 19 18  1  0
 20 21  1  0
 20 19  1  6
 21 11  1  0
 22 20  1  0
 23 22  1  0
 24 22  2  0
M  END
$$$$
