FFQ.pdb
     RDKit          3D

 32 33  0  0  1  0  0  0  0  0999 V2000
    9.4053  -16.6128   18.9653 N   0  0  0  0  0  0  0  0  0  0  0  0
    9.1612  -17.3413   20.1810 C   0  0  1  0  0  0  0  0  0  0  0  0
   10.0984  -18.5314   20.1913 C   0  0  0  0  0  0  0  0  0  0  0  0
    9.8835  -19.3844   21.3848 C   0  0  0  0  0  0  0  0  0  0  0  0
   10.8434  -19.4531   22.3498 C   0  0  0  0  0  0  0  0  0  0  0  0
   10.6369  -20.2496   23.4594 C   0  0  0  0  0  0  0  0  0  0  0  0
    9.4693  -20.9764   23.6018 C   0  0  0  0  0  0  0  0  0  0  0  0
    8.5215  -20.8907   22.6201 C   0  0  0  0  0  0  0  0  0  0  0  0
    8.7123  -20.1008   21.5070 C   0  0  0  0  0  0  0  0  0  0  0  0
    9.3636  -16.4662   21.3534 C   0  0  0  0  0  0  0  0  0  0  0  0
   10.5173  -16.0053   21.6318 O   0  0  0  0  0  0  0  0  0  0  0  0
    8.3124  -16.1053   22.2043 N   0  0  0  0  0  0  0  0  0  0  0  0
    8.5159  -15.1828   23.3580 C   0  0  1  0  0  0  0  0  0  0  0  0
    7.2332  -14.4441   23.5403 C   0  0  0  0  0  0  0  0  0  0  0  0
    7.0890  -13.6378   24.7551 C   0  0  0  0  0  0  0  0  0  0  0  0
    6.3485  -13.9938   25.8584 C   0  0  0  0  0  0  0  0  0  0  0  0
    6.2516  -13.1928   26.9771 C   0  0  0  0  0  0  0  0  0  0  0  0
    6.9046  -11.9828   27.0339 C   0  0  0  0  0  0  0  0  0  0  0  0
    7.6535  -11.6037   25.9395 C   0  0  0  0  0  0  0  0  0  0  0  0
    7.7434  -12.4094   24.8300 C   0  0  0  0  0  0  0  0  0  0  0  0
    8.8070  -16.0373   24.5124 C   0  0  0  0  0  0  0  0  0  0  0  0
    8.0181  -17.0204   24.7446 O   0  0  0  0  0  0  0  0  0  0  0  0
   14.2885  -17.7241   24.3682 N   0  0  0  0  0  0  0  0  0  0  0  0
   13.3393  -18.1819   25.3340 C   0  0  0  0  0  0  0  0  0  0  0  0
   13.2934  -19.4365   25.5008 O   0  0  0  0  0  0  0  0  0  0  0  0
   12.4644  -17.2449   26.0917 C   0  0  0  0  0  0  0  0  0  0  0  0
   11.0796  -17.8463   26.1176 C   0  0  0  0  0  0  0  0  0  0  0  0
   10.0347  -16.8100   26.5136 C   0  0  2  0  0  0  0  0  0  0  0  0
    9.8965  -15.8823   25.4059 N   0  0  0  0  0  0  0  0  0  0  0  0
   10.3825  -16.1626   27.7876 C   0  0  0  0  0  0  0  0  0  0  0  0
   10.5650  -16.9280   28.9615 O   0  0  0  0  0  0  0  0  0  0  0  0
   10.5446  -14.9287   27.9560 O   0  0  0  0  0  0  0  0  0  0  0  0
  2 10  1  0
  2  3  1  0
  2  1  1  6
  3  4  1  0
  4  5  2  0
  5  6  1  0
  7  6  2  0
  8  7  1  0
  9  8  2  0
  9  4  1  0
 10 11  2  0
 12 13  1  0
 12 10  1  0
 13 21  1  0
 13 14  1  1
 15 14  1  0
 16 15  2  0
 17 16  1  0
 18 17  2  0
 18 19  1  0
 19 20  2  0
 20 15  1  0
 21 22  2  0
 21 29  1  0
 23 24  1  0
 24 26  1  0
 24 25  2  0
 26 27  1  0
 28 27  1  6
 28 30  1  0
 29 28  1  0
 30 32  2  0
 30 31  1  0
M  END
$$$$
