FFQ.pdb
     RDKit          3D

 32 33  0  0  1  0  0  0  0  0999 V2000
    9.7476  -17.9437   20.7082 N   0  0  0  0  0  0  0  0  0  0  0  0
    9.2755  -16.6594   21.1511 C   0  0  1  0  0  0  0  0  0  0  0  0
    7.9455  -16.4072   20.4711 C   0  0  0  0  0  0  0  0  0  0  0  0
    7.8107  -14.9936   20.0444 C   0  0  0  0  0  0  0  0  0  0  0  0
    8.8169  -14.1105   20.2993 C   0  0  0  0  0  0  0  0  0  0  0  0
    8.6851  -12.7950   19.8990 C   0  0  0  0  0  0  0  0  0  0  0  0
    7.5460  -12.3650   19.2438 C   0  0  0  0  0  0  0  0  0  0  0  0
    6.5506  -13.2701   18.9998 C   0  0  0  0  0  0  0  0  0  0  0  0
    6.6666  -14.5859   19.3928 C   0  0  0  0  0  0  0  0  0  0  0  0
    9.1590  -16.6349   22.6231 C   0  0  0  0  0  0  0  0  0  0  0  0
    9.9995  -17.2513   23.3542 O   0  0  0  0  0  0  0  0  0  0  0  0
    8.1337  -15.9428   23.2780 N   0  0  0  0  0  0  0  0  0  0  0  0
    8.3710  -15.2082   24.5538 C   0  0  1  0  0  0  0  0  0  0  0  0
    7.3112  -14.1625   24.6432 C   0  0  0  0  0  0  0  0  0  0  0  0
    7.2430  -13.3792   25.8795 C   0  0  0  0  0  0  0  0  0  0  0  0
    8.3137  -13.0888   26.6929 C   0  0  0  0  0  0  0  0  0  0  0  0
    8.1887  -12.3428   27.8463 C   0  0  0  0  0  0  0  0  0  0  0  0
    6.9640  -11.8505   28.2356 C   0  0  0  0  0  0  0  0  0  0  0  0
    5.8750  -12.1285   27.4362 C   0  0  0  0  0  0  0  0  0  0  0  0
    6.0107  -12.8728   26.2890 C   0  0  0  0  0  0  0  0  0  0  0  0
    8.2317  -16.2003   25.6234 C   0  0  0  0  0  0  0  0  0  0  0  0
    8.5256  -15.8397   26.8176 O   0  0  0  0  0  0  0  0  0  0  0  0
    6.2797  -20.7434   22.8046 N   0  0  0  0  0  0  0  0  0  0  0  0
    6.1552  -20.7754   24.2282 C   0  0  0  0  0  0  0  0  0  0  0  0
    6.0673  -21.9297   24.7418 O   0  0  0  0  0  0  0  0  0  0  0  0
    6.1308  -19.5338   25.0500 C   0  0  0  0  0  0  0  0  0  0  0  0
    7.1124  -19.7256   26.1814 C   0  0  0  0  0  0  0  0  0  0  0  0
    7.7045  -18.3951   26.6303 C   0  0  2  0  0  0  0  0  0  0  0  0
    7.7907  -17.5379   25.4623 N   0  0  0  0  0  0  0  0  0  0  0  0
    8.9901  -18.5890   27.3180 C   0  0  0  0  0  0  0  0  0  0  0  0
    9.0324  -18.9996   28.6697 O   0  0  0  0  0  0  0  0  0  0  0  0
   10.1230  -18.4190   26.8036 O   0  0  0  0  0  0  0  0  0  0  0  0
  2 10  1  0
  2  3  1  0
  2  1  1  1
  3  4  1  0
  4  5  2  0
  5  6  1  0
  7  6  2  0
  8  7  1  0
  9  8  2  0
  9  4  1  0
 10 11  2  0
 12 13  1  0
 12 10  1  0
 13 21  1  0
 13 14  1  1
 15 14  1  0
 16 15  2  0
 17 16  1  0
 18 17  2  0
 18 19  1  0
 19 20  2  0
 20 15  1  0
 21 22  2  0
 21 29  1  0
 23 24  1  0
 24 26  1  0
 24 25  2  0
 26 27  1  0
 28 27  1  6
 28 30  1  0
 29 28  1  0
 30 32  2  0
 30 31  1  0
M  END
$$$$
