FFQ.pdb
     RDKit          3D

 32 33  0  0  1  0  0  0  0  0999 V2000
    9.8715  -16.7633   19.3532 N   0  0  0  0  0  0  0  0  0  0  0  0
    8.9985  -17.0381   20.4626 C   0  0  1  0  0  0  0  0  0  0  0  0
    9.2517  -18.4679   20.8943 C   0  0  0  0  0  0  0  0  0  0  0  0
    8.5313  -19.4340   20.0304 C   0  0  0  0  0  0  0  0  0  0  0  0
    7.4229  -20.0700   20.5037 C   0  0  0  0  0  0  0  0  0  0  0  0
    6.7562  -20.9687   19.6937 C   0  0  0  0  0  0  0  0  0  0  0  0
    7.2001  -21.2296   18.4104 C   0  0  0  0  0  0  0  0  0  0  0  0
    8.3145  -20.5788   17.9587 C   0  0  0  0  0  0  0  0  0  0  0  0
    8.9909  -19.6795   18.7543 C   0  0  0  0  0  0  0  0  0  0  0  0
    9.2416  -16.0772   21.5575 C   0  0  0  0  0  0  0  0  0  0  0  0
   10.4168  -15.6548   21.8056 O   0  0  0  0  0  0  0  0  0  0  0  0
    8.2072  -15.5902   22.3650 N   0  0  0  0  0  0  0  0  0  0  0  0
    8.4627  -14.6272   23.4745 C   0  0  1  0  0  0  0  0  0  0  0  0
    7.1555  -13.9772   23.7798 C   0  0  0  0  0  0  0  0  0  0  0  0
    7.0794  -13.1582   24.9922 C   0  0  0  0  0  0  0  0  0  0  0  0
    7.8283  -12.0298   25.2337 C   0  0  0  0  0  0  0  0  0  0  0  0
    7.7113  -11.2962   26.3958 C   0  0  0  0  0  0  0  0  0  0  0  0
    6.8237  -11.6720   27.3779 C   0  0  0  0  0  0  0  0  0  0  0  0
    6.0615  -12.8004   27.1590 C   0  0  0  0  0  0  0  0  0  0  0  0
    6.1859  -13.5241   25.9974 C   0  0  0  0  0  0  0  0  0  0  0  0
    8.9351  -15.4301   24.6057 C   0  0  0  0  0  0  0  0  0  0  0  0
    8.2097  -16.4161   24.9856 O   0  0  0  0  0  0  0  0  0  0  0  0
   14.8177  -15.9570   25.0733 N   0  0  0  0  0  0  0  0  0  0  0  0
   13.8044  -16.8416   24.5895 C   0  0  0  0  0  0  0  0  0  0  0  0
   14.2230  -17.9209   24.0760 O   0  0  0  0  0  0  0  0  0  0  0  0
   12.3548  -16.5139   24.6840 C   0  0  0  0  0  0  0  0  0  0  0  0
   11.9918  -16.5055   26.1497 C   0  0  0  0  0  0  0  0  0  0  0  0
   10.5176  -16.1762   26.3516 C   0  0  2  0  0  0  0  0  0  0  0  0
   10.1379  -15.2215   25.3265 N   0  0  0  0  0  0  0  0  0  0  0  0
   10.2592  -15.7073   27.7215 C   0  0  0  0  0  0  0  0  0  0  0  0
   10.4378  -16.5697   28.8268 O   0  0  0  0  0  0  0  0  0  0  0  0
    9.8735  -14.5540   28.0350 O   0  0  0  0  0  0  0  0  0  0  0  0
  2 10  1  0
  2  3  1  0
  2  1  1  6
  3  4  1  0
  4  5  2  0
  5  6  1  0
  7  6  2  0
  8  7  1  0
  9  8  2  0
  9  4  1  0
 10 11  2  0
 12 13  1  0
 12 10  1  0
 13 21  1  0
 13 14  1  1
 15 14  1  0
 16 15  2  0
 17 16  1  0
 18 17  2  0
 18 19  1  0
 19 20  2  0
 20 15  1  0
 21 22  2  0
 21 29  1  0
 23 24  1  0
 24 26  1  0
 24 25  2  0
 26 27  1  0
 28 27  1  1
 28 30  1  0
 29 28  1  0
 30 32  2  0
 30 31  1  0
M  END
$$$$
