FFQ.pdb
     RDKit          3D

 32 33  0  0  1  0  0  0  0  0999 V2000
    4.7976  -15.8847   22.0455 N   0  0  0  0  0  0  0  0  0  0  0  0
    6.0761  -16.5379   22.1308 C   0  0  1  0  0  0  0  0  0  0  0  0
    6.6538  -16.5862   20.7312 C   0  0  0  0  0  0  0  0  0  0  0  0
    7.1779  -15.2642   20.3117 C   0  0  0  0  0  0  0  0  0  0  0  0
    7.0974  -14.2028   21.1627 C   0  0  0  0  0  0  0  0  0  0  0  0
    7.5878  -12.9739   20.7659 C   0  0  0  0  0  0  0  0  0  0  0  0
    8.1584  -12.8090   19.5172 C   0  0  0  0  0  0  0  0  0  0  0  0
    8.2274  -13.8891   18.6817 C   0  0  0  0  0  0  0  0  0  0  0  0
    7.7427  -15.1217   19.0626 C   0  0  0  0  0  0  0  0  0  0  0  0
    6.9590  -15.8176   23.0704 C   0  0  0  0  0  0  0  0  0  0  0  0
    7.1001  -14.5545   22.9946 O   0  0  0  0  0  0  0  0  0  0  0  0
    7.6740  -16.4781   24.0762 N   0  0  0  0  0  0  0  0  0  0  0  0
    8.6657  -15.7665   24.9328 C   0  0  1  0  0  0  0  0  0  0  0  0
    8.0281  -15.6023   26.2710 C   0  0  0  0  0  0  0  0  0  0  0  0
    8.8292  -14.9737   27.3243 C   0  0  0  0  0  0  0  0  0  0  0  0
    8.9353  -13.6186   27.5363 C   0  0  0  0  0  0  0  0  0  0  0  0
    9.7050  -13.0837   28.5482 C   0  0  0  0  0  0  0  0  0  0  0  0
   10.4105  -13.9008   29.4015 C   0  0  0  0  0  0  0  0  0  0  0  0
   10.3202  -15.2636   29.2090 C   0  0  0  0  0  0  0  0  0  0  0  0
    9.5503  -15.7860   28.1977 C   0  0  0  0  0  0  0  0  0  0  0  0
    9.8386  -16.6419   25.0057 C   0  0  0  0  0  0  0  0  0  0  0  0
    9.6437  -17.8875   25.2365 O   0  0  0  0  0  0  0  0  0  0  0  0
   10.0848  -18.1265   20.1915 N   0  0  0  0  0  0  0  0  0  0  0  0
   11.4545  -17.7242   20.2648 C   0  0  0  0  0  0  0  0  0  0  0  0
   11.9778  -17.3697   19.1674 O   0  0  0  0  0  0  0  0  0  0  0  0
   12.2129  -17.7227   21.5464 C   0  0  0  0  0  0  0  0  0  0  0  0
   11.3613  -17.0112   22.5705 C   0  0  0  0  0  0  0  0  0  0  0  0
   12.0388  -16.9927   23.9354 C   0  0  2  0  0  0  0  0  0  0  0  0
   11.1871  -16.2385   24.8367 N   0  0  0  0  0  0  0  0  0  0  0  0
   13.4107  -16.4707   23.8423 C   0  0  0  0  0  0  0  0  0  0  0  0
   13.7609  -15.2451   24.4528 O   0  0  0  0  0  0  0  0  0  0  0  0
   14.3624  -17.0293   23.2431 O   0  0  0  0  0  0  0  0  0  0  0  0
  2 10  1  0
  2  3  1  0
  2  1  1  6
  3  4  1  0
  4  5  2  0
  5  6  1  0
  7  6  2  0
  8  7  1  0
  9  8  2  0
  9  4  1  0
 10 11  2  0
 12 13  1  0
 12 10  1  0
 13 21  1  0
 13 14  1  1
 15 14  1  0
 16 15  2  0
 17 16  1  0
 18 17  2  0
 18 19  1  0
 19 20  2  0
 20 15  1  0
 21 22  2  0
 21 29  1  0
 23 24  1  0
 24 26  1  0
 24 25  2  0
 26 27  1  0
 28 27  1  6
 28 30  1  0
 29 28  1  0
 30 32  2  0
 30 31  1  0
M  END
$$$$
