FFQ.pdb
     RDKit          3D

 32 33  0  0  1  0  0  0  0  0999 V2000
    8.3209  -17.3915   20.5280 N   0  0  0  0  0  0  0  0  0  0  0  0
    9.5992  -16.7427   20.6443 C   0  0  1  0  0  0  0  0  0  0  0  0
    9.7665  -15.8520   19.4304 C   0  0  0  0  0  0  0  0  0  0  0  0
    8.8092  -14.7199   19.4486 C   0  0  0  0  0  0  0  0  0  0  0  0
    9.2625  -13.4532   19.6656 C   0  0  0  0  0  0  0  0  0  0  0  0
    8.3654  -12.4029   19.6812 C   0  0  0  0  0  0  0  0  0  0  0  0
    7.0152  -12.6220   19.4793 C   0  0  0  0  0  0  0  0  0  0  0  0
    6.5852  -13.9019   19.2637 C   0  0  0  0  0  0  0  0  0  0  0  0
    7.4673  -14.9605   19.2453 C   0  0  0  0  0  0  0  0  0  0  0  0
    9.6748  -15.9796   21.9065 C   0  0  0  0  0  0  0  0  0  0  0  0
   10.7690  -15.4485   22.2829 O   0  0  0  0  0  0  0  0  0  0  0  0
    8.5635  -15.8047   22.7393 N   0  0  0  0  0  0  0  0  0  0  0  0
    8.6679  -15.1095   24.0543 C   0  0  1  0  0  0  0  0  0  0  0  0
    7.3993  -14.3454   24.2308 C   0  0  0  0  0  0  0  0  0  0  0  0
    7.2163  -13.6303   25.4963 C   0  0  0  0  0  0  0  0  0  0  0  0
    6.2543  -13.9183   26.4366 C   0  0  0  0  0  0  0  0  0  0  0  0
    6.1314  -13.2100   27.6137 C   0  0  0  0  0  0  0  0  0  0  0  0
    6.9830  -12.1672   27.8986 C   0  0  0  0  0  0  0  0  0  0  0  0
    7.9561  -11.8591   26.9710 C   0  0  0  0  0  0  0  0  0  0  0  0
    8.0697  -12.5714   25.8013 C   0  0  0  0  0  0  0  0  0  0  0  0
    8.7974  -16.1664   25.0611 C   0  0  0  0  0  0  0  0  0  0  0  0
    8.0784  -17.2183   24.9221 O   0  0  0  0  0  0  0  0  0  0  0  0
   11.7100  -20.1935   24.5439 N   0  0  0  0  0  0  0  0  0  0  0  0
   12.4702  -19.0541   24.9529 C   0  0  0  0  0  0  0  0  0  0  0  0
   13.6494  -18.9929   24.4953 O   0  0  0  0  0  0  0  0  0  0  0  0
   11.9109  -18.0106   25.8561 C   0  0  0  0  0  0  0  0  0  0  0  0
   10.4810  -18.3944   26.1533 C   0  0  0  0  0  0  0  0  0  0  0  0
    9.7892  -17.3336   27.0010 C   0  0  2  0  0  0  0  0  0  0  0  0
    9.6586  -16.1392   26.1868 N   0  0  0  0  0  0  0  0  0  0  0  0
   10.5058  -17.1117   28.2661 C   0  0  0  0  0  0  0  0  0  0  0  0
   10.8869  -15.8098   28.6626 O   0  0  0  0  0  0  0  0  0  0  0  0
   10.8361  -18.0076   29.0818 O   0  0  0  0  0  0  0  0  0  0  0  0
  2 10  1  0
  2  3  1  0
  2  1  1  6
  3  4  1  0
  4  5  2  0
  5  6  1  0
  7  6  2  0
  8  7  1  0
  9  8  2  0
  9  4  1  0
 10 11  2  0
 12 13  1  0
 12 10  1  0
 13 21  1  0
 13 14  1  1
 15 14  1  0
 16 15  2  0
 17 16  1  0
 18 17  2  0
 18 19  1  0
 19 20  2  0
 20 15  1  0
 21 22  2  0
 21 29  1  0
 23 24  1  0
 24 26  1  0
 24 25  2  0
 26 27  1  0
 28 27  1  6
 28 30  1  0
 29 28  1  0
 30 32  2  0
 30 31  1  0
M  END
$$$$
