FFQ.pdb
     RDKit          3D

 32 33  0  0  1  0  0  0  0  0999 V2000
    5.9460  -17.3393   20.2694 N   0  0  0  0  0  0  0  0  0  0  0  0
    7.1270  -17.1664   21.0718 C   0  0  1  0  0  0  0  0  0  0  0  0
    8.2137  -16.6240   20.1664 C   0  0  0  0  0  0  0  0  0  0  0  0
    7.9871  -15.1961   19.8376 C   0  0  0  0  0  0  0  0  0  0  0  0
    8.7364  -14.2340   20.4460 C   0  0  0  0  0  0  0  0  0  0  0  0
    8.5205  -12.9055   20.1351 C   0  0  0  0  0  0  0  0  0  0  0  0
    7.5545  -12.5416   19.2152 C   0  0  0  0  0  0  0  0  0  0  0  0
    6.8158  -13.5254   18.6184 C   0  0  0  0  0  0  0  0  0  0  0  0
    7.0189  -14.8552   18.9178 C   0  0  0  0  0  0  0  0  0  0  0  0
    6.8490  -16.2632   22.2067 C   0  0  0  0  0  0  0  0  0  0  0  0
    5.9445  -15.3710   22.1238 O   0  0  0  0  0  0  0  0  0  0  0  0
    7.5557  -16.3421   23.4123 N   0  0  0  0  0  0  0  0  0  0  0  0
    7.8460  -15.1323   24.2342 C   0  0  1  0  0  0  0  0  0  0  0  0
    7.1157  -15.3108   25.5223 C   0  0  0  0  0  0  0  0  0  0  0  0
    7.2414  -14.2444   26.5192 C   0  0  0  0  0  0  0  0  0  0  0  0
    6.4178  -13.1464   26.6122 C   0  0  0  0  0  0  0  0  0  0  0  0
    6.5839  -12.1737   27.5758 C   0  0  0  0  0  0  0  0  0  0  0  0
    7.5998  -12.2656   28.4995 C   0  0  0  0  0  0  0  0  0  0  0  0
    8.4390  -13.3577   28.4267 C   0  0  0  0  0  0  0  0  0  0  0  0
    8.2646  -14.3212   27.4625 C   0  0  0  0  0  0  0  0  0  0  0  0
    9.2967  -15.1231   24.4415 C   0  0  0  0  0  0  0  0  0  0  0  0
    9.7853  -14.2310   25.2213 O   0  0  0  0  0  0  0  0  0  0  0  0
   10.0881  -17.9320   29.2364 N   0  0  0  0  0  0  0  0  0  0  0  0
   11.0336  -17.8423   28.1681 C   0  0  0  0  0  0  0  0  0  0  0  0
   11.8882  -18.7756   28.1169 O   0  0  0  0  0  0  0  0  0  0  0  0
   11.0132  -16.7258   27.1829 C   0  0  0  0  0  0  0  0  0  0  0  0
   10.5700  -17.3033   25.8599 C   0  0  0  0  0  0  0  0  0  0  0  0
   11.2589  -16.6048   24.6938 C   0  0  2  0  0  0  0  0  0  0  0  0
   10.2240  -16.0232   23.8588 N   0  0  0  0  0  0  0  0  0  0  0  0
   12.1522  -17.5251   23.9739 C   0  0  0  0  0  0  0  0  0  0  0  0
   13.5260  -17.6000   24.2970 O   0  0  0  0  0  0  0  0  0  0  0  0
   11.8060  -18.2985   23.0470 O   0  0  0  0  0  0  0  0  0  0  0  0
  2 10  1  0
  2  3  1  0
  2  1  1  6
  3  4  1  0
  4  5  2  0
  5  6  1  0
  7  6  2  0
  8  7  1  0
  9  8  2  0
  9  4  1  0
 10 11  2  0
 12 13  1  0
 12 10  1  0
 13 21  1  0
 13 14  1  1
 15 14  1  0
 16 15  2  0
 17 16  1  0
 18 17  2  0
 18 19  1  0
 19 20  2  0
 20 15  1  0
 21 22  2  0
 21 29  1  0
 23 24  1  0
 24 26  1  0
 24 25  2  0
 26 27  1  0
 28 27  1  1
 28 30  1  0
 29 28  1  0
 30 32  2  0
 30 31  1  0
M  END
$$$$
