FFQ.pdb
     RDKit          3D

 32 33  0  0  1  0  0  0  0  0999 V2000
    7.2902  -17.7906   21.5077 N   0  0  0  0  0  0  0  0  0  0  0  0
    7.8061  -16.4883   21.1819 C   0  0  1  0  0  0  0  0  0  0  0  0
    6.6230  -15.6042   20.8448 C   0  0  0  0  0  0  0  0  0  0  0  0
    7.0582  -14.2746   20.3540 C   0  0  0  0  0  0  0  0  0  0  0  0
    7.0826  -13.2124   21.2074 C   0  0  0  0  0  0  0  0  0  0  0  0
    7.4893  -11.9763   20.7439 C   0  0  0  0  0  0  0  0  0  0  0  0
    7.8713  -11.8050   19.4261 C   0  0  0  0  0  0  0  0  0  0  0  0
    7.8381  -12.8860   18.5895 C   0  0  0  0  0  0  0  0  0  0  0  0
    7.4348  -14.1257   19.0365 C   0  0  0  0  0  0  0  0  0  0  0  0
    8.5955  -15.9520   22.3090 C   0  0  0  0  0  0  0  0  0  0  0  0
    9.5256  -15.1057   22.1095 O   0  0  0  0  0  0  0  0  0  0  0  0
    8.3637  -16.3417   23.6332 N   0  0  0  0  0  0  0  0  0  0  0  0
    9.1107  -15.7367   24.7732 C   0  0  1  0  0  0  0  0  0  0  0  0
    8.1584  -15.6786   25.9196 C   0  0  0  0  0  0  0  0  0  0  0  0
    7.5821  -14.3723   26.2486 C   0  0  0  0  0  0  0  0  0  0  0  0
    6.2393  -14.0738   26.2372 C   0  0  0  0  0  0  0  0  0  0  0  0
    5.7543  -12.8234   26.5595 C   0  0  0  0  0  0  0  0  0  0  0  0
    6.6117  -11.8063   26.9116 C   0  0  0  0  0  0  0  0  0  0  0  0
    7.9631  -12.0811   26.9302 C   0  0  0  0  0  0  0  0  0  0  0  0
    8.4357  -13.3305   26.6074 C   0  0  0  0  0  0  0  0  0  0  0  0
   10.2260  -16.6451   25.0531 C   0  0  0  0  0  0  0  0  0  0  0  0
    9.9598  -17.8875   25.2209 O   0  0  0  0  0  0  0  0  0  0  0  0
   16.1683  -15.7317   23.5299 N   0  0  0  0  0  0  0  0  0  0  0  0
   16.2110  -17.0641   24.0460 C   0  0  0  0  0  0  0  0  0  0  0  0
   17.3412  -17.6329   23.9934 O   0  0  0  0  0  0  0  0  0  0  0  0
   15.0063  -17.7359   24.6070 C   0  0  0  0  0  0  0  0  0  0  0  0
   13.8901  -16.7190   24.6180 C   0  0  0  0  0  0  0  0  0  0  0  0
   12.6013  -17.3194   25.1664 C   0  0  2  0  0  0  0  0  0  0  0  0
   11.5915  -16.2770   25.1513 N   0  0  0  0  0  0  0  0  0  0  0  0
   12.8143  -17.9175   26.4931 C   0  0  0  0  0  0  0  0  0  0  0  0
   13.3893  -19.2019   26.6235 O   0  0  0  0  0  0  0  0  0  0  0  0
   12.5231  -17.3783   27.5893 O   0  0  0  0  0  0  0  0  0  0  0  0
  2 10  1  0
  2  3  1  0
  2  1  1  1
  3  4  1  0
  4  5  2  0
  5  6  1  0
  7  6  2  0
  8  7  1  0
  9  8  2  0
  9  4  1  0
 10 11  2  0
 12 13  1  0
 12 10  1  0
 13 21  1  0
 13 14  1  1
 15 14  1  0
 16 15  2  0
 17 16  1  0
 18 17  2  0
 18 19  1  0
 19 20  2  0
 20 15  1  0
 21 22  2  0
 21 29  1  0
 23 24  1  0
 24 26  1  0
 24 25  2  0
 26 27  1  0
 28 27  1  1
 28 30  1  0
 29 28  1  0
 30 32  2  0
 30 31  1  0
M  END
$$$$
