FFQ.pdb
     RDKit          3D

 32 33  0  0  1  0  0  0  0  0999 V2000
    4.9485  -20.4700   22.5140 N   0  0  0  0  0  0  0  0  0  0  0  0
    5.6903  -20.0735   23.6806 C   0  0  1  0  0  0  0  0  0  0  0  0
    6.8847  -20.9984   23.7932 C   0  0  0  0  0  0  0  0  0  0  0  0
    6.4969  -22.3279   24.3229 C   0  0  0  0  0  0  0  0  0  0  0  0
    5.9335  -22.4258   25.5599 C   0  0  0  0  0  0  0  0  0  0  0  0
    5.5742  -23.6673   26.0475 C   0  0  0  0  0  0  0  0  0  0  0  0
    5.7794  -24.8096   25.2959 C   0  0  0  0  0  0  0  0  0  0  0  0
    6.3462  -24.6851   24.0579 C   0  0  0  0  0  0  0  0  0  0  0  0
    6.7103  -23.4539   23.5572 C   0  0  0  0  0  0  0  0  0  0  0  0
    6.0942  -18.6568   23.5753 C   0  0  0  0  0  0  0  0  0  0  0  0
    6.3012  -18.1204   22.4394 O   0  0  0  0  0  0  0  0  0  0  0  0
    6.2669  -17.8454   24.7027 N   0  0  0  0  0  0  0  0  0  0  0  0
    6.7746  -16.4475   24.5951 C   0  0  1  0  0  0  0  0  0  0  0  0
    6.2638  -15.7187   25.7919 C   0  0  0  0  0  0  0  0  0  0  0  0
    6.7649  -14.3603   26.0157 C   0  0  0  0  0  0  0  0  0  0  0  0
    7.0377  -13.8097   27.2465 C   0  0  0  0  0  0  0  0  0  0  0  0
    7.5112  -12.5229   27.3955 C   0  0  0  0  0  0  0  0  0  0  0  0
    7.7333  -11.7242   26.2971 C   0  0  0  0  0  0  0  0  0  0  0  0
    7.4671  -12.2538   25.0518 C   0  0  0  0  0  0  0  0  0  0  0  0
    6.9956  -13.5373   24.9146 C   0  0  0  0  0  0  0  0  0  0  0  0
    8.2366  -16.5458   24.6154 C   0  0  0  0  0  0  0  0  0  0  0  0
    8.7750  -17.2917   25.5077 O   0  0  0  0  0  0  0  0  0  0  0  0
   12.4674  -15.2056   20.3925 N   0  0  0  0  0  0  0  0  0  0  0  0
   13.3006  -15.3965   21.5382 C   0  0  0  0  0  0  0  0  0  0  0  0
   14.5308  -15.5725   21.2941 O   0  0  0  0  0  0  0  0  0  0  0  0
   12.7565  -15.3886   22.9243 C   0  0  0  0  0  0  0  0  0  0  0  0
   11.2557  -15.2620   22.8162 C   0  0  0  0  0  0  0  0  0  0  0  0
   10.5528  -16.1035   23.8745 C   0  0  2  0  0  0  0  0  0  0  0  0
    9.1248  -15.8904   23.7259 N   0  0  0  0  0  0  0  0  0  0  0  0
   11.0595  -15.7983   25.2211 C   0  0  0  0  0  0  0  0  0  0  0  0
   12.0497  -16.6082   25.8219 O   0  0  0  0  0  0  0  0  0  0  0  0
   10.6853  -14.8381   25.9387 O   0  0  0  0  0  0  0  0  0  0  0  0
  2 10  1  0
  2  3  1  0
  2  1  1  6
  3  4  1  0
  4  5  2  0
  5  6  1  0
  7  6  2  0
  8  7  1  0
  9  8  2  0
  9  4  1  0
 10 11  2  0
 12 13  1  0
 12 10  1  0
 13 21  1  0
 13 14  1  1
 15 14  1  0
 16 15  2  0
 17 16  1  0
 18 17  2  0
 18 19  1  0
 19 20  2  0
 20 15  1  0
 21 22  2  0
 21 29  1  0
 23 24  1  0
 24 26  1  0
 24 25  2  0
 26 27  1  0
 28 27  1  6
 28 30  1  0
 29 28  1  0
 30 32  2  0
 30 31  1  0
M  END
$$$$
