FFQ.pdb
     RDKit          3D

 32 33  0  0  1  0  0  0  0  0999 V2000
    8.3305  -17.0491   20.5187 N   0  0  0  0  0  0  0  0  0  0  0  0
    9.6835  -16.6378   20.7805 C   0  0  1  0  0  0  0  0  0  0  0  0
   10.0550  -15.6100   19.7314 C   0  0  0  0  0  0  0  0  0  0  0  0
    8.9324  -14.6812   19.4565 C   0  0  0  0  0  0  0  0  0  0  0  0
    7.8925  -15.0883   18.6754 C   0  0  0  0  0  0  0  0  0  0  0  0
    6.8497  -14.2182   18.4234 C   0  0  0  0  0  0  0  0  0  0  0  0
    6.8491  -12.9412   18.9537 C   0  0  0  0  0  0  0  0  0  0  0  0
    7.9038  -12.5565   19.7341 C   0  0  0  0  0  0  0  0  0  0  0  0
    8.9518  -13.4126   19.9950 C   0  0  0  0  0  0  0  0  0  0  0  0
    9.8005  -16.0988   22.1505 C   0  0  0  0  0  0  0  0  0  0  0  0
   10.9111  -15.6504   22.5823 O   0  0  0  0  0  0  0  0  0  0  0  0
    8.7119  -16.0546   23.0293 N   0  0  0  0  0  0  0  0  0  0  0  0
    8.7867  -15.3450   24.3387 C   0  0  1  0  0  0  0  0  0  0  0  0
    7.4169  -14.8248   24.6167 C   0  0  0  0  0  0  0  0  0  0  0  0
    7.2198  -14.0858   25.8663 C   0  0  0  0  0  0  0  0  0  0  0  0
    7.3661  -14.6119   27.1289 C   0  0  0  0  0  0  0  0  0  0  0  0
    7.1691  -13.8650   28.2716 C   0  0  0  0  0  0  0  0  0  0  0  0
    6.8114  -12.5387   28.1913 C   0  0  0  0  0  0  0  0  0  0  0  0
    6.6585  -11.9881   26.9360 C   0  0  0  0  0  0  0  0  0  0  0  0
    6.8573  -12.7414   25.8039 C   0  0  0  0  0  0  0  0  0  0  0  0
    9.1828  -16.3551   25.3237 C   0  0  0  0  0  0  0  0  0  0  0  0
    8.4038  -17.3573   25.5012 O   0  0  0  0  0  0  0  0  0  0  0  0
   12.5692  -20.3722   24.0995 N   0  0  0  0  0  0  0  0  0  0  0  0
   12.8943  -19.1688   24.7991 C   0  0  0  0  0  0  0  0  0  0  0  0
   14.1202  -19.0140   25.0767 O   0  0  0  0  0  0  0  0  0  0  0  0
   11.8595  -18.1662   25.1752 C   0  0  0  0  0  0  0  0  0  0  0  0
   11.6256  -18.2990   26.6611 C   0  0  0  0  0  0  0  0  0  0  0  0
   10.5439  -17.3374   27.1381 C   0  0  2  0  0  0  0  0  0  0  0  0
   10.3650  -16.3329   26.1058 N   0  0  0  0  0  0  0  0  0  0  0  0
   10.8730  -16.7774   28.4576 C   0  0  0  0  0  0  0  0  0  0  0  0
   11.0125  -15.3824   28.6368 O   0  0  0  0  0  0  0  0  0  0  0  0
   11.0545  -17.4443   29.5061 O   0  0  0  0  0  0  0  0  0  0  0  0
  2 10  1  0
  2  3  1  0
  2  1  1  6
  3  4  1  0
  4  5  2  0
  5  6  1  0
  7  6  2  0
  8  7  1  0
  9  8  2  0
  9  4  1  0
 10 11  2  0
 12 13  1  0
 12 10  1  0
 13 21  1  0
 13 14  1  1
 15 14  1  0
 16 15  2  0
 17 16  1  0
 18 17  2  0
 18 19  1  0
 19 20  2  0
 20 15  1  0
 21 22  2  0
 21 29  1  0
 23 24  1  0
 24 26  1  0
 24 25  2  0
 26 27  1  0
 28 27  1  6
 28 30  1  0
 29 28  1  0
 30 32  2  0
 30 31  1  0
M  END
$$$$
