FFQ.pdb
     RDKit          3D

 32 33  0  0  1  0  0  0  0  0999 V2000
    8.5216  -17.2914   20.5439 N   0  0  0  0  0  0  0  0  0  0  0  0
    9.7709  -16.5801   20.5843 C   0  0  1  0  0  0  0  0  0  0  0  0
    9.8223  -15.6858   19.3626 C   0  0  0  0  0  0  0  0  0  0  0  0
    8.8359  -14.5825   19.4527 C   0  0  0  0  0  0  0  0  0  0  0  0
    7.5735  -14.8374   19.8981 C   0  0  0  0  0  0  0  0  0  0  0  0
    6.6594  -13.8050   19.9799 C   0  0  0  0  0  0  0  0  0  0  0  0
    7.0104  -12.5182   19.6156 C   0  0  0  0  0  0  0  0  0  0  0  0
    8.2830  -12.2879   19.1719 C   0  0  0  0  0  0  0  0  0  0  0  0
    9.2066  -13.3070   19.0844 C   0  0  0  0  0  0  0  0  0  0  0  0
    9.8832  -15.8104   21.8397 C   0  0  0  0  0  0  0  0  0  0  0  0
   10.9015  -15.0813   22.0689 O   0  0  0  0  0  0  0  0  0  0  0  0
    8.8901  -15.8436   22.8255 N   0  0  0  0  0  0  0  0  0  0  0  0
    8.9866  -15.0232   24.0670 C   0  0  1  0  0  0  0  0  0  0  0  0
    7.6248  -14.4675   24.3138 C   0  0  0  0  0  0  0  0  0  0  0  0
    7.4490  -13.6205   25.4962 C   0  0  0  0  0  0  0  0  0  0  0  0
    8.0736  -12.4128   25.7050 C   0  0  0  0  0  0  0  0  0  0  0  0
    7.8666  -11.6566   26.8399 C   0  0  0  0  0  0  0  0  0  0  0  0
    7.0106  -12.0896   27.8265 C   0  0  0  0  0  0  0  0  0  0  0  0
    6.3724  -13.2980   27.6401 C   0  0  0  0  0  0  0  0  0  0  0  0
    6.5858  -14.0435   26.5056 C   0  0  0  0  0  0  0  0  0  0  0  0
    9.3857  -15.9473   25.1320 C   0  0  0  0  0  0  0  0  0  0  0  0
    9.5800  -15.4643   26.3032 O   0  0  0  0  0  0  0  0  0  0  0  0
   13.7329  -19.9288   25.0740 N   0  0  0  0  0  0  0  0  0  0  0  0
   12.7295  -19.7101   24.0796 C   0  0  0  0  0  0  0  0  0  0  0  0
   13.1190  -19.8184   22.8794 O   0  0  0  0  0  0  0  0  0  0  0  0
   11.3218  -19.3774   24.4335 C   0  0  0  0  0  0  0  0  0  0  0  0
   11.3410  -18.7503   25.8069 C   0  0  0  0  0  0  0  0  0  0  0  0
    9.9961  -18.1180   26.1442 C   0  0  2  0  0  0  0  0  0  0  0  0
    9.5740  -17.3452   24.9905 N   0  0  0  0  0  0  0  0  0  0  0  0
   10.0725  -17.3335   27.3859 C   0  0  0  0  0  0  0  0  0  0  0  0
    9.9300  -15.9276   27.3630 O   0  0  0  0  0  0  0  0  0  0  0  0
   10.2623  -17.8055   28.5341 O   0  0  0  0  0  0  0  0  0  0  0  0
  2 10  1  0
  2  3  1  0
  2  1  1  1
  3  4  1  0
  4  5  2  0
  5  6  1  0
  7  6  2  0
  8  7  1  0
  9  8  2  0
  9  4  1  0
 10 11  2  0
 12 13  1  0
 12 10  1  0
 13 21  1  0
 13 14  1  1
 15 14  1  0
 16 15  2  0
 17 16  1  0
 18 17  2  0
 18 19  1  0
 19 20  2  0
 20 15  1  0
 21 22  2  0
 21 29  1  0
 23 24  1  0
 24 26  1  0
 24 25  2  0
 26 27  1  0
 28 27  1  6
 28 30  1  0
 29 28  1  0
 30 32  2  0
 30 31  1  0
M  END
$$$$
