FFQ.pdb
     RDKit          3D

 32 33  0  0  1  0  0  0  0  0999 V2000
    8.4343  -18.7603   27.1274 N   0  0  0  0  0  0  0  0  0  0  0  0
    8.5615  -17.3779   26.7517 C   0  0  1  0  0  0  0  0  0  0  0  0
    9.9861  -16.9573   27.0494 C   0  0  0  0  0  0  0  0  0  0  0  0
   10.0405  -15.9403   28.1269 C   0  0  0  0  0  0  0  0  0  0  0  0
   10.3406  -16.3191   29.4012 C   0  0  0  0  0  0  0  0  0  0  0  0
   10.3899  -15.3666   30.4004 C   0  0  0  0  0  0  0  0  0  0  0  0
   10.1386  -14.0356   30.1227 C   0  0  0  0  0  0  0  0  0  0  0  0
    9.8397  -13.6807   28.8366 C   0  0  0  0  0  0  0  0  0  0  0  0
    9.7865  -14.6189   27.8284 C   0  0  0  0  0  0  0  0  0  0  0  0
    8.2171  -17.1992   25.3267 C   0  0  0  0  0  0  0  0  0  0  0  0
    8.0462  -18.2057   24.5660 O   0  0  0  0  0  0  0  0  0  0  0  0
    8.0637  -15.9330   24.7502 N   0  0  0  0  0  0  0  0  0  0  0  0
    7.8601  -15.7562   23.2836 C   0  0  1  0  0  0  0  0  0  0  0  0
    7.0096  -14.5423   23.1180 C   0  0  0  0  0  0  0  0  0  0  0  0
    6.9930  -13.5781   24.2209 C   0  0  0  0  0  0  0  0  0  0  0  0
    7.6419  -12.3651   24.2220 C   0  0  0  0  0  0  0  0  0  0  0  0
    7.5879  -11.4955   25.2913 C   0  0  0  0  0  0  0  0  0  0  0  0
    6.8689  -11.8140   26.4206 C   0  0  0  0  0  0  0  0  0  0  0  0
    6.2096  -13.0252   26.4435 C   0  0  0  0  0  0  0  0  0  0  0  0
    6.2699  -13.8842   25.3725 C   0  0  0  0  0  0  0  0  0  0  0  0
    9.1942  -15.5538   22.7119 C   0  0  0  0  0  0  0  0  0  0  0  0
   10.0430  -14.8786   23.3948 O   0  0  0  0  0  0  0  0  0  0  0  0
   11.0548  -20.4391   23.4539 N   0  0  0  0  0  0  0  0  0  0  0  0
   12.2461  -19.6805   23.2329 C   0  0  0  0  0  0  0  0  0  0  0  0
   13.2459  -20.0200   23.9320 O   0  0  0  0  0  0  0  0  0  0  0  0
   12.3049  -18.5665   22.2464 C   0  0  0  0  0  0  0  0  0  0  0  0
   11.0286  -17.7724   22.3901 C   0  0  0  0  0  0  0  0  0  0  0  0
   10.9656  -16.6394   21.3730 C   0  0  2  0  0  0  0  0  0  0  0  0
    9.6442  -16.0454   21.4607 N   0  0  0  0  0  0  0  0  0  0  0  0
   11.3125  -17.1138   20.0247 C   0  0  0  0  0  0  0  0  0  0  0  0
   12.6556  -17.1238   19.5851 O   0  0  0  0  0  0  0  0  0  0  0  0
   10.4956  -17.5365   19.1697 O   0  0  0  0  0  0  0  0  0  0  0  0
  2 10  1  0
  2  3  1  0
  2  1  1  6
  3  4  1  0
  4  5  2  0
  5  6  1  0
  7  6  2  0
  8  7  1  0
  9  8  2  0
  9  4  1  0
 10 11  2  0
 12 13  1  0
 12 10  1  0
 13 21  1  0
 13 14  1  1
 15 14  1  0
 16 15  2  0
 17 16  1  0
 18 17  2  0
 18 19  1  0
 19 20  2  0
 20 15  1  0
 21 22  2  0
 21 29  1  0
 23 24  1  0
 24 26  1  0
 24 25  2  0
 26 27  1  0
 28 27  1  1
 28 30  1  0
 29 28  1  0
 30 32  2  0
 30 31  1  0
M  END
$$$$
