PWA.pdb
     RDKit          3D

 27 29  0  0  1  0  0  0  0  0999 V2000
   27.0513  -19.5106  -14.3118 N   0  0  0  0  0  0  0  0  0  0  0  0
   27.6564  -19.5590  -15.6541 C   0  0  0  0  0  0  0  0  0  0  0  0
   28.7941  -20.5716  -15.4606 C   0  0  0  0  0  0  0  0  0  0  0  0
   28.3783  -21.3905  -14.2588 C   0  0  0  0  0  0  0  0  0  0  0  0
   26.9342  -20.9584  -14.0841 C   0  0  1  0  0  0  0  0  0  0  0  0
   26.4214  -21.2524  -12.7405 C   0  0  0  0  0  0  0  0  0  0  0  0
   25.8007  -22.3009  -12.4933 O   0  0  0  0  0  0  0  0  0  0  0  0
   26.6207  -20.3394  -11.6791 N   0  0  0  0  0  0  0  0  0  0  0  0
   26.2901  -20.5415  -10.3204 C   0  0  1  0  0  0  0  0  0  0  0  0
   27.0814  -19.8019   -9.3015 C   0  0  0  0  0  0  0  0  0  0  0  0
   26.7372  -20.2811   -7.9129 C   0  0  0  0  0  0  0  0  0  0  0  0
   25.6994  -21.0855   -7.5033 C   0  0  0  0  0  0  0  0  0  0  0  0
   25.7988  -21.2268   -6.1706 N   0  0  0  0  0  0  0  0  0  0  0  0
   26.8560  -20.5514   -5.6875 C   0  0  0  0  0  0  0  0  0  0  0  0
   27.4178  -20.3500   -4.4419 C   0  0  0  0  0  0  0  0  0  0  0  0
   28.5572  -19.5634   -4.2929 C   0  0  0  0  0  0  0  0  0  0  0  0
   29.1583  -18.9628   -5.3798 C   0  0  0  0  0  0  0  0  0  0  0  0
   28.5891  -19.1706   -6.6162 C   0  0  0  0  0  0  0  0  0  0  0  0
   27.4397  -19.9637   -6.7660 C   0  0  0  0  0  0  0  0  0  0  0  0
   24.8529  -20.2970  -10.1007 C   0  0  0  0  0  0  0  0  0  0  0  0
   24.5165  -19.6118   -9.0821 O   0  0  0  0  0  0  0  0  0  0  0  0
   22.3046  -18.8592  -11.1374 C   0  0  0  0  0  0  0  0  0  0  0  0
   22.4319  -20.3471  -10.8404 C   0  0  2  0  0  0  0  0  0  0  0  0
   23.8198  -20.7678  -10.9425 N   0  0  0  0  0  0  0  0  0  0  0  0
   21.5730  -21.0937  -11.7670 C   0  0  0  0  0  0  0  0  0  0  0  0
   20.2013  -21.0138  -11.7181 O   0  0  0  0  0  0  0  0  0  0  0  0
   22.1167  -21.8218  -12.6236 O   0  0  0  0  0  0  0  0  0  0  0  0
  2  1  1  0
  3  2  1  0
  4  5  1  0
  4  3  1  0
  5  1  1  0
  5  6  1  1
  6  7  2  0
  8  6  1  0
  9  8  1  0
 10 11  1  0
  9 10  1  1
 11 19  1  0
 12 11  2  0
 12 13  1  0
 13 14  1  0
 14 15  1  0
 15 16  2  0
 17 16  1  0
 18 17  2  0
 19 14  2  0
 19 18  1  0
 20  9  1  0
 21 20  2  0
 23 22  1  6
 23 24  1  0
 23 25  1  0
 24 20  1  0
 25 26  1  0
 27 25  2  0
M  END
$$$$
