PWA.pdb
     RDKit          3D

 27 29  0  0  1  0  0  0  0  0999 V2000
   27.8023  -22.6297  -16.4902 N   0  0  0  0  0  0  0  0  0  0  0  0
   28.9029  -22.9004  -17.4312 C   0  0  0  0  0  0  0  0  0  0  0  0
   28.8732  -21.6570  -18.3314 C   0  0  0  0  0  0  0  0  0  0  0  0
   28.1880  -20.5968  -17.4981 C   0  0  0  0  0  0  0  0  0  0  0  0
   28.1706  -21.2527  -16.1299 C   0  0  1  0  0  0  0  0  0  0  0  0
   27.1791  -20.6476  -15.2324 C   0  0  0  0  0  0  0  0  0  0  0  0
   27.2341  -19.4473  -14.9128 O   0  0  0  0  0  0  0  0  0  0  0  0
   26.1232  -21.4230  -14.6999 N   0  0  0  0  0  0  0  0  0  0  0  0
   25.0062  -20.9441  -13.9794 C   0  0  1  0  0  0  0  0  0  0  0  0
   23.6550  -21.2503  -14.5197 C   0  0  0  0  0  0  0  0  0  0  0  0
   23.3660  -20.4041  -15.7350 C   0  0  0  0  0  0  0  0  0  0  0  0
   23.8462  -20.5321  -17.0175 C   0  0  0  0  0  0  0  0  0  0  0  0
   23.3147  -19.5383  -17.7495 N   0  0  0  0  0  0  0  0  0  0  0  0
   22.5066  -18.7642  -17.0045 C   0  0  0  0  0  0  0  0  0  0  0  0
   21.7272  -17.6454  -17.2249 C   0  0  0  0  0  0  0  0  0  0  0  0
   20.9877  -17.0773  -16.1907 C   0  0  0  0  0  0  0  0  0  0  0  0
   21.0100  -17.6113  -14.9188 C   0  0  0  0  0  0  0  0  0  0  0  0
   21.7908  -18.7263  -14.7113 C   0  0  0  0  0  0  0  0  0  0  0  0
   22.5368  -19.2988  -15.7545 C   0  0  0  0  0  0  0  0  0  0  0  0
   25.0825  -21.3731  -12.5710 C   0  0  0  0  0  0  0  0  0  0  0  0
   24.9868  -22.6182  -12.3240 O   0  0  0  0  0  0  0  0  0  0  0  0
   25.8954  -19.9120   -9.1880 C   0  0  0  0  0  0  0  0  0  0  0  0
   25.1824  -20.9169  -10.0824 C   0  0  2  0  0  0  0  0  0  0  0  0
   25.2567  -20.5001  -11.4732 N   0  0  0  0  0  0  0  0  0  0  0  0
   23.7916  -21.0520   -9.6340 C   0  0  0  0  0  0  0  0  0  0  0  0
   23.4662  -21.5941   -8.4130 O   0  0  0  0  0  0  0  0  0  0  0  0
   22.8824  -20.6582  -10.3942 O   0  0  0  0  0  0  0  0  0  0  0  0
  2  1  1  0
  3  2  1  0
  4  5  1  0
  4  3  1  0
  5  1  1  0
  5  6  1  1
  6  7  2  0
  8  6  1  0
  9  8  1  0
 10 11  1  0
  9 10  1  6
 11 19  1  0
 12 11  2  0
 12 13  1  0
 13 14  1  0
 14 15  1  0
 15 16  2  0
 17 16  1  0
 18 17  2  0
 19 14  2  0
 19 18  1  0
 20  9  1  0
 21 20  2  0
 23 22  1  1
 23 24  1  0
 23 25  1  0
 24 20  1  0
 25 26  1  0
 27 25  2  0
M  END
$$$$
