PWA.pdb
     RDKit          3D

 27 29  0  0  1  0  0  0  0  0999 V2000
   27.4860  -18.8876  -14.8232 N   0  0  0  0  0  0  0  0  0  0  0  0
   28.4410  -18.5209  -15.8831 C   0  0  0  0  0  0  0  0  0  0  0  0
   29.6381  -19.4299  -15.5697 C   0  0  0  0  0  0  0  0  0  0  0  0
   29.0525  -20.5731  -14.7709 C   0  0  0  0  0  0  0  0  0  0  0  0
   27.5648  -20.3486  -14.9685 C   0  0  1  0  0  0  0  0  0  0  0  0
   26.7563  -21.0350  -13.9536 C   0  0  0  0  0  0  0  0  0  0  0  0
   26.7172  -22.2754  -13.8791 O   0  0  0  0  0  0  0  0  0  0  0  0
   25.9900  -20.2950  -13.0236 N   0  0  0  0  0  0  0  0  0  0  0  0
   25.1814  -20.8200  -11.9908 C   0  0  1  0  0  0  0  0  0  0  0  0
   25.3891  -20.2907  -10.6167 C   0  0  0  0  0  0  0  0  0  0  0  0
   26.7557  -20.6714  -10.1031 C   0  0  0  0  0  0  0  0  0  0  0  0
   27.7672  -21.3489  -10.7433 C   0  0  0  0  0  0  0  0  0  0  0  0
   28.7897  -21.4606   -9.8784 N   0  0  0  0  0  0  0  0  0  0  0  0
   28.4944  -20.8860   -8.6994 C   0  0  0  0  0  0  0  0  0  0  0  0
   29.1444  -20.7079   -7.4939 C   0  0  0  0  0  0  0  0  0  0  0  0
   28.5233  -20.0406   -6.4412 C   0  0  0  0  0  0  0  0  0  0  0  0
   27.2445  -19.5386   -6.5684 C   0  0  0  0  0  0  0  0  0  0  0  0
   26.6067  -19.7225   -7.7747 C   0  0  0  0  0  0  0  0  0  0  0  0
   27.2333  -20.3959   -8.8360 C   0  0  0  0  0  0  0  0  0  0  0  0
   23.7558  -20.7111  -12.3504 C   0  0  0  0  0  0  0  0  0  0  0  0
   23.2998  -19.5548  -12.6252 O   0  0  0  0  0  0  0  0  0  0  0  0
   20.8927  -23.0435  -13.1696 C   0  0  0  0  0  0  0  0  0  0  0  0
   21.4595  -21.6810  -12.7947 C   0  0  2  0  0  0  0  0  0  0  0  0
   22.8576  -21.8005  -12.4143 N   0  0  0  0  0  0  0  0  0  0  0  0
   20.6526  -21.1110  -11.7095 C   0  0  0  0  0  0  0  0  0  0  0  0
   19.3841  -20.6240  -11.9194 O   0  0  0  0  0  0  0  0  0  0  0  0
   21.1443  -21.0725  -10.5621 O   0  0  0  0  0  0  0  0  0  0  0  0
  2  1  1  0
  3  2  1  0
  4  5  1  0
  4  3  1  0
  5  1  1  0
  5  6  1  1
  6  7  2  0
  8  6  1  0
  9  8  1  0
 10 11  1  0
  9 10  1  1
 11 19  1  0
 12 11  2  0
 12 13  1  0
 13 14  1  0
 14 15  1  0
 15 16  2  0
 17 16  1  0
 18 17  2  0
 19 14  2  0
 19 18  1  0
 20  9  1  0
 21 20  2  0
 23 22  1  1
 23 24  1  0
 23 25  1  0
 24 20  1  0
 25 26  1  0
 27 25  2  0
M  END
$$$$
