PWA.pdb
     RDKit          3D

 27 29  0  0  1  0  0  0  0  0999 V2000
   13.2129  -18.4878    2.6687 N   0  0  0  0  0  0  0  0  0  0  0  0
   11.9192  -18.9442    2.1320 C   0  0  0  0  0  0  0  0  0  0  0  0
   12.3471  -20.0271    1.1313 C   0  0  0  0  0  0  0  0  0  0  0  0
   13.7169  -20.4636    1.6014 C   0  0  0  0  0  0  0  0  0  0  0  0
   13.7912  -19.8062    2.9670 C   0  0  1  0  0  0  0  0  0  0  0  0
   15.1698  -19.6908    3.4577 C   0  0  0  0  0  0  0  0  0  0  0  0
   15.8395  -20.6922    3.7650 O   0  0  0  0  0  0  0  0  0  0  0  0
   15.7798  -18.4226    3.5969 N   0  0  0  0  0  0  0  0  0  0  0  0
   17.1374  -18.1686    3.8945 C   0  0  1  0  0  0  0  0  0  0  0  0
   17.8091  -17.0647    3.1587 C   0  0  0  0  0  0  0  0  0  0  0  0
   17.0922  -15.7580    3.3936 C   0  0  0  0  0  0  0  0  0  0  0  0
   15.7435  -15.4895    3.3673 C   0  0  0  0  0  0  0  0  0  0  0  0
   15.5866  -14.1801    3.6258 N   0  0  0  0  0  0  0  0  0  0  0  0
   16.7724  -13.5775    3.8212 C   0  0  0  0  0  0  0  0  0  0  0  0
   17.1962  -12.2950    4.1096 C   0  0  0  0  0  0  0  0  0  0  0  0
   18.5514  -12.0074    4.2512 C   0  0  0  0  0  0  0  0  0  0  0  0
   19.5094  -12.9898    4.1082 C   0  0  0  0  0  0  0  0  0  0  0  0
   19.0748  -14.2642    3.8206 C   0  0  0  0  0  0  0  0  0  0  0  0
   17.7080  -14.5539    3.6775 C   0  0  0  0  0  0  0  0  0  0  0  0
   17.3165  -17.9744    5.3450 C   0  0  0  0  0  0  0  0  0  0  0  0
   16.3492  -17.4684    5.9997 O   0  0  0  0  0  0  0  0  0  0  0  0
   19.9482  -18.7223    7.9786 C   0  0  0  0  0  0  0  0  0  0  0  0
   18.6732  -18.0549    7.4813 C   0  0  2  0  0  0  0  0  0  0  0  0
   18.4863  -18.3121    6.0627 N   0  0  0  0  0  0  0  0  0  0  0  0
   18.7466  -16.6166    7.7630 C   0  0  0  0  0  0  0  0  0  0  0  0
   18.3975  -16.0920    8.9851 O   0  0  0  0  0  0  0  0  0  0  0  0
   19.1407  -15.8539    6.8561 O   0  0  0  0  0  0  0  0  0  0  0  0
  2  1  1  0
  3  2  1  0
  4  5  1  0
  4  3  1  0
  5  1  1  0
  5  6  1  6
  6  7  2  0
  8  6  1  0
  9  8  1  0
 10 11  1  0
  9 10  1  6
 11 19  1  0
 12 11  2  0
 12 13  1  0
 13 14  1  0
 14 15  1  0
 15 16  2  0
 17 16  1  0
 18 17  2  0
 19 14  2  0
 19 18  1  0
 20  9  1  0
 21 20  2  0
 23 22  1  6
 23 24  1  0
 23 25  1  0
 24 20  1  0
 25 26  1  0
 27 25  2  0
M  END
$$$$
