PWA.pdb
     RDKit          3D

 27 29  0  0  1  0  0  0  0  0999 V2000
   27.4933  -18.5138  -14.0700 N   0  0  0  0  0  0  0  0  0  0  0  0
   28.3670  -17.5635  -14.7797 C   0  0  0  0  0  0  0  0  0  0  0  0
   29.6248  -18.4067  -15.0335 C   0  0  0  0  0  0  0  0  0  0  0  0
   29.1445  -19.8397  -14.9715 C   0  0  0  0  0  0  0  0  0  0  0  0
   27.6386  -19.6544  -14.9863 C   0  0  1  0  0  0  0  0  0  0  0  0
   26.9248  -20.8374  -14.4907 C   0  0  0  0  0  0  0  0  0  0  0  0
   26.9289  -21.9121  -15.1159 O   0  0  0  0  0  0  0  0  0  0  0  0
   26.2038  -20.7855  -13.2753 N   0  0  0  0  0  0  0  0  0  0  0  0
   25.5016  -21.8493  -12.6659 C   0  0  1  0  0  0  0  0  0  0  0  0
   25.9209  -22.2580  -11.2990 C   0  0  0  0  0  0  0  0  0  0  0  0
   25.8724  -21.0813  -10.3558 C   0  0  0  0  0  0  0  0  0  0  0  0
   24.9093  -20.1074  -10.2297 C   0  0  0  0  0  0  0  0  0  0  0  0
   25.3102  -19.2649   -9.2626 N   0  0  0  0  0  0  0  0  0  0  0  0
   26.4933  -19.6429   -8.7480 C   0  0  0  0  0  0  0  0  0  0  0  0
   27.3444  -19.1692   -7.7687 C   0  0  0  0  0  0  0  0  0  0  0  0
   28.5354  -19.8302   -7.4791 C   0  0  0  0  0  0  0  0  0  0  0  0
   28.9016  -20.9739   -8.1584 C   0  0  0  0  0  0  0  0  0  0  0  0
   28.0454  -21.4362   -9.1325 C   0  0  0  0  0  0  0  0  0  0  0  0
   26.8444  -20.7691   -9.4245 C   0  0  0  0  0  0  0  0  0  0  0  0
   24.0523  -21.5795  -12.6766 C   0  0  0  0  0  0  0  0  0  0  0  0
   23.6568  -20.4449  -12.2560 O   0  0  0  0  0  0  0  0  0  0  0  0
   20.9971  -23.1567  -14.2377 C   0  0  0  0  0  0  0  0  0  0  0  0
   21.6694  -22.1466  -13.3180 C   0  0  2  0  0  0  0  0  0  0  0  0
   23.0684  -22.4907  -13.1232 N   0  0  0  0  0  0  0  0  0  0  0  0
   20.9425  -22.1039  -12.0439 C   0  0  0  0  0  0  0  0  0  0  0  0
   21.5045  -22.5377  -10.8664 O   0  0  0  0  0  0  0  0  0  0  0  0
   19.7764  -21.6569  -12.0410 O   0  0  0  0  0  0  0  0  0  0  0  0
  2  1  1  0
  3  2  1  0
  4  5  1  0
  4  3  1  0
  5  1  1  0
  5  6  1  1
  6  7  2  0
  8  6  1  0
  9  8  1  0
 10 11  1  0
  9 10  1  1
 11 19  1  0
 12 11  2  0
 12 13  1  0
 13 14  1  0
 14 15  1  0
 15 16  2  0
 17 16  1  0
 18 17  2  0
 19 14  2  0
 19 18  1  0
 20  9  1  0
 21 20  2  0
 23 22  1  6
 23 24  1  0
 23 25  1  0
 24 20  1  0
 25 26  1  0
 27 25  2  0
M  END
$$$$
