PWA.pdb
     RDKit          3D

 27 29  0  0  1  0  0  0  0  0999 V2000
   27.2408  -20.2727  -14.7828 N   0  0  0  0  0  0  0  0  0  0  0  0
   27.9536  -19.3089  -15.6389 C   0  0  0  0  0  0  0  0  0  0  0  0
   27.7254  -17.9846  -14.8961 C   0  0  0  0  0  0  0  0  0  0  0  0
   27.4278  -18.3914  -13.4700 C   0  0  0  0  0  0  0  0  0  0  0  0
   27.8066  -19.8607  -13.4898 C   0  0  1  0  0  0  0  0  0  0  0  0
   27.2072  -20.6076  -12.3773 C   0  0  0  0  0  0  0  0  0  0  0  0
   27.0086  -21.8330  -12.4454 O   0  0  0  0  0  0  0  0  0  0  0  0
   26.8340  -19.9453  -11.1849 N   0  0  0  0  0  0  0  0  0  0  0  0
   26.0854  -20.4896  -10.1174 C   0  0  1  0  0  0  0  0  0  0  0  0
   26.3412  -19.9550   -8.7536 C   0  0  0  0  0  0  0  0  0  0  0  0
   27.6824  -20.4221   -8.2443 C   0  0  0  0  0  0  0  0  0  0  0  0
   28.6183  -21.2175   -8.8634 C   0  0  0  0  0  0  0  0  0  0  0  0
   29.6474  -21.3684   -8.0124 N   0  0  0  0  0  0  0  0  0  0  0  0
   29.4287  -20.7068   -6.8626 C   0  0  0  0  0  0  0  0  0  0  0  0
   30.1189  -20.5189   -5.6812 C   0  0  0  0  0  0  0  0  0  0  0  0
   29.5805  -19.7443   -4.6568 C   0  0  0  0  0  0  0  0  0  0  0  0
   28.3458  -19.1428   -4.7889 C   0  0  0  0  0  0  0  0  0  0  0  0
   27.6672  -19.3376   -5.9710 C   0  0  0  0  0  0  0  0  0  0  0  0
   28.2105  -20.1192   -7.0037 C   0  0  0  0  0  0  0  0  0  0  0  0
   24.6429  -20.4157  -10.4130 C   0  0  0  0  0  0  0  0  0  0  0  0
   24.1340  -19.2642  -10.6013 O   0  0  0  0  0  0  0  0  0  0  0  0
   21.8463  -20.0451  -10.6033 C   0  0  0  0  0  0  0  0  0  0  0  0
   22.3749  -21.4503  -10.8566 C   0  0  2  0  0  0  0  0  0  0  0  0
   23.7830  -21.5336  -10.5046 N   0  0  0  0  0  0  0  0  0  0  0  0
   22.1498  -21.7981  -12.2644 C   0  0  0  0  0  0  0  0  0  0  0  0
   23.1869  -22.0694  -13.1255 O   0  0  0  0  0  0  0  0  0  0  0  0
   20.9741  -21.8465  -12.6828 O   0  0  0  0  0  0  0  0  0  0  0  0
  2  1  1  0
  3  2  1  0
  4  5  1  0
  4  3  1  0
  5  1  1  0
  5  6  1  1
  6  7  2  0
  8  6  1  0
  9  8  1  0
 10 11  1  0
  9 10  1  1
 11 19  1  0
 12 11  2  0
 12 13  1  0
 13 14  1  0
 14 15  1  0
 15 16  2  0
 17 16  1  0
 18 17  2  0
 19 14  2  0
 19 18  1  0
 20  9  1  0
 21 20  2  0
 23 22  1  6
 23 24  1  0
 23 25  1  0
 24 20  1  0
 25 26  1  0
 27 25  2  0
M  END
$$$$
