PWA.pdb
     RDKit          3D

 27 29  0  0  1  0  0  0  0  0999 V2000
   29.3967  -19.9407  -11.4526 N   0  0  0  0  0  0  0  0  0  0  0  0
   30.7395  -20.0448  -12.0494 C   0  0  0  0  0  0  0  0  0  0  0  0
   31.4403  -21.0288  -11.1018 C   0  0  0  0  0  0  0  0  0  0  0  0
   30.3143  -21.7946  -10.4433 C   0  0  0  0  0  0  0  0  0  0  0  0
   29.1281  -21.3774  -11.2927 C   0  0  1  0  0  0  0  0  0  0  0  0
   27.8463  -21.6136  -10.6175 C   0  0  0  0  0  0  0  0  0  0  0  0
   27.4986  -22.7512  -10.2559 O   0  0  0  0  0  0  0  0  0  0  0  0
   26.9616  -20.5412  -10.3585 N   0  0  0  0  0  0  0  0  0  0  0  0
   25.6915  -20.6258   -9.7456 C   0  0  1  0  0  0  0  0  0  0  0  0
   25.4267  -19.7366   -8.5836 C   0  0  0  0  0  0  0  0  0  0  0  0
   26.7012  -19.4642   -7.8234 C   0  0  0  0  0  0  0  0  0  0  0  0
   27.7359  -18.6142   -8.1377 C   0  0  0  0  0  0  0  0  0  0  0  0
   28.6562  -18.7200   -7.1641 N   0  0  0  0  0  0  0  0  0  0  0  0
   28.2710  -19.6010   -6.2245 C   0  0  0  0  0  0  0  0  0  0  0  0
   28.8011  -20.0867   -5.0452 C   0  0  0  0  0  0  0  0  0  0  0  0
   28.1099  -21.0292   -4.2881 C   0  0  0  0  0  0  0  0  0  0  0  0
   26.8793  -21.5059   -4.6904 C   0  0  0  0  0  0  0  0  0  0  0  0
   26.3613  -21.0147   -5.8678 C   0  0  0  0  0  0  0  0  0  0  0  0
   27.0589  -20.0644   -6.6312 C   0  0  0  0  0  0  0  0  0  0  0  0
   24.6255  -20.4551  -10.7497 C   0  0  0  0  0  0  0  0  0  0  0  0
   24.6860  -19.4374  -11.5120 O   0  0  0  0  0  0  0  0  0  0  0  0
   21.9410  -22.5452  -12.3330 C   0  0  0  0  0  0  0  0  0  0  0  0
   22.5258  -21.1902  -11.9587 C   0  0  2  0  0  0  0  0  0  0  0  0
   23.5403  -21.3427  -10.9286 N   0  0  0  0  0  0  0  0  0  0  0  0
   21.4396  -20.3070  -11.5186 C   0  0  0  0  0  0  0  0  0  0  0  0
   20.4495  -19.8834  -12.3735 O   0  0  0  0  0  0  0  0  0  0  0  0
   21.4240  -19.9346  -10.3267 O   0  0  0  0  0  0  0  0  0  0  0  0
  2  1  1  0
  3  2  1  0
  4  5  1  0
  4  3  1  0
  5  1  1  0
  5  6  1  1
  6  7  2  0
  8  6  1  0
  9  8  1  0
 10 11  1  0
  9 10  1  1
 11 19  1  0
 12 11  2  0
 12 13  1  0
 13 14  1  0
 14 15  1  0
 15 16  2  0
 17 16  1  0
 18 17  2  0
 19 14  2  0
 19 18  1  0
 20  9  1  0
 21 20  2  0
 23 22  1  1
 23 24  1  0
 23 25  1  0
 24 20  1  0
 25 26  1  0
 27 25  2  0
M  END
$$$$
