PWA.pdb
     RDKit          3D

 27 29  0  0  1  0  0  0  0  0999 V2000
   32.3355  -30.3424  -19.2493 N   0  0  0  0  0  0  0  0  0  0  0  0
   32.9691  -29.1293  -19.7943 C   0  0  0  0  0  0  0  0  0  0  0  0
   33.3915  -28.3837  -18.5203 C   0  0  0  0  0  0  0  0  0  0  0  0
   33.4803  -29.4580  -17.4591 C   0  0  0  0  0  0  0  0  0  0  0  0
   33.3914  -30.7192  -18.2980 C   0  0  1  0  0  0  0  0  0  0  0  0
   33.0072  -31.8927  -17.5043 C   0  0  0  0  0  0  0  0  0  0  0  0
   33.5417  -32.1447  -16.4104 O   0  0  0  0  0  0  0  0  0  0  0  0
   32.0081  -32.7792  -17.9687 N   0  0  0  0  0  0  0  0  0  0  0  0
   31.5208  -33.9245  -17.3001 C   0  0  1  0  0  0  0  0  0  0  0  0
   30.0641  -34.2086  -17.3928 C   0  0  0  0  0  0  0  0  0  0  0  0
   29.2703  -33.1470  -16.6721 C   0  0  0  0  0  0  0  0  0  0  0  0
   29.7012  -32.2003  -15.7721 C   0  0  0  0  0  0  0  0  0  0  0  0
   28.6286  -31.4851  -15.3926 N   0  0  0  0  0  0  0  0  0  0  0  0
   27.5131  -31.9200  -16.0040 C   0  0  0  0  0  0  0  0  0  0  0  0
   26.1770  -31.5701  -15.9933 C   0  0  0  0  0  0  0  0  0  0  0  0
   25.2543  -32.2567  -16.7785 C   0  0  0  0  0  0  0  0  0  0  0  0
   25.6437  -33.3037  -17.5883 C   0  0  0  0  0  0  0  0  0  0  0  0
   26.9780  -33.6434  -17.5903 C   0  0  0  0  0  0  0  0  0  0  0  0
   27.9082  -32.9509  -16.7980 C   0  0  0  0  0  0  0  0  0  0  0  0
   32.2826  -35.1190  -17.7080 C   0  0  0  0  0  0  0  0  0  0  0  0
   32.5837  -35.2390  -18.9389 O   0  0  0  0  0  0  0  0  0  0  0  0
   34.6603  -37.4901  -16.2490 C   0  0  0  0  0  0  0  0  0  0  0  0
   33.5175  -37.2777  -17.2325 C   0  0  2  0  0  0  0  0  0  0  0  0
   32.7053  -36.1416  -16.8286 N   0  0  0  0  0  0  0  0  0  0  0  0
   32.7215  -38.5080  -17.3117 C   0  0  0  0  0  0  0  0  0  0  0  0
   33.2517  -39.6944  -17.7612 O   0  0  0  0  0  0  0  0  0  0  0  0
   31.5251  -38.4643  -16.9565 O   0  0  0  0  0  0  0  0  0  0  0  0
  2  1  1  0
  3  2  1  0
  4  5  1  0
  4  3  1  0
  5  1  1  0
  5  6  1  1
  6  7  2  0
  8  6  1  0
  9  8  1  0
 10 11  1  0
  9 10  1  6
 11 19  1  0
 12 11  2  0
 12 13  1  0
 13 14  1  0
 14 15  1  0
 15 16  2  0
 17 16  1  0
 18 17  2  0
 19 14  2  0
 19 18  1  0
 20  9  1  0
 21 20  2  0
 23 22  1  1
 23 24  1  0
 23 25  1  0
 24 20  1  0
 25 26  1  0
 27 25  2  0
M  END
$$$$
