PWA.pdb
     RDKit          3D

 27 29  0  0  1  0  0  0  0  0999 V2000
   24.1772  -18.0628  -16.5627 N   0  0  0  0  0  0  0  0  0  0  0  0
   25.2357  -18.9891  -16.1250 C   0  0  0  0  0  0  0  0  0  0  0  0
   25.7360  -19.5630  -17.4583 C   0  0  0  0  0  0  0  0  0  0  0  0
   25.3419  -18.5312  -18.4917 C   0  0  0  0  0  0  0  0  0  0  0  0
   24.9331  -17.3641  -17.6125 C   0  0  1  0  0  0  0  0  0  0  0  0
   24.0933  -16.3941  -18.3257 C   0  0  0  0  0  0  0  0  0  0  0  0
   24.5528  -15.6697  -19.2255 O   0  0  0  0  0  0  0  0  0  0  0  0
   22.7234  -16.2551  -18.0035 N   0  0  0  0  0  0  0  0  0  0  0  0
   21.7714  -15.4697  -18.6913 C   0  0  1  0  0  0  0  0  0  0  0  0
   20.3957  -16.0175  -18.8279 C   0  0  0  0  0  0  0  0  0  0  0  0
   19.8202  -15.6736  -20.1795 C   0  0  0  0  0  0  0  0  0  0  0  0
   20.3431  -15.9029  -21.4308 C   0  0  0  0  0  0  0  0  0  0  0  0
   19.4741  -15.4090  -22.3291 N   0  0  0  0  0  0  0  0  0  0  0  0
   18.4038  -14.8664  -21.7228 C   0  0  0  0  0  0  0  0  0  0  0  0
   17.2448  -14.2380  -22.1346 C   0  0  0  0  0  0  0  0  0  0  0  0
   16.3132  -13.7814  -21.2056 C   0  0  0  0  0  0  0  0  0  0  0  0
   16.5175  -13.9413  -19.8506 C   0  0  0  0  0  0  0  0  0  0  0  0
   17.6765  -14.5689  -19.4523 C   0  0  0  0  0  0  0  0  0  0  0  0
   18.6160  -15.0289  -20.3895 C   0  0  0  0  0  0  0  0  0  0  0  0
   21.7074  -14.1164  -18.1101 C   0  0  0  0  0  0  0  0  0  0  0  0
   21.5866  -14.0183  -16.8467 O   0  0  0  0  0  0  0  0  0  0  0  0
   21.9594  -10.5237  -19.3150 C   0  0  0  0  0  0  0  0  0  0  0  0
   21.6425  -11.5906  -18.2761 C   0  0  2  0  0  0  0  0  0  0  0  0
   21.7727  -12.9175  -18.8558 N   0  0  0  0  0  0  0  0  0  0  0  0
   20.2904  -11.3611  -17.7538 C   0  0  0  0  0  0  0  0  0  0  0  0
   20.0390  -10.4612  -16.7451 O   0  0  0  0  0  0  0  0  0  0  0  0
   19.3452  -12.0097  -18.2492 O   0  0  0  0  0  0  0  0  0  0  0  0
  2  1  1  0
  3  2  1  0
  4  5  1  0
  4  3  1  0
  5  1  1  0
  5  6  1  6
  6  7  2  0
  8  6  1  0
  9  8  1  0
 10 11  1  0
  9 10  1  1
 11 19  1  0
 12 11  2  0
 12 13  1  0
 13 14  1  0
 14 15  1  0
 15 16  2  0
 17 16  1  0
 18 17  2  0
 19 14  2  0
 19 18  1  0
 20  9  1  0
 21 20  2  0
 23 22  1  6
 23 24  1  0
 23 25  1  0
 24 20  1  0
 25 26  1  0
 27 25  2  0
M  END
$$$$
