PWA.pdb
     RDKit          3D

 27 29  0  0  1  0  0  0  0  0999 V2000
   27.7694  -21.5617  -15.3318 N   0  0  0  0  0  0  0  0  0  0  0  0
   28.4871  -20.8443  -16.3996 C   0  0  0  0  0  0  0  0  0  0  0  0
   27.9465  -19.4151  -16.2502 C   0  0  0  0  0  0  0  0  0  0  0  0
   27.4517  -19.3397  -14.8228 C   0  0  0  0  0  0  0  0  0  0  0  0
   28.0266  -20.6156  -14.2362 C   0  0  1  0  0  0  0  0  0  0  0  0
   27.3425  -21.0215  -13.0025 C   0  0  0  0  0  0  0  0  0  0  0  0
   26.3879  -21.8179  -13.0169 O   0  0  0  0  0  0  0  0  0  0  0  0
   27.7549  -20.5105  -11.7501 N   0  0  0  0  0  0  0  0  0  0  0  0
   27.0778  -20.6516  -10.5181 C   0  0  1  0  0  0  0  0  0  0  0  0
   27.7514  -20.1321   -9.2984 C   0  0  0  0  0  0  0  0  0  0  0  0
   26.9290  -20.4333   -8.0698 C   0  0  0  0  0  0  0  0  0  0  0  0
   25.7158  -21.0739   -7.9715 C   0  0  0  0  0  0  0  0  0  0  0  0
   25.3740  -21.0955   -6.6720 N   0  0  0  0  0  0  0  0  0  0  0  0
   26.3092  -20.4982   -5.9131 C   0  0  0  0  0  0  0  0  0  0  0  0
   26.4760  -20.2407   -4.5664 C   0  0  0  0  0  0  0  0  0  0  0  0
   27.6080  -19.5749   -4.1032 C   0  0  0  0  0  0  0  0  0  0  0  0
   28.5942  -19.1529   -4.9708 C   0  0  0  0  0  0  0  0  0  0  0  0
   28.4167  -19.4150   -6.3108 C   0  0  0  0  0  0  0  0  0  0  0  0
   27.2747  -20.0862   -6.7776 C   0  0  0  0  0  0  0  0  0  0  0  0
   25.7206  -20.0835  -10.6111 C   0  0  0  0  0  0  0  0  0  0  0  0
   25.6025  -18.8171  -10.5594 O   0  0  0  0  0  0  0  0  0  0  0  0
   22.5904  -21.1203  -12.2067 C   0  0  0  0  0  0  0  0  0  0  0  0
   23.2478  -20.2829  -11.1182 C   0  0  2  0  0  0  0  0  0  0  0  0
   24.5387  -20.8451  -10.7561 N   0  0  0  0  0  0  0  0  0  0  0  0
   22.3474  -20.2122   -9.9615 C   0  0  0  0  0  0  0  0  0  0  0  0
   21.2166  -19.4301   -9.9618 O   0  0  0  0  0  0  0  0  0  0  0  0
   22.6272  -20.8887   -8.9498 O   0  0  0  0  0  0  0  0  0  0  0  0
  2  1  1  0
  3  2  1  0
  4  5  1  0
  4  3  1  0
  5  1  1  0
  5  6  1  1
  6  7  2  0
  8  6  1  0
  9  8  1  0
 10 11  1  0
  9 10  1  1
 11 19  1  0
 12 11  2  0
 12 13  1  0
 13 14  1  0
 14 15  1  0
 15 16  2  0
 17 16  1  0
 18 17  2  0
 19 14  2  0
 19 18  1  0
 20  9  1  0
 21 20  2  0
 23 22  1  6
 23 24  1  0
 23 25  1  0
 24 20  1  0
 25 26  1  0
 27 25  2  0
M  END
$$$$
