PQV.pdb
     RDKit          3D

 24 24  0  0  1  0  0  0  0  0999 V2000
   27.0482  -19.6908  -18.4679 N   0  0  0  0  0  0  0  0  0  0  0  0
   27.6625  -18.6314  -19.2691 C   0  0  0  0  0  0  0  0  0  0  0  0
   26.7071  -17.4806  -19.2502 C   0  0  0  0  0  0  0  0  0  0  0  0
   25.5883  -17.9421  -18.3435 C   0  0  0  0  0  0  0  0  0  0  0  0
   26.3279  -18.9243  -17.4651 C   0  0  1  0  0  0  0  0  0  0  0  0
   25.4486  -19.7749  -16.6394 C   0  0  0  0  0  0  0  0  0  0  0  0
   24.9097  -20.7961  -17.0854 O   0  0  0  0  0  0  0  0  0  0  0  0
   25.6369  -22.6421  -12.1710 N   0  0  0  0  0  0  0  0  0  0  0  0
   24.2614  -22.2925  -12.1940 C   0  0  0  0  0  0  0  0  0  0  0  0
   23.4096  -23.1963  -12.3021 O   0  0  0  0  0  0  0  0  0  0  0  0
   23.8742  -20.8317  -12.0868 C   0  0  0  0  0  0  0  0  0  0  0  0
   24.7638  -20.0063  -12.9727 C   0  0  0  0  0  0  0  0  0  0  0  0
   24.3551  -20.1798  -14.4101 C   0  0  2  0  0  0  0  0  0  0  0  0
   25.2230  -19.3949  -15.2853 N   0  0  0  0  0  0  0  0  0  0  0  0
   22.9657  -19.8525  -14.7162 C   0  0  0  0  0  0  0  0  0  0  0  0
   22.4757  -18.6824  -14.5657 O   0  0  0  0  0  0  0  0  0  0  0  0
   20.4561  -22.7301  -16.5635 C   0  0  0  0  0  0  0  0  0  0  0  0
   20.2720  -21.2240  -16.7824 C   0  0  2  0  0  0  0  0  0  0  0  0
   21.0842  -20.8112  -17.9813 C   0  0  0  0  0  0  0  0  0  0  0  0
   20.6846  -20.4868  -15.5187 C   0  0  2  0  0  0  0  0  0  0  0  0
   22.0645  -20.8166  -15.2060 N   0  0  0  0  0  0  0  0  0  0  0  0
   19.7581  -20.8755  -14.4418 C   0  0  0  0  0  0  0  0  0  0  0  0
   20.1686  -21.7499  -13.5955 O   0  0  0  0  0  0  0  0  0  0  0  0
   18.4922  -20.4021  -14.2405 O   0  0  0  0  0  0  0  0  0  0  0  0
  1  5  1  0
  1  2  1  0
  2  3  1  0
  4  3  1  0
  5  4  1  0
  5  6  1  6
  6  7  2  0
  9  8  1  0
  9 11  1  0
 10  9  2  0
 12 11  1  0
 13 14  1  0
 13 12  1  1
 14  6  1  0
 15 13  1  0
 16 15  2  0
 18 17  1  1
 18 20  1  0
 19 18  1  0
 20 22  1  0
 20 21  1  1
 21 15  1  0
 22 24  1  0
 23 22  2  0
M  END
$$$$
