PQV.pdb
     RDKit          3D

 24 24  0  0  1  0  0  0  0  0999 V2000
   44.0573  -10.0472   -5.9949 N   0  0  0  0  0  0  0  0  0  0  0  0
   45.2812  -10.7203   -5.5585 C   0  0  0  0  0  0  0  0  0  0  0  0
   45.5893  -11.7510   -6.5978 C   0  0  0  0  0  0  0  0  0  0  0  0
   44.5189  -11.5511   -7.6472 C   0  0  0  0  0  0  0  0  0  0  0  0
   44.1952  -10.0896   -7.4410 C   0  0  1  0  0  0  0  0  0  0  0  0
   42.9699   -9.6408   -8.1308 C   0  0  0  0  0  0  0  0  0  0  0  0
   42.8906   -9.5833   -9.3647 O   0  0  0  0  0  0  0  0  0  0  0  0
   37.3693  -11.0414   -6.1340 N   0  0  0  0  0  0  0  0  0  0  0  0
   37.0295  -10.1460   -7.1817 C   0  0  0  0  0  0  0  0  0  0  0  0
   35.8369  -10.0494   -7.5316 O   0  0  0  0  0  0  0  0  0  0  0  0
   38.1284   -9.3375   -7.8405 C   0  0  0  0  0  0  0  0  0  0  0  0
   39.4611   -9.7408   -7.2758 C   0  0  0  0  0  0  0  0  0  0  0  0
   40.5568   -8.9546   -7.9426 C   0  0  2  0  0  0  0  0  0  0  0  0
   41.8493   -9.2655   -7.3357 N   0  0  0  0  0  0  0  0  0  0  0  0
   40.3813   -7.5053   -7.9486 C   0  0  0  0  0  0  0  0  0  0  0  0
   40.5868   -6.7739   -6.9217 O   0  0  0  0  0  0  0  0  0  0  0  0
   39.8152   -5.3712  -11.5617 C   0  0  0  0  0  0  0  0  0  0  0  0
   40.3598   -4.7304  -10.2799 C   0  0  2  0  0  0  0  0  0  0  0  0
   41.8575   -4.8865  -10.2649 C   0  0  0  0  0  0  0  0  0  0  0  0
   39.6949   -5.3841   -9.0794 C   0  0  2  0  0  0  0  0  0  0  0  0
   39.9714   -6.8101   -9.1020 N   0  0  0  0  0  0  0  0  0  0  0  0
   38.2527   -5.0922   -9.1428 C   0  0  0  0  0  0  0  0  0  0  0  0
   37.4923   -5.9808   -9.6734 O   0  0  0  0  0  0  0  0  0  0  0  0
   37.6251   -3.9648   -8.6931 O   0  0  0  0  0  0  0  0  0  0  0  0
  1  5  1  0
  1  2  1  0
  2  3  1  0
  4  3  1  0
  5  4  1  0
  5  6  1  6
  6  7  2  0
  9  8  1  0
  9 11  1  0
 10  9  2  0
 12 11  1  0
 13 14  1  0
 13 12  1  1
 14  6  1  0
 15 13  1  0
 16 15  2  0
 18 17  1  6
 18 20  1  0
 19 18  1  0
 20 22  1  0
 20 21  1  6
 21 15  1  0
 22 24  1  0
 23 22  2  0
M  END
$$$$
