PQV.pdb
     RDKit          3D

 24 24  0  0  1  0  0  0  0  0999 V2000
   28.1386  -19.7032  -17.1214 N   0  0  0  0  0  0  0  0  0  0  0  0
   28.8790  -18.6324  -17.7898 C   0  0  0  0  0  0  0  0  0  0  0  0
   28.0935  -17.3779  -17.5734 C   0  0  0  0  0  0  0  0  0  0  0  0
   26.9389  -17.8096  -16.6975 C   0  0  0  0  0  0  0  0  0  0  0  0
   27.5511  -18.9987  -15.9943 C   0  0  1  0  0  0  0  0  0  0  0  0
   26.5778  -19.8325  -15.2622 C   0  0  0  0  0  0  0  0  0  0  0  0
   25.9980  -20.7891  -15.7921 O   0  0  0  0  0  0  0  0  0  0  0  0
   26.1363  -20.2818   -9.0000 N   0  0  0  0  0  0  0  0  0  0  0  0
   24.9884  -21.0022   -9.4221 C   0  0  0  0  0  0  0  0  0  0  0  0
   24.3149  -21.6180   -8.5727 O   0  0  0  0  0  0  0  0  0  0  0  0
   24.6200  -20.9990  -10.8916 C   0  0  0  0  0  0  0  0  0  0  0  0
   25.6231  -20.1887  -11.6628 C   0  0  0  0  0  0  0  0  0  0  0  0
   25.3053  -20.2475  -13.1321 C   0  0  2  0  0  0  0  0  0  0  0  0
   26.3082  -19.5134  -13.9005 N   0  0  0  0  0  0  0  0  0  0  0  0
   23.9812  -19.7642  -13.5122 C   0  0  0  0  0  0  0  0  0  0  0  0
   23.6646  -18.5266  -13.5135 O   0  0  0  0  0  0  0  0  0  0  0  0
   21.3105  -22.2225  -15.6285 C   0  0  0  0  0  0  0  0  0  0  0  0
   21.2842  -20.6900  -15.6623 C   0  0  2  0  0  0  0  0  0  0  0  0
   22.2431  -20.2176  -16.7228 C   0  0  0  0  0  0  0  0  0  0  0  0
   21.6358  -20.1591  -14.2820 C   0  0  2  0  0  0  0  0  0  0  0  0
   22.9546  -20.6415  -13.9099 N   0  0  0  0  0  0  0  0  0  0  0  0
   20.5914  -20.6036  -13.3436 C   0  0  0  0  0  0  0  0  0  0  0  0
   20.8851  -21.5649  -12.5442 O   0  0  0  0  0  0  0  0  0  0  0  0
   19.3267  -20.0995  -13.2274 O   0  0  0  0  0  0  0  0  0  0  0  0
  1  5  1  0
  1  2  1  0
  2  3  1  0
  4  3  1  0
  5  4  1  0
  5  6  1  6
  6  7  2  0
  9  8  1  0
  9 11  1  0
 10  9  2  0
 12 11  1  0
 13 14  1  0
 13 12  1  1
 14  6  1  0
 15 13  1  0
 16 15  2  0
 18 17  1  1
 18 20  1  0
 19 18  1  0
 20 22  1  0
 20 21  1  1
 21 15  1  0
 22 24  1  0
 23 22  2  0
M  END
$$$$
