PQV.pdb
     RDKit          3D

 24 24  0  0  1  0  0  0  0  0999 V2000
   22.0177  -12.9448  -17.2438 N   0  0  0  0  0  0  0  0  0  0  0  0
   22.3773  -14.2815  -17.7187 C   0  0  0  0  0  0  0  0  0  0  0  0
   21.8541  -14.3875  -19.1160 C   0  0  0  0  0  0  0  0  0  0  0  0
   21.2637  -13.0237  -19.3955 C   0  0  0  0  0  0  0  0  0  0  0  0
   22.0920  -12.1653  -18.4680 C   0  0  1  0  0  0  0  0  0  0  0  0
   21.5714  -10.7958  -18.2888 C   0  0  0  0  0  0  0  0  0  0  0  0
   21.5603   -9.9683  -19.2092 O   0  0  0  0  0  0  0  0  0  0  0  0
   16.4803   -9.5804  -15.3166 N   0  0  0  0  0  0  0  0  0  0  0  0
   16.9447   -8.2518  -15.5013 C   0  0  0  0  0  0  0  0  0  0  0  0
   16.2002   -7.3021  -15.1886 O   0  0  0  0  0  0  0  0  0  0  0  0
   18.3305   -8.0323  -16.0730 C   0  0  0  0  0  0  0  0  0  0  0  0
   18.9864   -9.3588  -16.3330 C   0  0  0  0  0  0  0  0  0  0  0  0
   20.4037   -9.1462  -16.7907 C   0  0  2  0  0  0  0  0  0  0  0  0
   21.0673  -10.4299  -17.0079 N   0  0  0  0  0  0  0  0  0  0  0  0
   21.2373   -8.3337  -15.9098 C   0  0  0  0  0  0  0  0  0  0  0  0
   21.8837   -8.8174  -14.9199 O   0  0  0  0  0  0  0  0  0  0  0  0
   23.4633   -5.2404  -17.0948 C   0  0  0  0  0  0  0  0  0  0  0  0
   22.5964   -4.8590  -15.8893 C   0  0  2  0  0  0  0  0  0  0  0  0
   23.3924   -3.9436  -14.9971 C   0  0  0  0  0  0  0  0  0  0  0  0
   22.1554   -6.1271  -15.1765 C   0  0  2  0  0  0  0  0  0  0  0  0
   21.3873   -6.9466  -16.0979 N   0  0  0  0  0  0  0  0  0  0  0  0
   21.3744   -5.7349  -13.9911 C   0  0  0  0  0  0  0  0  0  0  0  0
   20.1091   -5.5760  -14.1427 O   0  0  0  0  0  0  0  0  0  0  0  0
   21.8537   -5.5184  -12.7299 O   0  0  0  0  0  0  0  0  0  0  0  0
  1  5  1  0
  1  2  1  0
  2  3  1  0
  4  3  1  0
  5  4  1  0
  5  6  1  1
  6  7  2  0
  9  8  1  0
  9 11  1  0
 10  9  2  0
 12 11  1  0
 13 14  1  0
 13 12  1  1
 14  6  1  0
 15 13  1  0
 16 15  2  0
 18 17  1  6
 18 20  1  0
 19 18  1  0
 20 22  1  0
 20 21  1  6
 21 15  1  0
 22 24  1  0
 23 22  2  0
M  END
$$$$
