PQV.pdb
     RDKit          3D

 24 24  0  0  1  0  0  0  0  0999 V2000
   27.4018  -20.5854  -15.6110 N   0  0  0  0  0  0  0  0  0  0  0  0
   28.0523  -20.3190  -16.8945 C   0  0  0  0  0  0  0  0  0  0  0  0
   28.3848  -18.8607  -16.9042 C   0  0  0  0  0  0  0  0  0  0  0  0
   27.9511  -18.3723  -15.5403 C   0  0  0  0  0  0  0  0  0  0  0  0
   28.0786  -19.6442  -14.7346 C   0  0  1  0  0  0  0  0  0  0  0  0
   27.4526  -19.5771  -13.3996 C   0  0  0  0  0  0  0  0  0  0  0  0
   27.7310  -18.6886  -12.5841 O   0  0  0  0  0  0  0  0  0  0  0  0
   21.5942  -21.2956  -13.3950 N   0  0  0  0  0  0  0  0  0  0  0  0
   21.6961  -20.2116  -12.4843 C   0  0  0  0  0  0  0  0  0  0  0  0
   20.6567  -19.6263  -12.1222 O   0  0  0  0  0  0  0  0  0  0  0  0
   23.0657  -19.8015  -11.9828 C   0  0  0  0  0  0  0  0  0  0  0  0
   24.1121  -20.7018  -12.5762 C   0  0  0  0  0  0  0  0  0  0  0  0
   25.4688  -20.3260  -12.0457 C   0  0  2  0  0  0  0  0  0  0  0  0
   26.4973  -20.5753  -13.0535 N   0  0  0  0  0  0  0  0  0  0  0  0
   25.8654  -20.9813  -10.8030 C   0  0  0  0  0  0  0  0  0  0  0  0
   26.1902  -22.2151  -10.7382 O   0  0  0  0  0  0  0  0  0  0  0  0
   26.3889  -18.7767   -7.1663 C   0  0  0  0  0  0  0  0  0  0  0  0
   27.1003  -20.0994   -7.4741 C   0  0  2  0  0  0  0  0  0  0  0  0
   28.4051  -19.7933   -8.1606 C   0  0  0  0  0  0  0  0  0  0  0  0
   26.1855  -20.9666   -8.3237 C   0  0  2  0  0  0  0  0  0  0  0  0
   25.9192  -20.2868   -9.5797 N   0  0  0  0  0  0  0  0  0  0  0  0
   24.9564  -21.2225   -7.5537 C   0  0  0  0  0  0  0  0  0  0  0  0
   23.8779  -20.6520   -7.9547 O   0  0  0  0  0  0  0  0  0  0  0  0
   24.8346  -22.0108   -6.4442 O   0  0  0  0  0  0  0  0  0  0  0  0
  1  5  1  0
  1  2  1  0
  2  3  1  0
  4  3  1  0
  5  4  1  0
  5  6  1  1
  6  7  2  0
  9  8  1  0
  9 11  1  0
 10  9  2  0
 12 11  1  0
 13 14  1  0
 13 12  1  6
 14  6  1  0
 15 13  1  0
 16 15  2  0
 18 17  1  6
 18 20  1  0
 19 18  1  0
 20 22  1  0
 20 21  1  6
 21 15  1  0
 22 24  1  0
 23 22  2  0
M  END
$$$$
