PQV.pdb
     RDKit          3D

 24 24  0  0  1  0  0  0  0  0999 V2000
   28.2880  -21.1167  -17.8700 N   0  0  0  0  0  0  0  0  0  0  0  0
   29.3783  -21.3354  -18.8212 C   0  0  0  0  0  0  0  0  0  0  0  0
   29.8874  -19.9803  -19.1981 C   0  0  0  0  0  0  0  0  0  0  0  0
   29.0719  -19.0290  -18.3513 C   0  0  0  0  0  0  0  0  0  0  0  0
   28.7340  -19.9191  -17.1780 C   0  0  1  0  0  0  0  0  0  0  0  0
   27.6935  -19.3711  -16.2860 C   0  0  0  0  0  0  0  0  0  0  0  0
   27.8537  -18.3195  -15.6532 O   0  0  0  0  0  0  0  0  0  0  0  0
   21.8005  -20.6008  -16.6523 N   0  0  0  0  0  0  0  0  0  0  0  0
   21.7590  -19.5885  -15.6581 C   0  0  0  0  0  0  0  0  0  0  0  0
   20.6801  -19.3531  -15.0797 O   0  0  0  0  0  0  0  0  0  0  0  0
   23.0280  -18.8273  -15.3333 C   0  0  0  0  0  0  0  0  0  0  0  0
   24.1539  -19.3315  -16.1910 C   0  0  0  0  0  0  0  0  0  0  0  0
   25.3709  -19.5788  -15.3419 C   0  0  2  0  0  0  0  0  0  0  0  0
   26.4690  -20.0878  -16.1606 N   0  0  0  0  0  0  0  0  0  0  0  0
   25.1787  -20.4785  -14.2084 C   0  0  0  0  0  0  0  0  0  0  0  0
   25.0310  -21.7407  -14.3374 O   0  0  0  0  0  0  0  0  0  0  0  0
   27.0660  -20.5092  -10.7950 C   0  0  0  0  0  0  0  0  0  0  0  0
   25.5590  -20.4129  -10.5306 C   0  0  2  0  0  0  0  0  0  0  0  0
   25.2320  -21.2387   -9.3146 C   0  0  0  0  0  0  0  0  0  0  0  0
   24.8093  -20.8781  -11.7684 C   0  0  2  0  0  0  0  0  0  0  0  0
   25.1458  -20.0080  -12.8820 N   0  0  0  0  0  0  0  0  0  0  0  0
   23.3691  -20.8628  -11.4610 C   0  0  0  0  0  0  0  0  0  0  0  0
   22.7137  -19.7973  -11.7517 O   0  0  0  0  0  0  0  0  0  0  0  0
   22.6425  -21.8709  -10.8926 O   0  0  0  0  0  0  0  0  0  0  0  0
  1  5  1  0
  1  2  1  0
  2  3  1  0
  4  3  1  0
  5  4  1  0
  5  6  1  6
  6  7  2  0
  9  8  1  0
  9 11  1  0
 10  9  2  0
 12 11  1  0
 13 14  1  0
 13 12  1  6
 14  6  1  0
 15 13  1  0
 16 15  2  0
 18 17  1  6
 18 20  1  0
 19 18  1  0
 20 22  1  0
 20 21  1  6
 21 15  1  0
 22 24  1  0
 23 22  2  0
M  END
$$$$
