PQV.pdb
     RDKit          3D

 24 24  0  0  1  0  0  0  0  0999 V2000
   27.1097  -19.2873  -16.2359 N   0  0  0  0  0  0  0  0  0  0  0  0
   27.9739  -18.7134  -17.2679 C   0  0  0  0  0  0  0  0  0  0  0  0
   28.2156  -17.2911  -16.8727 C   0  0  0  0  0  0  0  0  0  0  0  0
   27.5041  -17.1488  -15.5459 C   0  0  0  0  0  0  0  0  0  0  0  0
   27.5520  -18.5750  -15.0489 C   0  0  1  0  0  0  0  0  0  0  0  0
   26.6824  -18.8372  -13.8855 C   0  0  0  0  0  0  0  0  0  0  0  0
   26.2527  -17.9275  -13.1644 O   0  0  0  0  0  0  0  0  0  0  0  0
   22.1539  -20.4928  -13.5801 N   0  0  0  0  0  0  0  0  0  0  0  0
   22.1923  -21.1411  -12.3180 C   0  0  0  0  0  0  0  0  0  0  0  0
   21.1960  -21.0713  -11.5718 O   0  0  0  0  0  0  0  0  0  0  0  0
   23.4436  -21.8965  -11.9194 C   0  0  0  0  0  0  0  0  0  0  0  0
   24.5174  -21.6743  -12.9467 C   0  0  0  0  0  0  0  0  0  0  0  0
   25.3865  -20.5176  -12.5342 C   0  0  2  0  0  0  0  0  0  0  0  0
   26.3342  -20.1878  -13.5965 N   0  0  0  0  0  0  0  0  0  0  0  0
   26.1263  -20.6956  -11.2883 C   0  0  0  0  0  0  0  0  0  0  0  0
   27.1705  -21.4255  -11.1957 O   0  0  0  0  0  0  0  0  0  0  0  0
   27.4246  -18.3550   -8.5711 C   0  0  0  0  0  0  0  0  0  0  0  0
   26.4242  -19.3034   -7.9002 C   0  0  2  0  0  0  0  0  0  0  0  0
   26.9563  -19.6790   -6.5425 C   0  0  0  0  0  0  0  0  0  0  0  0
   26.2119  -20.5125   -8.7966 C   0  0  2  0  0  0  0  0  0  0  0  0
   25.7337  -20.0640  -10.0930 N   0  0  0  0  0  0  0  0  0  0  0  0
   25.2570  -21.4128   -8.1282 C   0  0  0  0  0  0  0  0  0  0  0  0
   24.0144  -21.2831   -8.4259 O   0  0  0  0  0  0  0  0  0  0  0  0
   25.5506  -22.3845   -7.2135 O   0  0  0  0  0  0  0  0  0  0  0  0
  1  5  1  0
  1  2  1  0
  2  3  1  0
  4  3  1  0
  5  4  1  0
  5  6  1  1
  6  7  2  0
  9  8  1  0
  9 11  1  0
 10  9  2  0
 12 11  1  0
 13 14  1  0
 13 12  1  6
 14  6  1  0
 15 13  1  0
 16 15  2  0
 18 17  1  6
 18 20  1  0
 19 18  1  0
 20 22  1  0
 20 21  1  6
 21 15  1  0
 22 24  1  0
 23 22  2  0
M  END
$$$$
