PQV.pdb
     RDKit          3D

 24 24  0  0  1  0  0  0  0  0999 V2000
   27.6139  -19.5677  -16.8277 N   0  0  0  0  0  0  0  0  0  0  0  0
   28.6278  -19.2044  -17.8184 C   0  0  0  0  0  0  0  0  0  0  0  0
   28.4475  -17.7446  -18.0904 C   0  0  0  0  0  0  0  0  0  0  0  0
   27.3416  -17.3254  -17.1479 C   0  0  0  0  0  0  0  0  0  0  0  0
   27.5111  -18.3464  -16.0469 C   0  0  1  0  0  0  0  0  0  0  0  0
   26.3895  -18.3907  -15.0885 C   0  0  0  0  0  0  0  0  0  0  0  0
   26.0801  -17.4174  -14.3892 O   0  0  0  0  0  0  0  0  0  0  0  0
   20.6077  -20.3606  -14.9625 N   0  0  0  0  0  0  0  0  0  0  0  0
   21.2411  -19.3370  -15.7146 C   0  0  0  0  0  0  0  0  0  0  0  0
   20.5354  -18.5102  -16.3250 O   0  0  0  0  0  0  0  0  0  0  0  0
   22.7548  -19.2836  -15.7509 C   0  0  0  0  0  0  0  0  0  0  0  0
   23.3197  -20.2956  -14.7948 C   0  0  0  0  0  0  0  0  0  0  0  0
   24.5037  -19.7110  -14.0738 C   0  0  2  0  0  0  0  0  0  0  0  0
   25.6473  -19.6013  -14.9768 N   0  0  0  0  0  0  0  0  0  0  0  0
   24.9261  -20.4228  -12.8712 C   0  0  0  0  0  0  0  0  0  0  0  0
   25.5040  -21.5615  -12.9019 O   0  0  0  0  0  0  0  0  0  0  0  0
   26.7246  -18.9248   -9.8154 C   0  0  0  0  0  0  0  0  0  0  0  0
   25.5067  -19.6999   -9.2995 C   0  0  2  0  0  0  0  0  0  0  0  0
   25.8954  -20.4158   -8.0331 C   0  0  0  0  0  0  0  0  0  0  0  0
   25.0318  -20.6532  -10.3841 C   0  0  2  0  0  0  0  0  0  0  0  0
   24.7238  -19.8925  -11.5829 N   0  0  0  0  0  0  0  0  0  0  0  0
   23.8614  -21.3833   -9.8681 C   0  0  0  0  0  0  0  0  0  0  0  0
   24.0708  -22.2761   -8.9689 O   0  0  0  0  0  0  0  0  0  0  0  0
   22.5591  -21.2138  -10.2453 O   0  0  0  0  0  0  0  0  0  0  0  0
  1  5  1  0
  1  2  1  0
  2  3  1  0
  4  3  1  0
  5  4  1  0
  5  6  1  1
  6  7  2  0
  9  8  1  0
  9 11  1  0
 10  9  2  0
 12 11  1  0
 13 14  1  0
 13 12  1  6
 14  6  1  0
 15 13  1  0
 16 15  2  0
 18 17  1  6
 18 20  1  0
 19 18  1  0
 20 22  1  0
 20 21  1  6
 21 15  1  0
 22 24  1  0
 23 22  2  0
M  END
$$$$
