PQV.pdb
     RDKit          3D

 24 24  0  0  1  0  0  0  0  0999 V2000
   16.5246  -11.4329  -14.4556 N   0  0  0  0  0  0  0  0  0  0  0  0
   15.9938  -12.7928  -14.5576 C   0  0  0  0  0  0  0  0  0  0  0  0
   16.0120  -13.1448  -16.0113 C   0  0  0  0  0  0  0  0  0  0  0  0
   16.6445  -11.9428  -16.6761 C   0  0  0  0  0  0  0  0  0  0  0  0
   17.4890  -11.4088  -15.5425 C   0  0  1  0  0  0  0  0  0  0  0  0
   18.0284  -10.0554  -15.7787 C   0  0  0  0  0  0  0  0  0  0  0  0
   18.7868   -9.8029  -16.7237 O   0  0  0  0  0  0  0  0  0  0  0  0
   14.5547   -5.4596  -14.7320 N   0  0  0  0  0  0  0  0  0  0  0  0
   14.7304   -6.2016  -15.9292 C   0  0  0  0  0  0  0  0  0  0  0  0
   13.7859   -6.2743  -16.7396 O   0  0  0  0  0  0  0  0  0  0  0  0
   16.0606   -6.8812  -16.1821 C   0  0  0  0  0  0  0  0  0  0  0  0
   16.9634   -6.6824  -14.9977 C   0  0  0  0  0  0  0  0  0  0  0  0
   18.1188   -7.6433  -15.0698 C   0  0  2  0  0  0  0  0  0  0  0  0
   17.6534   -9.0155  -14.8805 N   0  0  0  0  0  0  0  0  0  0  0  0
   19.2119   -7.3888  -14.1362 C   0  0  0  0  0  0  0  0  0  0  0  0
   19.1103   -7.5750  -12.8765 O   0  0  0  0  0  0  0  0  0  0  0  0
   23.1352   -6.9841  -15.5084 C   0  0  0  0  0  0  0  0  0  0  0  0
   22.7895   -7.3821  -14.0688 C   0  0  2  0  0  0  0  0  0  0  0  0
   22.6115   -8.8764  -14.0144 C   0  0  0  0  0  0  0  0  0  0  0  0
   21.5410   -6.6315  -13.6348 C   0  0  2  0  0  0  0  0  0  0  0  0
   20.4660   -6.9183  -14.5691 N   0  0  0  0  0  0  0  0  0  0  0  0
   21.8681   -5.1965  -13.5809 C   0  0  0  0  0  0  0  0  0  0  0  0
   21.4603   -4.4602  -14.5509 O   0  0  0  0  0  0  0  0  0  0  0  0
   22.5673   -4.5526  -12.5992 O   0  0  0  0  0  0  0  0  0  0  0  0
  1  5  1  0
  1  2  1  0
  2  3  1  0
  4  3  1  0
  5  4  1  0
  5  6  1  6
  6  7  2  0
  9  8  1  0
  9 11  1  0
 10  9  2  0
 12 11  1  0
 13 14  1  0
 13 12  1  1
 14  6  1  0
 15 13  1  0
 16 15  2  0
 18 17  1  6
 18 20  1  0
 19 18  1  0
 20 22  1  0
 20 21  1  6
 21 15  1  0
 22 24  1  0
 23 22  2  0
M  END
$$$$
