PQV.pdb
     RDKit          3D

 24 24  0  0  1  0  0  0  0  0999 V2000
   15.8423  -13.4593  -15.5407 N   0  0  0  0  0  0  0  0  0  0  0  0
   14.9640  -14.6208  -15.3960 C   0  0  0  0  0  0  0  0  0  0  0  0
   15.0954  -15.4089  -16.6606 C   0  0  0  0  0  0  0  0  0  0  0  0
   16.1379  -14.6586  -17.4587 C   0  0  0  0  0  0  0  0  0  0  0  0
   16.9227  -14.0029  -16.3463 C   0  0  1  0  0  0  0  0  0  0  0  0
   17.8572  -12.9562  -16.8042 C   0  0  0  0  0  0  0  0  0  0  0  0
   18.8377  -13.2120  -17.5150 O   0  0  0  0  0  0  0  0  0  0  0  0
   15.3404   -9.6033  -18.8132 N   0  0  0  0  0  0  0  0  0  0  0  0
   16.4279   -9.9685  -19.6491 C   0  0  0  0  0  0  0  0  0  0  0  0
   16.1985  -10.3048  -20.8274 O   0  0  0  0  0  0  0  0  0  0  0  0
   17.8320   -9.9378  -19.0809 C   0  0  0  0  0  0  0  0  0  0  0  0
   17.7851   -9.5176  -17.6391 C   0  0  0  0  0  0  0  0  0  0  0  0
   18.5092  -10.5264  -16.7899 C   0  0  2  0  0  0  0  0  0  0  0  0
   17.6081  -11.6113  -16.4070 N   0  0  0  0  0  0  0  0  0  0  0  0
   19.1431   -9.9998  -15.5848 C   0  0  0  0  0  0  0  0  0  0  0  0
   18.5370   -9.9009  -14.4647 O   0  0  0  0  0  0  0  0  0  0  0  0
   22.9479   -9.5447  -12.7358 C   0  0  0  0  0  0  0  0  0  0  0  0
   22.3565   -9.9426  -14.0931 C   0  0  2  0  0  0  0  0  0  0  0  0
   23.4190   -9.7741  -15.1468 C   0  0  0  0  0  0  0  0  0  0  0  0
   21.1271   -9.0910  -14.3653 C   0  0  2  0  0  0  0  0  0  0  0  0
   20.4815   -9.5636  -15.5779 N   0  0  0  0  0  0  0  0  0  0  0  0
   21.5601   -7.6873  -14.4720 C   0  0  0  0  0  0  0  0  0  0  0  0
   21.7160   -7.2047  -15.6519 O   0  0  0  0  0  0  0  0  0  0  0  0
   21.8181   -6.8295  -13.4401 O   0  0  0  0  0  0  0  0  0  0  0  0
  1  5  1  0
  1  2  1  0
  2  3  1  0
  4  3  1  0
  5  4  1  0
  5  6  1  6
  6  7  2  0
  9  8  1  0
  9 11  1  0
 10  9  2  0
 12 11  1  0
 13 14  1  0
 13 12  1  1
 14  6  1  0
 15 13  1  0
 16 15  2  0
 18 17  1  1
 18 20  1  0
 19 18  1  0
 20 22  1  0
 20 21  1  6
 21 15  1  0
 22 24  1  0
 23 22  2  0
M  END
$$$$
