CNS.pdb
     RDKit          3D

 21 20  0  0  1  0  0  0  0  0999 V2000
    8.6329  -14.7911   18.0401 N   0  0  0  0  0  0  0  0  0  0  0  0
    9.6203  -14.2155   18.8988 C   0  0  1  0  0  0  0  0  0  0  0  0
    8.9316  -13.2902   19.8670 C   0  0  0  0  0  0  0  0  0  0  0  0
    8.3750  -11.8378   18.9216 S   0  0  0  0  0  0  0  0  0  0  0  0
   10.4357  -15.2437   19.5451 C   0  0  0  0  0  0  0  0  0  0  0  0
    9.8542  -16.2722   19.9761 O   0  0  0  0  0  0  0  0  0  0  0  0
   16.1721  -16.9268   20.9162 N   0  0  0  0  0  0  0  0  0  0  0  0
   14.8206  -17.2244   20.6659 C   0  0  0  0  0  0  0  0  0  0  0  0
   14.3030  -18.3154   21.0093 O   0  0  0  0  0  0  0  0  0  0  0  0
   13.9727  -16.2282   19.9770 C   0  0  0  0  0  0  0  0  0  0  0  0
   12.5347  -16.2512   20.4430 C   0  0  2  0  0  0  0  0  0  0  0  0
   11.8328  -15.1745   19.7256 N   0  0  0  0  0  0  0  0  0  0  0  0
   12.4885  -16.0061   21.9056 C   0  0  0  0  0  0  0  0  0  0  0  0
   13.0544  -15.0371   22.4508 O   0  0  0  0  0  0  0  0  0  0  0  0
    9.5351  -17.5661   24.2720 O   0  0  0  0  0  0  0  0  0  0  0  0
   10.3541  -16.5543   24.7582 C   0  0  0  0  0  0  0  0  0  0  0  0
   11.7657  -16.6815   24.2190 C   0  0  2  0  0  0  0  0  0  0  0  0
   11.7748  -16.8903   22.7888 N   0  0  0  0  0  0  0  0  0  0  0  0
   12.3746  -17.8531   24.8902 C   0  0  0  0  0  0  0  0  0  0  0  0
   12.8447  -18.9418   24.1851 O   0  0  0  0  0  0  0  0  0  0  0  0
   12.4651  -17.8545   26.1353 O   0  0  0  0  0  0  0  0  0  0  0  0
  2  5  1  0
  2  1  1  1
  3  2  1  0
  4  3  1  0
  5 12  1  0
  6  5  2  0
  7  8  1  0
  8 10  1  0
  9  8  2  0
 11 10  1  6
 11 13  1  0
 12 11  1  0
 13 14  2  0
 13 18  1  0
 15 16  1  0
 17 16  1  1
 17 19  1  0
 18 17  1  0
 19 20  1  0
 21 19  2  0
M  END
$$$$
