CNS.pdb
     RDKit          3D

 21 20  0  0  1  0  0  0  0  0999 V2000
    5.6962  -13.5856   26.2681 N   0  0  0  0  0  0  0  0  0  0  0  0
    6.7163  -12.9934   25.4606 C   0  0  1  0  0  0  0  0  0  0  0  0
    7.6726  -12.2575   26.3616 C   0  0  0  0  0  0  0  0  0  0  0  0
    6.7543  -10.8744   27.1079 S   0  0  0  0  0  0  0  0  0  0  0  0
    7.3623  -13.9835   24.5991 C   0  0  0  0  0  0  0  0  0  0  0  0
    7.4061  -15.1746   25.0003 O   0  0  0  0  0  0  0  0  0  0  0  0
    7.4583  -12.5210   19.9306 N   0  0  0  0  0  0  0  0  0  0  0  0
    7.5871  -13.8426   20.3938 C   0  0  0  0  0  0  0  0  0  0  0  0
    6.7096  -14.7139   20.1773 O   0  0  0  0  0  0  0  0  0  0  0  0
    8.7901  -14.2297   21.1613 C   0  0  0  0  0  0  0  0  0  0  0  0
    8.4650  -14.8102   22.5187 C   0  0  2  0  0  0  0  0  0  0  0  0
    7.9448  -13.7082   23.3445 N   0  0  0  0  0  0  0  0  0  0  0  0
    9.7007  -15.3642   23.1247 C   0  0  0  0  0  0  0  0  0  0  0  0
   10.8032  -14.7825   23.0729 O   0  0  0  0  0  0  0  0  0  0  0  0
   11.7802  -18.9846   25.7050 O   0  0  0  0  0  0  0  0  0  0  0  0
   10.6159  -18.4571   25.1600 C   0  0  0  0  0  0  0  0  0  0  0  0
   10.8932  -17.1681   24.4110 C   0  0  2  0  0  0  0  0  0  0  0  0
    9.6921  -16.6259   23.8172 N   0  0  0  0  0  0  0  0  0  0  0  0
   11.8644  -17.4966   23.3419 C   0  0  0  0  0  0  0  0  0  0  0  0
   13.2277  -17.4161   23.5376 O   0  0  0  0  0  0  0  0  0  0  0  0
   11.4340  -17.8581   22.2272 O   0  0  0  0  0  0  0  0  0  0  0  0
  2  5  1  0
  2  1  1  1
  3  2  1  0
  4  3  1  0
  5 12  1  0
  6  5  2  0
  7  8  1  0
  8 10  1  0
  9  8  2  0
 11 10  1  6
 11 13  1  0
 12 11  1  0
 13 14  2  0
 13 18  1  0
 15 16  1  0
 17 16  1  6
 17 19  1  0
 18 17  1  0
 19 20  1  0
 21 19  2  0
M  END
$$$$
