CNS.pdb
     RDKit          3D

 21 20  0  0  1  0  0  0  0  0999 V2000
   11.3664  -17.1657   14.7265 N   0  0  0  0  0  0  0  0  0  0  0  0
   10.1912  -17.1771   15.5403 C   0  0  1  0  0  0  0  0  0  0  0  0
    9.8579  -18.6060   15.8793 C   0  0  0  0  0  0  0  0  0  0  0  0
    8.5121  -18.5697   17.1044 S   0  0  0  0  0  0  0  0  0  0  0  0
   10.3400  -16.3130   16.7113 C   0  0  0  0  0  0  0  0  0  0  0  0
   11.4151  -15.6730   16.8385 O   0  0  0  0  0  0  0  0  0  0  0  0
    7.6812  -12.4879   17.9149 N   0  0  0  0  0  0  0  0  0  0  0  0
    7.6712  -13.8915   18.0029 C   0  0  0  0  0  0  0  0  0  0  0  0
    7.1413  -14.6115   17.1215 O   0  0  0  0  0  0  0  0  0  0  0  0
    8.3019  -14.5511   19.1662 C   0  0  0  0  0  0  0  0  0  0  0  0
    9.6210  -15.2089   18.8304 C   0  0  2  0  0  0  0  0  0  0  0  0
    9.3673  -16.1382   17.7174 N   0  0  0  0  0  0  0  0  0  0  0  0
   10.1145  -15.9528   20.0155 C   0  0  0  0  0  0  0  0  0  0  0  0
   10.2923  -15.4179   21.1285 O   0  0  0  0  0  0  0  0  0  0  0  0
   10.4266  -20.0759   19.8775 O   0  0  0  0  0  0  0  0  0  0  0  0
   10.4760  -19.4957   21.1392 C   0  0  0  0  0  0  0  0  0  0  0  0
   10.9802  -18.0673   21.0690 C   0  0  2  0  0  0  0  0  0  0  0  0
   10.4198  -17.3573   19.9416 N   0  0  0  0  0  0  0  0  0  0  0  0
   12.4520  -18.1413   20.9203 C   0  0  0  0  0  0  0  0  0  0  0  0
   13.2612  -18.7006   21.8877 O   0  0  0  0  0  0  0  0  0  0  0  0
   12.9768  -17.6821   19.8847 O   0  0  0  0  0  0  0  0  0  0  0  0
  2  5  1  0
  2  1  1  1
  3  2  1  0
  4  3  1  0
  5 12  1  0
  6  5  2  0
  7  8  1  0
  8 10  1  0
  9  8  2  0
 11 10  1  1
 11 13  1  0
 12 11  1  0
 13 14  2  0
 13 18  1  0
 15 16  1  0
 17 16  1  6
 17 19  1  0
 18 17  1  0
 19 20  1  0
 21 19  2  0
M  END
$$$$
