CNS.pdb
     RDKit          3D

 21 20  0  0  1  0  0  0  0  0999 V2000
    8.0816  -15.5728   15.0184 N   0  0  0  0  0  0  0  0  0  0  0  0
    9.3329  -15.1646   15.5762 C   0  0  1  0  0  0  0  0  0  0  0  0
    9.0617  -14.3348   16.8032 C   0  0  0  0  0  0  0  0  0  0  0  0
    8.1373  -12.8621   16.2648 S   0  0  0  0  0  0  0  0  0  0  0  0
   10.2110  -16.3087   15.8210 C   0  0  0  0  0  0  0  0  0  0  0  0
    9.6925  -17.3651   16.2646 O   0  0  0  0  0  0  0  0  0  0  0  0
   12.2915  -18.3434   13.2509 N   0  0  0  0  0  0  0  0  0  0  0  0
   13.5225  -17.8318   13.6990 C   0  0  0  0  0  0  0  0  0  0  0  0
   14.5078  -17.6975   12.9327 O   0  0  0  0  0  0  0  0  0  0  0  0
   13.6726  -17.4362   15.1157 C   0  0  0  0  0  0  0  0  0  0  0  0
   12.3827  -17.5353   15.8979 C   0  0  2  0  0  0  0  0  0  0  0  0
   11.6035  -16.3230   15.5979 N   0  0  0  0  0  0  0  0  0  0  0  0
   12.6913  -17.5992   17.3477 C   0  0  0  0  0  0  0  0  0  0  0  0
   13.1996  -16.6496   17.9771 O   0  0  0  0  0  0  0  0  0  0  0  0
   10.3642  -19.0200   20.1916 O   0  0  0  0  0  0  0  0  0  0  0  0
   11.6077  -19.6352   20.2706 C   0  0  0  0  0  0  0  0  0  0  0  0
   12.6669  -18.8320   19.5409 C   0  0  2  0  0  0  0  0  0  0  0  0
   12.4150  -18.7828   18.1185 N   0  0  0  0  0  0  0  0  0  0  0  0
   13.9608  -19.5094   19.7874 C   0  0  0  0  0  0  0  0  0  0  0  0
   14.6914  -20.0905   18.7714 O   0  0  0  0  0  0  0  0  0  0  0  0
   14.4043  -19.5556   20.9535 O   0  0  0  0  0  0  0  0  0  0  0  0
  2  5  1  0
  2  1  1  1
  3  2  1  0
  4  3  1  0
  5 12  1  0
  6  5  2  0
  7  8  1  0
  8 10  1  0
  9  8  2  0
 11 10  1  6
 11 13  1  0
 12 11  1  0
 13 14  2  0
 13 18  1  0
 15 16  1  0
 17 16  1  1
 17 19  1  0
 18 17  1  0
 19 20  1  0
 21 19  2  0
M  END
$$$$
