CNS.pdb
     RDKit          3D

 21 20  0  0  1  0  0  0  0  0999 V2000
    5.7000  -19.2204   20.8851 N   0  0  0  0  0  0  0  0  0  0  0  0
    5.5815  -17.8355   21.2189 C   0  0  1  0  0  0  0  0  0  0  0  0
    4.9162  -17.7231   22.5652 C   0  0  0  0  0  0  0  0  0  0  0  0
    6.1181  -18.2887   23.8096 S   0  0  0  0  0  0  0  0  0  0  0  0
    6.8723  -17.1515   21.1407 C   0  0  0  0  0  0  0  0  0  0  0  0
    7.9109  -17.8582   21.0804 O   0  0  0  0  0  0  0  0  0  0  0  0
    6.7201  -12.6512   19.0562 N   0  0  0  0  0  0  0  0  0  0  0  0
    7.7694  -13.5537   19.3060 C   0  0  0  0  0  0  0  0  0  0  0  0
    8.3083  -14.2206   18.3890 O   0  0  0  0  0  0  0  0  0  0  0  0
    8.2618  -13.7308   20.6888 C   0  0  0  0  0  0  0  0  0  0  0  0
    8.4044  -15.1826   21.0851 C   0  0  2  0  0  0  0  0  0  0  0  0
    7.0477  -15.7522   21.1275 N   0  0  0  0  0  0  0  0  0  0  0  0
    9.0363  -15.2662   22.4250 C   0  0  0  0  0  0  0  0  0  0  0  0
    8.4050  -15.0902   23.4865 O   0  0  0  0  0  0  0  0  0  0  0  0
   10.8630  -18.1718   25.1190 O   0  0  0  0  0  0  0  0  0  0  0  0
   10.3183  -17.5475   24.0035 C   0  0  0  0  0  0  0  0  0  0  0  0
   10.9534  -16.1910   23.7666 C   0  0  2  0  0  0  0  0  0  0  0  0
   10.4373  -15.5603   22.5728 N   0  0  0  0  0  0  0  0  0  0  0  0
   12.4079  -16.4226   23.6099 C   0  0  0  0  0  0  0  0  0  0  0  0
   13.2157  -16.7685   24.6735 O   0  0  0  0  0  0  0  0  0  0  0  0
   12.9190  -16.3006   22.4774 O   0  0  0  0  0  0  0  0  0  0  0  0
  2  5  1  0
  2  1  1  1
  3  2  1  0
  4  3  1  0
  5 12  1  0
  6  5  2  0
  7  8  1  0
  8 10  1  0
  9  8  2  0
 11 10  1  1
 11 13  1  0
 12 11  1  0
 13 14  2  0
 13 18  1  0
 15 16  1  0
 17 16  1  6
 17 19  1  0
 18 17  1  0
 19 20  1  0
 21 19  2  0
M  END
$$$$
