CNS.pdb
     RDKit          3D

 21 20  0  0  1  0  0  0  0  0999 V2000
    7.2386  -15.2706   17.0929 N   0  0  0  0  0  0  0  0  0  0  0  0
    8.4553  -14.8945   17.7423 C   0  0  1  0  0  0  0  0  0  0  0  0
    8.2730  -13.5262   18.3443 C   0  0  0  0  0  0  0  0  0  0  0  0
    8.0836  -12.3518   16.9666 S   0  0  0  0  0  0  0  0  0  0  0  0
    8.8868  -15.9086   18.7043 C   0  0  0  0  0  0  0  0  0  0  0  0
    8.0148  -16.4201   19.4523 O   0  0  0  0  0  0  0  0  0  0  0  0
   11.1721  -20.5870   20.1101 N   0  0  0  0  0  0  0  0  0  0  0  0
   11.9755  -19.4331   20.0798 C   0  0  0  0  0  0  0  0  0  0  0  0
   13.0224  -19.3309   20.7652 O   0  0  0  0  0  0  0  0  0  0  0  0
   11.5846  -18.2979   19.2170 C   0  0  0  0  0  0  0  0  0  0  0  0
   10.5135  -17.4272   19.8334 C   0  0  2  0  0  0  0  0  0  0  0  0
   10.2126  -16.3628   18.8621 N   0  0  0  0  0  0  0  0  0  0  0  0
   11.0254  -16.8382   21.0953 C   0  0  0  0  0  0  0  0  0  0  0  0
   11.8141  -15.8720   21.1238 O   0  0  0  0  0  0  0  0  0  0  0  0
   10.2684  -15.8139   25.6860 O   0  0  0  0  0  0  0  0  0  0  0  0
    9.8603  -16.3149   24.4558 C   0  0  0  0  0  0  0  0  0  0  0  0
   11.0478  -16.7298   23.6089 C   0  0  2  0  0  0  0  0  0  0  0  0
   10.6313  -17.3609   22.3770 N   0  0  0  0  0  0  0  0  0  0  0  0
   11.8301  -17.6951   24.4151 C   0  0  0  0  0  0  0  0  0  0  0  0
   12.5406  -17.3124   25.5341 O   0  0  0  0  0  0  0  0  0  0  0  0
   11.8465  -18.8947   24.0698 O   0  0  0  0  0  0  0  0  0  0  0  0
  2  5  1  0
  2  1  1  1
  3  2  1  0
  4  3  1  0
  5 12  1  0
  6  5  2  0
  7  8  1  0
  8 10  1  0
  9  8  2  0
 11 10  1  6
 11 13  1  0
 12 11  1  0
 13 14  2  0
 13 18  1  0
 15 16  1  0
 17 16  1  1
 17 19  1  0
 18 17  1  0
 19 20  1  0
 21 19  2  0
M  END
$$$$
