CNS.pdb
     RDKit          3D

 21 20  0  0  1  0  0  0  0  0999 V2000
    5.6964  -13.8533   26.3487 N   0  0  0  0  0  0  0  0  0  0  0  0
    6.6905  -13.2021   25.5541 C   0  0  1  0  0  0  0  0  0  0  0  0
    7.6650  -12.5162   26.4748 C   0  0  0  0  0  0  0  0  0  0  0  0
    6.8211  -11.0580   27.1637 S   0  0  0  0  0  0  0  0  0  0  0  0
    7.3204  -14.1300   24.6149 C   0  0  0  0  0  0  0  0  0  0  0  0
    7.2647  -15.3594   24.8744 O   0  0  0  0  0  0  0  0  0  0  0  0
    7.4955  -12.3644   20.1194 N   0  0  0  0  0  0  0  0  0  0  0  0
    7.6323  -13.7054   20.5204 C   0  0  0  0  0  0  0  0  0  0  0  0
    6.7427  -14.5626   20.2971 O   0  0  0  0  0  0  0  0  0  0  0  0
    8.8587  -14.1307   21.2282 C   0  0  0  0  0  0  0  0  0  0  0  0
    8.5761  -14.7863   22.5608 C   0  0  2  0  0  0  0  0  0  0  0  0
    7.9907  -13.7545   23.4323 N   0  0  0  0  0  0  0  0  0  0  0  0
    9.8466  -15.2859   23.1417 C   0  0  0  0  0  0  0  0  0  0  0  0
   10.9629  -15.0562   22.6341 O   0  0  0  0  0  0  0  0  0  0  0  0
    9.6769  -17.7714   26.4535 O   0  0  0  0  0  0  0  0  0  0  0  0
   10.9155  -17.1697   26.2668 C   0  0  0  0  0  0  0  0  0  0  0  0
   11.0769  -16.6715   24.8437 C   0  0  2  0  0  0  0  0  0  0  0  0
    9.8580  -16.0767   24.3440 N   0  0  0  0  0  0  0  0  0  0  0  0
   11.4234  -17.8500   24.0160 C   0  0  0  0  0  0  0  0  0  0  0  0
   10.5797  -18.3347   23.0379 O   0  0  0  0  0  0  0  0  0  0  0  0
   12.5153  -18.4231   24.2107 O   0  0  0  0  0  0  0  0  0  0  0  0
  2  5  1  0
  2  1  1  1
  3  2  1  0
  4  3  1  0
  5 12  1  0
  6  5  2  0
  7  8  1  0
  8 10  1  0
  9  8  2  0
 11 10  1  6
 11 13  1  0
 12 11  1  0
 13 14  2  0
 13 18  1  0
 15 16  1  0
 17 16  1  1
 17 19  1  0
 18 17  1  0
 19 20  1  0
 21 19  2  0
M  END
$$$$
