CNS.pdb
     RDKit          3D

 21 20  0  0  1  0  0  0  0  0999 V2000
    7.3620  -14.4405   17.9864 N   0  0  0  0  0  0  0  0  0  0  0  0
    8.0682  -13.9577   19.1316 C   0  0  1  0  0  0  0  0  0  0  0  0
    7.2349  -12.8922   19.7935 C   0  0  0  0  0  0  0  0  0  0  0  0
    8.1252  -12.3637   21.2906 S   0  0  0  0  0  0  0  0  0  0  0  0
    8.4489  -15.0493   20.0279 C   0  0  0  0  0  0  0  0  0  0  0  0
    7.6624  -16.0247   20.1356 O   0  0  0  0  0  0  0  0  0  0  0  0
   11.7485  -19.0705   21.6442 N   0  0  0  0  0  0  0  0  0  0  0  0
   11.7941  -17.7938   22.2323 C   0  0  0  0  0  0  0  0  0  0  0  0
   12.1836  -17.6164   23.4125 O   0  0  0  0  0  0  0  0  0  0  0  0
   11.3724  -16.6156   21.4449 C   0  0  0  0  0  0  0  0  0  0  0  0
    9.9156  -16.2627   21.6414 C   0  0  2  0  0  0  0  0  0  0  0  0
    9.6364  -15.0969   20.7873 N   0  0  0  0  0  0  0  0  0  0  0  0
    9.6809  -15.9210   23.0660 C   0  0  0  0  0  0  0  0  0  0  0  0
   10.2130  -14.9419   23.6269 O   0  0  0  0  0  0  0  0  0  0  0  0
    6.3440  -17.2343   24.9963 O   0  0  0  0  0  0  0  0  0  0  0  0
    7.0906  -16.2081   25.5624 C   0  0  0  0  0  0  0  0  0  0  0  0
    8.5697  -16.3805   25.2761 C   0  0  2  0  0  0  0  0  0  0  0  0
    8.8105  -16.7166   23.8911 N   0  0  0  0  0  0  0  0  0  0  0  0
    9.0452  -17.4860   26.1396 C   0  0  0  0  0  0  0  0  0  0  0  0
    9.5800  -18.6466   25.6196 O   0  0  0  0  0  0  0  0  0  0  0  0
    8.9587  -17.3625   27.3789 O   0  0  0  0  0  0  0  0  0  0  0  0
  2  5  1  0
  2  1  1  6
  3  2  1  0
  4  3  1  0
  5 12  1  0
  6  5  2  0
  7  8  1  0
  8 10  1  0
  9  8  2  0
 11 10  1  1
 11 13  1  0
 12 11  1  0
 13 14  2  0
 13 18  1  0
 15 16  1  0
 17 16  1  6
 17 19  1  0
 18 17  1  0
 19 20  1  0
 21 19  2  0
M  END
$$$$
