CNS.pdb
     RDKit          3D

 21 20  0  0  1  0  0  0  0  0999 V2000
    7.4187  -15.3240   18.7354 N   0  0  0  0  0  0  0  0  0  0  0  0
    7.9802  -14.5295   19.7827 C   0  0  1  0  0  0  0  0  0  0  0  0
    7.7068  -13.0795   19.4823 C   0  0  0  0  0  0  0  0  0  0  0  0
    9.0578  -12.4854   18.4169 S   0  0  0  0  0  0  0  0  0  0  0  0
    7.5037  -14.9589   21.0974 C   0  0  0  0  0  0  0  0  0  0  0  0
    6.2679  -15.1388   21.2463 O   0  0  0  0  0  0  0  0  0  0  0  0
    6.8450  -18.6611   25.1192 N   0  0  0  0  0  0  0  0  0  0  0  0
    7.6729  -17.5253   25.0716 C   0  0  0  0  0  0  0  0  0  0  0  0
    8.0376  -16.9215   26.1101 O   0  0  0  0  0  0  0  0  0  0  0  0
    8.1347  -17.0170   23.7622 C   0  0  0  0  0  0  0  0  0  0  0  0
    7.7204  -15.5865   23.5029 C   0  0  2  0  0  0  0  0  0  0  0  0
    8.3247  -15.1893   22.2208 N   0  0  0  0  0  0  0  0  0  0  0  0
    8.2277  -14.7222   24.5970 C   0  0  0  0  0  0  0  0  0  0  0  0
    9.4367  -14.6397   24.8931 O   0  0  0  0  0  0  0  0  0  0  0  0
    5.5556  -12.5328   26.9914 O   0  0  0  0  0  0  0  0  0  0  0  0
    6.7987  -11.9571   26.7585 C   0  0  0  0  0  0  0  0  0  0  0  0
    7.8315  -13.0055   26.3932 C   0  0  2  0  0  0  0  0  0  0  0  0
    7.3343  -13.9185   25.3890 N   0  0  0  0  0  0  0  0  0  0  0  0
    8.1336  -13.7568   27.6334 C   0  0  0  0  0  0  0  0  0  0  0  0
    7.9315  -15.1177   27.7360 O   0  0  0  0  0  0  0  0  0  0  0  0
    8.5863  -13.1371   28.6182 O   0  0  0  0  0  0  0  0  0  0  0  0
  2  5  1  0
  2  1  1  6
  3  2  1  0
  4  3  1  0
  5 12  1  0
  6  5  2  0
  7  8  1  0
  8 10  1  0
  9  8  2  0
 11 10  1  1
 11 13  1  0
 12 11  1  0
 13 14  2  0
 13 18  1  0
 15 16  1  0
 17 16  1  1
 17 19  1  0
 18 17  1  0
 19 20  1  0
 21 19  2  0
M  END
$$$$
