CNS.pdb
     RDKit          3D

 21 20  0  0  1  0  0  0  0  0999 V2000
    7.8812  -15.4325   18.2940 N   0  0  0  0  0  0  0  0  0  0  0  0
    8.0527  -14.4523   19.3203 C   0  0  1  0  0  0  0  0  0  0  0  0
    7.3318  -13.1962   18.9075 C   0  0  0  0  0  0  0  0  0  0  0  0
    7.9919  -12.7045   17.2840 S   0  0  0  0  0  0  0  0  0  0  0  0
    7.6416  -14.9650   20.6272 C   0  0  0  0  0  0  0  0  0  0  0  0
    7.7124  -14.1882   21.6138 O   0  0  0  0  0  0  0  0  0  0  0  0
    4.2871  -16.3844   21.0084 N   0  0  0  0  0  0  0  0  0  0  0  0
    4.6268  -17.6835   21.4267 C   0  0  0  0  0  0  0  0  0  0  0  0
    3.8617  -18.6629   21.2496 O   0  0  0  0  0  0  0  0  0  0  0  0
    5.9239  -17.9149   22.0976 C   0  0  0  0  0  0  0  0  0  0  0  0
    6.7541  -16.6586   22.2307 C   0  0  2  0  0  0  0  0  0  0  0  0
    7.1684  -16.2707   20.8725 N   0  0  0  0  0  0  0  0  0  0  0  0
    7.9459  -16.9438   23.0672 C   0  0  0  0  0  0  0  0  0  0  0  0
    8.9256  -17.5967   22.6545 O   0  0  0  0  0  0  0  0  0  0  0  0
   10.4150  -16.0341   27.1862 O   0  0  0  0  0  0  0  0  0  0  0  0
    9.3365  -15.7296   26.3646 C   0  0  0  0  0  0  0  0  0  0  0  0
    9.2018  -16.7348   25.2373 C   0  0  2  0  0  0  0  0  0  0  0  0
    8.0357  -16.4732   24.4243 N   0  0  0  0  0  0  0  0  0  0  0  0
    9.0713  -18.0684   25.8684 C   0  0  0  0  0  0  0  0  0  0  0  0
   10.1692  -18.8098   26.2536 O   0  0  0  0  0  0  0  0  0  0  0  0
    7.9294  -18.5363   26.0576 O   0  0  0  0  0  0  0  0  0  0  0  0
  2  5  1  0
  2  1  1  6
  3  2  1  0
  4  3  1  0
  5 12  1  0
  6  5  2  0
  7  8  1  0
  8 10  1  0
  9  8  2  0
 11 10  1  6
 11 13  1  0
 12 11  1  0
 13 14  2  0
 13 18  1  0
 15 16  1  0
 17 16  1  1
 17 19  1  0
 18 17  1  0
 19 20  1  0
 21 19  2  0
M  END
$$$$
