CNS.pdb
     RDKit          3D

 21 20  0  0  1  0  0  0  0  0999 V2000
    7.7438  -13.0305   15.6065 N   0  0  0  0  0  0  0  0  0  0  0  0
    8.0722  -14.4125   15.7668 C   0  0  1  0  0  0  0  0  0  0  0  0
    8.9505  -14.8320   14.6178 C   0  0  0  0  0  0  0  0  0  0  0  0
    7.8587  -15.1813   13.2039 S   0  0  0  0  0  0  0  0  0  0  0  0
    8.6560  -14.6771   17.0818 C   0  0  0  0  0  0  0  0  0  0  0  0
    9.4789  -13.8436   17.5396 O   0  0  0  0  0  0  0  0  0  0  0  0
    9.3512  -19.2971   19.6898 N   0  0  0  0  0  0  0  0  0  0  0  0
    8.4469  -18.3435   19.1890 C   0  0  0  0  0  0  0  0  0  0  0  0
    7.7891  -18.5357   18.1371 O   0  0  0  0  0  0  0  0  0  0  0  0
    8.2568  -17.0702   19.9161 C   0  0  0  0  0  0  0  0  0  0  0  0
    8.9301  -15.8968   19.2414 C   0  0  2  0  0  0  0  0  0  0  0  0
    8.3683  -15.8007   17.8843 N   0  0  0  0  0  0  0  0  0  0  0  0
   10.3918  -16.1418   19.1737 C   0  0  0  0  0  0  0  0  0  0  0  0
   10.9501  -16.6542   18.1827 O   0  0  0  0  0  0  0  0  0  0  0  0
   13.1766  -13.9737   18.8413 O   0  0  0  0  0  0  0  0  0  0  0  0
   13.3708  -14.5638   20.0843 C   0  0  0  0  0  0  0  0  0  0  0  0
   12.6948  -15.9189   20.1623 C   0  0  2  0  0  0  0  0  0  0  0  0
   11.2587  -15.7945   20.2688 N   0  0  0  0  0  0  0  0  0  0  0  0
   13.2209  -16.5889   21.3740 C   0  0  0  0  0  0  0  0  0  0  0  0
   14.5493  -16.9389   21.5020 O   0  0  0  0  0  0  0  0  0  0  0  0
   12.4354  -16.8449   22.3100 O   0  0  0  0  0  0  0  0  0  0  0  0
  2  5  1  0
  2  1  1  6
  3  2  1  0
  4  3  1  0
  5 12  1  0
  6  5  2  0
  7  8  1  0
  8 10  1  0
  9  8  2  0
 11 10  1  6
 11 13  1  0
 12 11  1  0
 13 14  2  0
 13 18  1  0
 15 16  1  0
 17 16  1  1
 17 19  1  0
 18 17  1  0
 19 20  1  0
 21 19  2  0
M  END
$$$$
