HIL.pdb
     RDKit          3D

 27 27  0  0  1  0  0  0  0  0999 V2000
   27.7073  -19.9679  -17.6569 N   0  0  0  0  0  0  0  0  0  0  0  0
   27.2421  -19.2144  -16.5123 C   0  0  1  0  0  0  0  0  0  0  0  0
   26.2655  -18.1731  -17.0184 C   0  0  0  0  0  0  0  0  0  0  0  0
   27.0688  -17.1071  -17.6734 C   0  0  0  0  0  0  0  0  0  0  0  0
   27.5174  -17.1145  -18.9840 C   0  0  0  0  0  0  0  0  0  0  0  0
   28.2141  -15.9858  -19.2321 N   0  0  0  0  0  0  0  0  0  0  0  0
   28.2102  -15.2687  -18.0967 C   0  0  0  0  0  0  0  0  0  0  0  0
   27.5215  -15.9453  -17.1631 N   0  0  0  0  0  0  0  0  0  0  0  0
   26.6050  -20.1170  -15.5115 C   0  0  0  0  0  0  0  0  0  0  0  0
   25.8914  -21.0491  -15.9314 O   0  0  0  0  0  0  0  0  0  0  0  0
   29.0577  -20.9735  -10.7634 C   0  0  0  0  0  0  0  0  0  0  0  0
   28.2064  -21.2735  -11.9679 C   0  0  0  0  0  0  0  0  0  0  0  0
   26.7974  -20.6879  -11.8043 C   0  0  2  0  0  0  0  0  0  0  0  0
   26.0409  -21.5335  -10.7998 C   0  0  0  0  0  0  0  0  0  0  0  0
   26.0671  -20.7744  -13.1242 C   0  0  2  0  0  0  0  0  0  0  0  0
   26.7786  -19.9562  -14.1208 N   0  0  0  0  0  0  0  0  0  0  0  0
   24.6716  -20.3613  -13.0383 C   0  0  0  0  0  0  0  0  0  0  0  0
   24.4805  -19.1392  -12.6587 O   0  0  0  0  0  0  0  0  0  0  0  0
   20.1905  -18.5315  -15.1755 C   0  0  0  0  0  0  0  0  0  0  0  0
   20.2849  -19.9956  -14.9258 C   0  0  1  0  0  0  0  0  0  0  0  0
   19.7183  -20.7027  -16.1466 C   0  0  0  0  0  0  0  0  0  0  0  0
   21.6707  -20.4564  -14.7148 C   0  0  0  0  0  0  0  0  0  0  0  0
   22.1628  -20.4906  -13.3006 C   0  0  2  0  0  0  0  0  0  0  0  0
   23.5081  -21.0791  -13.3072 N   0  0  0  0  0  0  0  0  0  0  0  0
   21.3377  -21.2126  -12.3363 C   0  0  0  0  0  0  0  0  0  0  0  0
   21.5348  -22.4303  -12.0952 O   0  0  0  0  0  0  0  0  0  0  0  0
   20.3105  -20.5896  -11.6551 O   0  0  0  0  0  0  0  0  0  0  0  0
  2  1  1  6
  3  2  1  0
  4  3  1  0
  4  8  1  0
  5  6  1  0
  5  4  2  0
  6  7  1  0
  7  8  2  0
  9  2  1  0
 10  9  2  0
 12 11  1  0
 13 12  1  0
 13 14  1  1
 15 13  1  0
 15 16  1  6
 16  9  1  0
 17 15  1  0
 18 17  2  0
 20 19  1  6
 21 20  1  0
 22 20  1  0
 23 22  1  6
 23 24  1  0
 24 17  1  0
 25 27  1  0
 25 23  1  0
 26 25  2  0
M  END
$$$$
