HIL.pdb
     RDKit          3D

 27 27  0  0  1  0  0  0  0  0999 V2000
   23.2354  -17.9700  -18.5415 N   0  0  0  0  0  0  0  0  0  0  0  0
   23.2669  -18.0223  -17.0957 C   0  0  1  0  0  0  0  0  0  0  0  0
   21.8342  -18.1060  -16.6112 C   0  0  0  0  0  0  0  0  0  0  0  0
   21.2200  -16.7716  -16.8410 C   0  0  0  0  0  0  0  0  0  0  0  0
   20.0018  -16.5305  -17.4550 C   0  0  0  0  0  0  0  0  0  0  0  0
   19.7655  -15.2023  -17.4899 N   0  0  0  0  0  0  0  0  0  0  0  0
   20.8173  -14.6047  -16.9068 C   0  0  0  0  0  0  0  0  0  0  0  0
   21.6884  -15.5502  -16.5185 N   0  0  0  0  0  0  0  0  0  0  0  0
   24.0682  -19.1892  -16.6283 C   0  0  0  0  0  0  0  0  0  0  0  0
   23.8027  -20.3116  -17.1018 O   0  0  0  0  0  0  0  0  0  0  0  0
   28.5463  -21.9312  -15.4742 C   0  0  0  0  0  0  0  0  0  0  0  0
   28.1374  -20.9409  -14.4169 C   0  0  0  0  0  0  0  0  0  0  0  0
   27.3342  -19.7850  -15.0283 C   0  0  2  0  0  0  0  0  0  0  0  0
   27.3465  -18.6249  -14.0534 C   0  0  0  0  0  0  0  0  0  0  0  0
   25.8986  -20.2196  -15.2112 C   0  0  2  0  0  0  0  0  0  0  0  0
   25.1054  -19.0706  -15.6795 N   0  0  0  0  0  0  0  0  0  0  0  0
   25.3078  -20.7790  -14.0015 C   0  0  0  0  0  0  0  0  0  0  0  0
   25.5135  -22.0436  -13.8210 O   0  0  0  0  0  0  0  0  0  0  0  0
   26.3796  -19.6504   -9.2148 C   0  0  0  0  0  0  0  0  0  0  0  0
   25.9158  -20.3956  -10.4167 C   0  0  1  0  0  0  0  0  0  0  0  0
   26.3055  -21.8528  -10.2268 C   0  0  0  0  0  0  0  0  0  0  0  0
   24.4555  -20.3198  -10.6142 C   0  0  0  0  0  0  0  0  0  0  0  0
   23.9175  -20.8793  -11.8952 C   0  0  2  0  0  0  0  0  0  0  0  0
   24.5578  -20.1600  -13.0036 N   0  0  0  0  0  0  0  0  0  0  0  0
   22.4695  -20.8296  -12.0756 C   0  0  0  0  0  0  0  0  0  0  0  0
   21.9478  -20.0854  -12.9440 O   0  0  0  0  0  0  0  0  0  0  0  0
   21.6183  -21.5931  -11.3011 O   0  0  0  0  0  0  0  0  0  0  0  0
  2  1  1  6
  3  2  1  0
  4  3  1  0
  4  8  1  0
  5  6  1  0
  5  4  2  0
  6  7  1  0
  7  8  2  0
  9  2  1  0
 10  9  2  0
 12 11  1  0
 13 12  1  0
 13 14  1  1
 15 13  1  0
 15 16  1  1
 16  9  1  0
 17 15  1  0
 18 17  2  0
 20 19  1  1
 21 20  1  0
 22 20  1  0
 23 22  1  1
 23 24  1  0
 24 17  1  0
 25 27  1  0
 25 23  1  0
 26 25  2  0
M  END
$$$$
