HIL.pdb
     RDKit          3D

 27 27  0  0  1  0  0  0  0  0999 V2000
   22.1201  -21.2994  -13.2813 N   0  0  0  0  0  0  0  0  0  0  0  0
   22.6602  -20.3109  -12.3729 C   0  0  1  0  0  0  0  0  0  0  0  0
   21.5031  -19.7411  -11.5786 C   0  0  0  0  0  0  0  0  0  0  0  0
   20.7278  -18.8730  -12.5038 C   0  0  0  0  0  0  0  0  0  0  0  0
   21.0531  -17.5769  -12.8692 C   0  0  0  0  0  0  0  0  0  0  0  0
   20.1238  -17.0987  -13.7228 N   0  0  0  0  0  0  0  0  0  0  0  0
   19.2189  -18.0750  -13.8996 C   0  0  0  0  0  0  0  0  0  0  0  0
   19.5851  -19.1387  -13.1661 N   0  0  0  0  0  0  0  0  0  0  0  0
   23.6851  -20.9216  -11.4791 C   0  0  0  0  0  0  0  0  0  0  0  0
   23.3924  -21.9783  -10.8856 O   0  0  0  0  0  0  0  0  0  0  0  0
   29.5229  -22.1737  -11.7462 C   0  0  0  0  0  0  0  0  0  0  0  0
   28.3220  -22.0296  -10.8500 C   0  0  0  0  0  0  0  0  0  0  0  0
   27.2151  -21.2217  -11.5406 C   0  0  2  0  0  0  0  0  0  0  0  0
   27.7557  -19.8419  -11.8573 C   0  0  0  0  0  0  0  0  0  0  0  0
   26.0536  -21.0556  -10.5886 C   0  0  2  0  0  0  0  0  0  0  0  0
   24.9611  -20.3530  -11.2826 N   0  0  0  0  0  0  0  0  0  0  0  0
   26.4090  -20.3481   -9.3646 C   0  0  0  0  0  0  0  0  0  0  0  0
   26.3129  -19.0592   -9.4248 O   0  0  0  0  0  0  0  0  0  0  0  0
   27.0397  -19.1925   -3.9891 C   0  0  0  0  0  0  0  0  0  0  0  0
   27.9406  -20.2132   -4.5905 C   0  0  1  0  0  0  0  0  0  0  0  0
   28.1689  -21.2917   -3.5435 C   0  0  0  0  0  0  0  0  0  0  0  0
   27.3742  -20.8417   -5.7993 C   0  0  0  0  0  0  0  0  0  0  0  0
   27.3426  -20.0071   -7.0426 C   0  0  2  0  0  0  0  0  0  0  0  0
   26.8327  -20.8463   -8.1343 N   0  0  0  0  0  0  0  0  0  0  0  0
   28.6056  -19.4059   -7.4612 C   0  0  0  0  0  0  0  0  0  0  0  0
   29.4038  -20.0250   -8.2092 O   0  0  0  0  0  0  0  0  0  0  0  0
   28.9734  -18.1392   -7.0519 O   0  0  0  0  0  0  0  0  0  0  0  0
  2  1  1  6
  3  2  1  0
  4  3  1  0
  4  8  1  0
  5  6  1  0
  5  4  2  0
  6  7  1  0
  7  8  2  0
  9  2  1  0
 10  9  2  0
 12 11  1  0
 13 12  1  0
 13 14  1  1
 15 13  1  0
 15 16  1  6
 16  9  1  0
 17 15  1  0
 18 17  2  0
 20 19  1  1
 21 20  1  0
 22 20  1  0
 23 22  1  1
 23 24  1  0
 24 17  1  0
 25 27  1  0
 25 23  1  0
 26 25  2  0
M  END
$$$$
