HIL.pdb
     RDKit          3D

 27 27  0  0  1  0  0  0  0  0999 V2000
   24.7022  -16.0791  -21.2906 N   0  0  0  0  0  0  0  0  0  0  0  0
   23.7923  -15.6544  -20.2485 C   0  0  1  0  0  0  0  0  0  0  0  0
   22.4149  -15.5342  -20.8671 C   0  0  0  0  0  0  0  0  0  0  0  0
   22.3212  -14.1721  -21.4558 C   0  0  0  0  0  0  0  0  0  0  0  0
   23.1862  -13.1180  -21.2115 C   0  0  0  0  0  0  0  0  0  0  0  0
   22.7942  -12.0359  -21.9161 N   0  0  0  0  0  0  0  0  0  0  0  0
   21.6954  -12.3942  -22.5999 C   0  0  0  0  0  0  0  0  0  0  0  0
   21.4145  -13.6774  -22.3209 N   0  0  0  0  0  0  0  0  0  0  0  0
   23.7978  -16.6250  -19.1171 C   0  0  0  0  0  0  0  0  0  0  0  0
   23.8005  -17.8422  -19.3873 O   0  0  0  0  0  0  0  0  0  0  0  0
   26.7589  -15.3204  -15.4021 C   0  0  0  0  0  0  0  0  0  0  0  0
   26.0843  -16.5326  -15.9862 C   0  0  0  0  0  0  0  0  0  0  0  0
   24.6261  -16.6287  -15.5179 C   0  0  2  0  0  0  0  0  0  0  0  0
   24.5564  -17.6122  -14.3672 C   0  0  0  0  0  0  0  0  0  0  0  0
   23.7778  -17.1735  -16.6434 C   0  0  2  0  0  0  0  0  0  0  0  0
   23.8000  -16.2203  -17.7657 N   0  0  0  0  0  0  0  0  0  0  0  0
   22.4028  -17.4504  -16.2459 C   0  0  0  0  0  0  0  0  0  0  0  0
   21.7146  -16.4165  -15.8834 O   0  0  0  0  0  0  0  0  0  0  0  0
   18.8338  -20.2072  -18.9142 C   0  0  0  0  0  0  0  0  0  0  0  0
   19.4521  -19.2002  -18.0094 C   0  0  1  0  0  0  0  0  0  0  0  0
   18.5588  -17.9700  -18.0201 C   0  0  0  0  0  0  0  0  0  0  0  0
   19.5816  -19.6769  -16.6190 C   0  0  0  0  0  0  0  0  0  0  0  0
   20.3477  -18.8029  -15.6742 C   0  0  2  0  0  0  0  0  0  0  0  0
   21.7109  -18.6590  -16.2006 N   0  0  0  0  0  0  0  0  0  0  0  0
   20.4236  -19.2468  -14.2854 C   0  0  0  0  0  0  0  0  0  0  0  0
   19.4438  -19.1204  -13.5081 O   0  0  0  0  0  0  0  0  0  0  0  0
   21.5707  -19.8188  -13.7714 O   0  0  0  0  0  0  0  0  0  0  0  0
  2  1  1  6
  3  2  1  0
  4  3  1  0
  4  8  1  0
  5  6  1  0
  5  4  2  0
  6  7  1  0
  7  8  2  0
  9  2  1  0
 10  9  2  0
 12 11  1  0
 13 12  1  0
 13 14  1  1
 15 13  1  0
 15 16  1  6
 16  9  1  0
 17 15  1  0
 18 17  2  0
 20 19  1  6
 21 20  1  0
 22 20  1  0
 23 22  1  6
 23 24  1  0
 24 17  1  0
 25 27  1  0
 25 23  1  0
 26 25  2  0
M  END
$$$$
