HIL.pdb
     RDKit          3D

 27 27  0  0  1  0  0  0  0  0999 V2000
   14.5417  -11.3651  -14.2706 N   0  0  0  0  0  0  0  0  0  0  0  0
   15.6607  -11.0157  -13.4221 C   0  0  1  0  0  0  0  0  0  0  0  0
   16.8676  -10.8209  -14.3164 C   0  0  0  0  0  0  0  0  0  0  0  0
   17.2113  -12.1542  -14.8776 C   0  0  0  0  0  0  0  0  0  0  0  0
   17.4893  -13.2982  -14.1475 C   0  0  0  0  0  0  0  0  0  0  0  0
   17.7582  -14.3193  -14.9877 N   0  0  0  0  0  0  0  0  0  0  0  0
   17.6534  -13.8342  -16.2355 C   0  0  0  0  0  0  0  0  0  0  0  0
   17.3249  -12.5339  -16.1653 N   0  0  0  0  0  0  0  0  0  0  0  0
   15.3615   -9.7847  -12.6364 C   0  0  0  0  0  0  0  0  0  0  0  0
   15.0252   -8.7579  -13.2586 O   0  0  0  0  0  0  0  0  0  0  0  0
   12.5665  -10.7337   -9.8231 C   0  0  0  0  0  0  0  0  0  0  0  0
   12.8192   -9.2541   -9.7092 C   0  0  0  0  0  0  0  0  0  0  0  0
   14.2573   -8.9762   -9.2516 C   0  0  2  0  0  0  0  0  0  0  0  0
   14.2325   -7.8247   -8.2669 C   0  0  0  0  0  0  0  0  0  0  0  0
   15.0836   -8.5485  -10.4421 C   0  0  2  0  0  0  0  0  0  0  0  0
   15.4442   -9.7400  -11.2289 N   0  0  0  0  0  0  0  0  0  0  0  0
   16.2836   -7.8072  -10.0736 C   0  0  0  0  0  0  0  0  0  0  0  0
   17.1287   -8.4556   -9.3391 O   0  0  0  0  0  0  0  0  0  0  0  0
   19.0615   -4.9210  -12.4838 C   0  0  0  0  0  0  0  0  0  0  0  0
   19.0943   -6.3143  -11.9614 C   0  0  1  0  0  0  0  0  0  0  0  0
   20.3887   -6.9500  -12.4429 C   0  0  0  0  0  0  0  0  0  0  0  0
   19.0570   -6.3786  -10.4878 C   0  0  0  0  0  0  0  0  0  0  0  0
   17.8344   -5.8299   -9.8189 C   0  0  2  0  0  0  0  0  0  0  0  0
   16.6653   -6.5062  -10.3948 N   0  0  0  0  0  0  0  0  0  0  0  0
   17.6325   -4.3863   -9.9036 C   0  0  0  0  0  0  0  0  0  0  0  0
   18.4516   -3.5841   -9.3885 O   0  0  0  0  0  0  0  0  0  0  0  0
   16.5368   -3.8468  -10.5483 O   0  0  0  0  0  0  0  0  0  0  0  0
  2  1  1  6
  3  2  1  0
  4  3  1  0
  4  8  1  0
  5  6  1  0
  5  4  2  0
  6  7  1  0
  7  8  2  0
  9  2  1  0
 10  9  2  0
 12 11  1  0
 13 12  1  0
 13 14  1  1
 15 13  1  0
 15 16  1  1
 16  9  1  0
 17 15  1  0
 18 17  2  0
 20 19  1  1
 21 20  1  0
 22 20  1  0
 23 22  1  6
 23 24  1  0
 24 17  1  0
 25 27  1  0
 25 23  1  0
 26 25  2  0
M  END
$$$$
