HIL.pdb
     RDKit          3D

 27 27  0  0  1  0  0  0  0  0999 V2000
   16.5431   -9.2580  -16.8474 N   0  0  0  0  0  0  0  0  0  0  0  0
   17.9480   -9.1210  -17.1663 C   0  0  1  0  0  0  0  0  0  0  0  0
   18.0539   -8.2281  -18.3853 C   0  0  0  0  0  0  0  0  0  0  0  0
   17.5625   -9.0177  -19.5453 C   0  0  0  0  0  0  0  0  0  0  0  0
   16.3083   -8.9188  -20.1253 C   0  0  0  0  0  0  0  0  0  0  0  0
   16.2139   -9.7865  -21.1544 N   0  0  0  0  0  0  0  0  0  0  0  0
   17.3904  -10.4296  -21.2301 C   0  0  0  0  0  0  0  0  0  0  0  0
   18.1974   -9.9652  -20.2624 N   0  0  0  0  0  0  0  0  0  0  0  0
   18.6976   -8.5535  -16.0094 C   0  0  0  0  0  0  0  0  0  0  0  0
   18.0838   -7.8087  -15.2201 O   0  0  0  0  0  0  0  0  0  0  0  0
   23.4089   -9.9935  -12.3469 C   0  0  0  0  0  0  0  0  0  0  0  0
   22.4641   -8.9397  -12.8594 C   0  0  0  0  0  0  0  0  0  0  0  0
   21.7418   -9.4188  -14.1257 C   0  0  2  0  0  0  0  0  0  0  0  0
   22.7729   -9.6227  -15.2173 C   0  0  0  0  0  0  0  0  0  0  0  0
   20.7852   -8.3447  -14.5886 C   0  0  2  0  0  0  0  0  0  0  0  0
   20.0622   -8.8260  -15.7778 N   0  0  0  0  0  0  0  0  0  0  0  0
   21.4411   -7.0754  -14.8783 C   0  0  0  0  0  0  0  0  0  0  0  0
   21.9775   -6.4863  -13.8588 O   0  0  0  0  0  0  0  0  0  0  0  0
   24.9057   -3.6726  -17.4060 C   0  0  0  0  0  0  0  0  0  0  0  0
   23.5304   -3.7752  -17.9654 C   0  0  1  0  0  0  0  0  0  0  0  0
   23.6497   -3.7140  -19.4798 C   0  0  0  0  0  0  0  0  0  0  0  0
   22.8501   -5.0315  -17.5964 C   0  0  0  0  0  0  0  0  0  0  0  0
   22.2541   -5.0985  -16.2239 C   0  0  2  0  0  0  0  0  0  0  0  0
   21.5850   -6.3985  -16.0876 N   0  0  0  0  0  0  0  0  0  0  0  0
   21.3103   -4.0434  -15.8665 C   0  0  0  0  0  0  0  0  0  0  0  0
   20.1301   -4.0531  -16.2989 O   0  0  0  0  0  0  0  0  0  0  0  0
   21.6755   -2.9955  -15.0444 O   0  0  0  0  0  0  0  0  0  0  0  0
  2  1  1  1
  3  2  1  0
  4  3  1  0
  4  8  1  0
  5  6  1  0
  5  4  2  0
  6  7  1  0
  7  8  2  0
  9  2  1  0
 10  9  2  0
 12 11  1  0
 13 12  1  0
 13 14  1  6
 15 13  1  0
 15 16  1  6
 16  9  1  0
 17 15  1  0
 18 17  2  0
 20 19  1  1
 21 20  1  0
 22 20  1  0
 23 22  1  6
 23 24  1  0
 24 17  1  0
 25 27  1  0
 25 23  1  0
 26 25  2  0
M  END
$$$$
