HIL.pdb
     RDKit          3D

 27 27  0  0  1  0  0  0  0  0999 V2000
   23.8388  -14.5058  -20.6588 N   0  0  0  0  0  0  0  0  0  0  0  0
   23.0357  -14.4366  -19.4570 C   0  0  1  0  0  0  0  0  0  0  0  0
   21.5886  -14.2992  -19.8829 C   0  0  0  0  0  0  0  0  0  0  0  0
   21.4272  -12.9279  -20.4344 C   0  0  0  0  0  0  0  0  0  0  0  0
   20.9095  -12.6061  -21.6784 C   0  0  0  0  0  0  0  0  0  0  0  0
   20.9143  -11.2663  -21.8398 N   0  0  0  0  0  0  0  0  0  0  0  0
   21.4276  -10.7410  -20.7155 C   0  0  0  0  0  0  0  0  0  0  0  0
   21.7343  -11.7418  -19.8742 N   0  0  0  0  0  0  0  0  0  0  0  0
   23.2423  -15.6496  -18.6153 C   0  0  0  0  0  0  0  0  0  0  0  0
   23.1452  -16.7665  -19.1607 O   0  0  0  0  0  0  0  0  0  0  0  0
   26.7522  -15.0539  -15.3525 C   0  0  0  0  0  0  0  0  0  0  0  0
   26.0828  -16.2877  -15.8961 C   0  0  0  0  0  0  0  0  0  0  0  0
   24.6854  -16.4674  -15.2880 C   0  0  2  0  0  0  0  0  0  0  0  0
   24.7196  -17.6591  -14.3526 C   0  0  0  0  0  0  0  0  0  0  0  0
   23.6993  -16.7740  -16.3910 C   0  0  2  0  0  0  0  0  0  0  0  0
   23.5405  -15.5799  -17.2382 N   0  0  0  0  0  0  0  0  0  0  0  0
   22.4011  -17.2159  -15.8963 C   0  0  0  0  0  0  0  0  0  0  0  0
   21.6894  -16.3010  -15.3213 O   0  0  0  0  0  0  0  0  0  0  0  0
   19.3540  -20.6744  -17.6437 C   0  0  0  0  0  0  0  0  0  0  0  0
   19.6277  -19.2117  -17.6172 C   0  0  1  0  0  0  0  0  0  0  0  0
   18.6646  -18.5512  -18.5907 C   0  0  0  0  0  0  0  0  0  0  0  0
   19.4339  -18.6128  -16.2827 C   0  0  0  0  0  0  0  0  0  0  0  0
   20.5369  -18.8080  -15.2884 C   0  0  2  0  0  0  0  0  0  0  0  0
   21.8037  -18.4734  -15.9514 N   0  0  0  0  0  0  0  0  0  0  0  0
   20.6542  -20.1352  -14.6911 C   0  0  0  0  0  0  0  0  0  0  0  0
   21.6137  -20.8947  -14.9782 O   0  0  0  0  0  0  0  0  0  0  0  0
   19.7184  -20.6080  -13.7922 O   0  0  0  0  0  0  0  0  0  0  0  0
  2  1  1  6
  3  2  1  0
  4  3  1  0
  4  8  1  0
  5  6  1  0
  5  4  2  0
  6  7  1  0
  7  8  2  0
  9  2  1  0
 10  9  2  0
 12 11  1  0
 13 12  1  0
 13 14  1  1
 15 13  1  0
 15 16  1  1
 16  9  1  0
 17 15  1  0
 18 17  2  0
 20 19  1  1
 21 20  1  0
 22 20  1  0
 23 22  1  6
 23 24  1  0
 24 17  1  0
 25 27  1  0
 25 23  1  0
 26 25  2  0
M  END
$$$$
