HIL.pdb
     RDKit          3D

 27 27  0  0  1  0  0  0  0  0999 V2000
   22.3287  -13.3494  -19.0844 N   0  0  0  0  0  0  0  0  0  0  0  0
   22.8365  -12.0138  -18.8554 C   0  0  1  0  0  0  0  0  0  0  0  0
   22.9520  -11.3326  -20.2034 C   0  0  0  0  0  0  0  0  0  0  0  0
   24.0304  -12.0312  -20.9514 C   0  0  0  0  0  0  0  0  0  0  0  0
   23.8741  -12.7465  -22.1274 C   0  0  0  0  0  0  0  0  0  0  0  0
   25.0664  -13.2424  -22.5195 N   0  0  0  0  0  0  0  0  0  0  0  0
   25.9700  -12.8493  -21.6072 C   0  0  0  0  0  0  0  0  0  0  0  0
   25.3442  -12.1223  -20.6673 N   0  0  0  0  0  0  0  0  0  0  0  0
   21.9357  -11.2580  -17.9392 C   0  0  0  0  0  0  0  0  0  0  0  0
   20.7045  -11.3928  -18.0827 O   0  0  0  0  0  0  0  0  0  0  0  0
   20.0172   -9.9229  -12.9958 C   0  0  0  0  0  0  0  0  0  0  0  0
   21.0977   -9.0936  -13.6365 C   0  0  0  0  0  0  0  0  0  0  0  0
   21.9509   -9.9433  -14.5878 C   0  0  2  0  0  0  0  0  0  0  0  0
   23.3994   -9.5254  -14.4346 C   0  0  0  0  0  0  0  0  0  0  0  0
   21.5367   -9.6606  -16.0131 C   0  0  2  0  0  0  0  0  0  0  0  0
   22.4208  -10.4044  -16.9262 N   0  0  0  0  0  0  0  0  0  0  0  0
   21.5496   -8.2413  -16.3458 C   0  0  0  0  0  0  0  0  0  0  0  0
   22.7247   -7.7179  -16.4844 O   0  0  0  0  0  0  0  0  0  0  0  0
   20.6646   -3.9036  -19.5198 C   0  0  0  0  0  0  0  0  0  0  0  0
   19.6559   -4.2374  -18.4777 C   0  0  1  0  0  0  0  0  0  0  0  0
   18.2817   -3.9888  -19.0788 C   0  0  0  0  0  0  0  0  0  0  0  0
   19.7291   -5.6426  -18.0335 C   0  0  0  0  0  0  0  0  0  0  0  0
   20.6565   -5.9438  -16.8966 C   0  0  2  0  0  0  0  0  0  0  0  0
   20.4893   -7.3591  -16.5433 N   0  0  0  0  0  0  0  0  0  0  0  0
   20.4998   -5.1356  -15.6907 C   0  0  0  0  0  0  0  0  0  0  0  0
   21.1482   -4.0703  -15.5334 O   0  0  0  0  0  0  0  0  0  0  0  0
   19.6384   -5.5089  -14.6779 O   0  0  0  0  0  0  0  0  0  0  0  0
  2  1  1  6
  3  2  1  0
  4  3  1  0
  4  8  1  0
  5  6  1  0
  5  4  2  0
  6  7  1  0
  7  8  2  0
  9  2  1  0
 10  9  2  0
 12 11  1  0
 13 12  1  0
 13 14  1  6
 15 13  1  0
 15 16  1  6
 16  9  1  0
 17 15  1  0
 18 17  2  0
 20 19  1  6
 21 20  1  0
 22 20  1  0
 23 22  1  6
 23 24  1  0
 24 17  1  0
 25 27  1  0
 25 23  1  0
 26 25  2  0
M  END
$$$$
