HIL.pdb
     RDKit          3D

 27 27  0  0  1  0  0  0  0  0999 V2000
   19.8541  -18.8888  -16.9296 N   0  0  0  0  0  0  0  0  0  0  0  0
   20.7501  -18.3098  -15.9517 C   0  0  1  0  0  0  0  0  0  0  0  0
   19.9220  -17.4277  -15.0405 C   0  0  0  0  0  0  0  0  0  0  0  0
   19.6287  -16.1799  -15.7940 C   0  0  0  0  0  0  0  0  0  0  0  0
   20.5442  -15.4278  -16.5119 C   0  0  0  0  0  0  0  0  0  0  0  0
   19.9244  -14.3642  -17.0648 N   0  0  0  0  0  0  0  0  0  0  0  0
   18.6326  -14.4365  -16.7049 C   0  0  0  0  0  0  0  0  0  0  0  0
   18.4590  -15.5280  -15.9420 N   0  0  0  0  0  0  0  0  0  0  0  0
   21.4526  -19.3774  -15.1842 C   0  0  0  0  0  0  0  0  0  0  0  0
   20.7876  -20.0529  -14.3743 O   0  0  0  0  0  0  0  0  0  0  0  0
   23.6015  -23.1664  -17.6686 C   0  0  0  0  0  0  0  0  0  0  0  0
   23.0204  -22.3385  -16.5538 C   0  0  0  0  0  0  0  0  0  0  0  0
   24.1292  -21.6608  -15.7376 C   0  0  2  0  0  0  0  0  0  0  0  0
   24.9283  -22.7361  -15.0295 C   0  0  0  0  0  0  0  0  0  0  0  0
   23.5017  -20.7807  -14.6818 C   0  0  2  0  0  0  0  0  0  0  0  0
   22.8283  -19.6481  -15.3395 N   0  0  0  0  0  0  0  0  0  0  0  0
   24.4583  -20.2932  -13.6956 C   0  0  0  0  0  0  0  0  0  0  0  0
   25.3572  -19.4826  -14.1529 O   0  0  0  0  0  0  0  0  0  0  0  0
   25.8569  -20.4025   -7.6687 C   0  0  0  0  0  0  0  0  0  0  0  0
   26.2658  -19.9656   -9.0314 C   0  0  1  0  0  0  0  0  0  0  0  0
   27.5367  -20.7197   -9.3885 C   0  0  0  0  0  0  0  0  0  0  0  0
   25.2449  -20.2490  -10.0583 C   0  0  0  0  0  0  0  0  0  0  0  0
   25.6756  -20.1343  -11.4883 C   0  0  2  0  0  0  0  0  0  0  0  0
   24.5521  -20.5615  -12.3316 N   0  0  0  0  0  0  0  0  0  0  0  0
   26.8672  -20.8835  -11.8764 C   0  0  0  0  0  0  0  0  0  0  0  0
   26.8587  -22.1396  -11.9231 O   0  0  0  0  0  0  0  0  0  0  0  0
   28.0471  -20.2450  -12.2042 O   0  0  0  0  0  0  0  0  0  0  0  0
  2  1  1  6
  3  2  1  0
  4  3  1  0
  4  8  1  0
  5  6  1  0
  5  4  2  0
  6  7  1  0
  7  8  2  0
  9  2  1  0
 10  9  2  0
 12 11  1  0
 13 12  1  0
 13 14  1  1
 15 13  1  0
 15 16  1  6
 16  9  1  0
 17 15  1  0
 18 17  2  0
 20 19  1  1
 21 20  1  0
 22 20  1  0
 23 22  1  1
 23 24  1  0
 24 17  1  0
 25 27  1  0
 25 23  1  0
 26 25  2  0
M  END
$$$$
