HIL.pdb
     RDKit          3D

 27 27  0  0  1  0  0  0  0  0999 V2000
   19.0276  -24.0505  -14.0234 N   0  0  0  0  0  0  0  0  0  0  0  0
   18.2351  -23.4732  -12.9590 C   0  0  1  0  0  0  0  0  0  0  0  0
   16.8300  -24.0244  -13.0863 C   0  0  0  0  0  0  0  0  0  0  0  0
   16.0957  -23.1291  -14.0189 C   0  0  0  0  0  0  0  0  0  0  0  0
   16.5584  -22.6707  -15.2416 C   0  0  0  0  0  0  0  0  0  0  0  0
   15.6260  -21.8800  -15.8128 N   0  0  0  0  0  0  0  0  0  0  0  0
   14.5837  -21.8343  -14.9672 C   0  0  0  0  0  0  0  0  0  0  0  0
   14.8696  -22.5856  -13.8913 N   0  0  0  0  0  0  0  0  0  0  0  0
   18.8269  -23.7938  -11.6288 C   0  0  0  0  0  0  0  0  0  0  0  0
   19.3630  -24.9093  -11.4778 O   0  0  0  0  0  0  0  0  0  0  0  0
   21.6790  -19.9924   -9.4737 C   0  0  0  0  0  0  0  0  0  0  0  0
   21.1286  -21.3410   -9.8535 C   0  0  0  0  0  0  0  0  0  0  0  0
   20.1301  -21.8427   -8.8018 C   0  0  2  0  0  0  0  0  0  0  0  0
   20.8882  -22.1357   -7.5228 C   0  0  0  0  0  0  0  0  0  0  0  0
   19.5130  -23.1364   -9.2799 C   0  0  2  0  0  0  0  0  0  0  0  0
   18.8024  -22.8900  -10.5459 N   0  0  0  0  0  0  0  0  0  0  0  0
   18.6109  -23.7386   -8.3058 C   0  0  0  0  0  0  0  0  0  0  0  0
   17.4784  -23.1316   -8.1539 O   0  0  0  0  0  0  0  0  0  0  0  0
   17.3781  -28.7238   -8.5170 C   0  0  0  0  0  0  0  0  0  0  0  0
   17.2656  -27.2591   -8.2783 C   0  0  1  0  0  0  0  0  0  0  0  0
   15.8230  -26.8636   -8.5501 C   0  0  0  0  0  0  0  0  0  0  0  0
   17.6083  -26.8721   -6.8963 C   0  0  0  0  0  0  0  0  0  0  0  0
   17.7426  -25.4063   -6.6193 C   0  0  2  0  0  0  0  0  0  0  0  0
   18.7775  -24.8729   -7.5140 N   0  0  0  0  0  0  0  0  0  0  0  0
   18.0642  -25.0250   -5.2471 C   0  0  0  0  0  0  0  0  0  0  0  0
   17.1935  -25.0614   -4.3412 O   0  0  0  0  0  0  0  0  0  0  0  0
   19.3320  -24.6085   -4.8913 O   0  0  0  0  0  0  0  0  0  0  0  0
  2  1  1  6
  3  2  1  0
  4  3  1  0
  4  8  1  0
  5  6  1  0
  5  4  2  0
  6  7  1  0
  7  8  2  0
  9  2  1  0
 10  9  2  0
 12 11  1  0
 13 12  1  0
 13 14  1  1
 15 13  1  0
 15 16  1  6
 16  9  1  0
 17 15  1  0
 18 17  2  0
 20 19  1  1
 21 20  1  0
 22 20  1  0
 23 22  1  1
 23 24  1  0
 24 17  1  0
 25 27  1  0
 25 23  1  0
 26 25  2  0
M  END
$$$$
