HIL.pdb
     RDKit          3D

 27 27  0  0  1  0  0  0  0  0999 V2000
   23.0455  -18.9775  -18.5909 N   0  0  0  0  0  0  0  0  0  0  0  0
   23.2632  -18.4771  -17.2506 C   0  0  1  0  0  0  0  0  0  0  0  0
   21.9042  -18.2083  -16.6380 C   0  0  0  0  0  0  0  0  0  0  0  0
   21.3776  -16.9728  -17.2760 C   0  0  0  0  0  0  0  0  0  0  0  0
   20.1545  -16.8431  -17.9132 C   0  0  0  0  0  0  0  0  0  0  0  0
   20.0124  -15.5818  -18.3714 N   0  0  0  0  0  0  0  0  0  0  0  0
   21.1283  -14.9165  -18.0316 C   0  0  0  0  0  0  0  0  0  0  0  0
   21.9456  -15.7551  -17.3740 N   0  0  0  0  0  0  0  0  0  0  0  0
   24.0400  -19.4592  -16.4417 C   0  0  0  0  0  0  0  0  0  0  0  0
   23.6308  -20.6360  -16.3950 O   0  0  0  0  0  0  0  0  0  0  0  0
   29.3140  -19.9047  -16.7322 C   0  0  0  0  0  0  0  0  0  0  0  0
   27.8337  -20.0887  -16.5304 C   0  0  0  0  0  0  0  0  0  0  0  0
   27.4392  -19.8104  -15.0738 C   0  0  2  0  0  0  0  0  0  0  0  0
   28.1829  -20.7838  -14.1817 C   0  0  0  0  0  0  0  0  0  0  0  0
   25.9596  -20.0646  -14.9025 C   0  0  2  0  0  0  0  0  0  0  0  0
   25.2092  -19.1088  -15.7344 N   0  0  0  0  0  0  0  0  0  0  0  0
   25.5175  -19.9797  -13.5160 C   0  0  0  0  0  0  0  0  0  0  0  0
   25.7219  -18.8388  -12.9408 O   0  0  0  0  0  0  0  0  0  0  0  0
   20.8062  -21.2321  -12.0918 C   0  0  0  0  0  0  0  0  0  0  0  0
   22.1502  -20.5986  -12.1761 C   0  0  1  0  0  0  0  0  0  0  0  0
   21.9621  -19.1038  -11.9721 C   0  0  0  0  0  0  0  0  0  0  0  0
   23.0890  -21.0996  -11.1539 C   0  0  0  0  0  0  0  0  0  0  0  0
   24.5275  -20.7132  -11.3111 C   0  0  2  0  0  0  0  0  0  0  0  0
   24.9024  -20.9379  -12.7129 N   0  0  0  0  0  0  0  0  0  0  0  0
   25.4883  -21.3982  -10.4512 C   0  0  0  0  0  0  0  0  0  0  0  0
   26.2283  -22.3096  -10.9003 O   0  0  0  0  0  0  0  0  0  0  0  0
   25.6204  -21.0751   -9.1150 O   0  0  0  0  0  0  0  0  0  0  0  0
  2  1  1  6
  3  2  1  0
  4  3  1  0
  4  8  1  0
  5  6  1  0
  5  4  2  0
  6  7  1  0
  7  8  2  0
  9  2  1  0
 10  9  2  0
 12 11  1  0
 13 12  1  0
 13 14  1  1
 15 13  1  0
 15 16  1  6
 16  9  1  0
 17 15  1  0
 18 17  2  0
 20 19  1  1
 21 20  1  0
 22 20  1  0
 23 22  1  6
 23 24  1  0
 24 17  1  0
 25 27  1  0
 25 23  1  0
 26 25  2  0
M  END
$$$$
