HIL.pdb
     RDKit          3D

 27 27  0  0  1  0  0  0  0  0999 V2000
   22.9439  -19.4863  -15.7296 N   0  0  0  0  0  0  0  0  0  0  0  0
   23.0158  -19.5750  -14.2870 C   0  0  1  0  0  0  0  0  0  0  0  0
   21.6565  -20.0210  -13.7893 C   0  0  0  0  0  0  0  0  0  0  0  0
   20.6961  -18.9348  -14.1187 C   0  0  0  0  0  0  0  0  0  0  0  0
   20.6535  -17.6801  -13.5332 C   0  0  0  0  0  0  0  0  0  0  0  0
   19.6533  -16.9575  -14.0795 N   0  0  0  0  0  0  0  0  0  0  0  0
   19.0663  -17.7395  -14.9999 C   0  0  0  0  0  0  0  0  0  0  0  0
   19.6953  -18.9259  -15.0205 N   0  0  0  0  0  0  0  0  0  0  0  0
   24.0863  -20.5252  -13.8707 C   0  0  0  0  0  0  0  0  0  0  0  0
   23.8579  -21.7470  -13.9686 O   0  0  0  0  0  0  0  0  0  0  0  0
   30.1491  -21.0924  -12.9590 C   0  0  0  0  0  0  0  0  0  0  0  0
   28.7508  -21.5336  -12.6188 C   0  0  0  0  0  0  0  0  0  0  0  0
   27.7118  -20.5772  -13.2193 C   0  0  2  0  0  0  0  0  0  0  0  0
   27.9492  -19.1931  -12.6500 C   0  0  0  0  0  0  0  0  0  0  0  0
   26.3290  -21.0186  -12.7995 C   0  0  2  0  0  0  0  0  0  0  0  0
   25.3355  -20.0964  -13.3750 N   0  0  0  0  0  0  0  0  0  0  0  0
   26.1640  -21.0968  -11.3531 C   0  0  0  0  0  0  0  0  0  0  0  0
   27.2563  -20.9960  -10.6671 O   0  0  0  0  0  0  0  0  0  0  0  0
   27.6138  -18.8754   -7.6345 C   0  0  0  0  0  0  0  0  0  0  0  0
   27.0820  -20.1121   -8.2691 C   0  0  1  0  0  0  0  0  0  0  0  0
   27.2100  -21.2358   -7.2530 C   0  0  0  0  0  0  0  0  0  0  0  0
   25.6656  -19.9936   -8.6653 C   0  0  0  0  0  0  0  0  0  0  0  0
   24.9858  -21.2469   -9.1240 C   0  0  2  0  0  0  0  0  0  0  0  0
   25.0080  -21.2586  -10.5922 N   0  0  0  0  0  0  0  0  0  0  0  0
   23.6124  -21.4511   -8.6723 C   0  0  0  0  0  0  0  0  0  0  0  0
   23.3663  -21.9799   -7.5588 O   0  0  0  0  0  0  0  0  0  0  0  0
   22.5334  -21.0753   -9.4479 O   0  0  0  0  0  0  0  0  0  0  0  0
  2  1  1  6
  3  2  1  0
  4  3  1  0
  4  8  1  0
  5  6  1  0
  5  4  2  0
  6  7  1  0
  7  8  2  0
  9  2  1  0
 10  9  2  0
 12 11  1  0
 13 12  1  0
 13 14  1  1
 15 13  1  0
 15 16  1  1
 16  9  1  0
 17 15  1  0
 18 17  2  0
 20 19  1  1
 21 20  1  0
 22 20  1  0
 23 22  1  6
 23 24  1  0
 24 17  1  0
 25 27  1  0
 25 23  1  0
 26 25  2  0
M  END
$$$$
