IQA.pdb
     RDKit          3D

 23 22  0  0  1  0  0  0  0  0999 V2000
   11.0454  -10.5924  -14.5723 C   0  0  0  0  0  0  0  0  0  0  0  0
   12.4716  -10.9717  -14.8203 C   0  0  0  0  0  0  0  0  0  0  0  0
   13.3494  -10.4939  -13.7183 C   0  0  2  0  0  0  0  0  0  0  0  0
   13.2478   -8.9768  -13.5516 C   0  0  0  0  0  0  0  0  0  0  0  0
   14.7779  -10.8530  -13.9430 C   0  0  2  0  0  0  0  0  0  0  0  0
   14.9925  -12.2674  -14.0455 N   0  0  0  0  0  0  0  0  0  0  0  0
   15.6495  -10.2992  -12.8768 C   0  0  0  0  0  0  0  0  0  0  0  0
   15.8847  -10.9275  -11.8042 O   0  0  0  0  0  0  0  0  0  0  0  0
   20.8485   -7.5337  -13.7222 N   0  0  0  0  0  0  0  0  0  0  0  0
   20.7614   -7.2711  -12.3361 C   0  0  0  0  0  0  0  0  0  0  0  0
   21.7465   -6.7977  -11.7286 O   0  0  0  0  0  0  0  0  0  0  0  0
   19.4697   -7.5764  -11.6422 C   0  0  0  0  0  0  0  0  0  0  0  0
   18.4872   -8.1906  -12.6050 C   0  0  0  0  0  0  0  0  0  0  0  0
   17.1422   -8.4885  -11.9986 C   0  0  2  0  0  0  0  0  0  0  0  0
   16.2468   -9.0329  -13.0408 N   0  0  0  0  0  0  0  0  0  0  0  0
   16.4564   -7.3097  -11.4314 C   0  0  0  0  0  0  0  0  0  0  0  0
   15.9847   -6.4497  -12.1785 O   0  0  0  0  0  0  0  0  0  0  0  0
   15.3525   -6.2195   -7.9727 C   0  0  0  0  0  0  0  0  0  0  0  0
   15.5916   -6.0465   -9.4304 C   0  0  2  0  0  0  0  0  0  0  0  0
   16.3232   -7.1356  -10.0360 N   0  0  0  0  0  0  0  0  0  0  0  0
   16.2064   -4.7383   -9.6595 C   0  0  0  0  0  0  0  0  0  0  0  0
   17.3331   -4.6658  -10.2025 O   0  0  0  0  0  0  0  0  0  0  0  0
   15.5518   -3.5794   -9.2806 O   0  0  0  0  0  0  0  0  0  0  0  0
  1  2  1  0
  3  5  1  0
  3  2  1  0
  3  4  1  6
  5  6  1  1
  7  5  1  0
  7  8  2  0
  9 10  1  0
 10 12  1  0
 11 10  2  0
 12 13  1  0
 14 13  1  6
 14 15  1  0
 15  7  1  0
 16 14  1  0
 17 16  2  0
 19 18  1  1
 19 21  1  0
 19 20  1  0
 20 16  1  0
 21 23  1  0
 22 21  2  0
M  END
$$$$
