IQA.pdb
     RDKit          3D

 23 22  0  0  1  0  0  0  0  0999 V2000
   17.0775  -14.4247  -16.1982 C   0  0  0  0  0  0  0  0  0  0  0  0
   16.8445  -12.9862  -15.8578 C   0  0  0  0  0  0  0  0  0  0  0  0
   18.0684  -12.1761  -16.1014 C   0  0  2  0  0  0  0  0  0  0  0  0
   19.2513  -12.7078  -15.2904 C   0  0  0  0  0  0  0  0  0  0  0  0
   17.8667  -10.7392  -15.7623 C   0  0  2  0  0  0  0  0  0  0  0  0
   16.9202  -10.0868  -16.6200 N   0  0  0  0  0  0  0  0  0  0  0  0
   19.1491   -9.9922  -15.7867 C   0  0  0  0  0  0  0  0  0  0  0  0
   20.1207  -10.2959  -15.0356 O   0  0  0  0  0  0  0  0  0  0  0  0
   21.5944   -7.0481  -20.5776 N   0  0  0  0  0  0  0  0  0  0  0  0
   22.3886   -6.4421  -19.5777 C   0  0  0  0  0  0  0  0  0  0  0  0
   23.3012   -5.6510  -19.9015 O   0  0  0  0  0  0  0  0  0  0  0  0
   22.0975   -6.7795  -18.1477 C   0  0  0  0  0  0  0  0  0  0  0  0
   20.9133   -7.7062  -18.0559 C   0  0  0  0  0  0  0  0  0  0  0  0
   20.5623   -8.1117  -16.6496 C   0  0  2  0  0  0  0  0  0  0  0  0
   19.3147   -8.9037  -16.6672 N   0  0  0  0  0  0  0  0  0  0  0  0
   20.3263   -6.9792  -15.7312 C   0  0  0  0  0  0  0  0  0  0  0  0
   19.2488   -6.3802  -15.7520 O   0  0  0  0  0  0  0  0  0  0  0  0
   22.0233   -5.4938  -12.7154 C   0  0  0  0  0  0  0  0  0  0  0  0
   21.1466   -5.4372  -13.9155 C   0  0  2  0  0  0  0  0  0  0  0  0
   21.3146   -6.5551  -14.8154 N   0  0  0  0  0  0  0  0  0  0  0  0
   21.3169   -4.1383  -14.5680 C   0  0  0  0  0  0  0  0  0  0  0  0
   21.8133   -4.0785  -15.7167 O   0  0  0  0  0  0  0  0  0  0  0  0
   20.9333   -2.9744  -13.9251 O   0  0  0  0  0  0  0  0  0  0  0  0
  1  2  1  0
  3  5  1  0
  3  2  1  0
  3  4  1  1
  5  6  1  6
  7  5  1  0
  7  8  2  0
  9 10  1  0
 10 12  1  0
 11 10  2  0
 12 13  1  0
 14 13  1  6
 14 15  1  0
 15  7  1  0
 16 14  1  0
 17 16  2  0
 19 18  1  1
 19 21  1  0
 19 20  1  0
 20 16  1  0
 21 23  1  0
 22 21  2  0
M  END
$$$$
