IQA.pdb
     RDKit          3D

 23 22  0  0  1  0  0  0  0  0999 V2000
   14.0536  -14.8539  -13.7628 C   0  0  0  0  0  0  0  0  0  0  0  0
   14.1856  -13.7061  -14.7139 C   0  0  0  0  0  0  0  0  0  0  0  0
   14.8848  -12.5603  -14.0724 C   0  0  2  0  0  0  0  0  0  0  0  0
   14.1158  -12.0614  -12.8479 C   0  0  0  0  0  0  0  0  0  0  0  0
   15.0729  -11.4201  -15.0129 C   0  0  2  0  0  0  0  0  0  0  0  0
   15.7979  -11.7814  -16.1965 N   0  0  0  0  0  0  0  0  0  0  0  0
   15.7509  -10.2779  -14.3503 C   0  0  0  0  0  0  0  0  0  0  0  0
   15.3387   -9.7907  -13.2580 O   0  0  0  0  0  0  0  0  0  0  0  0
   21.6893   -8.7385  -15.1592 N   0  0  0  0  0  0  0  0  0  0  0  0
   21.3004   -7.6385  -14.3613 C   0  0  0  0  0  0  0  0  0  0  0  0
   22.1671   -6.8557  -13.9146 O   0  0  0  0  0  0  0  0  0  0  0  0
   19.8408   -7.4545  -14.0803 C   0  0  0  0  0  0  0  0  0  0  0  0
   19.0500   -8.6179  -14.6195 C   0  0  0  0  0  0  0  0  0  0  0  0
   17.5854   -8.5729  -14.2759 C   0  0  2  0  0  0  0  0  0  0  0  0
   16.8941   -9.6990  -14.9379 N   0  0  0  0  0  0  0  0  0  0  0  0
   16.8956   -7.3425  -14.7138 C   0  0  0  0  0  0  0  0  0  0  0  0
   16.5692   -7.2033  -15.8946 O   0  0  0  0  0  0  0  0  0  0  0  0
   15.1262   -4.4538  -13.1264 C   0  0  0  0  0  0  0  0  0  0  0  0
   15.9722   -5.0577  -14.1902 C   0  0  2  0  0  0  0  0  0  0  0  0
   16.5943   -6.3038  -13.8053 N   0  0  0  0  0  0  0  0  0  0  0  0
   16.9280   -4.0556  -14.6637 C   0  0  0  0  0  0  0  0  0  0  0  0
   18.1557   -4.2350  -14.4907 O   0  0  0  0  0  0  0  0  0  0  0  0
   16.4854   -2.9102  -15.3019 O   0  0  0  0  0  0  0  0  0  0  0  0
  1  2  1  0
  3  5  1  0
  3  2  1  0
  3  4  1  1
  5  6  1  6
  7  5  1  0
  7  8  2  0
  9 10  1  0
 10 12  1  0
 11 10  2  0
 12 13  1  0
 14 13  1  6
 14 15  1  0
 15  7  1  0
 16 14  1  0
 17 16  2  0
 19 18  1  1
 19 21  1  0
 19 20  1  0
 20 16  1  0
 21 23  1  0
 22 21  2  0
M  END
$$$$
