IQA.pdb
     RDKit          3D

 23 22  0  0  1  0  0  0  0  0999 V2000
   14.6981   -5.7439   -7.1971 C   0  0  0  0  0  0  0  0  0  0  0  0
   14.1324   -6.5438   -8.3283 C   0  0  0  0  0  0  0  0  0  0  0  0
   15.1609   -7.4497   -8.9069 C   0  0  2  0  0  0  0  0  0  0  0  0
   16.3853   -6.6633   -9.3780 C   0  0  0  0  0  0  0  0  0  0  0  0
   14.6318   -8.2386  -10.0549 C   0  0  2  0  0  0  0  0  0  0  0  0
   13.6159   -9.1759   -9.6721 N   0  0  0  0  0  0  0  0  0  0  0  0
   15.7195   -8.9554  -10.7663 C   0  0  0  0  0  0  0  0  0  0  0  0
   16.2876   -9.9747  -10.2775 O   0  0  0  0  0  0  0  0  0  0  0  0
   15.5150  -11.2420  -16.0547 N   0  0  0  0  0  0  0  0  0  0  0  0
   14.9921  -11.6224  -14.7979 C   0  0  0  0  0  0  0  0  0  0  0  0
   14.0455  -12.4371  -14.7377 O   0  0  0  0  0  0  0  0  0  0  0  0
   15.6054  -11.0225  -13.5701 C   0  0  0  0  0  0  0  0  0  0  0  0
   16.5850   -9.9412  -13.9455 C   0  0  0  0  0  0  0  0  0  0  0  0
   17.2027   -9.2398  -12.7657 C   0  0  2  0  0  0  0  0  0  0  0  0
   16.1523   -8.5051  -12.0301 N   0  0  0  0  0  0  0  0  0  0  0  0
   18.2369   -8.2472  -13.1215 C   0  0  0  0  0  0  0  0  0  0  0  0
   17.9184   -7.0796  -13.3573 O   0  0  0  0  0  0  0  0  0  0  0  0
   22.0002   -8.2947  -13.6400 C   0  0  0  0  0  0  0  0  0  0  0  0
   20.6271   -7.7296  -13.7267 C   0  0  2  0  0  0  0  0  0  0  0  0
   19.6018   -8.6018  -13.2013 N   0  0  0  0  0  0  0  0  0  0  0  0
   20.3744   -7.3033  -15.1038 C   0  0  0  0  0  0  0  0  0  0  0  0
   19.8223   -8.0893  -15.9080 O   0  0  0  0  0  0  0  0  0  0  0  0
   20.7410   -6.0369  -15.5247 O   0  0  0  0  0  0  0  0  0  0  0  0
  1  2  1  0
  3  5  1  0
  3  2  1  0
  3  4  1  6
  5  6  1  1
  7  5  1  0
  7  8  2  0
  9 10  1  0
 10 12  1  0
 11 10  2  0
 12 13  1  0
 14 13  1  6
 14 15  1  0
 15  7  1  0
 16 14  1  0
 17 16  2  0
 19 18  1  6
 19 21  1  0
 19 20  1  0
 20 16  1  0
 21 23  1  0
 22 21  2  0
M  END
$$$$
