IQA.pdb
     RDKit          3D

 23 22  0  0  1  0  0  0  0  0999 V2000
   14.9108   -7.1904  -18.3850 C   0  0  0  0  0  0  0  0  0  0  0  0
   15.8044   -8.3897  -18.4370 C   0  0  0  0  0  0  0  0  0  0  0  0
   16.9129   -8.2712  -17.4519 C   0  0  2  0  0  0  0  0  0  0  0  0
   17.8853   -7.1590  -17.8481 C   0  0  0  0  0  0  0  0  0  0  0  0
   17.6767   -9.5429  -17.3113 C   0  0  2  0  0  0  0  0  0  0  0  0
   16.8565  -10.6501  -16.9130 N   0  0  0  0  0  0  0  0  0  0  0  0
   18.8022   -9.3954  -16.3548 C   0  0  0  0  0  0  0  0  0  0  0  0
   18.6839   -9.6734  -15.1264 O   0  0  0  0  0  0  0  0  0  0  0  0
   24.1824  -11.5445  -17.0528 N   0  0  0  0  0  0  0  0  0  0  0  0
   24.4690  -10.8313  -15.8666 C   0  0  0  0  0  0  0  0  0  0  0  0
   25.5132  -11.0817  -15.2261 O   0  0  0  0  0  0  0  0  0  0  0  0
   23.4920   -9.7876  -15.4200 C   0  0  0  0  0  0  0  0  0  0  0  0
   22.2806   -9.7827  -16.3156 C   0  0  0  0  0  0  0  0  0  0  0  0
   21.1967   -8.8372  -15.8722 C   0  0  2  0  0  0  0  0  0  0  0  0
   20.0548   -8.9318  -16.8057 N   0  0  0  0  0  0  0  0  0  0  0  0
   21.6011   -7.4169  -15.8480 C   0  0  0  0  0  0  0  0  0  0  0  0
   21.6092   -6.7582  -16.8903 O   0  0  0  0  0  0  0  0  0  0  0  0
   23.4873   -5.0899  -15.6084 C   0  0  0  0  0  0  0  0  0  0  0  0
   22.4659   -5.4197  -14.5788 C   0  0  2  0  0  0  0  0  0  0  0  0
   21.9856   -6.7808  -14.6468 N   0  0  0  0  0  0  0  0  0  0  0  0
   21.3945   -4.4244  -14.6359 C   0  0  0  0  0  0  0  0  0  0  0  0
   20.2154   -4.7898  -14.8497 O   0  0  0  0  0  0  0  0  0  0  0  0
   21.6743   -3.0811  -14.4552 O   0  0  0  0  0  0  0  0  0  0  0  0
  1  2  1  0
  3  5  1  0
  3  2  1  0
  3  4  1  6
  5  6  1  1
  7  5  1  0
  7  8  2  0
  9 10  1  0
 10 12  1  0
 11 10  2  0
 12 13  1  0
 14 13  1  6
 14 15  1  0
 15  7  1  0
 16 14  1  0
 17 16  2  0
 19 18  1  6
 19 21  1  0
 19 20  1  0
 20 16  1  0
 21 23  1  0
 22 21  2  0
M  END
$$$$
