IQA.pdb
     RDKit          3D

 23 22  0  0  1  0  0  0  0  0999 V2000
   11.1364  -11.5080  -10.3101 C   0  0  0  0  0  0  0  0  0  0  0  0
   12.3806  -11.5533  -11.1403 C   0  0  0  0  0  0  0  0  0  0  0  0
   13.4592  -10.7307  -10.5293 C   0  0  2  0  0  0  0  0  0  0  0  0
   13.0244   -9.2713  -10.3856 C   0  0  0  0  0  0  0  0  0  0  0  0
   14.7182  -10.7757  -11.3250 C   0  0  2  0  0  0  0  0  0  0  0  0
   15.2879  -12.0897  -11.4017 N   0  0  0  0  0  0  0  0  0  0  0  0
   15.7306   -9.8311  -10.7903 C   0  0  0  0  0  0  0  0  0  0  0  0
   16.5295  -10.1525   -9.8636 O   0  0  0  0  0  0  0  0  0  0  0  0
   20.1094   -7.2452  -13.2916 N   0  0  0  0  0  0  0  0  0  0  0  0
   20.1711   -6.4253  -12.1420 C   0  0  0  0  0  0  0  0  0  0  0  0
   21.1795   -5.7151  -11.9367 O   0  0  0  0  0  0  0  0  0  0  0  0
   19.0050   -6.4428  -11.2022 C   0  0  0  0  0  0  0  0  0  0  0  0
   17.9587   -7.4161  -11.6794 C   0  0  0  0  0  0  0  0  0  0  0  0
   16.7865   -7.5592  -10.7464 C   0  0  2  0  0  0  0  0  0  0  0  0
   15.8249   -8.5264  -11.3158 N   0  0  0  0  0  0  0  0  0  0  0  0
   16.0357   -6.3082  -10.5168 C   0  0  0  0  0  0  0  0  0  0  0  0
   15.4877   -5.7337  -11.4602 O   0  0  0  0  0  0  0  0  0  0  0  0
   15.0250   -4.2174   -7.5230 C   0  0  0  0  0  0  0  0  0  0  0  0
   15.2974   -4.4669   -8.9637 C   0  0  2  0  0  0  0  0  0  0  0  0
   15.9256   -5.7411   -9.2278 N   0  0  0  0  0  0  0  0  0  0  0  0
   16.0405   -3.3309   -9.5109 C   0  0  0  0  0  0  0  0  0  0  0  0
   17.1838   -3.5076   -9.9916 O   0  0  0  0  0  0  0  0  0  0  0  0
   15.4890   -2.0616   -9.5014 O   0  0  0  0  0  0  0  0  0  0  0  0
  1  2  1  0
  3  5  1  0
  3  2  1  0
  3  4  1  6
  5  6  1  1
  7  5  1  0
  7  8  2  0
  9 10  1  0
 10 12  1  0
 11 10  2  0
 12 13  1  0
 14 13  1  6
 14 15  1  0
 15  7  1  0
 16 14  1  0
 17 16  2  0
 19 18  1  1
 19 21  1  0
 19 20  1  0
 20 16  1  0
 21 23  1  0
 22 21  2  0
M  END
$$$$
