IQA.pdb
     RDKit          3D

 23 22  0  0  1  0  0  0  0  0999 V2000
   28.7544  -12.4254  -16.1022 C   0  0  0  0  0  0  0  0  0  0  0  0
   27.3222  -12.8301  -15.9458 C   0  0  0  0  0  0  0  0  0  0  0  0
   26.4100  -11.7121  -16.3083 C   0  0  2  0  0  0  0  0  0  0  0  0
   26.5474  -10.5484  -15.3253 C   0  0  0  0  0  0  0  0  0  0  0  0
   24.9833  -12.1405  -16.3419 C   0  0  2  0  0  0  0  0  0  0  0  0
   24.7668  -13.3120  -17.1405 N   0  0  0  0  0  0  0  0  0  0  0  0
   24.1011  -11.0478  -16.8223 C   0  0  0  0  0  0  0  0  0  0  0  0
   23.9530  -10.7924  -18.0525 O   0  0  0  0  0  0  0  0  0  0  0  0
   19.8551  -10.0216  -18.6709 N   0  0  0  0  0  0  0  0  0  0  0  0
   19.3379   -8.9844  -17.8619 C   0  0  0  0  0  0  0  0  0  0  0  0
   18.3953   -8.2781  -18.2817 O   0  0  0  0  0  0  0  0  0  0  0  0
   19.9519   -8.7723  -16.5123 C   0  0  0  0  0  0  0  0  0  0  0  0
   21.0337   -9.7900  -16.2602 C   0  0  0  0  0  0  0  0  0  0  0  0
   22.4296   -9.2375  -16.3676 C   0  0  2  0  0  0  0  0  0  0  0  0
   23.3941  -10.2535  -15.8968 N   0  0  0  0  0  0  0  0  0  0  0  0
   22.6682   -8.0263  -15.5566 C   0  0  0  0  0  0  0  0  0  0  0  0
   22.6889   -8.1001  -14.3260 O   0  0  0  0  0  0  0  0  0  0  0  0
   23.4076   -4.3689  -16.2668 C   0  0  0  0  0  0  0  0  0  0  0  0
   23.1099   -5.5501  -15.4135 C   0  0  2  0  0  0  0  0  0  0  0  0
   22.8762   -6.7657  -16.1588 N   0  0  0  0  0  0  0  0  0  0  0  0
   22.0181   -5.2129  -14.4990 C   0  0  0  0  0  0  0  0  0  0  0  0
   20.8935   -5.7444  -14.6486 O   0  0  0  0  0  0  0  0  0  0  0  0
   22.2188   -4.3106  -13.4691 O   0  0  0  0  0  0  0  0  0  0  0  0
  1  2  1  0
  3  5  1  0
  3  2  1  0
  3  4  1  1
  5  6  1  6
  7  5  1  0
  7  8  2  0
  9 10  1  0
 10 12  1  0
 11 10  2  0
 12 13  1  0
 14 13  1  1
 14 15  1  0
 15  7  1  0
 16 14  1  0
 17 16  2  0
 19 18  1  6
 19 21  1  0
 19 20  1  0
 20 16  1  0
 21 23  1  0
 22 21  2  0
M  END
$$$$
