IQA.pdb
     RDKit          3D

 23 22  0  0  1  0  0  0  0  0999 V2000
   24.9594  -21.7728   -8.4562 C   0  0  0  0  0  0  0  0  0  0  0  0
   24.1670  -20.8754   -9.3541 C   0  0  0  0  0  0  0  0  0  0  0  0
   24.6648  -20.9482  -10.7542 C   0  0  2  0  0  0  0  0  0  0  0  0
   26.1666  -20.6657  -10.8202 C   0  0  0  0  0  0  0  0  0  0  0  0
   23.9605  -19.9888  -11.6506 C   0  0  2  0  0  0  0  0  0  0  0  0
   22.5396  -20.1821  -11.6754 N   0  0  0  0  0  0  0  0  0  0  0  0
   24.4900  -20.0537  -13.0358 C   0  0  0  0  0  0  0  0  0  0  0  0
   25.7266  -19.9707  -13.2895 O   0  0  0  0  0  0  0  0  0  0  0  0
   21.0456  -21.4494  -18.0984 N   0  0  0  0  0  0  0  0  0  0  0  0
   22.2663  -21.1403  -18.7405 C   0  0  0  0  0  0  0  0  0  0  0  0
   22.3702  -21.2751  -19.9792 O   0  0  0  0  0  0  0  0  0  0  0  0
   23.4032  -20.6560  -17.8942 C   0  0  0  0  0  0  0  0  0  0  0  0
   22.9976  -20.6094  -16.4440 C   0  0  0  0  0  0  0  0  0  0  0  0
   24.1240  -20.2709  -15.5050 C   0  0  2  0  0  0  0  0  0  0  0  0
   23.6058  -20.2127  -14.1222 N   0  0  0  0  0  0  0  0  0  0  0  0
   24.7633  -18.9656  -15.7678 C   0  0  0  0  0  0  0  0  0  0  0  0
   24.1251  -17.9220  -15.6129 O   0  0  0  0  0  0  0  0  0  0  0  0
   28.2681  -17.7123  -16.2863 C   0  0  0  0  0  0  0  0  0  0  0  0
   26.7905  -17.6255  -16.4324 C   0  0  2  0  0  0  0  0  0  0  0  0
   26.1055  -18.8761  -16.1986 N   0  0  0  0  0  0  0  0  0  0  0  0
   26.4753  -17.0268  -17.7302 C   0  0  0  0  0  0  0  0  0  0  0  0
   26.0546  -17.7488  -18.6636 O   0  0  0  0  0  0  0  0  0  0  0  0
   26.6387  -15.6678  -17.9343 O   0  0  0  0  0  0  0  0  0  0  0  0
  1  2  1  0
  3  5  1  0
  3  2  1  0
  3  4  1  1
  5  6  1  6
  7  5  1  0
  7  8  2  0
  9 10  1  0
 10 12  1  0
 11 10  2  0
 12 13  1  0
 14 13  1  6
 14 15  1  0
 15  7  1  0
 16 14  1  0
 17 16  2  0
 19 18  1  6
 19 21  1  0
 19 20  1  0
 20 16  1  0
 21 23  1  0
 22 21  2  0
M  END
$$$$
