IQA.pdb
     RDKit          3D

 23 22  0  0  1  0  0  0  0  0999 V2000
   21.3286  -10.9887    7.2273 C   0  0  0  0  0  0  0  0  0  0  0  0
   20.4119  -11.4204    6.1261 C   0  0  0  0  0  0  0  0  0  0  0  0
   19.4955  -12.4978    6.5873 C   0  0  2  0  0  0  0  0  0  0  0  0
   20.2801  -13.6946    7.1273 C   0  0  0  0  0  0  0  0  0  0  0  0
   18.5943  -12.9716    5.4994 C   0  0  2  0  0  0  0  0  0  0  0  0
   17.6677  -11.9688    5.0603 N   0  0  0  0  0  0  0  0  0  0  0  0
   17.8466  -14.1874    5.9069 C   0  0  0  0  0  0  0  0  0  0  0  0
   16.8505  -14.1372    6.6852 O   0  0  0  0  0  0  0  0  0  0  0  0
   16.4966  -19.0246    2.5772 N   0  0  0  0  0  0  0  0  0  0  0  0
   16.1993  -19.6091    3.8293 C   0  0  0  0  0  0  0  0  0  0  0  0
   15.6603  -20.7363    3.8784 O   0  0  0  0  0  0  0  0  0  0  0  0
   16.5491  -18.8393    5.0657 C   0  0  0  0  0  0  0  0  0  0  0  0
   17.1830  -17.5215    4.7037 C   0  0  0  0  0  0  0  0  0  0  0  0
   17.5560  -16.6761    5.8918 C   0  0  2  0  0  0  0  0  0  0  0  0
   18.2400  -15.4522    5.4243 N   0  0  0  0  0  0  0  0  0  0  0  0
   18.4770  -17.3337    6.8409 C   0  0  0  0  0  0  0  0  0  0  0  0
   19.6823  -17.3983    6.5892 O   0  0  0  0  0  0  0  0  0  0  0  0
   18.3104  -18.6016   10.3837 C   0  0  0  0  0  0  0  0  0  0  0  0
   18.8646  -18.5660    9.0040 C   0  0  2  0  0  0  0  0  0  0  0  0
   18.0101  -17.9003    8.0477 N   0  0  0  0  0  0  0  0  0  0  0  0
   19.2322  -19.9250    8.6039 C   0  0  0  0  0  0  0  0  0  0  0  0
   18.5736  -20.5123    7.7147 O   0  0  0  0  0  0  0  0  0  0  0  0
   20.3031  -20.5667    9.2011 O   0  0  0  0  0  0  0  0  0  0  0  0
  1  2  1  0
  3  5  1  0
  3  2  1  0
  3  4  1  6
  5  6  1  1
  7  5  1  0
  7  8  2  0
  9 10  1  0
 10 12  1  0
 11 10  2  0
 12 13  1  0
 14 13  1  6
 14 15  1  0
 15  7  1  0
 16 14  1  0
 17 16  2  0
 19 18  1  1
 19 21  1  0
 19 20  1  0
 20 16  1  0
 21 23  1  0
 22 21  2  0
M  END
$$$$
