IQA.pdb
     RDKit          3D

 23 22  0  0  1  0  0  0  0  0999 V2000
   29.9745  -20.6150  -11.8348 C   0  0  0  0  0  0  0  0  0  0  0  0
   28.6400  -20.5293  -11.1631 C   0  0  0  0  0  0  0  0  0  0  0  0
   27.5381  -20.7582  -12.1362 C   0  0  2  0  0  0  0  0  0  0  0  0
   27.5513  -19.7013  -13.2418 C   0  0  0  0  0  0  0  0  0  0  0  0
   26.1997  -20.7448  -11.4815 C   0  0  2  0  0  0  0  0  0  0  0  0
   26.1199  -21.6192  -10.3474 N   0  0  0  0  0  0  0  0  0  0  0  0
   25.1229  -21.0879  -12.4438 C   0  0  0  0  0  0  0  0  0  0  0  0
   25.0061  -22.2456  -12.9403 O   0  0  0  0  0  0  0  0  0  0  0  0
   19.3667  -19.7781  -12.2231 N   0  0  0  0  0  0  0  0  0  0  0  0
   20.0044  -20.9622  -11.7884 C   0  0  0  0  0  0  0  0  0  0  0  0
   19.4226  -21.7245  -10.9859 O   0  0  0  0  0  0  0  0  0  0  0  0
   21.3740  -21.2584  -12.3174 C   0  0  0  0  0  0  0  0  0  0  0  0
   21.8004  -20.1974  -13.2982 C   0  0  0  0  0  0  0  0  0  0  0  0
   23.1766  -20.4107  -13.8691 C   0  0  2  0  0  0  0  0  0  0  0  0
   24.1868  -20.1085  -12.8334 N   0  0  0  0  0  0  0  0  0  0  0  0
   23.4944  -19.5509  -15.0273 C   0  0  0  0  0  0  0  0  0  0  0  0
   23.6014  -18.3313  -14.8814 O   0  0  0  0  0  0  0  0  0  0  0  0
   25.0059  -19.9798  -18.3851 C   0  0  0  0  0  0  0  0  0  0  0  0
   24.0432  -19.3053  -17.4739 C   0  0  2  0  0  0  0  0  0  0  0  0
   23.6819  -20.0934  -16.3179 N   0  0  0  0  0  0  0  0  0  0  0  0
   22.8878  -18.8552  -18.2515 C   0  0  0  0  0  0  0  0  0  0  0  0
   21.7410  -19.2644  -17.9570 O   0  0  0  0  0  0  0  0  0  0  0  0
   23.0529  -17.9799  -19.3107 O   0  0  0  0  0  0  0  0  0  0  0  0
  1  2  1  0
  3  5  1  0
  3  2  1  0
  3  4  1  6
  5  6  1  1
  7  5  1  0
  7  8  2  0
  9 10  1  0
 10 12  1  0
 11 10  2  0
 12 13  1  0
 14 13  1  1
 14 15  1  0
 15  7  1  0
 16 14  1  0
 17 16  2  0
 19 18  1  6
 19 21  1  0
 19 20  1  0
 20 16  1  0
 21 23  1  0
 22 21  2  0
M  END
$$$$
