IQA.pdb
     RDKit          3D

 23 22  0  0  1  0  0  0  0  0999 V2000
   16.1517  -15.8242  -15.4191 C   0  0  0  0  0  0  0  0  0  0  0  0
   16.4826  -15.2604  -16.7652 C   0  0  0  0  0  0  0  0  0  0  0  0
   17.7113  -14.4238  -16.7051 C   0  0  2  0  0  0  0  0  0  0  0  0
   17.5496  -13.2789  -15.7038 C   0  0  0  0  0  0  0  0  0  0  0  0
   18.0632  -13.8477  -18.0334 C   0  0  2  0  0  0  0  0  0  0  0  0
   18.2932  -14.8469  -19.0364 N   0  0  0  0  0  0  0  0  0  0  0  0
   19.2499  -12.9608  -17.9416 C   0  0  0  0  0  0  0  0  0  0  0  0
   20.4317  -13.4118  -17.9593 O   0  0  0  0  0  0  0  0  0  0  0  0
   19.7263   -7.6026  -20.6192 N   0  0  0  0  0  0  0  0  0  0  0  0
   20.9399   -7.5339  -19.8981 C   0  0  0  0  0  0  0  0  0  0  0  0
   21.7574   -6.6192  -20.1399 O   0  0  0  0  0  0  0  0  0  0  0  0
   21.1993   -8.5785  -18.8564 C   0  0  0  0  0  0  0  0  0  0  0  0
   20.0811   -9.5879  -18.8332 C   0  0  0  0  0  0  0  0  0  0  0  0
   20.2565  -10.6705  -17.8024 C   0  0  2  0  0  0  0  0  0  0  0  0
   19.0809  -11.5657  -17.8300 N   0  0  0  0  0  0  0  0  0  0  0  0
   20.3738  -10.1763  -16.4155 C   0  0  0  0  0  0  0  0  0  0  0  0
   19.3699   -9.8026  -15.8050 O   0  0  0  0  0  0  0  0  0  0  0  0
   23.1184   -9.9015  -13.8199 C   0  0  0  0  0  0  0  0  0  0  0  0
   21.8060   -9.5665  -14.4344 C   0  0  2  0  0  0  0  0  0  0  0  0
   21.6224  -10.1177  -15.7574 N   0  0  0  0  0  0  0  0  0  0  0  0
   21.6111   -8.1170  -14.3792 C   0  0  0  0  0  0  0  0  0  0  0  0
   21.6198   -7.4465  -15.4373 O   0  0  0  0  0  0  0  0  0  0  0  0
   21.4170   -7.4810  -13.1655 O   0  0  0  0  0  0  0  0  0  0  0  0
  1  2  1  0
  3  5  1  0
  3  2  1  0
  3  4  1  1
  5  6  1  6
  7  5  1  0
  7  8  2  0
  9 10  1  0
 10 12  1  0
 11 10  2  0
 12 13  1  0
 14 13  1  6
 14 15  1  0
 15  7  1  0
 16 14  1  0
 17 16  2  0
 19 18  1  6
 19 21  1  0
 19 20  1  0
 20 16  1  0
 21 23  1  0
 22 21  2  0
M  END
$$$$
