IQA.pdb
     RDKit          3D

 23 22  0  0  1  0  0  0  0  0999 V2000
   27.5802  -16.0814  -18.2452 C   0  0  0  0  0  0  0  0  0  0  0  0
   28.2095  -17.1752  -17.4408 C   0  0  0  0  0  0  0  0  0  0  0  0
   27.1866  -17.9111  -16.6500 C   0  0  2  0  0  0  0  0  0  0  0  0
   26.5146  -16.9926  -15.6281 C   0  0  0  0  0  0  0  0  0  0  0  0
   27.7676  -19.0791  -15.9300 C   0  0  2  0  0  0  0  0  0  0  0  0
   28.5259  -19.9460  -16.7848 N   0  0  0  0  0  0  0  0  0  0  0  0
   26.7162  -19.8666  -15.2388 C   0  0  0  0  0  0  0  0  0  0  0  0
   26.1492  -20.8580  -15.7829 O   0  0  0  0  0  0  0  0  0  0  0  0
   26.2615  -20.1767   -9.0880 N   0  0  0  0  0  0  0  0  0  0  0  0
   25.1840  -21.0313   -9.4139 C   0  0  0  0  0  0  0  0  0  0  0  0
   24.5857  -21.6525   -8.5085 O   0  0  0  0  0  0  0  0  0  0  0  0
   24.7980  -21.1583  -10.8555 C   0  0  0  0  0  0  0  0  0  0  0  0
   25.7102  -20.3275  -11.7199 C   0  0  0  0  0  0  0  0  0  0  0  0
   25.3722  -20.3736  -13.1859 C   0  0  2  0  0  0  0  0  0  0  0  0
   26.3186  -19.5181  -13.9319 N   0  0  0  0  0  0  0  0  0  0  0  0
   24.0177  -19.8838  -13.5132 C   0  0  0  0  0  0  0  0  0  0  0  0
   23.8008  -18.6728  -13.5948 O   0  0  0  0  0  0  0  0  0  0  0  0
   21.0720  -19.3501  -13.0372 C   0  0  0  0  0  0  0  0  0  0  0  0
   21.5917  -20.3507  -14.0071 C   0  0  2  0  0  0  0  0  0  0  0  0
   22.9463  -20.7762  -13.7387 N   0  0  0  0  0  0  0  0  0  0  0  0
   21.4044  -19.8384  -15.3652 C   0  0  0  0  0  0  0  0  0  0  0  0
   22.3816  -19.7715  -16.1462 O   0  0  0  0  0  0  0  0  0  0  0  0
   20.1544  -19.4270  -15.7937 O   0  0  0  0  0  0  0  0  0  0  0  0
  1  2  1  0
  3  5  1  0
  3  2  1  0
  3  4  1  1
  5  6  1  6
  7  5  1  0
  7  8  2  0
  9 10  1  0
 10 12  1  0
 11 10  2  0
 12 13  1  0
 14 13  1  1
 14 15  1  0
 15  7  1  0
 16 14  1  0
 17 16  2  0
 19 18  1  1
 19 21  1  0
 19 20  1  0
 20 16  1  0
 21 23  1  0
 22 21  2  0
M  END
$$$$
