IQA.pdb
     RDKit          3D

 23 22  0  0  1  0  0  0  0  0999 V2000
   27.4065  -20.3083   -5.8506 C   0  0  0  0  0  0  0  0  0  0  0  0
   26.2994  -19.9848   -6.8041 C   0  0  0  0  0  0  0  0  0  0  0  0
   26.6221  -20.4605   -8.1763 C   0  0  2  0  0  0  0  0  0  0  0  0
   27.9897  -19.9472   -8.6299 C   0  0  0  0  0  0  0  0  0  0  0  0
   25.5996  -20.0341   -9.1728 C   0  0  2  0  0  0  0  0  0  0  0  0
   24.3106  -20.6189   -8.9410 N   0  0  0  0  0  0  0  0  0  0  0  0
   26.0352  -20.3373  -10.5590 C   0  0  0  0  0  0  0  0  0  0  0  0
   27.2184  -20.1280  -10.9549 O   0  0  0  0  0  0  0  0  0  0  0  0
   23.2813  -24.3965  -14.2814 N   0  0  0  0  0  0  0  0  0  0  0  0
   24.6583  -24.4591  -14.5938 C   0  0  0  0  0  0  0  0  0  0  0  0
   25.1093  -25.4378  -15.2281 O   0  0  0  0  0  0  0  0  0  0  0  0
   25.5338  -23.3303  -14.1436 C   0  0  0  0  0  0  0  0  0  0  0  0
   24.7187  -22.2853  -13.4272 C   0  0  0  0  0  0  0  0  0  0  0  0
   25.5338  -21.1459  -12.8769 C   0  0  2  0  0  0  0  0  0  0  0  0
   25.1187  -20.8770  -11.4842 N   0  0  0  0  0  0  0  0  0  0  0  0
   25.3773  -19.8751  -13.6132 C   0  0  0  0  0  0  0  0  0  0  0  0
   24.3868  -19.1666  -13.4206 O   0  0  0  0  0  0  0  0  0  0  0  0
   27.5849  -17.6074  -15.6137 C   0  0  0  0  0  0  0  0  0  0  0  0
   26.2615  -18.1882  -15.2624 C   0  0  2  0  0  0  0  0  0  0  0  0
   26.3442  -19.4408  -14.5468 N   0  0  0  0  0  0  0  0  0  0  0  0
   25.4401  -18.2654  -16.4713 C   0  0  0  0  0  0  0  0  0  0  0  0
   25.2253  -19.3765  -17.0087 O   0  0  0  0  0  0  0  0  0  0  0  0
   24.8980  -17.1191  -17.0257 O   0  0  0  0  0  0  0  0  0  0  0  0
  1  2  1  0
  3  5  1  0
  3  2  1  0
  3  4  1  6
  5  6  1  1
  7  5  1  0
  7  8  2  0
  9 10  1  0
 10 12  1  0
 11 10  2  0
 12 13  1  0
 14 13  1  6
 14 15  1  0
 15  7  1  0
 16 14  1  0
 17 16  2  0
 19 18  1  6
 19 21  1  0
 19 20  1  0
 20 16  1  0
 21 23  1  0
 22 21  2  0
M  END
$$$$
