IQA.pdb
     RDKit          3D

 23 22  0  0  1  0  0  0  0  0999 V2000
   17.4654  -10.0344  -22.2042 C   0  0  0  0  0  0  0  0  0  0  0  0
   18.4345  -10.4112  -21.1280 C   0  0  0  0  0  0  0  0  0  0  0  0
   18.2926   -9.5181  -19.9466 C   0  0  2  0  0  0  0  0  0  0  0  0
   18.5655   -8.0607  -20.3221 C   0  0  0  0  0  0  0  0  0  0  0  0
   19.2110   -9.9037  -18.8384 C   0  0  2  0  0  0  0  0  0  0  0  0
   19.0038  -11.2462  -18.3780 N   0  0  0  0  0  0  0  0  0  0  0  0
   19.0986   -8.9677  -17.6918 C   0  0  0  0  0  0  0  0  0  0  0  0
   18.2739   -9.1510  -16.7502 O   0  0  0  0  0  0  0  0  0  0  0  0
   23.1403   -7.2357  -13.9931 N   0  0  0  0  0  0  0  0  0  0  0  0
   22.2318   -6.2198  -13.6185 C   0  0  0  0  0  0  0  0  0  0  0  0
   22.4551   -5.5286  -12.6008 O   0  0  0  0  0  0  0  0  0  0  0  0
   21.0189   -6.0111  -14.4722 C   0  0  0  0  0  0  0  0  0  0  0  0
   20.9764   -7.0269  -15.5839 C   0  0  0  0  0  0  0  0  0  0  0  0
   19.7976   -6.8734  -16.5071 C   0  0  2  0  0  0  0  0  0  0  0  0
   19.9273   -7.8291  -17.6270 N   0  0  0  0  0  0  0  0  0  0  0  0
   19.6706   -5.5326  -17.1134 C   0  0  0  0  0  0  0  0  0  0  0  0
   20.4832   -5.1580  -17.9618 O   0  0  0  0  0  0  0  0  0  0  0  0
   17.1584   -2.7002  -16.9946 C   0  0  0  0  0  0  0  0  0  0  0  0
   18.4824   -3.3170  -17.2751 C   0  0  2  0  0  0  0  0  0  0  0  0
   18.6294   -4.6526  -16.7439 N   0  0  0  0  0  0  0  0  0  0  0  0
   19.5362   -2.4006  -16.8371 C   0  0  0  0  0  0  0  0  0  0  0  0
   20.3309   -2.7511  -15.9343 O   0  0  0  0  0  0  0  0  0  0  0  0
   19.6616   -1.1487  -17.4134 O   0  0  0  0  0  0  0  0  0  0  0  0
  1  2  1  0
  3  5  1  0
  3  2  1  0
  3  4  1  6
  5  6  1  1
  7  5  1  0
  7  8  2  0
  9 10  1  0
 10 12  1  0
 11 10  2  0
 12 13  1  0
 14 13  1  1
 14 15  1  0
 15  7  1  0
 16 14  1  0
 17 16  2  0
 19 18  1  1
 19 21  1  0
 19 20  1  0
 20 16  1  0
 21 23  1  0
 22 21  2  0
M  END
$$$$
