RWE.pdb
     RDKit          3D

 35 36  0  0  1  0  0  0  0  0999 V2000
   29.3663  -24.8273  -18.7777 N   0  0  0  0  0  0  0  0  0  0  0  0
   29.9924  -23.5755  -19.0485 C   0  0  0  0  0  0  0  0  0  0  0  0
   30.2761  -23.2800  -20.2586 N   0  0  0  0  0  0  0  0  0  0  0  0
   30.2986  -22.6679  -18.0036 N   0  0  0  0  0  0  0  0  0  0  0  0
   29.7691  -22.9614  -16.6709 C   0  0  0  0  0  0  0  0  0  0  0  0
   28.3173  -22.5549  -16.6914 C   0  0  0  0  0  0  0  0  0  0  0  0
   27.6539  -22.7309  -15.3491 C   0  0  0  0  0  0  0  0  0  0  0  0
   27.3914  -21.3823  -14.7536 C   0  0  2  0  0  0  0  0  0  0  0  0
   28.6430  -20.6801  -14.5709 N   0  0  0  0  0  0  0  0  0  0  0  0
   26.6562  -21.5012  -13.4446 C   0  0  0  0  0  0  0  0  0  0  0  0
   25.5501  -22.0754  -13.4385 O   0  0  0  0  0  0  0  0  0  0  0  0
   30.7989  -22.4647  -20.5958 N   0  0  0  0  0  0  0  0  0  0  0  0
   27.1912  -20.9849  -12.2610 C   0  0  1  0  0  0  0  0  0  0  0  0
   26.5128  -21.0030  -10.9806 C   0  0  0  0  0  0  0  0  0  0  0  0
   27.4930  -20.4718   -9.9604 C   0  0  0  0  0  0  0  0  0  0  0  0
   26.8726  -20.5170   -8.6302 C   0  0  0  0  0  0  0  0  0  0  0  0
   25.5998  -20.9172   -8.2813 N   0  0  0  0  0  0  0  0  0  0  0  0
   25.4353  -20.8020   -6.9609 C   0  0  0  0  0  0  0  0  0  0  0  0
   26.5764  -20.3319   -6.4243 C   0  0  0  0  0  0  0  0  0  0  0  0
   26.9852  -20.0230   -5.1511 C   0  0  0  0  0  0  0  0  0  0  0  0
   28.2555  -19.5437   -4.8786 C   0  0  0  0  0  0  0  0  0  0  0  0
   29.1633  -19.3591   -5.8959 C   0  0  0  0  0  0  0  0  0  0  0  0
   28.7709  -19.6634   -7.1780 C   0  0  0  0  0  0  0  0  0  0  0  0
   27.4900  -20.1476   -7.4591 C   0  0  0  0  0  0  0  0  0  0  0  0
   25.2523  -20.1941  -11.0227 O   0  0  0  0  0  0  0  0  0  0  0  0
   25.2869  -18.9431  -11.0062 N   0  0  0  0  0  0  0  0  0  0  0  0
   23.9782  -20.7810  -11.0819 C   0  0  1  0  0  0  0  0  0  0  0  0
   22.6954  -20.2629  -11.1804 C   0  0  0  0  0  0  0  0  0  0  0  0
   21.9277  -20.2017  -12.4479 C   0  0  0  0  0  0  0  0  0  0  0  0
   22.6583  -19.6318  -13.6258 C   0  0  0  0  0  0  0  0  0  0  0  0
   21.7626  -19.7244  -14.8390 O   0  0  0  0  0  0  0  0  0  0  0  0
   21.4001  -18.6685  -15.4146 C   0  0  0  0  0  0  0  0  0  0  0  0
   21.8397  -20.6840  -10.0771 O   0  0  0  0  0  0  0  0  0  0  0  0
   22.1135  -21.7057   -9.4136 O   0  0  0  0  0  0  0  0  0  0  0  0
   21.3311  -20.9264  -15.3344 O   0  0  0  0  0  0  0  0  0  0  0  0
  2  1  1  0
  2  3  2  0
  4  2  1  0
  5  6  1  0
  5  4  1  0
  7  6  1  0
  8  7  1  0
  8  9  1  1
 10  8  1  0
 10 12  1  0
 11 10  2  0
 13 12  1  0
 13 14  1  1
 14 15  1  0
 15 16  2  0
 17 16  1  0
 18 17  1  0
 19 18  2  0
 20 19  1  0
 21 22  1  0
 21 20  2  0
 22 23  2  0
 23 18  1  0
 23 15  1  0
 24 13  1  0
 24 25  2  0
 26 24  1  0
 27 26  1  0
 27 32  1  0
 27 28  1  1
 29 28  1  0
 30 29  1  0
 31 30  2  0
 32 33  2  0
 32 35  1  0
 34 30  1  0
M  END
$$$$
