RWE.pdb
     RDKit          3D

 35 36  0  0  1  0  0  0  0  0999 V2000
   31.1378  -22.2740  -11.1034 N   0  0  0  0  0  0  0  0  0  0  0  0
   30.7299  -21.6417   -9.8925 C   0  0  0  0  0  0  0  0  0  0  0  0
   31.4339  -21.8171   -8.8410 N   0  0  0  0  0  0  0  0  0  0  0  0
   29.5679  -20.8314   -9.8442 N   0  0  0  0  0  0  0  0  0  0  0  0
   28.3142  -21.4106  -10.3294 C   0  0  0  0  0  0  0  0  0  0  0  0
   27.8098  -20.4877  -11.4097 C   0  0  0  0  0  0  0  0  0  0  0  0
   26.3288  -20.2295  -11.2974 C   0  0  0  0  0  0  0  0  0  0  0  0
   25.5846  -21.4302  -11.7943 C   0  0  2  0  0  0  0  0  0  0  0  0
   26.1933  -21.9069  -13.0170 N   0  0  0  0  0  0  0  0  0  0  0  0
   24.1294  -21.1125  -12.0172 C   0  0  0  0  0  0  0  0  0  0  0  0
   23.4866  -20.6000  -11.0806 O   0  0  0  0  0  0  0  0  0  0  0  0
   31.2914  -21.3955   -7.9171 N   0  0  0  0  0  0  0  0  0  0  0  0
   23.5058  -21.3810  -13.2390 C   0  0  1  0  0  0  0  0  0  0  0  0
   22.0752  -21.3128  -13.4593 C   0  0  0  0  0  0  0  0  0  0  0  0
   21.8739  -21.0160  -14.9274 C   0  0  0  0  0  0  0  0  0  0  0  0
   22.5563  -19.7592  -15.2607 C   0  0  0  0  0  0  0  0  0  0  0  0
   23.8819  -19.5514  -15.5791 N   0  0  0  0  0  0  0  0  0  0  0  0
   24.0928  -18.2536  -15.8138 C   0  0  0  0  0  0  0  0  0  0  0  0
   22.9305  -17.5933  -15.6571 C   0  0  0  0  0  0  0  0  0  0  0  0
   22.5478  -16.2799  -15.7659 C   0  0  0  0  0  0  0  0  0  0  0  0
   21.2441  -15.8691  -15.5435 C   0  0  0  0  0  0  0  0  0  0  0  0
   20.2749  -16.7832  -15.2000 C   0  0  0  0  0  0  0  0  0  0  0  0
   20.6404  -18.1038  -15.0863 C   0  0  0  0  0  0  0  0  0  0  0  0
   21.9548  -18.5243  -15.3097 C   0  0  0  0  0  0  0  0  0  0  0  0
   21.4011  -22.5856  -13.0461 O   0  0  0  0  0  0  0  0  0  0  0  0
   22.0679  -23.5975  -12.7331 N   0  0  0  0  0  0  0  0  0  0  0  0
   20.0045  -22.7173  -12.9865 C   0  0  2  0  0  0  0  0  0  0  0  0
   19.1095  -22.8985  -11.9425 C   0  0  0  0  0  0  0  0  0  0  0  0
   19.5108  -23.3198  -10.5782 C   0  0  0  0  0  0  0  0  0  0  0  0
   19.0392  -24.6762  -10.1496 C   0  0  0  0  0  0  0  0  0  0  0  0
   18.8113  -24.6573   -8.6562 O   0  0  0  0  0  0  0  0  0  0  0  0
   17.7006  -25.0273   -8.2014 C   0  0  0  0  0  0  0  0  0  0  0  0
   18.1037  -21.8441  -11.8834 O   0  0  0  0  0  0  0  0  0  0  0  0
   18.4185  -20.6525  -12.0839 O   0  0  0  0  0  0  0  0  0  0  0  0
   19.7797  -24.2485   -7.7778 O   0  0  0  0  0  0  0  0  0  0  0  0
  2  1  1  0
  2  3  2  0
  4  2  1  0
  5  6  1  0
  5  4  1  0
  7  6  1  0
  8  7  1  0
  8  9  1  6
 10  8  1  0
 10 12  1  0
 11 10  2  0
 13 12  1  0
 13 14  1  1
 14 15  1  0
 15 16  2  0
 17 16  1  0
 18 17  1  0
 19 18  2  0
 20 19  1  0
 21 22  1  0
 21 20  2  0
 22 23  2  0
 23 18  1  0
 23 15  1  0
 24 13  1  0
 24 25  2  0
 26 24  1  0
 27 26  1  0
 27 32  1  0
 27 28  1  6
 29 28  1  0
 30 29  1  0
 31 30  2  0
 32 33  2  0
 32 35  1  0
 34 30  1  0
M  END
$$$$
