RWE.pdb
     RDKit          3D

 35 36  0  0  1  0  0  0  0  0999 V2000
   25.0527  -19.6872  -20.2784 N   0  0  0  0  0  0  0  0  0  0  0  0
   25.1127  -18.6868  -19.2645 C   0  0  0  0  0  0  0  0  0  0  0  0
   24.4712  -17.5960  -19.4397 N   0  0  0  0  0  0  0  0  0  0  0  0
   25.8657  -18.8874  -18.0805 N   0  0  0  0  0  0  0  0  0  0  0  0
   27.0426  -19.7541  -18.1617 C   0  0  0  0  0  0  0  0  0  0  0  0
   26.6134  -21.1033  -17.6430 C   0  0  0  0  0  0  0  0  0  0  0  0
   27.7465  -22.0975  -17.6256 C   0  0  0  0  0  0  0  0  0  0  0  0
   28.4762  -21.9835  -16.3230 C   0  0  2  0  0  0  0  0  0  0  0  0
   29.5706  -22.9292  -16.2952 N   0  0  0  0  0  0  0  0  0  0  0  0
   27.5484  -22.2145  -15.1595 C   0  0  0  0  0  0  0  0  0  0  0  0
   27.2018  -23.3840  -14.9037 O   0  0  0  0  0  0  0  0  0  0  0  0
   24.4372  -16.7845  -18.8135 N   0  0  0  0  0  0  0  0  0  0  0  0
   27.0820  -21.1524  -14.3797 C   0  0  2  0  0  0  0  0  0  0  0  0
   26.3789  -21.3080  -13.1223 C   0  0  0  0  0  0  0  0  0  0  0  0
   27.2375  -20.6616  -12.0598 C   0  0  0  0  0  0  0  0  0  0  0  0
   26.4738  -20.5835  -10.8079 C   0  0  0  0  0  0  0  0  0  0  0  0
   25.1081  -20.6290  -10.6222 N   0  0  0  0  0  0  0  0  0  0  0  0
   24.8246  -20.5225   -9.3213 C   0  0  0  0  0  0  0  0  0  0  0  0
   25.9779  -20.4069   -8.6374 C   0  0  0  0  0  0  0  0  0  0  0  0
   26.3001  -20.2711   -7.3103 C   0  0  0  0  0  0  0  0  0  0  0  0
   27.6108  -20.1723   -6.8744 C   0  0  0  0  0  0  0  0  0  0  0  0
   28.6493  -20.2078   -7.7762 C   0  0  0  0  0  0  0  0  0  0  0  0
   28.3450  -20.3433   -9.1102 C   0  0  0  0  0  0  0  0  0  0  0  0
   27.0239  -20.4435   -9.5561 C   0  0  0  0  0  0  0  0  0  0  0  0
   25.0112  -20.6994  -13.1861 O   0  0  0  0  0  0  0  0  0  0  0  0
   24.8545  -19.4581  -13.1525 N   0  0  0  0  0  0  0  0  0  0  0  0
   23.8431  -21.4720  -13.2857 C   0  0  2  0  0  0  0  0  0  0  0  0
   22.5074  -21.2170  -13.0126 C   0  0  0  0  0  0  0  0  0  0  0  0
   21.7971  -21.7390  -11.8197 C   0  0  0  0  0  0  0  0  0  0  0  0
   20.3265  -21.4563  -11.7610 C   0  0  0  0  0  0  0  0  0  0  0  0
   19.7620  -22.0978  -10.5150 O   0  0  0  0  0  0  0  0  0  0  0  0
   20.5477  -22.4752   -9.6108 C   0  0  0  0  0  0  0  0  0  0  0  0
   22.1442  -19.8272  -13.2638 O   0  0  0  0  0  0  0  0  0  0  0  0
   22.4453  -18.9329  -12.4460 O   0  0  0  0  0  0  0  0  0  0  0  0
   18.4163  -22.2821  -10.3378 O   0  0  0  0  0  0  0  0  0  0  0  0
  2  1  1  0
  2  3  2  0
  4  2  1  0
  5  6  1  0
  5  4  1  0
  7  6  1  0
  8  7  1  0
  8  9  1  6
 10  8  1  0
 10 12  1  0
 11 10  2  0
 13 12  1  0
 13 14  1  6
 14 15  1  0
 15 16  2  0
 17 16  1  0
 18 17  1  0
 19 18  2  0
 20 19  1  0
 21 22  1  0
 21 20  2  0
 22 23  2  0
 23 18  1  0
 23 15  1  0
 24 13  1  0
 24 25  2  0
 26 24  1  0
 27 26  1  0
 27 32  1  0
 27 28  1  1
 29 28  1  0
 30 29  1  0
 31 30  2  0
 32 33  2  0
 32 35  1  0
 34 30  1  0
M  END
$$$$
