RWE.pdb
     RDKit          3D

 35 36  0  0  1  0  0  0  0  0999 V2000
   27.8137  -17.2305  -16.4663 N   0  0  0  0  0  0  0  0  0  0  0  0
   28.4230  -17.4812  -17.7305 C   0  0  0  0  0  0  0  0  0  0  0  0
   28.5351  -16.5161  -18.5601 N   0  0  0  0  0  0  0  0  0  0  0  0
   28.8994  -18.7719  -18.0715 N   0  0  0  0  0  0  0  0  0  0  0  0
   28.8183  -19.8183  -17.0512 C   0  0  0  0  0  0  0  0  0  0  0  0
   27.6555  -20.6977  -17.4359 C   0  0  0  0  0  0  0  0  0  0  0  0
   26.6997  -20.9172  -16.2909 C   0  0  0  0  0  0  0  0  0  0  0  0
   27.2629  -21.9621  -15.3781 C   0  0  2  0  0  0  0  0  0  0  0  0
   27.1847  -23.2579  -16.0166 N   0  0  0  0  0  0  0  0  0  0  0  0
   26.5366  -21.9784  -14.0588 C   0  0  0  0  0  0  0  0  0  0  0  0
   25.4036  -22.4956  -14.0147 O   0  0  0  0  0  0  0  0  0  0  0  0
   28.9025  -16.5550  -19.5168 N   0  0  0  0  0  0  0  0  0  0  0  0
   27.1090  -21.4307  -12.9073 C   0  0  2  0  0  0  0  0  0  0  0  0
   26.4224  -21.2933  -11.6386 C   0  0  0  0  0  0  0  0  0  0  0  0
   27.4496  -20.8206  -10.6359 C   0  0  0  0  0  0  0  0  0  0  0  0
   26.7825  -20.5547   -9.3550 C   0  0  0  0  0  0  0  0  0  0  0  0
   25.4441  -20.6556   -9.0381 N   0  0  0  0  0  0  0  0  0  0  0  0
   25.2555  -20.3199   -7.7592 C   0  0  0  0  0  0  0  0  0  0  0  0
   26.4451  -19.9971   -7.2188 C   0  0  0  0  0  0  0  0  0  0  0  0
   26.8577  -19.5868   -5.9759 C   0  0  0  0  0  0  0  0  0  0  0  0
   28.1856  -19.3176   -5.6895 C   0  0  0  0  0  0  0  0  0  0  0  0
   29.1495  -19.4559   -6.6615 C   0  0  0  0  0  0  0  0  0  0  0  0
   28.7542  -19.8660   -7.9129 C   0  0  0  0  0  0  0  0  0  0  0  0
   27.4152  -20.1393   -8.2077 C   0  0  0  0  0  0  0  0  0  0  0  0
   25.2661  -20.3466  -11.7468 O   0  0  0  0  0  0  0  0  0  0  0  0
   25.4446  -19.1370  -12.0144 N   0  0  0  0  0  0  0  0  0  0  0  0
   23.9355  -20.7527  -11.5576 C   0  0  1  0  0  0  0  0  0  0  0  0
   22.7132  -20.2074  -11.9216 C   0  0  0  0  0  0  0  0  0  0  0  0
   22.2190  -20.1550  -13.3191 C   0  0  0  0  0  0  0  0  0  0  0  0
   22.8186  -19.0875  -14.1832 C   0  0  0  0  0  0  0  0  0  0  0  0
   22.5917  -19.4555  -15.6308 O   0  0  0  0  0  0  0  0  0  0  0  0
   22.0901  -20.5732  -15.9072 C   0  0  0  0  0  0  0  0  0  0  0  0
   21.6415  -20.5857  -11.0078 O   0  0  0  0  0  0  0  0  0  0  0  0
   21.8229  -21.4711  -10.1461 O   0  0  0  0  0  0  0  0  0  0  0  0
   22.9162  -18.6072  -16.6563 O   0  0  0  0  0  0  0  0  0  0  0  0
  2  1  1  0
  2  3  2  0
  4  2  1  0
  5  6  1  0
  5  4  1  0
  7  6  1  0
  8  7  1  0
  8  9  1  6
 10  8  1  0
 10 12  1  0
 11 10  2  0
 13 12  1  0
 13 14  1  1
 14 15  1  0
 15 16  2  0
 17 16  1  0
 18 17  1  0
 19 18  2  0
 20 19  1  0
 21 22  1  0
 21 20  2  0
 22 23  2  0
 23 18  1  0
 23 15  1  0
 24 13  1  0
 24 25  2  0
 26 24  1  0
 27 26  1  0
 27 32  1  0
 27 28  1  1
 29 28  1  0
 30 29  1  0
 31 30  2  0
 32 33  2  0
 32 35  1  0
 34 30  1  0
M  END
$$$$
