RWE.pdb
     RDKit          3D

 35 36  0  0  1  0  0  0  0  0999 V2000
   32.2127  -26.6579  -15.7081 N   0  0  0  0  0  0  0  0  0  0  0  0
   32.9228  -25.8490  -16.6430 C   0  0  0  0  0  0  0  0  0  0  0  0
   33.9209  -26.3553  -17.2589 N   0  0  0  0  0  0  0  0  0  0  0  0
   32.5378  -24.5079  -16.8927 N   0  0  0  0  0  0  0  0  0  0  0  0
   31.2953  -24.0321  -16.2825 C   0  0  0  0  0  0  0  0  0  0  0  0
   30.4567  -23.4750  -17.4049 C   0  0  0  0  0  0  0  0  0  0  0  0
   29.7036  -22.2346  -16.9964 C   0  0  0  0  0  0  0  0  0  0  0  0
   28.3250  -22.6222  -16.5585 C   0  0  2  0  0  0  0  0  0  0  0  0
   27.7547  -23.5477  -17.5130 N   0  0  0  0  0  0  0  0  0  0  0  0
   27.4437  -21.4106  -16.4056 C   0  0  0  0  0  0  0  0  0  0  0  0
   27.7873  -20.5289  -15.5946 O   0  0  0  0  0  0  0  0  0  0  0  0
   34.5466  -25.8878  -17.9235 N   0  0  0  0  0  0  0  0  0  0  0  0
   26.2687  -21.2681  -17.1491 C   0  0  1  0  0  0  0  0  0  0  0  0
   25.3531  -20.1517  -17.0257 C   0  0  0  0  0  0  0  0  0  0  0  0
   25.2288  -19.5358  -18.4001 C   0  0  0  0  0  0  0  0  0  0  0  0
   24.4908  -18.2707  -18.2939 C   0  0  0  0  0  0  0  0  0  0  0  0
   24.9405  -17.0387  -17.8676 N   0  0  0  0  0  0  0  0  0  0  0  0
   23.9450  -16.1499  -17.9224 C   0  0  0  0  0  0  0  0  0  0  0  0
   22.8401  -16.7687  -18.3778 C   0  0  0  0  0  0  0  0  0  0  0  0
   21.5518  -16.3715  -18.6348 C   0  0  0  0  0  0  0  0  0  0  0  0
   20.5908  -17.2456  -19.1148 C   0  0  0  0  0  0  0  0  0  0  0  0
   20.9050  -18.5638  -19.3528 C   0  0  0  0  0  0  0  0  0  0  0  0
   22.1912  -18.9793  -19.1007 C   0  0  0  0  0  0  0  0  0  0  0  0
   23.1654  -18.1016  -18.6163 C   0  0  0  0  0  0  0  0  0  0  0  0
   24.0270  -20.5943  -16.4865 O   0  0  0  0  0  0  0  0  0  0  0  0
   23.4371  -21.5910  -16.9609 N   0  0  0  0  0  0  0  0  0  0  0  0
   23.3775  -19.9285  -15.4348 C   0  0  2  0  0  0  0  0  0  0  0  0
   22.1234  -20.0585  -14.8567 C   0  0  0  0  0  0  0  0  0  0  0  0
   21.1088  -18.9767  -14.8399 C   0  0  0  0  0  0  0  0  0  0  0  0
   19.7272  -19.3850  -14.4273 C   0  0  0  0  0  0  0  0  0  0  0  0
   18.9309  -18.1403  -14.1122 O   0  0  0  0  0  0  0  0  0  0  0  0
   18.8476  -17.2318  -14.9753 C   0  0  0  0  0  0  0  0  0  0  0  0
   21.5038  -21.3442  -15.1564 O   0  0  0  0  0  0  0  0  0  0  0  0
   21.8033  -21.9681  -16.1957 O   0  0  0  0  0  0  0  0  0  0  0  0
   18.2941  -17.9690  -12.9116 O   0  0  0  0  0  0  0  0  0  0  0  0
  2  1  1  0
  2  3  2  0
  4  2  1  0
  5  6  1  0
  5  4  1  0
  7  6  1  0
  8  7  1  0
  8  9  1  6
 10  8  1  0
 10 12  1  0
 11 10  2  0
 13 12  1  0
 13 14  1  1
 14 15  1  0
 15 16  2  0
 17 16  1  0
 18 17  1  0
 19 18  2  0
 20 19  1  0
 21 22  1  0
 21 20  2  0
 22 23  2  0
 23 18  1  0
 23 15  1  0
 24 13  1  0
 24 25  2  0
 26 24  1  0
 27 26  1  0
 27 32  1  0
 27 28  1  6
 29 28  1  0
 30 29  1  0
 31 30  2  0
 32 33  2  0
 32 35  1  0
 34 30  1  0
M  END
$$$$
