RWE.pdb
     RDKit          3D

 35 36  0  0  1  0  0  0  0  0999 V2000
   28.4538  -21.0251  -20.2452 N   0  0  0  0  0  0  0  0  0  0  0  0
   29.4282  -20.0517  -19.8774 C   0  0  0  0  0  0  0  0  0  0  0  0
   29.7452  -19.1498  -20.7248 N   0  0  0  0  0  0  0  0  0  0  0  0
   30.0400  -20.0737  -18.5989 N   0  0  0  0  0  0  0  0  0  0  0  0
   29.2815  -20.6583  -17.4920 C   0  0  0  0  0  0  0  0  0  0  0  0
   28.1308  -19.7216  -17.2237 C   0  0  0  0  0  0  0  0  0  0  0  0
   27.1953  -20.2511  -16.1668 C   0  0  0  0  0  0  0  0  0  0  0  0
   27.9735  -21.0920  -15.2026 C   0  0  2  0  0  0  0  0  0  0  0  0
   28.3813  -22.3204  -15.8489 N   0  0  0  0  0  0  0  0  0  0  0  0
   27.1658  -21.3881  -13.9665 C   0  0  0  0  0  0  0  0  0  0  0  0
   26.2528  -22.2327  -14.0458 O   0  0  0  0  0  0  0  0  0  0  0  0
   30.4449  -18.4081  -20.6146 N   0  0  0  0  0  0  0  0  0  0  0  0
   27.4248  -20.7387  -12.7562 C   0  0  2  0  0  0  0  0  0  0  0  0
   26.6735  -20.9532  -11.5358 C   0  0  0  0  0  0  0  0  0  0  0  0
   27.4975  -20.3739  -10.4091 C   0  0  0  0  0  0  0  0  0  0  0  0
   26.7543  -20.5137   -9.1503 C   0  0  0  0  0  0  0  0  0  0  0  0
   25.4647  -20.9599   -8.9508 N   0  0  0  0  0  0  0  0  0  0  0  0
   25.1720  -20.9298   -7.6480 C   0  0  0  0  0  0  0  0  0  0  0  0
   26.2443  -20.4713   -6.9763 C   0  0  0  0  0  0  0  0  0  0  0  0
   26.5216  -20.2336   -5.6534 C   0  0  0  0  0  0  0  0  0  0  0  0
   27.7474  -19.7469   -5.2311 C   0  0  0  0  0  0  0  0  0  0  0  0
   28.7431  -19.4817   -6.1429 C   0  0  0  0  0  0  0  0  0  0  0  0
   28.4828  -19.7138   -7.4728 C   0  0  0  0  0  0  0  0  0  0  0  0
   27.2474  -20.2051   -7.9050 C   0  0  0  0  0  0  0  0  0  0  0  0
   25.3148  -20.3270  -11.6175 O   0  0  0  0  0  0  0  0  0  0  0  0
   25.1796  -19.0850  -11.6939 N   0  0  0  0  0  0  0  0  0  0  0  0
   24.1317  -21.0830  -11.6130 C   0  0  1  0  0  0  0  0  0  0  0  0
   22.7952  -20.7598  -11.7947 C   0  0  0  0  0  0  0  0  0  0  0  0
   21.8495  -21.5836  -12.5864 C   0  0  0  0  0  0  0  0  0  0  0  0
   21.9621  -21.4558  -14.0753 C   0  0  0  0  0  0  0  0  0  0  0  0
   21.0192  -22.4470  -14.7165 O   0  0  0  0  0  0  0  0  0  0  0  0
   20.3786  -23.2433  -13.9866 C   0  0  0  0  0  0  0  0  0  0  0  0
   22.1662  -20.2860  -10.5672 O   0  0  0  0  0  0  0  0  0  0  0  0
   22.1783  -20.9875   -9.5342 O   0  0  0  0  0  0  0  0  0  0  0  0
   20.8389  -22.5063  -16.0732 O   0  0  0  0  0  0  0  0  0  0  0  0
  2  1  1  0
  2  3  2  0
  4  2  1  0
  5  6  1  0
  5  4  1  0
  7  6  1  0
  8  7  1  0
  8  9  1  6
 10  8  1  0
 10 12  1  0
 11 10  2  0
 13 12  1  0
 13 14  1  1
 14 15  1  0
 15 16  2  0
 17 16  1  0
 18 17  1  0
 19 18  2  0
 20 19  1  0
 21 22  1  0
 21 20  2  0
 22 23  2  0
 23 18  1  0
 23 15  1  0
 24 13  1  0
 24 25  2  0
 26 24  1  0
 27 26  1  0
 27 32  1  0
 27 28  1  1
 29 28  1  0
 30 29  1  0
 31 30  2  0
 32 33  2  0
 32 35  1  0
 34 30  1  0
M  END
$$$$
