RWE.pdb
     RDKit          3D

 35 36  0  0  1  0  0  0  0  0999 V2000
   29.5878  -18.4923  -18.6763 N   0  0  0  0  0  0  0  0  0  0  0  0
   28.6753  -17.5221  -18.1680 C   0  0  0  0  0  0  0  0  0  0  0  0
   28.1699  -16.6718  -18.9764 N   0  0  0  0  0  0  0  0  0  0  0  0
   28.3276  -17.4920  -16.7941 N   0  0  0  0  0  0  0  0  0  0  0  0
   28.5655  -18.7021  -16.0057 C   0  0  0  0  0  0  0  0  0  0  0  0
   27.2443  -19.4243  -15.9266 C   0  0  0  0  0  0  0  0  0  0  0  0
   26.7528  -19.5664  -14.5086 C   0  0  0  0  0  0  0  0  0  0  0  0
   27.3182  -20.8215  -13.9192 C   0  0  2  0  0  0  0  0  0  0  0  0
   27.2003  -21.9022  -14.8736 N   0  0  0  0  0  0  0  0  0  0  0  0
   26.6239  -21.1763  -12.6306 C   0  0  0  0  0  0  0  0  0  0  0  0
   25.5270  -21.7645  -12.6934 O   0  0  0  0  0  0  0  0  0  0  0  0
   28.3863  -16.5519  -19.9717 N   0  0  0  0  0  0  0  0  0  0  0  0
   27.1861  -20.8591  -11.3909 C   0  0  2  0  0  0  0  0  0  0  0  0
   26.5070  -21.0170  -10.1205 C   0  0  0  0  0  0  0  0  0  0  0  0
   27.5291  -20.7395   -9.0424 C   0  0  0  0  0  0  0  0  0  0  0  0
   26.8538  -20.7043   -7.7389 C   0  0  0  0  0  0  0  0  0  0  0  0
   25.5772  -21.1120   -7.4135 N   0  0  0  0  0  0  0  0  0  0  0  0
   25.3539  -20.9051   -6.1130 C   0  0  0  0  0  0  0  0  0  0  0  0
   26.4597  -20.3667   -5.5666 C   0  0  0  0  0  0  0  0  0  0  0  0
   26.8063  -19.9549   -4.3042 C   0  0  0  0  0  0  0  0  0  0  0  0
   28.0522  -19.4230   -4.0165 C   0  0  0  0  0  0  0  0  0  0  0  0
   28.9978  -19.2887   -5.0068 C   0  0  0  0  0  0  0  0  0  0  0  0
   28.6677  -19.6962   -6.2778 C   0  0  0  0  0  0  0  0  0  0  0  0
   27.4118  -20.2339   -6.5742 C   0  0  0  0  0  0  0  0  0  0  0  0
   25.3232  -20.1039  -10.0206 O   0  0  0  0  0  0  0  0  0  0  0  0
   25.4702  -18.8697   -9.8737 N   0  0  0  0  0  0  0  0  0  0  0  0
   24.0005  -20.5703  -10.0843 C   0  0  1  0  0  0  0  0  0  0  0  0
   22.8755  -20.1496  -10.7780 C   0  0  0  0  0  0  0  0  0  0  0  0
   22.8558  -19.8996  -12.2398 C   0  0  0  0  0  0  0  0  0  0  0  0
   21.6014  -19.2815  -12.7787 C   0  0  0  0  0  0  0  0  0  0  0  0
   21.8592  -18.8261  -14.1960 O   0  0  0  0  0  0  0  0  0  0  0  0
   22.6059  -19.5150  -14.9344 C   0  0  0  0  0  0  0  0  0  0  0  0
   21.6682  -20.8510  -10.3568 O   0  0  0  0  0  0  0  0  0  0  0  0
   20.6288  -20.2176  -10.0780 O   0  0  0  0  0  0  0  0  0  0  0  0
   21.3033  -17.6821  -14.7047 O   0  0  0  0  0  0  0  0  0  0  0  0
  2  1  1  0
  2  3  2  0
  4  2  1  0
  5  6  1  0
  5  4  1  0
  7  6  1  0
  8  7  1  0
  8  9  1  6
 10  8  1  0
 10 12  1  0
 11 10  2  0
 13 12  1  0
 13 14  1  6
 14 15  1  0
 15 16  2  0
 17 16  1  0
 18 17  1  0
 19 18  2  0
 20 19  1  0
 21 22  1  0
 21 20  2  0
 22 23  2  0
 23 18  1  0
 23 15  1  0
 24 13  1  0
 24 25  2  0
 26 24  1  0
 27 26  1  0
 27 32  1  0
 27 28  1  1
 29 28  1  0
 30 29  1  0
 31 30  2  0
 32 33  2  0
 32 35  1  0
 34 30  1  0
M  END
$$$$
