RWE.pdb
     RDKit          3D

 35 36  0  0  1  0  0  0  0  0999 V2000
   30.8024  -24.3114  -17.9221 N   0  0  0  0  0  0  0  0  0  0  0  0
   30.8096  -23.3199  -18.9463 C   0  0  0  0  0  0  0  0  0  0  0  0
   31.2659  -23.6306  -20.0984 N   0  0  0  0  0  0  0  0  0  0  0  0
   30.3221  -22.0113  -18.7031 N   0  0  0  0  0  0  0  0  0  0  0  0
   29.8496  -21.7016  -17.3528 C   0  0  0  0  0  0  0  0  0  0  0  0
   28.3508  -21.8634  -17.3794 C   0  0  0  0  0  0  0  0  0  0  0  0
   27.7092  -21.4753  -16.0715 C   0  0  0  0  0  0  0  0  0  0  0  0
   27.9681  -22.5510  -15.0624 C   0  0  2  0  0  0  0  0  0  0  0  0
   27.6910  -23.8440  -15.6491 N   0  0  0  0  0  0  0  0  0  0  0  0
   27.1374  -22.3438  -13.8235 C   0  0  0  0  0  0  0  0  0  0  0  0
   25.9283  -22.6427  -13.8663 O   0  0  0  0  0  0  0  0  0  0  0  0
   31.3432  -23.0258  -20.9230 N   0  0  0  0  0  0  0  0  0  0  0  0
   27.6975  -21.8304  -12.6503 C   0  0  2  0  0  0  0  0  0  0  0  0
   26.9484  -21.5450  -11.4431 C   0  0  0  0  0  0  0  0  0  0  0  0
   27.9603  -21.2203  -10.3686 C   0  0  0  0  0  0  0  0  0  0  0  0
   27.2526  -20.7667   -9.1646 C   0  0  0  0  0  0  0  0  0  0  0  0
   25.8957  -20.6372   -8.9546 N   0  0  0  0  0  0  0  0  0  0  0  0
   25.6703  -20.1891   -7.7167 C   0  0  0  0  0  0  0  0  0  0  0  0
   26.8535  -20.0178   -7.0987 C   0  0  0  0  0  0  0  0  0  0  0  0
   27.2345  -19.5918   -5.8509 C   0  0  0  0  0  0  0  0  0  0  0  0
   28.5639  -19.5123   -5.4711 C   0  0  0  0  0  0  0  0  0  0  0  0
   29.5617  -19.8647   -6.3504 C   0  0  0  0  0  0  0  0  0  0  0  0
   29.1983  -20.2939   -7.6051 C   0  0  0  0  0  0  0  0  0  0  0  0
   27.8581  -20.3763   -7.9941 C   0  0  0  0  0  0  0  0  0  0  0  0
   25.9784  -20.4235  -11.6585 O   0  0  0  0  0  0  0  0  0  0  0  0
   26.3662  -19.3016  -12.0555 N   0  0  0  0  0  0  0  0  0  0  0  0
   24.5998  -20.5614  -11.4315 C   0  0  1  0  0  0  0  0  0  0  0  0
   23.4762  -20.0297  -12.0469 C   0  0  0  0  0  0  0  0  0  0  0  0
   23.2579  -20.0419  -13.5138 C   0  0  0  0  0  0  0  0  0  0  0  0
   24.1874  -19.1848  -14.3185 C   0  0  0  0  0  0  0  0  0  0  0  0
   23.7720  -19.2542  -15.7694 O   0  0  0  0  0  0  0  0  0  0  0  0
   22.5515  -19.3362  -16.0538 C   0  0  0  0  0  0  0  0  0  0  0  0
   22.2454  -20.3605  -11.3380 O   0  0  0  0  0  0  0  0  0  0  0  0
   21.1670  -19.8108  -11.6447 O   0  0  0  0  0  0  0  0  0  0  0  0
   24.6861  -19.2303  -16.7895 O   0  0  0  0  0  0  0  0  0  0  0  0
  2  1  1  0
  2  3  2  0
  4  2  1  0
  5  6  1  0
  5  4  1  0
  7  6  1  0
  8  7  1  0
  8  9  1  6
 10  8  1  0
 10 12  1  0
 11 10  2  0
 13 12  1  0
 13 14  1  1
 14 15  1  0
 15 16  2  0
 17 16  1  0
 18 17  1  0
 19 18  2  0
 20 19  1  0
 21 22  1  0
 21 20  2  0
 22 23  2  0
 23 18  1  0
 23 15  1  0
 24 13  1  0
 24 25  2  0
 26 24  1  0
 27 26  1  0
 27 32  1  0
 27 28  1  1
 29 28  1  0
 30 29  1  0
 31 30  2  0
 32 33  2  0
 32 35  1  0
 34 30  1  0
M  END
$$$$
