RWE.pdb
     RDKit          3D

 35 36  0  0  1  0  0  0  0  0999 V2000
   25.9027  -24.2275  -18.5486 N   0  0  0  0  0  0  0  0  0  0  0  0
   26.3045  -23.4727  -19.6892 C   0  0  0  0  0  0  0  0  0  0  0  0
   26.4066  -24.0685  -20.8147 N   0  0  0  0  0  0  0  0  0  0  0  0
   26.5874  -22.0874  -19.5889 N   0  0  0  0  0  0  0  0  0  0  0  0
   26.4812  -21.4655  -18.2681 C   0  0  0  0  0  0  0  0  0  0  0  0
   27.4054  -22.2363  -17.3598 C   0  0  0  0  0  0  0  0  0  0  0  0
   26.7987  -22.4853  -16.0024 C   0  0  0  0  0  0  0  0  0  0  0  0
   27.5843  -21.7356  -14.9713 C   0  0  2  0  0  0  0  0  0  0  0  0
   28.9672  -22.1582  -15.0126 N   0  0  0  0  0  0  0  0  0  0  0  0
   27.0092  -21.9427  -13.5949 C   0  0  0  0  0  0  0  0  0  0  0  0
   27.0560  -23.0860  -13.1012 O   0  0  0  0  0  0  0  0  0  0  0  0
   26.6954  -23.6632  -21.7114 N   0  0  0  0  0  0  0  0  0  0  0  0
   26.4357  -20.8871  -12.8804 C   0  0  1  0  0  0  0  0  0  0  0  0
   25.4176  -21.0468  -11.8617 C   0  0  0  0  0  0  0  0  0  0  0  0
   25.7634  -20.0881  -10.7457 C   0  0  0  0  0  0  0  0  0  0  0  0
   27.0550  -20.4750  -10.1640 C   0  0  0  0  0  0  0  0  0  0  0  0
   28.1941  -20.9192  -10.8021 N   0  0  0  0  0  0  0  0  0  0  0  0
   29.1498  -21.1657   -9.9022 C   0  0  0  0  0  0  0  0  0  0  0  0
   28.6670  -20.8933   -8.6758 C   0  0  0  0  0  0  0  0  0  0  0  0
   29.1798  -20.9552   -7.4043 C   0  0  0  0  0  0  0  0  0  0  0  0
   28.4370  -20.6027   -6.2899 C   0  0  0  0  0  0  0  0  0  0  0  0
   27.1375  -20.1718   -6.4269 C   0  0  0  0  0  0  0  0  0  0  0  0
   26.6073  -20.1036   -7.6936 C   0  0  0  0  0  0  0  0  0  0  0  0
   27.3522  -20.4581   -8.8222 C   0  0  0  0  0  0  0  0  0  0  0  0
   24.0494  -20.7923  -12.4169 O   0  0  0  0  0  0  0  0  0  0  0  0
   23.8032  -19.7595  -13.0798 N   0  0  0  0  0  0  0  0  0  0  0  0
   22.9795  -21.6820  -12.2300 C   0  0  1  0  0  0  0  0  0  0  0  0
   21.6399  -21.6479  -12.5880 C   0  0  0  0  0  0  0  0  0  0  0  0
   20.8029  -22.8603  -12.7596 C   0  0  0  0  0  0  0  0  0  0  0  0
   21.1258  -23.7124  -13.9494 C   0  0  0  0  0  0  0  0  0  0  0  0
   20.7603  -22.9499  -15.2015 O   0  0  0  0  0  0  0  0  0  0  0  0
   21.6462  -22.2866  -15.7952 C   0  0  0  0  0  0  0  0  0  0  0  0
   20.9025  -20.6058  -11.8830 O   0  0  0  0  0  0  0  0  0  0  0  0
   21.3965  -20.0410  -10.8849 O   0  0  0  0  0  0  0  0  0  0  0  0
   19.4895  -22.9580  -15.7130 O   0  0  0  0  0  0  0  0  0  0  0  0
  2  1  1  0
  2  3  2  0
  4  2  1  0
  5  6  1  0
  5  4  1  0
  7  6  1  0
  8  7  1  0
  8  9  1  1
 10  8  1  0
 10 12  1  0
 11 10  2  0
 13 12  1  0
 13 14  1  1
 14 15  1  0
 15 16  2  0
 17 16  1  0
 18 17  1  0
 19 18  2  0
 20 19  1  0
 21 22  1  0
 21 20  2  0
 22 23  2  0
 23 18  1  0
 23 15  1  0
 24 13  1  0
 24 25  2  0
 26 24  1  0
 27 26  1  0
 27 32  1  0
 27 28  1  1
 29 28  1  0
 30 29  1  0
 31 30  2  0
 32 33  2  0
 32 35  1  0
 34 30  1  0
M  END
$$$$
