RWE.pdb
     RDKit          3D

 35 36  0  0  1  0  0  0  0  0999 V2000
   27.2722  -16.8090  -17.5679 N   0  0  0  0  0  0  0  0  0  0  0  0
   28.1539  -17.8236  -18.0428 C   0  0  0  0  0  0  0  0  0  0  0  0
   28.9362  -17.5510  -19.0153 N   0  0  0  0  0  0  0  0  0  0  0  0
   28.1714  -19.1133  -17.4552 N   0  0  0  0  0  0  0  0  0  0  0  0
   27.5803  -19.2624  -16.1244 C   0  0  0  0  0  0  0  0  0  0  0  0
   28.6956  -19.7046  -15.2111 C   0  0  0  0  0  0  0  0  0  0  0  0
   28.2459  -20.7493  -14.2216 C   0  0  0  0  0  0  0  0  0  0  0  0
   26.8452  -20.4425  -13.7903 C   0  0  2  0  0  0  0  0  0  0  0  0
   26.6239  -19.0137  -13.8395 N   0  0  0  0  0  0  0  0  0  0  0  0
   26.5757  -20.9716  -12.4062 C   0  0  0  0  0  0  0  0  0  0  0  0
   26.6478  -22.2017  -12.2199 O   0  0  0  0  0  0  0  0  0  0  0  0
   29.6498  -18.1588  -19.4314 N   0  0  0  0  0  0  0  0  0  0  0  0
   26.2525  -20.1144  -11.3506 C   0  0  1  0  0  0  0  0  0  0  0  0
   25.9613  -20.5532  -10.0006 C   0  0  0  0  0  0  0  0  0  0  0  0
   26.5420  -19.5140   -9.0696 C   0  0  0  0  0  0  0  0  0  0  0  0
   27.7156  -20.0795   -8.3918 C   0  0  0  0  0  0  0  0  0  0  0  0
   28.6713  -20.9407   -8.8886 N   0  0  0  0  0  0  0  0  0  0  0  0
   29.5713  -21.2134   -7.9402 C   0  0  0  0  0  0  0  0  0  0  0  0
   29.2316  -20.5487   -6.8204 C   0  0  0  0  0  0  0  0  0  0  0  0
   29.7687  -20.4469   -5.5615 C   0  0  0  0  0  0  0  0  0  0  0  0
   29.1936  -19.6652   -4.5736 C   0  0  0  0  0  0  0  0  0  0  0  0
   28.0441  -18.9536   -4.8296 C   0  0  0  0  0  0  0  0  0  0  0  0
   27.4920  -19.0438   -6.0856 C   0  0  0  0  0  0  0  0  0  0  0  0
   28.0681  -19.8313   -7.0868 C   0  0  0  0  0  0  0  0  0  0  0  0
   24.4880  -20.7319   -9.7938 O   0  0  0  0  0  0  0  0  0  0  0  0
   24.0410  -21.2461   -8.7439 N   0  0  0  0  0  0  0  0  0  0  0  0
   23.5369  -20.3401  -10.7493 C   0  0  1  0  0  0  0  0  0  0  0  0
   22.1500  -20.3361  -10.7653 C   0  0  0  0  0  0  0  0  0  0  0  0
   21.3396  -19.4564  -11.6424 C   0  0  0  0  0  0  0  0  0  0  0  0
   19.8599  -19.4850  -11.4065 C   0  0  0  0  0  0  0  0  0  0  0  0
   19.2189  -18.3963  -12.2351 O   0  0  0  0  0  0  0  0  0  0  0  0
   19.5552  -18.2639  -13.4379 C   0  0  0  0  0  0  0  0  0  0  0  0
   21.5898  -21.6819  -10.7227 O   0  0  0  0  0  0  0  0  0  0  0  0
   22.1795  -22.6344  -11.2741 O   0  0  0  0  0  0  0  0  0  0  0  0
   18.2792  -17.5454  -11.7161 O   0  0  0  0  0  0  0  0  0  0  0  0
  2  1  1  0
  2  3  2  0
  4  2  1  0
  5  6  1  0
  5  4  1  0
  7  6  1  0
  8  7  1  0
  8  9  1  1
 10  8  1  0
 10 12  1  0
 11 10  2  0
 13 12  1  0
 13 14  1  6
 14 15  1  0
 15 16  2  0
 17 16  1  0
 18 17  1  0
 19 18  2  0
 20 19  1  0
 21 22  1  0
 21 20  2  0
 22 23  2  0
 23 18  1  0
 23 15  1  0
 24 13  1  0
 24 25  2  0
 26 24  1  0
 27 26  1  0
 27 32  1  0
 27 28  1  6
 29 28  1  0
 30 29  1  0
 31 30  2  0
 32 33  2  0
 32 35  1  0
 34 30  1  0
M  END
$$$$
