RWE.pdb
     RDKit          3D

 35 36  0  0  1  0  0  0  0  0999 V2000
   27.4232  -25.3297  -16.4302 N   0  0  0  0  0  0  0  0  0  0  0  0
   28.5155  -25.0462  -17.3013 C   0  0  0  0  0  0  0  0  0  0  0  0
   29.2939  -26.0007  -17.6406 N   0  0  0  0  0  0  0  0  0  0  0  0
   28.7433  -23.7346  -17.7884 N   0  0  0  0  0  0  0  0  0  0  0  0
   27.9751  -22.6431  -17.1876 C   0  0  0  0  0  0  0  0  0  0  0  0
   28.8154  -22.1035  -16.0579 C   0  0  0  0  0  0  0  0  0  0  0  0
   28.2130  -22.3931  -14.7066 C   0  0  0  0  0  0  0  0  0  0  0  0
   27.2043  -21.3343  -14.3846 C   0  0  2  0  0  0  0  0  0  0  0  0
   27.8433  -20.0364  -14.3919 N   0  0  0  0  0  0  0  0  0  0  0  0
   26.5513  -21.5944  -13.0526 C   0  0  0  0  0  0  0  0  0  0  0  0
   26.0013  -22.6977  -12.8700 O   0  0  0  0  0  0  0  0  0  0  0  0
   30.0929  -25.9564  -18.2820 N   0  0  0  0  0  0  0  0  0  0  0  0
   26.5562  -20.6308  -12.0402 C   0  0  1  0  0  0  0  0  0  0  0  0
   25.8938  -20.7853  -10.7607 C   0  0  0  0  0  0  0  0  0  0  0  0
   26.6396  -19.9152   -9.7756 C   0  0  0  0  0  0  0  0  0  0  0  0
   26.2035  -20.2498   -8.4140 C   0  0  0  0  0  0  0  0  0  0  0  0
   25.0200  -20.8242   -8.0001 N   0  0  0  0  0  0  0  0  0  0  0  0
   25.0216  -20.9561   -6.6710 C   0  0  0  0  0  0  0  0  0  0  0  0
   26.1857  -20.4796   -6.1925 C   0  0  0  0  0  0  0  0  0  0  0  0
   26.7337  -20.3588   -4.9401 C   0  0  0  0  0  0  0  0  0  0  0  0
   27.9903  -19.8149   -4.7325 C   0  0  0  0  0  0  0  0  0  0  0  0
   28.7413  -19.3707   -5.7964 C   0  0  0  0  0  0  0  0  0  0  0  0
   28.2078  -19.4838   -7.0585 C   0  0  0  0  0  0  0  0  0  0  0  0
   26.9400  -20.0320   -7.2742 C   0  0  0  0  0  0  0  0  0  0  0  0
   24.4445  -20.4156  -10.8516 O   0  0  0  0  0  0  0  0  0  0  0  0
   24.0847  -19.2174  -10.8859 N   0  0  0  0  0  0  0  0  0  0  0  0
   23.4207  -21.3750  -10.9025 C   0  0  1  0  0  0  0  0  0  0  0  0
   22.0364  -21.2916  -10.8781 C   0  0  0  0  0  0  0  0  0  0  0  0
   21.1487  -22.4351  -10.5556 C   0  0  0  0  0  0  0  0  0  0  0  0
   19.6783  -22.1464  -10.5805 C   0  0  0  0  0  0  0  0  0  0  0  0
   19.1940  -22.2356  -12.0088 O   0  0  0  0  0  0  0  0  0  0  0  0
   19.7717  -23.0180  -12.8036 C   0  0  0  0  0  0  0  0  0  0  0  0
   21.5644  -20.0721  -10.2324 O   0  0  0  0  0  0  0  0  0  0  0  0
   20.6109  -19.4254  -10.7137 O   0  0  0  0  0  0  0  0  0  0  0  0
   18.1413  -21.4888  -12.4678 O   0  0  0  0  0  0  0  0  0  0  0  0
  2  1  1  0
  2  3  2  0
  4  2  1  0
  5  6  1  0
  5  4  1  0
  7  6  1  0
  8  7  1  0
  8  9  1  1
 10  8  1  0
 10 12  1  0
 11 10  2  0
 13 12  1  0
 13 14  1  1
 14 15  1  0
 15 16  2  0
 17 16  1  0
 18 17  1  0
 19 18  2  0
 20 19  1  0
 21 22  1  0
 21 20  2  0
 22 23  2  0
 23 18  1  0
 23 15  1  0
 24 13  1  0
 24 25  2  0
 26 24  1  0
 27 26  1  0
 27 32  1  0
 27 28  1  1
 29 28  1  0
 30 29  1  0
 31 30  2  0
 32 33  2  0
 32 35  1  0
 34 30  1  0
M  END
$$$$
