RWE.pdb
     RDKit          3D

 35 36  0  0  1  0  0  0  0  0999 V2000
   27.1819  -28.1181  -18.4368 N   0  0  0  0  0  0  0  0  0  0  0  0
   28.0008  -27.0135  -18.8131 C   0  0  0  0  0  0  0  0  0  0  0  0
   28.4576  -26.9661  -20.0052 N   0  0  0  0  0  0  0  0  0  0  0  0
   28.3085  -25.9816  -17.8913 N   0  0  0  0  0  0  0  0  0  0  0  0
   27.3677  -25.7462  -16.7949 C   0  0  0  0  0  0  0  0  0  0  0  0
   26.0526  -25.3794  -17.4348 C   0  0  0  0  0  0  0  0  0  0  0  0
   25.2332  -24.4547  -16.5710 C   0  0  0  0  0  0  0  0  0  0  0  0
   26.1546  -23.5473  -15.8160 C   0  0  2  0  0  0  0  0  0  0  0  0
   27.3039  -24.2959  -15.3558 N   0  0  0  0  0  0  0  0  0  0  0  0
   25.4469  -22.8990  -14.6554 C   0  0  0  0  0  0  0  0  0  0  0  0
   24.7204  -23.6104  -13.9348 O   0  0  0  0  0  0  0  0  0  0  0  0
   29.1153  -26.2824  -20.3947 N   0  0  0  0  0  0  0  0  0  0  0  0
   25.5939  -21.5358  -14.3841 C   0  0  1  0  0  0  0  0  0  0  0  0
   24.8574  -20.8215  -13.3607 C   0  0  0  0  0  0  0  0  0  0  0  0
   25.7285  -19.6670  -12.9224 C   0  0  0  0  0  0  0  0  0  0  0  0
   26.8397  -20.1845  -12.1138 C   0  0  0  0  0  0  0  0  0  0  0  0
   28.0635  -20.6649  -12.5301 N   0  0  0  0  0  0  0  0  0  0  0  0
   28.7861  -21.0403  -11.4714 C   0  0  0  0  0  0  0  0  0  0  0  0
   28.0648  -20.8181  -10.3572 C   0  0  0  0  0  0  0  0  0  0  0  0
   28.2854  -21.0033   -9.0153 C   0  0  0  0  0  0  0  0  0  0  0  0
   27.3394  -20.6752   -8.0587 C   0  0  0  0  0  0  0  0  0  0  0  0
   26.1265  -20.1436   -8.4321 C   0  0  0  0  0  0  0  0  0  0  0  0
   25.8882  -19.9512   -9.7725 C   0  0  0  0  0  0  0  0  0  0  0  0
   26.8394  -20.2805  -10.7427 C   0  0  0  0  0  0  0  0  0  0  0  0
   23.5272  -20.3589  -13.8722 O   0  0  0  0  0  0  0  0  0  0  0  0
   23.3035  -20.2684  -15.1003 N   0  0  0  0  0  0  0  0  0  0  0  0
   22.4700  -20.0049  -13.0189 C   0  0  2  0  0  0  0  0  0  0  0  0
   21.1008  -20.2231  -13.0591 C   0  0  0  0  0  0  0  0  0  0  0  0
   20.4041  -20.8732  -14.1956 C   0  0  0  0  0  0  0  0  0  0  0  0
   21.0759  -20.7487  -15.5295 C   0  0  0  0  0  0  0  0  0  0  0  0
   20.0442  -20.3317  -16.5514 O   0  0  0  0  0  0  0  0  0  0  0  0
   18.8553  -20.1579  -16.1856 C   0  0  0  0  0  0  0  0  0  0  0  0
   20.5776  -20.7068  -11.7866 O   0  0  0  0  0  0  0  0  0  0  0  0
   20.5576  -21.9286  -11.5300 O   0  0  0  0  0  0  0  0  0  0  0  0
   20.3635  -20.1358  -17.8690 O   0  0  0  0  0  0  0  0  0  0  0  0
  2  1  1  0
  2  3  2  0
  4  2  1  0
  5  6  1  0
  5  4  1  0
  7  6  1  0
  8  7  1  0
  8  9  1  1
 10  8  1  0
 10 12  1  0
 11 10  2  0
 13 12  1  0
 13 14  1  1
 14 15  1  0
 15 16  2  0
 17 16  1  0
 18 17  1  0
 19 18  2  0
 20 19  1  0
 21 22  1  0
 21 20  2  0
 22 23  2  0
 23 18  1  0
 23 15  1  0
 24 13  1  0
 24 25  2  0
 26 24  1  0
 27 26  1  0
 27 32  1  0
 27 28  1  6
 29 28  1  0
 30 29  1  0
 31 30  2  0
 32 33  2  0
 32 35  1  0
 34 30  1  0
M  END
$$$$
