QIH.pdb
     RDKit          3D

 28 28  0  0  1  0  0  0  0  0999 V2000
    6.2087  -20.7526   18.0836 N   0  0  0  0  0  0  0  0  0  0  0  0
    6.5535  -20.1607   16.8446 C   0  0  0  0  0  0  0  0  0  0  0  0
    5.6536  -19.8181   16.0592 O   0  0  0  0  0  0  0  0  0  0  0  0
    7.9677  -19.9591   16.5074 C   0  0  0  0  0  0  0  0  0  0  0  0
    8.6463  -19.1203   17.5318 C   0  0  0  0  0  0  0  0  0  0  0  0
    9.0844  -17.7691   17.0884 C   0  0  2  0  0  0  0  0  0  0  0  0
   10.1874  -17.8144   16.1437 N   0  0  0  0  0  0  0  0  0  0  0  0
    9.4545  -16.9975   18.3020 C   0  0  0  0  0  0  0  0  0  0  0  0
   10.6477  -17.0590   18.6853 O   0  0  0  0  0  0  0  0  0  0  0  0
    7.0969  -12.2594   20.1408 C   0  0  0  0  0  0  0  0  0  0  0  0
    8.0665  -13.3181   19.6450 C   0  0  0  0  0  0  0  0  0  0  0  0
    8.1029  -14.4079   20.6700 C   0  0  2  0  0  0  0  0  0  0  0  0
    8.6685  -13.8411   21.9520 C   0  0  0  0  0  0  0  0  0  0  0  0
    8.9644  -15.5768   20.2746 C   0  0  2  0  0  0  0  0  0  0  0  0
    8.5568  -16.1990   19.0550 N   0  0  0  0  0  0  0  0  0  0  0  0
    9.0607  -16.5790   21.3965 C   0  0  0  0  0  0  0  0  0  0  0  0
    8.4295  -17.6653   21.3382 O   0  0  0  0  0  0  0  0  0  0  0  0
    9.8596  -16.3227   22.5365 N   0  0  0  0  0  0  0  0  0  0  0  0
   10.8448  -17.2705   23.0179 C   0  0  1  0  0  0  0  0  0  0  0  0
   11.8764  -17.5929   21.9926 C   0  0  0  0  0  0  0  0  0  0  0  0
   11.6071  -18.8963   21.3573 C   0  0  0  0  0  0  0  0  0  0  0  0
   10.6455  -19.8289   21.5829 C   0  0  0  0  0  0  0  0  0  0  0  0
   10.7959  -20.8901   20.7687 N   0  0  0  0  0  0  0  0  0  0  0  0
   11.8704  -20.6278   20.0142 C   0  0  0  0  0  0  0  0  0  0  0  0
   12.3779  -19.4158   20.3596 N   0  0  0  0  0  0  0  0  0  0  0  0
   11.4492  -16.6806   24.2322 C   0  0  0  0  0  0  0  0  0  0  0  0
   11.7469  -17.4627   25.3680 O   0  0  0  0  0  0  0  0  0  0  0  0
   11.7437  -15.4616   24.3572 O   0  0  0  0  0  0  0  0  0  0  0  0
  1  2  1  0
  2  3  2  0
  4  5  1  0
  4  2  1  0
  6  5  1  0
  6  7  1  6
  8  6  1  0
  9  8  2  0
 10 11  1  0
 11 12  1  0
 12 13  1  1
 12 14  1  0
 14 15  1  6
 15  8  1  0
 16 14  1  0
 16 18  1  0
 17 16  2  0
 18 19  1  0
 19 26  1  0
 19 20  1  6
 20 21  1  0
 21 25  1  0
 21 22  2  0
 22 23  1  0
 24 23  1  0
 25 24  2  0
 26 28  2  0
 26 27  1  0
M  END
$$$$
