QIH.pdb
     RDKit          3D

 28 28  0  0  1  0  0  0  0  0999 V2000
   11.4186  -21.2970   18.3883 N   0  0  0  0  0  0  0  0  0  0  0  0
   10.5622  -21.4718   17.2745 C   0  0  0  0  0  0  0  0  0  0  0  0
   10.6998  -22.4707   16.5483 O   0  0  0  0  0  0  0  0  0  0  0  0
    9.5243  -20.4722   16.9956 C   0  0  0  0  0  0  0  0  0  0  0  0
    9.5321  -19.3944   18.0212 C   0  0  0  0  0  0  0  0  0  0  0  0
    9.5533  -17.9985   17.5061 C   0  0  2  0  0  0  0  0  0  0  0  0
   10.5520  -17.7932   16.4710 N   0  0  0  0  0  0  0  0  0  0  0  0
    9.7924  -17.0980   18.6624 C   0  0  0  0  0  0  0  0  0  0  0  0
   10.9739  -16.9771   19.0672 O   0  0  0  0  0  0  0  0  0  0  0  0
    6.7765  -12.5824   19.9635 C   0  0  0  0  0  0  0  0  0  0  0  0
    7.9198  -13.5182   19.6113 C   0  0  0  0  0  0  0  0  0  0  0  0
    8.0729  -14.4849   20.7434 C   0  0  2  0  0  0  0  0  0  0  0  0
    8.5298  -13.7223   21.9659 C   0  0  0  0  0  0  0  0  0  0  0  0
    9.0879  -15.5642   20.4793 C   0  0  2  0  0  0  0  0  0  0  0  0
    8.7822  -16.3678   19.3385 N   0  0  0  0  0  0  0  0  0  0  0  0
    9.3034  -16.4129   21.7065 C   0  0  0  0  0  0  0  0  0  0  0  0
    8.7661  -17.5461   21.8016 O   0  0  0  0  0  0  0  0  0  0  0  0
   10.1115  -15.9570   22.7755 N   0  0  0  0  0  0  0  0  0  0  0  0
   10.7100  -16.8656   23.7330 C   0  0  1  0  0  0  0  0  0  0  0  0
   11.6054  -17.8668   23.0885 C   0  0  0  0  0  0  0  0  0  0  0  0
   10.8670  -19.0942   22.7376 C   0  0  0  0  0  0  0  0  0  0  0  0
   10.3733  -19.5434   21.5545 C   0  0  0  0  0  0  0  0  0  0  0  0
    9.7438  -20.7234   21.7063 N   0  0  0  0  0  0  0  0  0  0  0  0
    9.8387  -21.0285   23.0065 C   0  0  0  0  0  0  0  0  0  0  0  0
   10.5206  -20.0458   23.6507 N   0  0  0  0  0  0  0  0  0  0  0  0
   11.4397  -16.0339   24.7145 C   0  0  0  0  0  0  0  0  0  0  0  0
   11.4933  -14.6285   24.6021 O   0  0  0  0  0  0  0  0  0  0  0  0
   12.0610  -16.4929   25.7102 O   0  0  0  0  0  0  0  0  0  0  0  0
  1  2  1  0
  2  3  2  0
  4  5  1  0
  4  2  1  0
  6  5  1  0
  6  7  1  6
  8  6  1  0
  9  8  2  0
 10 11  1  0
 11 12  1  0
 12 13  1  1
 12 14  1  0
 14 15  1  6
 15  8  1  0
 16 14  1  0
 16 18  1  0
 17 16  2  0
 18 19  1  0
 19 26  1  0
 19 20  1  6
 20 21  1  0
 21 25  1  0
 21 22  2  0
 22 23  1  0
 24 23  1  0
 25 24  2  0
 26 28  2  0
 26 27  1  0
M  END
$$$$
