QIH.pdb
     RDKit          3D

 28 28  0  0  1  0  0  0  0  0999 V2000
    5.5858  -19.0217   21.5746 N   0  0  0  0  0  0  0  0  0  0  0  0
    6.7947  -18.8730   20.8529 C   0  0  0  0  0  0  0  0  0  0  0  0
    7.2787  -19.8533   20.2623 O   0  0  0  0  0  0  0  0  0  0  0  0
    7.4567  -17.5637   20.8117 C   0  0  0  0  0  0  0  0  0  0  0  0
    6.6634  -16.5412   21.5458 C   0  0  0  0  0  0  0  0  0  0  0  0
    7.1829  -15.1477   21.4964 C   0  0  2  0  0  0  0  0  0  0  0  0
    8.0531  -14.9090   20.3576 N   0  0  0  0  0  0  0  0  0  0  0  0
    7.8951  -14.8897   22.7737 C   0  0  0  0  0  0  0  0  0  0  0  0
    9.1450  -14.9990   22.7717 O   0  0  0  0  0  0  0  0  0  0  0  0
    5.8747  -11.5124   26.6845 C   0  0  0  0  0  0  0  0  0  0  0  0
    6.7738  -12.1319   25.6286 C   0  0  0  0  0  0  0  0  0  0  0  0
    7.2904  -13.4232   26.1812 C   0  0  2  0  0  0  0  0  0  0  0  0
    8.2577  -13.1124   27.3004 C   0  0  0  0  0  0  0  0  0  0  0  0
    8.0253  -14.2594   25.1686 C   0  0  2  0  0  0  0  0  0  0  0  0
    7.2632  -14.5296   23.9910 N   0  0  0  0  0  0  0  0  0  0  0  0
    8.5408  -15.5313   25.7924 C   0  0  0  0  0  0  0  0  0  0  0  0
    7.7410  -16.4061   26.2128 O   0  0  0  0  0  0  0  0  0  0  0  0
    9.9302  -15.7700   25.9194 N   0  0  0  0  0  0  0  0  0  0  0  0
   10.4539  -16.9618   26.5568 C   0  0  1  0  0  0  0  0  0  0  0  0
   11.8382  -17.2864   26.1123 C   0  0  0  0  0  0  0  0  0  0  0  0
   11.8840  -17.5507   24.6621 C   0  0  0  0  0  0  0  0  0  0  0  0
   10.9012  -17.6325   23.7281 C   0  0  0  0  0  0  0  0  0  0  0  0
   11.4065  -17.9154   22.5130 N   0  0  0  0  0  0  0  0  0  0  0  0
   12.7315  -18.0154   22.6779 C   0  0  0  0  0  0  0  0  0  0  0  0
   13.0405  -17.7960   23.9825 N   0  0  0  0  0  0  0  0  0  0  0  0
   10.3904  -16.7300   28.0162 C   0  0  0  0  0  0  0  0  0  0  0  0
   10.6677  -17.7566   28.9435 O   0  0  0  0  0  0  0  0  0  0  0  0
   10.0916  -15.6266   28.5467 O   0  0  0  0  0  0  0  0  0  0  0  0
  1  2  1  0
  2  3  2  0
  4  5  1  0
  4  2  1  0
  6  5  1  0
  6  7  1  6
  8  6  1  0
  9  8  2  0
 10 11  1  0
 11 12  1  0
 12 13  1  1
 12 14  1  0
 14 15  1  6
 15  8  1  0
 16 14  1  0
 16 18  1  0
 17 16  2  0
 18 19  1  0
 19 26  1  0
 19 20  1  6
 20 21  1  0
 21 25  1  0
 21 22  2  0
 22 23  1  0
 24 23  1  0
 25 24  2  0
 26 28  2  0
 26 27  1  0
M  END
$$$$
