QIH.pdb
     RDKit          3D

 28 28  0  0  1  0  0  0  0  0999 V2000
   14.5678  -19.2351   17.0871 N   0  0  0  0  0  0  0  0  0  0  0  0
   13.4722  -18.8191   16.2927 C   0  0  0  0  0  0  0  0  0  0  0  0
   12.7206  -19.6728   15.7925 O   0  0  0  0  0  0  0  0  0  0  0  0
   13.2398  -17.3865   16.0735 C   0  0  0  0  0  0  0  0  0  0  0  0
   12.9044  -16.6989   17.3495 C   0  0  0  0  0  0  0  0  0  0  0  0
   12.5662  -15.2534   17.2469 C   0  0  2  0  0  0  0  0  0  0  0  0
   13.7109  -14.4284   16.9004 N   0  0  0  0  0  0  0  0  0  0  0  0
   11.9837  -14.8362   18.5476 C   0  0  0  0  0  0  0  0  0  0  0  0
   12.7783  -14.4665   19.4455 O   0  0  0  0  0  0  0  0  0  0  0  0
    7.0222  -12.5229   18.9950 C   0  0  0  0  0  0  0  0  0  0  0  0
    8.5159  -12.7071   19.1997 C   0  0  0  0  0  0  0  0  0  0  0  0
    8.7030  -13.8924   20.0940 C   0  0  2  0  0  0  0  0  0  0  0  0
    8.3382  -13.4904   21.5047 C   0  0  0  0  0  0  0  0  0  0  0  0
   10.1170  -14.4068   20.1226 C   0  0  2  0  0  0  0  0  0  0  0  0
   10.5972  -14.8267   18.8445 N   0  0  0  0  0  0  0  0  0  0  0  0
   10.2731  -15.4965   21.1525 C   0  0  0  0  0  0  0  0  0  0  0  0
    9.7433  -16.6233   20.9752 O   0  0  0  0  0  0  0  0  0  0  0  0
   11.0159  -15.2786   22.3376 N   0  0  0  0  0  0  0  0  0  0  0  0
   11.2648  -16.3352   23.2980 C   0  0  1  0  0  0  0  0  0  0  0  0
   12.5224  -16.1230   24.0680 C   0  0  0  0  0  0  0  0  0  0  0  0
   13.7086  -16.2919   23.2083 C   0  0  0  0  0  0  0  0  0  0  0  0
   13.8316  -16.5715   21.8847 C   0  0  0  0  0  0  0  0  0  0  0  0
   15.1253  -16.6542   21.5227 N   0  0  0  0  0  0  0  0  0  0  0  0
   15.8356  -16.4239   22.6341 C   0  0  0  0  0  0  0  0  0  0  0  0
   14.9877  -16.2010   23.6719 N   0  0  0  0  0  0  0  0  0  0  0  0
   10.0844  -16.3925   24.1874 C   0  0  0  0  0  0  0  0  0  0  0  0
    9.9103  -17.4335   25.1237 O   0  0  0  0  0  0  0  0  0  0  0  0
    9.1552  -15.5411   24.1883 O   0  0  0  0  0  0  0  0  0  0  0  0
  1  2  1  0
  2  3  2  0
  4  5  1  0
  4  2  1  0
  6  5  1  0
  6  7  1  1
  8  6  1  0
  9  8  2  0
 10 11  1  0
 11 12  1  0
 12 13  1  1
 12 14  1  0
 14 15  1  6
 15  8  1  0
 16 14  1  0
 16 18  1  0
 17 16  2  0
 18 19  1  0
 19 26  1  0
 19 20  1  1
 20 21  1  0
 21 25  1  0
 21 22  2  0
 22 23  1  0
 24 23  1  0
 25 24  2  0
 26 28  2  0
 26 27  1  0
M  END
$$$$
