QIH.pdb
     RDKit          3D

 28 28  0  0  1  0  0  0  0  0999 V2000
    9.9385  -18.6868   20.0291 N   0  0  0  0  0  0  0  0  0  0  0  0
    8.6820  -18.8262   19.3918 C   0  0  0  0  0  0  0  0  0  0  0  0
    8.5604  -19.6255   18.4482 O   0  0  0  0  0  0  0  0  0  0  0  0
    7.5423  -18.0264   19.8560 C   0  0  0  0  0  0  0  0  0  0  0  0
    7.8557  -17.3466   21.1418 C   0  0  0  0  0  0  0  0  0  0  0  0
    8.1541  -15.8912   21.0590 C   0  0  2  0  0  0  0  0  0  0  0  0
    9.1317  -15.5723   20.0325 N   0  0  0  0  0  0  0  0  0  0  0  0
    8.6258  -15.4538   22.3974 C   0  0  0  0  0  0  0  0  0  0  0  0
    9.8453  -15.5960   22.6562 O   0  0  0  0  0  0  0  0  0  0  0  0
    7.2131  -11.7811   27.1215 C   0  0  0  0  0  0  0  0  0  0  0  0
    8.1299  -12.8656   26.5828 C   0  0  0  0  0  0  0  0  0  0  0  0
    7.5459  -13.3457   25.2913 C   0  0  2  0  0  0  0  0  0  0  0  0
    6.1585  -13.8807   25.5625 C   0  0  0  0  0  0  0  0  0  0  0  0
    8.3381  -14.4514   24.6474 C   0  0  2  0  0  0  0  0  0  0  0  0
    7.7971  -14.8887   23.3997 N   0  0  0  0  0  0  0  0  0  0  0  0
    8.5245  -15.6054   25.5992 C   0  0  0  0  0  0  0  0  0  0  0  0
    7.5338  -16.2668   26.0027 O   0  0  0  0  0  0  0  0  0  0  0  0
    9.8125  -15.9703   26.0593 N   0  0  0  0  0  0  0  0  0  0  0  0
   10.0253  -17.0974   26.9454 C   0  0  1  0  0  0  0  0  0  0  0  0
   11.1806  -17.9411   26.5297 C   0  0  0  0  0  0  0  0  0  0  0  0
   10.9099  -18.6221   25.2499 C   0  0  0  0  0  0  0  0  0  0  0  0
    9.7463  -18.9562   24.6337 C   0  0  0  0  0  0  0  0  0  0  0  0
    9.9767  -19.5948   23.4715 N   0  0  0  0  0  0  0  0  0  0  0  0
   11.3079  -19.6679   23.3474 C   0  0  0  0  0  0  0  0  0  0  0  0
   11.8930  -19.0797   24.4232 N   0  0  0  0  0  0  0  0  0  0  0  0
   10.2155  -16.5442   28.3039 C   0  0  0  0  0  0  0  0  0  0  0  0
   10.2676  -15.1539   28.5386 O   0  0  0  0  0  0  0  0  0  0  0  0
   10.3442  -17.2450   29.3433 O   0  0  0  0  0  0  0  0  0  0  0  0
  1  2  1  0
  2  3  2  0
  4  5  1  0
  4  2  1  0
  6  5  1  0
  6  7  1  6
  8  6  1  0
  9  8  2  0
 10 11  1  0
 11 12  1  0
 12 13  1  1
 12 14  1  0
 14 15  1  6
 15  8  1  0
 16 14  1  0
 16 18  1  0
 17 16  2  0
 18 19  1  0
 19 26  1  0
 19 20  1  6
 20 21  1  0
 21 25  1  0
 21 22  2  0
 22 23  1  0
 24 23  1  0
 25 24  2  0
 26 28  2  0
 26 27  1  0
M  END
$$$$
