QIH.pdb
     RDKit          3D

 28 28  0  0  1  0  0  0  0  0999 V2000
    8.2921  -17.4914   17.9959 N   0  0  0  0  0  0  0  0  0  0  0  0
    8.1853  -18.1023   19.2686 C   0  0  0  0  0  0  0  0  0  0  0  0
    8.9659  -19.0195   19.5740 O   0  0  0  0  0  0  0  0  0  0  0  0
    7.1558  -17.6421   20.2082 C   0  0  0  0  0  0  0  0  0  0  0  0
    7.7697  -17.1183   21.4581 C   0  0  0  0  0  0  0  0  0  0  0  0
    7.8952  -15.6389   21.5577 C   0  0  2  0  0  0  0  0  0  0  0  0
    8.7252  -15.0704   20.5094 N   0  0  0  0  0  0  0  0  0  0  0  0
    8.4454  -15.3255   22.9009 C   0  0  0  0  0  0  0  0  0  0  0  0
    9.6924  -15.3546   23.0367 O   0  0  0  0  0  0  0  0  0  0  0  0
    5.9872  -11.9663   26.5138 C   0  0  0  0  0  0  0  0  0  0  0  0
    7.0503  -12.5823   25.6209 C   0  0  0  0  0  0  0  0  0  0  0  0
    7.4300  -13.9002   26.2196 C   0  0  2  0  0  0  0  0  0  0  0  0
    8.2393  -13.6429   27.4700 C   0  0  0  0  0  0  0  0  0  0  0  0
    8.2676  -14.7559   25.3079 C   0  0  2  0  0  0  0  0  0  0  0  0
    7.6625  -14.9968   24.0366 N   0  0  0  0  0  0  0  0  0  0  0  0
    8.6544  -16.0461   25.9849 C   0  0  0  0  0  0  0  0  0  0  0  0
    7.7716  -16.8563   26.3669 O   0  0  0  0  0  0  0  0  0  0  0  0
   10.0134  -16.3747   26.2056 N   0  0  0  0  0  0  0  0  0  0  0  0
   10.4121  -17.5624   26.9345 C   0  0  1  0  0  0  0  0  0  0  0  0
   11.6061  -18.2247   26.3388 C   0  0  0  0  0  0  0  0  0  0  0  0
   11.3778  -18.5595   24.9208 C   0  0  0  0  0  0  0  0  0  0  0  0
   11.6610  -17.8837   23.7769 C   0  0  0  0  0  0  0  0  0  0  0  0
   11.2519  -18.5686   22.6928 N   0  0  0  0  0  0  0  0  0  0  0  0
   10.6996  -19.6973   23.1553 C   0  0  0  0  0  0  0  0  0  0  0  0
   10.7676  -19.7084   24.5121 N   0  0  0  0  0  0  0  0  0  0  0  0
   10.6610  -17.1443   28.3313 C   0  0  0  0  0  0  0  0  0  0  0  0
   10.5715  -15.7936   28.7289 O   0  0  0  0  0  0  0  0  0  0  0  0
   10.9665  -17.9345   29.2643 O   0  0  0  0  0  0  0  0  0  0  0  0
  1  2  1  0
  2  3  2  0
  4  5  1  0
  4  2  1  0
  6  5  1  0
  6  7  1  6
  8  6  1  0
  9  8  2  0
 10 11  1  0
 11 12  1  0
 12 13  1  1
 12 14  1  0
 14 15  1  6
 15  8  1  0
 16 14  1  0
 16 18  1  0
 17 16  2  0
 18 19  1  0
 19 26  1  0
 19 20  1  6
 20 21  1  0
 21 25  1  0
 21 22  2  0
 22 23  1  0
 24 23  1  0
 25 24  2  0
 26 28  2  0
 26 27  1  0
M  END
$$$$
