QIH.pdb
     RDKit          3D

 28 28  0  0  1  0  0  0  0  0999 V2000
    7.1016  -22.2306   18.7504 N   0  0  0  0  0  0  0  0  0  0  0  0
    6.5515  -21.0327   18.2339 C   0  0  0  0  0  0  0  0  0  0  0  0
    5.4784  -20.6053   18.6920 O   0  0  0  0  0  0  0  0  0  0  0  0
    7.2574  -20.3131   17.1669 C   0  0  0  0  0  0  0  0  0  0  0  0
    8.3468  -19.4668   17.7242 C   0  0  0  0  0  0  0  0  0  0  0  0
    8.5289  -18.1317   17.0928 C   0  0  2  0  0  0  0  0  0  0  0  0
    9.4850  -18.1498   15.9989 N   0  0  0  0  0  0  0  0  0  0  0  0
    8.9552  -17.1875   18.1566 C   0  0  0  0  0  0  0  0  0  0  0  0
   10.1769  -17.1478   18.4397 O   0  0  0  0  0  0  0  0  0  0  0  0
    7.7568  -11.8302   20.7328 C   0  0  0  0  0  0  0  0  0  0  0  0
    8.5347  -13.1305   20.8364 C   0  0  0  0  0  0  0  0  0  0  0  0
    7.9011  -14.1081   19.8970 C   0  0  2  0  0  0  0  0  0  0  0  0
    6.4654  -14.3178   20.3205 C   0  0  0  0  0  0  0  0  0  0  0  0
    8.5709  -15.4557   19.8896 C   0  0  2  0  0  0  0  0  0  0  0  0
    8.0809  -16.3307   18.8723 N   0  0  0  0  0  0  0  0  0  0  0  0
    8.4981  -16.1010   21.2501 C   0  0  0  0  0  0  0  0  0  0  0  0
    7.5385  -16.8577   21.5473 O   0  0  0  0  0  0  0  0  0  0  0  0
    9.5028  -15.8717   22.2204 N   0  0  0  0  0  0  0  0  0  0  0  0
   10.2461  -16.9548   22.8331 C   0  0  1  0  0  0  0  0  0  0  0  0
   10.9074  -17.8340   21.8286 C   0  0  0  0  0  0  0  0  0  0  0  0
   11.6165  -18.9499   22.4818 C   0  0  0  0  0  0  0  0  0  0  0  0
   11.3631  -19.6324   23.6287 C   0  0  0  0  0  0  0  0  0  0  0  0
   12.2989  -20.5737   23.8520 N   0  0  0  0  0  0  0  0  0  0  0  0
   13.1609  -20.4876   22.8309 C   0  0  0  0  0  0  0  0  0  0  0  0
   12.7602  -19.5024   21.9857 N   0  0  0  0  0  0  0  0  0  0  0  0
   11.2302  -16.3355   23.7472 C   0  0  0  0  0  0  0  0  0  0  0  0
   12.0228  -15.2376   23.3510 O   0  0  0  0  0  0  0  0  0  0  0  0
   11.4427  -16.7220   24.9277 O   0  0  0  0  0  0  0  0  0  0  0  0
  1  2  1  0
  2  3  2  0
  4  5  1  0
  4  2  1  0
  6  5  1  0
  6  7  1  6
  8  6  1  0
  9  8  2  0
 10 11  1  0
 11 12  1  0
 12 13  1  1
 12 14  1  0
 14 15  1  6
 15  8  1  0
 16 14  1  0
 16 18  1  0
 17 16  2  0
 18 19  1  0
 19 26  1  0
 19 20  1  6
 20 21  1  0
 21 25  1  0
 21 22  2  0
 22 23  1  0
 24 23  1  0
 25 24  2  0
 26 28  2  0
 26 27  1  0
M  END
$$$$
