QIH.pdb
     RDKit          3D

 28 28  0  0  1  0  0  0  0  0999 V2000
    8.9561  -14.0292   13.0387 N   0  0  0  0  0  0  0  0  0  0  0  0
    9.6345  -15.2191   12.6805 C   0  0  0  0  0  0  0  0  0  0  0  0
   10.1062  -15.3332   11.5366 O   0  0  0  0  0  0  0  0  0  0  0  0
    9.7719  -16.2985   13.6655 C   0  0  0  0  0  0  0  0  0  0  0  0
    9.1000  -15.9427   14.9444 C   0  0  0  0  0  0  0  0  0  0  0  0
    9.2061  -16.9421   16.0417 C   0  0  2  0  0  0  0  0  0  0  0  0
    8.0283  -17.7856   16.1537 N   0  0  0  0  0  0  0  0  0  0  0  0
    9.4495  -16.1978   17.3035 C   0  0  0  0  0  0  0  0  0  0  0  0
   10.6167  -15.7914   17.5196 O   0  0  0  0  0  0  0  0  0  0  0  0
    6.6212  -12.2562   19.5806 C   0  0  0  0  0  0  0  0  0  0  0  0
    7.6996  -13.1790   19.0399 C   0  0  0  0  0  0  0  0  0  0  0  0
    7.8694  -14.2944   20.0231 C   0  0  2  0  0  0  0  0  0  0  0  0
    8.4405  -13.7236   21.3010 C   0  0  0  0  0  0  0  0  0  0  0  0
    8.8069  -15.3735   19.5523 C   0  0  2  0  0  0  0  0  0  0  0  0
    8.4583  -15.9154   18.2774 N   0  0  0  0  0  0  0  0  0  0  0  0
    8.9449  -16.4578   20.5904 C   0  0  0  0  0  0  0  0  0  0  0  0
    8.3532  -17.5583   20.4468 O   0  0  0  0  0  0  0  0  0  0  0  0
    9.7396  -16.2643   21.7456 N   0  0  0  0  0  0  0  0  0  0  0  0
   10.8610  -17.1255   22.0645 C   0  0  1  0  0  0  0  0  0  0  0  0
   11.9104  -17.1126   21.0072 C   0  0  0  0  0  0  0  0  0  0  0  0
   13.0269  -18.0117   21.3535 C   0  0  0  0  0  0  0  0  0  0  0  0
   13.6478  -18.2662   22.5346 C   0  0  0  0  0  0  0  0  0  0  0  0
   14.6447  -19.1571   22.3786 N   0  0  0  0  0  0  0  0  0  0  0  0
   14.6575  -19.4734   21.0776 C   0  0  0  0  0  0  0  0  0  0  0  0
   13.6775  -18.7840   20.4372 N   0  0  0  0  0  0  0  0  0  0  0  0
   11.3940  -16.6701   23.3669 C   0  0  0  0  0  0  0  0  0  0  0  0
   11.2558  -15.3341   23.7992 O   0  0  0  0  0  0  0  0  0  0  0  0
   12.0017  -17.4131   24.1834 O   0  0  0  0  0  0  0  0  0  0  0  0
  1  2  1  0
  2  3  2  0
  4  5  1  0
  4  2  1  0
  6  5  1  0
  6  7  1  1
  8  6  1  0
  9  8  2  0
 10 11  1  0
 11 12  1  0
 12 13  1  1
 12 14  1  0
 14 15  1  6
 15  8  1  0
 16 14  1  0
 16 18  1  0
 17 16  2  0
 18 19  1  0
 19 26  1  0
 19 20  1  6
 20 21  1  0
 21 25  1  0
 21 22  2  0
 22 23  1  0
 24 23  1  0
 25 24  2  0
 26 28  2  0
 26 27  1  0
M  END
$$$$
