QIH.pdb
     RDKit          3D

 28 28  0  0  1  0  0  0  0  0999 V2000
   12.9735  -16.3456   16.1814 N   0  0  0  0  0  0  0  0  0  0  0  0
   11.9557  -17.2611   15.8205 C   0  0  0  0  0  0  0  0  0  0  0  0
   11.8262  -17.5935   14.6302 O   0  0  0  0  0  0  0  0  0  0  0  0
   11.0703  -17.8049   16.8572 C   0  0  0  0  0  0  0  0  0  0  0  0
   11.3809  -17.2151   18.1874 C   0  0  0  0  0  0  0  0  0  0  0  0
   10.5988  -17.7427   19.3381 C   0  0  2  0  0  0  0  0  0  0  0  0
    9.3519  -18.3695   18.9339 N   0  0  0  0  0  0  0  0  0  0  0  0
   10.3492  -16.6111   20.2666 C   0  0  0  0  0  0  0  0  0  0  0  0
   11.3490  -16.0074   20.7251 O   0  0  0  0  0  0  0  0  0  0  0  0
    7.0087  -12.4554   19.5752 C   0  0  0  0  0  0  0  0  0  0  0  0
    8.2249  -13.2767   19.9664 C   0  0  0  0  0  0  0  0  0  0  0  0
    7.8486  -14.0929   21.1629 C   0  0  2  0  0  0  0  0  0  0  0  0
    7.6163  -13.1573   22.3272 C   0  0  0  0  0  0  0  0  0  0  0  0
    8.9101  -15.0755   21.5785 C   0  0  2  0  0  0  0  0  0  0  0  0
    9.0643  -16.1668   20.6696 N   0  0  0  0  0  0  0  0  0  0  0  0
    8.6725  -15.5624   22.9852 C   0  0  0  0  0  0  0  0  0  0  0  0
    8.7570  -14.7698   23.9580 O   0  0  0  0  0  0  0  0  0  0  0  0
    8.3504  -16.9163   23.2435 N   0  0  0  0  0  0  0  0  0  0  0  0
    8.1526  -17.4200   24.5881 C   0  0  1  0  0  0  0  0  0  0  0  0
    7.6290  -18.8146   24.6047 C   0  0  0  0  0  0  0  0  0  0  0  0
    7.5566  -19.3403   25.9807 C   0  0  0  0  0  0  0  0  0  0  0  0
    8.4612  -19.3447   26.9940 C   0  0  0  0  0  0  0  0  0  0  0  0
    7.9672  -19.9589   28.0851 N   0  0  0  0  0  0  0  0  0  0  0  0
    6.7290  -20.3512   27.7597 C   0  0  0  0  0  0  0  0  0  0  0  0
    6.4619  -19.9822   26.4797 N   0  0  0  0  0  0  0  0  0  0  0  0
    9.4563  -17.3191   25.2793 C   0  0  0  0  0  0  0  0  0  0  0  0
   10.6630  -17.6822   24.6446 O   0  0  0  0  0  0  0  0  0  0  0  0
    9.6017  -16.9117   26.4629 O   0  0  0  0  0  0  0  0  0  0  0  0
  1  2  1  0
  2  3  2  0
  4  5  1  0
  4  2  1  0
  6  5  1  0
  6  7  1  6
  8  6  1  0
  9  8  2  0
 10 11  1  0
 11 12  1  0
 12 13  1  1
 12 14  1  0
 14 15  1  6
 15  8  1  0
 16 14  1  0
 16 18  1  0
 17 16  2  0
 18 19  1  0
 19 26  1  0
 19 20  1  6
 20 21  1  0
 21 25  1  0
 21 22  2  0
 22 23  1  0
 24 23  1  0
 25 24  2  0
 26 28  2  0
 26 27  1  0
M  END
$$$$
