QIH.pdb
     RDKit          3D

 28 28  0  0  1  0  0  0  0  0999 V2000
    8.2648  -19.9699   20.8247 N   0  0  0  0  0  0  0  0  0  0  0  0
    7.6535  -19.3732   19.6957 C   0  0  0  0  0  0  0  0  0  0  0  0
    7.2130  -20.0956   18.7857 O   0  0  0  0  0  0  0  0  0  0  0  0
    7.5477  -17.9113   19.6179 C   0  0  0  0  0  0  0  0  0  0  0  0
    8.1527  -17.2680   20.8153 C   0  0  0  0  0  0  0  0  0  0  0  0
    7.9876  -15.7930   20.9218 C   0  0  2  0  0  0  0  0  0  0  0  0
    8.6778  -15.0696   19.8676 N   0  0  0  0  0  0  0  0  0  0  0  0
    8.4818  -15.3825   22.2606 C   0  0  0  0  0  0  0  0  0  0  0  0
    9.7207  -15.2431   22.4024 O   0  0  0  0  0  0  0  0  0  0  0  0
    5.9681  -11.9771   25.8008 C   0  0  0  0  0  0  0  0  0  0  0  0
    7.0184  -12.6388   24.9257 C   0  0  0  0  0  0  0  0  0  0  0  0
    7.3201  -13.9777   25.5223 C   0  0  2  0  0  0  0  0  0  0  0  0
    8.0264  -13.7660   26.8418 C   0  0  0  0  0  0  0  0  0  0  0  0
    8.2143  -14.8309   24.6635 C   0  0  2  0  0  0  0  0  0  0  0  0
    7.6542  -15.1379   23.3858 N   0  0  0  0  0  0  0  0  0  0  0  0
    8.6302  -16.0816   25.3951 C   0  0  0  0  0  0  0  0  0  0  0  0
    7.7669  -16.9022   25.7988 O   0  0  0  0  0  0  0  0  0  0  0  0
    9.9954  -16.3608   25.6440 N   0  0  0  0  0  0  0  0  0  0  0  0
   10.4518  -17.6713   26.0624 C   0  0  1  0  0  0  0  0  0  0  0  0
   11.8157  -17.9905   25.5553 C   0  0  0  0  0  0  0  0  0  0  0  0
   12.3448  -19.2152   26.1837 C   0  0  0  0  0  0  0  0  0  0  0  0
   12.0341  -19.8376   27.3505 C   0  0  0  0  0  0  0  0  0  0  0  0
   12.7943  -20.9329   27.5355 N   0  0  0  0  0  0  0  0  0  0  0  0
   13.6011  -21.0073   26.4695 C   0  0  0  0  0  0  0  0  0  0  0  0
   13.3408  -19.9675   25.6347 N   0  0  0  0  0  0  0  0  0  0  0  0
   10.4017  -17.6905   27.5405 C   0  0  0  0  0  0  0  0  0  0  0  0
   10.3082  -18.8980   28.2644 O   0  0  0  0  0  0  0  0  0  0  0  0
   10.4371  -16.6598   28.2648 O   0  0  0  0  0  0  0  0  0  0  0  0
  1  2  1  0
  2  3  2  0
  4  5  1  0
  4  2  1  0
  6  5  1  0
  6  7  1  6
  8  6  1  0
  9  8  2  0
 10 11  1  0
 11 12  1  0
 12 13  1  1
 12 14  1  0
 14 15  1  6
 15  8  1  0
 16 14  1  0
 16 18  1  0
 17 16  2  0
 18 19  1  0
 19 26  1  0
 19 20  1  1
 20 21  1  0
 21 25  1  0
 21 22  2  0
 22 23  1  0
 24 23  1  0
 25 24  2  0
 26 28  2  0
 26 27  1  0
M  END
$$$$
