QIH.pdb
     RDKit          3D

 28 28  0  0  1  0  0  0  0  0999 V2000
    6.0811  -19.4928   17.0199 N   0  0  0  0  0  0  0  0  0  0  0  0
    7.0588  -20.3902   16.5267 C   0  0  0  0  0  0  0  0  0  0  0  0
    6.7233  -21.2821   15.7293 O   0  0  0  0  0  0  0  0  0  0  0  0
    8.4534  -20.2524   16.9631 C   0  0  0  0  0  0  0  0  0  0  0  0
    8.5989  -19.1423   17.9429 C   0  0  0  0  0  0  0  0  0  0  0  0
    8.8860  -17.7977   17.3735 C   0  0  2  0  0  0  0  0  0  0  0  0
    9.9172  -17.8258   16.3503 N   0  0  0  0  0  0  0  0  0  0  0  0
    9.2757  -16.9092   18.4977 C   0  0  0  0  0  0  0  0  0  0  0  0
   10.5004  -16.7901   18.7434 O   0  0  0  0  0  0  0  0  0  0  0  0
    6.5739  -12.3237   20.2311 C   0  0  0  0  0  0  0  0  0  0  0  0
    7.6523  -13.2744   19.7409 C   0  0  0  0  0  0  0  0  0  0  0  0
    7.8545  -14.3089   20.8031 C   0  0  2  0  0  0  0  0  0  0  0  0
    8.4157  -13.6306   22.0318 C   0  0  0  0  0  0  0  0  0  0  0  0
    8.8175  -15.3960   20.4082 C   0  0  2  0  0  0  0  0  0  0  0  0
    8.3637  -16.1886   19.3098 N   0  0  0  0  0  0  0  0  0  0  0  0
    9.1757  -16.2553   21.5939 C   0  0  0  0  0  0  0  0  0  0  0  0
    8.3306  -17.0440   22.0894 O   0  0  0  0  0  0  0  0  0  0  0  0
   10.4651  -16.1952   22.1748 N   0  0  0  0  0  0  0  0  0  0  0  0
   10.8372  -17.0097   23.3145 C   0  0  1  0  0  0  0  0  0  0  0  0
   12.3009  -17.2817   23.3691 C   0  0  0  0  0  0  0  0  0  0  0  0
   12.7121  -18.2037   22.2940 C   0  0  0  0  0  0  0  0  0  0  0  0
   12.0238  -19.1500   21.6042 C   0  0  0  0  0  0  0  0  0  0  0  0
   12.8156  -19.7755   20.7134 N   0  0  0  0  0  0  0  0  0  0  0  0
   14.0264  -19.2179   20.8396 C   0  0  0  0  0  0  0  0  0  0  0  0
   13.9816  -18.2573   21.7992 N   0  0  0  0  0  0  0  0  0  0  0  0
   10.3702  -16.2951   24.5223 C   0  0  0  0  0  0  0  0  0  0  0  0
   10.4410  -16.8797   25.8045 O   0  0  0  0  0  0  0  0  0  0  0  0
    9.8814  -15.1336   24.5145 O   0  0  0  0  0  0  0  0  0  0  0  0
  1  2  1  0
  2  3  2  0
  4  5  1  0
  4  2  1  0
  6  5  1  0
  6  7  1  6
  8  6  1  0
  9  8  2  0
 10 11  1  0
 11 12  1  0
 12 13  1  1
 12 14  1  0
 14 15  1  6
 15  8  1  0
 16 14  1  0
 16 18  1  0
 17 16  2  0
 18 19  1  0
 19 26  1  0
 19 20  1  1
 20 21  1  0
 21 25  1  0
 21 22  2  0
 22 23  1  0
 24 23  1  0
 25 24  2  0
 26 28  2  0
 26 27  1  0
M  END
$$$$
