QIH.pdb
     RDKit          3D

 28 28  0  0  1  0  0  0  0  0999 V2000
    7.1502  -16.8084   18.0188 N   0  0  0  0  0  0  0  0  0  0  0  0
    6.8504  -17.8020   18.9818 C   0  0  0  0  0  0  0  0  0  0  0  0
    6.2603  -18.8371   18.6290 O   0  0  0  0  0  0  0  0  0  0  0  0
    7.2422  -17.5952   20.3811 C   0  0  0  0  0  0  0  0  0  0  0  0
    6.5116  -16.4434   20.9753 C   0  0  0  0  0  0  0  0  0  0  0  0
    7.2205  -15.1352   20.9545 C   0  0  2  0  0  0  0  0  0  0  0  0
    8.2649  -15.0745   19.9463 N   0  0  0  0  0  0  0  0  0  0  0  0
    7.7771  -14.9058   22.3119 C   0  0  0  0  0  0  0  0  0  0  0  0
    8.9740  -15.2267   22.5084 O   0  0  0  0  0  0  0  0  0  0  0  0
    5.8031  -11.1172   25.9278 C   0  0  0  0  0  0  0  0  0  0  0  0
    6.6796  -11.9095   24.9735 C   0  0  0  0  0  0  0  0  0  0  0  0
    6.9099  -13.2544   25.5882 C   0  0  2  0  0  0  0  0  0  0  0  0
    7.7416  -13.0741   26.8373 C   0  0  0  0  0  0  0  0  0  0  0  0
    7.6480  -14.2085   24.6883 C   0  0  2  0  0  0  0  0  0  0  0  0
    7.0528  -14.3512   23.3975 N   0  0  0  0  0  0  0  0  0  0  0  0
    7.8337  -15.5463   25.3579 C   0  0  0  0  0  0  0  0  0  0  0  0
    7.0731  -16.5093   25.0824 O   0  0  0  0  0  0  0  0  0  0  0  0
    8.8632  -15.7494   26.3078 N   0  0  0  0  0  0  0  0  0  0  0  0
    9.6595  -16.9602   26.3365 C   0  0  1  0  0  0  0  0  0  0  0  0
   10.4166  -17.1764   25.0718 C   0  0  0  0  0  0  0  0  0  0  0  0
   11.2094  -18.4185   25.1310 C   0  0  0  0  0  0  0  0  0  0  0  0
   11.3891  -19.3281   26.1238 C   0  0  0  0  0  0  0  0  0  0  0  0
   12.2243  -20.3108   25.7385 N   0  0  0  0  0  0  0  0  0  0  0  0
   12.5812  -20.0207   24.4810 C   0  0  0  0  0  0  0  0  0  0  0  0
   11.9716  -18.8698   24.0943 N   0  0  0  0  0  0  0  0  0  0  0  0
   10.5643  -16.8503   27.5013 C   0  0  0  0  0  0  0  0  0  0  0  0
   10.8993  -17.9718   28.2892 O   0  0  0  0  0  0  0  0  0  0  0  0
   11.1013  -15.7762   27.8834 O   0  0  0  0  0  0  0  0  0  0  0  0
  1  2  1  0
  2  3  2  0
  4  5  1  0
  4  2  1  0
  6  5  1  0
  6  7  1  6
  8  6  1  0
  9  8  2  0
 10 11  1  0
 11 12  1  0
 12 13  1  1
 12 14  1  0
 14 15  1  6
 15  8  1  0
 16 14  1  0
 16 18  1  0
 17 16  2  0
 18 19  1  0
 19 26  1  0
 19 20  1  6
 20 21  1  0
 21 25  1  0
 21 22  2  0
 22 23  1  0
 24 23  1  0
 25 24  2  0
 26 28  2  0
 26 27  1  0
M  END
$$$$
