QIH.pdb
     RDKit          3D

 28 28  0  0  1  0  0  0  0  0999 V2000
    4.9544  -18.4071   22.2648 N   0  0  0  0  0  0  0  0  0  0  0  0
    5.2366  -18.3251   20.8798 C   0  0  0  0  0  0  0  0  0  0  0  0
    4.4265  -18.7931   20.0620 O   0  0  0  0  0  0  0  0  0  0  0  0
    6.4801  -17.6873   20.4311 C   0  0  0  0  0  0  0  0  0  0  0  0
    7.2370  -17.1252   21.5820 C   0  0  0  0  0  0  0  0  0  0  0  0
    7.5335  -15.6681   21.5237 C   0  0  2  0  0  0  0  0  0  0  0  0
    8.4215  -15.3156   20.4291 N   0  0  0  0  0  0  0  0  0  0  0  0
    8.1193  -15.2776   22.8312 C   0  0  0  0  0  0  0  0  0  0  0  0
    9.3683  -15.3235   22.9426 O   0  0  0  0  0  0  0  0  0  0  0  0
    5.7848  -11.7861   26.3934 C   0  0  0  0  0  0  0  0  0  0  0  0
    6.8287  -12.4377   25.5032 C   0  0  0  0  0  0  0  0  0  0  0  0
    7.2088  -13.7391   26.1367 C   0  0  2  0  0  0  0  0  0  0  0  0
    8.0736  -13.4505   27.3423 C   0  0  0  0  0  0  0  0  0  0  0  0
    7.9924  -14.6453   25.2257 C   0  0  2  0  0  0  0  0  0  0  0  0
    7.3684  -14.8579   23.9584 N   0  0  0  0  0  0  0  0  0  0  0  0
    8.3089  -15.9519   25.9076 C   0  0  0  0  0  0  0  0  0  0  0  0
    7.3895  -16.6535   26.4017 O   0  0  0  0  0  0  0  0  0  0  0  0
    9.6418  -16.4179   26.0076 N   0  0  0  0  0  0  0  0  0  0  0  0
    9.9857  -17.6238   26.7345 C   0  0  1  0  0  0  0  0  0  0  0  0
   11.1967  -18.2960   26.1860 C   0  0  0  0  0  0  0  0  0  0  0  0
   10.9715  -18.7537   24.8023 C   0  0  0  0  0  0  0  0  0  0  0  0
    9.8548  -18.7750   24.0291 C   0  0  0  0  0  0  0  0  0  0  0  0
   10.1109  -19.3047   22.8185 N   0  0  0  0  0  0  0  0  0  0  0  0
   11.4109  -19.6253   22.8227 C   0  0  0  0  0  0  0  0  0  0  0  0
   11.9516  -19.2963   24.0248 N   0  0  0  0  0  0  0  0  0  0  0  0
   10.1728  -17.2328   28.1486 C   0  0  0  0  0  0  0  0  0  0  0  0
   10.2897  -18.1937   29.1751 O   0  0  0  0  0  0  0  0  0  0  0  0
   10.2425  -16.0408   28.5516 O   0  0  0  0  0  0  0  0  0  0  0  0
  1  2  1  0
  2  3  2  0
  4  5  1  0
  4  2  1  0
  6  5  1  0
  6  7  1  6
  8  6  1  0
  9  8  2  0
 10 11  1  0
 11 12  1  0
 12 13  1  1
 12 14  1  0
 14 15  1  6
 15  8  1  0
 16 14  1  0
 16 18  1  0
 17 16  2  0
 18 19  1  0
 19 26  1  0
 19 20  1  6
 20 21  1  0
 21 25  1  0
 21 22  2  0
 22 23  1  0
 24 23  1  0
 25 24  2  0
 26 28  2  0
 26 27  1  0
M  END
$$$$
