QIH.pdb
     RDKit          3D

 28 28  0  0  1  0  0  0  0  0999 V2000
    7.0975  -21.3092   19.5808 N   0  0  0  0  0  0  0  0  0  0  0  0
    8.4815  -21.0469   19.4389 C   0  0  0  0  0  0  0  0  0  0  0  0
    9.2720  -21.4460   20.3106 O   0  0  0  0  0  0  0  0  0  0  0  0
    8.9617  -20.3095   18.2642 C   0  0  0  0  0  0  0  0  0  0  0  0
    8.0811  -19.1477   17.9667 C   0  0  0  0  0  0  0  0  0  0  0  0
    8.7401  -17.9665   17.3464 C   0  0  2  0  0  0  0  0  0  0  0  0
    9.8387  -18.3292   16.4674 N   0  0  0  0  0  0  0  0  0  0  0  0
    9.2073  -17.0852   18.4464 C   0  0  0  0  0  0  0  0  0  0  0  0
   10.4161  -17.1602   18.7743 O   0  0  0  0  0  0  0  0  0  0  0  0
    6.8344  -12.1952   19.8542 C   0  0  0  0  0  0  0  0  0  0  0  0
    7.9067  -13.1904   19.4458 C   0  0  0  0  0  0  0  0  0  0  0  0
    8.0398  -14.1862   20.5549 C   0  0  2  0  0  0  0  0  0  0  0  0
    8.6653  -13.4964   21.7455 C   0  0  0  0  0  0  0  0  0  0  0  0
    8.9113  -15.3624   20.2055 C   0  0  2  0  0  0  0  0  0  0  0  0
    8.3856  -16.1681   19.1495 N   0  0  0  0  0  0  0  0  0  0  0  0
    9.2147  -16.1902   21.4283 C   0  0  0  0  0  0  0  0  0  0  0  0
    8.3354  -16.9383   21.9272 O   0  0  0  0  0  0  0  0  0  0  0  0
   10.4900  -16.1454   22.0410 N   0  0  0  0  0  0  0  0  0  0  0  0
   10.8423  -17.0040   23.1542 C   0  0  1  0  0  0  0  0  0  0  0  0
   11.9807  -17.9115   22.8382 C   0  0  0  0  0  0  0  0  0  0  0  0
   12.4001  -18.6747   24.0283 C   0  0  0  0  0  0  0  0  0  0  0  0
   12.4052  -18.3566   25.3490 C   0  0  0  0  0  0  0  0  0  0  0  0
   12.8990  -19.3654   26.0908 N   0  0  0  0  0  0  0  0  0  0  0  0
   13.2129  -20.3397   25.2277 C   0  0  0  0  0  0  0  0  0  0  0  0
   12.9153  -19.9357   23.9652 N   0  0  0  0  0  0  0  0  0  0  0  0
   11.1529  -16.1179   24.2970 C   0  0  0  0  0  0  0  0  0  0  0  0
   11.1024  -16.5795   25.6293 O   0  0  0  0  0  0  0  0  0  0  0  0
   11.4809  -14.9061   24.1861 O   0  0  0  0  0  0  0  0  0  0  0  0
  1  2  1  0
  2  3  2  0
  4  5  1  0
  4  2  1  0
  6  5  1  0
  6  7  1  1
  8  6  1  0
  9  8  2  0
 10 11  1  0
 11 12  1  0
 12 13  1  1
 12 14  1  0
 14 15  1  6
 15  8  1  0
 16 14  1  0
 16 18  1  0
 17 16  2  0
 18 19  1  0
 19 26  1  0
 19 20  1  6
 20 21  1  0
 21 25  1  0
 21 22  2  0
 22 23  1  0
 24 23  1  0
 25 24  2  0
 26 28  2  0
 26 27  1  0
M  END
$$$$
