QIH.pdb
     RDKit          3D

 28 28  0  0  1  0  0  0  0  0999 V2000
   13.1090  -17.0036   14.9854 N   0  0  0  0  0  0  0  0  0  0  0  0
   11.9195  -17.7451   14.7867 C   0  0  0  0  0  0  0  0  0  0  0  0
   11.7404  -18.3363   13.7086 O   0  0  0  0  0  0  0  0  0  0  0  0
   10.9171  -17.8058   15.8572 C   0  0  0  0  0  0  0  0  0  0  0  0
   11.3904  -17.0903   17.0728 C   0  0  0  0  0  0  0  0  0  0  0  0
   10.9421  -17.6465   18.3781 C   0  0  2  0  0  0  0  0  0  0  0  0
    9.7303  -18.4406   18.2677 N   0  0  0  0  0  0  0  0  0  0  0  0
   10.7477  -16.5054   19.3082 C   0  0  0  0  0  0  0  0  0  0  0  0
   11.7308  -15.7538   19.5155 O   0  0  0  0  0  0  0  0  0  0  0  0
    6.8173  -12.8420   19.1920 C   0  0  0  0  0  0  0  0  0  0  0  0
    8.1969  -13.4526   19.3669 C   0  0  0  0  0  0  0  0  0  0  0  0
    8.1694  -14.2708   20.6197 C   0  0  2  0  0  0  0  0  0  0  0  0
    8.0169  -13.3369   21.7984 C   0  0  0  0  0  0  0  0  0  0  0  0
    9.4222  -15.0750   20.8403 C   0  0  2  0  0  0  0  0  0  0  0  0
    9.5328  -16.2070   19.9759 N   0  0  0  0  0  0  0  0  0  0  0  0
    9.5583  -15.4744   22.2875 C   0  0  0  0  0  0  0  0  0  0  0  0
    9.4620  -14.6134   23.1992 O   0  0  0  0  0  0  0  0  0  0  0  0
    9.7964  -16.8210   22.6530 N   0  0  0  0  0  0  0  0  0  0  0  0
    9.8729  -17.2434   24.0373 C   0  0  1  0  0  0  0  0  0  0  0  0
    9.1152  -18.5000   24.2942 C   0  0  0  0  0  0  0  0  0  0  0  0
    7.7011  -18.3597   23.8999 C   0  0  0  0  0  0  0  0  0  0  0  0
    6.9359  -17.2636   23.6582 C   0  0  0  0  0  0  0  0  0  0  0  0
    5.6748  -17.6106   23.3406 N   0  0  0  0  0  0  0  0  0  0  0  0
    5.6381  -18.9484   23.3814 C   0  0  0  0  0  0  0  0  0  0  0  0
    6.8653  -19.4221   23.7210 N   0  0  0  0  0  0  0  0  0  0  0  0
   11.3083  -17.3970   24.3595 C   0  0  0  0  0  0  0  0  0  0  0  0
   11.7432  -17.7852   25.6444 O   0  0  0  0  0  0  0  0  0  0  0  0
   12.2443  -17.2005   23.5388 O   0  0  0  0  0  0  0  0  0  0  0  0
  1  2  1  0
  2  3  2  0
  4  5  1  0
  4  2  1  0
  6  5  1  0
  6  7  1  6
  8  6  1  0
  9  8  2  0
 10 11  1  0
 11 12  1  0
 12 13  1  1
 12 14  1  0
 14 15  1  6
 15  8  1  0
 16 14  1  0
 16 18  1  0
 17 16  2  0
 18 19  1  0
 19 26  1  0
 19 20  1  6
 20 21  1  0
 21 25  1  0
 21 22  2  0
 22 23  1  0
 24 23  1  0
 25 24  2  0
 26 28  2  0
 26 27  1  0
M  END
$$$$
