ANG.pdb
     RDKit          3D

 18 17  0  0  1  0  0  0  0  0999 V2000
    4.4321  -19.6157   19.8098 C   0  0  0  0  0  0  0  0  0  0  0  0
    4.8818  -19.7149   21.2600 C   0  0  2  0  0  0  0  0  0  0  0  0
    3.7690  -19.2798   22.0789 N   0  0  0  0  0  0  0  0  0  0  0  0
    6.0466  -18.7955   21.4042 C   0  0  0  0  0  0  0  0  0  0  0  0
    7.1512  -19.0407   20.8303 O   0  0  0  0  0  0  0  0  0  0  0  0
    6.3501  -14.1062   19.9690 N   0  0  0  0  0  0  0  0  0  0  0  0
    7.1369  -14.7738   20.9290 C   0  0  0  0  0  0  0  0  0  0  0  0
    8.3717  -14.8731   20.7252 O   0  0  0  0  0  0  0  0  0  0  0  0
    6.4763  -15.3262   22.1303 C   0  0  0  0  0  0  0  0  0  0  0  0
    6.9588  -16.7280   22.4725 C   0  0  2  0  0  0  0  0  0  0  0  0
    5.8673  -17.6383   22.2084 N   0  0  0  0  0  0  0  0  0  0  0  0
    7.2192  -16.7268   23.9296 C   0  0  0  0  0  0  0  0  0  0  0  0
    7.9817  -15.8469   24.4011 O   0  0  0  0  0  0  0  0  0  0  0  0
    6.6197  -17.7039   24.7942 N   0  0  0  0  0  0  0  0  0  0  0  0
    6.9747  -17.6259   26.1965 C   0  0  0  0  0  0  0  0  0  0  0  0
    7.8767  -18.7574   26.5103 C   0  0  0  0  0  0  0  0  0  0  0  0
    8.3154  -19.4457   25.5492 O   0  0  0  0  0  0  0  0  0  0  0  0
    8.2702  -19.1107   27.7781 O   0  0  0  0  0  0  0  0  0  0  0  0
  2  1  1  6
  2  3  1  0
  4  5  2  0
  4  2  1  0
  6  7  1  0
  7  8  2  0
  9  7  1  0
 10  9  1  1
 10 11  1  0
 11  4  1  0
 12 10  1  0
 12 14  1  0
 13 12  2  0
 15 14  1  0
 15 16  1  0
 16 17  2  0
 16 18  1  0
M  END
$$$$
