ANG.pdb
     RDKit          3D

 18 17  0  0  1  0  0  0  0  0999 V2000
    7.3691  -12.4739   18.9223 C   0  0  0  0  0  0  0  0  0  0  0  0
    8.6893  -13.2206   18.8011 C   0  0  2  0  0  0  0  0  0  0  0  0
    8.5560  -14.1380   17.6881 N   0  0  0  0  0  0  0  0  0  0  0  0
    8.8772  -13.9562   20.0842 C   0  0  0  0  0  0  0  0  0  0  0  0
    8.9779  -13.3371   21.1870 O   0  0  0  0  0  0  0  0  0  0  0  0
    6.8839  -18.3972   19.5508 N   0  0  0  0  0  0  0  0  0  0  0  0
    7.3745  -17.7817   20.7199 C   0  0  0  0  0  0  0  0  0  0  0  0
    6.5495  -17.4053   21.5883 O   0  0  0  0  0  0  0  0  0  0  0  0
    8.8341  -17.6064   20.8725 C   0  0  0  0  0  0  0  0  0  0  0  0
    9.2221  -16.1704   21.1918 C   0  0  2  0  0  0  0  0  0  0  0  0
    8.9383  -15.3740   20.0191 N   0  0  0  0  0  0  0  0  0  0  0  0
   10.6872  -16.1795   21.4025 C   0  0  0  0  0  0  0  0  0  0  0  0
   11.4352  -15.9546   20.4187 O   0  0  0  0  0  0  0  0  0  0  0  0
   11.2520  -16.4381   22.6971 N   0  0  0  0  0  0  0  0  0  0  0  0
   12.6939  -16.3444   22.8000 C   0  0  0  0  0  0  0  0  0  0  0  0
   13.0836  -16.6913   24.1857 C   0  0  0  0  0  0  0  0  0  0  0  0
   12.1635  -16.8997   25.0223 O   0  0  0  0  0  0  0  0  0  0  0  0
   14.3804  -16.8022   24.6249 O   0  0  0  0  0  0  0  0  0  0  0  0
  2  1  1  1
  2  3  1  0
  4  5  2  0
  4  2  1  0
  6  7  1  0
  7  8  2  0
  9  7  1  0
 10  9  1  6
 10 11  1  0
 11  4  1  0
 12 10  1  0
 12 14  1  0
 13 12  2  0
 15 14  1  0
 15 16  1  0
 16 17  2  0
 16 18  1  0
M  END
$$$$
