ANG.pdb
     RDKit          3D

 18 17  0  0  1  0  0  0  0  0999 V2000
    6.9913  -16.6078   19.6051 C   0  0  0  0  0  0  0  0  0  0  0  0
    8.1159  -17.0868   20.5111 C   0  0  2  0  0  0  0  0  0  0  0  0
    7.6005  -18.2089   21.2683 N   0  0  0  0  0  0  0  0  0  0  0  0
    8.4521  -15.9433   21.4068 C   0  0  0  0  0  0  0  0  0  0  0  0
    9.1592  -14.9735   20.9956 O   0  0  0  0  0  0  0  0  0  0  0  0
    5.8060  -13.1533   26.0750 N   0  0  0  0  0  0  0  0  0  0  0  0
    6.9475  -13.4999   25.3246 C   0  0  0  0  0  0  0  0  0  0  0  0
    7.9959  -12.8285   25.4870 O   0  0  0  0  0  0  0  0  0  0  0  0
    6.8613  -14.6351   24.3821 C   0  0  0  0  0  0  0  0  0  0  0  0
    8.1747  -14.8999   23.6612 C   0  0  2  0  0  0  0  0  0  0  0  0
    7.9488  -15.9862   22.7345 N   0  0  0  0  0  0  0  0  0  0  0  0
    9.1239  -15.3644   24.6976 C   0  0  0  0  0  0  0  0  0  0  0  0
   10.2435  -14.8009   24.7801 O   0  0  0  0  0  0  0  0  0  0  0  0
    8.7840  -16.4337   25.5936 N   0  0  0  0  0  0  0  0  0  0  0  0
    9.3657  -17.7276   25.3007 C   0  0  0  0  0  0  0  0  0  0  0  0
   10.7129  -17.7798   25.9127 C   0  0  0  0  0  0  0  0  0  0  0  0
   11.7068  -17.8786   25.1430 O   0  0  0  0  0  0  0  0  0  0  0  0
   10.9567  -17.7279   27.2636 O   0  0  0  0  0  0  0  0  0  0  0  0
  2  1  1  6
  2  3  1  0
  4  5  2  0
  4  2  1  0
  6  7  1  0
  7  8  2  0
  9  7  1  0
 10  9  1  1
 10 11  1  0
 11  4  1  0
 12 10  1  0
 12 14  1  0
 13 12  2  0
 15 14  1  0
 15 16  1  0
 16 17  2  0
 16 18  1  0
M  END
$$$$
