ANG.pdb
     RDKit          3D

 18 17  0  0  1  0  0  0  0  0999 V2000
   11.3238  -18.4029   17.7011 C   0  0  0  0  0  0  0  0  0  0  0  0
   10.6556  -17.1847   17.0811 C   0  0  2  0  0  0  0  0  0  0  0  0
   11.3903  -16.8677   15.8736 N   0  0  0  0  0  0  0  0  0  0  0  0
   10.7686  -16.0862   18.0827 C   0  0  0  0  0  0  0  0  0  0  0  0
   11.7900  -15.3344   18.1198 O   0  0  0  0  0  0  0  0  0  0  0  0
    7.6253  -12.1692   19.1194 N   0  0  0  0  0  0  0  0  0  0  0  0
    7.8029  -13.5565   18.9456 C   0  0  0  0  0  0  0  0  0  0  0  0
    7.5783  -14.0505   17.8135 O   0  0  0  0  0  0  0  0  0  0  0  0
    8.2445  -14.3671   20.1000 C   0  0  0  0  0  0  0  0  0  0  0  0
    9.6811  -14.8490   19.9629 C   0  0  2  0  0  0  0  0  0  0  0  0
    9.6883  -15.9181   18.9898 N   0  0  0  0  0  0  0  0  0  0  0  0
   10.0493  -15.4177   21.2790 C   0  0  0  0  0  0  0  0  0  0  0  0
    9.1338  -15.8527   22.0208 O   0  0  0  0  0  0  0  0  0  0  0  0
   11.4182  -15.4760   21.7086 N   0  0  0  0  0  0  0  0  0  0  0  0
   11.6566  -16.0393   23.0217 C   0  0  0  0  0  0  0  0  0  0  0  0
   13.1190  -16.1750   23.2097 C   0  0  0  0  0  0  0  0  0  0  0  0
   13.8704  -15.8299   22.2577 O   0  0  0  0  0  0  0  0  0  0  0  0
   13.7161  -16.6516   24.3513 O   0  0  0  0  0  0  0  0  0  0  0  0
  2  1  1  1
  2  3  1  0
  4  5  2  0
  4  2  1  0
  6  7  1  0
  7  8  2  0
  9  7  1  0
 10  9  1  1
 10 11  1  0
 11  4  1  0
 12 10  1  0
 12 14  1  0
 13 12  2  0
 15 14  1  0
 15 16  1  0
 16 17  2  0
 16 18  1  0
M  END
$$$$
