ANG.pdb
     RDKit          3D

 18 17  0  0  1  0  0  0  0  0999 V2000
    9.6968  -17.1208   16.6949 C   0  0  0  0  0  0  0  0  0  0  0  0
   10.0465  -17.3406   18.1593 C   0  0  2  0  0  0  0  0  0  0  0  0
    9.0145  -18.1898   18.7180 N   0  0  0  0  0  0  0  0  0  0  0  0
   10.0407  -15.9949   18.8010 C   0  0  0  0  0  0  0  0  0  0  0  0
   10.8831  -15.1061   18.4694 O   0  0  0  0  0  0  0  0  0  0  0  0
    8.2275  -13.1155   18.3522 N   0  0  0  0  0  0  0  0  0  0  0  0
    7.2386  -13.3296   19.3332 C   0  0  0  0  0  0  0  0  0  0  0  0
    6.0708  -12.9310   19.1016 O   0  0  0  0  0  0  0  0  0  0  0  0
    7.6179  -14.0120   20.5882 C   0  0  0  0  0  0  0  0  0  0  0  0
    9.0488  -14.5285   20.5656 C   0  0  2  0  0  0  0  0  0  0  0  0
    9.0556  -15.7518   19.7953 N   0  0  0  0  0  0  0  0  0  0  0  0
    9.3857  -14.8619   21.9679 C   0  0  0  0  0  0  0  0  0  0  0  0
    9.4693  -13.9267   22.8024 O   0  0  0  0  0  0  0  0  0  0  0  0
    9.6140  -16.2193   22.3766 N   0  0  0  0  0  0  0  0  0  0  0  0
   10.0245  -16.4164   23.7518 C   0  0  0  0  0  0  0  0  0  0  0  0
   11.4831  -16.6703   23.7687 C   0  0  0  0  0  0  0  0  0  0  0  0
   12.1009  -16.6326   22.6701 O   0  0  0  0  0  0  0  0  0  0  0  0
   12.2124  -16.9446   24.9000 O   0  0  0  0  0  0  0  0  0  0  0  0
  2  1  1  6
  2  3  1  0
  4  5  2  0
  4  2  1  0
  6  7  1  0
  7  8  2  0
  9  7  1  0
 10  9  1  1
 10 11  1  0
 11  4  1  0
 12 10  1  0
 12 14  1  0
 13 12  2  0
 15 14  1  0
 15 16  1  0
 16 17  2  0
 16 18  1  0
M  END
$$$$
