ANG.pdb
     RDKit          3D

 18 17  0  0  1  0  0  0  0  0999 V2000
    4.1856  -19.0343   20.0491 C   0  0  0  0  0  0  0  0  0  0  0  0
    5.5999  -19.1491   20.5982 C   0  0  2  0  0  0  0  0  0  0  0  0
    5.5366  -18.8096   22.0050 N   0  0  0  0  0  0  0  0  0  0  0  0
    6.4263  -18.1635   19.8444 C   0  0  0  0  0  0  0  0  0  0  0  0
    6.6351  -18.2975   18.6001 O   0  0  0  0  0  0  0  0  0  0  0  0
    7.2968  -12.3086   19.7027 N   0  0  0  0  0  0  0  0  0  0  0  0
    7.5606  -13.6284   19.2846 C   0  0  0  0  0  0  0  0  0  0  0  0
    8.3213  -13.8029   18.3010 O   0  0  0  0  0  0  0  0  0  0  0  0
    6.9325  -14.7462   20.0196 C   0  0  0  0  0  0  0  0  0  0  0  0
    7.7351  -16.0353   19.9241 C   0  0  2  0  0  0  0  0  0  0  0  0
    6.9676  -17.0726   20.5759 N   0  0  0  0  0  0  0  0  0  0  0  0
    8.9689  -15.8085   20.7098 C   0  0  0  0  0  0  0  0  0  0  0  0
    9.9134  -15.1781   20.1728 O   0  0  0  0  0  0  0  0  0  0  0  0
    9.0947  -16.2930   22.0555 N   0  0  0  0  0  0  0  0  0  0  0  0
    9.8001  -17.5470   22.2242 C   0  0  0  0  0  0  0  0  0  0  0  0
   11.2281  -17.2459   22.4741 C   0  0  0  0  0  0  0  0  0  0  0  0
   11.7924  -16.4020   21.7262 O   0  0  0  0  0  0  0  0  0  0  0  0
   11.9832  -17.8229   23.4660 O   0  0  0  0  0  0  0  0  0  0  0  0
  2  1  1  6
  2  3  1  0
  4  5  2  0
  4  2  1  0
  6  7  1  0
  7  8  2  0
  9  7  1  0
 10  9  1  1
 10 11  1  0
 11  4  1  0
 12 10  1  0
 12 14  1  0
 13 12  2  0
 15 14  1  0
 15 16  1  0
 16 17  2  0
 16 18  1  0
M  END
$$$$
