ANG.pdb
     RDKit          3D

 18 17  0  0  1  0  0  0  0  0999 V2000
    7.2183  -12.6252   19.6205 C   0  0  0  0  0  0  0  0  0  0  0  0
    8.3808  -13.5944   19.7758 C   0  0  2  0  0  0  0  0  0  0  0  0
    8.1772  -14.6572   18.8128 N   0  0  0  0  0  0  0  0  0  0  0  0
    8.3133  -14.1140   21.1715 C   0  0  0  0  0  0  0  0  0  0  0  0
    8.3782  -13.3305   22.1673 O   0  0  0  0  0  0  0  0  0  0  0  0
    5.3726  -16.1532   22.0890 N   0  0  0  0  0  0  0  0  0  0  0  0
    5.9934  -17.4171   22.1487 C   0  0  0  0  0  0  0  0  0  0  0  0
    5.2966  -18.4364   21.9213 O   0  0  0  0  0  0  0  0  0  0  0  0
    7.4331  -17.4876   22.4756 C   0  0  0  0  0  0  0  0  0  0  0  0
    8.0627  -16.1136   22.6504 C   0  0  2  0  0  0  0  0  0  0  0  0
    8.1739  -15.5179   21.3379 N   0  0  0  0  0  0  0  0  0  0  0  0
    9.4286  -16.3523   23.1684 C   0  0  0  0  0  0  0  0  0  0  0  0
   10.3668  -16.4862   22.3440 O   0  0  0  0  0  0  0  0  0  0  0  0
    9.6873  -16.4308   24.5785 N   0  0  0  0  0  0  0  0  0  0  0  0
   11.0733  -16.3204   24.9852 C   0  0  0  0  0  0  0  0  0  0  0  0
   11.5332  -17.6549   25.4325 C   0  0  0  0  0  0  0  0  0  0  0  0
   10.8123  -18.6511   25.1534 O   0  0  0  0  0  0  0  0  0  0  0  0
   12.6930  -17.8844   26.1319 O   0  0  0  0  0  0  0  0  0  0  0  0
  2  1  1  1
  2  3  1  0
  4  5  2  0
  4  2  1  0
  6  7  1  0
  7  8  2  0
  9  7  1  0
 10  9  1  6
 10 11  1  0
 11  4  1  0
 12 10  1  0
 12 14  1  0
 13 12  2  0
 15 14  1  0
 15 16  1  0
 16 17  2  0
 16 18  1  0
M  END
$$$$
