ANG.pdb
     RDKit          3D

 18 17  0  0  1  0  0  0  0  0999 V2000
    1.0145  -20.5130   20.2455 C   0  0  0  0  0  0  0  0  0  0  0  0
    2.1531  -20.5684   21.2532 C   0  0  2  0  0  0  0  0  0  0  0  0
    3.2795  -21.1879   20.5855 N   0  0  0  0  0  0  0  0  0  0  0  0
    1.6724  -21.4085   22.3871 C   0  0  0  0  0  0  0  0  0  0  0  0
    0.7440  -21.0077   23.1534 O   0  0  0  0  0  0  0  0  0  0  0  0
   -0.3450  -25.2132   21.1240 N   0  0  0  0  0  0  0  0  0  0  0  0
   -0.0313  -24.7213   22.4069 C   0  0  0  0  0  0  0  0  0  0  0  0
   -0.9467  -24.1932   23.0847 O   0  0  0  0  0  0  0  0  0  0  0  0
    1.3573  -24.8479   22.8972 C   0  0  0  0  0  0  0  0  0  0  0  0
    1.8496  -23.5893   23.5960 C   0  0  2  0  0  0  0  0  0  0  0  0
    2.2957  -22.6716   22.5719 N   0  0  0  0  0  0  0  0  0  0  0  0
    3.0258  -23.9987   24.3959 C   0  0  0  0  0  0  0  0  0  0  0  0
    2.8776  -24.8953   25.2631 O   0  0  0  0  0  0  0  0  0  0  0  0
    4.3115  -23.3922   24.1942 N   0  0  0  0  0  0  0  0  0  0  0  0
    5.4038  -23.9226   24.9842 C   0  0  0  0  0  0  0  0  0  0  0  0
    5.7230  -22.9453   26.0497 C   0  0  0  0  0  0  0  0  0  0  0  0
    5.0015  -21.9152   26.1403 O   0  0  0  0  0  0  0  0  0  0  0  0
    6.7525  -23.0825   26.9488 O   0  0  0  0  0  0  0  0  0  0  0  0
  2  1  1  6
  2  3  1  0
  4  5  2  0
  4  2  1  0
  6  7  1  0
  7  8  2  0
  9  7  1  0
 10  9  1  6
 10 11  1  0
 11  4  1  0
 12 10  1  0
 12 14  1  0
 13 12  2  0
 15 14  1  0
 15 16  1  0
 16 17  2  0
 16 18  1  0
M  END
$$$$
