ANG.pdb
     RDKit          3D

 18 17  0  0  1  0  0  0  0  0999 V2000
    7.3036  -18.6241   17.4953 C   0  0  0  0  0  0  0  0  0  0  0  0
    8.3357  -18.6383   18.6131 C   0  0  2  0  0  0  0  0  0  0  0  0
    7.6238  -18.9191   19.8430 N   0  0  0  0  0  0  0  0  0  0  0  0
    8.9439  -17.2775   18.6431 C   0  0  0  0  0  0  0  0  0  0  0  0
    9.7741  -16.9100   17.7568 O   0  0  0  0  0  0  0  0  0  0  0  0
    7.2426  -12.2527   18.5190 N   0  0  0  0  0  0  0  0  0  0  0  0
    7.5797  -13.6133   18.6645 C   0  0  0  0  0  0  0  0  0  0  0  0
    7.4748  -14.3652   17.6646 O   0  0  0  0  0  0  0  0  0  0  0  0
    8.0407  -14.0946   19.9838 C   0  0  0  0  0  0  0  0  0  0  0  0
    9.1647  -15.1143   19.8760 C   0  0  2  0  0  0  0  0  0  0  0  0
    8.5555  -16.4137   19.7019 N   0  0  0  0  0  0  0  0  0  0  0  0
    9.8581  -15.0988   21.1837 C   0  0  0  0  0  0  0  0  0  0  0  0
   10.4561  -14.0506   21.5322 O   0  0  0  0  0  0  0  0  0  0  0  0
    9.8541  -16.2494   22.0426 N   0  0  0  0  0  0  0  0  0  0  0  0
   10.5229  -16.1014   23.3190 C   0  0  0  0  0  0  0  0  0  0  0  0
   11.8782  -16.6863   23.2033 C   0  0  0  0  0  0  0  0  0  0  0  0
   12.2249  -17.1542   22.0848 O   0  0  0  0  0  0  0  0  0  0  0  0
   12.7867  -16.7552   24.2313 O   0  0  0  0  0  0  0  0  0  0  0  0
  2  1  1  6
  2  3  1  0
  4  5  2  0
  4  2  1  0
  6  7  1  0
  7  8  2  0
  9  7  1  0
 10  9  1  1
 10 11  1  0
 11  4  1  0
 12 10  1  0
 12 14  1  0
 13 12  2  0
 15 14  1  0
 15 16  1  0
 16 17  2  0
 16 18  1  0
M  END
$$$$
