ANG.pdb
     RDKit          3D

 18 17  0  0  1  0  0  0  0  0999 V2000
   -1.6252  -21.1573   19.0800 C   0  0  0  0  0  0  0  0  0  0  0  0
   -0.1309  -21.4151   19.2052 C   0  0  2  0  0  0  0  0  0  0  0  0
    0.0348  -22.8334   19.4492 N   0  0  0  0  0  0  0  0  0  0  0  0
    0.3398  -20.6112   20.3692 C   0  0  0  0  0  0  0  0  0  0  0  0
    0.3694  -19.3437   20.3223 O   0  0  0  0  0  0  0  0  0  0  0  0
   -1.1561  -19.1950   23.2288 N   0  0  0  0  0  0  0  0  0  0  0  0
   -0.9558  -20.3110   24.0660 C   0  0  0  0  0  0  0  0  0  0  0  0
   -1.8072  -20.5498   24.9572 O   0  0  0  0  0  0  0  0  0  0  0  0
    0.2439  -21.1490   23.8591 C   0  0  0  0  0  0  0  0  0  0  0  0
    1.1344  -20.6319   22.7391 C   0  0  2  0  0  0  0  0  0  0  0  0
    0.7520  -21.3223   21.5279 N   0  0  0  0  0  0  0  0  0  0  0  0
    2.5130  -21.0411   23.0903 C   0  0  0  0  0  0  0  0  0  0  0  0
    3.0243  -20.5823   24.1419 O   0  0  0  0  0  0  0  0  0  0  0  0
    3.2583  -21.9410   22.2559 N   0  0  0  0  0  0  0  0  0  0  0  0
    4.5897  -22.2859   22.7106 C   0  0  0  0  0  0  0  0  0  0  0  0
    4.6685  -23.7587   22.8405 C   0  0  0  0  0  0  0  0  0  0  0  0
    4.3139  -24.2739   23.9353 O   0  0  0  0  0  0  0  0  0  0  0  0
    5.1019  -24.6054   21.8493 O   0  0  0  0  0  0  0  0  0  0  0  0
  2  1  1  1
  2  3  1  0
  4  5  2  0
  4  2  1  0
  6  7  1  0
  7  8  2  0
  9  7  1  0
 10  9  1  1
 10 11  1  0
 11  4  1  0
 12 10  1  0
 12 14  1  0
 13 12  2  0
 15 14  1  0
 15 16  1  0
 16 17  2  0
 16 18  1  0
M  END
$$$$
