ANG.pdb
     RDKit          3D

 18 17  0  0  1  0  0  0  0  0999 V2000
    7.6383  -14.5434   15.3059 C   0  0  0  0  0  0  0  0  0  0  0  0
    8.8802  -14.9452   16.0877 C   0  0  2  0  0  0  0  0  0  0  0  0
    8.6248  -16.2590   16.6419 N   0  0  0  0  0  0  0  0  0  0  0  0
    9.0461  -13.9300   17.1668 C   0  0  0  0  0  0  0  0  0  0  0  0
    9.3469  -12.7275   16.8960 O   0  0  0  0  0  0  0  0  0  0  0  0
    8.1855  -10.8918   21.1579 N   0  0  0  0  0  0  0  0  0  0  0  0
    7.5980  -12.1700   21.2426 C   0  0  0  0  0  0  0  0  0  0  0  0
    7.0990  -12.5269   22.3381 O   0  0  0  0  0  0  0  0  0  0  0  0
    7.5948  -13.0323   20.0422 C   0  0  0  0  0  0  0  0  0  0  0  0
    8.9940  -13.4556   19.6205 C   0  0  2  0  0  0  0  0  0  0  0  0
    8.8538  -14.3650   18.5054 N   0  0  0  0  0  0  0  0  0  0  0  0
    9.5562  -14.2081   20.7645 C   0  0  0  0  0  0  0  0  0  0  0  0
    9.9285  -13.5668   21.7784 O   0  0  0  0  0  0  0  0  0  0  0  0
    9.6780  -15.6383   20.7277 N   0  0  0  0  0  0  0  0  0  0  0  0
   10.8021  -16.1690   19.9839 C   0  0  0  0  0  0  0  0  0  0  0  0
   11.9721  -16.2262   20.8894 C   0  0  0  0  0  0  0  0  0  0  0  0
   12.7984  -17.1646   20.7265 O   0  0  0  0  0  0  0  0  0  0  0  0
   12.2213  -15.3263   21.8970 O   0  0  0  0  0  0  0  0  0  0  0  0
  2  1  1  6
  2  3  1  0
  4  5  2  0
  4  2  1  0
  6  7  1  0
  7  8  2  0
  9  7  1  0
 10  9  1  1
 10 11  1  0
 11  4  1  0
 12 10  1  0
 12 14  1  0
 13 12  2  0
 15 14  1  0
 15 16  1  0
 16 17  2  0
 16 18  1  0
M  END
$$$$
