KFS.pdb
     RDKit          3D

 27 27  0  0  1  0  0  0  0  0999 V2000
   19.8545  -14.1950  -19.6357 N   0  0  0  0  0  0  0  0  0  0  0  0
   19.3457  -14.2123  -18.3042 C   0  0  1  0  0  0  0  0  0  0  0  0
   19.1791  -15.5572  -17.6904 C   0  0  0  0  0  0  0  0  0  0  0  0
   18.5019  -16.5859  -18.5212 C   0  0  0  0  0  0  0  0  0  0  0  0
   18.2303  -17.8918  -17.8589 C   0  0  0  0  0  0  0  0  0  0  0  0
   17.4802  -18.8345  -18.8118 C   0  0  0  0  0  0  0  0  0  0  0  0
   17.3315  -20.0990  -18.1465 N   0  0  0  0  0  0  0  0  0  0  0  0
   20.2427  -13.3869  -17.4329 C   0  0  0  0  0  0  0  0  0  0  0  0
   20.0040  -13.2752  -16.2019 O   0  0  0  0  0  0  0  0  0  0  0  0
   21.3848  -12.7000  -17.9297 N   0  0  0  0  0  0  0  0  0  0  0  0
   22.2882  -11.9120  -17.1408 C   0  0  1  0  0  0  0  0  0  0  0  0
   23.7101  -11.9900  -17.5812 C   0  0  0  0  0  0  0  0  0  0  0  0
   24.6837  -11.2809  -16.7870 C   0  0  0  0  0  0  0  0  0  0  0  0
   25.1603  -10.0628  -17.2114 C   0  0  0  0  0  0  0  0  0  0  0  0
   26.1060   -9.3528  -16.4608 C   0  0  0  0  0  0  0  0  0  0  0  0
   26.5768   -9.8694  -15.2756 C   0  0  0  0  0  0  0  0  0  0  0  0
   26.1101  -11.0759  -14.8472 C   0  0  0  0  0  0  0  0  0  0  0  0
   25.1816  -11.7597  -15.5963 C   0  0  0  0  0  0  0  0  0  0  0  0
   21.8123  -10.5304  -16.9002 C   0  0  0  0  0  0  0  0  0  0  0  0
   21.4942   -9.7517  -17.8601 O   0  0  0  0  0  0  0  0  0  0  0  0
   20.3213   -7.2030  -13.6775 O   0  0  0  0  0  0  0  0  0  0  0  0
   20.7390   -8.4935  -13.9706 C   0  0  0  0  0  0  0  0  0  0  0  0
   21.1948   -8.6085  -15.4265 C   0  0  2  0  0  0  0  0  0  0  0  0
   21.6698   -9.9680  -15.6007 N   0  0  0  0  0  0  0  0  0  0  0  0
   22.2987   -7.6757  -15.6819 C   0  0  0  0  0  0  0  0  0  0  0  0
   22.0828   -6.6254  -16.3251 O   0  0  0  0  0  0  0  0  0  0  0  0
   23.5658   -7.9412  -15.2222 O   0  0  0  0  0  0  0  0  0  0  0  0
  2  1  1  6
  2  8  1  0
  3  2  1  0
  3  4  1  0
  4  5  1  0
  6  5  1  0
  6  7  1  0
  8  9  2  0
 10  8  1  0
 10 11  1  0
 11 19  1  0
 12 13  1  0
 11 12  1  6
 13 14  2  0
 14 15  1  0
 16 15  2  0
 17 16  1  0
 18 13  1  0
 18 17  2  0
 19 20  2  0
 21 22  1  0
 23 22  1  1
 23 25  1  0
 24 23  1  0
 24 19  1  0
 25 26  2  0
 25 27  1  0
M  END
$$$$
