KFS.pdb
     RDKit          3D

 27 27  0  0  1  0  0  0  0  0999 V2000
   26.2825  -20.4443  -16.4485 N   0  0  0  0  0  0  0  0  0  0  0  0
   26.3722  -21.8235  -16.0996 C   0  0  1  0  0  0  0  0  0  0  0  0
   27.5846  -22.5378  -16.5825 C   0  0  0  0  0  0  0  0  0  0  0  0
   27.9530  -22.3305  -18.0067 C   0  0  0  0  0  0  0  0  0  0  0  0
   27.8179  -20.9411  -18.5255 C   0  0  0  0  0  0  0  0  0  0  0  0
   29.1804  -20.4024  -18.9867 C   0  0  0  0  0  0  0  0  0  0  0  0
   29.2731  -20.6084  -20.4054 N   0  0  0  0  0  0  0  0  0  0  0  0
   26.2930  -21.9513  -14.6088 C   0  0  0  0  0  0  0  0  0  0  0  0
   26.2626  -23.0888  -14.0702 O   0  0  0  0  0  0  0  0  0  0  0  0
   26.2489  -20.8278  -13.7377 N   0  0  0  0  0  0  0  0  0  0  0  0
   26.1697  -20.8897  -12.3062 C   0  0  1  0  0  0  0  0  0  0  0  0
   27.0733  -19.9349  -11.6033 C   0  0  0  0  0  0  0  0  0  0  0  0
   27.1051  -20.0000  -10.1624 C   0  0  0  0  0  0  0  0  0  0  0  0
   26.2588  -19.2097   -9.4205 C   0  0  0  0  0  0  0  0  0  0  0  0
   26.2686  -19.2520   -8.0205 C   0  0  0  0  0  0  0  0  0  0  0  0
   27.1342  -20.0937   -7.3605 C   0  0  0  0  0  0  0  0  0  0  0  0
   27.9763  -20.8805   -8.0875 C   0  0  0  0  0  0  0  0  0  0  0  0
   27.9537  -20.8266   -9.4614 C   0  0  0  0  0  0  0  0  0  0  0  0
   24.7816  -20.8884  -11.7900 C   0  0  0  0  0  0  0  0  0  0  0  0
   23.8670  -20.1740  -12.3211 O   0  0  0  0  0  0  0  0  0  0  0  0
   21.6947  -22.2411   -8.2860 O   0  0  0  0  0  0  0  0  0  0  0  0
   22.9857  -22.1371   -8.7843 C   0  0  0  0  0  0  0  0  0  0  0  0
   22.9795  -21.6500  -10.2346 C   0  0  2  0  0  0  0  0  0  0  0  0
   24.3599  -21.6730  -10.6801 N   0  0  0  0  0  0  0  0  0  0  0  0
   22.4749  -20.2733  -10.2994 C   0  0  0  0  0  0  0  0  0  0  0  0
   23.2585  -19.3189  -10.1029 O   0  0  0  0  0  0  0  0  0  0  0  0
   21.1529  -20.0200  -10.5742 O   0  0  0  0  0  0  0  0  0  0  0  0
  2  1  1  1
  2  8  1  0
  3  2  1  0
  3  4  1  0
  4  5  1  0
  6  5  1  0
  6  7  1  0
  8  9  2  0
 10  8  1  0
 10 11  1  0
 11 19  1  0
 12 13  1  0
 11 12  1  1
 13 14  2  0
 14 15  1  0
 16 15  2  0
 17 16  1  0
 18 13  1  0
 18 17  2  0
 19 20  2  0
 21 22  1  0
 23 22  1  1
 23 25  1  0
 24 23  1  0
 24 19  1  0
 25 26  2  0
 25 27  1  0
M  END
$$$$
