KFS.pdb
     RDKit          3D

 27 27  0  0  1  0  0  0  0  0999 V2000
   28.5744  -20.6725  -15.0191 N   0  0  0  0  0  0  0  0  0  0  0  0
   27.7218  -19.7833  -14.3017 C   0  0  1  0  0  0  0  0  0  0  0  0
   26.9226  -18.8407  -15.1299 C   0  0  0  0  0  0  0  0  0  0  0  0
   27.6874  -17.9044  -15.9933 C   0  0  0  0  0  0  0  0  0  0  0  0
   29.1051  -18.2700  -16.2655 C   0  0  0  0  0  0  0  0  0  0  0  0
   29.7576  -17.2414  -17.2013 C   0  0  0  0  0  0  0  0  0  0  0  0
   29.1863  -17.4163  -18.5076 N   0  0  0  0  0  0  0  0  0  0  0  0
   26.7921  -20.5893  -13.4467 C   0  0  0  0  0  0  0  0  0  0  0  0
   26.5069  -21.7743  -13.7621 O   0  0  0  0  0  0  0  0  0  0  0  0
   26.1934  -20.0792  -12.2617 N   0  0  0  0  0  0  0  0  0  0  0  0
   25.1977  -20.7530  -11.4781 C   0  0  1  0  0  0  0  0  0  0  0  0
   25.2227  -20.4042  -10.0291 C   0  0  0  0  0  0  0  0  0  0  0  0
   26.4987  -20.4711   -9.3591 C   0  0  0  0  0  0  0  0  0  0  0  0
   26.7887  -19.5892   -8.3447 C   0  0  0  0  0  0  0  0  0  0  0  0
   28.0196  -19.6310   -7.6774 C   0  0  0  0  0  0  0  0  0  0  0  0
   28.9661  -20.5649   -8.0311 C   0  0  0  0  0  0  0  0  0  0  0  0
   28.6874  -21.4429   -9.0352 C   0  0  0  0  0  0  0  0  0  0  0  0
   27.4740  -21.3881   -9.6799 C   0  0  0  0  0  0  0  0  0  0  0  0
   23.8448  -20.7121  -12.0789 C   0  0  0  0  0  0  0  0  0  0  0  0
   23.2974  -19.6138  -12.4299 O   0  0  0  0  0  0  0  0  0  0  0  0
   20.1732  -23.2529  -14.0232 O   0  0  0  0  0  0  0  0  0  0  0  0
   21.4444  -23.2004  -13.4693 C   0  0  0  0  0  0  0  0  0  0  0  0
   21.7832  -21.7845  -12.9990 C   0  0  2  0  0  0  0  0  0  0  0  0
   23.0584  -21.8748  -12.3135 N   0  0  0  0  0  0  0  0  0  0  0  0
   20.7620  -21.3109  -12.0572 C   0  0  0  0  0  0  0  0  0  0  0  0
   20.9160  -21.5039  -10.8315 O   0  0  0  0  0  0  0  0  0  0  0  0
   19.6397  -20.6575  -12.5052 O   0  0  0  0  0  0  0  0  0  0  0  0
  2  1  1  6
  2  8  1  0
  3  2  1  0
  3  4  1  0
  4  5  1  0
  6  5  1  0
  6  7  1  0
  8  9  2  0
 10  8  1  0
 10 11  1  0
 11 19  1  0
 12 13  1  0
 11 12  1  1
 13 14  2  0
 14 15  1  0
 16 15  2  0
 17 16  1  0
 18 13  1  0
 18 17  2  0
 19 20  2  0
 21 22  1  0
 23 22  1  1
 23 25  1  0
 24 23  1  0
 24 19  1  0
 25 26  2  0
 25 27  1  0
M  END
$$$$
