KFS.pdb
     RDKit          3D

 27 27  0  0  1  0  0  0  0  0999 V2000
   27.1872  -21.7640  -16.8699 N   0  0  0  0  0  0  0  0  0  0  0  0
   26.1438  -21.0748  -16.1854 C   0  0  1  0  0  0  0  0  0  0  0  0
   24.7591  -21.3854  -16.6316 C   0  0  0  0  0  0  0  0  0  0  0  0
   24.4039  -20.9861  -18.0178 C   0  0  0  0  0  0  0  0  0  0  0  0
   24.7640  -19.5966  -18.4146 C   0  0  0  0  0  0  0  0  0  0  0  0
   24.3077  -19.3107  -19.8532 C   0  0  0  0  0  0  0  0  0  0  0  0
   24.7649  -17.9944  -20.2021 N   0  0  0  0  0  0  0  0  0  0  0  0
   26.2582  -21.3584  -14.7186 C   0  0  0  0  0  0  0  0  0  0  0  0
   25.9688  -22.4980  -14.2682 O   0  0  0  0  0  0  0  0  0  0  0  0
   26.6882  -20.3857  -13.7741 N   0  0  0  0  0  0  0  0  0  0  0  0
   26.7107  -20.5639  -12.3504 C   0  0  1  0  0  0  0  0  0  0  0  0
   27.6065  -19.6144  -11.6307 C   0  0  0  0  0  0  0  0  0  0  0  0
   27.6714  -19.7329  -10.1944 C   0  0  0  0  0  0  0  0  0  0  0  0
   28.5304  -20.6392   -9.6183 C   0  0  0  0  0  0  0  0  0  0  0  0
   28.6137  -20.7758   -8.2267 C   0  0  0  0  0  0  0  0  0  0  0  0
   27.8289  -19.9970   -7.4076 C   0  0  0  0  0  0  0  0  0  0  0  0
   26.9748  -19.0963   -7.9698 C   0  0  0  0  0  0  0  0  0  0  0  0
   26.9056  -18.9749   -9.3377 C   0  0  0  0  0  0  0  0  0  0  0  0
   25.3632  -20.6865  -11.7483 C   0  0  0  0  0  0  0  0  0  0  0  0
   24.3644  -20.0295  -12.1952 O   0  0  0  0  0  0  0  0  0  0  0  0
   22.6387  -22.3286   -8.0740 O   0  0  0  0  0  0  0  0  0  0  0  0
   23.8773  -22.1838   -8.6827 C   0  0  0  0  0  0  0  0  0  0  0  0
   23.7342  -21.6154  -10.0960 C   0  0  2  0  0  0  0  0  0  0  0  0
   25.0754  -21.5351  -10.6428 N   0  0  0  0  0  0  0  0  0  0  0  0
   23.1554  -20.2680  -10.0387 C   0  0  0  0  0  0  0  0  0  0  0  0
   23.9014  -19.2837   -9.8431 O   0  0  0  0  0  0  0  0  0  0  0  0
   21.8048  -20.0743  -10.1982 O   0  0  0  0  0  0  0  0  0  0  0  0
  2  1  1  6
  2  8  1  0
  3  2  1  0
  3  4  1  0
  4  5  1  0
  6  5  1  0
  6  7  1  0
  8  9  2  0
 10  8  1  0
 10 11  1  0
 11 19  1  0
 12 13  1  0
 11 12  1  1
 13 14  2  0
 14 15  1  0
 16 15  2  0
 17 16  1  0
 18 13  1  0
 18 17  2  0
 19 20  2  0
 21 22  1  0
 23 22  1  1
 23 25  1  0
 24 23  1  0
 24 19  1  0
 25 26  2  0
 25 27  1  0
M  END
$$$$
