KFS.pdb
     RDKit          3D

 27 27  0  0  1  0  0  0  0  0999 V2000
   43.1712   -9.3418  -10.6899 N   0  0  0  0  0  0  0  0  0  0  0  0
   42.8524   -9.3087   -9.3009 C   0  0  1  0  0  0  0  0  0  0  0  0
   43.9768   -8.9787   -8.3844 C   0  0  0  0  0  0  0  0  0  0  0  0
   45.0819   -9.9686   -8.3076 C   0  0  0  0  0  0  0  0  0  0  0  0
   44.7975  -11.2137   -7.5417 C   0  0  0  0  0  0  0  0  0  0  0  0
   45.9926  -12.1760   -7.6129 C   0  0  0  0  0  0  0  0  0  0  0  0
   45.6044  -13.4014   -6.9716 N   0  0  0  0  0  0  0  0  0  0  0  0
   41.7419   -8.3267   -9.0830 C   0  0  0  0  0  0  0  0  0  0  0  0
   41.6381   -7.3122   -9.8214 O   0  0  0  0  0  0  0  0  0  0  0  0
   40.7665   -8.4771   -8.0588 N   0  0  0  0  0  0  0  0  0  0  0  0
   39.8335   -7.4679   -7.6461 C   0  0  1  0  0  0  0  0  0  0  0  0
   38.5149   -8.0016   -7.2005 C   0  0  0  0  0  0  0  0  0  0  0  0
   37.5527   -7.0468   -6.7066 C   0  0  0  0  0  0  0  0  0  0  0  0
   36.8514   -6.2593   -7.5893 C   0  0  0  0  0  0  0  0  0  0  0  0
   35.9117   -5.3239   -7.1377 C   0  0  0  0  0  0  0  0  0  0  0  0
   35.6743   -5.1779   -5.7902 C   0  0  0  0  0  0  0  0  0  0  0  0
   36.3646   -5.9541   -4.9083 C   0  0  0  0  0  0  0  0  0  0  0  0
   37.2836   -6.8676   -5.3685 C   0  0  0  0  0  0  0  0  0  0  0  0
   40.4153   -6.4666   -6.7229 C   0  0  0  0  0  0  0  0  0  0  0  0
   41.0224   -6.8098   -5.6540 O   0  0  0  0  0  0  0  0  0  0  0  0
   41.5306   -2.7451   -7.8547 O   0  0  0  0  0  0  0  0  0  0  0  0
   42.0117   -3.3669   -6.7113 C   0  0  0  0  0  0  0  0  0  0  0  0
   40.8990   -4.1275   -5.9872 C   0  0  2  0  0  0  0  0  0  0  0  0
   40.3493   -5.0632   -6.9497 N   0  0  0  0  0  0  0  0  0  0  0  0
   39.8466   -3.1956   -5.5655 C   0  0  0  0  0  0  0  0  0  0  0  0
   39.3875   -2.3710   -6.3857 O   0  0  0  0  0  0  0  0  0  0  0  0
   39.3589   -3.2183   -4.2814 O   0  0  0  0  0  0  0  0  0  0  0  0
  2  1  1  6
  2  8  1  0
  3  2  1  0
  3  4  1  0
  4  5  1  0
  6  5  1  0
  6  7  1  0
  8  9  2  0
 10  8  1  0
 10 11  1  0
 11 19  1  0
 12 13  1  0
 11 12  1  1
 13 14  2  0
 14 15  1  0
 16 15  2  0
 17 16  1  0
 18 13  1  0
 18 17  2  0
 19 20  2  0
 21 22  1  0
 23 22  1  6
 23 25  1  0
 24 23  1  0
 24 19  1  0
 25 26  2  0
 25 27  1  0
M  END
$$$$
