KFS.pdb
     RDKit          3D

 27 27  0  0  1  0  0  0  0  0999 V2000
   29.3846  -22.5897  -16.4764 N   0  0  0  0  0  0  0  0  0  0  0  0
   28.0571  -22.5114  -16.9899 C   0  0  1  0  0  0  0  0  0  0  0  0
   27.6095  -23.6682  -17.8113 C   0  0  0  0  0  0  0  0  0  0  0  0
   27.2228  -23.3742  -19.2153 C   0  0  0  0  0  0  0  0  0  0  0  0
   26.3067  -22.2176  -19.4167 C   0  0  0  0  0  0  0  0  0  0  0  0
   25.8716  -22.1234  -20.8868 C   0  0  0  0  0  0  0  0  0  0  0  0
   25.0764  -20.9357  -21.0309 N   0  0  0  0  0  0  0  0  0  0  0  0
   27.1063  -22.3290  -15.8463 C   0  0  0  0  0  0  0  0  0  0  0  0
   26.7522  -23.3175  -15.1517 O   0  0  0  0  0  0  0  0  0  0  0  0
   26.5624  -21.0648  -15.4870 N   0  0  0  0  0  0  0  0  0  0  0  0
   25.8145  -20.7917  -14.2931 C   0  0  1  0  0  0  0  0  0  0  0  0
   26.4727  -19.8255  -13.3684 C   0  0  0  0  0  0  0  0  0  0  0  0
   27.6310  -20.2923  -12.6460 C   0  0  0  0  0  0  0  0  0  0  0  0
   27.4723  -21.0069  -11.4819 C   0  0  0  0  0  0  0  0  0  0  0  0
   28.5790  -21.4718  -10.7599 C   0  0  0  0  0  0  0  0  0  0  0  0
   29.8542  -21.2175  -11.2099 C   0  0  0  0  0  0  0  0  0  0  0  0
   30.0210  -20.5101  -12.3626 C   0  0  0  0  0  0  0  0  0  0  0  0
   28.9236  -20.0611  -13.0591 C   0  0  0  0  0  0  0  0  0  0  0  0
   24.3850  -20.4982  -14.5449 C   0  0  0  0  0  0  0  0  0  0  0  0
   24.0187  -19.5891  -15.3625 O   0  0  0  0  0  0  0  0  0  0  0  0
   21.1757  -21.9151  -12.2094 O   0  0  0  0  0  0  0  0  0  0  0  0
   21.1034  -22.0228  -13.5910 C   0  0  0  0  0  0  0  0  0  0  0  0
   21.9397  -20.9384  -14.2733 C   0  0  2  0  0  0  0  0  0  0  0  0
   23.3201  -21.1961  -13.9092 N   0  0  0  0  0  0  0  0  0  0  0  0
   21.5485  -19.6148  -13.7743 C   0  0  0  0  0  0  0  0  0  0  0  0
   22.2490  -19.0511  -12.9054 O   0  0  0  0  0  0  0  0  0  0  0  0
   20.4231  -18.9870  -14.2504 O   0  0  0  0  0  0  0  0  0  0  0  0
  2  1  1  1
  2  8  1  0
  3  2  1  0
  3  4  1  0
  4  5  1  0
  6  5  1  0
  6  7  1  0
  8  9  2  0
 10  8  1  0
 10 11  1  0
 11 19  1  0
 12 13  1  0
 11 12  1  6
 13 14  2  0
 14 15  1  0
 16 15  2  0
 17 16  1  0
 18 13  1  0
 18 17  2  0
 19 20  2  0
 21 22  1  0
 23 22  1  1
 23 25  1  0
 24 23  1  0
 24 19  1  0
 25 26  2  0
 25 27  1  0
M  END
$$$$
