KFS.pdb
     RDKit          3D

 27 27  0  0  1  0  0  0  0  0999 V2000
   28.0238  -20.3594  -15.6064 N   0  0  0  0  0  0  0  0  0  0  0  0
   27.5531  -19.7018  -14.4325 C   0  0  1  0  0  0  0  0  0  0  0  0
   27.0215  -18.3262  -14.6279 C   0  0  0  0  0  0  0  0  0  0  0  0
   27.9247  -17.3552  -15.2976 C   0  0  0  0  0  0  0  0  0  0  0  0
   28.8783  -17.9215  -16.2915 C   0  0  0  0  0  0  0  0  0  0  0  0
   29.6852  -16.8010  -16.9644 C   0  0  0  0  0  0  0  0  0  0  0  0
   30.6357  -17.4180  -17.8472 N   0  0  0  0  0  0  0  0  0  0  0  0
   26.4928  -20.5481  -13.7963 C   0  0  0  0  0  0  0  0  0  0  0  0
   25.6436  -21.1437  -14.5099 O   0  0  0  0  0  0  0  0  0  0  0  0
   26.3852  -20.7246  -12.3891 N   0  0  0  0  0  0  0  0  0  0  0  0
   25.3417  -21.4480  -11.7205 C   0  0  1  0  0  0  0  0  0  0  0  0
   25.7086  -21.9279  -10.3577 C   0  0  0  0  0  0  0  0  0  0  0  0
   26.5950  -21.0932   -9.5838 C   0  0  0  0  0  0  0  0  0  0  0  0
   27.9550  -21.2844   -9.6551 C   0  0  0  0  0  0  0  0  0  0  0  0
   28.8388  -20.4893   -8.9144 C   0  0  0  0  0  0  0  0  0  0  0  0
   28.3538  -19.4949   -8.0962 C   0  0  0  0  0  0  0  0  0  0  0  0
   27.0076  -19.2983   -8.0193 C   0  0  0  0  0  0  0  0  0  0  0  0
   26.1540  -20.0879   -8.7533 C   0  0  0  0  0  0  0  0  0  0  0  0
   24.0232  -20.7764  -11.7822 C   0  0  0  0  0  0  0  0  0  0  0  0
   23.8450  -19.6002  -11.3200 O   0  0  0  0  0  0  0  0  0  0  0  0
   21.7358  -21.5303  -14.7420 O   0  0  0  0  0  0  0  0  0  0  0  0
   21.4734  -20.3771  -14.0162 C   0  0  0  0  0  0  0  0  0  0  0  0
   21.6387  -20.6207  -12.5148 C   0  0  2  0  0  0  0  0  0  0  0  0
   22.8669  -21.3761  -12.3553 N   0  0  0  0  0  0  0  0  0  0  0  0
   20.5141  -21.4165  -12.0088 C   0  0  0  0  0  0  0  0  0  0  0  0
   19.3776  -20.9007  -11.9339 O   0  0  0  0  0  0  0  0  0  0  0  0
   20.6942  -22.7209  -11.6173 O   0  0  0  0  0  0  0  0  0  0  0  0
  2  1  1  6
  2  8  1  0
  3  2  1  0
  3  4  1  0
  4  5  1  0
  6  5  1  0
  6  7  1  0
  8  9  2  0
 10  8  1  0
 10 11  1  0
 11 19  1  0
 12 13  1  0
 11 12  1  1
 13 14  2  0
 14 15  1  0
 16 15  2  0
 17 16  1  0
 18 13  1  0
 18 17  2  0
 19 20  2  0
 21 22  1  0
 23 22  1  6
 23 25  1  0
 24 23  1  0
 24 19  1  0
 25 26  2  0
 25 27  1  0
M  END
$$$$
