KFS.pdb
     RDKit          3D

 27 27  0  0  1  0  0  0  0  0999 V2000
   28.1575  -20.5951  -17.1775 N   0  0  0  0  0  0  0  0  0  0  0  0
   27.4907  -21.8460  -17.0271 C   0  0  1  0  0  0  0  0  0  0  0  0
   28.2856  -23.0522  -17.3826 C   0  0  0  0  0  0  0  0  0  0  0  0
   28.8935  -23.0700  -18.7380 C   0  0  0  0  0  0  0  0  0  0  0  0
   29.8786  -21.9923  -19.0311 C   0  0  0  0  0  0  0  0  0  0  0  0
   31.3067  -22.5573  -19.0511 C   0  0  0  0  0  0  0  0  0  0  0  0
   31.5311  -23.1298  -20.3493 N   0  0  0  0  0  0  0  0  0  0  0  0
   27.0171  -21.9744  -15.6114 C   0  0  0  0  0  0  0  0  0  0  0  0
   26.3403  -22.9752  -15.2571 O   0  0  0  0  0  0  0  0  0  0  0  0
   27.2957  -21.0019  -14.6116 N   0  0  0  0  0  0  0  0  0  0  0  0
   26.7910  -21.0239  -13.2684 C   0  0  1  0  0  0  0  0  0  0  0  0
   27.7340  -20.4741  -12.2533 C   0  0  0  0  0  0  0  0  0  0  0  0
   27.2616  -20.3954  -10.8924 C   0  0  0  0  0  0  0  0  0  0  0  0
   27.7826  -21.2341   -9.9351 C   0  0  0  0  0  0  0  0  0  0  0  0
   27.3423  -21.1800   -8.6065 C   0  0  0  0  0  0  0  0  0  0  0  0
   26.3719  -20.2774   -8.2362 C   0  0  0  0  0  0  0  0  0  0  0  0
   25.8499  -19.4425   -9.1781 C   0  0  0  0  0  0  0  0  0  0  0  0
   26.2936  -19.5088  -10.4780 C   0  0  0  0  0  0  0  0  0  0  0  0
   25.4109  -20.5008  -13.1466 C   0  0  0  0  0  0  0  0  0  0  0  0
   25.1264  -19.2850  -13.4108 O   0  0  0  0  0  0  0  0  0  0  0  0
   22.2011  -22.7967  -13.6901 O   0  0  0  0  0  0  0  0  0  0  0  0
   22.1828  -21.4152  -13.8190 C   0  0  0  0  0  0  0  0  0  0  0  0
   22.9661  -20.7453  -12.6882 C   0  0  2  0  0  0  0  0  0  0  0  0
   24.3064  -21.2983  -12.7350 N   0  0  0  0  0  0  0  0  0  0  0  0
   22.3554  -21.0703  -11.3938 C   0  0  0  0  0  0  0  0  0  0  0  0
   21.1937  -20.6809  -11.1444 O   0  0  0  0  0  0  0  0  0  0  0  0
   23.0436  -21.7976  -10.4532 O   0  0  0  0  0  0  0  0  0  0  0  0
  2  1  1  1
  2  8  1  0
  3  2  1  0
  3  4  1  0
  4  5  1  0
  6  5  1  0
  6  7  1  0
  8  9  2  0
 10  8  1  0
 10 11  1  0
 11 19  1  0
 12 13  1  0
 11 12  1  1
 13 14  2  0
 14 15  1  0
 16 15  2  0
 17 16  1  0
 18 13  1  0
 18 17  2  0
 19 20  2  0
 21 22  1  0
 23 22  1  6
 23 25  1  0
 24 23  1  0
 24 19  1  0
 25 26  2  0
 25 27  1  0
M  END
$$$$
