KFS.pdb
     RDKit          3D

 27 27  0  0  1  0  0  0  0  0999 V2000
   28.4126  -20.7376  -17.1363 N   0  0  0  0  0  0  0  0  0  0  0  0
   27.5591  -21.8793  -17.1223 C   0  0  1  0  0  0  0  0  0  0  0  0
   28.2049  -23.1767  -17.4583 C   0  0  0  0  0  0  0  0  0  0  0  0
   29.1559  -23.1680  -18.5995 C   0  0  0  0  0  0  0  0  0  0  0  0
   30.5775  -22.8724  -18.2687 C   0  0  0  0  0  0  0  0  0  0  0  0
   31.4360  -22.8566  -19.5423 C   0  0  0  0  0  0  0  0  0  0  0  0
   31.5747  -21.4885  -19.9577 N   0  0  0  0  0  0  0  0  0  0  0  0
   26.9199  -21.9886  -15.7715 C   0  0  0  0  0  0  0  0  0  0  0  0
   26.1189  -22.9275  -15.5229 O   0  0  0  0  0  0  0  0  0  0  0  0
   27.1723  -21.0653  -14.7196 N   0  0  0  0  0  0  0  0  0  0  0  0
   26.5159  -21.0607  -13.4434 C   0  0  1  0  0  0  0  0  0  0  0  0
   27.3228  -20.4581  -12.3445 C   0  0  0  0  0  0  0  0  0  0  0  0
   26.7251  -20.4267  -11.0318 C   0  0  0  0  0  0  0  0  0  0  0  0
   26.2473  -19.2418  -10.5230 C   0  0  0  0  0  0  0  0  0  0  0  0
   25.6628  -19.1820   -9.2515 C   0  0  0  0  0  0  0  0  0  0  0  0
   25.5573  -20.3199   -8.4851 C   0  0  0  0  0  0  0  0  0  0  0  0
   26.0281  -21.4985   -8.9812 C   0  0  0  0  0  0  0  0  0  0  0  0
   26.5990  -21.5396  -10.2315 C   0  0  0  0  0  0  0  0  0  0  0  0
   25.1200  -20.5691  -13.4982 C   0  0  0  0  0  0  0  0  0  0  0  0
   24.8289  -19.4220  -13.9762 O   0  0  0  0  0  0  0  0  0  0  0  0
   21.9191  -21.4799  -15.3155 O   0  0  0  0  0  0  0  0  0  0  0  0
   21.8615  -21.7986  -13.9662 C   0  0  0  0  0  0  0  0  0  0  0  0
   22.6587  -20.7970  -13.1283 C   0  0  2  0  0  0  0  0  0  0  0  0
   24.0068  -21.3240  -13.0331 N   0  0  0  0  0  0  0  0  0  0  0  0
   22.0832  -20.6990  -11.7818 C   0  0  0  0  0  0  0  0  0  0  0  0
   22.7029  -21.1821  -10.8091 O   0  0  0  0  0  0  0  0  0  0  0  0
   20.8729  -20.0823  -11.5763 O   0  0  0  0  0  0  0  0  0  0  0  0
  2  1  1  1
  2  8  1  0
  3  2  1  0
  3  4  1  0
  4  5  1  0
  6  5  1  0
  6  7  1  0
  8  9  2  0
 10  8  1  0
 10 11  1  0
 11 19  1  0
 12 13  1  0
 11 12  1  1
 13 14  2  0
 14 15  1  0
 16 15  2  0
 17 16  1  0
 18 13  1  0
 18 17  2  0
 19 20  2  0
 21 22  1  0
 23 22  1  6
 23 25  1  0
 24 23  1  0
 24 19  1  0
 25 26  2  0
 25 27  1  0
M  END
$$$$
