KFS.pdb
     RDKit          3D

 27 27  0  0  1  0  0  0  0  0999 V2000
   27.2095  -19.5793  -14.3890 N   0  0  0  0  0  0  0  0  0  0  0  0
   26.7873  -20.8940  -14.7428 C   0  0  1  0  0  0  0  0  0  0  0  0
   27.8390  -21.9456  -14.7059 C   0  0  0  0  0  0  0  0  0  0  0  0
   28.9183  -21.8397  -15.7212 C   0  0  0  0  0  0  0  0  0  0  0  0
   28.5098  -21.3494  -17.0667 C   0  0  0  0  0  0  0  0  0  0  0  0
   29.7183  -21.3015  -18.0137 C   0  0  0  0  0  0  0  0  0  0  0  0
   29.2780  -20.7253  -19.2537 N   0  0  0  0  0  0  0  0  0  0  0  0
   25.6613  -21.2993  -13.8411 C   0  0  0  0  0  0  0  0  0  0  0  0
   25.2096  -22.4739  -13.8788 O   0  0  0  0  0  0  0  0  0  0  0  0
   25.0530  -20.4076  -12.9150 N   0  0  0  0  0  0  0  0  0  0  0  0
   23.9210  -20.7143  -12.0880 C   0  0  1  0  0  0  0  0  0  0  0  0
   23.9309  -20.0321  -10.7627 C   0  0  0  0  0  0  0  0  0  0  0  0
   25.0837  -20.2462   -9.9221 C   0  0  0  0  0  0  0  0  0  0  0  0
   25.5651  -21.5197   -9.7283 C   0  0  0  0  0  0  0  0  0  0  0  0
   26.6821  -21.7569   -8.9170 C   0  0  0  0  0  0  0  0  0  0  0  0
   27.3203  -20.7081   -8.2957 C   0  0  0  0  0  0  0  0  0  0  0  0
   26.8501  -19.4427   -8.4821 C   0  0  0  0  0  0  0  0  0  0  0  0
   25.7524  -19.2275   -9.2818 C   0  0  0  0  0  0  0  0  0  0  0  0
   22.6256  -20.6186  -12.7993 C   0  0  0  0  0  0  0  0  0  0  0  0
   22.2608  -19.5485  -13.3916 O   0  0  0  0  0  0  0  0  0  0  0  0
   20.0696  -23.9106  -13.3024 O   0  0  0  0  0  0  0  0  0  0  0  0
   20.1986  -22.9266  -14.2723 C   0  0  0  0  0  0  0  0  0  0  0  0
   20.4681  -21.5600  -13.6392 C   0  0  2  0  0  0  0  0  0  0  0  0
   21.6983  -21.6948  -12.8824 N   0  0  0  0  0  0  0  0  0  0  0  0
   19.3758  -21.2064  -12.7249 C   0  0  0  0  0  0  0  0  0  0  0  0
   18.2353  -20.9797  -13.1845 O   0  0  0  0  0  0  0  0  0  0  0  0
   19.5904  -21.1224  -11.3706 O   0  0  0  0  0  0  0  0  0  0  0  0
  2  1  1  1
  2  8  1  0
  3  2  1  0
  3  4  1  0
  4  5  1  0
  6  5  1  0
  6  7  1  0
  8  9  2  0
 10  8  1  0
 10 11  1  0
 11 19  1  0
 12 13  1  0
 11 12  1  1
 13 14  2  0
 14 15  1  0
 16 15  2  0
 17 16  1  0
 18 13  1  0
 18 17  2  0
 19 20  2  0
 21 22  1  0
 23 22  1  1
 23 25  1  0
 24 23  1  0
 24 19  1  0
 25 26  2  0
 25 27  1  0
M  END
$$$$
