KFS.pdb
     RDKit          3D

 27 27  0  0  1  0  0  0  0  0999 V2000
   27.3495  -22.8761  -16.8051 N   0  0  0  0  0  0  0  0  0  0  0  0
   27.4477  -21.6347  -16.1115 C   0  0  1  0  0  0  0  0  0  0  0  0
   27.0011  -20.4326  -16.8656 C   0  0  0  0  0  0  0  0  0  0  0  0
   27.9164  -19.9371  -17.9257 C   0  0  0  0  0  0  0  0  0  0  0  0
   28.6652  -20.9756  -18.6863 C   0  0  0  0  0  0  0  0  0  0  0  0
   29.5973  -20.3222  -19.7176 C   0  0  0  0  0  0  0  0  0  0  0  0
   28.8592  -19.2784  -20.3728 N   0  0  0  0  0  0  0  0  0  0  0  0
   26.6646  -21.7293  -14.8375 C   0  0  0  0  0  0  0  0  0  0  0  0
   25.5297  -22.2741  -14.8295 O   0  0  0  0  0  0  0  0  0  0  0  0
   27.1424  -21.2241  -13.5968 N   0  0  0  0  0  0  0  0  0  0  0  0
   26.3902  -21.1738  -12.3757 C   0  0  1  0  0  0  0  0  0  0  0  0
   27.2100  -20.8809  -11.1657 C   0  0  0  0  0  0  0  0  0  0  0  0
   26.5015  -20.6780   -9.9255 C   0  0  0  0  0  0  0  0  0  0  0  0
   25.7511  -21.6977   -9.3886 C   0  0  0  0  0  0  0  0  0  0  0  0
   25.0526  -21.5285   -8.1863 C   0  0  0  0  0  0  0  0  0  0  0  0
   25.1077  -20.3268   -7.5182 C   0  0  0  0  0  0  0  0  0  0  0  0
   25.8488  -19.3108   -8.0429 C   0  0  0  0  0  0  0  0  0  0  0  0
   26.5285  -19.4938   -9.2242 C   0  0  0  0  0  0  0  0  0  0  0  0
   25.1576  -20.3587  -12.4737 C   0  0  0  0  0  0  0  0  0  0  0  0
   25.1986  -19.0969  -12.6613 O   0  0  0  0  0  0  0  0  0  0  0  0
   22.2971  -21.3190  -14.4529 O   0  0  0  0  0  0  0  0  0  0  0  0
   22.2333  -20.0459  -13.9044 C   0  0  0  0  0  0  0  0  0  0  0  0
   22.6772  -20.0532  -12.4403 C   0  0  2  0  0  0  0  0  0  0  0  0
   23.8482  -20.9067  -12.3716 N   0  0  0  0  0  0  0  0  0  0  0  0
   21.6176  -20.6198  -11.5975 C   0  0  0  0  0  0  0  0  0  0  0  0
   21.8364  -21.6685  -10.9528 O   0  0  0  0  0  0  0  0  0  0  0  0
   20.3889  -20.0121  -11.5074 O   0  0  0  0  0  0  0  0  0  0  0  0
  2  1  1  6
  2  8  1  0
  3  2  1  0
  3  4  1  0
  4  5  1  0
  6  5  1  0
  6  7  1  0
  8  9  2  0
 10  8  1  0
 10 11  1  0
 11 19  1  0
 12 13  1  0
 11 12  1  1
 13 14  2  0
 14 15  1  0
 16 15  2  0
 17 16  1  0
 18 13  1  0
 18 17  2  0
 19 20  2  0
 21 22  1  0
 23 22  1  6
 23 25  1  0
 24 23  1  0
 24 19  1  0
 25 26  2  0
 25 27  1  0
M  END
$$$$
