KFS.pdb
     RDKit          3D

 27 27  0  0  1  0  0  0  0  0999 V2000
   27.8425  -20.6337  -16.3060 N   0  0  0  0  0  0  0  0  0  0  0  0
   26.8896  -21.6924  -16.3621 C   0  0  1  0  0  0  0  0  0  0  0  0
   27.3872  -22.9858  -16.9029 C   0  0  0  0  0  0  0  0  0  0  0  0
   28.8190  -23.0330  -17.2963 C   0  0  0  0  0  0  0  0  0  0  0  0
   29.2899  -24.3036  -17.9140 C   0  0  0  0  0  0  0  0  0  0  0  0
   29.1333  -25.4726  -16.9299 C   0  0  0  0  0  0  0  0  0  0  0  0
   29.7097  -26.6376  -17.5415 N   0  0  0  0  0  0  0  0  0  0  0  0
   26.3373  -21.9192  -14.9878 C   0  0  0  0  0  0  0  0  0  0  0  0
   25.4415  -22.7833  -14.7987 O   0  0  0  0  0  0  0  0  0  0  0  0
   26.7792  -21.1932  -13.8474 N   0  0  0  0  0  0  0  0  0  0  0  0
   26.0844  -21.1119  -12.5944 C   0  0  1  0  0  0  0  0  0  0  0  0
   26.9446  -20.7121  -11.4445 C   0  0  0  0  0  0  0  0  0  0  0  0
   26.3048  -20.5871  -10.1576 C   0  0  0  0  0  0  0  0  0  0  0  0
   25.6203  -21.6542   -9.6245 C   0  0  0  0  0  0  0  0  0  0  0  0
   24.9892  -21.5609   -8.3775 C   0  0  0  0  0  0  0  0  0  0  0  0
   25.0456  -20.3879   -7.6605 C   0  0  0  0  0  0  0  0  0  0  0  0
   25.7216  -19.3253   -8.1809 C   0  0  0  0  0  0  0  0  0  0  0  0
   26.3356  -19.4340   -9.4065 C   0  0  0  0  0  0  0  0  0  0  0  0
   24.8080  -20.3651  -12.6733 C   0  0  0  0  0  0  0  0  0  0  0  0
   24.7624  -19.1497  -13.0603 O   0  0  0  0  0  0  0  0  0  0  0  0
   20.6577  -19.7378  -14.1677 O   0  0  0  0  0  0  0  0  0  0  0  0
   21.8960  -20.3231  -13.9447 C   0  0  0  0  0  0  0  0  0  0  0  0
   22.3235  -20.1699  -12.4837 C   0  0  2  0  0  0  0  0  0  0  0  0
   23.5481  -20.9327  -12.3332 N   0  0  0  0  0  0  0  0  0  0  0  0
   21.2951  -20.7294  -11.5987 C   0  0  0  0  0  0  0  0  0  0  0  0
   21.4802  -21.8452  -11.0657 O   0  0  0  0  0  0  0  0  0  0  0  0
   20.1322  -20.0424  -11.3477 O   0  0  0  0  0  0  0  0  0  0  0  0
  2  1  1  1
  2  8  1  0
  3  2  1  0
  3  4  1  0
  4  5  1  0
  6  5  1  0
  6  7  1  0
  8  9  2  0
 10  8  1  0
 10 11  1  0
 11 19  1  0
 12 13  1  0
 11 12  1  1
 13 14  2  0
 14 15  1  0
 16 15  2  0
 17 16  1  0
 18 13  1  0
 18 17  2  0
 19 20  2  0
 21 22  1  0
 23 22  1  6
 23 25  1  0
 24 23  1  0
 24 19  1  0
 25 26  2  0
 25 27  1  0
M  END
$$$$
