FCF.pdb
     RDKit          3D

 29 30  0  0  1  0  0  0  0  0999 V2000
    6.0929  -17.6574   20.5947 N   0  0  0  0  0  0  0  0  0  0  0  0
    6.8590  -16.7305   21.4035 C   0  0  1  0  0  0  0  0  0  0  0  0
    6.0537  -15.4522   21.5185 C   0  0  0  0  0  0  0  0  0  0  0  0
    6.8001  -14.2881   20.9881 C   0  0  0  0  0  0  0  0  0  0  0  0
    7.7163  -13.5970   21.7597 C   0  0  0  0  0  0  0  0  0  0  0  0
    8.4124  -12.5046   21.2525 C   0  0  0  0  0  0  0  0  0  0  0  0
    8.2134  -12.0751   19.9679 C   0  0  0  0  0  0  0  0  0  0  0  0
    7.3046  -12.7483   19.1789 C   0  0  0  0  0  0  0  0  0  0  0  0
    6.6144  -13.8318   19.6825 C   0  0  0  0  0  0  0  0  0  0  0  0
    7.0765  -17.3593   22.7269 C   0  0  0  0  0  0  0  0  0  0  0  0
    6.1277  -17.8852   23.3593 O   0  0  0  0  0  0  0  0  0  0  0  0
    8.3651  -17.4029   23.3529 N   0  0  0  0  0  0  0  0  0  0  0  0
    8.5606  -17.8914   24.7017 C   0  0  1  0  0  0  0  0  0  0  0  0
    9.2013  -19.2593   24.6467 C   0  0  0  0  0  0  0  0  0  0  0  0
    9.5637  -19.8513   26.3225 S   0  0  0  0  0  0  0  0  0  0  0  0
    9.3402  -16.9410   25.5241 C   0  0  0  0  0  0  0  0  0  0  0  0
   10.4655  -16.5580   25.0996 O   0  0  0  0  0  0  0  0  0  0  0  0
    8.8805  -16.4408   26.7675 N   0  0  0  0  0  0  0  0  0  0  0  0
    9.7250  -15.6899   27.6866 C   0  0  1  0  0  0  0  0  0  0  0  0
    9.0134  -14.4506   28.1392 C   0  0  0  0  0  0  0  0  0  0  0  0
    8.5509  -13.5633   27.0639 C   0  0  0  0  0  0  0  0  0  0  0  0
    9.2293  -12.3811   26.7451 C   0  0  0  0  0  0  0  0  0  0  0  0
    8.8015  -11.5602   25.7267 C   0  0  0  0  0  0  0  0  0  0  0  0
    7.6894  -11.8540   24.9691 C   0  0  0  0  0  0  0  0  0  0  0  0
    7.0100  -13.0130   25.2687 C   0  0  0  0  0  0  0  0  0  0  0  0
    7.4325  -13.8381   26.2856 C   0  0  0  0  0  0  0  0  0  0  0  0
   10.1101  -16.5109   28.8517 C   0  0  0  0  0  0  0  0  0  0  0  0
   10.9105  -16.0361   29.6902 O   0  0  0  0  0  0  0  0  0  0  0  0
    9.6317  -17.7991   29.0798 O   0  0  0  0  0  0  0  0  0  0  0  0
  2  1  1  6
  2 10  1  0
  2  3  1  0
  4  3  1  0
  4  9  1  0
  5  4  2  0
  6  5  1  0
  6  7  2  0
  7  8  1  0
  8  9  2  0
 10 11  2  0
 12 13  1  0
 12 10  1  0
 14 15  1  0
 13 14  1  6
 16 13  1  0
 16 17  2  0
 18 16  1  0
 19 18  1  0
 19 27  1  0
 19 20  1  1
 21 20  1  0
 21 22  2  0
 23 22  1  0
 24 23  2  0
 25 26  2  0
 25 24  1  0
 26 21  1  0
 27 28  2  0
 27 29  1  0
M  END
$$$$
