FCF.pdb
     RDKit          3D

 29 30  0  0  1  0  0  0  0  0999 V2000
    7.0087  -17.3554   19.9322 N   0  0  0  0  0  0  0  0  0  0  0  0
    8.3958  -17.1723   20.3097 C   0  0  1  0  0  0  0  0  0  0  0  0
    8.8568  -15.8520   19.7265 C   0  0  0  0  0  0  0  0  0  0  0  0
    8.1261  -14.7087   20.3204 C   0  0  0  0  0  0  0  0  0  0  0  0
    7.1685  -14.8868   21.3020 C   0  0  0  0  0  0  0  0  0  0  0  0
    6.4874  -13.8065   21.8536 C   0  0  0  0  0  0  0  0  0  0  0  0
    6.7430  -12.5261   21.4420 C   0  0  0  0  0  0  0  0  0  0  0  0
    7.6938  -12.3232   20.4642 C   0  0  0  0  0  0  0  0  0  0  0  0
    8.3691  -13.3951   19.9173 C   0  0  0  0  0  0  0  0  0  0  0  0
    8.4643  -17.1687   21.7894 C   0  0  0  0  0  0  0  0  0  0  0  0
    7.4226  -17.0991   22.4870 O   0  0  0  0  0  0  0  0  0  0  0  0
    9.7069  -17.2435   22.4999 N   0  0  0  0  0  0  0  0  0  0  0  0
    9.8091  -17.7910   23.8362 C   0  0  1  0  0  0  0  0  0  0  0  0
   10.7872  -18.9434   23.8275 C   0  0  0  0  0  0  0  0  0  0  0  0
    9.9503  -20.4742   23.3315 S   0  0  0  0  0  0  0  0  0  0  0  0
   10.1720  -16.7565   24.8290 C   0  0  0  0  0  0  0  0  0  0  0  0
   11.0866  -15.9364   24.5387 O   0  0  0  0  0  0  0  0  0  0  0  0
    9.5391  -16.6446   26.0916 N   0  0  0  0  0  0  0  0  0  0  0  0
    9.9799  -15.7179   27.1255 C   0  0  1  0  0  0  0  0  0  0  0  0
    8.8004  -14.9915   27.6984 C   0  0  0  0  0  0  0  0  0  0  0  0
    8.3210  -13.8498   26.9082 C   0  0  0  0  0  0  0  0  0  0  0  0
    9.1884  -13.0916   26.1132 C   0  0  0  0  0  0  0  0  0  0  0  0
    8.7326  -12.0321   25.3623 C   0  0  0  0  0  0  0  0  0  0  0  0
    7.4063  -11.6611   25.3511 C   0  0  0  0  0  0  0  0  0  0  0  0
    6.5389  -12.3959   26.1272 C   0  0  0  0  0  0  0  0  0  0  0  0
    6.9882  -13.4563   26.8802 C   0  0  0  0  0  0  0  0  0  0  0  0
   10.7148  -16.4207   28.1959 C   0  0  0  0  0  0  0  0  0  0  0  0
   10.6763  -17.6721   28.2372 O   0  0  0  0  0  0  0  0  0  0  0  0
   11.4590  -15.7694   29.1769 O   0  0  0  0  0  0  0  0  0  0  0  0
  2  1  1  1
  2 10  1  0
  2  3  1  0
  4  3  1  0
  4  9  1  0
  5  4  2  0
  6  5  1  0
  6  7  2  0
  7  8  1  0
  8  9  2  0
 10 11  2  0
 12 13  1  0
 12 10  1  0
 14 15  1  0
 13 14  1  6
 16 13  1  0
 16 17  2  0
 18 16  1  0
 19 18  1  0
 19 27  1  0
 19 20  1  1
 21 20  1  0
 21 22  2  0
 23 22  1  0
 24 23  2  0
 25 26  2  0
 25 24  1  0
 26 21  1  0
 27 28  2  0
 27 29  1  0
M  END
$$$$
