FCF.pdb
     RDKit          3D

 29 30  0  0  1  0  0  0  0  0999 V2000
    5.8969  -18.6248   22.2494 N   0  0  0  0  0  0  0  0  0  0  0  0
    6.5555  -17.3798   22.5905 C   0  0  1  0  0  0  0  0  0  0  0  0
    6.0533  -16.9574   23.9562 C   0  0  0  0  0  0  0  0  0  0  0  0
    6.5939  -15.6363   24.3514 C   0  0  0  0  0  0  0  0  0  0  0  0
    7.1129  -14.7538   23.4218 C   0  0  0  0  0  0  0  0  0  0  0  0
    7.6185  -13.5151   23.8029 C   0  0  0  0  0  0  0  0  0  0  0  0
    7.6195  -13.1264   25.1155 C   0  0  0  0  0  0  0  0  0  0  0  0
    7.1071  -13.9895   26.0611 C   0  0  0  0  0  0  0  0  0  0  0  0
    6.6057  -15.2181   25.6826 C   0  0  0  0  0  0  0  0  0  0  0  0
    8.0156  -17.6290   22.5992 C   0  0  0  0  0  0  0  0  0  0  0  0
    8.5155  -18.5324   23.3137 O   0  0  0  0  0  0  0  0  0  0  0  0
    8.9291  -16.8634   21.8031 N   0  0  0  0  0  0  0  0  0  0  0  0
   10.3577  -17.0981   21.8129 C   0  0  1  0  0  0  0  0  0  0  0  0
   10.9749  -16.4575   20.5908 C   0  0  0  0  0  0  0  0  0  0  0  0
   10.7485  -14.6585   20.6423 S   0  0  0  0  0  0  0  0  0  0  0  0
   10.9844  -16.6286   23.0676 C   0  0  0  0  0  0  0  0  0  0  0  0
   11.3936  -15.4361   23.1280 O   0  0  0  0  0  0  0  0  0  0  0  0
   11.1462  -17.4575   24.2053 N   0  0  0  0  0  0  0  0  0  0  0  0
   11.1718  -16.9449   25.5685 C   0  0  1  0  0  0  0  0  0  0  0  0
    9.9101  -16.1878   25.8545 C   0  0  0  0  0  0  0  0  0  0  0  0
    9.9646  -15.2920   27.0174 C   0  0  0  0  0  0  0  0  0  0  0  0
   10.5732  -15.6818   28.2161 C   0  0  0  0  0  0  0  0  0  0  0  0
   10.6357  -14.8338   29.2984 C   0  0  0  0  0  0  0  0  0  0  0  0
   10.1064  -13.5628   29.2627 C   0  0  0  0  0  0  0  0  0  0  0  0
    9.5040  -13.1627   28.0915 C   0  0  0  0  0  0  0  0  0  0  0  0
    9.4383  -14.0055   27.0059 C   0  0  0  0  0  0  0  0  0  0  0  0
   11.3442  -18.0366   26.5475 C   0  0  0  0  0  0  0  0  0  0  0  0
   10.7243  -19.1110   26.3730 O   0  0  0  0  0  0  0  0  0  0  0  0
   12.1650  -17.9447   27.6692 O   0  0  0  0  0  0  0  0  0  0  0  0
  2  1  1  1
  2 10  1  0
  2  3  1  0
  4  3  1  0
  4  9  1  0
  5  4  2  0
  6  5  1  0
  6  7  2  0
  7  8  1  0
  8  9  2  0
 10 11  2  0
 12 13  1  0
 12 10  1  0
 14 15  1  0
 13 14  1  6
 16 13  1  0
 16 17  2  0
 18 16  1  0
 19 18  1  0
 19 27  1  0
 19 20  1  1
 21 20  1  0
 21 22  2  0
 23 22  1  0
 24 23  2  0
 25 26  2  0
 25 24  1  0
 26 21  1  0
 27 28  2  0
 27 29  1  0
M  END
$$$$
