FCF.pdb
     RDKit          3D

 29 30  0  0  1  0  0  0  0  0999 V2000
    5.8197  -17.5010   24.6163 N   0  0  0  0  0  0  0  0  0  0  0  0
    6.7402  -16.4443   24.2470 C   0  0  1  0  0  0  0  0  0  0  0  0
    7.2164  -15.7866   25.5262 C   0  0  0  0  0  0  0  0  0  0  0  0
    6.9474  -14.3301   25.5234 C   0  0  0  0  0  0  0  0  0  0  0  0
    5.8508  -13.7905   26.1705 C   0  0  0  0  0  0  0  0  0  0  0  0
    5.6066  -12.4211   26.1621 C   0  0  0  0  0  0  0  0  0  0  0  0
    6.4463  -11.5582   25.5107 C   0  0  0  0  0  0  0  0  0  0  0  0
    7.5467  -12.0726   24.8580 C   0  0  0  0  0  0  0  0  0  0  0  0
    7.7885  -13.4311   24.8667 C   0  0  0  0  0  0  0  0  0  0  0  0
    7.8608  -17.0621   23.5011 C   0  0  0  0  0  0  0  0  0  0  0  0
    8.4547  -18.0758   23.9442 O   0  0  0  0  0  0  0  0  0  0  0  0
    8.3253  -16.5449   22.2476 N   0  0  0  0  0  0  0  0  0  0  0  0
    9.6675  -16.7777   21.7574 C   0  0  1  0  0  0  0  0  0  0  0  0
    9.7987  -16.1911   20.3706 C   0  0  0  0  0  0  0  0  0  0  0  0
   11.4786  -16.4473   19.7362 S   0  0  0  0  0  0  0  0  0  0  0  0
   10.6918  -16.2528   22.6862 C   0  0  0  0  0  0  0  0  0  0  0  0
   11.0060  -15.0326   22.6106 O   0  0  0  0  0  0  0  0  0  0  0  0
   11.3366  -17.0581   23.6574 N   0  0  0  0  0  0  0  0  0  0  0  0
   11.6633  -16.5857   24.9960 C   0  0  1  0  0  0  0  0  0  0  0  0
   10.4294  -16.0673   25.6711 C   0  0  0  0  0  0  0  0  0  0  0  0
   10.6397  -15.4833   27.0024 C   0  0  0  0  0  0  0  0  0  0  0  0
   10.7398  -16.2828   28.1471 C   0  0  0  0  0  0  0  0  0  0  0  0
   10.9522  -15.7327   29.3906 C   0  0  0  0  0  0  0  0  0  0  0  0
   11.0774  -14.3738   29.5772 C   0  0  0  0  0  0  0  0  0  0  0  0
   10.9817  -13.5723   28.4622 C   0  0  0  0  0  0  0  0  0  0  0  0
   10.7695  -14.1160   27.2162 C   0  0  0  0  0  0  0  0  0  0  0  0
   12.2762  -17.6567   25.8067 C   0  0  0  0  0  0  0  0  0  0  0  0
   13.2661  -17.3832   26.5239 O   0  0  0  0  0  0  0  0  0  0  0  0
   11.8154  -18.9711   25.8238 O   0  0  0  0  0  0  0  0  0  0  0  0
  2  1  1  1
  2 10  1  0
  2  3  1  0
  4  3  1  0
  4  9  1  0
  5  4  2  0
  6  5  1  0
  6  7  2  0
  7  8  1  0
  8  9  2  0
 10 11  2  0
 12 13  1  0
 12 10  1  0
 14 15  1  0
 13 14  1  6
 16 13  1  0
 16 17  2  0
 18 16  1  0
 19 18  1  0
 19 27  1  0
 19 20  1  1
 21 20  1  0
 21 22  2  0
 23 22  1  0
 24 23  2  0
 25 26  2  0
 25 24  1  0
 26 21  1  0
 27 28  2  0
 27 29  1  0
M  END
$$$$
