FCF.pdb
     RDKit          3D

 29 30  0  0  1  0  0  0  0  0999 V2000
   10.3017  -16.0054   18.1216 N   0  0  0  0  0  0  0  0  0  0  0  0
    9.9926  -17.0044   19.1250 C   0  0  1  0  0  0  0  0  0  0  0  0
   11.0577  -18.0788   19.0422 C   0  0  0  0  0  0  0  0  0  0  0  0
   10.8576  -19.1253   20.0710 C   0  0  0  0  0  0  0  0  0  0  0  0
    9.8399  -20.0566   19.9747 C   0  0  0  0  0  0  0  0  0  0  0  0
    9.6600  -21.0358   20.9463 C   0  0  0  0  0  0  0  0  0  0  0  0
   10.4873  -21.1110   22.0345 C   0  0  0  0  0  0  0  0  0  0  0  0
   11.5096  -20.1931   22.1527 C   0  0  0  0  0  0  0  0  0  0  0  0
   11.6876  -19.2221   21.1886 C   0  0  0  0  0  0  0  0  0  0  0  0
    9.9955  -16.3337   20.4457 C   0  0  0  0  0  0  0  0  0  0  0  0
   10.9479  -15.5942   20.7958 O   0  0  0  0  0  0  0  0  0  0  0  0
    8.9256  -16.4884   21.3868 N   0  0  0  0  0  0  0  0  0  0  0  0
    8.9254  -15.8390   22.6808 C   0  0  1  0  0  0  0  0  0  0  0  0
    7.5033  -15.5044   23.0686 C   0  0  0  0  0  0  0  0  0  0  0  0
    7.4519  -14.8396   24.7554 S   0  0  0  0  0  0  0  0  0  0  0  0
    9.6079  -16.6562   23.7073 C   0  0  0  0  0  0  0  0  0  0  0  0
    9.3677  -17.8947   23.7501 O   0  0  0  0  0  0  0  0  0  0  0  0
   10.5194  -16.1114   24.6453 N   0  0  0  0  0  0  0  0  0  0  0  0
   11.2328  -16.9186   25.6258 C   0  0  1  0  0  0  0  0  0  0  0  0
   12.0672  -16.0367   26.5051 C   0  0  0  0  0  0  0  0  0  0  0  0
   11.3142  -15.1251   27.3767 C   0  0  0  0  0  0  0  0  0  0  0  0
   11.2450  -15.3230   28.7607 C   0  0  0  0  0  0  0  0  0  0  0  0
   10.5512  -14.4579   29.5758 C   0  0  0  0  0  0  0  0  0  0  0  0
    9.8905  -13.3563   29.0786 C   0  0  0  0  0  0  0  0  0  0  0  0
    9.9481  -13.1461   27.7195 C   0  0  0  0  0  0  0  0  0  0  0  0
   10.6401  -14.0072   26.8992 C   0  0  0  0  0  0  0  0  0  0  0  0
   10.2980  -17.7164   26.4440 C   0  0  0  0  0  0  0  0  0  0  0  0
   10.7601  -18.5875   27.2166 O   0  0  0  0  0  0  0  0  0  0  0  0
    8.9145  -17.5584   26.4098 O   0  0  0  0  0  0  0  0  0  0  0  0
  2  1  1  6
  2 10  1  0
  2  3  1  0
  4  3  1  0
  4  9  1  0
  5  4  2  0
  6  5  1  0
  6  7  2  0
  7  8  1  0
  8  9  2  0
 10 11  2  0
 12 13  1  0
 12 10  1  0
 14 15  1  0
 13 14  1  1
 16 13  1  0
 16 17  2  0
 18 16  1  0
 19 18  1  0
 19 27  1  0
 19 20  1  1
 21 20  1  0
 21 22  2  0
 23 22  1  0
 24 23  2  0
 25 26  2  0
 25 24  1  0
 26 21  1  0
 27 28  2  0
 27 29  1  0
M  END
$$$$
