FCF.pdb
     RDKit          3D

 29 30  0  0  1  0  0  0  0  0999 V2000
    7.4468  -17.3485   19.0142 N   0  0  0  0  0  0  0  0  0  0  0  0
    8.4900  -17.2950   20.0188 C   0  0  1  0  0  0  0  0  0  0  0  0
    9.2867  -16.0282   19.7820 C   0  0  0  0  0  0  0  0  0  0  0  0
    8.4825  -14.8172   20.0653 C   0  0  0  0  0  0  0  0  0  0  0  0
    8.0153  -13.9994   19.0526 C   0  0  0  0  0  0  0  0  0  0  0  0
    7.2607  -12.8640   19.3288 C   0  0  0  0  0  0  0  0  0  0  0  0
    6.9538  -12.5163   20.6169 C   0  0  0  0  0  0  0  0  0  0  0  0
    7.4085  -13.3162   21.6440 C   0  0  0  0  0  0  0  0  0  0  0  0
    8.1570  -14.4425   21.3694 C   0  0  0  0  0  0  0  0  0  0  0  0
    7.8366  -17.2882   21.3481 C   0  0  0  0  0  0  0  0  0  0  0  0
    6.6139  -17.5461   21.4716 O   0  0  0  0  0  0  0  0  0  0  0  0
    8.5530  -16.9908   22.5534 N   0  0  0  0  0  0  0  0  0  0  0  0
    8.0506  -17.3403   23.8654 C   0  0  1  0  0  0  0  0  0  0  0  0
    7.7572  -18.8225   23.9064 C   0  0  0  0  0  0  0  0  0  0  0  0
    7.1125  -19.2906   25.5360 S   0  0  0  0  0  0  0  0  0  0  0  0
    8.9782  -16.9236   24.9393 C   0  0  0  0  0  0  0  0  0  0  0  0
   10.2134  -17.1320   24.7841 O   0  0  0  0  0  0  0  0  0  0  0  0
    8.5427  -16.3007   26.1351 N   0  0  0  0  0  0  0  0  0  0  0  0
    9.4455  -15.9321   27.2172 C   0  0  1  0  0  0  0  0  0  0  0  0
    8.7968  -14.9077   28.0985 C   0  0  0  0  0  0  0  0  0  0  0  0
    8.1361  -13.8007   27.3944 C   0  0  0  0  0  0  0  0  0  0  0  0
    6.7828  -13.8590   27.0414 C   0  0  0  0  0  0  0  0  0  0  0  0
    6.1637  -12.8133   26.3953 C   0  0  0  0  0  0  0  0  0  0  0  0
    6.8366  -11.6587   26.0621 C   0  0  0  0  0  0  0  0  0  0  0  0
    8.1684  -11.5840   26.4018 C   0  0  0  0  0  0  0  0  0  0  0  0
    8.7932  -12.6259   27.0478 C   0  0  0  0  0  0  0  0  0  0  0  0
    9.8383  -17.1128   28.0119 C   0  0  0  0  0  0  0  0  0  0  0  0
    9.2231  -18.1906   27.8413 O   0  0  0  0  0  0  0  0  0  0  0  0
   10.8653  -17.1026   28.9529 O   0  0  0  0  0  0  0  0  0  0  0  0
  2  1  1  6
  2 10  1  0
  2  3  1  0
  4  3  1  0
  4  9  1  0
  5  4  2  0
  6  5  1  0
  6  7  2  0
  7  8  1  0
  8  9  2  0
 10 11  2  0
 12 13  1  0
 12 10  1  0
 14 15  1  0
 13 14  1  6
 16 13  1  0
 16 17  2  0
 18 16  1  0
 19 18  1  0
 19 27  1  0
 19 20  1  1
 21 20  1  0
 21 22  2  0
 23 22  1  0
 24 23  2  0
 25 26  2  0
 25 24  1  0
 26 21  1  0
 27 28  2  0
 27 29  1  0
M  END
$$$$
