FCF.pdb
     RDKit          3D

 29 30  0  0  1  0  0  0  0  0999 V2000
    6.5041  -18.1540   19.5504 N   0  0  0  0  0  0  0  0  0  0  0  0
    7.0690  -16.9965   20.2147 C   0  0  1  0  0  0  0  0  0  0  0  0
    6.2805  -15.7831   19.7659 C   0  0  0  0  0  0  0  0  0  0  0  0
    6.7827  -14.5417   20.3988 C   0  0  0  0  0  0  0  0  0  0  0  0
    7.7106  -13.7291   19.7736 C   0  0  0  0  0  0  0  0  0  0  0  0
    8.1764  -12.5650   20.3762 C   0  0  0  0  0  0  0  0  0  0  0  0
    7.7304  -12.1832   21.6129 C   0  0  0  0  0  0  0  0  0  0  0  0
    6.8048  -12.9774   22.2564 C   0  0  0  0  0  0  0  0  0  0  0  0
    6.3432  -14.1320   21.6581 C   0  0  0  0  0  0  0  0  0  0  0  0
    6.9529  -17.2129   21.6754 C   0  0  0  0  0  0  0  0  0  0  0  0
    5.8310  -17.2582   22.2376 O   0  0  0  0  0  0  0  0  0  0  0  0
    8.0991  -17.3808   22.5195 N   0  0  0  0  0  0  0  0  0  0  0  0
    7.9956  -17.5152   23.9572 C   0  0  1  0  0  0  0  0  0  0  0  0
    7.8308  -18.9759   24.3092 C   0  0  0  0  0  0  0  0  0  0  0  0
    6.0763  -19.3717   24.5434 S   0  0  0  0  0  0  0  0  0  0  0  0
    9.1463  -16.8985   24.6523 C   0  0  0  0  0  0  0  0  0  0  0  0
   10.2711  -16.9048   24.0794 O   0  0  0  0  0  0  0  0  0  0  0  0
    9.0431  -16.3008   25.9327 N   0  0  0  0  0  0  0  0  0  0  0  0
   10.1988  -15.9844   26.7610 C   0  0  1  0  0  0  0  0  0  0  0  0
   10.3913  -14.4991   26.8253 C   0  0  0  0  0  0  0  0  0  0  0  0
    9.2338  -13.6968   26.4079 C   0  0  0  0  0  0  0  0  0  0  0  0
    9.2230  -12.3029   26.5347 C   0  0  0  0  0  0  0  0  0  0  0  0
    8.1426  -11.5534   26.1282 C   0  0  0  0  0  0  0  0  0  0  0  0
    7.0191  -12.1292   25.5776 C   0  0  0  0  0  0  0  0  0  0  0  0
    7.0125  -13.4993   25.4453 C   0  0  0  0  0  0  0  0  0  0  0  0
    8.0894  -14.2543   25.8496 C   0  0  0  0  0  0  0  0  0  0  0  0
   10.0500  -16.5385   28.1213 C   0  0  0  0  0  0  0  0  0  0  0  0
    8.9547  -17.0485   28.4519 O   0  0  0  0  0  0  0  0  0  0  0  0
   11.0666  -16.5293   29.0737 O   0  0  0  0  0  0  0  0  0  0  0  0
  2  1  1  6
  2 10  1  0
  2  3  1  0
  4  3  1  0
  4  9  1  0
  5  4  2  0
  6  5  1  0
  6  7  2  0
  7  8  1  0
  8  9  2  0
 10 11  2  0
 12 13  1  0
 12 10  1  0
 14 15  1  0
 13 14  1  6
 16 13  1  0
 16 17  2  0
 18 16  1  0
 19 18  1  0
 19 27  1  0
 19 20  1  1
 21 20  1  0
 21 22  2  0
 23 22  1  0
 24 23  2  0
 25 26  2  0
 25 24  1  0
 26 21  1  0
 27 28  2  0
 27 29  1  0
M  END
$$$$
