FCF.pdb
     RDKit          3D

 29 30  0  0  1  0  0  0  0  0999 V2000
-434350.7188-4175076.5000678027.6875 N   0  0  0  0  0  0  0  0  0  0  0  0
-434351.4688-4175077.2500678028.5625 C   0  0  1  0  0  0  0  0  0  0  0  0
-434351.0000-4175076.7500678029.9375 C   0  0  0  0  0  0  0  0  0  0  0  0
-434350.5000-4175078.7500678029.7500 C   0  0  0  0  0  0  0  0  0  0  0  0
-434350.9062-4175079.0000678030.7500 C   0  0  0  0  0  0  0  0  0  0  0  0
-434350.4688-4175080.7500678030.7500 C   0  0  0  0  0  0  0  0  0  0  0  0
-434349.3125-4175081.7500678030.3125 C   0  0  0  0  0  0  0  0  0  0  0  0
-434348.6250-4175080.5000678029.4375 C   0  0  0  0  0  0  0  0  0  0  0  0
-434349.1250-4175079.2500678029.3750 C   0  0  0  0  0  0  0  0  0  0  0  0
-434352.9688-4175076.7500678028.5625 C   0  0  0  0  0  0  0  0  0  0  0  0
-434353.2500-4175075.7500678027.3750 O   0  0  0  0  0  0  0  0  0  0  0  0
-434353.9375-4175076.5000678029.5000 N   0  0  0  0  0  0  0  0  0  0  0  0
-434354.0625-4175077.5000678030.0625 C   0  0  1  0  0  0  0  0  0  0  0  0
-434353.5312-4175078.0000678031.6250 C   0  0  0  0  0  0  0  0  0  0  0  0
-434351.9688-4175078.7500678031.3750 S   0  0  0  0  0  0  0  0  0  0  0  0
-434355.5625-4175078.2500678030.3125 C   0  0  0  0  0  0  0  0  0  0  0  0
-434356.4375-4175077.5000678030.3750 O   0  0  0  0  0  0  0  0  0  0  0  0
-434355.9375-4175079.2500678030.1250 N   0  0  0  0  0  0  0  0  0  0  0  0
-434357.2500-4175080.2500678029.5625 C   0  0  1  0  0  0  0  0  0  0  0  0
-434357.0938-4175080.7500678028.1250 C   0  0  0  0  0  0  0  0  0  0  0  0
-434356.1875-4175080.0000678027.3125 C   0  0  0  0  0  0  0  0  0  0  0  0
-434356.2188-4175080.7500678025.8750 C   0  0  0  0  0  0  0  0  0  0  0  0
-434355.3438-4175080.0000678025.1875 C   0  0  0  0  0  0  0  0  0  0  0  0
-434354.5312-4175078.7500678025.5000 C   0  0  0  0  0  0  0  0  0  0  0  0
-434354.2500-4175078.5000678026.9375 C   0  0  0  0  0  0  0  0  0  0  0  0
-434355.2188-4175078.7500678027.8750 C   0  0  0  0  0  0  0  0  0  0  0  0
-434358.1250-4175080.7500678030.5000 C   0  0  0  0  0  0  0  0  0  0  0  0
-434357.2188-4175082.0000678031.3750 O   0  0  0  0  0  0  0  0  0  0  0  0
-434359.3438-4175081.0000678030.6875 O   0  0  0  0  0  0  0  0  0  0  0  0
  2  1  1  6
  2 10  1  0
  2  3  1  0
  4  3  1  0
  4  9  1  0
  5  4  2  0
  6  5  1  0
  6  7  2  0
  7  8  1  0
  8  9  2  0
 10 11  2  0
 12 13  1  0
 12 10  1  0
 14 15  1  0
 13 14  1  1
 16 13  1  0
 16 17  2  0
 18 16  1  0
 19 18  1  0
 19 27  1  0
 19 20  1  1
 21 20  1  0
 21 22  2  0
 23 22  1  0
 24 23  2  0
 25 26  2  0
 25 24  1  0
 26 21  1  0
 27 28  2  0
 27 29  1  0
M  END
$$$$
