FCF.pdb
     RDKit          3D

 29 30  0  0  1  0  0  0  0  0999 V2000
    5.4070  -19.4539   22.0734 N   0  0  0  0  0  0  0  0  0  0  0  0
    5.7847  -18.3852   22.9764 C   0  0  1  0  0  0  0  0  0  0  0  0
    6.1216  -19.0148   24.3127 C   0  0  0  0  0  0  0  0  0  0  0  0
    6.6930  -18.0240   25.2537 C   0  0  0  0  0  0  0  0  0  0  0  0
    6.0051  -16.8795   25.6132 C   0  0  0  0  0  0  0  0  0  0  0  0
    6.5502  -15.9548   26.4979 C   0  0  0  0  0  0  0  0  0  0  0  0
    7.7906  -16.1469   27.0445 C   0  0  0  0  0  0  0  0  0  0  0  0
    8.4961  -17.2809   26.7012 C   0  0  0  0  0  0  0  0  0  0  0  0
    7.9548  -18.1979   25.8236 C   0  0  0  0  0  0  0  0  0  0  0  0
    6.9543  -17.6909   22.3899 C   0  0  0  0  0  0  0  0  0  0  0  0
    7.9429  -18.3348   21.9602 O   0  0  0  0  0  0  0  0  0  0  0  0
    7.0236  -16.2634   22.2808 N   0  0  0  0  0  0  0  0  0  0  0  0
    8.1591  -15.5802   21.6977 C   0  0  1  0  0  0  0  0  0  0  0  0
    7.6888  -14.2971   21.0518 C   0  0  0  0  0  0  0  0  0  0  0  0
    6.2915  -14.6269   19.9433 S   0  0  0  0  0  0  0  0  0  0  0  0
    9.2307  -15.3472   22.6900 C   0  0  0  0  0  0  0  0  0  0  0  0
   10.3244  -14.8578   22.2929 O   0  0  0  0  0  0  0  0  0  0  0  0
    9.0850  -15.6486   24.0667 N   0  0  0  0  0  0  0  0  0  0  0  0
   10.1494  -15.4565   25.0424 C   0  0  1  0  0  0  0  0  0  0  0  0
    9.5798  -14.9258   26.3235 C   0  0  0  0  0  0  0  0  0  0  0  0
    8.7628  -13.7121   26.1928 C   0  0  0  0  0  0  0  0  0  0  0  0
    9.0533  -12.7312   25.2374 C   0  0  0  0  0  0  0  0  0  0  0  0
    8.2762  -11.6027   25.1080 C   0  0  0  0  0  0  0  0  0  0  0  0
    7.1766  -11.3768   25.9059 C   0  0  0  0  0  0  0  0  0  0  0  0
    6.8760  -12.3313   26.8510 C   0  0  0  0  0  0  0  0  0  0  0  0
    7.6487  -13.4618   26.9855 C   0  0  0  0  0  0  0  0  0  0  0  0
   10.8799  -16.7149   25.2921 C   0  0  0  0  0  0  0  0  0  0  0  0
   10.4974  -17.7618   24.7205 O   0  0  0  0  0  0  0  0  0  0  0  0
   11.9840  -16.8118   26.1359 O   0  0  0  0  0  0  0  0  0  0  0  0
  2  1  1  6
  2 10  1  0
  2  3  1  0
  4  3  1  0
  4  9  1  0
  5  4  2  0
  6  5  1  0
  6  7  2  0
  7  8  1  0
  8  9  2  0
 10 11  2  0
 12 13  1  0
 12 10  1  0
 14 15  1  0
 13 14  1  1
 16 13  1  0
 16 17  2  0
 18 16  1  0
 19 18  1  0
 19 27  1  0
 19 20  1  1
 21 20  1  0
 21 22  2  0
 23 22  1  0
 24 23  2  0
 25 26  2  0
 25 24  1  0
 26 21  1  0
 27 28  2  0
 27 29  1  0
M  END
$$$$
