FCF.pdb
     RDKit          3D

 29 30  0  0  1  0  0  0  0  0999 V2000
    6.8502  -20.4871   22.2087 N   0  0  0  0  0  0  0  0  0  0  0  0
    6.4234  -19.2197   22.7672 C   0  0  1  0  0  0  0  0  0  0  0  0
    6.5735  -19.3108   24.2722 C   0  0  0  0  0  0  0  0  0  0  0  0
    5.7063  -20.3667   24.8437 C   0  0  0  0  0  0  0  0  0  0  0  0
    6.2012  -21.3291   25.7047 C   0  0  0  0  0  0  0  0  0  0  0  0
    5.3786  -22.3170   26.2363 C   0  0  0  0  0  0  0  0  0  0  0  0
    4.0467  -22.3701   25.9242 C   0  0  0  0  0  0  0  0  0  0  0  0
    3.5299  -21.4211   25.0676 C   0  0  0  0  0  0  0  0  0  0  0  0
    4.3463  -20.4414   24.5405 C   0  0  0  0  0  0  0  0  0  0  0  0
    7.2873  -18.1608   22.1958 C   0  0  0  0  0  0  0  0  0  0  0  0
    8.4416  -18.4213   21.7760 O   0  0  0  0  0  0  0  0  0  0  0  0
    6.8607  -16.7965   22.0909 N   0  0  0  0  0  0  0  0  0  0  0  0
    7.7768  -15.7131   21.8029 C   0  0  1  0  0  0  0  0  0  0  0  0
    6.9895  -14.5012   21.3598 C   0  0  0  0  0  0  0  0  0  0  0  0
    8.1141  -13.1831   20.8231 S   0  0  0  0  0  0  0  0  0  0  0  0
    8.6590  -15.4175   22.9525 C   0  0  0  0  0  0  0  0  0  0  0  0
    9.6158  -14.6110   22.7869 O   0  0  0  0  0  0  0  0  0  0  0  0
    8.4786  -15.9991   24.2319 N   0  0  0  0  0  0  0  0  0  0  0  0
    9.2322  -15.5877   25.4086 C   0  0  1  0  0  0  0  0  0  0  0  0
    8.3084  -15.4297   26.5786 C   0  0  0  0  0  0  0  0  0  0  0  0
    7.3196  -14.3503   26.4573 C   0  0  0  0  0  0  0  0  0  0  0  0
    7.6948  -13.0026   26.5041 C   0  0  0  0  0  0  0  0  0  0  0  0
    6.7672  -11.9942   26.3746 C   0  0  0  0  0  0  0  0  0  0  0  0
    5.4267  -12.2530   26.1930 C   0  0  0  0  0  0  0  0  0  0  0  0
    5.0397  -13.5731   26.1443 C   0  0  0  0  0  0  0  0  0  0  0  0
    5.9621  -14.5859   26.2730 C   0  0  0  0  0  0  0  0  0  0  0  0
   10.2978  -16.5584   25.7280 C   0  0  0  0  0  0  0  0  0  0  0  0
   11.0609  -16.3254   26.6936 O   0  0  0  0  0  0  0  0  0  0  0  0
   10.5104  -17.7342   25.0119 O   0  0  0  0  0  0  0  0  0  0  0  0
  2  1  1  6
  2 10  1  0
  2  3  1  0
  4  3  1  0
  4  9  1  0
  5  4  2  0
  6  5  1  0
  6  7  2  0
  7  8  1  0
  8  9  2  0
 10 11  2  0
 12 13  1  0
 12 10  1  0
 14 15  1  0
 13 14  1  1
 16 13  1  0
 16 17  2  0
 18 16  1  0
 19 18  1  0
 19 27  1  0
 19 20  1  1
 21 20  1  0
 21 22  2  0
 23 22  1  0
 24 23  2  0
 25 26  2  0
 25 24  1  0
 26 21  1  0
 27 28  2  0
 27 29  1  0
M  END
$$$$
