FCF.pdb
     RDKit          3D

 29 30  0  0  1  0  0  0  0  0999 V2000
    6.7782  -17.6900   19.5058 N   0  0  0  0  0  0  0  0  0  0  0  0
    7.4926  -16.6327   20.1930 C   0  0  1  0  0  0  0  0  0  0  0  0
    6.7041  -15.3526   20.0049 C   0  0  0  0  0  0  0  0  0  0  0  0
    7.3844  -14.1961   20.6321 C   0  0  0  0  0  0  0  0  0  0  0  0
    7.2110  -13.8856   21.9684 C   0  0  0  0  0  0  0  0  0  0  0  0
    7.8543  -12.7971   22.5484 C   0  0  0  0  0  0  0  0  0  0  0  0
    8.6838  -11.9935   21.8133 C   0  0  0  0  0  0  0  0  0  0  0  0
    8.8726  -12.2829   20.4784 C   0  0  0  0  0  0  0  0  0  0  0  0
    8.2342  -13.3628   19.9036 C   0  0  0  0  0  0  0  0  0  0  0  0
    7.5898  -17.0087   21.6224 C   0  0  0  0  0  0  0  0  0  0  0  0
    6.6095  -17.5032   22.2315 O   0  0  0  0  0  0  0  0  0  0  0  0
    8.7925  -16.8319   22.3818 N   0  0  0  0  0  0  0  0  0  0  0  0
    8.9527  -17.3565   23.7217 C   0  0  1  0  0  0  0  0  0  0  0  0
    9.5800  -18.7296   23.6459 C   0  0  0  0  0  0  0  0  0  0  0  0
    9.8194  -19.4040   25.3126 S   0  0  0  0  0  0  0  0  0  0  0  0
    9.7237  -16.4360   24.5851 C   0  0  0  0  0  0  0  0  0  0  0  0
   10.7203  -15.8387   24.0916 O   0  0  0  0  0  0  0  0  0  0  0  0
    9.3941  -16.1942   25.9417 N   0  0  0  0  0  0  0  0  0  0  0  0
   10.2193  -15.3890   26.8319 C   0  0  1  0  0  0  0  0  0  0  0  0
    9.3607  -14.7287   27.8682 C   0  0  0  0  0  0  0  0  0  0  0  0
    8.2292  -13.9520   27.3448 C   0  0  0  0  0  0  0  0  0  0  0  0
    8.3293  -12.5754   27.1116 C   0  0  0  0  0  0  0  0  0  0  0  0
    7.2715  -11.8541   26.6067 C   0  0  0  0  0  0  0  0  0  0  0  0
    6.0633  -12.4424   26.3046 C   0  0  0  0  0  0  0  0  0  0  0  0
    5.9472  -13.7957   26.5276 C   0  0  0  0  0  0  0  0  0  0  0  0
    7.0009  -14.5226   27.0321 C   0  0  0  0  0  0  0  0  0  0  0  0
   11.2628  -16.2076   27.4806 C   0  0  0  0  0  0  0  0  0  0  0  0
   11.2041  -17.4549   27.3809 O   0  0  0  0  0  0  0  0  0  0  0  0
   12.3236  -15.6715   28.2069 O   0  0  0  0  0  0  0  0  0  0  0  0
  2  1  1  6
  2 10  1  0
  2  3  1  0
  4  3  1  0
  4  9  1  0
  5  4  2  0
  6  5  1  0
  6  7  2  0
  7  8  1  0
  8  9  2  0
 10 11  2  0
 12 13  1  0
 12 10  1  0
 14 15  1  0
 13 14  1  6
 16 13  1  0
 16 17  2  0
 18 16  1  0
 19 18  1  0
 19 27  1  0
 19 20  1  1
 21 20  1  0
 21 22  2  0
 23 22  1  0
 24 23  2  0
 25 26  2  0
 25 24  1  0
 26 21  1  0
 27 28  2  0
 27 29  1  0
M  END
$$$$
