FCF.pdb
     RDKit          3D

 29 30  0  0  1  0  0  0  0  0999 V2000
    6.9835  -21.3812   23.7099 N   0  0  0  0  0  0  0  0  0  0  0  0
    6.6188  -20.2672   22.8578 C   0  0  1  0  0  0  0  0  0  0  0  0
    5.5875  -19.4428   23.6012 C   0  0  0  0  0  0  0  0  0  0  0  0
    6.1660  -18.8024   24.8049 C   0  0  0  0  0  0  0  0  0  0  0  0
    6.6045  -19.5451   25.8858 C   0  0  0  0  0  0  0  0  0  0  0  0
    7.1463  -18.9344   27.0121 C   0  0  0  0  0  0  0  0  0  0  0  0
    7.2643  -17.5726   27.0889 C   0  0  0  0  0  0  0  0  0  0  0  0
    6.8340  -16.8105   26.0233 C   0  0  0  0  0  0  0  0  0  0  0  0
    6.2965  -17.4168   24.9064 C   0  0  0  0  0  0  0  0  0  0  0  0
    7.8476  -19.4865   22.5846 C   0  0  0  0  0  0  0  0  0  0  0  0
    8.9503  -19.8152   23.0871 O   0  0  0  0  0  0  0  0  0  0  0  0
    7.8482  -18.3268   21.7423 N   0  0  0  0  0  0  0  0  0  0  0  0
    9.0467  -17.5619   21.4695 C   0  0  1  0  0  0  0  0  0  0  0  0
    8.8754  -16.8183   20.1648 C   0  0  0  0  0  0  0  0  0  0  0  0
    7.1377  -16.3543   19.9294 S   0  0  0  0  0  0  0  0  0  0  0  0
    9.3894  -16.6574   22.5883 C   0  0  0  0  0  0  0  0  0  0  0  0
    8.5090  -15.8558   23.0074 O   0  0  0  0  0  0  0  0  0  0  0  0
   10.6620  -16.6499   23.2111 N   0  0  0  0  0  0  0  0  0  0  0  0
   10.9596  -15.8755   24.4085 C   0  0  1  0  0  0  0  0  0  0  0  0
    9.9799  -16.2116   25.4921 C   0  0  0  0  0  0  0  0  0  0  0  0
   10.1849  -15.5080   26.7651 C   0  0  0  0  0  0  0  0  0  0  0  0
    9.6563  -14.2319   26.9917 C   0  0  0  0  0  0  0  0  0  0  0  0
    9.8376  -13.5824   28.1914 C   0  0  0  0  0  0  0  0  0  0  0  0
   10.5447  -14.1479   29.2293 C   0  0  0  0  0  0  0  0  0  0  0  0
   11.0716  -15.4028   29.0240 C   0  0  0  0  0  0  0  0  0  0  0  0
   10.8939  -16.0576   27.8269 C   0  0  0  0  0  0  0  0  0  0  0  0
   12.3390  -16.1198   24.8746 C   0  0  0  0  0  0  0  0  0  0  0  0
   12.9214  -15.2309   25.5377 O   0  0  0  0  0  0  0  0  0  0  0  0
   13.0432  -17.2943   24.6193 O   0  0  0  0  0  0  0  0  0  0  0  0
  2  1  1  1
  2 10  1  0
  2  3  1  0
  4  3  1  0
  4  9  1  0
  5  4  2  0
  6  5  1  0
  6  7  2  0
  7  8  1  0
  8  9  2  0
 10 11  2  0
 12 13  1  0
 12 10  1  0
 14 15  1  0
 13 14  1  6
 16 13  1  0
 16 17  2  0
 18 16  1  0
 19 18  1  0
 19 27  1  0
 19 20  1  1
 21 20  1  0
 21 22  2  0
 23 22  1  0
 24 23  2  0
 25 26  2  0
 25 24  1  0
 26 21  1  0
 27 28  2  0
 27 29  1  0
M  END
$$$$
