FCF.pdb
     RDKit          3D

 29 30  0  0  1  0  0  0  0  0999 V2000
    7.9029  -17.5363   19.4545 N   0  0  0  0  0  0  0  0  0  0  0  0
    8.2419  -16.4896   20.3978 C   0  0  1  0  0  0  0  0  0  0  0  0
    7.0739  -15.5258   20.4489 C   0  0  0  0  0  0  0  0  0  0  0  0
    7.3325  -14.4044   21.3812 C   0  0  0  0  0  0  0  0  0  0  0  0
    7.0743  -14.5087   22.7357 C   0  0  0  0  0  0  0  0  0  0  0  0
    7.3205  -13.4497   23.6035 C   0  0  0  0  0  0  0  0  0  0  0  0
    7.8286  -12.2643   23.1444 C   0  0  0  0  0  0  0  0  0  0  0  0
    8.0943  -12.1362   21.7973 C   0  0  0  0  0  0  0  0  0  0  0  0
    7.8499  -13.1870   20.9370 C   0  0  0  0  0  0  0  0  0  0  0  0
    8.4809  -17.1274   21.7131 C   0  0  0  0  0  0  0  0  0  0  0  0
    7.7188  -18.0263   22.1465 O   0  0  0  0  0  0  0  0  0  0  0  0
    9.5811  -16.7600   22.5551 N   0  0  0  0  0  0  0  0  0  0  0  0
    9.9007  -17.4710   23.7750 C   0  0  1  0  0  0  0  0  0  0  0  0
   10.9023  -18.5604   23.4673 C   0  0  0  0  0  0  0  0  0  0  0  0
   12.2993  -17.8829   22.5294 S   0  0  0  0  0  0  0  0  0  0  0  0
   10.3760  -16.5575   24.8366 C   0  0  0  0  0  0  0  0  0  0  0  0
   11.1929  -15.6463   24.5272 O   0  0  0  0  0  0  0  0  0  0  0  0
    9.9555  -16.6591   26.1859 N   0  0  0  0  0  0  0  0  0  0  0  0
   10.5326  -15.8663   27.2631 C   0  0  1  0  0  0  0  0  0  0  0  0
    9.4698  -15.0288   27.9082 C   0  0  0  0  0  0  0  0  0  0  0  0
    8.7239  -14.1495   26.9982 C   0  0  0  0  0  0  0  0  0  0  0  0
    9.0776  -12.8068   26.8212 C   0  0  0  0  0  0  0  0  0  0  0  0
    8.3857  -11.9901   25.9560 C   0  0  0  0  0  0  0  0  0  0  0  0
    7.3137  -12.4454   25.2208 C   0  0  0  0  0  0  0  0  0  0  0  0
    6.9520  -13.7637   25.3823 C   0  0  0  0  0  0  0  0  0  0  0  0
    7.6396  -14.5853   26.2455 C   0  0  0  0  0  0  0  0  0  0  0  0
   11.1850  -16.7264   28.2702 C   0  0  0  0  0  0  0  0  0  0  0  0
   11.0099  -17.9655   28.2144 O   0  0  0  0  0  0  0  0  0  0  0  0
   11.9949  -16.2387   29.2932 O   0  0  0  0  0  0  0  0  0  0  0  0
  2  1  1  6
  2 10  1  0
  2  3  1  0
  4  3  1  0
  4  9  1  0
  5  4  2  0
  6  5  1  0
  6  7  2  0
  7  8  1  0
  8  9  2  0
 10 11  2  0
 12 13  1  0
 12 10  1  0
 14 15  1  0
 13 14  1  6
 16 13  1  0
 16 17  2  0
 18 16  1  0
 19 18  1  0
 19 27  1  0
 19 20  1  1
 21 20  1  0
 21 22  2  0
 23 22  1  0
 24 23  2  0
 25 26  2  0
 25 24  1  0
 26 21  1  0
 27 28  2  0
 27 29  1  0
M  END
$$$$
