FCF.pdb
     RDKit          3D

 29 30  0  0  1  0  0  0  0  0999 V2000
    5.5747  -18.3406   24.5717 N   0  0  0  0  0  0  0  0  0  0  0  0
    6.1433  -17.0085   24.6219 C   0  0  1  0  0  0  0  0  0  0  0  0
    6.5539  -16.7415   26.0557 C   0  0  0  0  0  0  0  0  0  0  0  0
    7.0819  -15.3681   26.2251 C   0  0  0  0  0  0  0  0  0  0  0  0
    6.2594  -14.3072   26.5572 C   0  0  0  0  0  0  0  0  0  0  0  0
    6.7647  -13.0207   26.7140 C   0  0  0  0  0  0  0  0  0  0  0  0
    8.0980  -12.7603   26.5442 C   0  0  0  0  0  0  0  0  0  0  0  0
    8.9383  -13.8022   26.2127 C   0  0  0  0  0  0  0  0  0  0  0  0
    8.4364  -15.0781   26.0573 C   0  0  0  0  0  0  0  0  0  0  0  0
    7.3075  -16.9798   23.7066 C   0  0  0  0  0  0  0  0  0  0  0  0
    8.0201  -17.9985   23.5309 O   0  0  0  0  0  0  0  0  0  0  0  0
    7.6821  -15.8032   22.9788 N   0  0  0  0  0  0  0  0  0  0  0  0
    8.8036  -15.7766   22.0636 C   0  0  1  0  0  0  0  0  0  0  0  0
    8.7266  -14.5251   21.2195 C   0  0  0  0  0  0  0  0  0  0  0  0
    7.0727  -14.3575   20.4938 S   0  0  0  0  0  0  0  0  0  0  0  0
   10.0961  -15.8945   22.7728 C   0  0  0  0  0  0  0  0  0  0  0  0
   11.1564  -15.6241   22.1434 O   0  0  0  0  0  0  0  0  0  0  0  0
   10.1979  -16.2974   24.1273 N   0  0  0  0  0  0  0  0  0  0  0  0
   11.4647  -16.3818   24.8415 C   0  0  1  0  0  0  0  0  0  0  0  0
   11.2183  -16.7052   26.2843 C   0  0  0  0  0  0  0  0  0  0  0  0
   10.5077  -15.6708   27.0477 C   0  0  0  0  0  0  0  0  0  0  0  0
   10.2762  -14.3963   26.5174 C   0  0  0  0  0  0  0  0  0  0  0  0
    9.5965  -13.4348   27.2299 C   0  0  0  0  0  0  0  0  0  0  0  0
    9.1094  -13.6713   28.4963 C   0  0  0  0  0  0  0  0  0  0  0  0
    9.3279  -14.9197   29.0335 C   0  0  0  0  0  0  0  0  0  0  0  0
   10.0066  -15.8853   28.3264 C   0  0  0  0  0  0  0  0  0  0  0  0
   12.3534  -17.3939   24.2368 C   0  0  0  0  0  0  0  0  0  0  0  0
   13.5309  -17.4930   24.6527 O   0  0  0  0  0  0  0  0  0  0  0  0
   11.9584  -18.2578   23.2180 O   0  0  0  0  0  0  0  0  0  0  0  0
  2  1  1  1
  2 10  1  0
  2  3  1  0
  4  3  1  0
  4  9  1  0
  5  4  2  0
  6  5  1  0
  6  7  2  0
  7  8  1  0
  8  9  2  0
 10 11  2  0
 12 13  1  0
 12 10  1  0
 14 15  1  0
 13 14  1  1
 16 13  1  0
 16 17  2  0
 18 16  1  0
 19 18  1  0
 19 27  1  0
 19 20  1  1
 21 20  1  0
 21 22  2  0
 23 22  1  0
 24 23  2  0
 25 26  2  0
 25 24  1  0
 26 21  1  0
 27 28  2  0
 27 29  1  0
M  END
$$$$
