WQD.pdb
     RDKit          3D

 32 33  0  0  1  0  0  0  0  0999 V2000
   17.1216  -30.1306   -3.5015 N   0  0  0  0  0  0  0  0  0  0  0  0
   18.5602  -29.9397   -3.4978 C   0  0  1  0  0  0  0  0  0  0  0  0
   18.9965  -28.8631   -2.5745 C   0  0  0  0  0  0  0  0  0  0  0  0
   18.3084  -27.5828   -2.6940 C   0  0  0  0  0  0  0  0  0  0  0  0
   18.3616  -26.8047   -3.8588 C   0  0  0  0  0  0  0  0  0  0  0  0
   17.6231  -25.6997   -3.6769 N   0  0  0  0  0  0  0  0  0  0  0  0
   17.0736  -25.6998   -2.4362 C   0  0  0  0  0  0  0  0  0  0  0  0
   16.2567  -24.7903   -1.8040 C   0  0  0  0  0  0  0  0  0  0  0  0
   15.8341  -25.0275   -0.5181 C   0  0  0  0  0  0  0  0  0  0  0  0
   16.2576  -26.1890    0.0895 C   0  0  0  0  0  0  0  0  0  0  0  0
   17.0754  -27.0983   -0.5455 C   0  0  0  0  0  0  0  0  0  0  0  0
   17.5093  -26.8741   -1.8412 C   0  0  0  0  0  0  0  0  0  0  0  0
   19.3222  -31.1934   -3.4114 C   0  0  0  0  0  0  0  0  0  0  0  0
   19.0557  -32.0066   -2.4900 O   0  0  0  0  0  0  0  0  0  0  0  0
   24.4028  -34.4986   -5.2756 N   0  0  0  0  0  0  0  0  0  0  0  0
   24.4873  -33.0576   -5.3393 C   0  0  0  0  0  0  0  0  0  0  0  0
   25.6389  -32.5796   -5.2585 O   0  0  0  0  0  0  0  0  0  0  0  0
   23.2591  -32.2568   -5.4955 C   0  0  0  0  0  0  0  0  0  0  0  0
   21.9873  -33.0175   -5.4539 C   0  0  0  0  0  0  0  0  0  0  0  0
   21.1055  -32.7587   -4.2700 C   0  0  2  0  0  0  0  0  0  0  0  0
   20.3566  -31.5434   -4.3289 N   0  0  0  0  0  0  0  0  0  0  0  0
   21.8986  -32.8108   -2.9920 C   0  0  0  0  0  0  0  0  0  0  0  0
   22.0063  -31.8096   -2.2389 O   0  0  0  0  0  0  0  0  0  0  0  0
   22.5587  -34.0111   -2.5933 N   0  0  0  0  0  0  0  0  0  0  0  0
   23.1990  -34.0689   -1.3186 C   0  0  1  0  0  0  0  0  0  0  0  0
   22.2116  -33.7762   -0.1969 C   0  0  0  0  0  0  0  0  0  0  0  0
   22.8102  -34.0026    1.1373 C   0  0  0  0  0  0  0  0  0  0  0  0
   23.6840  -33.1985    1.5225 O   0  0  0  0  0  0  0  0  0  0  0  0
   23.8228  -35.4024   -1.1142 C   0  0  0  0  0  0  0  0  0  0  0  0
   24.7777  -35.5314   -0.1138 O   0  0  0  0  0  0  0  0  0  0  0  0
   22.4691  -35.0400    1.9828 O   0  0  0  0  0  0  0  0  0  0  0  0
   23.5309  -36.4061   -1.7952 O   0  0  0  0  0  0  0  0  0  0  0  0
  2  1  1  1
  2  3  1  0
  3  4  1  0
  4  5  2  0
  5  6  1  0
  7  6  1  0
  8  7  2  0
  9  8  1  0
 10 11  1  0
 10  9  2  0
 11 12  2  0
 12  4  1  0
 12  7  1  0
 13 21  1  0
 13  2  1  0
 14 13  2  0
 16 17  2  0
 16 15  1  0
 18 16  1  0
 19 18  1  0
 20 21  1  0
 20 19  1  6
 22 20  1  0
 23 22  2  0
 24 22  1  0
 25 29  1  0
 25 24  1  0
 26 27  1  0
 25 26  1  1
 27 28  2  0
 29 30  1  0
 31 27  1  0
 32 29  2  0
M  END
$$$$
