WQD.pdb
     RDKit          3D

 32 33  0  0  1  0  0  0  0  0999 V2000
   20.8551  -26.7509  -12.9440 N   0  0  0  0  0  0  0  0  0  0  0  0
   20.1554  -25.6230  -12.3572 C   0  0  1  0  0  0  0  0  0  0  0  0
   19.8628  -24.5511  -13.3407 C   0  0  0  0  0  0  0  0  0  0  0  0
   20.7403  -24.4751  -14.5031 C   0  0  0  0  0  0  0  0  0  0  0  0
   22.0808  -24.8830  -14.4630 C   0  0  0  0  0  0  0  0  0  0  0  0
   22.6232  -24.7117  -15.6779 N   0  0  0  0  0  0  0  0  0  0  0  0
   21.7033  -24.2044  -16.5368 C   0  0  0  0  0  0  0  0  0  0  0  0
   21.7930  -23.8634  -17.8672 C   0  0  0  0  0  0  0  0  0  0  0  0
   20.6954  -23.3549  -18.5192 C   0  0  0  0  0  0  0  0  0  0  0  0
   19.5333  -23.2076  -17.7945 C   0  0  0  0  0  0  0  0  0  0  0  0
   19.4458  -23.5498  -16.4625 C   0  0  0  0  0  0  0  0  0  0  0  0
   20.5425  -24.0640  -15.7914 C   0  0  0  0  0  0  0  0  0  0  0  0
   19.0325  -26.0099  -11.4916 C   0  0  0  0  0  0  0  0  0  0  0  0
   18.4612  -27.1124  -11.6903 O   0  0  0  0  0  0  0  0  0  0  0  0
   18.0272  -24.0653   -5.5671 N   0  0  0  0  0  0  0  0  0  0  0  0
   18.8844  -25.1239   -6.0491 C   0  0  0  0  0  0  0  0  0  0  0  0
   19.7510  -25.5266   -5.2440 O   0  0  0  0  0  0  0  0  0  0  0  0
   18.6966  -25.6574   -7.4108 C   0  0  0  0  0  0  0  0  0  0  0  0
   17.5525  -25.0956   -8.1681 C   0  0  0  0  0  0  0  0  0  0  0  0
   17.4354  -25.5284   -9.5982 C   0  0  2  0  0  0  0  0  0  0  0  0
   18.5530  -25.1953  -10.4235 N   0  0  0  0  0  0  0  0  0  0  0  0
   16.1678  -25.0001  -10.2138 C   0  0  0  0  0  0  0  0  0  0  0  0
   16.1028  -23.8449  -10.7061 O   0  0  0  0  0  0  0  0  0  0  0  0
   14.9897  -25.8037  -10.2574 N   0  0  0  0  0  0  0  0  0  0  0  0
   13.8318  -25.3143  -10.9342 C   0  0  1  0  0  0  0  0  0  0  0  0
   12.9862  -26.4616  -11.4703 C   0  0  0  0  0  0  0  0  0  0  0  0
   11.7280  -25.9797  -12.0822 C   0  0  0  0  0  0  0  0  0  0  0  0
   10.6560  -26.3044  -11.5310 O   0  0  0  0  0  0  0  0  0  0  0  0
   13.0211  -24.4655  -10.0223 C   0  0  0  0  0  0  0  0  0  0  0  0
   13.3683  -24.4328   -8.6778 O   0  0  0  0  0  0  0  0  0  0  0  0
   11.6593  -25.1977  -13.2185 O   0  0  0  0  0  0  0  0  0  0  0  0
   12.0485  -23.7846  -10.4054 O   0  0  0  0  0  0  0  0  0  0  0  0
  2  1  1  6
  2  3  1  0
  3  4  1  0
  4  5  2  0
  5  6  1  0
  7  6  1  0
  8  7  2  0
  9  8  1  0
 10 11  1  0
 10  9  2  0
 11 12  2  0
 12  4  1  0
 12  7  1  0
 13 21  1  0
 13  2  1  0
 14 13  2  0
 16 17  2  0
 16 15  1  0
 18 16  1  0
 19 18  1  0
 20 21  1  0
 20 19  1  1
 22 20  1  0
 23 22  2  0
 24 22  1  0
 25 29  1  0
 25 24  1  0
 26 27  1  0
 25 26  1  1
 27 28  2  0
 29 30  1  0
 31 27  1  0
 32 29  2  0
M  END
$$$$
