WQD.pdb
     RDKit          3D

 32 33  0  0  1  0  0  0  0  0999 V2000
   27.0951  -22.0547  -10.1511 N   0  0  0  0  0  0  0  0  0  0  0  0
   26.2800  -20.9377   -9.7107 C   0  0  1  0  0  0  0  0  0  0  0  0
   27.0773  -19.8534   -9.0857 C   0  0  0  0  0  0  0  0  0  0  0  0
   28.1276  -20.2656   -8.1617 C   0  0  0  0  0  0  0  0  0  0  0  0
   29.2201  -21.0468   -8.5630 C   0  0  0  0  0  0  0  0  0  0  0  0
   30.0210  -21.2487   -7.5059 N   0  0  0  0  0  0  0  0  0  0  0  0
   29.5135  -20.6357   -6.4069 C   0  0  0  0  0  0  0  0  0  0  0  0
   29.9725  -20.5668   -5.1113 C   0  0  0  0  0  0  0  0  0  0  0  0
   29.2552  -19.8729   -4.1666 C   0  0  0  0  0  0  0  0  0  0  0  0
   28.0859  -19.2668   -4.5704 C   0  0  0  0  0  0  0  0  0  0  0  0
   27.6283  -19.3370   -5.8683 C   0  0  0  0  0  0  0  0  0  0  0  0
   28.3398  -20.0317   -6.8319 C   0  0  0  0  0  0  0  0  0  0  0  0
   25.2894  -20.5011  -10.7046 C   0  0  0  0  0  0  0  0  0  0  0  0
   25.1052  -19.2698  -10.8815 O   0  0  0  0  0  0  0  0  0  0  0  0
   25.5705  -24.0505  -14.1519 N   0  0  0  0  0  0  0  0  0  0  0  0
   26.2338  -22.7964  -14.4259 C   0  0  0  0  0  0  0  0  0  0  0  0
   27.4382  -22.8810  -14.7478 O   0  0  0  0  0  0  0  0  0  0  0  0
   25.4837  -21.5313  -14.3209 C   0  0  0  0  0  0  0  0  0  0  0  0
   24.0662  -21.6582  -13.9058 C   0  0  0  0  0  0  0  0  0  0  0  0
   23.7049  -21.0203  -12.5986 C   0  0  2  0  0  0  0  0  0  0  0  0
   24.5201  -21.4085  -11.4914 N   0  0  0  0  0  0  0  0  0  0  0  0
   22.2540  -21.2534  -12.2736 C   0  0  0  0  0  0  0  0  0  0  0  0
   21.8975  -21.8276  -11.2133 O   0  0  0  0  0  0  0  0  0  0  0  0
   21.2294  -20.8249  -13.1692 N   0  0  0  0  0  0  0  0  0  0  0  0
   19.8642  -20.8943  -12.7574 C   0  0  1  0  0  0  0  0  0  0  0  0
   19.3635  -19.5333  -12.2928 C   0  0  0  0  0  0  0  0  0  0  0  0
   17.9235  -19.5625  -11.9530 C   0  0  0  0  0  0  0  0  0  0  0  0
   17.5177  -20.5016  -11.2375 O   0  0  0  0  0  0  0  0  0  0  0  0
   19.0149  -21.3985  -13.8681 C   0  0  0  0  0  0  0  0  0  0  0  0
   17.8063  -22.0020  -13.5453 O   0  0  0  0  0  0  0  0  0  0  0  0
   17.0009  -18.6244  -12.3725 O   0  0  0  0  0  0  0  0  0  0  0  0
   19.3347  -21.3059  -15.0705 O   0  0  0  0  0  0  0  0  0  0  0  0
  2  1  1  6
  2  3  1  0
  3  4  1  0
  4  5  2  0
  5  6  1  0
  7  6  1  0
  8  7  2  0
  9  8  1  0
 10 11  1  0
 10  9  2  0
 11 12  2  0
 12  4  1  0
 12  7  1  0
 13 21  1  0
 13  2  1  0
 14 13  2  0
 16 17  2  0
 16 15  1  0
 18 16  1  0
 19 18  1  0
 20 21  1  0
 20 19  1  6
 22 20  1  0
 23 22  2  0
 24 22  1  0
 25 29  1  0
 25 24  1  0
 26 27  1  0
 25 26  1  6
 27 28  2  0
 29 30  1  0
 31 27  1  0
 32 29  2  0
M  END
$$$$
