WQD.pdb
     RDKit          3D

 32 33  0  0  1  0  0  0  0  0999 V2000
   28.7011  -20.9991   -9.6417 N   0  0  0  0  0  0  0  0  0  0  0  0
   27.2772  -20.7382   -9.7431 C   0  0  1  0  0  0  0  0  0  0  0  0
   26.8351  -19.6110   -8.8852 C   0  0  0  0  0  0  0  0  0  0  0  0
   27.5749  -19.4060   -7.6452 C   0  0  0  0  0  0  0  0  0  0  0  0
   28.4513  -18.3277   -7.4603 C   0  0  0  0  0  0  0  0  0  0  0  0
   28.9672  -18.3947   -6.2237 N   0  0  0  0  0  0  0  0  0  0  0  0
   28.4749  -19.4747   -5.5662 C   0  0  0  0  0  0  0  0  0  0  0  0
   28.7104  -19.9510   -4.2966 C   0  0  0  0  0  0  0  0  0  0  0  0
   28.0770  -21.0913   -3.8644 C   0  0  0  0  0  0  0  0  0  0  0  0
   27.2184  -21.7166   -4.7416 C   0  0  0  0  0  0  0  0  0  0  0  0
   26.9840  -21.2379   -6.0124 C   0  0  0  0  0  0  0  0  0  0  0  0
   27.6139  -20.0899   -6.4624 C   0  0  0  0  0  0  0  0  0  0  0  0
   26.7780  -20.7137  -11.1252 C   0  0  0  0  0  0  0  0  0  0  0  0
   27.4599  -20.1356  -12.0096 O   0  0  0  0  0  0  0  0  0  0  0  0
   23.0986  -24.3851  -14.7397 N   0  0  0  0  0  0  0  0  0  0  0  0
   23.4832  -24.6249  -13.3677 C   0  0  0  0  0  0  0  0  0  0  0  0
   22.9251  -25.5947  -12.8116 O   0  0  0  0  0  0  0  0  0  0  0  0
   24.4790  -23.7505  -12.7213 C   0  0  0  0  0  0  0  0  0  0  0  0
   24.9664  -22.6163  -13.5424 C   0  0  0  0  0  0  0  0  0  0  0  0
   25.0311  -21.2869  -12.8537 C   0  0  2  0  0  0  0  0  0  0  0  0
   25.5501  -21.3206  -11.5230 N   0  0  0  0  0  0  0  0  0  0  0  0
   23.6844  -20.6151  -12.8618 C   0  0  0  0  0  0  0  0  0  0  0  0
   22.9118  -20.6697  -11.8713 O   0  0  0  0  0  0  0  0  0  0  0  0
   23.2401  -19.8887  -14.0066 N   0  0  0  0  0  0  0  0  0  0  0  0
   21.9361  -19.3075  -14.0056 C   0  0  1  0  0  0  0  0  0  0  0  0
   21.7242  -18.4379  -15.2375 C   0  0  0  0  0  0  0  0  0  0  0  0
   20.3933  -17.7910  -15.2331 C   0  0  0  0  0  0  0  0  0  0  0  0
   20.0060  -17.2735  -14.1651 O   0  0  0  0  0  0  0  0  0  0  0  0
   20.8977  -20.3692  -13.9455 C   0  0  0  0  0  0  0  0  0  0  0  0
   19.9241  -20.2768  -12.9591 O   0  0  0  0  0  0  0  0  0  0  0  0
   19.5530  -17.7213  -16.3269 O   0  0  0  0  0  0  0  0  0  0  0  0
   20.8593  -21.3344  -14.7350 O   0  0  0  0  0  0  0  0  0  0  0  0
  2  1  1  6
  2  3  1  0
  3  4  1  0
  4  5  2  0
  5  6  1  0
  7  6  1  0
  8  7  2  0
  9  8  1  0
 10 11  1  0
 10  9  2  0
 11 12  2  0
 12  4  1  0
 12  7  1  0
 13 21  1  0
 13  2  1  0
 14 13  2  0
 16 17  2  0
 16 15  1  0
 18 16  1  0
 19 18  1  0
 20 21  1  0
 20 19  1  1
 22 20  1  0
 23 22  2  0
 24 22  1  0
 25 29  1  0
 25 24  1  0
 26 27  1  0
 25 26  1  6
 27 28  2  0
 29 30  1  0
 31 27  1  0
 32 29  2  0
M  END
$$$$
