WQD.pdb
     RDKit          3D

 32 33  0  0  1  0  0  0  0  0999 V2000
   28.3565  -20.5383   -9.4826 N   0  0  0  0  0  0  0  0  0  0  0  0
   26.9338  -20.8170   -9.4171 C   0  0  1  0  0  0  0  0  0  0  0  0
   26.2510  -20.0763   -8.3275 C   0  0  0  0  0  0  0  0  0  0  0  0
   27.0883  -19.6216   -7.2234 C   0  0  0  0  0  0  0  0  0  0  0  0
   27.6404  -18.3339   -7.1773 C   0  0  0  0  0  0  0  0  0  0  0  0
   28.3427  -18.2031   -6.0418 N   0  0  0  0  0  0  0  0  0  0  0  0
   28.2875  -19.3503   -5.3194 C   0  0  0  0  0  0  0  0  0  0  0  0
   28.8460  -19.6893   -4.1080 C   0  0  0  0  0  0  0  0  0  0  0  0
   28.6388  -20.9432   -3.5853 C   0  0  0  0  0  0  0  0  0  0  0  0
   27.8656  -21.8196   -4.3146 C   0  0  0  0  0  0  0  0  0  0  0  0
   27.3073  -21.4780   -5.5272 C   0  0  0  0  0  0  0  0  0  0  0  0
   27.5062  -20.2184   -6.0670 C   0  0  0  0  0  0  0  0  0  0  0  0
   26.2633  -20.7779  -10.7242 C   0  0  0  0  0  0  0  0  0  0  0  0
   26.3585  -19.7398  -11.4275 O   0  0  0  0  0  0  0  0  0  0  0  0
   24.9407  -25.6259  -14.6779 N   0  0  0  0  0  0  0  0  0  0  0  0
   24.2449  -24.5050  -15.2671 C   0  0  0  0  0  0  0  0  0  0  0  0
   23.7009  -24.7257  -16.3701 O   0  0  0  0  0  0  0  0  0  0  0  0
   24.2095  -23.2105  -14.5620 C   0  0  0  0  0  0  0  0  0  0  0  0
   24.8377  -23.1936  -13.2193 C   0  0  0  0  0  0  0  0  0  0  0  0
   24.8713  -21.8651  -12.5264 C   0  0  2  0  0  0  0  0  0  0  0  0
   25.5053  -21.8675  -11.2461 N   0  0  0  0  0  0  0  0  0  0  0  0
   23.4863  -21.2876  -12.4116 C   0  0  0  0  0  0  0  0  0  0  0  0
   22.7591  -21.5066  -11.4095 O   0  0  0  0  0  0  0  0  0  0  0  0
   22.9522  -20.4654  -13.4481 N   0  0  0  0  0  0  0  0  0  0  0  0
   21.6785  -19.8467  -13.2661 C   0  0  1  0  0  0  0  0  0  0  0  0
   21.3589  -18.9041  -14.4186 C   0  0  0  0  0  0  0  0  0  0  0  0
   20.0616  -18.2188  -14.2265 C   0  0  0  0  0  0  0  0  0  0  0  0
   19.1029  -18.9024  -13.8118 O   0  0  0  0  0  0  0  0  0  0  0  0
   20.6163  -20.8788  -13.1414 C   0  0  0  0  0  0  0  0  0  0  0  0
   20.6446  -21.9559  -14.0180 O   0  0  0  0  0  0  0  0  0  0  0  0
   19.8400  -16.8783  -14.4742 O   0  0  0  0  0  0  0  0  0  0  0  0
   19.7052  -20.8238  -12.2910 O   0  0  0  0  0  0  0  0  0  0  0  0
  2  1  1  6
  2  3  1  0
  3  4  1  0
  4  5  2  0
  5  6  1  0
  7  6  1  0
  8  7  2  0
  9  8  1  0
 10 11  1  0
 10  9  2  0
 11 12  2  0
 12  4  1  0
 12  7  1  0
 13 21  1  0
 13  2  1  0
 14 13  2  0
 16 17  2  0
 16 15  1  0
 18 16  1  0
 19 18  1  0
 20 21  1  0
 20 19  1  1
 22 20  1  0
 23 22  2  0
 24 22  1  0
 25 29  1  0
 25 24  1  0
 26 27  1  0
 25 26  1  6
 27 28  2  0
 29 30  1  0
 31 27  1  0
 32 29  2  0
M  END
$$$$
