WQD.pdb
     RDKit          3D

 32 33  0  0  1  0  0  0  0  0999 V2000
   24.1986  -20.7258  -13.8739 N   0  0  0  0  0  0  0  0  0  0  0  0
   22.8349  -20.2962  -13.6256 C   0  0  1  0  0  0  0  0  0  0  0  0
   22.0224  -20.2121  -14.8644 C   0  0  0  0  0  0  0  0  0  0  0  0
   22.3955  -19.1754  -15.8200 C   0  0  0  0  0  0  0  0  0  0  0  0
   23.4073  -19.3581  -16.7729 C   0  0  0  0  0  0  0  0  0  0  0  0
   23.5100  -18.2458  -17.5157 N   0  0  0  0  0  0  0  0  0  0  0  0
   22.6088  -17.3192  -17.1028 C   0  0  0  0  0  0  0  0  0  0  0  0
   22.3460  -16.0445  -17.5503 C   0  0  0  0  0  0  0  0  0  0  0  0
   21.3655  -15.2951  -16.9460 C   0  0  0  0  0  0  0  0  0  0  0  0
   20.6780  -15.8678  -15.8987 C   0  0  0  0  0  0  0  0  0  0  0  0
   20.9427  -17.1444  -15.4523 C   0  0  0  0  0  0  0  0  0  0  0  0
   21.9271  -17.9124  -16.0511 C   0  0  0  0  0  0  0  0  0  0  0  0
   22.1949  -20.9849  -12.4960 C   0  0  0  0  0  0  0  0  0  0  0  0
   22.1199  -22.2401  -12.5105 O   0  0  0  0  0  0  0  0  0  0  0  0
   22.3721  -22.1335   -7.4461 N   0  0  0  0  0  0  0  0  0  0  0  0
   20.9882  -21.8637   -7.1301 C   0  0  0  0  0  0  0  0  0  0  0  0
   20.4958  -22.5623   -6.2187 O   0  0  0  0  0  0  0  0  0  0  0  0
   20.2582  -20.8156   -7.8668 C   0  0  0  0  0  0  0  0  0  0  0  0
   20.9945  -20.1905   -8.9917 C   0  0  0  0  0  0  0  0  0  0  0  0
   20.9728  -20.9411  -10.2887 C   0  0  2  0  0  0  0  0  0  0  0  0
   21.6519  -20.2992  -11.3694 N   0  0  0  0  0  0  0  0  0  0  0  0
   19.5605  -21.2684  -10.6928 C   0  0  0  0  0  0  0  0  0  0  0  0
   18.8014  -20.4053  -11.2028 O   0  0  0  0  0  0  0  0  0  0  0  0
   19.0360  -22.5820  -10.5069 N   0  0  0  0  0  0  0  0  0  0  0  0
   17.7156  -22.8805  -10.9605 C   0  0  1  0  0  0  0  0  0  0  0  0
   17.5388  -24.3766  -11.1821 C   0  0  0  0  0  0  0  0  0  0  0  0
   16.2017  -24.6986  -11.7282 C   0  0  0  0  0  0  0  0  0  0  0  0
   15.5704  -23.7797  -12.2900 O   0  0  0  0  0  0  0  0  0  0  0  0
   16.7102  -22.3869   -9.9835 C   0  0  0  0  0  0  0  0  0  0  0  0
   15.4096  -22.1864  -10.4281 O   0  0  0  0  0  0  0  0  0  0  0  0
   15.6063  -25.9428  -11.6586 O   0  0  0  0  0  0  0  0  0  0  0  0
   16.9777  -22.1454   -8.7891 O   0  0  0  0  0  0  0  0  0  0  0  0
  2  1  1  6
  2  3  1  0
  3  4  1  0
  4  5  2  0
  5  6  1  0
  7  6  1  0
  8  7  2  0
  9  8  1  0
 10 11  1  0
 10  9  2  0
 11 12  2  0
 12  4  1  0
 12  7  1  0
 13 21  1  0
 13  2  1  0
 14 13  2  0
 16 17  2  0
 16 15  1  0
 18 16  1  0
 19 18  1  0
 20 21  1  0
 20 19  1  1
 22 20  1  0
 23 22  2  0
 24 22  1  0
 25 29  1  0
 25 24  1  0
 26 27  1  0
 25 26  1  1
 27 28  2  0
 29 30  1  0
 31 27  1  0
 32 29  2  0
M  END
$$$$
