WQD.pdb
     RDKit          3D

 32 33  0  0  1  0  0  0  0  0999 V2000
   20.7190  -11.3364  -15.9821 N   0  0  0  0  0  0  0  0  0  0  0  0
   19.4864  -10.7233  -15.5232 C   0  0  1  0  0  0  0  0  0  0  0  0
   18.6236  -11.6619  -14.7639 C   0  0  0  0  0  0  0  0  0  0  0  0
   18.2311  -12.8875  -15.4500 C   0  0  0  0  0  0  0  0  0  0  0  0
   17.0591  -12.9813  -16.2134 C   0  0  0  0  0  0  0  0  0  0  0  0
   16.9764  -14.2159  -16.7317 N   0  0  0  0  0  0  0  0  0  0  0  0
   18.0448  -14.9597  -16.3490 C   0  0  0  0  0  0  0  0  0  0  0  0
   18.3895  -16.2636  -16.6231 C   0  0  0  0  0  0  0  0  0  0  0  0
   19.5449  -16.7913  -16.0988 C   0  0  0  0  0  0  0  0  0  0  0  0
   20.3193  -15.9722  -15.3068 C   0  0  0  0  0  0  0  0  0  0  0  0
   19.9723  -14.6669  -15.0337 C   0  0  0  0  0  0  0  0  0  0  0  0
   18.8116  -14.1204  -15.5549 C   0  0  0  0  0  0  0  0  0  0  0  0
   19.6769   -9.4022  -14.9083 C   0  0  0  0  0  0  0  0  0  0  0  0
   20.2257   -9.3286  -13.7793 O   0  0  0  0  0  0  0  0  0  0  0  0
   22.2719   -5.1355  -15.2169 N   0  0  0  0  0  0  0  0  0  0  0  0
   21.2478   -4.1437  -14.9815 C   0  0  0  0  0  0  0  0  0  0  0  0
   21.6384   -3.0763  -14.4625 O   0  0  0  0  0  0  0  0  0  0  0  0
   19.8504   -4.4287  -15.3559 C   0  0  0  0  0  0  0  0  0  0  0  0
   19.6019   -5.7710  -15.9344 C   0  0  0  0  0  0  0  0  0  0  0  0
   19.4399   -6.8903  -14.9510 C   0  0  2  0  0  0  0  0  0  0  0  0
   19.2723   -8.1848  -15.5317 N   0  0  0  0  0  0  0  0  0  0  0  0
   18.3099   -6.6052  -13.9988 C   0  0  0  0  0  0  0  0  0  0  0  0
   17.1202   -6.9042  -14.2755 O   0  0  0  0  0  0  0  0  0  0  0  0
   18.5582   -5.9804  -12.7405 N   0  0  0  0  0  0  0  0  0  0  0  0
   17.4743   -5.7719  -11.8351 C   0  0  1  0  0  0  0  0  0  0  0  0
   17.8030   -6.3204  -10.4532 C   0  0  0  0  0  0  0  0  0  0  0  0
   16.7102   -6.0710   -9.4870 C   0  0  0  0  0  0  0  0  0  0  0  0
   15.6319   -5.6299   -9.9356 O   0  0  0  0  0  0  0  0  0  0  0  0
   17.1477   -4.3247  -11.7453 C   0  0  0  0  0  0  0  0  0  0  0  0
   15.9182   -3.9636  -11.2092 O   0  0  0  0  0  0  0  0  0  0  0  0
   16.8019   -6.2923   -8.1269 O   0  0  0  0  0  0  0  0  0  0  0  0
   17.9215   -3.4235  -12.1267 O   0  0  0  0  0  0  0  0  0  0  0  0
  2  1  1  1
  2  3  1  0
  3  4  1  0
  4  5  2  0
  5  6  1  0
  7  6  1  0
  8  7  2  0
  9  8  1  0
 10 11  1  0
 10  9  2  0
 11 12  2  0
 12  4  1  0
 12  7  1  0
 13 21  1  0
 13  2  1  0
 14 13  2  0
 16 17  2  0
 16 15  1  0
 18 16  1  0
 19 18  1  0
 20 21  1  0
 20 19  1  6
 22 20  1  0
 23 22  2  0
 24 22  1  0
 25 29  1  0
 25 24  1  0
 26 27  1  0
 25 26  1  1
 27 28  2  0
 29 30  1  0
 31 27  1  0
 32 29  2  0
M  END
$$$$
