WQD.pdb
     RDKit          3D

 32 33  0  0  1  0  0  0  0  0999 V2000
   28.3787  -21.6883  -10.7357 N   0  0  0  0  0  0  0  0  0  0  0  0
   27.1671  -20.9929  -10.3428 C   0  0  1  0  0  0  0  0  0  0  0  0
   27.4367  -19.7706   -9.5458 C   0  0  0  0  0  0  0  0  0  0  0  0
   28.3403  -19.9182   -8.4106 C   0  0  0  0  0  0  0  0  0  0  0  0
   29.7288  -20.0362   -8.5632 C   0  0  0  0  0  0  0  0  0  0  0  0
   30.2916  -20.1395   -7.3498 N   0  0  0  0  0  0  0  0  0  0  0  0
   29.3394  -20.0963   -6.3840 C   0  0  0  0  0  0  0  0  0  0  0  0
   29.4320  -20.1681   -5.0127 C   0  0  0  0  0  0  0  0  0  0  0  0
   28.2939  -20.1043   -4.2453 C   0  0  0  0  0  0  0  0  0  0  0  0
   27.0891  -19.9688   -4.8994 C   0  0  0  0  0  0  0  0  0  0  0  0
   26.9988  -19.8970   -6.2725 C   0  0  0  0  0  0  0  0  0  0  0  0
   28.1363  -19.9592   -7.0597 C   0  0  0  0  0  0  0  0  0  0  0  0
   26.1967  -20.8337  -11.4349 C   0  0  0  0  0  0  0  0  0  0  0  0
   26.4016  -19.9533  -12.3091 O   0  0  0  0  0  0  0  0  0  0  0  0
   24.7140  -21.6304  -16.0197 N   0  0  0  0  0  0  0  0  0  0  0  0
   23.3114  -21.9194  -15.8278 C   0  0  0  0  0  0  0  0  0  0  0  0
   22.5650  -21.6381  -16.7896 O   0  0  0  0  0  0  0  0  0  0  0  0
   22.8514  -22.5130  -14.5588 C   0  0  0  0  0  0  0  0  0  0  0  0
   23.8828  -22.6482  -13.5024 C   0  0  0  0  0  0  0  0  0  0  0  0
   24.0449  -21.4717  -12.5883 C   0  0  2  0  0  0  0  0  0  0  0  0
   25.0239  -21.6356  -11.5608 N   0  0  0  0  0  0  0  0  0  0  0  0
   22.7243  -21.0817  -11.9807 C   0  0  0  0  0  0  0  0  0  0  0  0
   22.3541  -21.5231  -10.8630 O   0  0  0  0  0  0  0  0  0  0  0  0
   21.8443  -20.1896  -12.6628 N   0  0  0  0  0  0  0  0  0  0  0  0
   20.6073  -19.8217  -12.0523 C   0  0  1  0  0  0  0  0  0  0  0  0
   20.2753  -18.3612  -12.3266 C   0  0  0  0  0  0  0  0  0  0  0  0
   20.0912  -18.0998  -13.7715 C   0  0  0  0  0  0  0  0  0  0  0  0
   20.6932  -18.8426  -14.5742 O   0  0  0  0  0  0  0  0  0  0  0  0
   19.5095  -20.6955  -12.5428 C   0  0  0  0  0  0  0  0  0  0  0  0
   18.2973  -20.6655  -11.8654 O   0  0  0  0  0  0  0  0  0  0  0  0
   19.3013  -17.0929  -14.2907 O   0  0  0  0  0  0  0  0  0  0  0  0
   19.6248  -21.4507  -13.5291 O   0  0  0  0  0  0  0  0  0  0  0  0
  2  1  1  6
  2  3  1  0
  3  4  1  0
  4  5  2  0
  5  6  1  0
  7  6  1  0
  8  7  2  0
  9  8  1  0
 10 11  1  0
 10  9  2  0
 11 12  2  0
 12  4  1  0
 12  7  1  0
 13 21  1  0
 13  2  1  0
 14 13  2  0
 16 17  2  0
 16 15  1  0
 18 16  1  0
 19 18  1  0
 20 21  1  0
 20 19  1  1
 22 20  1  0
 23 22  2  0
 24 22  1  0
 25 29  1  0
 25 24  1  0
 26 27  1  0
 25 26  1  6
 27 28  2  0
 29 30  1  0
 31 27  1  0
 32 29  2  0
M  END
$$$$
