WQD.pdb
     RDKit          3D

 32 33  0  0  1  0  0  0  0  0999 V2000
   24.3812   -6.7675  -17.2264 N   0  0  0  0  0  0  0  0  0  0  0  0
   23.1734   -7.4101  -17.7103 C   0  0  1  0  0  0  0  0  0  0  0  0
   23.4463   -8.6649  -18.4539 C   0  0  0  0  0  0  0  0  0  0  0  0
   24.3530   -8.5647  -19.5918 C   0  0  0  0  0  0  0  0  0  0  0  0
   24.6562   -7.3428  -20.2082 C   0  0  0  0  0  0  0  0  0  0  0  0
   25.5244   -7.5639  -21.2067 N   0  0  0  0  0  0  0  0  0  0  0  0
   25.8197   -8.8857  -21.2897 C   0  0  0  0  0  0  0  0  0  0  0  0
   26.6446   -9.5807  -22.1444 C   0  0  0  0  0  0  0  0  0  0  0  0
   26.7679  -10.9437  -22.0198 C   0  0  0  0  0  0  0  0  0  0  0  0
   26.0444  -11.5622  -21.0239 C   0  0  0  0  0  0  0  0  0  0  0  0
   25.2191  -10.8642  -20.1691 C   0  0  0  0  0  0  0  0  0  0  0  0
   25.0845   -9.4906  -20.2814 C   0  0  0  0  0  0  0  0  0  0  0  0
   22.1040   -7.4911  -16.7054 C   0  0  0  0  0  0  0  0  0  0  0  0
   22.4144   -7.5499  -15.4882 O   0  0  0  0  0  0  0  0  0  0  0  0
   18.1692   -3.3850  -15.3696 N   0  0  0  0  0  0  0  0  0  0  0  0
   17.7840   -4.4342  -14.4539 C   0  0  0  0  0  0  0  0  0  0  0  0
   16.9938   -4.0966  -13.5467 O   0  0  0  0  0  0  0  0  0  0  0  0
   18.3179   -5.7969  -14.6328 C   0  0  0  0  0  0  0  0  0  0  0  0
   19.3130   -5.9587  -15.7198 C   0  0  0  0  0  0  0  0  0  0  0  0
   19.6604   -7.3694  -16.0876 C   0  0  2  0  0  0  0  0  0  0  0  0
   20.7175   -7.5025  -17.0395 N   0  0  0  0  0  0  0  0  0  0  0  0
   18.4422   -8.1117  -16.5671 C   0  0  0  0  0  0  0  0  0  0  0  0
   17.9926   -7.9629  -17.7320 O   0  0  0  0  0  0  0  0  0  0  0  0
   17.7543   -9.0161  -15.7043 N   0  0  0  0  0  0  0  0  0  0  0  0
   16.6056   -9.7113  -16.1895 C   0  0  1  0  0  0  0  0  0  0  0  0
   16.4320  -11.0452  -15.4759 C   0  0  0  0  0  0  0  0  0  0  0  0
   17.4291  -12.0432  -15.9228 C   0  0  0  0  0  0  0  0  0  0  0  0
   18.0592  -11.8001  -16.9727 O   0  0  0  0  0  0  0  0  0  0  0  0
   15.3869   -8.8780  -16.0173 C   0  0  0  0  0  0  0  0  0  0  0  0
   14.3419   -9.0541  -16.9151 O   0  0  0  0  0  0  0  0  0  0  0  0
   17.7088  -13.2218  -15.2596 O   0  0  0  0  0  0  0  0  0  0  0  0
   15.2589   -8.0323  -15.1091 O   0  0  0  0  0  0  0  0  0  0  0  0
  2  1  1  1
  2  3  1  0
  3  4  1  0
  4  5  2  0
  5  6  1  0
  7  6  1  0
  8  7  2  0
  9  8  1  0
 10 11  1  0
 10  9  2  0
 11 12  2  0
 12  4  1  0
 12  7  1  0
 13 21  1  0
 13  2  1  0
 14 13  2  0
 16 17  2  0
 16 15  1  0
 18 16  1  0
 19 18  1  0
 20 21  1  0
 20 19  1  6
 22 20  1  0
 23 22  2  0
 24 22  1  0
 25 29  1  0
 25 24  1  0
 26 27  1  0
 25 26  1  1
 27 28  2  0
 29 30  1  0
 31 27  1  0
 32 29  2  0
M  END
$$$$
