WQD.pdb
     RDKit          3D

 32 33  0  0  1  0  0  0  0  0999 V2000
   26.3915  -18.9636  -11.5000 N   0  0  0  0  0  0  0  0  0  0  0  0
   26.6970  -20.3392  -11.8469 C   0  0  1  0  0  0  0  0  0  0  0  0
   26.1230  -21.3163  -10.8890 C   0  0  0  0  0  0  0  0  0  0  0  0
   26.2195  -20.9764   -9.4740 C   0  0  0  0  0  0  0  0  0  0  0  0
   25.0956  -20.6680   -8.6950 C   0  0  0  0  0  0  0  0  0  0  0  0
   25.4939  -20.4167   -7.4388 N   0  0  0  0  0  0  0  0  0  0  0  0
   26.8412  -20.5427   -7.3381 C   0  0  0  0  0  0  0  0  0  0  0  0
   27.6916  -20.3815   -6.2680 C   0  0  0  0  0  0  0  0  0  0  0  0
   29.0433  -20.5657   -6.4336 C   0  0  0  0  0  0  0  0  0  0  0  0
   29.4919  -20.9102   -7.6897 C   0  0  0  0  0  0  0  0  0  0  0  0
   28.6386  -21.0712   -8.7597 C   0  0  0  0  0  0  0  0  0  0  0  0
   27.2741  -20.8897   -8.6090 C   0  0  0  0  0  0  0  0  0  0  0  0
   26.4883  -20.6504  -13.2680 C   0  0  0  0  0  0  0  0  0  0  0  0
   25.8050  -19.8626  -13.9707 O   0  0  0  0  0  0  0  0  0  0  0  0
   31.0500  -23.8298  -16.3482 N   0  0  0  0  0  0  0  0  0  0  0  0
   30.1801  -23.3809  -17.4110 C   0  0  0  0  0  0  0  0  0  0  0  0
   30.5968  -23.5819  -18.5717 O   0  0  0  0  0  0  0  0  0  0  0  0
   28.8936  -22.7387  -17.0844 C   0  0  0  0  0  0  0  0  0  0  0  0
   28.6069  -22.5744  -15.6391 C   0  0  0  0  0  0  0  0  0  0  0  0
   27.3116  -21.9020  -15.2987 C   0  0  2  0  0  0  0  0  0  0  0  0
   27.0285  -21.8086  -13.9014 N   0  0  0  0  0  0  0  0  0  0  0  0
   26.1630  -22.5636  -16.0114 C   0  0  0  0  0  0  0  0  0  0  0  0
   25.7269  -23.6896  -15.6606 O   0  0  0  0  0  0  0  0  0  0  0  0
   25.5282  -21.9252  -17.1182 N   0  0  0  0  0  0  0  0  0  0  0  0
   24.3989  -22.5461  -17.7325 C   0  0  1  0  0  0  0  0  0  0  0  0
   23.3631  -21.5095  -18.1465 C   0  0  0  0  0  0  0  0  0  0  0  0
   22.7413  -20.8533  -16.9750 C   0  0  0  0  0  0  0  0  0  0  0  0
   22.5105  -21.5598  -15.9720 O   0  0  0  0  0  0  0  0  0  0  0  0
   24.8257  -23.3411  -18.9136 C   0  0  0  0  0  0  0  0  0  0  0  0
   23.8825  -24.1520  -19.5317 O   0  0  0  0  0  0  0  0  0  0  0  0
   22.3997  -19.5164  -16.9162 O   0  0  0  0  0  0  0  0  0  0  0  0
   25.9850  -23.3146  -19.3736 O   0  0  0  0  0  0  0  0  0  0  0  0
  2  1  1  1
  2  3  1  0
  3  4  1  0
  4  5  2  0
  5  6  1  0
  7  6  1  0
  8  7  2  0
  9  8  1  0
 10 11  1  0
 10  9  2  0
 11 12  2  0
 12  4  1  0
 12  7  1  0
 13 21  1  0
 13  2  1  0
 14 13  2  0
 16 17  2  0
 16 15  1  0
 18 16  1  0
 19 18  1  0
 20 21  1  0
 20 19  1  1
 22 20  1  0
 23 22  2  0
 24 22  1  0
 25 29  1  0
 25 24  1  0
 26 27  1  0
 25 26  1  6
 27 28  2  0
 29 30  1  0
 31 27  1  0
 32 29  2  0
M  END
$$$$
