VKI.pdb
     RDKit          3D

 25 24  0  0  1  0  0  0  0  0999 V2000
    8.2610  -12.6780   20.6421 C   0  0  0  0  0  0  0  0  0  0  0  0
    7.6229  -13.4379   19.4976 C   0  0  1  0  0  0  0  0  0  0  0  0
    8.0085  -12.7303   18.2155 C   0  0  0  0  0  0  0  0  0  0  0  0
    8.1885  -14.8395   19.5091 C   0  0  2  0  0  0  0  0  0  0  0  0
    7.7220  -15.5536   18.3361 N   0  0  0  0  0  0  0  0  0  0  0  0
    7.8147  -15.5651   20.7598 C   0  0  0  0  0  0  0  0  0  0  0  0
    6.6121  -15.9422   20.9557 O   0  0  0  0  0  0  0  0  0  0  0  0
    8.8298  -15.8194   21.7144 N   0  0  0  0  0  0  0  0  0  0  0  0
    8.5718  -16.4335   22.9984 C   0  0  1  0  0  0  0  0  0  0  0  0
    9.1942  -17.7994   22.9563 C   0  0  0  0  0  0  0  0  0  0  0  0
    9.0553  -18.5961   24.2090 C   0  0  0  0  0  0  0  0  0  0  0  0
    9.7606  -19.9349   23.9521 C   0  0  0  0  0  0  0  0  0  0  0  0
    9.7360  -20.7929   25.1995 C   0  0  0  0  0  0  0  0  0  0  0  0
    8.3582  -21.1659   25.4740 N   0  0  0  0  0  0  0  0  0  0  0  0
    9.1381  -15.5630   24.0629 C   0  0  0  0  0  0  0  0  0  0  0  0
   10.3730  -15.3665   24.1222 O   0  0  0  0  0  0  0  0  0  0  0  0
    5.8367  -11.7297   26.4898 C   0  0  0  0  0  0  0  0  0  0  0  0
    6.5833  -13.0020   26.2983 C   0  0  0  0  0  0  0  0  0  0  0  0
    8.0627  -12.8387   26.1207 C   0  0  2  0  0  0  0  0  0  0  0  0
    8.2913  -12.1588   24.7828 C   0  0  0  0  0  0  0  0  0  0  0  0
    8.8245  -14.1277   26.1188 C   0  0  2  0  0  0  0  0  0  0  0  0
    8.3211  -14.9367   25.0290 N   0  0  0  0  0  0  0  0  0  0  0  0
    8.7723  -14.8723   27.3685 C   0  0  0  0  0  0  0  0  0  0  0  0
    8.1846  -16.1282   27.3771 O   0  0  0  0  0  0  0  0  0  0  0  0
    9.2254  -14.4650   28.4685 O   0  0  0  0  0  0  0  0  0  0  0  0
  2  1  1  1
  2  3  1  0
  4  6  1  0
  4  2  1  0
  4  5  1  6
  6  7  2  0
  8  6  1  0
  8  9  1  0
  9 10  1  6
 11 10  1  0
 12 13  1  0
 12 11  1  0
 13 14  1  0
 15 22  1  0
 15  9  1  0
 16 15  2  0
 18 17  1  0
 18 19  1  0
 19 20  1  6
 19 21  1  0
 21 22  1  6
 23 24  1  0
 23 21  1  0
 25 23  2  0
M  END
$$$$
