VKI.pdb
     RDKit          3D

 25 24  0  0  1  0  0  0  0  0999 V2000
    8.5643  -12.6731   20.7836 C   0  0  0  0  0  0  0  0  0  0  0  0
    7.7642  -13.3942   19.7186 C   0  0  1  0  0  0  0  0  0  0  0  0
    8.0689  -12.7249   18.3948 C   0  0  0  0  0  0  0  0  0  0  0  0
    8.2290  -14.8322   19.6941 C   0  0  2  0  0  0  0  0  0  0  0  0
    7.6220  -15.5124   18.5661 N   0  0  0  0  0  0  0  0  0  0  0  0
    7.9053  -15.5288   20.9749 C   0  0  0  0  0  0  0  0  0  0  0  0
    6.6952  -15.7856   21.2853 O   0  0  0  0  0  0  0  0  0  0  0  0
    8.9763  -15.8925   21.8276 N   0  0  0  0  0  0  0  0  0  0  0  0
    8.7843  -16.5501   23.1016 C   0  0  1  0  0  0  0  0  0  0  0  0
    9.5065  -17.8642   23.0221 C   0  0  0  0  0  0  0  0  0  0  0  0
    8.7997  -18.9283   22.2531 C   0  0  0  0  0  0  0  0  0  0  0  0
    9.6705  -20.1882   22.3548 C   0  0  0  0  0  0  0  0  0  0  0  0
    9.0443  -21.3273   21.5783 C   0  0  0  0  0  0  0  0  0  0  0  0
    8.0435  -21.9622   22.4198 N   0  0  0  0  0  0  0  0  0  0  0  0
    9.2998  -15.6611   24.1767 C   0  0  0  0  0  0  0  0  0  0  0  0
   10.4551  -15.1858   24.0980 O   0  0  0  0  0  0  0  0  0  0  0  0
    5.8445  -12.2342   26.2746 C   0  0  0  0  0  0  0  0  0  0  0  0
    7.0975  -12.8977   25.8245 C   0  0  0  0  0  0  0  0  0  0  0  0
    7.7967  -13.6976   26.8820 C   0  0  2  0  0  0  0  0  0  0  0  0
    8.2886  -12.7268   27.9404 C   0  0  0  0  0  0  0  0  0  0  0  0
    8.9767  -14.4723   26.3829 C   0  0  2  0  0  0  0  0  0  0  0  0
    8.5214  -15.3254   25.3056 N   0  0  0  0  0  0  0  0  0  0  0  0
    9.6660  -15.2590   27.3953 C   0  0  0  0  0  0  0  0  0  0  0  0
   10.6931  -14.6710   28.1177 O   0  0  0  0  0  0  0  0  0  0  0  0
    9.4040  -16.4558   27.6785 O   0  0  0  0  0  0  0  0  0  0  0  0
  2  1  1  1
  2  3  1  0
  4  6  1  0
  4  2  1  0
  4  5  1  6
  6  7  2  0
  8  6  1  0
  8  9  1  0
  9 10  1  6
 11 10  1  0
 12 13  1  0
 12 11  1  0
 13 14  1  0
 15 22  1  0
 15  9  1  0
 16 15  2  0
 18 17  1  0
 18 19  1  0
 19 20  1  1
 19 21  1  0
 21 22  1  6
 23 24  1  0
 23 21  1  0
 25 23  2  0
M  END
$$$$
