VKI.pdb
     RDKit          3D

 25 24  0  0  1  0  0  0  0  0999 V2000
    8.7501  -12.6274   20.3498 C   0  0  0  0  0  0  0  0  0  0  0  0
    7.8050  -13.2881   19.3677 C   0  0  1  0  0  0  0  0  0  0  0  0
    7.9735  -12.5855   18.0368 C   0  0  0  0  0  0  0  0  0  0  0  0
    8.2136  -14.7382   19.2463 C   0  0  2  0  0  0  0  0  0  0  0  0
    7.4625  -15.3590   18.1720 N   0  0  0  0  0  0  0  0  0  0  0  0
    8.0089  -15.4690   20.5326 C   0  0  0  0  0  0  0  0  0  0  0  0
    6.8320  -15.7122   20.9598 O   0  0  0  0  0  0  0  0  0  0  0  0
    9.1540  -15.8803   21.2577 N   0  0  0  0  0  0  0  0  0  0  0  0
    9.0805  -16.5675   22.5284 C   0  0  1  0  0  0  0  0  0  0  0  0
   10.0981  -17.6708   22.4817 C   0  0  0  0  0  0  0  0  0  0  0  0
   10.2214  -18.4703   23.7343 C   0  0  0  0  0  0  0  0  0  0  0  0
   11.2834  -19.5442   23.4608 C   0  0  0  0  0  0  0  0  0  0  0  0
   12.5698  -19.2121   24.1872 C   0  0  0  0  0  0  0  0  0  0  0  0
   13.5313  -20.2707   23.9269 N   0  0  0  0  0  0  0  0  0  0  0  0
    9.3310  -15.5836   23.6150 C   0  0  0  0  0  0  0  0  0  0  0  0
   10.3381  -14.8415   23.5700 O   0  0  0  0  0  0  0  0  0  0  0  0
    6.4555  -11.4123   26.6079 C   0  0  0  0  0  0  0  0  0  0  0  0
    7.4629  -12.4913   26.7915 C   0  0  0  0  0  0  0  0  0  0  0  0
    7.4551  -13.5431   25.7236 C   0  0  2  0  0  0  0  0  0  0  0  0
    6.1940  -14.3689   25.9033 C   0  0  0  0  0  0  0  0  0  0  0  0
    8.6267  -14.4740   25.7732 C   0  0  2  0  0  0  0  0  0  0  0  0
    8.4598  -15.4508   24.7179 N   0  0  0  0  0  0  0  0  0  0  0  0
    8.8269  -15.1395   27.0523 C   0  0  0  0  0  0  0  0  0  0  0  0
    8.6357  -16.5104   27.1326 O   0  0  0  0  0  0  0  0  0  0  0  0
    9.1668  -14.5641   28.1175 O   0  0  0  0  0  0  0  0  0  0  0  0
  2  1  1  1
  2  3  1  0
  4  6  1  0
  4  2  1  0
  4  5  1  6
  6  7  2  0
  8  6  1  0
  8  9  1  0
  9 10  1  6
 11 10  1  0
 12 13  1  0
 12 11  1  0
 13 14  1  0
 15 22  1  0
 15  9  1  0
 16 15  2  0
 18 17  1  0
 18 19  1  0
 19 20  1  1
 19 21  1  0
 21 22  1  6
 23 24  1  0
 23 21  1  0
 25 23  2  0
M  END
$$$$
