VKI.pdb
     RDKit          3D

 25 24  0  0  1  0  0  0  0  0999 V2000
    9.4773  -13.3002   18.1793 C   0  0  0  0  0  0  0  0  0  0  0  0
    8.7916  -13.6228   19.4909 C   0  0  1  0  0  0  0  0  0  0  0  0
    7.6065  -12.6893   19.6221 C   0  0  0  0  0  0  0  0  0  0  0  0
    8.3193  -15.0567   19.4182 C   0  0  2  0  0  0  0  0  0  0  0  0
    7.5115  -15.2349   18.2269 N   0  0  0  0  0  0  0  0  0  0  0  0
    7.5555  -15.4390   20.6433 C   0  0  0  0  0  0  0  0  0  0  0  0
    6.3046  -15.2045   20.7269 O   0  0  0  0  0  0  0  0  0  0  0  0
    8.2585  -16.0655   21.7014 N   0  0  0  0  0  0  0  0  0  0  0  0
    7.6318  -16.4547   22.9457 C   0  0  1  0  0  0  0  0  0  0  0  0
    7.6618  -17.9553   22.9929 C   0  0  0  0  0  0  0  0  0  0  0  0
    7.1925  -18.5568   24.2740 C   0  0  0  0  0  0  0  0  0  0  0  0
    7.2232  -20.0785   24.0758 C   0  0  0  0  0  0  0  0  0  0  0  0
    6.7102  -20.7830   25.3141 C   0  0  0  0  0  0  0  0  0  0  0  0
    6.8715  -22.2156   25.1282 N   0  0  0  0  0  0  0  0  0  0  0  0
    8.3700  -15.8173   24.0684 C   0  0  0  0  0  0  0  0  0  0  0  0
    9.6214  -15.8409   24.0905 O   0  0  0  0  0  0  0  0  0  0  0  0
    5.9231  -11.5418   26.2343 C   0  0  0  0  0  0  0  0  0  0  0  0
    6.9920  -12.4625   25.7624 C   0  0  0  0  0  0  0  0  0  0  0  0
    7.4396  -13.4729   26.7751 C   0  0  2  0  0  0  0  0  0  0  0  0
    8.1664  -12.7248   27.8782 C   0  0  0  0  0  0  0  0  0  0  0  0
    8.3707  -14.5121   26.2321 C   0  0  2  0  0  0  0  0  0  0  0  0
    7.7013  -15.1733   25.1319 N   0  0  0  0  0  0  0  0  0  0  0  0
    8.8320  -15.4907   27.2061 C   0  0  0  0  0  0  0  0  0  0  0  0
    8.0066  -16.5572   27.5282 O   0  0  0  0  0  0  0  0  0  0  0  0
    9.9421  -15.4514   27.7953 O   0  0  0  0  0  0  0  0  0  0  0  0
  2  1  1  6
  2  3  1  0
  4  6  1  0
  4  2  1  0
  4  5  1  6
  6  7  2  0
  8  6  1  0
  8  9  1  0
  9 10  1  1
 11 10  1  0
 12 13  1  0
 12 11  1  0
 13 14  1  0
 15 22  1  0
 15  9  1  0
 16 15  2  0
 18 17  1  0
 18 19  1  0
 19 20  1  1
 19 21  1  0
 21 22  1  6
 23 24  1  0
 23 21  1  0
 25 23  2  0
M  END
$$$$
