VKI.pdb
     RDKit          3D

 25 24  0  0  1  0  0  0  0  0999 V2000
    8.8779  -13.1818   18.1197 C   0  0  0  0  0  0  0  0  0  0  0  0
    8.4694  -13.5675   19.5264 C   0  0  1  0  0  0  0  0  0  0  0  0
    7.2561  -12.7366   19.8879 C   0  0  0  0  0  0  0  0  0  0  0  0
    8.1093  -15.0354   19.5106 C   0  0  2  0  0  0  0  0  0  0  0  0
    7.1602  -15.2840   18.4425 N   0  0  0  0  0  0  0  0  0  0  0  0
    7.5574  -15.4727   20.8278 C   0  0  0  0  0  0  0  0  0  0  0  0
    6.3636  -15.1732   21.1621 O   0  0  0  0  0  0  0  0  0  0  0  0
    8.3951  -16.2248   21.6874 N   0  0  0  0  0  0  0  0  0  0  0  0
    7.9612  -16.7288   22.9719 C   0  0  1  0  0  0  0  0  0  0  0  0
    8.3736  -18.1715   23.0309 C   0  0  0  0  0  0  0  0  0  0  0  0
    8.1542  -18.8383   24.3464 C   0  0  0  0  0  0  0  0  0  0  0  0
    7.1410  -19.9643   24.0985 C   0  0  0  0  0  0  0  0  0  0  0  0
    6.8015  -20.6649   25.3973 C   0  0  0  0  0  0  0  0  0  0  0  0
    5.7389  -21.6225   25.1391 N   0  0  0  0  0  0  0  0  0  0  0  0
    8.5777  -15.8981   24.0404 C   0  0  0  0  0  0  0  0  0  0  0  0
    9.7610  -15.5059   23.9265 O   0  0  0  0  0  0  0  0  0  0  0  0
    5.6909  -12.0753   26.3496 C   0  0  0  0  0  0  0  0  0  0  0  0
    6.8562  -12.8664   25.8709 C   0  0  0  0  0  0  0  0  0  0  0  0
    7.3659  -13.8830   26.8475 C   0  0  2  0  0  0  0  0  0  0  0  0
    7.9452  -13.1305   28.0317 C   0  0  0  0  0  0  0  0  0  0  0  0
    8.4366  -14.7746   26.2994 C   0  0  2  0  0  0  0  0  0  0  0  0
    7.8662  -15.5267   25.2018 N   0  0  0  0  0  0  0  0  0  0  0  0
    9.0408  -15.6752   27.2704 C   0  0  0  0  0  0  0  0  0  0  0  0
    8.5415  -16.9629   27.3927 O   0  0  0  0  0  0  0  0  0  0  0  0
   10.0005  -15.3788   28.0270 O   0  0  0  0  0  0  0  0  0  0  0  0
  2  1  1  6
  2  3  1  0
  4  6  1  0
  4  2  1  0
  4  5  1  6
  6  7  2  0
  8  6  1  0
  8  9  1  0
  9 10  1  1
 11 10  1  0
 12 13  1  0
 12 11  1  0
 13 14  1  0
 15 22  1  0
 15  9  1  0
 16 15  2  0
 18 17  1  0
 18 19  1  0
 19 20  1  1
 19 21  1  0
 21 22  1  6
 23 24  1  0
 23 21  1  0
 25 23  2  0
M  END
$$$$
