VKI.pdb
     RDKit          3D

 25 24  0  0  1  0  0  0  0  0999 V2000
    8.5683  -12.6067   20.9472 C   0  0  0  0  0  0  0  0  0  0  0  0
    7.7306  -13.1582   19.8121 C   0  0  1  0  0  0  0  0  0  0  0  0
    8.0559  -12.3466   18.5756 C   0  0  0  0  0  0  0  0  0  0  0  0
    8.1319  -14.6011   19.6082 C   0  0  2  0  0  0  0  0  0  0  0  0
    7.5236  -15.0995   18.3895 N   0  0  0  0  0  0  0  0  0  0  0  0
    7.7460  -15.4423   20.7803 C   0  0  0  0  0  0  0  0  0  0  0  0
    6.5174  -15.6372   21.0619 O   0  0  0  0  0  0  0  0  0  0  0  0
    8.7793  -16.0124   21.5635 N   0  0  0  0  0  0  0  0  0  0  0  0
    8.5287  -16.8001   22.7506 C   0  0  1  0  0  0  0  0  0  0  0  0
    8.9301  -18.2101   22.4254 C   0  0  0  0  0  0  0  0  0  0  0  0
    8.7728  -19.1855   23.5422 C   0  0  0  0  0  0  0  0  0  0  0  0
    9.2041  -20.5510   22.9896 C   0  0  0  0  0  0  0  0  0  0  0  0
    8.9861  -21.6331   24.0261 C   0  0  0  0  0  0  0  0  0  0  0  0
    9.3684  -22.9097   23.4456 N   0  0  0  0  0  0  0  0  0  0  0  0
    9.3007  -16.2156   23.8794 C   0  0  0  0  0  0  0  0  0  0  0  0
   10.4943  -15.8765   23.7146 O   0  0  0  0  0  0  0  0  0  0  0  0
    8.5012  -12.4187   28.4545 C   0  0  0  0  0  0  0  0  0  0  0  0
    9.2622  -13.5989   27.9638 C   0  0  0  0  0  0  0  0  0  0  0  0
    8.6688  -14.2706   26.7623 C   0  0  2  0  0  0  0  0  0  0  0  0
    7.2716  -14.7303   27.1379 C   0  0  0  0  0  0  0  0  0  0  0  0
    9.4357  -15.4662   26.2888 C   0  0  2  0  0  0  0  0  0  0  0  0
    8.7285  -16.0243   25.1557 N   0  0  0  0  0  0  0  0  0  0  0  0
    9.6610  -16.4894   27.2994 C   0  0  0  0  0  0  0  0  0  0  0  0
   10.6487  -16.2865   28.2511 O   0  0  0  0  0  0  0  0  0  0  0  0
    9.0212  -17.5685   27.3861 O   0  0  0  0  0  0  0  0  0  0  0  0
  2  1  1  1
  2  3  1  0
  4  6  1  0
  4  2  1  0
  4  5  1  6
  6  7  2  0
  8  6  1  0
  8  9  1  0
  9 10  1  6
 11 10  1  0
 12 13  1  0
 12 11  1  0
 13 14  1  0
 15 22  1  0
 15  9  1  0
 16 15  2  0
 18 17  1  0
 18 19  1  0
 19 20  1  1
 19 21  1  0
 21 22  1  6
 23 24  1  0
 23 21  1  0
 25 23  2  0
M  END
$$$$
