VKI.pdb
     RDKit          3D

 25 24  0  0  1  0  0  0  0  0999 V2000
   13.3347  -17.0316   19.7961 C   0  0  0  0  0  0  0  0  0  0  0  0
   12.2174  -18.0544   19.7946 C   0  0  1  0  0  0  0  0  0  0  0  0
   12.8390  -19.4012   19.4895 C   0  0  0  0  0  0  0  0  0  0  0  0
   11.6061  -18.0643   21.1768 C   0  0  2  0  0  0  0  0  0  0  0  0
   10.5882  -19.0954   21.2427 N   0  0  0  0  0  0  0  0  0  0  0  0
   11.0369  -16.7289   21.5279 C   0  0  0  0  0  0  0  0  0  0  0  0
   11.7889  -15.7008   21.5941 O   0  0  0  0  0  0  0  0  0  0  0  0
    9.6465  -16.6406   21.7831 N   0  0  0  0  0  0  0  0  0  0  0  0
    8.9764  -15.3958   22.0893 C   0  0  1  0  0  0  0  0  0  0  0  0
    7.7103  -15.3774   21.2820 C   0  0  0  0  0  0  0  0  0  0  0  0
    7.4496  -14.1082   20.5442 C   0  0  0  0  0  0  0  0  0  0  0  0
    7.6868  -14.4132   19.0587 C   0  0  0  0  0  0  0  0  0  0  0  0
    7.5432  -13.1533   18.2312 C   0  0  0  0  0  0  0  0  0  0  0  0
    7.6091  -13.5165   16.8253 N   0  0  0  0  0  0  0  0  0  0  0  0
    8.7381  -15.3336   23.5560 C   0  0  0  0  0  0  0  0  0  0  0  0
    8.5891  -16.3886   24.2131 O   0  0  0  0  0  0  0  0  0  0  0  0
    6.4025  -11.2455   27.5043 C   0  0  0  0  0  0  0  0  0  0  0  0
    7.2507  -12.4497   27.2961 C   0  0  0  0  0  0  0  0  0  0  0  0
    7.5326  -12.7759   25.8605 C   0  0  2  0  0  0  0  0  0  0  0  0
    6.2007  -13.0332   25.1791 C   0  0  0  0  0  0  0  0  0  0  0  0
    8.3915  -13.9868   25.6657 C   0  0  2  0  0  0  0  0  0  0  0  0
    8.6721  -14.1063   24.2506 N   0  0  0  0  0  0  0  0  0  0  0  0
    7.8269  -15.2273   26.1768 C   0  0  0  0  0  0  0  0  0  0  0  0
    8.2406  -15.6924   27.4158 O   0  0  0  0  0  0  0  0  0  0  0  0
    6.9751  -15.9313   25.5768 O   0  0  0  0  0  0  0  0  0  0  0  0
  2  1  1  1
  2  3  1  0
  4  6  1  0
  4  2  1  0
  4  5  1  6
  6  7  2  0
  8  6  1  0
  8  9  1  0
  9 10  1  6
 11 10  1  0
 12 13  1  0
 12 11  1  0
 13 14  1  0
 15 22  1  0
 15  9  1  0
 16 15  2  0
 18 17  1  0
 18 19  1  0
 19 20  1  6
 19 21  1  0
 21 22  1  6
 23 24  1  0
 23 21  1  0
 25 23  2  0
M  END
$$$$
