VKI.pdb
     RDKit          3D

 25 24  0  0  1  0  0  0  0  0999 V2000
    8.3838  -12.7829   20.5799 C   0  0  0  0  0  0  0  0  0  0  0  0
    7.7019  -13.4962   19.4307 C   0  0  1  0  0  0  0  0  0  0  0  0
    8.3238  -12.9835   18.1486 C   0  0  0  0  0  0  0  0  0  0  0  0
    7.9735  -14.9749   19.5861 C   0  0  2  0  0  0  0  0  0  0  0  0
    7.4658  -15.6795   18.4245 N   0  0  0  0  0  0  0  0  0  0  0  0
    7.3668  -15.5089   20.8419 C   0  0  0  0  0  0  0  0  0  0  0  0
    6.1111  -15.4163   21.0456 O   0  0  0  0  0  0  0  0  0  0  0  0
    8.2230  -16.1168   21.7925 N   0  0  0  0  0  0  0  0  0  0  0  0
    7.7616  -16.6069   23.0728 C   0  0  1  0  0  0  0  0  0  0  0  0
    8.0608  -18.0781   23.1049 C   0  0  0  0  0  0  0  0  0  0  0  0
    7.8045  -18.7468   24.4127 C   0  0  0  0  0  0  0  0  0  0  0  0
    8.2095  -20.2166   24.2352 C   0  0  0  0  0  0  0  0  0  0  0  0
    7.9625  -20.9907   25.5129 C   0  0  0  0  0  0  0  0  0  0  0  0
    6.5335  -21.2241   25.6403 N   0  0  0  0  0  0  0  0  0  0  0  0
    8.4494  -15.8445   24.1486 C   0  0  0  0  0  0  0  0  0  0  0  0
    9.6827  -15.6404   24.0832 O   0  0  0  0  0  0  0  0  0  0  0  0
    6.0972  -11.5558   26.2969 C   0  0  0  0  0  0  0  0  0  0  0  0
    7.1226  -12.5415   25.8614 C   0  0  0  0  0  0  0  0  0  0  0  0
    7.4365  -13.6051   26.8700 C   0  0  2  0  0  0  0  0  0  0  0  0
    8.0747  -12.9259   28.0683 C   0  0  0  0  0  0  0  0  0  0  0  0
    8.3830  -14.6553   26.3772 C   0  0  2  0  0  0  0  0  0  0  0  0
    7.7518  -15.3313   25.2635 N   0  0  0  0  0  0  0  0  0  0  0  0
    8.8050  -15.6202   27.3821 C   0  0  0  0  0  0  0  0  0  0  0  0
    9.9082  -15.3292   28.1700 O   0  0  0  0  0  0  0  0  0  0  0  0
    8.2416  -16.7224   27.6030 O   0  0  0  0  0  0  0  0  0  0  0  0
  2  1  1  1
  2  3  1  0
  4  6  1  0
  4  2  1  0
  4  5  1  6
  6  7  2  0
  8  6  1  0
  8  9  1  0
  9 10  1  1
 11 10  1  0
 12 13  1  0
 12 11  1  0
 13 14  1  0
 15 22  1  0
 15  9  1  0
 16 15  2  0
 18 17  1  0
 18 19  1  0
 19 20  1  1
 19 21  1  0
 21 22  1  6
 23 24  1  0
 23 21  1  0
 25 23  2  0
M  END
$$$$
