VKI.pdb
     RDKit          3D

 25 24  0  0  1  0  0  0  0  0999 V2000
    9.4159  -12.7497   18.2506 C   0  0  0  0  0  0  0  0  0  0  0  0
    8.6948  -13.2410   19.4888 C   0  0  1  0  0  0  0  0  0  0  0  0
    7.3766  -12.4997   19.5673 C   0  0  0  0  0  0  0  0  0  0  0  0
    8.4495  -14.7224   19.3164 C   0  0  2  0  0  0  0  0  0  0  0  0
    7.7566  -14.9502   18.0628 N   0  0  0  0  0  0  0  0  0  0  0  0
    7.6743  -15.2811   20.4642 C   0  0  0  0  0  0  0  0  0  0  0  0
    6.4038  -15.1747   20.5013 O   0  0  0  0  0  0  0  0  0  0  0  0
    8.3887  -15.9278   21.5022 N   0  0  0  0  0  0  0  0  0  0  0  0
    7.7569  -16.4322   22.7017 C   0  0  1  0  0  0  0  0  0  0  0  0
    7.9048  -17.9262   22.6717 C   0  0  0  0  0  0  0  0  0  0  0  0
    7.4148  -18.6344   23.8889 C   0  0  0  0  0  0  0  0  0  0  0  0
    7.5687  -20.1356   23.6089 C   0  0  0  0  0  0  0  0  0  0  0  0
    7.0346  -20.9472   24.7704 C   0  0  0  0  0  0  0  0  0  0  0  0
    7.2991  -22.3525   24.5097 N   0  0  0  0  0  0  0  0  0  0  0  0
    8.4069  -15.8016   23.8813 C   0  0  0  0  0  0  0  0  0  0  0  0
    9.6478  -15.6381   23.9016 O   0  0  0  0  0  0  0  0  0  0  0  0
    5.7823  -11.8029   26.2295 C   0  0  0  0  0  0  0  0  0  0  0  0
    6.8886  -12.6839   25.7686 C   0  0  0  0  0  0  0  0  0  0  0  0
    7.2545  -13.7804   26.7230 C   0  0  2  0  0  0  0  0  0  0  0  0
    7.8644  -13.1324   27.9530 C   0  0  0  0  0  0  0  0  0  0  0  0
    8.2469  -14.7600   26.1780 C   0  0  2  0  0  0  0  0  0  0  0  0
    7.6643  -15.3712   25.0022 N   0  0  0  0  0  0  0  0  0  0  0  0
    8.6788  -15.7829   27.1194 C   0  0  0  0  0  0  0  0  0  0  0  0
    7.8748  -16.8951   27.3172 O   0  0  0  0  0  0  0  0  0  0  0  0
    9.7447  -15.7441   27.7854 O   0  0  0  0  0  0  0  0  0  0  0  0
  2  1  1  6
  2  3  1  0
  4  6  1  0
  4  2  1  0
  4  5  1  6
  6  7  2  0
  8  6  1  0
  8  9  1  0
  9 10  1  1
 11 10  1  0
 12 13  1  0
 12 11  1  0
 13 14  1  0
 15 22  1  0
 15  9  1  0
 16 15  2  0
 18 17  1  0
 18 19  1  0
 19 20  1  1
 19 21  1  0
 21 22  1  6
 23 24  1  0
 23 21  1  0
 25 23  2  0
M  END
$$$$
