VKI.pdb
     RDKit          3D

 25 24  0  0  1  0  0  0  0  0999 V2000
    8.8585  -12.7737   20.7515 C   0  0  0  0  0  0  0  0  0  0  0  0
    7.8516  -13.5100   19.8921 C   0  0  1  0  0  0  0  0  0  0  0  0
    7.9741  -12.9637   18.4851 C   0  0  0  0  0  0  0  0  0  0  0  0
    8.2179  -14.9763   19.9151 C   0  0  2  0  0  0  0  0  0  0  0  0
    7.3899  -15.6915   18.9630 N   0  0  0  0  0  0  0  0  0  0  0  0
    8.0725  -15.5503   21.2862 C   0  0  0  0  0  0  0  0  0  0  0  0
    6.9163  -15.7400   21.7903 O   0  0  0  0  0  0  0  0  0  0  0  0
    9.2498  -15.8750   22.0036 N   0  0  0  0  0  0  0  0  0  0  0  0
    9.2346  -16.5338   23.2913 C   0  0  1  0  0  0  0  0  0  0  0  0
   10.1792  -17.6969   23.1920 C   0  0  0  0  0  0  0  0  0  0  0  0
   10.3135  -18.5098   24.4347 C   0  0  0  0  0  0  0  0  0  0  0  0
   11.3154  -19.6280   24.1156 C   0  0  0  0  0  0  0  0  0  0  0  0
   11.4809  -20.5455   25.3087 C   0  0  0  0  0  0  0  0  0  0  0  0
   12.4271  -21.5913   24.9569 N   0  0  0  0  0  0  0  0  0  0  0  0
    9.6256  -15.5475   24.3334 C   0  0  0  0  0  0  0  0  0  0  0  0
   10.6414  -14.8338   24.1726 O   0  0  0  0  0  0  0  0  0  0  0  0
    6.0446  -12.3424   26.1405 C   0  0  0  0  0  0  0  0  0  0  0  0
    7.3575  -12.9635   25.8190 C   0  0  0  0  0  0  0  0  0  0  0  0
    7.9952  -13.7029   26.9563 C   0  0  2  0  0  0  0  0  0  0  0  0
    8.3751  -12.6802   28.0119 C   0  0  0  0  0  0  0  0  0  0  0  0
    9.2324  -14.4569   26.5786 C   0  0  2  0  0  0  0  0  0  0  0  0
    8.8810  -15.3810   25.5212 N   0  0  0  0  0  0  0  0  0  0  0  0
    9.8781  -15.1637   27.6752 C   0  0  0  0  0  0  0  0  0  0  0  0
   10.9287  -14.5516   28.3417 O   0  0  0  0  0  0  0  0  0  0  0  0
    9.5575  -16.3100   28.0805 O   0  0  0  0  0  0  0  0  0  0  0  0
  2  1  1  1
  2  3  1  0
  4  6  1  0
  4  2  1  0
  4  5  1  6
  6  7  2  0
  8  6  1  0
  8  9  1  0
  9 10  1  6
 11 10  1  0
 12 13  1  0
 12 11  1  0
 13 14  1  0
 15 22  1  0
 15  9  1  0
 16 15  2  0
 18 17  1  0
 18 19  1  0
 19 20  1  1
 19 21  1  0
 21 22  1  6
 23 24  1  0
 23 21  1  0
 25 23  2  0
M  END
$$$$
