VKI.pdb
     RDKit          3D

 25 24  0  0  1  0  0  0  0  0999 V2000
    5.7129  -19.8332   24.1448 C   0  0  0  0  0  0  0  0  0  0  0  0
    6.7285  -18.7170   24.0136 C   0  0  1  0  0  0  0  0  0  0  0  0
    7.9824  -19.1604   24.7377 C   0  0  0  0  0  0  0  0  0  0  0  0
    7.0154  -18.5321   22.5411 C   0  0  2  0  0  0  0  0  0  0  0  0
    7.5039  -19.7807   21.9881 N   0  0  0  0  0  0  0  0  0  0  0  0
    7.9950  -17.4279   22.3139 C   0  0  0  0  0  0  0  0  0  0  0  0
    9.2360  -17.6825   22.1658 O   0  0  0  0  0  0  0  0  0  0  0  0
    7.5064  -16.0992   22.2683 N   0  0  0  0  0  0  0  0  0  0  0  0
    8.3508  -14.9551   22.0031 C   0  0  1  0  0  0  0  0  0  0  0  0
    7.5515  -14.0192   21.1427 C   0  0  0  0  0  0  0  0  0  0  0  0
    7.2595  -14.5180   19.7682 C   0  0  0  0  0  0  0  0  0  0  0  0
    7.9358  -13.5391   18.7986 C   0  0  0  0  0  0  0  0  0  0  0  0
    7.6328  -13.9212   17.3651 C   0  0  0  0  0  0  0  0  0  0  0  0
    8.3919  -13.0475   16.4859 N   0  0  0  0  0  0  0  0  0  0  0  0
    8.7583  -14.3551   23.3015 C   0  0  0  0  0  0  0  0  0  0  0  0
    9.2437  -13.2018   23.3353 O   0  0  0  0  0  0  0  0  0  0  0  0
    7.0054  -11.4196   27.3797 C   0  0  0  0  0  0  0  0  0  0  0  0
    8.0110  -12.5011   27.2010 C   0  0  0  0  0  0  0  0  0  0  0  0
    7.8417  -13.3128   25.9522 C   0  0  2  0  0  0  0  0  0  0  0  0
    6.4383  -13.8914   25.9687 C   0  0  0  0  0  0  0  0  0  0  0  0
    8.8076  -14.4499   25.8261 C   0  0  2  0  0  0  0  0  0  0  0  0
    8.6163  -15.0494   24.5224 N   0  0  0  0  0  0  0  0  0  0  0  0
    8.7040  -15.4605   26.8686 C   0  0  0  0  0  0  0  0  0  0  0  0
    9.3001  -15.2205   28.0973 O   0  0  0  0  0  0  0  0  0  0  0  0
    8.1057  -16.5599   26.7483 O   0  0  0  0  0  0  0  0  0  0  0  0
  2  1  1  6
  2  3  1  0
  4  6  1  0
  4  2  1  0
  4  5  1  1
  6  7  2  0
  8  6  1  0
  8  9  1  0
  9 10  1  6
 11 10  1  0
 12 13  1  0
 12 11  1  0
 13 14  1  0
 15 22  1  0
 15  9  1  0
 16 15  2  0
 18 17  1  0
 18 19  1  0
 19 20  1  1
 19 21  1  0
 21 22  1  6
 23 24  1  0
 23 21  1  0
 25 23  2  0
M  END
$$$$
