QEH.pdb
     RDKit          3D

 29 29  0  0  1  0  0  0  0  0999 V2000
    8.1471  -12.3847   18.1868 N   0  0  0  0  0  0  0  0  0  0  0  0
    7.7561  -13.6449   17.5822 C   0  0  0  0  0  0  0  0  0  0  0  0
    8.1551  -13.7925   16.4180 O   0  0  0  0  0  0  0  0  0  0  0  0
    6.9541  -14.5772   18.3837 C   0  0  0  0  0  0  0  0  0  0  0  0
    7.1597  -14.4528   19.8345 C   0  0  0  0  0  0  0  0  0  0  0  0
    8.5467  -14.4760   20.3662 C   0  0  2  0  0  0  0  0  0  0  0  0
    9.4517  -14.9424   19.2709 N   0  0  0  0  0  0  0  0  0  0  0  0
    8.8349  -15.2895   21.5298 C   0  0  0  0  0  0  0  0  0  0  0  0
    7.9664  -15.4757   22.4103 O   0  0  0  0  0  0  0  0  0  0  0  0
   10.1266  -15.9094   21.7001 N   0  0  0  0  0  0  0  0  0  0  0  0
   10.4173  -16.7378   22.8324 C   0  0  1  0  0  0  0  0  0  0  0  0
   11.5658  -17.6516   22.6410 C   0  0  0  0  0  0  0  0  0  0  0  0
   11.9951  -18.5461   23.7162 C   0  0  0  0  0  0  0  0  0  0  0  0
   13.1738  -19.3964   23.4547 C   0  0  0  0  0  0  0  0  0  0  0  0
   14.3529  -19.0229   23.5275 O   0  0  0  0  0  0  0  0  0  0  0  0
   10.4765  -15.9613   24.0888 C   0  0  0  0  0  0  0  0  0  0  0  0
   10.6706  -14.7369   24.0538 O   0  0  0  0  0  0  0  0  0  0  0  0
   13.0067  -20.7508   23.0889 O   0  0  0  0  0  0  0  0  0  0  0  0
   10.3118  -16.6185   25.3214 N   0  0  0  0  0  0  0  0  0  0  0  0
    9.5913  -15.9212   26.4102 C   0  0  1  0  0  0  0  0  0  0  0  0
    8.2121  -15.6281   25.9064 C   0  0  0  0  0  0  0  0  0  0  0  0
    7.7526  -14.2470   26.1001 C   0  0  0  0  0  0  0  0  0  0  0  0
    8.3615  -13.1614   26.6631 C   0  0  0  0  0  0  0  0  0  0  0  0
    7.5822  -12.0493   26.5565 N   0  0  0  0  0  0  0  0  0  0  0  0
    6.4855  -12.4587   25.9200 C   0  0  0  0  0  0  0  0  0  0  0  0
    6.5502  -13.7511   25.6339 N   0  0  0  0  0  0  0  0  0  0  0  0
    9.5512  -16.9098   27.5309 C   0  0  0  0  0  0  0  0  0  0  0  0
    9.1304  -16.5805   28.6433 O   0  0  0  0  0  0  0  0  0  0  0  0
   10.0052  -18.2204   27.2806 O   0  0  0  0  0  0  0  0  0  0  0  0
  2  3  2  0
  2  1  1  0
  4  2  1  0
  5  4  1  0
  5  6  1  0
  6  8  1  0
  6  7  1  6
  8  9  2  0
 10 11  1  0
 10  8  1  0
 11 12  1  6
 12 13  1  0
 13 14  1  0
 14 18  1  0
 14 15  2  0
 16 19  1  0
 16 11  1  0
 17 16  2  0
 20 21  1  6
 20 19  1  0
 21 22  1  0
 22 23  2  0
 22 26  1  0
 23 24  1  0
 24 25  1  0
 26 25  2  0
 27 29  1  0
 27 20  1  0
 28 27  2  0
M  END
$$$$
