QEH.pdb
     RDKit          3D

 29 29  0  0  1  0  0  0  0  0999 V2000
    7.2360  -12.2677   18.7336 N   0  0  0  0  0  0  0  0  0  0  0  0
    7.5260  -13.1699   17.6343 C   0  0  0  0  0  0  0  0  0  0  0  0
    6.7661  -13.0443   16.6631 O   0  0  0  0  0  0  0  0  0  0  0  0
    8.6468  -14.1058   17.7849 C   0  0  0  0  0  0  0  0  0  0  0  0
    9.5298  -14.1797   16.6113 C   0  0  0  0  0  0  0  0  0  0  0  0
   10.6856  -15.1124   16.6419 C   0  0  2  0  0  0  0  0  0  0  0  0
   10.2640  -16.3892   15.9875 N   0  0  0  0  0  0  0  0  0  0  0  0
   11.2658  -15.4634   17.9222 C   0  0  0  0  0  0  0  0  0  0  0  0
   10.8242  -16.4310   18.5801 O   0  0  0  0  0  0  0  0  0  0  0  0
   12.3696  -14.7110   18.4677 N   0  0  0  0  0  0  0  0  0  0  0  0
   13.0425  -15.1267   19.6623 C   0  0  1  0  0  0  0  0  0  0  0  0
   14.3836  -14.5281   19.8467 C   0  0  0  0  0  0  0  0  0  0  0  0
   15.2272  -14.9206   20.9758 C   0  0  0  0  0  0  0  0  0  0  0  0
   16.5352  -14.2475   21.1052 C   0  0  0  0  0  0  0  0  0  0  0  0
   16.8285  -13.4210   21.9804 O   0  0  0  0  0  0  0  0  0  0  0  0
   12.1745  -15.0227   20.8543 C   0  0  0  0  0  0  0  0  0  0  0  0
   11.4692  -14.0167   21.0233 O   0  0  0  0  0  0  0  0  0  0  0  0
   17.5731  -14.5276   20.1883 O   0  0  0  0  0  0  0  0  0  0  0  0
   12.1539  -16.0695   21.7935 N   0  0  0  0  0  0  0  0  0  0  0  0
   11.2375  -15.9700   22.9516 C   0  0  1  0  0  0  0  0  0  0  0  0
    9.9441  -16.6045   22.5435 C   0  0  0  0  0  0  0  0  0  0  0  0
    8.9587  -15.6944   21.9460 C   0  0  0  0  0  0  0  0  0  0  0  0
    9.0144  -14.3588   21.6649 C   0  0  0  0  0  0  0  0  0  0  0  0
    7.8822  -13.9408   21.0333 N   0  0  0  0  0  0  0  0  0  0  0  0
    7.1265  -15.0329   20.9256 C   0  0  0  0  0  0  0  0  0  0  0  0
    7.7295  -16.0885   21.4532 N   0  0  0  0  0  0  0  0  0  0  0  0
   11.9037  -16.7623   24.0301 C   0  0  0  0  0  0  0  0  0  0  0  0
   11.3877  -16.8598   25.1469 O   0  0  0  0  0  0  0  0  0  0  0  0
   13.1304  -17.3906   23.7353 O   0  0  0  0  0  0  0  0  0  0  0  0
  2  3  2  0
  2  1  1  0
  4  2  1  0
  5  4  1  0
  5  6  1  0
  6  8  1  0
  6  7  1  1
  8  9  2  0
 10 11  1  0
 10  8  1  0
 11 12  1  1
 12 13  1  0
 13 14  1  0
 14 18  1  0
 14 15  2  0
 16 19  1  0
 16 11  1  0
 17 16  2  0
 20 21  1  6
 20 19  1  0
 21 22  1  0
 22 23  2  0
 22 26  1  0
 23 24  1  0
 24 25  1  0
 26 25  2  0
 27 29  1  0
 27 20  1  0
 28 27  2  0
M  END
$$$$
