QEH.pdb
     RDKit          3D

 29 29  0  0  1  0  0  0  0  0999 V2000
    7.5633  -15.6949   16.8225 N   0  0  0  0  0  0  0  0  0  0  0  0
    7.7424  -14.3144   16.4117 C   0  0  0  0  0  0  0  0  0  0  0  0
    7.9455  -14.1706   15.1974 O   0  0  0  0  0  0  0  0  0  0  0  0
    7.6706  -13.2713   17.4420 C   0  0  0  0  0  0  0  0  0  0  0  0
    7.3593  -13.7762   18.7875 C   0  0  0  0  0  0  0  0  0  0  0  0
    8.2941  -13.4717   19.9012 C   0  0  2  0  0  0  0  0  0  0  0  0
    9.6590  -13.2870   19.3187 N   0  0  0  0  0  0  0  0  0  0  0  0
    8.4212  -14.4233   20.9861 C   0  0  0  0  0  0  0  0  0  0  0  0
    7.4153  -14.8003   21.6265 O   0  0  0  0  0  0  0  0  0  0  0  0
    9.7080  -14.9640   21.3517 N   0  0  0  0  0  0  0  0  0  0  0  0
    9.8334  -16.0090   22.3238 C   0  0  1  0  0  0  0  0  0  0  0  0
   10.9242  -16.9708   22.0483 C   0  0  0  0  0  0  0  0  0  0  0  0
   10.9419  -17.7435   20.8060 C   0  0  0  0  0  0  0  0  0  0  0  0
   12.1104  -18.6153   20.5716 C   0  0  0  0  0  0  0  0  0  0  0  0
   12.6725  -19.3022   21.4359 O   0  0  0  0  0  0  0  0  0  0  0  0
    9.8357  -15.4853   23.7061 C   0  0  0  0  0  0  0  0  0  0  0  0
    9.9414  -14.2664   23.9084 O   0  0  0  0  0  0  0  0  0  0  0  0
   12.6761  -18.7148   19.2806 O   0  0  0  0  0  0  0  0  0  0  0  0
    9.7178  -16.3764   24.7880 N   0  0  0  0  0  0  0  0  0  0  0  0
    9.0156  -15.9245   26.0101 C   0  0  1  0  0  0  0  0  0  0  0  0
    7.5735  -15.7480   25.6478 C   0  0  0  0  0  0  0  0  0  0  0  0
    7.0015  -14.4340   25.9677 C   0  0  0  0  0  0  0  0  0  0  0  0
    7.5498  -13.3254   26.5479 C   0  0  0  0  0  0  0  0  0  0  0  0
    6.6603  -12.2943   26.5780 N   0  0  0  0  0  0  0  0  0  0  0  0
    5.5566  -12.7768   26.0085 C   0  0  0  0  0  0  0  0  0  0  0  0
    5.7204  -14.0377   25.6349 N   0  0  0  0  0  0  0  0  0  0  0  0
    9.1881  -17.0470   26.9822 C   0  0  0  0  0  0  0  0  0  0  0  0
    9.1397  -16.8377   28.1975 O   0  0  0  0  0  0  0  0  0  0  0  0
    9.4061  -18.3429   26.4728 O   0  0  0  0  0  0  0  0  0  0  0  0
  2  3  2  0
  2  1  1  0
  4  2  1  0
  5  4  1  0
  5  6  1  0
  6  8  1  0
  6  7  1  6
  8  9  2  0
 10 11  1  0
 10  8  1  0
 11 12  1  6
 12 13  1  0
 13 14  1  0
 14 18  1  0
 14 15  2  0
 16 19  1  0
 16 11  1  0
 17 16  2  0
 20 21  1  6
 20 19  1  0
 21 22  1  0
 22 23  2  0
 22 26  1  0
 23 24  1  0
 24 25  1  0
 26 25  2  0
 27 29  1  0
 27 20  1  0
 28 27  2  0
M  END
$$$$
