QEH.pdb
     RDKit          3D

 29 29  0  0  1  0  0  0  0  0999 V2000
    8.5608  -12.8252   17.7323 N   0  0  0  0  0  0  0  0  0  0  0  0
    8.4501  -12.6578   19.1698 C   0  0  0  0  0  0  0  0  0  0  0  0
    8.6946  -11.5088   19.5653 O   0  0  0  0  0  0  0  0  0  0  0  0
    8.0774  -13.8267   19.9756 C   0  0  0  0  0  0  0  0  0  0  0  0
    7.9944  -15.0809   19.2123 C   0  0  0  0  0  0  0  0  0  0  0  0
    7.5517  -16.3159   19.9093 C   0  0  2  0  0  0  0  0  0  0  0  0
    6.0683  -16.2397   20.0829 N   0  0  0  0  0  0  0  0  0  0  0  0
    8.1153  -16.6251   21.2076 C   0  0  0  0  0  0  0  0  0  0  0  0
    7.4150  -16.5550   22.2414 O   0  0  0  0  0  0  0  0  0  0  0  0
    9.4948  -17.0265   21.3409 N   0  0  0  0  0  0  0  0  0  0  0  0
   10.0730  -17.3093   22.6210 C   0  0  1  0  0  0  0  0  0  0  0  0
   11.4361  -17.8829   22.5613 C   0  0  0  0  0  0  0  0  0  0  0  0
   12.1378  -18.2687   23.7858 C   0  0  0  0  0  0  0  0  0  0  0  0
   13.5133  -18.7857   23.6395 C   0  0  0  0  0  0  0  0  0  0  0  0
   13.8337  -19.9818   23.6809 O   0  0  0  0  0  0  0  0  0  0  0  0
    9.9468  -16.1684   23.5523 C   0  0  0  0  0  0  0  0  0  0  0  0
    9.9608  -15.0071   23.1176 O   0  0  0  0  0  0  0  0  0  0  0  0
   14.5901  -17.8944   23.4340 O   0  0  0  0  0  0  0  0  0  0  0  0
    9.8114  -16.4080   24.9318 N   0  0  0  0  0  0  0  0  0  0  0  0
    9.4568  -15.2782   25.8198 C   0  0  1  0  0  0  0  0  0  0  0  0
    8.0656  -14.8572   25.4602 C   0  0  0  0  0  0  0  0  0  0  0  0
    7.4915  -13.8001   26.3023 C   0  0  0  0  0  0  0  0  0  0  0  0
    8.0203  -13.0785   27.3347 C   0  0  0  0  0  0  0  0  0  0  0  0
    7.1414  -12.1373   27.7787 N   0  0  0  0  0  0  0  0  0  0  0  0
    6.0640  -12.2837   27.0085 C   0  0  0  0  0  0  0  0  0  0  0  0
    6.2339  -13.2562   26.1244 N   0  0  0  0  0  0  0  0  0  0  0  0
    9.5007  -15.8532   27.1990 C   0  0  0  0  0  0  0  0  0  0  0  0
    9.2269  -15.1549   28.1790 O   0  0  0  0  0  0  0  0  0  0  0  0
    9.8615  -17.2078   27.3457 O   0  0  0  0  0  0  0  0  0  0  0  0
  2  3  2  0
  2  1  1  0
  4  2  1  0
  5  4  1  0
  5  6  1  0
  6  8  1  0
  6  7  1  1
  8  9  2  0
 10 11  1  0
 10  8  1  0
 11 12  1  6
 12 13  1  0
 13 14  1  0
 14 18  1  0
 14 15  2  0
 16 19  1  0
 16 11  1  0
 17 16  2  0
 20 21  1  6
 20 19  1  0
 21 22  1  0
 22 23  2  0
 22 26  1  0
 23 24  1  0
 24 25  1  0
 26 25  2  0
 27 29  1  0
 27 20  1  0
 28 27  2  0
M  END
$$$$
