QEH.pdb
     RDKit          3D

 29 29  0  0  1  0  0  0  0  0999 V2000
    6.8537  -19.3392   19.2445 N   0  0  0  0  0  0  0  0  0  0  0  0
    6.4962  -18.7051   17.9888 C   0  0  0  0  0  0  0  0  0  0  0  0
    5.3053  -18.8427   17.6739 O   0  0  0  0  0  0  0  0  0  0  0  0
    7.5468  -17.9960   17.2484 C   0  0  0  0  0  0  0  0  0  0  0  0
    8.8218  -17.8851   17.9725 C   0  0  0  0  0  0  0  0  0  0  0  0
    9.8223  -16.8877   17.5130 C   0  0  2  0  0  0  0  0  0  0  0  0
   10.1268  -17.1696   16.0763 N   0  0  0  0  0  0  0  0  0  0  0  0
   11.0914  -16.8014   18.2065 C   0  0  0  0  0  0  0  0  0  0  0  0
   11.5062  -17.7550   18.9011 O   0  0  0  0  0  0  0  0  0  0  0  0
   11.9107  -15.6175   18.1096 N   0  0  0  0  0  0  0  0  0  0  0  0
   13.1658  -15.5164   18.7931 C   0  0  1  0  0  0  0  0  0  0  0  0
   14.1173  -14.5608   18.1830 C   0  0  0  0  0  0  0  0  0  0  0  0
   15.4688  -14.4063   18.7220 C   0  0  0  0  0  0  0  0  0  0  0  0
   16.3831  -13.5005   17.9981 C   0  0  0  0  0  0  0  0  0  0  0  0
   16.8255  -12.4310   18.4404 O   0  0  0  0  0  0  0  0  0  0  0  0
   12.9927  -15.3368   20.2500 C   0  0  0  0  0  0  0  0  0  0  0  0
   12.3937  -14.3426   20.6865 O   0  0  0  0  0  0  0  0  0  0  0  0
   16.8227  -13.8257   16.6953 O   0  0  0  0  0  0  0  0  0  0  0  0
   13.5106  -16.2987   21.1361 N   0  0  0  0  0  0  0  0  0  0  0  0
   13.3989  -16.0594   22.5925 C   0  0  1  0  0  0  0  0  0  0  0  0
   12.4872  -17.1127   23.1415 C   0  0  0  0  0  0  0  0  0  0  0  0
   11.0531  -16.8085   23.0576 C   0  0  0  0  0  0  0  0  0  0  0  0
   10.3859  -15.7207   22.5701 C   0  0  0  0  0  0  0  0  0  0  0  0
    9.0374  -15.9045   22.6255 N   0  0  0  0  0  0  0  0  0  0  0  0
    8.8780  -17.1185   23.1511 C   0  0  0  0  0  0  0  0  0  0  0  0
   10.0466  -17.6833   23.4189 N   0  0  0  0  0  0  0  0  0  0  0  0
   14.7897  -16.2336   23.1121 C   0  0  0  0  0  0  0  0  0  0  0  0
   15.0348  -16.0821   24.3121 O   0  0  0  0  0  0  0  0  0  0  0  0
   15.8059  -16.5741   22.1967 O   0  0  0  0  0  0  0  0  0  0  0  0
  2  3  2  0
  2  1  1  0
  4  2  1  0
  5  4  1  0
  5  6  1  0
  6  8  1  0
  6  7  1  6
  8  9  2  0
 10 11  1  0
 10  8  1  0
 11 12  1  6
 12 13  1  0
 13 14  1  0
 14 18  1  0
 14 15  2  0
 16 19  1  0
 16 11  1  0
 17 16  2  0
 20 21  1  1
 20 19  1  0
 21 22  1  0
 22 23  2  0
 22 26  1  0
 23 24  1  0
 24 25  1  0
 26 25  2  0
 27 29  1  0
 27 20  1  0
 28 27  2  0
M  END
$$$$
