QEH.pdb
     RDKit          3D

 29 29  0  0  1  0  0  0  0  0999 V2000
    6.8065  -16.5910   13.7716 N   0  0  0  0  0  0  0  0  0  0  0  0
    7.4517  -17.5695   14.6277 C   0  0  0  0  0  0  0  0  0  0  0  0
    6.8584  -18.6560   14.6901 O   0  0  0  0  0  0  0  0  0  0  0  0
    8.6929  -17.1814   15.3085 C   0  0  0  0  0  0  0  0  0  0  0  0
    9.0464  -15.7628   15.1507 C   0  0  0  0  0  0  0  0  0  0  0  0
    9.2746  -14.9416   16.3674 C   0  0  2  0  0  0  0  0  0  0  0  0
    9.7173  -13.5822   15.9288 N   0  0  0  0  0  0  0  0  0  0  0  0
   10.2326  -15.4027   17.3515 C   0  0  0  0  0  0  0  0  0  0  0  0
   10.1718  -16.5661   17.8062 O   0  0  0  0  0  0  0  0  0  0  0  0
   11.2831  -14.5354   17.8274 N   0  0  0  0  0  0  0  0  0  0  0  0
   12.2343  -14.9762   18.8039 C   0  0  1  0  0  0  0  0  0  0  0  0
   13.6352  -14.6065   18.5011 C   0  0  0  0  0  0  0  0  0  0  0  0
   14.7303  -15.0704   19.3532 C   0  0  0  0  0  0  0  0  0  0  0  0
   16.1024  -14.9195   18.8284 C   0  0  0  0  0  0  0  0  0  0  0  0
   16.7015  -13.8430   18.6977 O   0  0  0  0  0  0  0  0  0  0  0  0
   11.8138  -14.6406   20.1807 C   0  0  0  0  0  0  0  0  0  0  0  0
   11.4298  -13.4927   20.4506 O   0  0  0  0  0  0  0  0  0  0  0  0
   16.8397  -16.0563   18.4278 O   0  0  0  0  0  0  0  0  0  0  0  0
   11.8520  -15.6293   21.1804 N   0  0  0  0  0  0  0  0  0  0  0  0
   10.8543  -15.5775   22.2725 C   0  0  1  0  0  0  0  0  0  0  0  0
    9.5397  -15.9898   21.6859 C   0  0  0  0  0  0  0  0  0  0  0  0
    8.7556  -14.9071   21.0783 C   0  0  0  0  0  0  0  0  0  0  0  0
    8.8494  -13.5489   21.1905 C   0  0  0  0  0  0  0  0  0  0  0  0
    7.9530  -12.9244   20.3770 N   0  0  0  0  0  0  0  0  0  0  0  0
    7.3050  -13.9112   19.7593 C   0  0  0  0  0  0  0  0  0  0  0  0
    7.7520  -15.0968   20.1478 N   0  0  0  0  0  0  0  0  0  0  0  0
   11.3326  -16.5833   23.2697 C   0  0  0  0  0  0  0  0  0  0  0  0
   12.1657  -17.4361   22.9507 O   0  0  0  0  0  0  0  0  0  0  0  0
   10.8075  -16.5288   24.5765 O   0  0  0  0  0  0  0  0  0  0  0  0
  2  3  2  0
  2  1  1  0
  4  2  1  0
  5  4  1  0
  5  6  1  0
  6  8  1  0
  6  7  1  6
  8  9  2  0
 10 11  1  0
 10  8  1  0
 11 12  1  6
 12 13  1  0
 13 14  1  0
 14 18  1  0
 14 15  2  0
 16 19  1  0
 16 11  1  0
 17 16  2  0
 20 21  1  6
 20 19  1  0
 21 22  1  0
 22 23  2  0
 22 26  1  0
 23 24  1  0
 24 25  1  0
 26 25  2  0
 27 29  1  0
 27 20  1  0
 28 27  2  0
M  END
$$$$
