QEH.pdb
     RDKit          3D

 29 29  0  0  1  0  0  0  0  0999 V2000
    7.0485  -12.3584   16.9399 N   0  0  0  0  0  0  0  0  0  0  0  0
    7.2541  -13.6998   16.4251 C   0  0  0  0  0  0  0  0  0  0  0  0
    6.7075  -13.9116   15.3330 O   0  0  0  0  0  0  0  0  0  0  0  0
    8.0561  -14.6325   17.2260 C   0  0  0  0  0  0  0  0  0  0  0  0
    8.4679  -14.1011   18.5338 C   0  0  0  0  0  0  0  0  0  0  0  0
    9.7731  -14.5268   19.1015 C   0  0  2  0  0  0  0  0  0  0  0  0
   10.5569  -15.1842   18.0107 N   0  0  0  0  0  0  0  0  0  0  0  0
    9.7805  -15.4312   20.2333 C   0  0  0  0  0  0  0  0  0  0  0  0
    8.7865  -15.5197   20.9871 O   0  0  0  0  0  0  0  0  0  0  0  0
   10.9303  -16.2557   20.5165 N   0  0  0  0  0  0  0  0  0  0  0  0
   10.9475  -17.1627   21.6254 C   0  0  1  0  0  0  0  0  0  0  0  0
   12.1306  -18.0511   21.6685 C   0  0  0  0  0  0  0  0  0  0  0  0
   12.2880  -19.0331   22.7416 C   0  0  0  0  0  0  0  0  0  0  0  0
   13.4884  -19.8920   22.6981 C   0  0  0  0  0  0  0  0  0  0  0  0
   14.1653  -20.2219   23.6819 O   0  0  0  0  0  0  0  0  0  0  0  0
   10.6679  -16.4802   22.9064 C   0  0  0  0  0  0  0  0  0  0  0  0
   11.2441  -15.4174   23.1827 O   0  0  0  0  0  0  0  0  0  0  0  0
   13.9495  -20.4079   21.4662 O   0  0  0  0  0  0  0  0  0  0  0  0
    9.7463  -17.0427   23.8079 N   0  0  0  0  0  0  0  0  0  0  0  0
    9.3544  -16.2649   25.0046 C   0  0  1  0  0  0  0  0  0  0  0  0
    7.8752  -16.0477   24.9218 C   0  0  0  0  0  0  0  0  0  0  0  0
    7.4092  -14.7242   25.3547 C   0  0  0  0  0  0  0  0  0  0  0  0
    8.0897  -13.6256   25.7977 C   0  0  0  0  0  0  0  0  0  0  0  0
    7.2458  -12.5793   26.0179 N   0  0  0  0  0  0  0  0  0  0  0  0
    6.0363  -13.0424   25.7046 C   0  0  0  0  0  0  0  0  0  0  0  0
    6.0933  -14.3057   25.3083 N   0  0  0  0  0  0  0  0  0  0  0  0
    9.7003  -17.1484   26.1598 C   0  0  0  0  0  0  0  0  0  0  0  0
    9.4974  -16.7747   27.3184 O   0  0  0  0  0  0  0  0  0  0  0  0
   10.2609  -18.4127   25.8881 O   0  0  0  0  0  0  0  0  0  0  0  0
  2  3  2  0
  2  1  1  0
  4  2  1  0
  5  4  1  0
  5  6  1  0
  6  8  1  0
  6  7  1  6
  8  9  2  0
 10 11  1  0
 10  8  1  0
 11 12  1  1
 12 13  1  0
 13 14  1  0
 14 18  1  0
 14 15  2  0
 16 19  1  0
 16 11  1  0
 17 16  2  0
 20 21  1  6
 20 19  1  0
 21 22  1  0
 22 23  2  0
 22 26  1  0
 23 24  1  0
 24 25  1  0
 26 25  2  0
 27 29  1  0
 27 20  1  0
 28 27  2  0
M  END
$$$$
