QEH.pdb
     RDKit          3D

 29 29  0  0  1  0  0  0  0  0999 V2000
    7.3246  -14.8196   16.5515 N   0  0  0  0  0  0  0  0  0  0  0  0
    7.8621  -13.4879   16.3412 C   0  0  0  0  0  0  0  0  0  0  0  0
    8.0265  -13.1915   15.1489 O   0  0  0  0  0  0  0  0  0  0  0  0
    8.1481  -12.6632   17.5214 C   0  0  0  0  0  0  0  0  0  0  0  0
    7.8663  -13.3287   18.8020 C   0  0  0  0  0  0  0  0  0  0  0  0
    9.0040  -13.8364   19.6113 C   0  0  2  0  0  0  0  0  0  0  0  0
    9.8962  -14.6251   18.7069 N   0  0  0  0  0  0  0  0  0  0  0  0
    8.7245  -14.6693   20.7633 C   0  0  0  0  0  0  0  0  0  0  0  0
    8.0100  -14.2471   21.6988 O   0  0  0  0  0  0  0  0  0  0  0  0
    9.2575  -16.0068   20.8585 N   0  0  0  0  0  0  0  0  0  0  0  0
    8.9527  -16.8580   21.9699 C   0  0  1  0  0  0  0  0  0  0  0  0
    8.9248  -18.3013   21.6432 C   0  0  0  0  0  0  0  0  0  0  0  0
    8.7360  -19.3010   22.6947 C   0  0  0  0  0  0  0  0  0  0  0  0
    8.6118  -20.7099   22.2701 C   0  0  0  0  0  0  0  0  0  0  0  0
    8.6835  -21.1111   21.1002 O   0  0  0  0  0  0  0  0  0  0  0  0
    9.7669  -16.5319   23.1597 C   0  0  0  0  0  0  0  0  0  0  0  0
   10.9901  -16.3611   23.0476 O   0  0  0  0  0  0  0  0  0  0  0  0
    8.3931  -21.7249   23.2284 O   0  0  0  0  0  0  0  0  0  0  0  0
    9.1468  -16.4169   24.4170 N   0  0  0  0  0  0  0  0  0  0  0  0
    9.9754  -16.0595   25.5903 C   0  0  1  0  0  0  0  0  0  0  0  0
    9.1663  -15.1190   26.4287 C   0  0  0  0  0  0  0  0  0  0  0  0
    9.7358  -14.8017   27.7445 C   0  0  0  0  0  0  0  0  0  0  0  0
   10.8891  -15.2086   28.3533 C   0  0  0  0  0  0  0  0  0  0  0  0
   11.0535  -14.5939   29.5577 N   0  0  0  0  0  0  0  0  0  0  0  0
    9.9902  -13.8013   29.6862 C   0  0  0  0  0  0  0  0  0  0  0  0
    9.1896  -13.8970   28.6345 N   0  0  0  0  0  0  0  0  0  0  0  0
   10.1984  -17.3538   26.3041 C   0  0  0  0  0  0  0  0  0  0  0  0
    9.4533  -18.3171   26.1043 O   0  0  0  0  0  0  0  0  0  0  0  0
   11.2780  -17.4407   27.2060 O   0  0  0  0  0  0  0  0  0  0  0  0
  2  3  2  0
  2  1  1  0
  4  2  1  0
  5  4  1  0
  5  6  1  0
  6  8  1  0
  6  7  1  6
  8  9  2  0
 10 11  1  0
 10  8  1  0
 11 12  1  6
 12 13  1  0
 13 14  1  0
 14 18  1  0
 14 15  2  0
 16 19  1  0
 16 11  1  0
 17 16  2  0
 20 21  1  1
 20 19  1  0
 21 22  1  0
 22 23  2  0
 22 26  1  0
 23 24  1  0
 24 25  1  0
 26 25  2  0
 27 29  1  0
 27 20  1  0
 28 27  2  0
M  END
$$$$
