QEH.pdb
     RDKit          3D

 29 29  0  0  1  0  0  0  0  0999 V2000
    8.5389  -12.2661   19.0511 N   0  0  0  0  0  0  0  0  0  0  0  0
    8.4227  -13.0679   17.8468 C   0  0  0  0  0  0  0  0  0  0  0  0
    8.1603  -12.4137   16.8272 O   0  0  0  0  0  0  0  0  0  0  0  0
    8.6174  -14.5184   17.9602 C   0  0  0  0  0  0  0  0  0  0  0  0
    8.8196  -14.9916   19.3378 C   0  0  0  0  0  0  0  0  0  0  0  0
    8.9833  -16.4484   19.5781 C   0  0  2  0  0  0  0  0  0  0  0  0
    7.7274  -17.1312   19.1391 N   0  0  0  0  0  0  0  0  0  0  0  0
    9.2673  -16.9066   20.9229 C   0  0  0  0  0  0  0  0  0  0  0  0
    8.3430  -17.2714   21.6822 O   0  0  0  0  0  0  0  0  0  0  0  0
   10.6216  -16.9591   21.4181 N   0  0  0  0  0  0  0  0  0  0  0  0
   10.9203  -17.4396   22.7344 C   0  0  1  0  0  0  0  0  0  0  0  0
   12.3092  -17.9211   22.9073 C   0  0  0  0  0  0  0  0  0  0  0  0
   12.7580  -18.4596   24.1916 C   0  0  0  0  0  0  0  0  0  0  0  0
   14.1791  -18.8460   24.3003 C   0  0  0  0  0  0  0  0  0  0  0  0
   15.1312  -18.0550   24.3527 O   0  0  0  0  0  0  0  0  0  0  0  0
   10.4819  -16.4955   23.7838 C   0  0  0  0  0  0  0  0  0  0  0  0
   10.8213  -15.3040   23.7286 O   0  0  0  0  0  0  0  0  0  0  0  0
   14.5433  -20.2101   24.3529 O   0  0  0  0  0  0  0  0  0  0  0  0
    9.6793  -16.9562   24.8431 N   0  0  0  0  0  0  0  0  0  0  0  0
    9.2974  -16.0072   25.9128 C   0  0  1  0  0  0  0  0  0  0  0  0
    7.8247  -15.7697   25.7837 C   0  0  0  0  0  0  0  0  0  0  0  0
    7.3798  -14.4031   26.0844 C   0  0  0  0  0  0  0  0  0  0  0  0
    8.0761  -13.2814   26.4354 C   0  0  0  0  0  0  0  0  0  0  0  0
    7.2509  -12.2031   26.5436 N   0  0  0  0  0  0  0  0  0  0  0  0
    6.0369  -12.6699   26.2541 C   0  0  0  0  0  0  0  0  0  0  0  0
    6.0736  -13.9654   25.9773 N   0  0  0  0  0  0  0  0  0  0  0  0
    9.6127  -16.7252   27.1855 C   0  0  0  0  0  0  0  0  0  0  0  0
    9.4559  -16.1683   28.2756 O   0  0  0  0  0  0  0  0  0  0  0  0
   10.0909  -18.0485   27.1039 O   0  0  0  0  0  0  0  0  0  0  0  0
  2  3  2  0
  2  1  1  0
  4  2  1  0
  5  4  1  0
  5  6  1  0
  6  8  1  0
  6  7  1  1
  8  9  2  0
 10 11  1  0
 10  8  1  0
 11 12  1  6
 12 13  1  0
 13 14  1  0
 14 18  1  0
 14 15  2  0
 16 19  1  0
 16 11  1  0
 17 16  2  0
 20 21  1  1
 20 19  1  0
 21 22  1  0
 22 23  2  0
 22 26  1  0
 23 24  1  0
 24 25  1  0
 26 25  2  0
 27 29  1  0
 27 20  1  0
 28 27  2  0
M  END
$$$$
