QEH.pdb
     RDKit          3D

 29 29  0  0  1  0  0  0  0  0999 V2000
    8.1216  -11.3046   18.5547 N   0  0  0  0  0  0  0  0  0  0  0  0
    7.1765  -12.3786   18.7993 C   0  0  0  0  0  0  0  0  0  0  0  0
    6.1971  -12.0447   19.4819 O   0  0  0  0  0  0  0  0  0  0  0  0
    7.4718  -13.7014   18.2358 C   0  0  0  0  0  0  0  0  0  0  0  0
    8.2336  -14.5811   19.1348 C   0  0  0  0  0  0  0  0  0  0  0  0
    9.2163  -15.5279   18.5476 C   0  0  2  0  0  0  0  0  0  0  0  0
    8.4546  -16.5894   17.8201 N   0  0  0  0  0  0  0  0  0  0  0  0
   10.1480  -16.2025   19.4283 C   0  0  0  0  0  0  0  0  0  0  0  0
    9.8315  -17.2711   19.9958 O   0  0  0  0  0  0  0  0  0  0  0  0
   11.4646  -15.6633   19.6688 N   0  0  0  0  0  0  0  0  0  0  0  0
   12.3182  -16.1962   20.6887 C   0  0  1  0  0  0  0  0  0  0  0  0
   13.7594  -16.1717   20.3523 C   0  0  0  0  0  0  0  0  0  0  0  0
   14.3167  -15.0941   19.5345 C   0  0  0  0  0  0  0  0  0  0  0  0
   15.7038  -14.6779   19.8233 C   0  0  0  0  0  0  0  0  0  0  0  0
   16.4178  -15.1490   20.7195 O   0  0  0  0  0  0  0  0  0  0  0  0
   12.0078  -15.6374   22.0215 C   0  0  0  0  0  0  0  0  0  0  0  0
   12.0525  -14.4120   22.2071 O   0  0  0  0  0  0  0  0  0  0  0  0
   16.3187  -13.6676   19.0504 O   0  0  0  0  0  0  0  0  0  0  0  0
   11.6625  -16.5024   23.0755 N   0  0  0  0  0  0  0  0  0  0  0  0
   10.6399  -16.0637   24.0516 C   0  0  1  0  0  0  0  0  0  0  0  0
    9.3713  -15.8411   23.2880 C   0  0  0  0  0  0  0  0  0  0  0  0
    8.4202  -14.9096   23.9076 C   0  0  0  0  0  0  0  0  0  0  0  0
    8.5075  -14.1445   25.0359 C   0  0  0  0  0  0  0  0  0  0  0  0
    7.4021  -13.3633   25.1881 N   0  0  0  0  0  0  0  0  0  0  0  0
    6.6310  -13.6525   24.1407 C   0  0  0  0  0  0  0  0  0  0  0  0
    7.1995  -14.5617   23.3619 N   0  0  0  0  0  0  0  0  0  0  0  0
   10.4998  -17.2145   24.9954 C   0  0  0  0  0  0  0  0  0  0  0  0
   10.3838  -17.0205   26.2087 O   0  0  0  0  0  0  0  0  0  0  0  0
   10.5038  -18.5190   24.4619 O   0  0  0  0  0  0  0  0  0  0  0  0
  2  3  2  0
  2  1  1  0
  4  2  1  0
  5  4  1  0
  5  6  1  0
  6  8  1  0
  6  7  1  1
  8  9  2  0
 10 11  1  0
 10  8  1  0
 11 12  1  6
 12 13  1  0
 13 14  1  0
 14 18  1  0
 14 15  2  0
 16 19  1  0
 16 11  1  0
 17 16  2  0
 20 21  1  6
 20 19  1  0
 21 22  1  0
 22 23  2  0
 22 26  1  0
 23 24  1  0
 24 25  1  0
 26 25  2  0
 27 29  1  0
 27 20  1  0
 28 27  2  0
M  END
$$$$
