QEH.pdb
     RDKit          3D

 29 29  0  0  1  0  0  0  0  0999 V2000
    8.9911  -12.2774   19.6336 N   0  0  0  0  0  0  0  0  0  0  0  0
    7.8316  -12.7171   18.8794 C   0  0  0  0  0  0  0  0  0  0  0  0
    6.9889  -11.8293   18.6841 O   0  0  0  0  0  0  0  0  0  0  0  0
    7.7792  -14.1186   18.4461 C   0  0  0  0  0  0  0  0  0  0  0  0
    8.9419  -14.9189   18.8584 C   0  0  0  0  0  0  0  0  0  0  0  0
   10.0143  -15.1884   17.8664 C   0  0  2  0  0  0  0  0  0  0  0  0
    9.5219  -16.2478   16.9328 N   0  0  0  0  0  0  0  0  0  0  0  0
   11.3150  -15.6136   18.3423 C   0  0  0  0  0  0  0  0  0  0  0  0
   11.4937  -16.7797   18.7573 O   0  0  0  0  0  0  0  0  0  0  0  0
   12.4370  -14.7064   18.3447 N   0  0  0  0  0  0  0  0  0  0  0  0
   13.7073  -15.0866   18.8873 C   0  0  1  0  0  0  0  0  0  0  0  0
   14.8697  -14.4744   18.2054 C   0  0  0  0  0  0  0  0  0  0  0  0
   15.2092  -14.8449   16.8314 C   0  0  0  0  0  0  0  0  0  0  0  0
   16.3355  -14.1288   16.1993 C   0  0  0  0  0  0  0  0  0  0  0  0
   16.9865  -13.2163   16.7271 O   0  0  0  0  0  0  0  0  0  0  0  0
   13.7442  -14.9578   20.3593 C   0  0  0  0  0  0  0  0  0  0  0  0
   13.4130  -13.8911   20.8981 O   0  0  0  0  0  0  0  0  0  0  0  0
   16.7488  -14.4667   14.8912 O   0  0  0  0  0  0  0  0  0  0  0  0
   14.1567  -16.0504   21.1433 N   0  0  0  0  0  0  0  0  0  0  0  0
   14.2850  -15.8695   22.6067 C   0  0  1  0  0  0  0  0  0  0  0  0
   13.4088  -16.8965   23.2544 C   0  0  0  0  0  0  0  0  0  0  0  0
   11.9886  -16.5374   23.3552 C   0  0  0  0  0  0  0  0  0  0  0  0
   11.3149  -15.4027   23.0020 C   0  0  0  0  0  0  0  0  0  0  0  0
    9.9755  -15.5409   23.2079 N   0  0  0  0  0  0  0  0  0  0  0  0
    9.8282  -16.7740   23.6907 C   0  0  0  0  0  0  0  0  0  0  0  0
   10.9955  -17.3933   23.7914 N   0  0  0  0  0  0  0  0  0  0  0  0
   15.7267  -16.1389   22.8960 C   0  0  0  0  0  0  0  0  0  0  0  0
   16.1551  -16.0869   24.0522 O   0  0  0  0  0  0  0  0  0  0  0  0
   16.5764  -16.4522   21.8161 O   0  0  0  0  0  0  0  0  0  0  0  0
  2  3  2  0
  2  1  1  0
  4  2  1  0
  5  4  1  0
  5  6  1  0
  6  8  1  0
  6  7  1  6
  8  9  2  0
 10 11  1  0
 10  8  1  0
 11 12  1  6
 12 13  1  0
 13 14  1  0
 14 18  1  0
 14 15  2  0
 16 19  1  0
 16 11  1  0
 17 16  2  0
 20 21  1  1
 20 19  1  0
 21 22  1  0
 22 23  2  0
 22 26  1  0
 23 24  1  0
 24 25  1  0
 26 25  2  0
 27 29  1  0
 27 20  1  0
 28 27  2  0
M  END
$$$$
