QEH.pdb
     RDKit          3D

 29 29  0  0  1  0  0  0  0  0999 V2000
   10.2774  -14.7329   14.0990 N   0  0  0  0  0  0  0  0  0  0  0  0
    9.0182  -15.3256   14.5109 C   0  0  0  0  0  0  0  0  0  0  0  0
    8.2607  -15.6076   13.5711 O   0  0  0  0  0  0  0  0  0  0  0  0
    8.7812  -15.5180   15.9466 C   0  0  0  0  0  0  0  0  0  0  0  0
    9.8991  -15.0934   16.8023 C   0  0  0  0  0  0  0  0  0  0  0  0
   10.4985  -16.0782   17.7393 C   0  0  2  0  0  0  0  0  0  0  0  0
    9.3881  -16.8907   18.3251 N   0  0  0  0  0  0  0  0  0  0  0  0
   11.2979  -15.5924   18.8455 C   0  0  0  0  0  0  0  0  0  0  0  0
   12.0773  -14.6261   18.6948 O   0  0  0  0  0  0  0  0  0  0  0  0
   11.2117  -16.2060   20.1487 N   0  0  0  0  0  0  0  0  0  0  0  0
   12.0748  -15.8109   21.2219 C   0  0  1  0  0  0  0  0  0  0  0  0
   11.7019  -16.3682   22.5414 C   0  0  0  0  0  0  0  0  0  0  0  0
   10.3619  -16.1563   23.0894 C   0  0  0  0  0  0  0  0  0  0  0  0
   10.0752  -16.7434   24.4137 C   0  0  0  0  0  0  0  0  0  0  0  0
   10.4896  -16.3015   25.4944 O   0  0  0  0  0  0  0  0  0  0  0  0
   13.5022  -15.9889   20.8817 C   0  0  0  0  0  0  0  0  0  0  0  0
   13.8745  -17.0050   20.2759 O   0  0  0  0  0  0  0  0  0  0  0  0
    9.2709  -17.9001   24.5199 O   0  0  0  0  0  0  0  0  0  0  0  0
   14.4336  -15.0008   21.2488 N   0  0  0  0  0  0  0  0  0  0  0  0
   15.8543  -15.1877   20.8785 C   0  0  1  0  0  0  0  0  0  0  0  0
   16.3588  -13.8645   20.3921 C   0  0  0  0  0  0  0  0  0  0  0  0
   16.0037  -13.5268   19.0079 C   0  0  0  0  0  0  0  0  0  0  0  0
   15.3245  -14.2268   18.0515 C   0  0  0  0  0  0  0  0  0  0  0  0
   15.1591  -13.4840   16.9218 N   0  0  0  0  0  0  0  0  0  0  0  0
   15.7420  -12.3164   17.1906 C   0  0  0  0  0  0  0  0  0  0  0  0
   16.2519  -12.3043   18.4138 N   0  0  0  0  0  0  0  0  0  0  0  0
   16.5290  -15.5803   22.1534 C   0  0  0  0  0  0  0  0  0  0  0  0
   15.8954  -15.6214   23.2117 O   0  0  0  0  0  0  0  0  0  0  0  0
   17.9009  -15.9001   22.1110 O   0  0  0  0  0  0  0  0  0  0  0  0
  2  3  2  0
  2  1  1  0
  4  2  1  0
  5  4  1  0
  5  6  1  0
  6  8  1  0
  6  7  1  1
  8  9  2  0
 10 11  1  0
 10  8  1  0
 11 12  1  1
 12 13  1  0
 13 14  1  0
 14 18  1  0
 14 15  2  0
 16 19  1  0
 16 11  1  0
 17 16  2  0
 20 21  1  1
 20 19  1  0
 21 22  1  0
 22 23  2  0
 22 26  1  0
 23 24  1  0
 24 25  1  0
 26 25  2  0
 27 29  1  0
 27 20  1  0
 28 27  2  0
M  END
$$$$
