QEH.pdb
     RDKit          3D

 29 29  0  0  1  0  0  0  0  0999 V2000
    7.8876  -12.5296   18.0553 N   0  0  0  0  0  0  0  0  0  0  0  0
    7.7307  -13.7586   17.2992 C   0  0  0  0  0  0  0  0  0  0  0  0
    6.9759  -13.6576   16.3212 O   0  0  0  0  0  0  0  0  0  0  0  0
    8.4538  -14.9504   17.7586 C   0  0  0  0  0  0  0  0  0  0  0  0
    9.2640  -14.7332   18.9665 C   0  0  0  0  0  0  0  0  0  0  0  0
   10.1481  -15.8280   19.4427 C   0  0  2  0  0  0  0  0  0  0  0  0
   10.2688  -16.8336   18.3424 N   0  0  0  0  0  0  0  0  0  0  0  0
    9.7780  -16.5530   20.6411 C   0  0  0  0  0  0  0  0  0  0  0  0
    8.5947  -16.5566   21.0460 O   0  0  0  0  0  0  0  0  0  0  0  0
   10.7617  -17.2928   21.3941 N   0  0  0  0  0  0  0  0  0  0  0  0
   10.3954  -18.0871   22.5289 C   0  0  1  0  0  0  0  0  0  0  0  0
   11.0553  -19.4108   22.5855 C   0  0  0  0  0  0  0  0  0  0  0  0
   10.9855  -20.3288   21.4484 C   0  0  0  0  0  0  0  0  0  0  0  0
   11.6913  -21.6192   21.5801 C   0  0  0  0  0  0  0  0  0  0  0  0
   11.2523  -22.6149   22.1723 O   0  0  0  0  0  0  0  0  0  0  0  0
   10.4804  -17.3244   23.7922 C   0  0  0  0  0  0  0  0  0  0  0  0
   11.4001  -16.5108   23.9661 O   0  0  0  0  0  0  0  0  0  0  0  0
   12.9710  -21.7918   21.0066 O   0  0  0  0  0  0  0  0  0  0  0  0
    9.5137  -17.5270   24.7937 N   0  0  0  0  0  0  0  0  0  0  0  0
    9.6616  -16.8132   26.0818 C   0  0  1  0  0  0  0  0  0  0  0  0
    8.3435  -16.1683   26.3800 C   0  0  0  0  0  0  0  0  0  0  0  0
    8.0828  -14.9120   25.6660 C   0  0  0  0  0  0  0  0  0  0  0  0
    8.8497  -14.1894   24.7966 C   0  0  0  0  0  0  0  0  0  0  0  0
    8.1661  -13.1152   24.3126 N   0  0  0  0  0  0  0  0  0  0  0  0
    6.9677  -13.1824   24.8909 C   0  0  0  0  0  0  0  0  0  0  0  0
    6.8811  -14.2308   25.6969 N   0  0  0  0  0  0  0  0  0  0  0  0
    9.9676  -17.8867   27.0761 C   0  0  0  0  0  0  0  0  0  0  0  0
   10.1267  -17.6109   28.2685 O   0  0  0  0  0  0  0  0  0  0  0  0
   10.0680  -19.2145   26.6143 O   0  0  0  0  0  0  0  0  0  0  0  0
  2  3  2  0
  2  1  1  0
  4  2  1  0
  5  4  1  0
  5  6  1  0
  6  8  1  0
  6  7  1  6
  8  9  2  0
 10 11  1  0
 10  8  1  0
 11 12  1  1
 12 13  1  0
 13 14  1  0
 14 18  1  0
 14 15  2  0
 16 19  1  0
 16 11  1  0
 17 16  2  0
 20 21  1  1
 20 19  1  0
 21 22  1  0
 22 23  2  0
 22 26  1  0
 23 24  1  0
 24 25  1  0
 26 25  2  0
 27 29  1  0
 27 20  1  0
 28 27  2  0
M  END
$$$$
