KRC.pdb
     RDKit          3D

 27 26  0  0  1  0  0  0  0  0999 V2000
    9.9539  -21.0003   17.3129 N   0  0  0  0  0  0  0  0  0  0  0  0
    9.3305  -20.7810   18.5961 C   0  0  1  0  0  0  0  0  0  0  0  0
    9.5708  -21.9717   19.4530 C   0  0  0  0  0  0  0  0  0  0  0  0
   11.0351  -22.2046   19.6441 C   0  0  0  0  0  0  0  0  0  0  0  0
   11.3157  -23.4828   20.3837 C   0  0  0  0  0  0  0  0  0  0  0  0
   12.8115  -23.6353   20.6116 C   0  0  0  0  0  0  0  0  0  0  0  0
   13.0247  -24.8699   21.3421 N   0  0  0  0  0  0  0  0  0  0  0  0
    9.7791  -19.5109   19.2240 C   0  0  0  0  0  0  0  0  0  0  0  0
   10.9854  -19.1650   19.0768 O   0  0  0  0  0  0  0  0  0  0  0  0
    8.8859  -12.3821   19.9782 N   0  0  0  0  0  0  0  0  0  0  0  0
    7.6283  -12.8909   19.5430 C   0  0  0  0  0  0  0  0  0  0  0  0
    7.1134  -12.5283   18.4282 N   0  0  0  0  0  0  0  0  0  0  0  0
    6.9117  -13.8213   20.3477 N   0  0  0  0  0  0  0  0  0  0  0  0
    7.3596  -14.2943   21.6377 C   0  0  0  0  0  0  0  0  0  0  0  0
    8.5775  -15.1629   21.3852 C   0  0  0  0  0  0  0  0  0  0  0  0
    8.2650  -16.4661   20.7737 C   0  0  0  0  0  0  0  0  0  0  0  0
    9.4356  -17.3751   20.5425 C   0  0  2  0  0  0  0  0  0  0  0  0
    8.9584  -18.6474   19.9812 N   0  0  0  0  0  0  0  0  0  0  0  0
   10.1891  -17.7426   21.7550 C   0  0  0  0  0  0  0  0  0  0  0  0
    9.7240  -18.6214   22.5320 O   0  0  0  0  0  0  0  0  0  0  0  0
    6.1813  -12.8606   18.1521 N   0  0  0  0  0  0  0  0  0  0  0  0
   11.4301  -17.1851   22.1411 C   0  0  2  0  0  0  0  0  0  0  0  0
   12.0808  -17.6294   23.3933 C   0  0  0  0  0  0  0  0  0  0  0  0
   13.6004  -17.6330   23.1821 S   0  0  0  0  0  0  0  0  0  0  0  0
   14.4427  -18.5715   24.4744 C   0  0  0  0  0  0  0  0  0  0  0  0
   11.6698  -16.7770   24.5111 O   0  0  0  0  0  0  0  0  0  0  0  0
   11.5973  -17.2553   25.6753 O   0  0  0  0  0  0  0  0  0  0  0  0
  2  1  1  6
  2  3  1  0
  2  8  1  0
  4  5  1  0
  4  3  1  0
  5  6  1  0
  7  6  1  0
  8 18  1  0
  8  9  2  0
 10 11  1  0
 11 12  2  0
 13 14  1  0
 13 11  1  0
 14 15  1  0
 15 16  1  0
 17 16  1  1
 18 17  1  0
 19 17  1  0
 19 21  1  0
 20 19  2  0
 22 23  1  6
 22 21  1  0
 22 25  1  0
 24 23  1  0
 25 27  1  0
 26 25  2  0
M  END
$$$$
