KRC.pdb
     RDKit          3D

 27 26  0  0  1  0  0  0  0  0999 V2000
    8.2680  -17.3620   18.3922 N   0  0  0  0  0  0  0  0  0  0  0  0
    9.1311  -16.3744   18.9949 C   0  0  1  0  0  0  0  0  0  0  0  0
    8.3665  -15.1106   19.1619 C   0  0  0  0  0  0  0  0  0  0  0  0
    7.7947  -14.6568   17.8574 C   0  0  0  0  0  0  0  0  0  0  0  0
    6.9470  -13.4244   18.0061 C   0  0  0  0  0  0  0  0  0  0  0  0
    6.3504  -13.0370   16.6621 C   0  0  0  0  0  0  0  0  0  0  0  0
    5.5274  -11.8602   16.8654 N   0  0  0  0  0  0  0  0  0  0  0  0
    9.7358  -16.8616   20.2621 C   0  0  0  0  0  0  0  0  0  0  0  0
    9.0131  -17.5372   21.0480 O   0  0  0  0  0  0  0  0  0  0  0  0
   14.9459  -14.0071   19.8259 N   0  0  0  0  0  0  0  0  0  0  0  0
   15.4538  -14.9083   18.8463 C   0  0  0  0  0  0  0  0  0  0  0  0
   15.8151  -14.4982   17.6885 N   0  0  0  0  0  0  0  0  0  0  0  0
   15.5700  -16.2969   19.1383 N   0  0  0  0  0  0  0  0  0  0  0  0
   15.1885  -16.8977   20.3960 C   0  0  0  0  0  0  0  0  0  0  0  0
   13.6991  -16.6605   20.5591 C   0  0  0  0  0  0  0  0  0  0  0  0
   13.1257  -17.2746   21.7691 C   0  0  0  0  0  0  0  0  0  0  0  0
   11.6358  -17.1713   21.9090 C   0  0  2  0  0  0  0  0  0  0  0  0
   11.0682  -16.6290   20.6659 N   0  0  0  0  0  0  0  0  0  0  0  0
   11.1706  -16.2670   22.9762 C   0  0  0  0  0  0  0  0  0  0  0  0
   10.9704  -15.0490   22.7141 O   0  0  0  0  0  0  0  0  0  0  0  0
   16.2058  -15.1548   17.0016 N   0  0  0  0  0  0  0  0  0  0  0  0
   10.9154  -16.6510   24.3132 C   0  0  1  0  0  0  0  0  0  0  0  0
    9.8996  -15.9262   25.1078 C   0  0  0  0  0  0  0  0  0  0  0  0
    8.5390  -16.0707   24.4138 S   0  0  0  0  0  0  0  0  0  0  0  0
    7.2113  -15.3660   25.4141 C   0  0  0  0  0  0  0  0  0  0  0  0
    9.8836  -16.4205   26.4865 O   0  0  0  0  0  0  0  0  0  0  0  0
   10.3185  -17.5745   26.7477 O   0  0  0  0  0  0  0  0  0  0  0  0
  2  1  1  1
  2  3  1  0
  2  8  1  0
  4  5  1  0
  4  3  1  0
  5  6  1  0
  7  6  1  0
  8 18  1  0
  8  9  2  0
 10 11  1  0
 11 12  2  0
 13 14  1  0
 13 11  1  0
 14 15  1  0
 15 16  1  0
 17 16  1  6
 18 17  1  0
 19 17  1  0
 19 21  1  0
 20 19  2  0
 22 23  1  1
 22 21  1  0
 22 25  1  0
 24 23  1  0
 25 27  1  0
 26 25  2  0
M  END
$$$$
