KRC.pdb
     RDKit          3D

 27 26  0  0  1  0  0  0  0  0999 V2000
    8.5042  -17.2500   18.5797 N   0  0  0  0  0  0  0  0  0  0  0  0
    8.8743  -16.0846   19.3467 C   0  0  1  0  0  0  0  0  0  0  0  0
    8.0521  -14.9329   18.8915 C   0  0  0  0  0  0  0  0  0  0  0  0
    8.2283  -14.6981   17.4257 C   0  0  0  0  0  0  0  0  0  0  0  0
    7.4566  -13.5010   16.9448 C   0  0  0  0  0  0  0  0  0  0  0  0
    7.7842  -13.2213   15.4864 C   0  0  0  0  0  0  0  0  0  0  0  0
    7.0053  -12.0709   15.0702 N   0  0  0  0  0  0  0  0  0  0  0  0
    8.7785  -16.3269   20.8099 C   0  0  0  0  0  0  0  0  0  0  0  0
    7.7419  -16.8962   21.2547 O   0  0  0  0  0  0  0  0  0  0  0  0
   11.0277  -20.9316   24.5096 N   0  0  0  0  0  0  0  0  0  0  0  0
   12.0098  -21.1669   23.5047 C   0  0  0  0  0  0  0  0  0  0  0  0
   12.5735  -22.3098   23.3797 N   0  0  0  0  0  0  0  0  0  0  0  0
   12.3882  -20.1253   22.6111 N   0  0  0  0  0  0  0  0  0  0  0  0
   12.4235  -18.7244   22.9643 C   0  0  0  0  0  0  0  0  0  0  0  0
   11.0030  -18.3277   23.3192 C   0  0  0  0  0  0  0  0  0  0  0  0
   10.8560  -16.9126   23.7010 C   0  0  0  0  0  0  0  0  0  0  0  0
    9.6209  -16.2265   23.1970 C   0  0  2  0  0  0  0  0  0  0  0  0
    9.7626  -15.9690   21.7564 N   0  0  0  0  0  0  0  0  0  0  0  0
    9.3470  -14.9107   23.8026 C   0  0  0  0  0  0  0  0  0  0  0  0
   10.1179  -13.9422   23.5573 O   0  0  0  0  0  0  0  0  0  0  0  0
   13.3285  -22.4466   22.6964 N   0  0  0  0  0  0  0  0  0  0  0  0
    8.2608  -14.6209   24.6606 C   0  0  2  0  0  0  0  0  0  0  0  0
    8.3031  -13.4210   25.5249 C   0  0  0  0  0  0  0  0  0  0  0  0
    6.9743  -12.6673   25.3836 S   0  0  0  0  0  0  0  0  0  0  0  0
    5.6451  -13.5031   26.2752 C   0  0  0  0  0  0  0  0  0  0  0  0
    8.5904  -13.8008   26.9099 O   0  0  0  0  0  0  0  0  0  0  0  0
    8.5675  -15.0149   27.2485 O   0  0  0  0  0  0  0  0  0  0  0  0
  2  1  1  6
  2  3  1  0
  2  8  1  0
  4  5  1  0
  4  3  1  0
  5  6  1  0
  7  6  1  0
  8 18  1  0
  8  9  2  0
 10 11  1  0
 11 12  2  0
 13 14  1  0
 13 11  1  0
 14 15  1  0
 15 16  1  0
 17 16  1  1
 18 17  1  0
 19 17  1  0
 19 21  1  0
 20 19  2  0
 22 23  1  6
 22 21  1  0
 22 25  1  0
 24 23  1  0
 25 27  1  0
 26 25  2  0
M  END
$$$$
