KRC.pdb
     RDKit          3D

 27 26  0  0  1  0  0  0  0  0999 V2000
   10.3524  -19.3984   21.4090 N   0  0  0  0  0  0  0  0  0  0  0  0
    9.5052  -18.8688   22.4508 C   0  0  1  0  0  0  0  0  0  0  0  0
    9.7466  -19.6384   23.6994 C   0  0  0  0  0  0  0  0  0  0  0  0
    9.6131  -21.1071   23.4550 C   0  0  0  0  0  0  0  0  0  0  0  0
    9.7759  -21.9103   24.7152 C   0  0  0  0  0  0  0  0  0  0  0  0
    9.8204  -23.3941   24.3852 C   0  0  0  0  0  0  0  0  0  0  0  0
    9.9694  -24.1208   25.6314 N   0  0  0  0  0  0  0  0  0  0  0  0
    9.6855  -17.4039   22.6249 C   0  0  0  0  0  0  0  0  0  0  0  0
   10.8626  -16.9528   22.7115 O   0  0  0  0  0  0  0  0  0  0  0  0
    7.3876  -14.9308   17.0941 N   0  0  0  0  0  0  0  0  0  0  0  0
    7.7673  -13.7802   17.8436 C   0  0  0  0  0  0  0  0  0  0  0  0
    7.0119  -12.7483   17.9072 N   0  0  0  0  0  0  0  0  0  0  0  0
    9.0069  -13.7546   18.5432 N   0  0  0  0  0  0  0  0  0  0  0  0
    9.1280  -13.7691   19.9831 C   0  0  0  0  0  0  0  0  0  0  0  0
    7.8283  -14.3338   20.5248 C   0  0  0  0  0  0  0  0  0  0  0  0
    7.7409  -14.3259   21.9953 C   0  0  0  0  0  0  0  0  0  0  0  0
    8.8631  -15.0095   22.7187 C   0  0  2  0  0  0  0  0  0  0  0  0
    8.6370  -16.4622   22.7027 N   0  0  0  0  0  0  0  0  0  0  0  0
    8.9971  -14.6520   24.1425 C   0  0  0  0  0  0  0  0  0  0  0  0
    9.4427  -13.5142   24.4573 O   0  0  0  0  0  0  0  0  0  0  0  0
    7.3131  -11.9131   18.4241 N   0  0  0  0  0  0  0  0  0  0  0  0
    8.6578  -15.4935   25.2273 C   0  0  1  0  0  0  0  0  0  0  0  0
    8.8440  -15.0183   26.6159 C   0  0  0  0  0  0  0  0  0  0  0  0
    7.9666  -13.7785   26.8321 S   0  0  0  0  0  0  0  0  0  0  0  0
    6.2236  -14.1454   26.5359 C   0  0  0  0  0  0  0  0  0  0  0  0
    8.5452  -16.0921   27.5661 O   0  0  0  0  0  0  0  0  0  0  0  0
    8.1018  -17.1965   27.1505 O   0  0  0  0  0  0  0  0  0  0  0  0
  2  1  1  6
  2  3  1  0
  2  8  1  0
  4  5  1  0
  4  3  1  0
  5  6  1  0
  7  6  1  0
  8 18  1  0
  8  9  2  0
 10 11  1  0
 11 12  2  0
 13 14  1  0
 13 11  1  0
 14 15  1  0
 15 16  1  0
 17 16  1  1
 18 17  1  0
 19 17  1  0
 19 21  1  0
 20 19  2  0
 22 23  1  1
 22 21  1  0
 22 25  1  0
 24 23  1  0
 25 27  1  0
 26 25  2  0
M  END
$$$$
