KRC.pdb
     RDKit          3D

 27 26  0  0  1  0  0  0  0  0999 V2000
   12.3609  -19.4609   15.6928 N   0  0  0  0  0  0  0  0  0  0  0  0
   11.8083  -19.9834   16.9196 C   0  0  1  0  0  0  0  0  0  0  0  0
   12.7095  -21.0480   17.4337 C   0  0  0  0  0  0  0  0  0  0  0  0
   12.2777  -22.3936   16.9462 C   0  0  0  0  0  0  0  0  0  0  0  0
   13.0969  -23.5041   17.5427 C   0  0  0  0  0  0  0  0  0  0  0  0
   12.6204  -24.8466   17.0107 C   0  0  0  0  0  0  0  0  0  0  0  0
   13.4932  -25.8718   17.5497 N   0  0  0  0  0  0  0  0  0  0  0  0
   11.5466  -18.9107   17.9144 C   0  0  0  0  0  0  0  0  0  0  0  0
   12.2920  -17.8906   17.9031 O   0  0  0  0  0  0  0  0  0  0  0  0
    7.5363  -12.5591   18.4151 N   0  0  0  0  0  0  0  0  0  0  0  0
    7.3746  -12.8199   19.8064 C   0  0  0  0  0  0  0  0  0  0  0  0
    7.0068  -11.9000   20.6175 N   0  0  0  0  0  0  0  0  0  0  0  0
    7.6221  -14.1213   20.3276 N   0  0  0  0  0  0  0  0  0  0  0  0
    8.0538  -15.2472   19.5311 C   0  0  0  0  0  0  0  0  0  0  0  0
    8.2166  -16.4178   20.4822 C   0  0  0  0  0  0  0  0  0  0  0  0
    8.7046  -17.6485   19.8362 C   0  0  0  0  0  0  0  0  0  0  0  0
   10.1951  -17.7864   19.7385 C   0  0  2  0  0  0  0  0  0  0  0  0
   10.5209  -18.9374   18.8837 N   0  0  0  0  0  0  0  0  0  0  0  0
   10.8829  -18.0436   21.0167 C   0  0  0  0  0  0  0  0  0  0  0  0
   10.9244  -19.2192   21.4734 O   0  0  0  0  0  0  0  0  0  0  0  0
    6.9122  -12.0975   21.6213 N   0  0  0  0  0  0  0  0  0  0  0  0
   11.5264  -17.0619   21.8055 C   0  0  2  0  0  0  0  0  0  0  0  0
   12.1328  -17.4380   23.1015 C   0  0  0  0  0  0  0  0  0  0  0  0
   13.0557  -16.3013   23.5597 S   0  0  0  0  0  0  0  0  0  0  0  0
   14.6142  -16.3104   22.6479 C   0  0  0  0  0  0  0  0  0  0  0  0
   11.0891  -17.7456   24.0819 O   0  0  0  0  0  0  0  0  0  0  0  0
    9.9014  -17.3770   23.8752 O   0  0  0  0  0  0  0  0  0  0  0  0
  2  1  1  6
  2  3  1  0
  2  8  1  0
  4  5  1  0
  4  3  1  0
  5  6  1  0
  7  6  1  0
  8 18  1  0
  8  9  2  0
 10 11  1  0
 11 12  2  0
 13 14  1  0
 13 11  1  0
 14 15  1  0
 15 16  1  0
 17 16  1  1
 18 17  1  0
 19 17  1  0
 19 21  1  0
 20 19  2  0
 22 23  1  6
 22 21  1  0
 22 25  1  0
 24 23  1  0
 25 27  1  0
 26 25  2  0
M  END
$$$$
