KRC.pdb
     RDKit          3D

 27 26  0  0  1  0  0  0  0  0999 V2000
    6.6759  -21.5790   22.9218 N   0  0  0  0  0  0  0  0  0  0  0  0
    6.2308  -20.3924   23.6128 C   0  0  1  0  0  0  0  0  0  0  0  0
    5.9512  -20.7423   25.0302 C   0  0  0  0  0  0  0  0  0  0  0  0
    4.5593  -21.2650   25.1860 C   0  0  0  0  0  0  0  0  0  0  0  0
    4.3198  -22.4990   24.3615 C   0  0  0  0  0  0  0  0  0  0  0  0
    2.9633  -23.0969   24.7005 C   0  0  0  0  0  0  0  0  0  0  0  0
    3.0482  -23.6600   26.0343 N   0  0  0  0  0  0  0  0  0  0  0  0
    7.1934  -19.2693   23.4686 C   0  0  0  0  0  0  0  0  0  0  0  0
    8.3830  -19.4487   23.8546 O   0  0  0  0  0  0  0  0  0  0  0  0
    7.2959  -12.6817   17.4055 N   0  0  0  0  0  0  0  0  0  0  0  0
    7.3198  -12.7797   18.8266 C   0  0  0  0  0  0  0  0  0  0  0  0
    7.2407  -11.7380   19.5670 N   0  0  0  0  0  0  0  0  0  0  0  0
    7.4339  -14.0505   19.4580 N   0  0  0  0  0  0  0  0  0  0  0  0
    8.6366  -14.5367   20.0947 C   0  0  0  0  0  0  0  0  0  0  0  0
    8.2915  -14.7794   21.5519 C   0  0  0  0  0  0  0  0  0  0  0  0
    7.4121  -15.9406   21.7717 C   0  0  0  0  0  0  0  0  0  0  0  0
    7.8711  -16.9180   22.8129 C   0  0  2  0  0  0  0  0  0  0  0  0
    6.8847  -18.0020   22.9291 N   0  0  0  0  0  0  0  0  0  0  0  0
    8.0035  -16.3647   24.1728 C   0  0  0  0  0  0  0  0  0  0  0  0
    6.9664  -16.1484   24.8584 O   0  0  0  0  0  0  0  0  0  0  0  0
    7.2802  -11.8216   20.5902 N   0  0  0  0  0  0  0  0  0  0  0  0
    9.2276  -16.0452   24.8049 C   0  0  1  0  0  0  0  0  0  0  0  0
    9.2260  -15.4683   26.1672 C   0  0  0  0  0  0  0  0  0  0  0  0
    8.5493  -16.4621   27.1201 S   0  0  0  0  0  0  0  0  0  0  0  0
    8.9171  -16.0752   28.8450 C   0  0  0  0  0  0  0  0  0  0  0  0
   10.5906  -15.1326   26.5798 O   0  0  0  0  0  0  0  0  0  0  0  0
   11.5716  -15.5220   25.8904 O   0  0  0  0  0  0  0  0  0  0  0  0
  2  1  1  6
  2  3  1  0
  2  8  1  0
  4  5  1  0
  4  3  1  0
  5  6  1  0
  7  6  1  0
  8 18  1  0
  8  9  2  0
 10 11  1  0
 11 12  2  0
 13 14  1  0
 13 11  1  0
 14 15  1  0
 15 16  1  0
 17 16  1  6
 18 17  1  0
 19 17  1  0
 19 21  1  0
 20 19  2  0
 22 23  1  1
 22 21  1  0
 22 25  1  0
 24 23  1  0
 25 27  1  0
 26 25  2  0
M  END
$$$$
