KRC.pdb
     RDKit          3D

 27 26  0  0  1  0  0  0  0  0999 V2000
   11.3330  -19.7204   17.9367 N   0  0  0  0  0  0  0  0  0  0  0  0
   12.1385  -18.5325   18.0908 C   0  0  1  0  0  0  0  0  0  0  0  0
   11.9233  -17.6538   16.9112 C   0  0  0  0  0  0  0  0  0  0  0  0
   11.4522  -18.4464   15.7345 C   0  0  0  0  0  0  0  0  0  0  0  0
   11.2428  -17.5883   14.5181 C   0  0  0  0  0  0  0  0  0  0  0  0
   11.7256  -18.3196   13.2753 C   0  0  0  0  0  0  0  0  0  0  0  0
   11.4665  -17.4670   12.1310 N   0  0  0  0  0  0  0  0  0  0  0  0
   11.8789  -17.8468   19.3835 C   0  0  0  0  0  0  0  0  0  0  0  0
   12.5202  -16.7883   19.6378 O   0  0  0  0  0  0  0  0  0  0  0  0
    6.9541  -13.8149   18.6040 N   0  0  0  0  0  0  0  0  0  0  0  0
    7.9894  -13.2971   19.4345 C   0  0  0  0  0  0  0  0  0  0  0  0
    8.5824  -12.1981   19.1516 N   0  0  0  0  0  0  0  0  0  0  0  0
    8.3895  -13.9988   20.6068 N   0  0  0  0  0  0  0  0  0  0  0  0
    7.7808  -15.2261   21.0669 C   0  0  0  0  0  0  0  0  0  0  0  0
    8.6443  -16.3617   20.5510 C   0  0  0  0  0  0  0  0  0  0  0  0
    9.1668  -17.2428   21.6097 C   0  0  0  0  0  0  0  0  0  0  0  0
   10.6429  -17.5064   21.5686 C   0  0  2  0  0  0  0  0  0  0  0  0
   10.9632  -18.2860   20.3638 N   0  0  0  0  0  0  0  0  0  0  0  0
   11.1667  -18.2990   22.6957 C   0  0  0  0  0  0  0  0  0  0  0  0
   11.4883  -19.5050   22.5098 O   0  0  0  0  0  0  0  0  0  0  0  0
    9.3361  -11.8429   19.7527 N   0  0  0  0  0  0  0  0  0  0  0  0
   11.3523  -17.8163   24.0121 C   0  0  1  0  0  0  0  0  0  0  0  0
   11.8103  -18.7353   25.0771 C   0  0  0  0  0  0  0  0  0  0  0  0
   11.9879  -17.9343   26.3735 S   0  0  0  0  0  0  0  0  0  0  0  0
   10.4663  -17.0767   26.8314 C   0  0  0  0  0  0  0  0  0  0  0  0
   10.8710  -19.8490   25.2276 O   0  0  0  0  0  0  0  0  0  0  0  0
    9.7117  -19.7665   24.7391 O   0  0  0  0  0  0  0  0  0  0  0  0
  2  1  1  6
  2  3  1  0
  2  8  1  0
  4  5  1  0
  4  3  1  0
  5  6  1  0
  7  6  1  0
  8 18  1  0
  8  9  2  0
 10 11  1  0
 11 12  2  0
 13 14  1  0
 13 11  1  0
 14 15  1  0
 15 16  1  0
 17 16  1  1
 18 17  1  0
 19 17  1  0
 19 21  1  0
 20 19  2  0
 22 23  1  1
 22 21  1  0
 22 25  1  0
 24 23  1  0
 25 27  1  0
 26 25  2  0
M  END
$$$$
