KRC.pdb
     RDKit          3D

 27 26  0  0  1  0  0  0  0  0999 V2000
    6.7285  -17.4631   19.4644 N   0  0  0  0  0  0  0  0  0  0  0  0
    7.3486  -16.4873   20.3286 C   0  0  1  0  0  0  0  0  0  0  0  0
    7.0673  -15.1291   19.7940 C   0  0  0  0  0  0  0  0  0  0  0  0
    7.7754  -14.9096   18.4959 C   0  0  0  0  0  0  0  0  0  0  0  0
    7.4586  -13.5686   17.8951 C   0  0  0  0  0  0  0  0  0  0  0  0
    8.0658  -13.4639   16.5048 C   0  0  0  0  0  0  0  0  0  0  0  0
    9.2168  -12.5857   16.5890 N   0  0  0  0  0  0  0  0  0  0  0  0
    6.9327  -16.6536   21.7457 C   0  0  0  0  0  0  0  0  0  0  0  0
    5.7424  -17.0054   21.9817 O   0  0  0  0  0  0  0  0  0  0  0  0
    7.4033  -22.5967   27.0735 N   0  0  0  0  0  0  0  0  0  0  0  0
    8.3823  -21.7241   26.5170 C   0  0  0  0  0  0  0  0  0  0  0  0
    9.5206  -22.1628   26.1278 N   0  0  0  0  0  0  0  0  0  0  0  0
    8.1119  -20.3329   26.3818 N   0  0  0  0  0  0  0  0  0  0  0  0
    6.8227  -19.7865   26.0244 C   0  0  0  0  0  0  0  0  0  0  0  0
    7.0156  -19.0266   24.7257 C   0  0  0  0  0  0  0  0  0  0  0  0
    7.8546  -17.8229   24.8572 C   0  0  0  0  0  0  0  0  0  0  0  0
    7.2956  -16.5695   24.2516 C   0  0  2  0  0  0  0  0  0  0  0  0
    7.7683  -16.4483   22.8646 N   0  0  0  0  0  0  0  0  0  0  0  0
    7.7079  -15.3189   24.9141 C   0  0  0  0  0  0  0  0  0  0  0  0
    8.9182  -14.9643   24.8722 O   0  0  0  0  0  0  0  0  0  0  0  0
   10.2011  -21.5297   25.6900 N   0  0  0  0  0  0  0  0  0  0  0  0
    6.8427  -14.4464   25.6143 C   0  0  2  0  0  0  0  0  0  0  0  0
    7.3973  -13.2810   26.3375 C   0  0  0  0  0  0  0  0  0  0  0  0
    6.2479  -12.3250   26.6820 S   0  0  0  0  0  0  0  0  0  0  0  0
    6.8571  -10.8220   27.4759 C   0  0  0  0  0  0  0  0  0  0  0  0
    8.1374  -13.7217   27.5221 O   0  0  0  0  0  0  0  0  0  0  0  0
    8.8988  -12.9179   28.1249 O   0  0  0  0  0  0  0  0  0  0  0  0
  2  1  1  6
  2  3  1  0
  2  8  1  0
  4  5  1  0
  4  3  1  0
  5  6  1  0
  7  6  1  0
  8 18  1  0
  8  9  2  0
 10 11  1  0
 11 12  2  0
 13 14  1  0
 13 11  1  0
 14 15  1  0
 15 16  1  0
 17 16  1  1
 18 17  1  0
 19 17  1  0
 19 21  1  0
 20 19  2  0
 22 23  1  1
 22 21  1  0
 22 25  1  0
 24 23  1  0
 25 27  1  0
 26 25  2  0
M  END
$$$$
