KRC.pdb
     RDKit          3D

 27 26  0  0  1  0  0  0  0  0999 V2000
    8.8987  -16.8827   15.9046 N   0  0  0  0  0  0  0  0  0  0  0  0
    9.3339  -15.9417   16.9089 C   0  0  1  0  0  0  0  0  0  0  0  0
    8.4793  -14.7281   16.8279 C   0  0  0  0  0  0  0  0  0  0  0  0
    7.8740  -14.5917   15.4678 C   0  0  0  0  0  0  0  0  0  0  0  0
    7.1450  -13.2882   15.2980 C   0  0  0  0  0  0  0  0  0  0  0  0
    6.6769  -13.1366   13.8591 C   0  0  0  0  0  0  0  0  0  0  0  0
    6.0745  -11.8241   13.7252 N   0  0  0  0  0  0  0  0  0  0  0  0
    9.3594  -16.5470   18.2660 C   0  0  0  0  0  0  0  0  0  0  0  0
    8.4042  -17.3031   18.6011 O   0  0  0  0  0  0  0  0  0  0  0  0
   14.8205  -21.2922   20.4157 N   0  0  0  0  0  0  0  0  0  0  0  0
   14.6844  -21.0371   21.8107 C   0  0  0  0  0  0  0  0  0  0  0  0
   15.5819  -21.4073   22.6456 N   0  0  0  0  0  0  0  0  0  0  0  0
   13.5360  -20.3593   22.3091 N   0  0  0  0  0  0  0  0  0  0  0  0
   12.3841  -20.0146   21.5075 C   0  0  0  0  0  0  0  0  0  0  0  0
   12.0986  -18.5466   21.7622 C   0  0  0  0  0  0  0  0  0  0  0  0
   11.8256  -17.7706   20.5402 C   0  0  0  0  0  0  0  0  0  0  0  0
   10.4737  -17.1248   20.4666 C   0  0  2  0  0  0  0  0  0  0  0  0
   10.3758  -16.3445   19.2243 N   0  0  0  0  0  0  0  0  0  0  0  0
   10.1785  -16.1701   21.5503 C   0  0  0  0  0  0  0  0  0  0  0  0
   10.6878  -15.0161   21.5164 O   0  0  0  0  0  0  0  0  0  0  0  0
   15.4417  -21.2740   23.6546 N   0  0  0  0  0  0  0  0  0  0  0  0
    9.3458  -16.4347   22.6624 C   0  0  2  0  0  0  0  0  0  0  0  0
    9.2195  -15.4335   23.7442 C   0  0  0  0  0  0  0  0  0  0  0  0
    7.8395  -14.7713   23.6413 S   0  0  0  0  0  0  0  0  0  0  0  0
    7.5357  -13.6622   25.0333 C   0  0  0  0  0  0  0  0  0  0  0  0
    9.4471  -16.0609   25.0479 O   0  0  0  0  0  0  0  0  0  0  0  0
    9.4384  -17.3172   25.1532 O   0  0  0  0  0  0  0  0  0  0  0  0
  2  1  1  6
  2  3  1  0
  2  8  1  0
  4  5  1  0
  4  3  1  0
  5  6  1  0
  7  6  1  0
  8 18  1  0
  8  9  2  0
 10 11  1  0
 11 12  2  0
 13 14  1  0
 13 11  1  0
 14 15  1  0
 15 16  1  0
 17 16  1  1
 18 17  1  0
 19 17  1  0
 19 21  1  0
 20 19  2  0
 22 23  1  1
 22 21  1  0
 22 25  1  0
 24 23  1  0
 25 27  1  0
 26 25  2  0
M  END
$$$$
