KRC.pdb
     RDKit          3D

 27 26  0  0  1  0  0  0  0  0999 V2000
    6.2134  -21.0587   24.4630 N   0  0  0  0  0  0  0  0  0  0  0  0
    6.2732  -19.7218   25.0041 C   0  0  1  0  0  0  0  0  0  0  0  0
    6.7786  -19.7943   26.4001 C   0  0  0  0  0  0  0  0  0  0  0  0
    8.1648  -20.3528   26.4373 C   0  0  0  0  0  0  0  0  0  0  0  0
    8.6371  -20.6089   27.8412 C   0  0  0  0  0  0  0  0  0  0  0  0
   10.0564  -21.1544   27.8221 C   0  0  0  0  0  0  0  0  0  0  0  0
   10.4435  -21.4302   29.1923 N   0  0  0  0  0  0  0  0  0  0  0  0
    7.0677  -18.8072   24.1433 C   0  0  0  0  0  0  0  0  0  0  0  0
    8.0583  -19.2832   23.5201 O   0  0  0  0  0  0  0  0  0  0  0  0
    7.6204  -11.7521   18.8676 N   0  0  0  0  0  0  0  0  0  0  0  0
    8.0868  -13.0655   18.5727 C   0  0  0  0  0  0  0  0  0  0  0  0
    8.6511  -13.3361   17.4556 N   0  0  0  0  0  0  0  0  0  0  0  0
    7.9325  -14.1138   19.5235 N   0  0  0  0  0  0  0  0  0  0  0  0
    6.8582  -14.1850   20.4875 C   0  0  0  0  0  0  0  0  0  0  0  0
    7.5033  -14.3837   21.8461 C   0  0  0  0  0  0  0  0  0  0  0  0
    6.8110  -15.3662   22.6978 C   0  0  0  0  0  0  0  0  0  0  0  0
    7.6171  -16.5673   23.0948 C   0  0  2  0  0  0  0  0  0  0  0  0
    6.8039  -17.4324   23.9619 N   0  0  0  0  0  0  0  0  0  0  0  0
    8.8351  -16.2725   23.8711 C   0  0  0  0  0  0  0  0  0  0  0  0
    8.7324  -15.9384   25.0836 O   0  0  0  0  0  0  0  0  0  0  0  0
    8.9953  -14.2846   17.2620 N   0  0  0  0  0  0  0  0  0  0  0  0
   10.1551  -16.3343   23.3672 C   0  0  1  0  0  0  0  0  0  0  0  0
   11.3038  -16.1924   24.2886 C   0  0  0  0  0  0  0  0  0  0  0  0
   11.2448  -17.3228   25.3241 S   0  0  0  0  0  0  0  0  0  0  0  0
   10.9795  -16.6773   26.9894 C   0  0  0  0  0  0  0  0  0  0  0  0
   12.5611  -16.1821   23.5374 O   0  0  0  0  0  0  0  0  0  0  0  0
   12.5812  -16.5651   22.3365 O   0  0  0  0  0  0  0  0  0  0  0  0
  2  1  1  6
  2  3  1  0
  2  8  1  0
  4  5  1  0
  4  3  1  0
  5  6  1  0
  7  6  1  0
  8 18  1  0
  8  9  2  0
 10 11  1  0
 11 12  2  0
 13 14  1  0
 13 11  1  0
 14 15  1  0
 15 16  1  0
 17 16  1  1
 18 17  1  0
 19 17  1  0
 19 21  1  0
 20 19  2  0
 22 23  1  6
 22 21  1  0
 22 25  1  0
 24 23  1  0
 25 27  1  0
 26 25  2  0
M  END
$$$$
