KRC.pdb
     RDKit          3D

 27 26  0  0  1  0  0  0  0  0999 V2000
    7.3564  -21.2484   24.6561 N   0  0  0  0  0  0  0  0  0  0  0  0
    6.8444  -19.9900   25.1438 C   0  0  1  0  0  0  0  0  0  0  0  0
    7.1234  -19.8938   26.6007 C   0  0  0  0  0  0  0  0  0  0  0  0
    8.3195  -20.7110   26.9699 C   0  0  0  0  0  0  0  0  0  0  0  0
    8.5397  -20.7573   28.4562 C   0  0  0  0  0  0  0  0  0  0  0  0
    9.7456  -21.6262   28.7774 C   0  0  0  0  0  0  0  0  0  0  0  0
    9.9227  -21.6237   30.2168 N   0  0  0  0  0  0  0  0  0  0  0  0
    7.3738  -18.8360   24.3714 C   0  0  0  0  0  0  0  0  0  0  0  0
    8.6012  -18.8302   24.0717 O   0  0  0  0  0  0  0  0  0  0  0  0
    8.8098  -14.0914   18.2555 N   0  0  0  0  0  0  0  0  0  0  0  0
    8.5176  -13.0605   19.1944 C   0  0  0  0  0  0  0  0  0  0  0  0
    9.0032  -11.8830   19.0625 N   0  0  0  0  0  0  0  0  0  0  0  0
    7.6720  -13.3220   20.3094 N   0  0  0  0  0  0  0  0  0  0  0  0
    7.3443  -14.6455   20.7882 C   0  0  0  0  0  0  0  0  0  0  0  0
    6.5264  -14.4622   22.0526 C   0  0  0  0  0  0  0  0  0  0  0  0
    6.1015  -15.7268   22.6774 C   0  0  0  0  0  0  0  0  0  0  0  0
    7.1974  -16.5596   23.2736 C   0  0  2  0  0  0  0  0  0  0  0  0
    6.6091  -17.7311   23.9392 N   0  0  0  0  0  0  0  0  0  0  0  0
    8.0000  -15.8852   24.3101 C   0  0  0  0  0  0  0  0  0  0  0  0
    7.4182  -15.2138   25.2062 O   0  0  0  0  0  0  0  0  0  0  0  0
    8.7576  -11.1404   19.7287 N   0  0  0  0  0  0  0  0  0  0  0  0
    9.4109  -15.9243   24.3992 C   0  0  1  0  0  0  0  0  0  0  0  0
   10.0983  -15.2459   25.5198 C   0  0  0  0  0  0  0  0  0  0  0  0
    9.5443  -15.7959   26.8405 S   0  0  0  0  0  0  0  0  0  0  0  0
    9.8535  -14.6590   28.2087 C   0  0  0  0  0  0  0  0  0  0  0  0
   11.5487  -15.4139   25.4042 O   0  0  0  0  0  0  0  0  0  0  0  0
   12.0214  -16.3311   24.6800 O   0  0  0  0  0  0  0  0  0  0  0  0
  2  1  1  6
  2  3  1  0
  2  8  1  0
  4  5  1  0
  4  3  1  0
  5  6  1  0
  7  6  1  0
  8 18  1  0
  8  9  2  0
 10 11  1  0
 11 12  2  0
 13 14  1  0
 13 11  1  0
 14 15  1  0
 15 16  1  0
 17 16  1  1
 18 17  1  0
 19 17  1  0
 19 21  1  0
 20 19  2  0
 22 23  1  6
 22 21  1  0
 22 25  1  0
 24 23  1  0
 25 27  1  0
 26 25  2  0
M  END
$$$$
