KRC.pdb
     RDKit          3D

 27 26  0  0  1  0  0  0  0  0999 V2000
    7.8431  -21.3674   21.3420 N   0  0  0  0  0  0  0  0  0  0  0  0
    9.1981  -21.0585   20.9522 C   0  0  1  0  0  0  0  0  0  0  0  0
    9.4887  -21.7339   19.6602 C   0  0  0  0  0  0  0  0  0  0  0  0
    9.0511  -23.1629   19.6951 C   0  0  0  0  0  0  0  0  0  0  0  0
    9.2747  -23.8583   18.3813 C   0  0  0  0  0  0  0  0  0  0  0  0
    8.7149  -25.2711   18.4376 C   0  0  0  0  0  0  0  0  0  0  0  0
    8.9913  -25.9081   17.1644 N   0  0  0  0  0  0  0  0  0  0  0  0
    9.4468  -19.5938   20.9130 C   0  0  0  0  0  0  0  0  0  0  0  0
   10.5237  -19.1842   20.3946 O   0  0  0  0  0  0  0  0  0  0  0  0
    8.0854  -12.5764   17.5540 N   0  0  0  0  0  0  0  0  0  0  0  0
    8.3973  -13.0565   18.8586 C   0  0  0  0  0  0  0  0  0  0  0  0
    9.5851  -13.4216   19.1670 N   0  0  0  0  0  0  0  0  0  0  0  0
    7.3839  -13.1412   19.8549 N   0  0  0  0  0  0  0  0  0  0  0  0
    6.7733  -14.3765   20.2901 C   0  0  0  0  0  0  0  0  0  0  0  0
    7.6641  -14.9439   21.3791 C   0  0  0  0  0  0  0  0  0  0  0  0
    7.5674  -16.4063   21.5279 C   0  0  0  0  0  0  0  0  0  0  0  0
    8.8436  -17.1679   21.3242 C   0  0  2  0  0  0  0  0  0  0  0  0
    8.5679  -18.6093   21.4138 N   0  0  0  0  0  0  0  0  0  0  0  0
    9.8917  -16.9089   22.3280 C   0  0  0  0  0  0  0  0  0  0  0  0
    9.6095  -16.9914   23.5552 O   0  0  0  0  0  0  0  0  0  0  0  0
    9.7816  -13.8321   20.0881 N   0  0  0  0  0  0  0  0  0  0  0  0
   11.2322  -16.5675   22.0340 C   0  0  1  0  0  0  0  0  0  0  0  0
   12.1961  -16.3483   23.1348 C   0  0  0  0  0  0  0  0  0  0  0  0
   12.1867  -17.5811   24.0480 S   0  0  0  0  0  0  0  0  0  0  0  0
   12.9725  -17.2307   25.6354 C   0  0  0  0  0  0  0  0  0  0  0  0
   13.5265  -16.0565   22.5963 O   0  0  0  0  0  0  0  0  0  0  0  0
   13.7834  -16.2970   21.3858 O   0  0  0  0  0  0  0  0  0  0  0  0
  2  1  1  6
  2  3  1  0
  2  8  1  0
  4  5  1  0
  4  3  1  0
  5  6  1  0
  7  6  1  0
  8 18  1  0
  8  9  2  0
 10 11  1  0
 11 12  2  0
 13 14  1  0
 13 11  1  0
 14 15  1  0
 15 16  1  0
 17 16  1  1
 18 17  1  0
 19 17  1  0
 19 21  1  0
 20 19  2  0
 22 23  1  6
 22 21  1  0
 22 25  1  0
 24 23  1  0
 25 27  1  0
 26 25  2  0
M  END
$$$$
