KRC.pdb
     RDKit          3D

 27 26  0  0  1  0  0  0  0  0999 V2000
    7.7959  -13.0715   18.1972 N   0  0  0  0  0  0  0  0  0  0  0  0
    8.8334  -14.0517   18.4122 C   0  0  1  0  0  0  0  0  0  0  0  0
   10.0474  -13.3585   18.9177 C   0  0  0  0  0  0  0  0  0  0  0  0
   11.2791  -14.1483   18.6113 C   0  0  0  0  0  0  0  0  0  0  0  0
   12.5282  -13.4616   19.0888 C   0  0  0  0  0  0  0  0  0  0  0  0
   13.7531  -14.2646   18.6795 C   0  0  0  0  0  0  0  0  0  0  0  0
   14.9238  -13.5783   19.1911 N   0  0  0  0  0  0  0  0  0  0  0  0
    8.3817  -15.1564   19.2977 C   0  0  0  0  0  0  0  0  0  0  0  0
    7.1911  -15.1349   19.7200 O   0  0  0  0  0  0  0  0  0  0  0  0
    6.5010  -20.2603   16.9067 N   0  0  0  0  0  0  0  0  0  0  0  0
    7.5517  -20.1284   15.9537 C   0  0  0  0  0  0  0  0  0  0  0  0
    7.3072  -20.0592   14.6988 N   0  0  0  0  0  0  0  0  0  0  0  0
    8.9081  -20.0711   16.3822 N   0  0  0  0  0  0  0  0  0  0  0  0
    9.3245  -20.0819   17.7660 C   0  0  0  0  0  0  0  0  0  0  0  0
    8.7431  -18.8357   18.4065 C   0  0  0  0  0  0  0  0  0  0  0  0
    9.1175  -18.6610   19.8205 C   0  0  0  0  0  0  0  0  0  0  0  0
    8.6538  -17.3883   20.4651 C   0  0  2  0  0  0  0  0  0  0  0  0
    9.1832  -16.2420   19.7118 N   0  0  0  0  0  0  0  0  0  0  0  0
    9.1122  -17.1882   21.8517 C   0  0  0  0  0  0  0  0  0  0  0  0
    9.1041  -18.1617   22.6545 O   0  0  0  0  0  0  0  0  0  0  0  0
    8.0767  -20.0340   14.0185 N   0  0  0  0  0  0  0  0  0  0  0  0
    9.5800  -15.9646   22.3846 C   0  0  2  0  0  0  0  0  0  0  0  0
   10.0517  -15.9024   23.7855 C   0  0  0  0  0  0  0  0  0  0  0  0
    9.0598  -15.0623   24.6004 S   0  0  0  0  0  0  0  0  0  0  0  0
    8.1276  -13.9343   23.5427 C   0  0  0  0  0  0  0  0  0  0  0  0
   10.2227  -17.2529   24.3258 O   0  0  0  0  0  0  0  0  0  0  0  0
    9.8127  -18.2500   23.6724 O   0  0  0  0  0  0  0  0  0  0  0  0
  2  1  1  1
  2  3  1  0
  2  8  1  0
  4  5  1  0
  4  3  1  0
  5  6  1  0
  7  6  1  0
  8 18  1  0
  8  9  2  0
 10 11  1  0
 11 12  2  0
 13 14  1  0
 13 11  1  0
 14 15  1  0
 15 16  1  0
 17 16  1  6
 18 17  1  0
 19 17  1  0
 19 21  1  0
 20 19  2  0
 22 23  1  6
 22 21  1  0
 22 25  1  0
 24 23  1  0
 25 27  1  0
 26 25  2  0
M  END
$$$$
