LAS.pdb
     RDKit          3D

 20 19  0  0  1  0  0  0  0  0999 V2000
   25.2961  -13.1022  -17.5299 C   0  0  0  0  0  0  0  0  0  0  0  0
   24.0303  -12.8659  -16.7345 C   0  0  1  0  0  0  0  0  0  0  0  0
   23.9900  -13.7076  -15.4797 C   0  0  0  0  0  0  0  0  0  0  0  0
   23.9807  -11.3966  -16.3706 C   0  0  0  0  0  0  0  0  0  0  0  0
   22.5991  -11.1056  -15.8539 C   0  0  2  0  0  0  0  0  0  0  0  0
   21.6067  -11.9933  -16.3722 N   0  0  0  0  0  0  0  0  0  0  0  0
   22.2472   -9.6657  -16.1066 C   0  0  0  0  0  0  0  0  0  0  0  0
   23.0701   -8.7785  -15.7637 O   0  0  0  0  0  0  0  0  0  0  0  0
   19.5822   -7.6780  -17.8839 C   0  0  0  0  0  0  0  0  0  0  0  0
   20.7991   -7.8705  -16.9963 C   0  0  2  0  0  0  0  0  0  0  0  0
   21.0458   -9.2644  -16.7059 N   0  0  0  0  0  0  0  0  0  0  0  0
   20.5284   -7.1279  -15.7131 C   0  0  0  0  0  0  0  0  0  0  0  0
   19.9191   -7.6892  -14.7669 O   0  0  0  0  0  0  0  0  0  0  0  0
   22.9963   -5.0331  -13.6431 O   0  0  0  0  0  0  0  0  0  0  0  0
   21.9511   -4.1939  -14.0599 C   0  0  0  0  0  0  0  0  0  0  0  0
   20.7107   -5.0542  -14.2839 C   0  0  2  0  0  0  0  0  0  0  0  0
   20.9516   -5.7830  -15.5391 N   0  0  0  0  0  0  0  0  0  0  0  0
   19.5771   -4.1340  -14.4624 C   0  0  0  0  0  0  0  0  0  0  0  0
   19.0140   -3.5002  -13.3842 O   0  0  0  0  0  0  0  0  0  0  0  0
   19.1249   -3.9282  -15.6005 O   0  0  0  0  0  0  0  0  0  0  0  0
  2  1  1  1
  3  2  1  0
  4  2  1  0
  4  5  1  0
  5  6  1  6
  7  5  1  0
  7  8  2  0
 10  9  1  6
 10 11  1  0
 10 12  1  0
 11  7  1  0
 12 13  2  0
 15 14  1  0
 16 15  1  6
 17 12  1  0
 17 16  1  0
 18 19  1  0
 18 16  1  0
 20 18  2  0
M  END
$$$$
