LAS.pdb
     RDKit          3D

 20 19  0  0  1  0  0  0  0  0999 V2000
   19.1717  -24.8905  -14.8341 C   0  0  0  0  0  0  0  0  0  0  0  0
   18.3631  -24.3260  -13.6859 C   0  0  1  0  0  0  0  0  0  0  0  0
   16.9175  -24.7626  -13.7489 C   0  0  0  0  0  0  0  0  0  0  0  0
   18.9915  -24.8104  -12.3959 C   0  0  0  0  0  0  0  0  0  0  0  0
   18.2339  -24.1808  -11.2601 C   0  0  2  0  0  0  0  0  0  0  0  0
   18.3961  -22.7628  -11.1941 N   0  0  0  0  0  0  0  0  0  0  0  0
   18.6029  -24.8461   -9.9632 C   0  0  0  0  0  0  0  0  0  0  0  0
   18.7792  -26.0914   -9.9572 O   0  0  0  0  0  0  0  0  0  0  0  0
   19.4388  -23.8919   -6.4101 C   0  0  0  0  0  0  0  0  0  0  0  0
   19.0891  -24.8451   -7.5393 C   0  0  2  0  0  0  0  0  0  0  0  0
   18.7600  -24.1452   -8.7600 N   0  0  0  0  0  0  0  0  0  0  0  0
   17.8994  -25.6494   -7.0823 C   0  0  0  0  0  0  0  0  0  0  0  0
   16.7367  -25.3284   -7.4383 O   0  0  0  0  0  0  0  0  0  0  0  0
   18.5508  -28.4452   -4.3314 O   0  0  0  0  0  0  0  0  0  0  0  0
   17.5025  -28.8482   -5.1734 C   0  0  0  0  0  0  0  0  0  0  0  0
   16.9090  -27.6020   -5.8243 C   0  0  2  0  0  0  0  0  0  0  0  0
   18.0583  -26.7842   -6.2425 N   0  0  0  0  0  0  0  0  0  0  0  0
   16.1562  -26.8902   -4.7802 C   0  0  0  0  0  0  0  0  0  0  0  0
   14.9807  -27.4021   -4.2931 O   0  0  0  0  0  0  0  0  0  0  0  0
   16.5886  -25.8146   -4.3348 O   0  0  0  0  0  0  0  0  0  0  0  0
  2  1  1  6
  3  2  1  0
  4  2  1  0
  4  5  1  0
  5  6  1  1
  7  5  1  0
  7  8  2  0
 10  9  1  1
 10 11  1  0
 10 12  1  0
 11  7  1  0
 12 13  2  0
 15 14  1  0
 16 15  1  1
 17 12  1  0
 17 16  1  0
 18 19  1  0
 18 16  1  0
 20 18  2  0
M  END
$$$$
