LAS.pdb
     RDKit          3D

 20 19  0  0  1  0  0  0  0  0999 V2000
   36.7781  -35.0677  -15.6927 C   0  0  0  0  0  0  0  0  0  0  0  0
   36.0451  -34.1410  -14.7467 C   0  0  1  0  0  0  0  0  0  0  0  0
   35.0521  -33.2651  -15.4754 C   0  0  0  0  0  0  0  0  0  0  0  0
   35.3244  -34.9977  -13.7267 C   0  0  0  0  0  0  0  0  0  0  0  0
   34.8022  -34.0812  -12.6553 C   0  0  2  0  0  0  0  0  0  0  0  0
   35.5686  -32.8833  -12.5178 N   0  0  0  0  0  0  0  0  0  0  0  0
   34.6879  -34.8237  -11.3528 C   0  0  0  0  0  0  0  0  0  0  0  0
   33.9695  -35.8553  -11.3119 O   0  0  0  0  0  0  0  0  0  0  0  0
   36.0799  -34.6653   -7.8480 C   0  0  0  0  0  0  0  0  0  0  0  0
   35.1368  -35.1346   -8.9417 C   0  0  2  0  0  0  0  0  0  0  0  0
   35.3435  -34.4216  -10.1815 N   0  0  0  0  0  0  0  0  0  0  0  0
   33.7344  -34.8901   -8.4468 C   0  0  0  0  0  0  0  0  0  0  0  0
   32.8675  -34.3877   -9.2069 O   0  0  0  0  0  0  0  0  0  0  0  0
   29.7651  -35.6958   -6.9865 O   0  0  0  0  0  0  0  0  0  0  0  0
   31.0866  -35.9062   -7.4104 C   0  0  0  0  0  0  0  0  0  0  0  0
   31.9951  -34.9704   -6.6181 C   0  0  2  0  0  0  0  0  0  0  0  0
   33.3567  -35.2184   -7.1173 N   0  0  0  0  0  0  0  0  0  0  0  0
   31.9086  -35.3810   -5.2082 C   0  0  0  0  0  0  0  0  0  0  0  0
   31.1190  -34.6896   -4.3253 O   0  0  0  0  0  0  0  0  0  0  0  0
   32.5569  -36.3636   -4.8127 O   0  0  0  0  0  0  0  0  0  0  0  0
  2  1  1  6
  3  2  1  0
  4  2  1  0
  4  5  1  0
  5  6  1  1
  7  5  1  0
  7  8  2  0
 10  9  1  1
 10 11  1  0
 10 12  1  0
 11  7  1  0
 12 13  2  0
 15 14  1  0
 16 15  1  6
 17 12  1  0
 17 16  1  0
 18 19  1  0
 18 16  1  0
 20 18  2  0
M  END
$$$$
