LAS.pdb
     RDKit          3D

 20 19  0  0  1  0  0  0  0  0999 V2000
   28.3612  -11.7007  -16.9272 C   0  0  0  0  0  0  0  0  0  0  0  0
   27.0013  -12.3481  -16.7773 C   0  0  1  0  0  0  0  0  0  0  0  0
   26.9376  -13.2466  -15.5636 C   0  0  0  0  0  0  0  0  0  0  0  0
   25.9741  -11.2421  -16.6535 C   0  0  0  0  0  0  0  0  0  0  0  0
   24.6143  -11.8821  -16.6928 C   0  0  2  0  0  0  0  0  0  0  0  0
   24.4175  -12.7140  -17.8376 N   0  0  0  0  0  0  0  0  0  0  0  0
   23.5461  -10.8302  -16.5766 C   0  0  0  0  0  0  0  0  0  0  0  0
   23.2945  -10.1177  -17.5821 O   0  0  0  0  0  0  0  0  0  0  0  0
   20.8157   -9.8255  -14.2039 C   0  0  0  0  0  0  0  0  0  0  0  0
   21.7702   -9.6096  -15.3650 C   0  0  2  0  0  0  0  0  0  0  0  0
   22.8170  -10.6051  -15.4013 N   0  0  0  0  0  0  0  0  0  0  0  0
   22.3796   -8.2431  -15.1841 C   0  0  0  0  0  0  0  0  0  0  0  0
   23.4882   -8.1098  -14.6054 O   0  0  0  0  0  0  0  0  0  0  0  0
   22.1596   -3.5698  -16.4653 O   0  0  0  0  0  0  0  0  0  0  0  0
   21.5761   -4.8458  -16.5042 C   0  0  0  0  0  0  0  0  0  0  0  0
   22.3233   -5.7410  -15.5198 C   0  0  2  0  0  0  0  0  0  0  0  0
   21.7223   -7.0766  -15.6591 N   0  0  0  0  0  0  0  0  0  0  0  0
   22.0488   -5.2192  -14.1722 C   0  0  0  0  0  0  0  0  0  0  0  0
   22.9167   -4.3440  -13.5706 O   0  0  0  0  0  0  0  0  0  0  0  0
   21.0209   -5.5742  -13.5725 O   0  0  0  0  0  0  0  0  0  0  0  0
  2  1  1  1
  3  2  1  0
  4  2  1  0
  4  5  1  0
  5  6  1  6
  7  5  1  0
  7  8  2  0
 10  9  1  1
 10 11  1  0
 10 12  1  0
 11  7  1  0
 12 13  2  0
 15 14  1  0
 16 15  1  6
 17 12  1  0
 17 16  1  0
 18 19  1  0
 18 16  1  0
 20 18  2  0
M  END
$$$$
