LAS.pdb
     RDKit          3D

 20 19  0  0  1  0  0  0  0  0999 V2000
   15.3517  -10.2197  -18.3551 C   0  0  0  0  0  0  0  0  0  0  0  0
   16.6504  -10.9895  -18.2469 C   0  0  1  0  0  0  0  0  0  0  0  0
   17.4256  -10.9686  -19.5443 C   0  0  0  0  0  0  0  0  0  0  0  0
   17.4733  -10.3549  -17.1452 C   0  0  0  0  0  0  0  0  0  0  0  0
   18.7123  -11.1883  -16.9697 C   0  0  2  0  0  0  0  0  0  0  0  0
   18.4439  -12.4914  -16.4487 N   0  0  0  0  0  0  0  0  0  0  0  0
   19.7170  -10.4476  -16.1313 C   0  0  0  0  0  0  0  0  0  0  0  0
   19.5145  -10.3574  -14.8932 O   0  0  0  0  0  0  0  0  0  0  0  0
   23.2253   -9.3284  -16.1951 C   0  0  0  0  0  0  0  0  0  0  0  0
   21.7718   -9.1103  -15.8135 C   0  0  2  0  0  0  0  0  0  0  0  0
   20.8688   -9.8525  -16.6631 N   0  0  0  0  0  0  0  0  0  0  0  0
   21.4979   -7.6349  -15.9531 C   0  0  0  0  0  0  0  0  0  0  0  0
   21.0347   -7.1701  -17.0259 O   0  0  0  0  0  0  0  0  0  0  0  0
   20.5064   -5.3475  -12.8818 O   0  0  0  0  0  0  0  0  0  0  0  0
   21.5407   -4.7295  -13.6020 C   0  0  0  0  0  0  0  0  0  0  0  0
   21.5313   -5.2879  -15.0222 C   0  0  2  0  0  0  0  0  0  0  0  0
   21.7540   -6.7355  -14.8836 N   0  0  0  0  0  0  0  0  0  0  0  0
   22.6711   -4.6830  -15.7283 C   0  0  0  0  0  0  0  0  0  0  0  0
   22.6197   -3.3796  -16.1522 O   0  0  0  0  0  0  0  0  0  0  0  0
   23.6906   -5.3587  -15.9432 O   0  0  0  0  0  0  0  0  0  0  0  0
  2  1  1  6
  3  2  1  0
  4  2  1  0
  4  5  1  0
  5  6  1  1
  7  5  1  0
  7  8  2  0
 10  9  1  6
 10 11  1  0
 10 12  1  0
 11  7  1  0
 12 13  2  0
 15 14  1  0
 16 15  1  1
 17 12  1  0
 17 16  1  0
 18 19  1  0
 18 16  1  0
 20 18  2  0
M  END
$$$$
