LAS.pdb
     RDKit          3D

 20 19  0  0  1  0  0  0  0  0999 V2000
   24.5593  -13.4156  -15.7315 C   0  0  0  0  0  0  0  0  0  0  0  0
   23.1621  -13.9805  -15.8721 C   0  0  1  0  0  0  0  0  0  0  0  0
   22.6157  -14.4635  -14.5483 C   0  0  0  0  0  0  0  0  0  0  0  0
   22.2748  -12.8857  -16.4268 C   0  0  0  0  0  0  0  0  0  0  0  0
   20.9047  -13.4722  -16.6255 C   0  0  2  0  0  0  0  0  0  0  0  0
   20.8817  -14.5364  -17.5785 N   0  0  0  0  0  0  0  0  0  0  0  0
   19.9256  -12.3864  -16.9770 C   0  0  0  0  0  0  0  0  0  0  0  0
   19.9039  -11.9586  -18.1595 O   0  0  0  0  0  0  0  0  0  0  0  0
   16.9515  -10.6404  -15.5083 C   0  0  0  0  0  0  0  0  0  0  0  0
   18.1464  -10.7568  -16.4380 C   0  0  2  0  0  0  0  0  0  0  0  0
   19.0354  -11.8280  -16.0500 N   0  0  0  0  0  0  0  0  0  0  0  0
   18.8817   -9.4428  -16.3746 C   0  0  0  0  0  0  0  0  0  0  0  0
   19.7916   -9.2606  -15.5257 O   0  0  0  0  0  0  0  0  0  0  0  0
   17.6844   -6.5257  -18.8739 O   0  0  0  0  0  0  0  0  0  0  0  0
   19.0577   -6.4544  -18.5919 C   0  0  0  0  0  0  0  0  0  0  0  0
   19.2987   -7.1049  -17.2326 C   0  0  2  0  0  0  0  0  0  0  0  0
   18.5688   -8.3819  -17.2660 N   0  0  0  0  0  0  0  0  0  0  0  0
   18.6953   -6.2228  -16.2221 C   0  0  0  0  0  0  0  0  0  0  0  0
   19.2456   -4.9974  -15.9447 O   0  0  0  0  0  0  0  0  0  0  0  0
   17.6772   -6.5905  -15.6134 O   0  0  0  0  0  0  0  0  0  0  0  0
  2  1  1  1
  3  2  1  0
  4  2  1  0
  4  5  1  0
  5  6  1  6
  7  5  1  0
  7  8  2  0
 10  9  1  1
 10 11  1  0
 10 12  1  0
 11  7  1  0
 12 13  2  0
 15 14  1  0
 16 15  1  6
 17 12  1  0
 17 16  1  0
 18 19  1  0
 18 16  1  0
 20 18  2  0
M  END
$$$$
