ETT.pdb
     RDKit          3D

 24 23  0  0  1  0  0  0  0  0999 V2000
    9.5459  -16.5452   20.3801 N   0  0  0  0  0  0  0  0  0  0  0  0
    8.2055  -16.0697   20.1107 C   0  0  1  0  0  0  0  0  0  0  0  0
    7.5078  -16.9509   19.1014 C   0  0  0  0  0  0  0  0  0  0  0  0
    8.4296  -17.8928   18.4010 C   0  0  0  0  0  0  0  0  0  0  0  0
    7.6134  -18.7521   17.5058 C   0  0  0  0  0  0  0  0  0  0  0  0
    7.6157  -20.0217   17.6238 O   0  0  0  0  0  0  0  0  0  0  0  0
    7.4747  -15.9876   21.3914 C   0  0  0  0  0  0  0  0  0  0  0  0
    6.2804  -15.6106   21.3833 O   0  0  0  0  0  0  0  0  0  0  0  0
    6.8163  -18.2343   16.5083 O   0  0  0  0  0  0  0  0  0  0  0  0
    6.8191  -18.5777   24.0442 C   0  0  0  0  0  0  0  0  0  0  0  0
    7.5804  -17.4618   24.7006 C   0  0  1  0  0  0  0  0  0  0  0  0
    8.9127  -17.8144   24.7467 O   0  0  0  0  0  0  0  0  0  0  0  0
    7.3712  -16.1647   23.9190 C   0  0  2  0  0  0  0  0  0  0  0  0
    8.0438  -16.3126   22.6519 N   0  0  0  0  0  0  0  0  0  0  0  0
    7.9546  -15.0798   24.7533 C   0  0  0  0  0  0  0  0  0  0  0  0
    9.1224  -14.7411   24.4759 O   0  0  0  0  0  0  0  0  0  0  0  0
    6.4157  -11.5271   25.5384 C   0  0  0  0  0  0  0  0  0  0  0  0
    6.7654  -12.3277   26.7791 C   0  0  1  0  0  0  0  0  0  0  0  0
    5.6328  -13.0358   27.2133 O   0  0  0  0  0  0  0  0  0  0  0  0
    7.8328  -13.3431   26.5179 C   0  0  2  0  0  0  0  0  0  0  0  0
    7.2626  -14.4511   25.7991 N   0  0  0  0  0  0  0  0  0  0  0  0
    8.3526  -13.8326   27.8283 C   0  0  0  0  0  0  0  0  0  0  0  0
    8.9306  -12.9279   28.7332 O   0  0  0  0  0  0  0  0  0  0  0  0
    8.3140  -15.0274   28.2005 O   0  0  0  0  0  0  0  0  0  0  0  0
  2  1  1  1
  3  2  1  0
  3  4  1  0
  4  5  1  0
  5  9  1  0
  5  6  2  0
  7  8  2  0
  7  2  1  0
 11 10  1  6
 11 13  1  0
 12 11  1  0
 13 14  1  6
 13 15  1  0
 14  7  1  0
 15 21  1  0
 16 15  2  0
 18 20  1  0
 18 19  1  0
 18 17  1  6
 20 22  1  0
 20 21  1  1
 22 24  2  0
 22 23  1  0
M  END
$$$$
