ETT.pdb
     RDKit          3D

 24 23  0  0  1  0  0  0  0  0999 V2000
    8.6553  -14.4584   15.2264 N   0  0  0  0  0  0  0  0  0  0  0  0
    8.6364  -15.5749   16.1474 C   0  0  1  0  0  0  0  0  0  0  0  0
    9.3720  -16.7644   15.5764 C   0  0  0  0  0  0  0  0  0  0  0  0
    9.3886  -17.9442   16.4902 C   0  0  0  0  0  0  0  0  0  0  0  0
   10.1443  -19.0328   15.8195 C   0  0  0  0  0  0  0  0  0  0  0  0
    9.5724  -19.8340   15.0090 O   0  0  0  0  0  0  0  0  0  0  0  0
    9.2015  -15.1252   17.4356 C   0  0  0  0  0  0  0  0  0  0  0  0
   10.3175  -14.5568   17.4411 O   0  0  0  0  0  0  0  0  0  0  0  0
   11.4903  -19.2381   16.0312 O   0  0  0  0  0  0  0  0  0  0  0  0
    7.5687  -12.8146   19.7754 C   0  0  0  0  0  0  0  0  0  0  0  0
    7.9147  -14.0158   20.6081 C   0  0  1  0  0  0  0  0  0  0  0  0
    6.7828  -14.7920   20.7405 O   0  0  0  0  0  0  0  0  0  0  0  0
    9.0522  -14.7928   19.9452 C   0  0  2  0  0  0  0  0  0  0  0  0
    8.5545  -15.2963   18.6888 N   0  0  0  0  0  0  0  0  0  0  0  0
    9.4181  -15.8800   20.8927 C   0  0  0  0  0  0  0  0  0  0  0  0
    8.7992  -16.9548   20.7611 O   0  0  0  0  0  0  0  0  0  0  0  0
   12.6794  -17.5620   21.3325 C   0  0  0  0  0  0  0  0  0  0  0  0
   12.2288  -17.0522   22.6888 C   0  0  1  0  0  0  0  0  0  0  0  0
   12.8289  -15.8082   22.9438 O   0  0  0  0  0  0  0  0  0  0  0  0
   10.7495  -16.8367   22.7519 C   0  0  2  0  0  0  0  0  0  0  0  0
   10.3963  -15.7416   21.8886 N   0  0  0  0  0  0  0  0  0  0  0  0
   10.3810  -16.4852   24.1547 C   0  0  0  0  0  0  0  0  0  0  0  0
   10.5483  -17.4304   25.1793 O   0  0  0  0  0  0  0  0  0  0  0  0
    9.9179  -15.3761   24.5055 O   0  0  0  0  0  0  0  0  0  0  0  0
  2  1  1  6
  3  2  1  0
  3  4  1  0
  4  5  1  0
  5  9  1  0
  5  6  2  0
  7  8  2  0
  7  2  1  0
 11 10  1  6
 11 13  1  0
 12 11  1  0
 13 14  1  6
 13 15  1  0
 14  7  1  0
 15 21  1  0
 16 15  2  0
 18 20  1  0
 18 19  1  0
 18 17  1  6
 20 22  1  0
 20 21  1  6
 22 24  2  0
 22 23  1  0
M  END
$$$$
