ETT.pdb
     RDKit          3D

 24 23  0  0  1  0  0  0  0  0999 V2000
    8.6239  -17.1411   16.1739 N   0  0  0  0  0  0  0  0  0  0  0  0
    7.8321  -17.0237   17.3799 C   0  0  1  0  0  0  0  0  0  0  0  0
    7.3665  -18.3784   17.8596 C   0  0  0  0  0  0  0  0  0  0  0  0
    7.1051  -19.3412   16.7496 C   0  0  0  0  0  0  0  0  0  0  0  0
    6.7039  -20.6379   17.3527 C   0  0  0  0  0  0  0  0  0  0  0  0
    7.4796  -21.6495   17.3245 O   0  0  0  0  0  0  0  0  0  0  0  0
    8.6326  -16.3086   18.3943 C   0  0  0  0  0  0  0  0  0  0  0  0
    9.8718  -16.2209   18.2353 O   0  0  0  0  0  0  0  0  0  0  0  0
    5.4857  -20.8212   17.9700 O   0  0  0  0  0  0  0  0  0  0  0  0
    7.8181  -12.8987   20.0151 C   0  0  0  0  0  0  0  0  0  0  0  0
    8.0394  -13.8913   21.1203 C   0  0  1  0  0  0  0  0  0  0  0  0
    6.8086  -14.2978   21.5907 O   0  0  0  0  0  0  0  0  0  0  0  0
    8.8569  -15.0725   20.5971 C   0  0  2  0  0  0  0  0  0  0  0  0
    8.0833  -15.7039   19.5566 N   0  0  0  0  0  0  0  0  0  0  0  0
    9.0849  -15.9672   21.7637 C   0  0  0  0  0  0  0  0  0  0  0  0
    8.1310  -16.7031   22.0863 O   0  0  0  0  0  0  0  0  0  0  0  0
   11.3315  -18.7798   22.1519 C   0  0  0  0  0  0  0  0  0  0  0  0
   11.6297  -17.8175   23.2866 C   0  0  1  0  0  0  0  0  0  0  0  0
   12.7057  -16.9894   22.9270 O   0  0  0  0  0  0  0  0  0  0  0  0
   10.4741  -16.9152   23.5848 C   0  0  2  0  0  0  0  0  0  0  0  0
   10.2883  -16.0088   22.4832 N   0  0  0  0  0  0  0  0  0  0  0  0
   10.7920  -16.1270   24.8115 C   0  0  0  0  0  0  0  0  0  0  0  0
   10.9012  -16.7768   26.0513 O   0  0  0  0  0  0  0  0  0  0  0  0
   10.9761  -14.8886   24.8262 O   0  0  0  0  0  0  0  0  0  0  0  0
  2  1  1  6
  3  2  1  0
  3  4  1  0
  4  5  1  0
  5  9  1  0
  5  6  2  0
  7  8  2  0
  7  2  1  0
 11 10  1  6
 11 13  1  0
 12 11  1  0
 13 14  1  6
 13 15  1  0
 14  7  1  0
 15 21  1  0
 16 15  2  0
 18 20  1  0
 18 19  1  0
 18 17  1  6
 20 22  1  0
 20 21  1  6
 22 24  2  0
 22 23  1  0
M  END
$$$$
