ETT.pdb
     RDKit          3D

 24 23  0  0  1  0  0  0  0  0999 V2000
    9.0878  -15.4001   14.9974 N   0  0  0  0  0  0  0  0  0  0  0  0
    8.4226  -16.0195   16.1240 C   0  0  1  0  0  0  0  0  0  0  0  0
    8.3734  -17.5214   15.9688 C   0  0  0  0  0  0  0  0  0  0  0  0
    9.7111  -18.1725   16.0875 C   0  0  0  0  0  0  0  0  0  0  0  0
    9.5350  -19.6281   15.8501 C   0  0  0  0  0  0  0  0  0  0  0  0
    8.9289  -20.3680   16.6934 O   0  0  0  0  0  0  0  0  0  0  0  0
    9.1136  -15.6006   17.3602 C   0  0  0  0  0  0  0  0  0  0  0  0
   10.3501  -15.4048   17.3254 O   0  0  0  0  0  0  0  0  0  0  0  0
   10.0100  -20.2560   14.7193 O   0  0  0  0  0  0  0  0  0  0  0  0
    7.6370  -12.8507   19.5372 C   0  0  0  0  0  0  0  0  0  0  0  0
    8.0525  -13.9534   20.4684 C   0  0  1  0  0  0  0  0  0  0  0  0
    6.9272  -14.6650   20.8270 O   0  0  0  0  0  0  0  0  0  0  0  0
    9.0850  -14.8473   19.7814 C   0  0  2  0  0  0  0  0  0  0  0  0
    8.4601  -15.4016   18.6058 N   0  0  0  0  0  0  0  0  0  0  0  0
    9.4581  -15.8889   20.7761 C   0  0  0  0  0  0  0  0  0  0  0  0
    8.7202  -16.8934   20.8227 O   0  0  0  0  0  0  0  0  0  0  0  0
   12.4857  -18.0106   21.0812 C   0  0  0  0  0  0  0  0  0  0  0  0
   12.2982  -17.2503   22.3809 C   0  0  1  0  0  0  0  0  0  0  0  0
   13.0820  -16.0850   22.3584 O   0  0  0  0  0  0  0  0  0  0  0  0
   10.8820  -16.8117   22.5832 C   0  0  2  0  0  0  0  0  0  0  0  0
   10.5671  -15.7827   21.6284 N   0  0  0  0  0  0  0  0  0  0  0  0
   10.7515  -16.2505   23.9599 C   0  0  0  0  0  0  0  0  0  0  0  0
   10.9345  -17.0840   25.0749 O   0  0  0  0  0  0  0  0  0  0  0  0
   10.4822  -15.0539   24.2112 O   0  0  0  0  0  0  0  0  0  0  0  0
  2  1  1  6
  3  2  1  0
  3  4  1  0
  4  5  1  0
  5  9  1  0
  5  6  2  0
  7  8  2  0
  7  2  1  0
 11 10  1  6
 11 13  1  0
 12 11  1  0
 13 14  1  6
 13 15  1  0
 14  7  1  0
 15 21  1  0
 16 15  2  0
 18 20  1  0
 18 19  1  0
 18 17  1  6
 20 22  1  0
 20 21  1  6
 22 24  2  0
 22 23  1  0
M  END
$$$$
