ETT.pdb
     RDKit          3D

 24 23  0  0  1  0  0  0  0  0999 V2000
   -1.9806  -26.3218   24.5649 N   0  0  0  0  0  0  0  0  0  0  0  0
   -3.3659  -25.9791   24.8076 C   0  0  1  0  0  0  0  0  0  0  0  0
   -4.2567  -27.1929   24.6847 C   0  0  0  0  0  0  0  0  0  0  0  0
   -4.2189  -27.8199   23.3309 C   0  0  0  0  0  0  0  0  0  0  0  0
   -5.0888  -29.0234   23.3587 C   0  0  0  0  0  0  0  0  0  0  0  0
   -5.6966  -29.3767   24.4225 O   0  0  0  0  0  0  0  0  0  0  0  0
   -3.4612  -25.3391   26.1351 C   0  0  0  0  0  0  0  0  0  0  0  0
   -2.4933  -25.4355   26.9241 O   0  0  0  0  0  0  0  0  0  0  0  0
   -5.2874  -29.8184   22.2510 O   0  0  0  0  0  0  0  0  0  0  0  0
   -2.2669  -23.4837   27.6969 C   0  0  0  0  0  0  0  0  0  0  0  0
   -3.6205  -22.8680   27.9073 C   0  0  1  0  0  0  0  0  0  0  0  0
   -3.8231  -21.9207   26.9261 O   0  0  0  0  0  0  0  0  0  0  0  0
   -4.6942  -23.9555   27.8660 C   0  0  2  0  0  0  0  0  0  0  0  0
   -4.5946  -24.6100   26.5849 N   0  0  0  0  0  0  0  0  0  0  0  0
   -5.9958  -23.2596   28.0534 C   0  0  0  0  0  0  0  0  0  0  0  0
   -6.3889  -22.5629   27.0965 O   0  0  0  0  0  0  0  0  0  0  0  0
   -9.3446  -24.7353   28.5883 C   0  0  0  0  0  0  0  0  0  0  0  0
   -9.0708  -23.7522   29.7113 C   0  0  1  0  0  0  0  0  0  0  0  0
   -8.5544  -24.4416   30.8207 O   0  0  0  0  0  0  0  0  0  0  0  0
   -8.0515  -22.7250   29.3312 C   0  0  2  0  0  0  0  0  0  0  0  0
   -6.7639  -23.3572   29.2231 N   0  0  0  0  0  0  0  0  0  0  0  0
   -7.9946  -21.6925   30.4074 C   0  0  0  0  0  0  0  0  0  0  0  0
   -6.8338  -21.5570   31.1856 O   0  0  0  0  0  0  0  0  0  0  0  0
   -8.9312  -20.9088   30.6831 O   0  0  0  0  0  0  0  0  0  0  0  0
  2  1  1  1
  3  2  1  0
  3  4  1  0
  4  5  1  0
  5  9  1  0
  5  6  2  0
  7  8  2  0
  7  2  1  0
 11 10  1  6
 11 13  1  0
 12 11  1  0
 13 14  1  6
 13 15  1  0
 14  7  1  0
 15 21  1  0
 16 15  2  0
 18 20  1  0
 18 19  1  0
 18 17  1  6
 20 22  1  0
 20 21  1  1
 22 24  2  0
 22 23  1  0
M  END
$$$$
