ETT.pdb
     RDKit          3D

 24 23  0  0  1  0  0  0  0  0999 V2000
   11.5904  -14.5008   18.5261 N   0  0  0  0  0  0  0  0  0  0  0  0
   11.4675  -15.0715   19.8507 C   0  0  1  0  0  0  0  0  0  0  0  0
   12.7776  -14.9980   20.5990 C   0  0  0  0  0  0  0  0  0  0  0  0
   13.9590  -14.8099   19.7066 C   0  0  0  0  0  0  0  0  0  0  0  0
   15.1780  -14.8033   20.5551 C   0  0  0  0  0  0  0  0  0  0  0  0
   15.1064  -14.9629   21.8182 O   0  0  0  0  0  0  0  0  0  0  0  0
   10.3725  -14.3764   20.5570 C   0  0  0  0  0  0  0  0  0  0  0  0
   10.2140  -13.1485   20.3679 O   0  0  0  0  0  0  0  0  0  0  0  0
   16.4411  -14.6266   20.0339 O   0  0  0  0  0  0  0  0  0  0  0  0
    6.7483  -14.8420   20.3925 C   0  0  0  0  0  0  0  0  0  0  0  0
    7.1094  -15.0802   21.8308 C   0  0  1  0  0  0  0  0  0  0  0  0
    7.2280  -16.4397   22.0285 O   0  0  0  0  0  0  0  0  0  0  0  0
    8.4108  -14.3503   22.1638 C   0  0  2  0  0  0  0  0  0  0  0  0
    9.4725  -15.0166   21.4506 N   0  0  0  0  0  0  0  0  0  0  0  0
    8.5694  -14.4396   23.6404 C   0  0  0  0  0  0  0  0  0  0  0  0
    9.5649  -15.0702   24.0488 O   0  0  0  0  0  0  0  0  0  0  0  0
    7.0434  -11.6099   26.4126 C   0  0  0  0  0  0  0  0  0  0  0  0
    6.8652  -13.0952   26.6671 C   0  0  1  0  0  0  0  0  0  0  0  0
    5.6189  -13.5088   26.1689 O   0  0  0  0  0  0  0  0  0  0  0  0
    7.9015  -13.9194   25.9702 C   0  0  2  0  0  0  0  0  0  0  0  0
    7.6728  -13.8613   24.5511 N   0  0  0  0  0  0  0  0  0  0  0  0
    7.7663  -15.3345   26.4245 C   0  0  0  0  0  0  0  0  0  0  0  0
    8.0084  -15.6636   27.7678 O   0  0  0  0  0  0  0  0  0  0  0  0
    7.4430  -16.2868   25.6789 O   0  0  0  0  0  0  0  0  0  0  0  0
  2  1  1  6
  3  2  1  0
  3  4  1  0
  4  5  1  0
  5  9  1  0
  5  6  2  0
  7  8  2  0
  7  2  1  0
 11 10  1  6
 11 13  1  0
 12 11  1  0
 13 14  1  6
 13 15  1  0
 14  7  1  0
 15 21  1  0
 16 15  2  0
 18 20  1  0
 18 19  1  0
 18 17  1  6
 20 22  1  0
 20 21  1  6
 22 24  2  0
 22 23  1  0
M  END
$$$$
