ETT.pdb
     RDKit          3D

 24 23  0  0  1  0  0  0  0  0999 V2000
   10.3589  -16.3284   18.8078 N   0  0  0  0  0  0  0  0  0  0  0  0
   10.8481  -15.2995   19.7007 C   0  0  1  0  0  0  0  0  0  0  0  0
   11.4910  -14.1704   18.9302 C   0  0  0  0  0  0  0  0  0  0  0  0
   12.6783  -14.5984   18.1338 C   0  0  0  0  0  0  0  0  0  0  0  0
   13.8054  -14.8215   19.0751 C   0  0  0  0  0  0  0  0  0  0  0  0
   14.2416  -15.9945   19.3197 O   0  0  0  0  0  0  0  0  0  0  0  0
    9.7248  -14.8421   20.5434 C   0  0  0  0  0  0  0  0  0  0  0  0
    9.0385  -13.8673   20.1596 O   0  0  0  0  0  0  0  0  0  0  0  0
   14.4373  -13.7875   19.7308 O   0  0  0  0  0  0  0  0  0  0  0  0
    6.7469  -16.6357   21.3923 C   0  0  0  0  0  0  0  0  0  0  0  0
    7.3300  -16.2750   22.7287 C   0  0  1  0  0  0  0  0  0  0  0  0
    8.0282  -17.3644   23.2052 O   0  0  0  0  0  0  0  0  0  0  0  0
    8.2335  -15.0504   22.5839 C   0  0  2  0  0  0  0  0  0  0  0  0
    9.3644  -15.4427   21.7794 N   0  0  0  0  0  0  0  0  0  0  0  0
    8.6227  -14.6574   23.9650 C   0  0  0  0  0  0  0  0  0  0  0  0
    9.7944  -14.9205   24.3015 O   0  0  0  0  0  0  0  0  0  0  0  0
    7.1314  -11.4076   26.2700 C   0  0  0  0  0  0  0  0  0  0  0  0
    7.1221  -12.8180   26.8296 C   0  0  1  0  0  0  0  0  0  0  0  0
    5.8813  -13.4192   26.5616 O   0  0  0  0  0  0  0  0  0  0  0  0
    8.1651  -13.6862   26.1993 C   0  0  2  0  0  0  0  0  0  0  0  0
    7.7506  -14.0263   24.8645 N   0  0  0  0  0  0  0  0  0  0  0  0
    8.2879  -14.9385   27.0017 C   0  0  0  0  0  0  0  0  0  0  0  0
    8.7498  -14.8777   28.3263 O   0  0  0  0  0  0  0  0  0  0  0  0
    8.0024  -16.0804   26.5750 O   0  0  0  0  0  0  0  0  0  0  0  0
  2  1  1  6
  3  2  1  0
  3  4  1  0
  4  5  1  0
  5  9  1  0
  5  6  2  0
  7  8  2  0
  7  2  1  0
 11 10  1  6
 11 13  1  0
 12 11  1  0
 13 14  1  6
 13 15  1  0
 14  7  1  0
 15 21  1  0
 16 15  2  0
 18 20  1  0
 18 19  1  0
 18 17  1  6
 20 22  1  0
 20 21  1  6
 22 24  2  0
 22 23  1  0
M  END
$$$$
