ETT.pdb
     RDKit          3D

 24 23  0  0  1  0  0  0  0  0999 V2000
   11.2513  -17.1978   19.2206 N   0  0  0  0  0  0  0  0  0  0  0  0
   11.2651  -17.3010   20.6643 C   0  0  1  0  0  0  0  0  0  0  0  0
   12.6792  -17.3157   21.1956 C   0  0  0  0  0  0  0  0  0  0  0  0
   13.3328  -18.6540   21.1012 C   0  0  0  0  0  0  0  0  0  0  0  0
   14.7050  -18.5341   21.6567 C   0  0  0  0  0  0  0  0  0  0  0  0
   15.6814  -18.1495   20.9324 O   0  0  0  0  0  0  0  0  0  0  0  0
   10.4640  -16.1907   21.2179 C   0  0  0  0  0  0  0  0  0  0  0  0
   10.6932  -15.0242   20.8238 O   0  0  0  0  0  0  0  0  0  0  0  0
   14.9995  -18.8277   22.9704 O   0  0  0  0  0  0  0  0  0  0  0  0
    6.7716  -15.9308   21.0754 C   0  0  0  0  0  0  0  0  0  0  0  0
    7.1328  -15.7975   22.5272 C   0  0  1  0  0  0  0  0  0  0  0  0
    6.9633  -17.0257   23.1306 O   0  0  0  0  0  0  0  0  0  0  0  0
    8.5739  -15.3038   22.6572 C   0  0  2  0  0  0  0  0  0  0  0  0
    9.4347  -16.3590   22.1825 N   0  0  0  0  0  0  0  0  0  0  0  0
    8.7798  -15.0026   24.0995 C   0  0  0  0  0  0  0  0  0  0  0  0
    9.7501  -15.5651   24.6451 O   0  0  0  0  0  0  0  0  0  0  0  0
    7.5777  -11.4824   26.2634 C   0  0  0  0  0  0  0  0  0  0  0  0
    7.1984  -12.8787   26.7206 C   0  0  1  0  0  0  0  0  0  0  0  0
    5.9436  -13.2198   26.1897 O   0  0  0  0  0  0  0  0  0  0  0  0
    8.1643  -13.9157   26.2406 C   0  0  2  0  0  0  0  0  0  0  0  0
    7.9523  -14.1420   24.8359 N   0  0  0  0  0  0  0  0  0  0  0  0
    7.9031  -15.1854   26.9800 C   0  0  0  0  0  0  0  0  0  0  0  0
    7.4375  -16.3146   26.2876 O   0  0  0  0  0  0  0  0  0  0  0  0
    8.0713  -15.3315   28.2121 O   0  0  0  0  0  0  0  0  0  0  0  0
  2  1  1  6
  3  2  1  0
  3  4  1  0
  4  5  1  0
  5  9  1  0
  5  6  2  0
  7  8  2  0
  7  2  1  0
 11 10  1  6
 11 13  1  0
 12 11  1  0
 13 14  1  1
 13 15  1  0
 14  7  1  0
 15 21  1  0
 16 15  2  0
 18 20  1  0
 18 19  1  0
 18 17  1  6
 20 22  1  0
 20 21  1  6
 22 24  2  0
 22 23  1  0
M  END
$$$$
