ETT.pdb
     RDKit          3D

 24 23  0  0  1  0  0  0  0  0999 V2000
   10.0737  -15.5269   15.7260 N   0  0  0  0  0  0  0  0  0  0  0  0
   10.0350  -16.3583   16.9103 C   0  0  1  0  0  0  0  0  0  0  0  0
   11.2298  -17.2809   16.9672 C   0  0  0  0  0  0  0  0  0  0  0  0
   12.3384  -16.8700   16.0565 C   0  0  0  0  0  0  0  0  0  0  0  0
   13.4570  -17.8310   16.2335 C   0  0  0  0  0  0  0  0  0  0  0  0
   13.8292  -18.5961   15.2838 O   0  0  0  0  0  0  0  0  0  0  0  0
    9.9419  -15.4791   18.0932 C   0  0  0  0  0  0  0  0  0  0  0  0
   10.7563  -14.5349   18.2107 O   0  0  0  0  0  0  0  0  0  0  0  0
   14.1489  -17.9505   17.4190 O   0  0  0  0  0  0  0  0  0  0  0  0
    7.1530  -13.3369   19.1275 C   0  0  0  0  0  0  0  0  0  0  0  0
    7.3923  -14.2645   20.2842 C   0  0  1  0  0  0  0  0  0  0  0  0
    6.5002  -15.3118   20.1916 O   0  0  0  0  0  0  0  0  0  0  0  0
    8.8392  -14.7573   20.2597 C   0  0  2  0  0  0  0  0  0  0  0  0
    8.9758  -15.6345   19.1232 N   0  0  0  0  0  0  0  0  0  0  0  0
    9.0597  -15.4584   21.5534 C   0  0  0  0  0  0  0  0  0  0  0  0
    9.3134  -16.6774   21.4813 O   0  0  0  0  0  0  0  0  0  0  0  0
    7.7774  -13.8083   25.1922 C   0  0  0  0  0  0  0  0  0  0  0  0
    9.0722  -14.5994   25.1800 C   0  0  1  0  0  0  0  0  0  0  0  0
    9.1591  -15.3722   26.3496 O   0  0  0  0  0  0  0  0  0  0  0  0
    9.1446  -15.5527   24.0289 C   0  0  2  0  0  0  0  0  0  0  0  0
    8.9944  -14.8194   22.8004 N   0  0  0  0  0  0  0  0  0  0  0  0
    8.0221  -16.5286   24.1501 C   0  0  0  0  0  0  0  0  0  0  0  0
    8.1310  -17.6131   25.0353 O   0  0  0  0  0  0  0  0  0  0  0  0
    6.9523  -16.4570   23.5036 O   0  0  0  0  0  0  0  0  0  0  0  0
  2  1  1  6
  3  2  1  0
  3  4  1  0
  4  5  1  0
  5  9  1  0
  5  6  2  0
  7  8  2  0
  7  2  1  0
 11 10  1  6
 11 13  1  0
 12 11  1  0
 13 14  1  6
 13 15  1  0
 14  7  1  0
 15 21  1  0
 16 15  2  0
 18 20  1  0
 18 19  1  0
 18 17  1  1
 20 22  1  0
 20 21  1  6
 22 24  2  0
 22 23  1  0
M  END
$$$$
