ETT.pdb
     RDKit          3D

 24 23  0  0  1  0  0  0  0  0999 V2000
   12.8700  -14.5435   17.6389 N   0  0  0  0  0  0  0  0  0  0  0  0
   12.5036  -15.2965   18.8196 C   0  0  1  0  0  0  0  0  0  0  0  0
   13.7276  -15.7176   19.5984 C   0  0  0  0  0  0  0  0  0  0  0  0
   13.9246  -14.9398   20.8568 C   0  0  0  0  0  0  0  0  0  0  0  0
   15.0989  -15.5075   21.5674 C   0  0  0  0  0  0  0  0  0  0  0  0
   15.0509  -16.6606   22.1096 O   0  0  0  0  0  0  0  0  0  0  0  0
   11.5749  -14.4774   19.6243 C   0  0  0  0  0  0  0  0  0  0  0  0
   11.8666  -13.2812   19.8535 O   0  0  0  0  0  0  0  0  0  0  0  0
   16.2934  -14.8301   21.6808 O   0  0  0  0  0  0  0  0  0  0  0  0
    8.2047  -13.1824   19.1825 C   0  0  0  0  0  0  0  0  0  0  0  0
    8.1218  -14.1167   20.3556 C   0  0  1  0  0  0  0  0  0  0  0  0
    7.6989  -15.3476   19.9002 O   0  0  0  0  0  0  0  0  0  0  0  0
    9.4866  -14.2107   21.0379 C   0  0  2  0  0  0  0  0  0  0  0  0
   10.3536  -14.9623   20.1644 N   0  0  0  0  0  0  0  0  0  0  0  0
    9.2529  -14.8941   22.3387 C   0  0  0  0  0  0  0  0  0  0  0  0
    9.7495  -16.0319   22.4584 O   0  0  0  0  0  0  0  0  0  0  0  0
    8.5773  -12.9274   25.9937 C   0  0  0  0  0  0  0  0  0  0  0  0
    7.6833  -14.0948   25.6189 C   0  0  1  0  0  0  0  0  0  0  0  0
    6.5166  -13.6117   25.0039 O   0  0  0  0  0  0  0  0  0  0  0  0
    8.3353  -15.0177   24.6381 C   0  0  2  0  0  0  0  0  0  0  0  0
    8.5222  -14.3241   23.3917 N   0  0  0  0  0  0  0  0  0  0  0  0
    7.4323  -16.1842   24.4120 C   0  0  0  0  0  0  0  0  0  0  0  0
    7.1864  -17.0906   25.4557 O   0  0  0  0  0  0  0  0  0  0  0  0
    6.8551  -16.4297   23.3284 O   0  0  0  0  0  0  0  0  0  0  0  0
  2  1  1  6
  3  2  1  0
  3  4  1  0
  4  5  1  0
  5  9  1  0
  5  6  2  0
  7  8  2  0
  7  2  1  0
 11 10  1  6
 11 13  1  0
 12 11  1  0
 13 14  1  6
 13 15  1  0
 14  7  1  0
 15 21  1  0
 16 15  2  0
 18 20  1  0
 18 19  1  0
 18 17  1  6
 20 22  1  0
 20 21  1  6
 22 24  2  0
 22 23  1  0
M  END
$$$$
