ALN.pdb
     RDKit          3D

 22 21  0  0  1  0  0  0  0  0999 V2000
    9.4269  -19.3478   20.5366 C   0  0  0  0  0  0  0  0  0  0  0  0
    9.7992  -18.2664   19.5482 C   0  0  2  0  0  0  0  0  0  0  0  0
   11.0238  -18.6141   18.8870 N   0  0  0  0  0  0  0  0  0  0  0  0
    9.9485  -16.9951   20.3222 C   0  0  0  0  0  0  0  0  0  0  0  0
   11.0842  -16.6974   20.7646 O   0  0  0  0  0  0  0  0  0  0  0  0
    6.4604  -12.6419   19.9039 C   0  0  0  0  0  0  0  0  0  0  0  0
    7.7357  -13.4939   19.8909 C   0  0  1  0  0  0  0  0  0  0  0  0
    8.8260  -12.6330   19.3449 C   0  0  0  0  0  0  0  0  0  0  0  0
    7.9522  -13.9601   21.2867 C   0  0  0  0  0  0  0  0  0  0  0  0
    9.0468  -14.9940   21.4277 C   0  0  2  0  0  0  0  0  0  0  0  0
    8.8736  -16.1211   20.5749 N   0  0  0  0  0  0  0  0  0  0  0  0
    9.0099  -15.4188   22.8676 C   0  0  0  0  0  0  0  0  0  0  0  0
    9.2239  -14.5476   23.7454 O   0  0  0  0  0  0  0  0  0  0  0  0
    6.7617  -19.9088   26.2373 N   0  0  0  0  0  0  0  0  0  0  0  0
    7.4169  -18.6615   26.1626 C   0  0  0  0  0  0  0  0  0  0  0  0
    7.8662  -18.1364   27.1906 O   0  0  0  0  0  0  0  0  0  0  0  0
    7.5480  -18.0168   24.8558 C   0  0  0  0  0  0  0  0  0  0  0  0
    8.7937  -17.1843   24.6663 C   0  0  2  0  0  0  0  0  0  0  0  0
    8.7438  -16.7563   23.2534 N   0  0  0  0  0  0  0  0  0  0  0  0
    9.9734  -18.0727   24.8621 C   0  0  0  0  0  0  0  0  0  0  0  0
   10.7691  -18.1403   25.9622 O   0  0  0  0  0  0  0  0  0  0  0  0
   10.2637  -18.8503   23.8903 O   0  0  0  0  0  0  0  0  0  0  0  0
  2  1  1  1
  3  2  1  0
  4  5  2  0
  4  2  1  0
  7  6  1  1
  7  8  1  0
  7  9  1  0
 10  9  1  1
 10 11  1  0
 10 12  1  0
 11  4  1  0
 12 19  1  0
 12 13  2  0
 15 14  1  0
 16 15  2  0
 17 15  1  0
 18 17  1  6
 19 18  1  0
 20 21  1  0
 20 18  1  0
 22 20  2  0
M  END
$$$$
