ALN.pdb
     RDKit          3D

 22 21  0  0  1  0  0  0  0  0999 V2000
    8.2244  -19.4078   17.6289 C   0  0  0  0  0  0  0  0  0  0  0  0
    8.6672  -18.0487   17.1373 C   0  0  2  0  0  0  0  0  0  0  0  0
    9.6306  -18.2033   16.0858 N   0  0  0  0  0  0  0  0  0  0  0  0
    9.2593  -17.3289   18.3072 C   0  0  0  0  0  0  0  0  0  0  0  0
   10.4860  -17.4666   18.5322 O   0  0  0  0  0  0  0  0  0  0  0  0
    6.6903  -12.8342   20.5901 C   0  0  0  0  0  0  0  0  0  0  0  0
    7.7449  -13.6571   19.8398 C   0  0  1  0  0  0  0  0  0  0  0  0
    8.7850  -12.6978   19.3645 C   0  0  0  0  0  0  0  0  0  0  0  0
    8.2389  -14.6879   20.7916 C   0  0  0  0  0  0  0  0  0  0  0  0
    9.1460  -15.7219   20.1631 C   0  0  2  0  0  0  0  0  0  0  0  0
    8.5027  -16.5064   19.1640 N   0  0  0  0  0  0  0  0  0  0  0  0
    9.6017  -16.5937   21.2977 C   0  0  0  0  0  0  0  0  0  0  0  0
    8.7738  -17.3952   21.7952 O   0  0  0  0  0  0  0  0  0  0  0  0
   14.6953  -19.2854   22.9825 N   0  0  0  0  0  0  0  0  0  0  0  0
   13.3422  -18.9782   23.2382 C   0  0  0  0  0  0  0  0  0  0  0  0
   12.7667  -19.4831   24.2120 O   0  0  0  0  0  0  0  0  0  0  0  0
   12.6496  -18.0602   22.3336 C   0  0  0  0  0  0  0  0  0  0  0  0
   11.3825  -17.4459   22.8793 C   0  0  2  0  0  0  0  0  0  0  0  0
   10.9210  -16.5350   21.8120 N   0  0  0  0  0  0  0  0  0  0  0  0
   11.7429  -16.6417   24.0805 C   0  0  0  0  0  0  0  0  0  0  0  0
   11.7330  -15.2866   24.1870 O   0  0  0  0  0  0  0  0  0  0  0  0
   12.0986  -17.3002   25.1164 O   0  0  0  0  0  0  0  0  0  0  0  0
  2  1  1  1
  3  2  1  0
  4  5  2  0
  4  2  1  0
  7  6  1  1
  7  8  1  0
  7  9  1  0
 10  9  1  1
 10 11  1  0
 10 12  1  0
 11  4  1  0
 12 19  1  0
 12 13  2  0
 15 14  1  0
 16 15  2  0
 17 15  1  0
 18 17  1  6
 19 18  1  0
 20 21  1  0
 20 18  1  0
 22 20  2  0
M  END
$$$$
