ALN.pdb
     RDKit          3D

 22 21  0  0  1  0  0  0  0  0999 V2000
    8.3158  -19.5613   19.4611 C   0  0  0  0  0  0  0  0  0  0  0  0
    8.3853  -18.3122   18.6127 C   0  0  2  0  0  0  0  0  0  0  0  0
    8.9974  -18.6159   17.3513 N   0  0  0  0  0  0  0  0  0  0  0  0
    9.1915  -17.3078   19.3733 C   0  0  0  0  0  0  0  0  0  0  0  0
   10.4213  -17.2295   19.1371 O   0  0  0  0  0  0  0  0  0  0  0  0
    6.6543  -12.8433   21.4794 C   0  0  0  0  0  0  0  0  0  0  0  0
    7.5911  -13.6988   20.6176 C   0  0  1  0  0  0  0  0  0  0  0  0
    8.1768  -12.7938   19.5852 C   0  0  0  0  0  0  0  0  0  0  0  0
    8.5828  -14.3102   21.5424 C   0  0  0  0  0  0  0  0  0  0  0  0
    9.4135  -15.4079   20.9162 C   0  0  2  0  0  0  0  0  0  0  0  0
    8.6323  -16.4493   20.3395 N   0  0  0  0  0  0  0  0  0  0  0  0
   10.2629  -15.9487   22.0303 C   0  0  0  0  0  0  0  0  0  0  0  0
   11.0532  -15.1612   22.6053 O   0  0  0  0  0  0  0  0  0  0  0  0
   10.5301  -19.5103   26.5571 N   0  0  0  0  0  0  0  0  0  0  0  0
   10.9284  -19.6765   25.2138 C   0  0  0  0  0  0  0  0  0  0  0  0
   11.8436  -20.4624   24.9329 O   0  0  0  0  0  0  0  0  0  0  0  0
   10.2395  -18.9053   24.1788 C   0  0  0  0  0  0  0  0  0  0  0  0
   11.0700  -17.8392   23.5046 C   0  0  2  0  0  0  0  0  0  0  0  0
   10.1956  -17.3033   22.4414 N   0  0  0  0  0  0  0  0  0  0  0  0
   12.2461  -18.5033   22.8758 C   0  0  0  0  0  0  0  0  0  0  0  0
   13.5112  -18.5590   23.3700 O   0  0  0  0  0  0  0  0  0  0  0  0
   12.0382  -19.0786   21.7537 O   0  0  0  0  0  0  0  0  0  0  0  0
  2  1  1  1
  3  2  1  0
  4  5  2  0
  4  2  1  0
  7  6  1  1
  7  8  1  0
  7  9  1  0
 10  9  1  1
 10 11  1  0
 10 12  1  0
 11  4  1  0
 12 19  1  0
 12 13  2  0
 15 14  1  0
 16 15  2  0
 17 15  1  0
 18 17  1  6
 19 18  1  0
 20 21  1  0
 20 18  1  0
 22 20  2  0
M  END
$$$$
