ALN.pdb
     RDKit          3D

 22 21  0  0  1  0  0  0  0  0999 V2000
    7.0699  -17.5095   22.4274 C   0  0  0  0  0  0  0  0  0  0  0  0
    7.3358  -16.0569   22.1049 C   0  0  2  0  0  0  0  0  0  0  0  0
    8.0700  -15.9592   20.8764 N   0  0  0  0  0  0  0  0  0  0  0  0
    8.1191  -15.4889   23.2457 C   0  0  0  0  0  0  0  0  0  0  0  0
    9.3602  -15.3626   23.1112 O   0  0  0  0  0  0  0  0  0  0  0  0
    5.7809  -12.1813   27.1083 C   0  0  0  0  0  0  0  0  0  0  0  0
    6.6449  -12.7117   25.9575 C   0  0  1  0  0  0  0  0  0  0  0  0
    7.3796  -11.5416   25.3927 C   0  0  0  0  0  0  0  0  0  0  0  0
    7.5146  -13.7737   26.5306 C   0  0  0  0  0  0  0  0  0  0  0  0
    8.3210  -14.5318   25.5001 C   0  0  2  0  0  0  0  0  0  0  0  0
    7.5262  -15.0912   24.4596 N   0  0  0  0  0  0  0  0  0  0  0  0
    9.0211  -15.6189   26.2638 C   0  0  0  0  0  0  0  0  0  0  0  0
    9.6864  -15.2936   27.2771 O   0  0  0  0  0  0  0  0  0  0  0  0
    6.5094  -19.5355   26.3308 N   0  0  0  0  0  0  0  0  0  0  0  0
    7.7170  -19.4367   27.0537 C   0  0  0  0  0  0  0  0  0  0  0  0
    7.7005  -19.4640   28.2920 O   0  0  0  0  0  0  0  0  0  0  0  0
    8.9696  -19.3033   26.3095 C   0  0  0  0  0  0  0  0  0  0  0  0
    9.7378  -18.0270   26.5577 C   0  0  2  0  0  0  0  0  0  0  0  0
    8.9504  -16.9800   25.8753 N   0  0  0  0  0  0  0  0  0  0  0  0
   11.0625  -18.1512   25.8876 C   0  0  0  0  0  0  0  0  0  0  0  0
   11.4478  -17.5569   24.7274 O   0  0  0  0  0  0  0  0  0  0  0  0
   11.9229  -18.8967   26.4685 O   0  0  0  0  0  0  0  0  0  0  0  0
  2  1  1  1
  3  2  1  0
  4  5  2  0
  4  2  1  0
  7  6  1  1
  7  8  1  0
  7  9  1  0
 10  9  1  1
 10 11  1  0
 10 12  1  0
 11  4  1  0
 12 19  1  0
 12 13  2  0
 15 14  1  0
 16 15  2  0
 17 15  1  0
 18 17  1  6
 19 18  1  0
 20 21  1  0
 20 18  1  0
 22 20  2  0
M  END
$$$$
