ALN.pdb
     RDKit          3D

 22 21  0  0  1  0  0  0  0  0999 V2000
    7.0465  -14.6540   20.3557 C   0  0  0  0  0  0  0  0  0  0  0  0
    7.6294  -15.6565   21.3253 C   0  0  2  0  0  0  0  0  0  0  0  0
    6.6078  -16.5677   21.7539 N   0  0  0  0  0  0  0  0  0  0  0  0
    8.1787  -14.8826   22.4815 C   0  0  0  0  0  0  0  0  0  0  0  0
    9.2327  -14.2237   22.3099 O   0  0  0  0  0  0  0  0  0  0  0  0
    5.4571  -12.0387   26.4988 C   0  0  0  0  0  0  0  0  0  0  0  0
    6.4108  -12.4295   25.3630 C   0  0  1  0  0  0  0  0  0  0  0  0
    7.2541  -11.2322   25.0744 C   0  0  0  0  0  0  0  0  0  0  0  0
    7.1656  -13.6229   25.8306 C   0  0  0  0  0  0  0  0  0  0  0  0
    8.1668  -14.1502   24.8273 C   0  0  2  0  0  0  0  0  0  0  0  0
    7.5666  -14.8613   23.7495 N   0  0  0  0  0  0  0  0  0  0  0  0
    9.0740  -15.0562   25.6091 C   0  0  0  0  0  0  0  0  0  0  0  0
    9.5551  -14.6241   26.6847 O   0  0  0  0  0  0  0  0  0  0  0  0
   11.1185  -19.7394   27.5769 N   0  0  0  0  0  0  0  0  0  0  0  0
    9.8247  -19.3277   27.1932 C   0  0  0  0  0  0  0  0  0  0  0  0
    8.8513  -19.6006   27.9090 O   0  0  0  0  0  0  0  0  0  0  0  0
    9.6691  -18.5808   25.9448 C   0  0  0  0  0  0  0  0  0  0  0  0
   10.3371  -17.2268   25.9124 C   0  0  2  0  0  0  0  0  0  0  0  0
    9.3950  -16.3648   25.1698 N   0  0  0  0  0  0  0  0  0  0  0  0
   11.5972  -17.3556   25.1282 C   0  0  0  0  0  0  0  0  0  0  0  0
   12.7582  -17.9302   25.5400 O   0  0  0  0  0  0  0  0  0  0  0  0
   11.5793  -16.8726   23.9451 O   0  0  0  0  0  0  0  0  0  0  0  0
  2  1  1  6
  3  2  1  0
  4  5  2  0
  4  2  1  0
  7  6  1  1
  7  8  1  0
  7  9  1  0
 10  9  1  1
 10 11  1  0
 10 12  1  0
 11  4  1  0
 12 19  1  0
 12 13  2  0
 15 14  1  0
 16 15  2  0
 17 15  1  0
 18 17  1  6
 19 18  1  0
 20 21  1  0
 20 18  1  0
 22 20  2  0
M  END
$$$$
