ALN.pdb
     RDKit          3D

 22 21  0  0  1  0  0  0  0  0999 V2000
    7.1782  -14.7886   20.8458 C   0  0  0  0  0  0  0  0  0  0  0  0
    7.4304  -15.8602   21.8816 C   0  0  2  0  0  0  0  0  0  0  0  0
    6.1912  -16.4841   22.2459 N   0  0  0  0  0  0  0  0  0  0  0  0
    8.0629  -15.1920   23.0611 C   0  0  0  0  0  0  0  0  0  0  0  0
    9.3036  -15.0056   23.0452 O   0  0  0  0  0  0  0  0  0  0  0  0
    5.3910  -11.6070   26.3918 C   0  0  0  0  0  0  0  0  0  0  0  0
    6.3255  -12.2973   25.3905 C   0  0  1  0  0  0  0  0  0  0  0  0
    7.1622  -11.2278   24.7709 C   0  0  0  0  0  0  0  0  0  0  0  0
    7.0895  -13.3198   26.1543 C   0  0  0  0  0  0  0  0  0  0  0  0
    7.9938  -14.1786   25.2989 C   0  0  2  0  0  0  0  0  0  0  0  0
    7.3289  -14.7647   24.1844 N   0  0  0  0  0  0  0  0  0  0  0  0
    8.5133  -15.2471   26.2174 C   0  0  0  0  0  0  0  0  0  0  0  0
    9.1471  -14.8891   27.2399 O   0  0  0  0  0  0  0  0  0  0  0  0
    7.8101  -21.2081   26.9579 N   0  0  0  0  0  0  0  0  0  0  0  0
    8.1045  -19.9732   27.5735 C   0  0  0  0  0  0  0  0  0  0  0  0
    8.6443  -19.9511   28.6882 O   0  0  0  0  0  0  0  0  0  0  0  0
    7.7588  -18.7391   26.8678 C   0  0  0  0  0  0  0  0  0  0  0  0
    8.8265  -17.6710   26.8697 C   0  0  2  0  0  0  0  0  0  0  0  0
    8.3091  -16.6261   25.9627 N   0  0  0  0  0  0  0  0  0  0  0  0
   10.0624  -18.2568   26.2792 C   0  0  0  0  0  0  0  0  0  0  0  0
   10.5522  -18.0370   25.0303 O   0  0  0  0  0  0  0  0  0  0  0  0
   10.7276  -19.0490   27.0297 O   0  0  0  0  0  0  0  0  0  0  0  0
  2  1  1  6
  3  2  1  0
  4  5  2  0
  4  2  1  0
  7  6  1  1
  7  8  1  0
  7  9  1  0
 10  9  1  1
 10 11  1  0
 10 12  1  0
 11  4  1  0
 12 19  1  0
 12 13  2  0
 15 14  1  0
 16 15  2  0
 17 15  1  0
 18 17  1  6
 19 18  1  0
 20 21  1  0
 20 18  1  0
 22 20  2  0
M  END
$$$$
