ALN.pdb
     RDKit          3D

 22 21  0  0  1  0  0  0  0  0999 V2000
    6.8520  -15.0944   20.7592 C   0  0  0  0  0  0  0  0  0  0  0  0
    7.3903  -16.0738   21.7770 C   0  0  2  0  0  0  0  0  0  0  0  0
    6.3044  -16.7867   22.3858 N   0  0  0  0  0  0  0  0  0  0  0  0
    8.1491  -15.2804   22.7929 C   0  0  0  0  0  0  0  0  0  0  0  0
    9.2778  -14.8329   22.4768 O   0  0  0  0  0  0  0  0  0  0  0  0
    5.6628  -12.2498   26.7802 C   0  0  0  0  0  0  0  0  0  0  0  0
    6.4825  -12.6969   25.5635 C   0  0  1  0  0  0  0  0  0  0  0  0
    6.9660  -11.4570   24.8877 C   0  0  0  0  0  0  0  0  0  0  0  0
    7.5596  -13.5850   26.0770 C   0  0  0  0  0  0  0  0  0  0  0  0
    8.4044  -14.2178   24.9940 C   0  0  2  0  0  0  0  0  0  0  0  0
    7.6534  -15.0148   24.0840 N   0  0  0  0  0  0  0  0  0  0  0  0
    9.4124  -15.0629   25.7186 C   0  0  0  0  0  0  0  0  0  0  0  0
   10.1395  -14.5075   26.5778 O   0  0  0  0  0  0  0  0  0  0  0  0
   10.6365  -20.8648   26.6993 N   0  0  0  0  0  0  0  0  0  0  0  0
   10.6518  -19.5494   27.2094 C   0  0  0  0  0  0  0  0  0  0  0  0
   11.3433  -19.2785   28.2007 O   0  0  0  0  0  0  0  0  0  0  0  0
    9.8396  -18.5309   26.5434 C   0  0  0  0  0  0  0  0  0  0  0  0
   10.5722  -17.2673   26.1593 C   0  0  2  0  0  0  0  0  0  0  0  0
    9.5606  -16.4485   25.4606 N   0  0  0  0  0  0  0  0  0  0  0  0
   11.6474  -17.6352   25.1960 C   0  0  0  0  0  0  0  0  0  0  0  0
   12.9368  -17.9460   25.4935 O   0  0  0  0  0  0  0  0  0  0  0  0
   11.3173  -17.6587   23.9615 O   0  0  0  0  0  0  0  0  0  0  0  0
  2  1  1  6
  3  2  1  0
  4  5  2  0
  4  2  1  0
  7  6  1  1
  7  8  1  0
  7  9  1  0
 10  9  1  1
 10 11  1  0
 10 12  1  0
 11  4  1  0
 12 19  1  0
 12 13  2  0
 15 14  1  0
 16 15  2  0
 17 15  1  0
 18 17  1  6
 19 18  1  0
 20 21  1  0
 20 18  1  0
 22 20  2  0
M  END
$$$$
