ALN.pdb
     RDKit          3D

 22 21  0  0  1  0  0  0  0  0999 V2000
    7.3250  -13.9887   20.4861 C   0  0  0  0  0  0  0  0  0  0  0  0
    7.5432  -15.2153   21.3420 C   0  0  2  0  0  0  0  0  0  0  0  0
    6.2783  -15.7976   21.6869 N   0  0  0  0  0  0  0  0  0  0  0  0
    8.2825  -14.7730   22.5648 C   0  0  0  0  0  0  0  0  0  0  0  0
    9.4892  -14.4501   22.4466 O   0  0  0  0  0  0  0  0  0  0  0  0
    5.7365  -12.3142   26.8691 C   0  0  0  0  0  0  0  0  0  0  0  0
    6.6644  -12.5842   25.6781 C   0  0  1  0  0  0  0  0  0  0  0  0
    7.3695  -11.3030   25.3794 C   0  0  0  0  0  0  0  0  0  0  0  0
    7.5562  -13.7058   26.0773 C   0  0  0  0  0  0  0  0  0  0  0  0
    8.4271  -14.2285   24.9569 C   0  0  2  0  0  0  0  0  0  0  0  0
    7.6852  -14.7034   23.8382 N   0  0  0  0  0  0  0  0  0  0  0  0
    9.2283  -15.3446   25.5633 C   0  0  0  0  0  0  0  0  0  0  0  0
    9.8038  -15.1305   26.6580 O   0  0  0  0  0  0  0  0  0  0  0  0
    9.7506  -21.3316   25.2927 N   0  0  0  0  0  0  0  0  0  0  0  0
   10.5025  -20.1464   25.1486 C   0  0  0  0  0  0  0  0  0  0  0  0
   11.7227  -20.1585   25.3612 O   0  0  0  0  0  0  0  0  0  0  0  0
    9.8093  -18.9221   24.7469 C   0  0  0  0  0  0  0  0  0  0  0  0
   10.2112  -17.6744   25.4969 C   0  0  2  0  0  0  0  0  0  0  0  0
    9.3488  -16.6120   24.9408 N   0  0  0  0  0  0  0  0  0  0  0  0
   11.6305  -17.3731   25.1588 C   0  0  0  0  0  0  0  0  0  0  0  0
   12.1065  -16.9225   23.9679 O   0  0  0  0  0  0  0  0  0  0  0  0
   12.4860  -17.5604   26.0895 O   0  0  0  0  0  0  0  0  0  0  0  0
  2  1  1  6
  3  2  1  0
  4  5  2  0
  4  2  1  0
  7  6  1  1
  7  8  1  0
  7  9  1  0
 10  9  1  1
 10 11  1  0
 10 12  1  0
 11  4  1  0
 12 19  1  0
 12 13  2  0
 15 14  1  0
 16 15  2  0
 17 15  1  0
 18 17  1  6
 19 18  1  0
 20 21  1  0
 20 18  1  0
 22 20  2  0
M  END
$$$$
