ALN.pdb
     RDKit          3D

 22 21  0  0  1  0  0  0  0  0999 V2000
    7.7777  -13.3908   20.2297 C   0  0  0  0  0  0  0  0  0  0  0  0
    7.6123  -14.7499   20.8704 C   0  0  2  0  0  0  0  0  0  0  0  0
    6.2175  -15.0604   20.9963 N   0  0  0  0  0  0  0  0  0  0  0  0
    8.2722  -14.6876   22.2113 C   0  0  0  0  0  0  0  0  0  0  0  0
    9.5234  -14.6059   22.2559 O   0  0  0  0  0  0  0  0  0  0  0  0
    6.0375  -12.1706   26.6352 C   0  0  0  0  0  0  0  0  0  0  0  0
    7.0708  -12.5488   25.5667 C   0  0  1  0  0  0  0  0  0  0  0  0
    8.2364  -11.6343   25.7488 C   0  0  0  0  0  0  0  0  0  0  0  0
    7.3769  -13.9915   25.7602 C   0  0  0  0  0  0  0  0  0  0  0  0
    8.2321  -14.5914   24.6667 C   0  0  2  0  0  0  0  0  0  0  0  0
    7.5527  -14.7164   23.4216 N   0  0  0  0  0  0  0  0  0  0  0  0
    8.6393  -15.9439   25.1769 C   0  0  0  0  0  0  0  0  0  0  0  0
    7.7381  -16.7933   25.3807 O   0  0  0  0  0  0  0  0  0  0  0  0
   11.1857  -18.1294   23.1566 N   0  0  0  0  0  0  0  0  0  0  0  0
   12.1930  -17.7495   24.0685 C   0  0  0  0  0  0  0  0  0  0  0  0
   13.3226  -17.4545   23.6545 O   0  0  0  0  0  0  0  0  0  0  0  0
   11.8693  -17.7148   25.4949 C   0  0  0  0  0  0  0  0  0  0  0  0
   10.3970  -17.6442   25.8235 C   0  0  2  0  0  0  0  0  0  0  0  0
    9.9928  -16.2791   25.4296 N   0  0  0  0  0  0  0  0  0  0  0  0
   10.2489  -17.7866   27.2990 C   0  0  0  0  0  0  0  0  0  0  0  0
   10.1263  -18.9463   27.9976 O   0  0  0  0  0  0  0  0  0  0  0  0
   10.2357  -16.7014   27.9738 O   0  0  0  0  0  0  0  0  0  0  0  0
  2  1  1  1
  3  2  1  0
  4  5  2  0
  4  2  1  0
  7  6  1  1
  7  8  1  0
  7  9  1  0
 10  9  1  1
 10 11  1  0
 10 12  1  0
 11  4  1  0
 12 19  1  0
 12 13  2  0
 15 14  1  0
 16 15  2  0
 17 15  1  0
 18 17  1  1
 19 18  1  0
 20 21  1  0
 20 18  1  0
 22 20  2  0
M  END
$$$$
