ALN.pdb
     RDKit          3D

 22 21  0  0  1  0  0  0  0  0999 V2000
   10.2349  -17.5738   16.5532 C   0  0  0  0  0  0  0  0  0  0  0  0
    9.8010  -18.1444   17.8840 C   0  0  2  0  0  0  0  0  0  0  0  0
    8.4042  -18.4685   17.8407 N   0  0  0  0  0  0  0  0  0  0  0  0
   10.0793  -17.1032   18.9212 C   0  0  0  0  0  0  0  0  0  0  0  0
   11.2734  -16.7880   19.1428 O   0  0  0  0  0  0  0  0  0  0  0  0
    6.4832  -13.0646   20.2217 C   0  0  0  0  0  0  0  0  0  0  0  0
    7.7709  -13.7729   19.7828 C   0  0  1  0  0  0  0  0  0  0  0  0
    8.7066  -12.7129   19.3044 C   0  0  0  0  0  0  0  0  0  0  0  0
    8.2554  -14.5453   20.9580 C   0  0  0  0  0  0  0  0  0  0  0  0
    9.3915  -15.4932   20.6458 C   0  0  2  0  0  0  0  0  0  0  0  0
    9.0630  -16.4636   19.6569 N   0  0  0  0  0  0  0  0  0  0  0  0
    9.7180  -16.1657   21.9483 C   0  0  0  0  0  0  0  0  0  0  0  0
    8.8902  -16.9875   22.4117 O   0  0  0  0  0  0  0  0  0  0  0  0
   10.2210  -19.3048   24.0997 N   0  0  0  0  0  0  0  0  0  0  0  0
   11.1994  -19.2940   23.0832 C   0  0  0  0  0  0  0  0  0  0  0  0
   11.4456  -20.3303   22.4509 O   0  0  0  0  0  0  0  0  0  0  0  0
   11.9036  -18.0427   22.8025 C   0  0  0  0  0  0  0  0  0  0  0  0
   11.4737  -16.8569   23.6331 C   0  0  2  0  0  0  0  0  0  0  0  0
   10.9171  -15.8998   22.6553 N   0  0  0  0  0  0  0  0  0  0  0  0
   12.6924  -16.2641   24.2517 C   0  0  0  0  0  0  0  0  0  0  0  0
   13.1161  -16.4246   25.5333 O   0  0  0  0  0  0  0  0  0  0  0  0
   13.4107  -15.5276   23.4935 O   0  0  0  0  0  0  0  0  0  0  0  0
  2  1  1  6
  3  2  1  0
  4  5  2  0
  4  2  1  0
  7  6  1  1
  7  8  1  0
  7  9  1  0
 10  9  1  1
 10 11  1  0
 10 12  1  0
 11  4  1  0
 12 19  1  0
 12 13  2  0
 15 14  1  0
 16 15  2  0
 17 15  1  0
 18 17  1  6
 19 18  1  0
 20 21  1  0
 20 18  1  0
 22 20  2  0
M  END
$$$$
