ALN.pdb
     RDKit          3D

 22 21  0  0  1  0  0  0  0  0999 V2000
   10.1078  -19.4490   19.4307 C   0  0  0  0  0  0  0  0  0  0  0  0
    9.9291  -18.2559   18.5200 C   0  0  2  0  0  0  0  0  0  0  0  0
   10.8078  -18.3707   17.3920 N   0  0  0  0  0  0  0  0  0  0  0  0
   10.2453  -17.0359   19.3257 C   0  0  0  0  0  0  0  0  0  0  0  0
   11.4403  -16.6586   19.3905 O   0  0  0  0  0  0  0  0  0  0  0  0
    6.4100  -13.1531   20.6499 C   0  0  0  0  0  0  0  0  0  0  0  0
    7.6775  -13.7886   20.0653 C   0  0  1  0  0  0  0  0  0  0  0  0
    8.3659  -12.7294   19.2703 C   0  0  0  0  0  0  0  0  0  0  0  0
    8.4628  -14.3113   21.2154 C   0  0  0  0  0  0  0  0  0  0  0  0
    9.6344  -15.1804   20.8167 C   0  0  2  0  0  0  0  0  0  0  0  0
    9.2639  -16.2951   20.0120 N   0  0  0  0  0  0  0  0  0  0  0  0
   10.2406  -15.6482   22.1087 C   0  0  0  0  0  0  0  0  0  0  0  0
   10.6302  -14.7793   22.9262 O   0  0  0  0  0  0  0  0  0  0  0  0
   10.7650  -20.8060   25.3245 N   0  0  0  0  0  0  0  0  0  0  0  0
   10.9292  -19.4080   25.2283 C   0  0  0  0  0  0  0  0  0  0  0  0
   11.5459  -18.7956   26.1109 O   0  0  0  0  0  0  0  0  0  0  0  0
   10.3586  -18.7138   24.0737 C   0  0  0  0  0  0  0  0  0  0  0  0
   11.1027  -17.4773   23.6285 C   0  0  2  0  0  0  0  0  0  0  0  0
   10.3812  -17.0231   22.4222 N   0  0  0  0  0  0  0  0  0  0  0  0
   12.4824  -17.8861   23.2429 C   0  0  0  0  0  0  0  0  0  0  0  0
   13.6359  -17.5741   23.8909 O   0  0  0  0  0  0  0  0  0  0  0  0
   12.5865  -18.6047   22.1912 O   0  0  0  0  0  0  0  0  0  0  0  0
  2  1  1  1
  3  2  1  0
  4  5  2  0
  4  2  1  0
  7  6  1  1
  7  8  1  0
  7  9  1  0
 10  9  1  1
 10 11  1  0
 10 12  1  0
 11  4  1  0
 12 19  1  0
 12 13  2  0
 15 14  1  0
 16 15  2  0
 17 15  1  0
 18 17  1  6
 19 18  1  0
 20 21  1  0
 20 18  1  0
 22 20  2  0
M  END
$$$$
