ALN.pdb
     RDKit          3D

 22 21  0  0  1  0  0  0  0  0999 V2000
    7.4480  -14.5714   20.7801 C   0  0  0  0  0  0  0  0  0  0  0  0
    7.8761  -15.7441   21.6324 C   0  0  2  0  0  0  0  0  0  0  0  0
    6.7203  -16.4669   22.0791 N   0  0  0  0  0  0  0  0  0  0  0  0
    8.6439  -15.1897   22.7902 C   0  0  0  0  0  0  0  0  0  0  0  0
    9.7820  -14.7079   22.5739 O   0  0  0  0  0  0  0  0  0  0  0  0
    6.0787  -12.7005   26.7815 C   0  0  0  0  0  0  0  0  0  0  0  0
    7.0263  -13.0536   25.6284 C   0  0  1  0  0  0  0  0  0  0  0  0
    7.5011  -11.7633   25.0474 C   0  0  0  0  0  0  0  0  0  0  0  0
    8.0993  -13.9082   26.2037 C   0  0  0  0  0  0  0  0  0  0  0  0
    8.9241  -14.6406   25.1692 C   0  0  2  0  0  0  0  0  0  0  0  0
    8.1466  -15.1849   24.1077 N   0  0  0  0  0  0  0  0  0  0  0  0
    9.6217  -15.7379   25.9207 C   0  0  0  0  0  0  0  0  0  0  0  0
   10.4066  -15.4135   26.8447 O   0  0  0  0  0  0  0  0  0  0  0  0
   12.5169  -17.6348   23.1496 N   0  0  0  0  0  0  0  0  0  0  0  0
   12.4351  -18.2404   24.4212 C   0  0  0  0  0  0  0  0  0  0  0  0
   12.9444  -19.3537   24.6098 O   0  0  0  0  0  0  0  0  0  0  0  0
   11.7421  -17.5261   25.4936 C   0  0  0  0  0  0  0  0  0  0  0  0
   10.4323  -18.1340   25.9359 C   0  0  2  0  0  0  0  0  0  0  0  0
    9.4192  -17.1074   25.6174 N   0  0  0  0  0  0  0  0  0  0  0  0
   10.4877  -18.3182   27.4132 C   0  0  0  0  0  0  0  0  0  0  0  0
   10.8617  -17.3932   28.3364 O   0  0  0  0  0  0  0  0  0  0  0  0
   10.1476  -19.4689   27.8532 O   0  0  0  0  0  0  0  0  0  0  0  0
  2  1  1  6
  3  2  1  0
  4  5  2  0
  4  2  1  0
  7  6  1  1
  7  8  1  0
  7  9  1  0
 10  9  1  1
 10 11  1  0
 10 12  1  0
 11  4  1  0
 12 19  1  0
 12 13  2  0
 15 14  1  0
 16 15  2  0
 17 15  1  0
 18 17  1  1
 19 18  1  0
 20 21  1  0
 20 18  1  0
 22 20  2  0
M  END
$$$$
