ALN.pdb
     RDKit          3D

 22 21  0  0  1  0  0  0  0  0999 V2000
    6.8844  -16.3018   20.3746 C   0  0  0  0  0  0  0  0  0  0  0  0
    7.1379  -14.8380   20.6539 C   0  0  2  0  0  0  0  0  0  0  0  0
    8.0895  -14.3221   19.7125 N   0  0  0  0  0  0  0  0  0  0  0  0
    7.6587  -14.7404   22.0527 C   0  0  0  0  0  0  0  0  0  0  0  0
    8.8356  -15.1131   22.2771 O   0  0  0  0  0  0  0  0  0  0  0  0
    5.8432  -11.4223   26.5817 C   0  0  0  0  0  0  0  0  0  0  0  0
    6.9198  -12.0002   25.6547 C   0  0  1  0  0  0  0  0  0  0  0  0
    8.2319  -11.8008   26.3378 C   0  0  0  0  0  0  0  0  0  0  0  0
    6.5557  -13.4218   25.4114 C   0  0  0  0  0  0  0  0  0  0  0  0
    7.4577  -14.1280   24.4242 C   0  0  2  0  0  0  0  0  0  0  0  0
    6.8884  -14.2503   23.1248 N   0  0  0  0  0  0  0  0  0  0  0  0
    7.7072  -15.4862   25.0144 C   0  0  0  0  0  0  0  0  0  0  0  0
    6.8491  -16.3810   24.8190 O   0  0  0  0  0  0  0  0  0  0  0  0
   11.7720  -18.9624   23.8221 N   0  0  0  0  0  0  0  0  0  0  0  0
   10.5064  -18.8418   24.4341 C   0  0  0  0  0  0  0  0  0  0  0  0
    9.9265  -19.8503   24.8594 O   0  0  0  0  0  0  0  0  0  0  0  0
    9.9086  -17.5114   24.5498 C   0  0  0  0  0  0  0  0  0  0  0  0
    9.3782  -17.1563   25.9184 C   0  0  2  0  0  0  0  0  0  0  0  0
    8.8679  -15.7777   25.7735 N   0  0  0  0  0  0  0  0  0  0  0  0
   10.5261  -17.1507   26.8680 C   0  0  0  0  0  0  0  0  0  0  0  0
   10.7854  -18.0665   27.8385 O   0  0  0  0  0  0  0  0  0  0  0  0
   11.3500  -16.1803   26.7542 O   0  0  0  0  0  0  0  0  0  0  0  0
  2  1  1  6
  3  2  1  0
  4  5  2  0
  4  2  1  0
  7  6  1  1
  7  8  1  0
  7  9  1  0
 10  9  1  1
 10 11  1  0
 10 12  1  0
 11  4  1  0
 12 19  1  0
 12 13  2  0
 15 14  1  0
 16 15  2  0
 17 15  1  0
 18 17  1  6
 19 18  1  0
 20 21  1  0
 20 18  1  0
 22 20  2  0
M  END
$$$$
