ALN.pdb
     RDKit          3D

 22 21  0  0  1  0  0  0  0  0999 V2000
    9.0729  -14.8788   19.9097 C   0  0  0  0  0  0  0  0  0  0  0  0
    8.9262  -15.9239   20.9920 C   0  0  2  0  0  0  0  0  0  0  0  0
    7.6507  -16.5695   20.8734 N   0  0  0  0  0  0  0  0  0  0  0  0
    9.0515  -15.2184   22.3050 C   0  0  0  0  0  0  0  0  0  0  0  0
   10.1837  -14.8036   22.6522 O   0  0  0  0  0  0  0  0  0  0  0  0
    7.8072  -11.5786   25.8071 C   0  0  0  0  0  0  0  0  0  0  0  0
    7.0276  -12.8570   26.1393 C   0  0  1  0  0  0  0  0  0  0  0  0
    5.7478  -12.4302   26.7779 C   0  0  0  0  0  0  0  0  0  0  0  0
    6.8664  -13.6029   24.8625 C   0  0  0  0  0  0  0  0  0  0  0  0
    8.1304  -14.2790   24.3807 C   0  0  2  0  0  0  0  0  0  0  0  0
    7.9581  -15.0003   23.1652 N   0  0  0  0  0  0  0  0  0  0  0  0
    8.5300  -15.2112   25.4883 C   0  0  0  0  0  0  0  0  0  0  0  0
    8.8531  -14.7106   26.5929 O   0  0  0  0  0  0  0  0  0  0  0  0
    6.5723  -19.2614   24.4072 N   0  0  0  0  0  0  0  0  0  0  0  0
    6.9840  -18.9084   25.7097 C   0  0  0  0  0  0  0  0  0  0  0  0
    6.1385  -18.6347   26.5726 O   0  0  0  0  0  0  0  0  0  0  0  0
    8.4163  -18.8758   26.0066 C   0  0  0  0  0  0  0  0  0  0  0  0
    8.9640  -17.5271   26.4086 C   0  0  2  0  0  0  0  0  0  0  0  0
    8.5509  -16.6182   25.3199 N   0  0  0  0  0  0  0  0  0  0  0  0
   10.4507  -17.6215   26.4233 C   0  0  0  0  0  0  0  0  0  0  0  0
   11.2926  -17.3846   25.3827 O   0  0  0  0  0  0  0  0  0  0  0  0
   10.9851  -17.9621   27.5331 O   0  0  0  0  0  0  0  0  0  0  0  0
  2  1  1  6
  3  2  1  0
  4  5  2  0
  4  2  1  0
  7  6  1  6
  7  8  1  0
  7  9  1  0
 10  9  1  1
 10 11  1  0
 10 12  1  0
 11  4  1  0
 12 19  1  0
 12 13  2  0
 15 14  1  0
 16 15  2  0
 17 15  1  0
 18 17  1  6
 19 18  1  0
 20 21  1  0
 20 18  1  0
 22 20  2  0
M  END
$$$$
