ALN.pdb
     RDKit          3D

 22 21  0  0  1  0  0  0  0  0999 V2000
    7.7032  -13.3449   20.3371 C   0  0  0  0  0  0  0  0  0  0  0  0
    8.1603  -14.6192   21.0096 C   0  0  2  0  0  0  0  0  0  0  0  0
    7.0890  -15.5731   21.0210 N   0  0  0  0  0  0  0  0  0  0  0  0
    8.5737  -14.2587   22.4012 C   0  0  0  0  0  0  0  0  0  0  0  0
    9.6397  -13.6156   22.5578 O   0  0  0  0  0  0  0  0  0  0  0  0
    5.6195  -12.4261   26.6829 C   0  0  0  0  0  0  0  0  0  0  0  0
    6.7586  -12.6013   25.6708 C   0  0  1  0  0  0  0  0  0  0  0  0
    7.7503  -11.5197   25.9436 C   0  0  0  0  0  0  0  0  0  0  0  0
    7.2806  -13.9826   25.8502 C   0  0  0  0  0  0  0  0  0  0  0  0
    8.3395  -14.3759   24.8447 C   0  0  2  0  0  0  0  0  0  0  0  0
    7.8213  -14.6083   23.5390 N   0  0  0  0  0  0  0  0  0  0  0  0
    8.9602  -15.6298   25.3905 C   0  0  0  0  0  0  0  0  0  0  0  0
    9.4076  -15.6046   26.5629 O   0  0  0  0  0  0  0  0  0  0  0  0
    9.7233  -18.7993   21.4801 N   0  0  0  0  0  0  0  0  0  0  0  0
    9.5380  -19.0892   22.8484 C   0  0  0  0  0  0  0  0  0  0  0  0
    8.5957  -19.8093   23.2059 O   0  0  0  0  0  0  0  0  0  0  0  0
   10.4769  -18.5232   23.8173 C   0  0  0  0  0  0  0  0  0  0  0  0
    9.8539  -17.9757   25.0794 C   0  0  2  0  0  0  0  0  0  0  0  0
    9.0518  -16.8205   24.6275 N   0  0  0  0  0  0  0  0  0  0  0  0
   10.9527  -17.4882   25.9593 C   0  0  0  0  0  0  0  0  0  0  0  0
   11.7874  -16.4428   25.7176 O   0  0  0  0  0  0  0  0  0  0  0  0
   11.1248  -18.1237   27.0546 O   0  0  0  0  0  0  0  0  0  0  0  0
  2  1  1  1
  3  2  1  0
  4  5  2  0
  4  2  1  0
  7  6  1  1
  7  8  1  0
  7  9  1  0
 10  9  1  1
 10 11  1  0
 10 12  1  0
 11  4  1  0
 12 19  1  0
 12 13  2  0
 15 14  1  0
 16 15  2  0
 17 15  1  0
 18 17  1  6
 19 18  1  0
 20 21  1  0
 20 18  1  0
 22 20  2  0
M  END
$$$$
