ALN.pdb
     RDKit          3D

 22 21  0  0  1  0  0  0  0  0999 V2000
    6.4168  -16.9365   21.3586 C   0  0  0  0  0  0  0  0  0  0  0  0
    6.7991  -15.4740   21.3709 C   0  0  2  0  0  0  0  0  0  0  0  0
    7.4966  -15.1447   20.1614 N   0  0  0  0  0  0  0  0  0  0  0  0
    7.6680  -15.2563   22.5688 C   0  0  0  0  0  0  0  0  0  0  0  0
    8.9072  -15.4060   22.4405 O   0  0  0  0  0  0  0  0  0  0  0  0
    6.0129  -12.1645   26.9881 C   0  0  0  0  0  0  0  0  0  0  0  0
    6.7936  -12.6294   25.7525 C   0  0  1  0  0  0  0  0  0  0  0  0
    7.7980  -11.5675   25.4501 C   0  0  0  0  0  0  0  0  0  0  0  0
    7.3748  -13.9567   26.0889 C   0  0  0  0  0  0  0  0  0  0  0  0
    8.0394  -14.6514   24.9216 C   0  0  2  0  0  0  0  0  0  0  0  0
    7.1577  -14.8917   23.8297 N   0  0  0  0  0  0  0  0  0  0  0  0
    8.5540  -15.9504   25.4722 C   0  0  0  0  0  0  0  0  0  0  0  0
    7.7216  -16.8552   25.7246 O   0  0  0  0  0  0  0  0  0  0  0  0
   12.5380  -16.9327   23.3769 N   0  0  0  0  0  0  0  0  0  0  0  0
   11.7817  -17.8201   24.1713 C   0  0  0  0  0  0  0  0  0  0  0  0
   11.1319  -18.7287   23.6360 O   0  0  0  0  0  0  0  0  0  0  0  0
   11.7875  -17.6385   25.6230 C   0  0  0  0  0  0  0  0  0  0  0  0
   10.4298  -17.4544   26.2583 C   0  0  2  0  0  0  0  0  0  0  0  0
    9.9327  -16.1760   25.7100 N   0  0  0  0  0  0  0  0  0  0  0  0
   10.6270  -17.3075   27.7276 C   0  0  0  0  0  0  0  0  0  0  0  0
   10.8107  -16.1483   28.4134 O   0  0  0  0  0  0  0  0  0  0  0  0
   10.6228  -18.3881   28.4100 O   0  0  0  0  0  0  0  0  0  0  0  0
  2  1  1  6
  3  2  1  0
  4  5  2  0
  4  2  1  0
  7  6  1  1
  7  8  1  0
  7  9  1  0
 10  9  1  1
 10 11  1  0
 10 12  1  0
 11  4  1  0
 12 19  1  0
 12 13  2  0
 15 14  1  0
 16 15  2  0
 17 15  1  0
 18 17  1  6
 19 18  1  0
 20 21  1  0
 20 18  1  0
 22 20  2  0
M  END
$$$$
