CWS.pdb
     RDKit          3D

 27 28  0  0  1  0  0  0  0  0999 V2000
   27.3068  -21.6909  -15.7761 N   0  0  0  0  0  0  0  0  0  0  0  0
   26.0367  -21.6146  -16.4267 C   0  0  1  0  0  0  0  0  0  0  0  0
   25.8475  -22.6009  -17.5425 C   0  0  0  0  0  0  0  0  0  0  0  0
   27.3760  -23.5073  -17.8550 S   0  0  0  0  0  0  0  0  0  0  0  0
   24.9677  -21.7517  -15.3950 C   0  0  0  0  0  0  0  0  0  0  0  0
   24.9816  -22.6939  -14.5487 O   0  0  0  0  0  0  0  0  0  0  0  0
   23.9032  -20.8395  -15.3228 N   0  0  0  0  0  0  0  0  0  0  0  0
   22.8666  -20.9313  -14.2919 C   0  0  1  0  0  0  0  0  0  0  0  0
   22.4123  -19.5154  -14.0801 C   0  0  0  0  0  0  0  0  0  0  0  0
   21.4202  -19.2911  -13.0390 C   0  0  0  0  0  0  0  0  0  0  0  0
   21.3597  -19.9579  -11.8079 C   0  0  0  0  0  0  0  0  0  0  0  0
   20.3115  -19.4817  -11.1203 N   0  0  0  0  0  0  0  0  0  0  0  0
   19.7007  -18.5329  -11.8710 C   0  0  0  0  0  0  0  0  0  0  0  0
   18.6076  -17.7285  -11.6236 C   0  0  0  0  0  0  0  0  0  0  0  0
   18.1679  -16.7956  -12.5347 C   0  0  0  0  0  0  0  0  0  0  0  0
   18.8521  -16.6698  -13.7358 C   0  0  0  0  0  0  0  0  0  0  0  0
   19.9462  -17.4623  -14.0056 C   0  0  0  0  0  0  0  0  0  0  0  0
   20.3726  -18.3982  -13.0686 C   0  0  0  0  0  0  0  0  0  0  0  0
   21.8001  -21.8339  -14.6445 C   0  0  0  0  0  0  0  0  0  0  0  0
   21.4609  -21.9133  -15.8777 O   0  0  0  0  0  0  0  0  0  0  0  0
   19.6708  -24.3379  -12.0291 O   0  0  0  0  0  0  0  0  0  0  0  0
   19.8090  -24.7391  -13.3558 C   0  0  0  0  0  0  0  0  0  0  0  0
   19.9503  -23.4979  -14.2609 C   0  0  2  0  0  0  0  0  0  0  0  0
   21.0557  -22.6845  -13.7820 N   0  0  0  0  0  0  0  0  0  0  0  0
   18.7087  -22.7153  -14.2358 C   0  0  0  0  0  0  0  0  0  0  0  0
   18.7197  -21.5588  -13.7495 O   0  0  0  0  0  0  0  0  0  0  0  0
   17.4968  -23.1855  -14.7274 O   0  0  0  0  0  0  0  0  0  0  0  0
  2  1  1  1
  2  3  1  0
  4  3  1  0
  5  2  1  0
  6  5  2  0
  7  5  1  0
  8  7  1  0
  9 10  1  0
  8  9  1  6
 10 18  1  0
 11 10  2  0
 11 12  1  0
 12 13  1  0
 13 14  1  0
 14 15  2  0
 16 15  1  0
 17 16  2  0
 18 13  2  0
 18 17  1  0
 19 24  1  0
 19  8  1  0
 20 19  2  0
 21 22  1  0
 23 22  1  1
 23 24  1  0
 25 23  1  0
 26 25  2  0
 27 25  1  0
M  END
$$$$
