CWS.pdb
     RDKit          3D

 27 28  0  0  1  0  0  0  0  0999 V2000
   29.0487  -21.1468  -14.4974 N   0  0  0  0  0  0  0  0  0  0  0  0
   28.5619  -20.2573  -13.4904 C   0  0  1  0  0  0  0  0  0  0  0  0
   27.9321  -19.0015  -14.0194 C   0  0  0  0  0  0  0  0  0  0  0  0
   29.1821  -17.9204  -14.7434 S   0  0  0  0  0  0  0  0  0  0  0  0
   27.6185  -21.0083  -12.6118 C   0  0  0  0  0  0  0  0  0  0  0  0
   26.8006  -21.8510  -13.0864 O   0  0  0  0  0  0  0  0  0  0  0  0
   27.6013  -20.8092  -11.2224 N   0  0  0  0  0  0  0  0  0  0  0  0
   26.5210  -21.3198  -10.3751 C   0  0  1  0  0  0  0  0  0  0  0  0
   27.1746  -21.6041   -9.0529 C   0  0  0  0  0  0  0  0  0  0  0  0
   27.2689  -20.4963   -8.1135 C   0  0  0  0  0  0  0  0  0  0  0  0
   26.6487  -19.2476   -8.2546 C   0  0  0  0  0  0  0  0  0  0  0  0
   26.9695  -18.4939   -7.1929 N   0  0  0  0  0  0  0  0  0  0  0  0
   27.7737  -19.2196   -6.3784 C   0  0  0  0  0  0  0  0  0  0  0  0
   28.3554  -18.9258   -5.1623 C   0  0  0  0  0  0  0  0  0  0  0  0
   29.1284  -19.8404   -4.4842 C   0  0  0  0  0  0  0  0  0  0  0  0
   29.3224  -21.0925   -5.0509 C   0  0  0  0  0  0  0  0  0  0  0  0
   28.7523  -21.4087   -6.2645 C   0  0  0  0  0  0  0  0  0  0  0  0
   27.9740  -20.4677   -6.9313 C   0  0  0  0  0  0  0  0  0  0  0  0
   25.4018  -20.4167  -10.2843 C   0  0  0  0  0  0  0  0  0  0  0  0
   25.6367  -19.1582  -10.3424 O   0  0  0  0  0  0  0  0  0  0  0  0
   22.5397  -20.9857  -13.4808 O   0  0  0  0  0  0  0  0  0  0  0  0
   23.4749  -21.2190  -12.4752 C   0  0  0  0  0  0  0  0  0  0  0  0
   23.0544  -20.4726  -11.1924 C   0  0  2  0  0  0  0  0  0  0  0  0
   24.0252  -20.7442  -10.1451 N   0  0  0  0  0  0  0  0  0  0  0  0
   21.7231  -20.9203  -10.7655 C   0  0  0  0  0  0  0  0  0  0  0  0
   21.6044  -22.0188  -10.1711 O   0  0  0  0  0  0  0  0  0  0  0  0
   20.5623  -20.1879  -10.9835 O   0  0  0  0  0  0  0  0  0  0  0  0
  2  1  1  6
  2  3  1  0
  4  3  1  0
  5  2  1  0
  6  5  2  0
  7  5  1  0
  8  7  1  0
  9 10  1  0
  8  9  1  1
 10 18  1  0
 11 10  2  0
 11 12  1  0
 12 13  1  0
 13 14  1  0
 14 15  2  0
 16 15  1  0
 17 16  2  0
 18 13  2  0
 18 17  1  0
 19 24  1  0
 19  8  1  0
 20 19  2  0
 21 22  1  0
 23 22  1  6
 23 24  1  0
 25 23  1  0
 26 25  2  0
 27 25  1  0
M  END
$$$$
