CWS.pdb
     RDKit          3D

 27 28  0  0  1  0  0  0  0  0999 V2000
   20.8973  -20.8910  -11.9127 N   0  0  0  0  0  0  0  0  0  0  0  0
   21.9009  -21.6172  -12.6253 C   0  0  1  0  0  0  0  0  0  0  0  0
   21.4979  -22.0459  -14.0063 C   0  0  0  0  0  0  0  0  0  0  0  0
   20.7356  -23.6808  -13.9668 S   0  0  0  0  0  0  0  0  0  0  0  0
   23.1471  -20.7975  -12.6541 C   0  0  0  0  0  0  0  0  0  0  0  0
   23.1127  -19.5478  -12.8578 O   0  0  0  0  0  0  0  0  0  0  0  0
   24.4082  -21.3813  -12.4563 N   0  0  0  0  0  0  0  0  0  0  0  0
   25.6444  -20.5960  -12.4881 C   0  0  1  0  0  0  0  0  0  0  0  0
   26.5718  -21.3052  -11.5431 C   0  0  0  0  0  0  0  0  0  0  0  0
   26.6000  -20.8297  -10.1677 C   0  0  0  0  0  0  0  0  0  0  0  0
   25.5041  -20.3305   -9.4510 C   0  0  0  0  0  0  0  0  0  0  0  0
   25.9210  -19.9935   -8.2218 N   0  0  0  0  0  0  0  0  0  0  0  0
   27.2464  -20.2611   -8.1295 C   0  0  0  0  0  0  0  0  0  0  0  0
   28.1410  -20.1240   -7.0882 C   0  0  0  0  0  0  0  0  0  0  0  0
   29.4618  -20.4908   -7.2089 C   0  0  0  0  0  0  0  0  0  0  0  0
   29.8959  -21.0125   -8.4197 C   0  0  0  0  0  0  0  0  0  0  0  0
   29.0212  -21.1585   -9.4740 C   0  0  0  0  0  0  0  0  0  0  0  0
   27.6900  -20.7811   -9.3280 C   0  0  0  0  0  0  0  0  0  0  0  0
   26.1798  -20.4425  -13.8171 C   0  0  0  0  0  0  0  0  0  0  0  0
   26.2945  -21.4906  -14.5454 O   0  0  0  0  0  0  0  0  0  0  0  0
   28.1022  -17.1201  -15.3103 O   0  0  0  0  0  0  0  0  0  0  0  0
   27.3052  -17.7573  -16.2584 C   0  0  0  0  0  0  0  0  0  0  0  0
   27.0625  -19.2202  -15.8332 C   0  0  2  0  0  0  0  0  0  0  0  0
   26.6023  -19.2439  -14.4546 N   0  0  0  0  0  0  0  0  0  0  0  0
   28.3058  -19.9908  -15.9565 C   0  0  0  0  0  0  0  0  0  0  0  0
   28.9005  -20.3698  -14.9187 O   0  0  0  0  0  0  0  0  0  0  0  0
   28.8769  -20.3335  -17.1762 O   0  0  0  0  0  0  0  0  0  0  0  0
  2  1  1  6
  2  3  1  0
  4  3  1  0
  5  2  1  0
  6  5  2  0
  7  5  1  0
  8  7  1  0
  9 10  1  0
  8  9  1  1
 10 18  1  0
 11 10  2  0
 11 12  1  0
 12 13  1  0
 13 14  1  0
 14 15  2  0
 16 15  1  0
 17 16  2  0
 18 13  2  0
 18 17  1  0
 19 24  1  0
 19  8  1  0
 20 19  2  0
 21 22  1  0
 23 22  1  1
 23 24  1  0
 25 23  1  0
 26 25  2  0
 27 25  1  0
M  END
$$$$
