CWS.pdb
     RDKit          3D

 27 28  0  0  1  0  0  0  0  0999 V2000
   22.3017  -17.0820  -15.9784 N   0  0  0  0  0  0  0  0  0  0  0  0
   22.3051  -18.2851  -15.2073 C   0  0  1  0  0  0  0  0  0  0  0  0
   21.4450  -19.3835  -15.7618 C   0  0  0  0  0  0  0  0  0  0  0  0
   19.7689  -19.2717  -15.1032 S   0  0  0  0  0  0  0  0  0  0  0  0
   23.7175  -18.7351  -15.0390 C   0  0  0  0  0  0  0  0  0  0  0  0
   24.5898  -18.5259  -15.9332 O   0  0  0  0  0  0  0  0  0  0  0  0
   24.1345  -19.4094  -13.8806 N   0  0  0  0  0  0  0  0  0  0  0  0
   25.5003  -19.9144  -13.7216 C   0  0  1  0  0  0  0  0  0  0  0  0
   25.6169  -20.2472  -12.2616 C   0  0  0  0  0  0  0  0  0  0  0  0
   26.9553  -20.5020  -11.7494 C   0  0  0  0  0  0  0  0  0  0  0  0
   28.1244  -20.5847  -12.5176 C   0  0  0  0  0  0  0  0  0  0  0  0
   29.1543  -20.8307  -11.6949 N   0  0  0  0  0  0  0  0  0  0  0  0
   28.6821  -20.9076  -10.4268 C   0  0  0  0  0  0  0  0  0  0  0  0
   29.3184  -21.1159   -9.2205 C   0  0  0  0  0  0  0  0  0  0  0  0
   28.6328  -21.1287   -8.0274 C   0  0  0  0  0  0  0  0  0  0  0  0
   27.2599  -20.9259   -8.0508 C   0  0  0  0  0  0  0  0  0  0  0  0
   26.6024  -20.7164   -9.2432 C   0  0  0  0  0  0  0  0  0  0  0  0
   27.3171  -20.7070  -10.4368 C   0  0  0  0  0  0  0  0  0  0  0  0
   25.7954  -21.0236  -14.5927 C   0  0  0  0  0  0  0  0  0  0  0  0
   24.9879  -22.0187  -14.5961 O   0  0  0  0  0  0  0  0  0  0  0  0
   29.0447  -21.2915  -17.1967 O   0  0  0  0  0  0  0  0  0  0  0  0
   27.8256  -21.7858  -17.6544 C   0  0  0  0  0  0  0  0  0  0  0  0
   26.9689  -22.2439  -16.4560 C   0  0  2  0  0  0  0  0  0  0  0  0
   26.8923  -21.1635  -15.4866 N   0  0  0  0  0  0  0  0  0  0  0  0
   27.5707  -23.4296  -15.8339 C   0  0  0  0  0  0  0  0  0  0  0  0
   27.7332  -24.4684  -16.5184 O   0  0  0  0  0  0  0  0  0  0  0  0
   27.9799  -23.4736  -14.5065 O   0  0  0  0  0  0  0  0  0  0  0  0
  2  1  1  6
  2  3  1  0
  4  3  1  0
  5  2  1  0
  6  5  2  0
  7  5  1  0
  8  7  1  0
  9 10  1  0
  8  9  1  1
 10 18  1  0
 11 10  2  0
 11 12  1  0
 12 13  1  0
 13 14  1  0
 14 15  2  0
 16 15  1  0
 17 16  2  0
 18 13  2  0
 18 17  1  0
 19 24  1  0
 19  8  1  0
 20 19  2  0
 21 22  1  0
 23 22  1  6
 23 24  1  0
 25 23  1  0
 26 25  2  0
 27 25  1  0
M  END
$$$$
