CWS.pdb
     RDKit          3D

 27 28  0  0  1  0  0  0  0  0999 V2000
   28.6532  -21.4569  -15.2467 N   0  0  0  0  0  0  0  0  0  0  0  0
   28.2657  -20.3508  -14.4290 C   0  0  1  0  0  0  0  0  0  0  0  0
   27.5351  -19.2615  -15.1591 C   0  0  0  0  0  0  0  0  0  0  0  0
   28.6995  -18.0733  -15.8575 S   0  0  0  0  0  0  0  0  0  0  0  0
   27.4629  -20.8682  -13.2829 C   0  0  0  0  0  0  0  0  0  0  0  0
   26.5206  -21.6968  -13.4554 O   0  0  0  0  0  0  0  0  0  0  0  0
   27.7218  -20.4554  -11.9664 N   0  0  0  0  0  0  0  0  0  0  0  0
   26.8410  -20.8097  -10.8509 C   0  0  1  0  0  0  0  0  0  0  0  0
   27.5326  -20.2697   -9.6318 C   0  0  0  0  0  0  0  0  0  0  0  0
   26.8705  -20.4788   -8.3526 C   0  0  0  0  0  0  0  0  0  0  0  0
   25.5982  -21.0371   -8.1704 C   0  0  0  0  0  0  0  0  0  0  0  0
   25.3330  -21.0650   -6.8562 N   0  0  0  0  0  0  0  0  0  0  0  0
   26.3937  -20.5434   -6.1929 C   0  0  0  0  0  0  0  0  0  0  0  0
   26.6389  -20.3663   -4.8469 C   0  0  0  0  0  0  0  0  0  0  0  0
   27.8195  -19.8308   -4.3853 C   0  0  0  0  0  0  0  0  0  0  0  0
   28.7850  -19.4604   -5.3112 C   0  0  0  0  0  0  0  0  0  0  0  0
   28.5627  -19.6271   -6.6606 C   0  0  0  0  0  0  0  0  0  0  0  0
   27.3613  -20.1715   -7.1034 C   0  0  0  0  0  0  0  0  0  0  0  0
   25.4963  -20.3193  -11.0175 C   0  0  0  0  0  0  0  0  0  0  0  0
   25.3325  -19.0627  -11.2079 O   0  0  0  0  0  0  0  0  0  0  0  0
   22.4830  -22.5672  -12.4183 O   0  0  0  0  0  0  0  0  0  0  0  0
   22.4501  -21.1883  -12.6120 C   0  0  0  0  0  0  0  0  0  0  0  0
   23.0075  -20.4755  -11.3625 C   0  0  2  0  0  0  0  0  0  0  0  0
   24.2873  -21.0675  -11.0096 N   0  0  0  0  0  0  0  0  0  0  0  0
   22.0678  -20.6174  -10.2437 C   0  0  0  0  0  0  0  0  0  0  0  0
   22.4401  -21.2011   -9.1973 O   0  0  0  0  0  0  0  0  0  0  0  0
   20.7646  -20.1354  -10.2722 O   0  0  0  0  0  0  0  0  0  0  0  0
  2  1  1  6
  2  3  1  0
  4  3  1  0
  5  2  1  0
  6  5  2  0
  7  5  1  0
  8  7  1  0
  9 10  1  0
  8  9  1  1
 10 18  1  0
 11 10  2  0
 11 12  1  0
 12 13  1  0
 13 14  1  0
 14 15  2  0
 16 15  1  0
 17 16  2  0
 18 13  2  0
 18 17  1  0
 19 24  1  0
 19  8  1  0
 20 19  2  0
 21 22  1  0
 23 22  1  6
 23 24  1  0
 25 23  1  0
 26 25  2  0
 27 25  1  0
M  END
$$$$
