CWS.pdb
     RDKit          3D

 27 28  0  0  1  0  0  0  0  0999 V2000
   28.5880  -21.2186  -17.9416 N   0  0  0  0  0  0  0  0  0  0  0  0
   27.3951  -20.5464  -17.5323 C   0  0  1  0  0  0  0  0  0  0  0  0
   26.2617  -20.6355  -18.5125 C   0  0  0  0  0  0  0  0  0  0  0  0
   26.6274  -19.6748  -19.9954 S   0  0  0  0  0  0  0  0  0  0  0  0
   26.9952  -21.0664  -16.1923 C   0  0  0  0  0  0  0  0  0  0  0  0
   27.0521  -22.3016  -15.9178 O   0  0  0  0  0  0  0  0  0  0  0  0
   26.5395  -20.2046  -15.1824 N   0  0  0  0  0  0  0  0  0  0  0  0
   26.0291  -20.7037  -13.9033 C   0  0  1  0  0  0  0  0  0  0  0  0
   26.5881  -19.7619  -12.8754 C   0  0  0  0  0  0  0  0  0  0  0  0
   27.3519  -20.3535  -11.7867 C   0  0  0  0  0  0  0  0  0  0  0  0
   28.6138  -20.9519  -11.9021 C   0  0  0  0  0  0  0  0  0  0  0  0
   28.9916  -21.3790  -10.6884 N   0  0  0  0  0  0  0  0  0  0  0  0
   28.0133  -21.0731   -9.8017 C   0  0  0  0  0  0  0  0  0  0  0  0
   27.9143  -21.2679   -8.4395 C   0  0  0  0  0  0  0  0  0  0  0  0
   26.8200  -20.8449   -7.7203 C   0  0  0  0  0  0  0  0  0  0  0  0
   25.7905  -20.2049   -8.3967 C   0  0  0  0  0  0  0  0  0  0  0  0
   25.8666  -19.9996   -9.7568 C   0  0  0  0  0  0  0  0  0  0  0  0
   26.9835  -20.4356  -10.4626 C   0  0  0  0  0  0  0  0  0  0  0  0
   24.5922  -20.8069  -13.8720 C   0  0  0  0  0  0  0  0  0  0  0  0
   23.9067  -19.7773  -14.2070 O   0  0  0  0  0  0  0  0  0  0  0  0
   20.4197  -23.3086  -13.3198 O   0  0  0  0  0  0  0  0  0  0  0  0
   21.8114  -23.3212  -13.2636 C   0  0  0  0  0  0  0  0  0  0  0  0
   22.3530  -21.8966  -13.5025 C   0  0  2  0  0  0  0  0  0  0  0  0
   23.8060  -21.9375  -13.5182 N   0  0  0  0  0  0  0  0  0  0  0  0
   21.8917  -20.9996  -12.4359 C   0  0  0  0  0  0  0  0  0  0  0  0
   20.6758  -20.6977  -12.3685 O   0  0  0  0  0  0  0  0  0  0  0  0
   22.7355  -20.4529  -11.4764 O   0  0  0  0  0  0  0  0  0  0  0  0
  2  1  1  6
  2  3  1  0
  4  3  1  0
  5  2  1  0
  6  5  2  0
  7  5  1  0
  8  7  1  0
  9 10  1  0
  8  9  1  1
 10 18  1  0
 11 10  2  0
 11 12  1  0
 12 13  1  0
 13 14  1  0
 14 15  2  0
 16 15  1  0
 17 16  2  0
 18 13  2  0
 18 17  1  0
 19 24  1  0
 19  8  1  0
 20 19  2  0
 21 22  1  0
 23 22  1  1
 23 24  1  0
 25 23  1  0
 26 25  2  0
 27 25  1  0
M  END
$$$$
