CWS.pdb
     RDKit          3D

 27 28  0  0  1  0  0  0  0  0999 V2000
   19.9617  -12.4192  -16.2951 N   0  0  0  0  0  0  0  0  0  0  0  0
   20.1500  -11.1132  -16.8438 C   0  0  1  0  0  0  0  0  0  0  0  0
   18.9513  -10.5576  -17.5565 C   0  0  0  0  0  0  0  0  0  0  0  0
   18.4530  -11.6471  -18.9057 S   0  0  0  0  0  0  0  0  0  0  0  0
   20.6021  -10.2023  -15.7522 C   0  0  0  0  0  0  0  0  0  0  0  0
   20.0616  -10.2225  -14.6068 O   0  0  0  0  0  0  0  0  0  0  0  0
   21.6461   -9.2857  -15.9532 N   0  0  0  0  0  0  0  0  0  0  0  0
   22.0303   -8.3060  -14.9343 C   0  0  1  0  0  0  0  0  0  0  0  0
   23.3532   -8.7931  -14.4158 C   0  0  0  0  0  0  0  0  0  0  0  0
   24.4711   -8.7792  -15.3478 C   0  0  0  0  0  0  0  0  0  0  0  0
   24.7373   -7.7791  -16.2926 C   0  0  0  0  0  0  0  0  0  0  0  0
   25.8477   -8.1170  -16.9643 N   0  0  0  0  0  0  0  0  0  0  0  0
   26.2996   -9.2994  -16.4798 C   0  0  0  0  0  0  0  0  0  0  0  0
   27.4028  -10.0627  -16.8016 C   0  0  0  0  0  0  0  0  0  0  0  0
   27.6899  -11.2401  -16.1496 C   0  0  0  0  0  0  0  0  0  0  0  0
   26.8361  -11.6628  -15.1401 C   0  0  0  0  0  0  0  0  0  0  0  0
   25.7280  -10.9177  -14.8014 C   0  0  0  0  0  0  0  0  0  0  0  0
   25.4586   -9.7302  -15.4744 C   0  0  0  0  0  0  0  0  0  0  0  0
   22.0681   -6.9561  -15.4370 C   0  0  0  0  0  0  0  0  0  0  0  0
   22.1491   -6.7872  -16.7047 O   0  0  0  0  0  0  0  0  0  0  0  0
   19.8756   -3.2919  -16.3541 O   0  0  0  0  0  0  0  0  0  0  0  0
   20.2704   -4.5529  -15.9133 C   0  0  0  0  0  0  0  0  0  0  0  0
   21.6874   -4.4708  -15.3089 C   0  0  2  0  0  0  0  0  0  0  0  0
   22.0152   -5.7458  -14.6926 N   0  0  0  0  0  0  0  0  0  0  0  0
   21.7422   -3.4029  -14.3032 C   0  0  0  0  0  0  0  0  0  0  0  0
   21.7800   -3.7050  -13.0860 O   0  0  0  0  0  0  0  0  0  0  0  0
   21.7551   -2.0503  -14.6221 O   0  0  0  0  0  0  0  0  0  0  0  0
  2  1  1  1
  2  3  1  0
  4  3  1  0
  5  2  1  0
  6  5  2  0
  7  5  1  0
  8  7  1  0
  9 10  1  0
  8  9  1  6
 10 18  1  0
 11 10  2  0
 11 12  1  0
 12 13  1  0
 13 14  1  0
 14 15  2  0
 16 15  1  0
 17 16  2  0
 18 13  2  0
 18 17  1  0
 19 24  1  0
 19  8  1  0
 20 19  2  0
 21 22  1  0
 23 22  1  1
 23 24  1  0
 25 23  1  0
 26 25  2  0
 27 25  1  0
M  END
$$$$
