CWS.pdb
     RDKit          3D

 27 28  0  0  1  0  0  0  0  0999 V2000
   27.0272  -18.5809  -16.5787 N   0  0  0  0  0  0  0  0  0  0  0  0
   25.8025  -19.0572  -17.1405 C   0  0  1  0  0  0  0  0  0  0  0  0
   25.6597  -20.5515  -17.1485 C   0  0  0  0  0  0  0  0  0  0  0  0
   26.8441  -21.2967  -18.2875 S   0  0  0  0  0  0  0  0  0  0  0  0
   24.6681  -18.4080  -16.4210 C   0  0  0  0  0  0  0  0  0  0  0  0
   24.7264  -18.1601  -15.1803 O   0  0  0  0  0  0  0  0  0  0  0  0
   23.4900  -18.0465  -17.0933 N   0  0  0  0  0  0  0  0  0  0  0  0
   22.4431  -17.2450  -16.4552 C   0  0  1  0  0  0  0  0  0  0  0  0
   21.9589  -16.3198  -17.5348 C   0  0  0  0  0  0  0  0  0  0  0  0
   20.8731  -15.4147  -17.1881 C   0  0  0  0  0  0  0  0  0  0  0  0
   20.6047  -14.9097  -15.9088 C   0  0  0  0  0  0  0  0  0  0  0  0
   19.5288  -14.1129  -15.9860 N   0  0  0  0  0  0  0  0  0  0  0  0
   19.1014  -14.0920  -17.2720 C   0  0  0  0  0  0  0  0  0  0  0  0
   18.0638  -13.4200  -17.8845 C   0  0  0  0  0  0  0  0  0  0  0  0
   17.8233  -13.5259  -19.2353 C   0  0  0  0  0  0  0  0  0  0  0  0
   18.6558  -14.3369  -19.9941 C   0  0  0  0  0  0  0  0  0  0  0  0
   19.6980  -15.0184  -19.4048 C   0  0  0  0  0  0  0  0  0  0  0  0
   19.9219  -14.8951  -18.0372 C   0  0  0  0  0  0  0  0  0  0  0  0
   21.3986  -18.0466  -15.8696 C   0  0  0  0  0  0  0  0  0  0  0  0
   21.0250  -19.1006  -16.4956 O   0  0  0  0  0  0  0  0  0  0  0  0
   19.6776  -17.5642  -12.0597 O   0  0  0  0  0  0  0  0  0  0  0  0
   19.7876  -18.8333  -12.6232 C   0  0  0  0  0  0  0  0  0  0  0  0
   19.6827  -18.7299  -14.1588 C   0  0  2  0  0  0  0  0  0  0  0  0
   20.7109  -17.8247  -14.6450 N   0  0  0  0  0  0  0  0  0  0  0  0
   18.3567  -18.2270  -14.5378 C   0  0  0  0  0  0  0  0  0  0  0  0
   18.2261  -17.0237  -14.8684 O   0  0  0  0  0  0  0  0  0  0  0  0
   17.2135  -19.0171  -14.5536 O   0  0  0  0  0  0  0  0  0  0  0  0
  2  1  1  1
  2  3  1  0
  4  3  1  0
  5  2  1  0
  6  5  2  0
  7  5  1  0
  8  7  1  0
  9 10  1  0
  8  9  1  6
 10 18  1  0
 11 10  2  0
 11 12  1  0
 12 13  1  0
 13 14  1  0
 14 15  2  0
 16 15  1  0
 17 16  2  0
 18 13  2  0
 18 17  1  0
 19 24  1  0
 19  8  1  0
 20 19  2  0
 21 22  1  0
 23 22  1  1
 23 24  1  0
 25 23  1  0
 26 25  2  0
 27 25  1  0
M  END
$$$$
