CWS.pdb
     RDKit          3D

 27 28  0  0  1  0  0  0  0  0999 V2000
   28.0280  -21.7124  -15.0054 N   0  0  0  0  0  0  0  0  0  0  0  0
   27.5834  -20.5486  -14.3054 C   0  0  1  0  0  0  0  0  0  0  0  0
   26.8247  -19.5655  -15.1488 C   0  0  0  0  0  0  0  0  0  0  0  0
   26.2529  -20.3443  -16.6727 S   0  0  0  0  0  0  0  0  0  0  0  0
   26.7804  -20.9841  -13.1258 C   0  0  0  0  0  0  0  0  0  0  0  0
   26.0470  -22.0159  -13.1689 O   0  0  0  0  0  0  0  0  0  0  0  0
   26.8070  -20.2653  -11.9204 N   0  0  0  0  0  0  0  0  0  0  0  0
   26.0071  -20.6611  -10.7589 C   0  0  1  0  0  0  0  0  0  0  0  0
   26.6306  -19.9359   -9.6007 C   0  0  0  0  0  0  0  0  0  0  0  0
   26.2530  -20.3786   -8.2665 C   0  0  0  0  0  0  0  0  0  0  0  0
   25.1229  -21.1428   -7.9464 C   0  0  0  0  0  0  0  0  0  0  0  0
   25.1141  -21.3498   -6.6215 N   0  0  0  0  0  0  0  0  0  0  0  0
   26.2009  -20.7435   -6.0849 C   0  0  0  0  0  0  0  0  0  0  0  0
   26.6676  -20.6737   -4.7884 C   0  0  0  0  0  0  0  0  0  0  0  0
   27.8317  -20.0139   -4.4673 C   0  0  0  0  0  0  0  0  0  0  0  0
   28.5492  -19.4033   -5.4866 C   0  0  0  0  0  0  0  0  0  0  0  0
   28.1029  -19.4590   -6.7887 C   0  0  0  0  0  0  0  0  0  0  0  0
   26.9232  -20.1326   -7.0893 C   0  0  0  0  0  0  0  0  0  0  0  0
   24.6019  -20.3877  -10.9233 C   0  0  0  0  0  0  0  0  0  0  0  0
   24.2520  -19.1929  -11.2272 O   0  0  0  0  0  0  0  0  0  0  0  0
   21.5662  -23.1445  -10.4433 O   0  0  0  0  0  0  0  0  0  0  0  0
   21.3919  -22.2673  -11.5112 C   0  0  0  0  0  0  0  0  0  0  0  0
   22.1723  -20.9637  -11.2443 C   0  0  2  0  0  0  0  0  0  0  0  0
   23.5157  -21.2969  -10.8003 N   0  0  0  0  0  0  0  0  0  0  0  0
   21.4891  -20.1727  -10.2135 C   0  0  0  0  0  0  0  0  0  0  0  0
   20.2931  -19.8360  -10.3879 O   0  0  0  0  0  0  0  0  0  0  0  0
   22.0973  -19.7653   -9.0322 O   0  0  0  0  0  0  0  0  0  0  0  0
  2  1  1  6
  2  3  1  0
  4  3  1  0
  5  2  1  0
  6  5  2  0
  7  5  1  0
  8  7  1  0
  9 10  1  0
  8  9  1  1
 10 18  1  0
 11 10  2  0
 11 12  1  0
 12 13  1  0
 13 14  1  0
 14 15  2  0
 16 15  1  0
 17 16  2  0
 18 13  2  0
 18 17  1  0
 19 24  1  0
 19  8  1  0
 20 19  2  0
 21 22  1  0
 23 22  1  1
 23 24  1  0
 25 23  1  0
 26 25  2  0
 27 25  1  0
M  END
$$$$
