CWS.pdb
     RDKit          3D

 27 28  0  0  1  0  0  0  0  0999 V2000
   28.4451  -21.3559  -15.3958 N   0  0  0  0  0  0  0  0  0  0  0  0
   28.5609  -20.4041  -14.3361 C   0  0  1  0  0  0  0  0  0  0  0  0
   28.2699  -18.9869  -14.7363 C   0  0  0  0  0  0  0  0  0  0  0  0
   27.6696  -18.9175  -16.4365 S   0  0  0  0  0  0  0  0  0  0  0  0
   27.6844  -20.8405  -13.2105 C   0  0  0  0  0  0  0  0  0  0  0  0
   26.6514  -21.5455  -13.4110 O   0  0  0  0  0  0  0  0  0  0  0  0
   27.9716  -20.4854  -11.8831 N   0  0  0  0  0  0  0  0  0  0  0  0
   27.1000  -20.8648  -10.7687 C   0  0  1  0  0  0  0  0  0  0  0  0
   27.8273  -20.3998   -9.5395 C   0  0  0  0  0  0  0  0  0  0  0  0
   27.1352  -20.5516   -8.2681 C   0  0  0  0  0  0  0  0  0  0  0  0
   25.8329  -21.0403   -8.0977 C   0  0  0  0  0  0  0  0  0  0  0  0
   25.5460  -21.0310   -6.7878 N   0  0  0  0  0  0  0  0  0  0  0  0
   26.6217  -20.5529   -6.1160 C   0  0  0  0  0  0  0  0  0  0  0  0
   26.8545  -20.3647   -4.7692 C   0  0  0  0  0  0  0  0  0  0  0  0
   28.0538  -19.8826   -4.2972 C   0  0  0  0  0  0  0  0  0  0  0  0
   29.0517  -19.5791   -5.2131 C   0  0  0  0  0  0  0  0  0  0  0  0
   28.8424  -19.7582   -6.5629 C   0  0  0  0  0  0  0  0  0  0  0  0
   27.6215  -20.2477   -7.0164 C   0  0  0  0  0  0  0  0  0  0  0  0
   25.7673  -20.3300  -10.8888 C   0  0  0  0  0  0  0  0  0  0  0  0
   25.6402  -19.0894  -11.1837 O   0  0  0  0  0  0  0  0  0  0  0  0
   21.7584  -21.0546  -13.1137 O   0  0  0  0  0  0  0  0  0  0  0  0
   22.9767  -21.4425  -12.5610 C   0  0  0  0  0  0  0  0  0  0  0  0
   23.3013  -20.5517  -11.3441 C   0  0  2  0  0  0  0  0  0  0  0  0
   24.5333  -21.0180  -10.7295 N   0  0  0  0  0  0  0  0  0  0  0  0
   22.2044  -20.6141  -10.3704 C   0  0  0  0  0  0  0  0  0  0  0  0
   22.3703  -21.2398   -9.2956 O   0  0  0  0  0  0  0  0  0  0  0  0
   20.9683  -20.0109  -10.5694 O   0  0  0  0  0  0  0  0  0  0  0  0
  2  1  1  6
  2  3  1  0
  4  3  1  0
  5  2  1  0
  6  5  2  0
  7  5  1  0
  8  7  1  0
  9 10  1  0
  8  9  1  1
 10 18  1  0
 11 10  2  0
 11 12  1  0
 12 13  1  0
 13 14  1  0
 14 15  2  0
 16 15  1  0
 17 16  2  0
 18 13  2  0
 18 17  1  0
 19 24  1  0
 19  8  1  0
 20 19  2  0
 21 22  1  0
 23 22  1  6
 23 24  1  0
 25 23  1  0
 26 25  2  0
 27 25  1  0
M  END
$$$$
