CWS.pdb
     RDKit          3D

 27 28  0  0  1  0  0  0  0  0999 V2000
   29.2202  -21.4742  -16.3849 N   0  0  0  0  0  0  0  0  0  0  0  0
   27.9115  -20.9560  -16.1379 C   0  0  1  0  0  0  0  0  0  0  0  0
   27.0070  -20.9501  -17.3359 C   0  0  0  0  0  0  0  0  0  0  0  0
   26.3060  -22.5899  -17.6106 S   0  0  0  0  0  0  0  0  0  0  0  0
   27.3072  -21.7173  -15.0061 C   0  0  0  0  0  0  0  0  0  0  0  0
   27.9257  -22.6685  -14.4431 O   0  0  0  0  0  0  0  0  0  0  0  0
   26.0269  -21.4077  -14.5207 N   0  0  0  0  0  0  0  0  0  0  0  0
   25.6892  -21.4997  -13.0983 C   0  0  1  0  0  0  0  0  0  0  0  0
   26.6330  -20.5485  -12.4195 C   0  0  0  0  0  0  0  0  0  0  0  0
   26.5288  -20.4388  -10.9718 C   0  0  0  0  0  0  0  0  0  0  0  0
   25.4168  -19.9624  -10.2645 C   0  0  0  0  0  0  0  0  0  0  0  0
   25.6968  -20.0115   -8.9540 N   0  0  0  0  0  0  0  0  0  0  0  0
   26.9503  -20.5036   -8.8008 C   0  0  0  0  0  0  0  0  0  0  0  0
   27.6998  -20.7741   -7.6745 C   0  0  0  0  0  0  0  0  0  0  0  0
   28.9659  -21.3077   -7.7524 C   0  0  0  0  0  0  0  0  0  0  0  0
   29.4947  -21.5767   -9.0072 C   0  0  0  0  0  0  0  0  0  0  0  0
   28.7655  -21.3146  -10.1462 C   0  0  0  0  0  0  0  0  0  0  0  0
   27.4870  -20.7756  -10.0424 C   0  0  0  0  0  0  0  0  0  0  0  0
   24.3002  -21.2254  -12.8305 C   0  0  0  0  0  0  0  0  0  0  0  0
   23.8439  -20.0685  -13.1395 O   0  0  0  0  0  0  0  0  0  0  0  0
   21.3507  -21.9616   -9.7346 O   0  0  0  0  0  0  0  0  0  0  0  0
   21.8378  -21.0329  -10.6513 C   0  0  0  0  0  0  0  0  0  0  0  0
   21.9546  -21.6893  -12.0424 C   0  0  2  0  0  0  0  0  0  0  0  0
   23.3326  -22.0975  -12.2606 N   0  0  0  0  0  0  0  0  0  0  0  0
   21.5469  -20.7366  -13.0821 C   0  0  0  0  0  0  0  0  0  0  0  0
   22.1442  -19.6374  -13.1781 O   0  0  0  0  0  0  0  0  0  0  0  0
   20.5194  -20.9815  -13.9852 O   0  0  0  0  0  0  0  0  0  0  0  0
  2  1  1  6
  2  3  1  0
  4  3  1  0
  5  2  1  0
  6  5  2  0
  7  5  1  0
  8  7  1  0
  9 10  1  0
  8  9  1  1
 10 18  1  0
 11 10  2  0
 11 12  1  0
 12 13  1  0
 13 14  1  0
 14 15  2  0
 16 15  1  0
 17 16  2  0
 18 13  2  0
 18 17  1  0
 19 24  1  0
 19  8  1  0
 20 19  2  0
 21 22  1  0
 23 22  1  1
 23 24  1  0
 25 23  1  0
 26 25  2  0
 27 25  1  0
M  END
$$$$
