LVV.pdb
     RDKit          3D

 23 22  0  0  1  0  0  0  0  0999 V2000
    5.5413  -20.2926   23.1921 C   0  0  0  0  0  0  0  0  0  0  0  0
    5.7317  -18.9363   22.5475 C   0  0  1  0  0  0  0  0  0  0  0  0
    4.4443  -18.3220   22.0594 C   0  0  0  0  0  0  0  0  0  0  0  0
    6.6129  -18.0220   23.3198 C   0  0  0  0  0  0  0  0  0  0  0  0
    6.7283  -16.6501   22.7450 C   0  0  2  0  0  0  0  0  0  0  0  0
    7.2259  -16.5894   21.4037 N   0  0  0  0  0  0  0  0  0  0  0  0
    7.5679  -15.7874   23.6084 C   0  0  0  0  0  0  0  0  0  0  0  0
    8.8082  -15.7762   23.3770 O   0  0  0  0  0  0  0  0  0  0  0  0
    6.0411  -13.3087   26.8022 C   0  0  0  0  0  0  0  0  0  0  0  0
    7.2108  -13.0118   25.9052 C   0  0  2  0  0  0  0  0  0  0  0  0
    6.8229  -12.1323   24.7394 C   0  0  0  0  0  0  0  0  0  0  0  0
    8.0161  -14.2045   25.4829 C   0  0  2  0  0  0  0  0  0  0  0  0
    7.0689  -14.9983   24.6471 N   0  0  0  0  0  0  0  0  0  0  0  0
    8.5312  -15.0427   26.5602 C   0  0  0  0  0  0  0  0  0  0  0  0
    7.7660  -15.8541   27.1528 O   0  0  0  0  0  0  0  0  0  0  0  0
   12.8473  -15.4326   27.3659 C   0  0  0  0  0  0  0  0  0  0  0  0
   11.7620  -16.4663   27.4973 C   0  0  2  0  0  0  0  0  0  0  0  0
   11.6416  -17.2413   26.1979 C   0  0  0  0  0  0  0  0  0  0  0  0
   10.4548  -15.8945   27.9450 C   0  0  2  0  0  0  0  0  0  0  0  0
    9.8664  -14.9918   26.9783 N   0  0  0  0  0  0  0  0  0  0  0  0
   10.6657  -15.2427   29.2610 C   0  0  0  0  0  0  0  0  0  0  0  0
   10.5190  -14.0191   29.4890 O   0  0  0  0  0  0  0  0  0  0  0  0
   11.0548  -16.0554   30.3143 O   0  0  0  0  0  0  0  0  0  0  0  0
  2  1  1  1
  2  3  1  0
  4  2  1  0
  4  5  1  0
  5  6  1  6
  7  8  2  0
  7  5  1  0
 10 12  1  0
 10  9  1  6
 11 10  1  0
 12 13  1  6
 13  7  1  0
 14 20  1  0
 14 12  1  0
 15 14  2  0
 17 19  1  0
 17 16  1  6
 18 17  1  0
 19 21  1  0
 19 20  1  6
 21 23  1  0
 22 21  2  0
M  END
$$$$
