LVV.pdb
     RDKit          3D

 23 22  0  0  1  0  0  0  0  0999 V2000
    5.9311  -11.7869   27.1379 C   0  0  0  0  0  0  0  0  0  0  0  0
    6.0150  -12.4710   25.7902 C   0  0  1  0  0  0  0  0  0  0  0  0
    6.2193  -11.5109   24.6459 C   0  0  0  0  0  0  0  0  0  0  0  0
    6.8997  -13.6651   25.7761 C   0  0  0  0  0  0  0  0  0  0  0  0
    6.4835  -14.7259   24.8131 C   0  0  2  0  0  0  0  0  0  0  0  0
    5.2490  -15.3820   25.1226 N   0  0  0  0  0  0  0  0  0  0  0  0
    7.5463  -15.7472   24.6646 C   0  0  0  0  0  0  0  0  0  0  0  0
    7.4569  -16.7786   25.3859 O   0  0  0  0  0  0  0  0  0  0  0  0
   11.0423  -15.4124   22.0497 C   0  0  0  0  0  0  0  0  0  0  0  0
   10.2661  -16.6427   22.4302 C   0  0  2  0  0  0  0  0  0  0  0  0
    9.2258  -17.0002   21.3943 C   0  0  0  0  0  0  0  0  0  0  0  0
    9.7147  -16.6492   23.8250 C   0  0  2  0  0  0  0  0  0  0  0  0
    8.6237  -15.6323   23.7833 N   0  0  0  0  0  0  0  0  0  0  0  0
   10.6554  -16.3074   24.8864 C   0  0  0  0  0  0  0  0  0  0  0  0
   11.6910  -15.6345   24.6228 O   0  0  0  0  0  0  0  0  0  0  0  0
   11.8588  -14.5361   29.0097 C   0  0  0  0  0  0  0  0  0  0  0  0
   10.9347  -14.9790   27.9082 C   0  0  2  0  0  0  0  0  0  0  0  0
    9.5023  -14.9557   28.4096 C   0  0  0  0  0  0  0  0  0  0  0  0
   11.3121  -16.3001   27.3179 C   0  0  2  0  0  0  0  0  0  0  0  0
   10.4599  -16.6969   26.2170 N   0  0  0  0  0  0  0  0  0  0  0  0
   11.3183  -17.3052   28.4092 C   0  0  0  0  0  0  0  0  0  0  0  0
   10.5164  -18.2631   28.5089 O   0  0  0  0  0  0  0  0  0  0  0  0
   12.2880  -17.1679   29.3900 O   0  0  0  0  0  0  0  0  0  0  0  0
  2  1  1  1
  2  3  1  0
  4  2  1  0
  4  5  1  0
  5  6  1  1
  7  8  2  0
  7  5  1  0
 10 12  1  0
 10  9  1  6
 11 10  1  0
 12 13  1  6
 13  7  1  0
 14 20  1  0
 14 12  1  0
 15 14  2  0
 17 19  1  0
 17 16  1  1
 18 17  1  0
 19 21  1  0
 19 20  1  6
 21 23  1  0
 22 21  2  0
M  END
$$$$
