LVV.pdb
     RDKit          3D

 23 22  0  0  1  0  0  0  0  0999 V2000
    7.5832  -11.8710   19.1251 C   0  0  0  0  0  0  0  0  0  0  0  0
    7.9362  -13.3393   19.2295 C   0  0  1  0  0  0  0  0  0  0  0  0
    9.4213  -13.5982   19.2131 C   0  0  0  0  0  0  0  0  0  0  0  0
    7.1818  -14.0654   20.2843 C   0  0  0  0  0  0  0  0  0  0  0  0
    7.6004  -15.4851   20.4711 C   0  0  2  0  0  0  0  0  0  0  0  0
    6.9552  -16.4307   19.6109 N   0  0  0  0  0  0  0  0  0  0  0  0
    7.4109  -15.9082   21.8782 C   0  0  0  0  0  0  0  0  0  0  0  0
    6.2507  -15.7946   22.3610 O   0  0  0  0  0  0  0  0  0  0  0  0
    9.4726  -18.8843   23.8364 C   0  0  0  0  0  0  0  0  0  0  0  0
    8.1508  -18.2407   24.1518 C   0  0  2  0  0  0  0  0  0  0  0  0
    7.0194  -18.8491   23.3562 C   0  0  0  0  0  0  0  0  0  0  0  0
    8.1401  -16.7415   24.1129 C   0  0  2  0  0  0  0  0  0  0  0  0
    8.4300  -16.4184   22.6855 N   0  0  0  0  0  0  0  0  0  0  0  0
    9.1139  -16.0723   24.9686 C   0  0  0  0  0  0  0  0  0  0  0  0
   10.3198  -15.9803   24.6047 O   0  0  0  0  0  0  0  0  0  0  0  0
   10.2051  -12.8788   28.5332 C   0  0  0  0  0  0  0  0  0  0  0  0
    9.2759  -13.5062   27.5300 C   0  0  2  0  0  0  0  0  0  0  0  0
    7.8584  -13.4870   28.0723 C   0  0  0  0  0  0  0  0  0  0  0  0
    9.7060  -14.8732   27.1028 C   0  0  2  0  0  0  0  0  0  0  0  0
    8.7678  -15.5111   26.2037 N   0  0  0  0  0  0  0  0  0  0  0  0
    9.9461  -15.6810   28.3239 C   0  0  0  0  0  0  0  0  0  0  0  0
    9.2364  -16.6427   28.7008 O   0  0  0  0  0  0  0  0  0  0  0  0
   11.0409  -15.3402   29.1027 O   0  0  0  0  0  0  0  0  0  0  0  0
  2  1  1  1
  2  3  1  0
  4  2  1  0
  4  5  1  0
  5  6  1  6
  7  8  2  0
  7  5  1  0
 10 12  1  0
 10  9  1  6
 11 10  1  0
 12 13  1  6
 13  7  1  0
 14 20  1  0
 14 12  1  0
 15 14  2  0
 17 19  1  0
 17 16  1  1
 18 17  1  0
 19 21  1  0
 19 20  1  6
 21 23  1  0
 22 21  2  0
M  END
$$$$
