LVV.pdb
     RDKit          3D

 23 22  0  0  1  0  0  0  0  0999 V2000
    8.0638  -12.4887   18.4611 C   0  0  0  0  0  0  0  0  0  0  0  0
    8.2299  -13.9453   18.8381 C   0  0  1  0  0  0  0  0  0  0  0  0
    9.6528  -14.3168   19.1702 C   0  0  0  0  0  0  0  0  0  0  0  0
    7.2095  -14.4374   19.8002 C   0  0  0  0  0  0  0  0  0  0  0  0
    7.4906  -15.7946   20.3522 C   0  0  2  0  0  0  0  0  0  0  0  0
    6.8495  -16.8772   19.6687 N   0  0  0  0  0  0  0  0  0  0  0  0
    7.1406  -15.8598   21.7903 C   0  0  0  0  0  0  0  0  0  0  0  0
    5.9454  -15.6036   22.1030 O   0  0  0  0  0  0  0  0  0  0  0  0
    7.1712  -18.7713   23.6640 C   0  0  0  0  0  0  0  0  0  0  0  0
    7.8415  -17.7548   24.5462 C   0  0  2  0  0  0  0  0  0  0  0  0
    7.6354  -18.0526   26.0131 C   0  0  0  0  0  0  0  0  0  0  0  0
    7.5593  -16.3217   24.2051 C   0  0  2  0  0  0  0  0  0  0  0  0
    8.0471  -16.1851   22.8018 N   0  0  0  0  0  0  0  0  0  0  0  0
    8.2130  -15.3236   25.0447 C   0  0  0  0  0  0  0  0  0  0  0  0
    9.4607  -15.1461   24.9633 O   0  0  0  0  0  0  0  0  0  0  0  0
    6.0456  -13.1636   28.1959 C   0  0  0  0  0  0  0  0  0  0  0  0
    7.1536  -12.5579   27.3781 C   0  0  2  0  0  0  0  0  0  0  0  0
    6.5585  -11.6974   26.2785 C   0  0  0  0  0  0  0  0  0  0  0  0
    8.1189  -13.5713   26.8514 C   0  0  2  0  0  0  0  0  0  0  0  0
    7.5064  -14.5315   25.9578 N   0  0  0  0  0  0  0  0  0  0  0  0
    8.7742  -14.2263   28.0101 C   0  0  0  0  0  0  0  0  0  0  0  0
    8.6156  -15.4240   28.3434 O   0  0  0  0  0  0  0  0  0  0  0  0
    9.6257  -13.4479   28.7785 O   0  0  0  0  0  0  0  0  0  0  0  0
  2  1  1  1
  2  3  1  0
  4  2  1  0
  4  5  1  0
  5  6  1  6
  7  8  2  0
  7  5  1  0
 10 12  1  0
 10  9  1  6
 11 10  1  0
 12 13  1  6
 13  7  1  0
 14 20  1  0
 14 12  1  0
 15 14  2  0
 17 19  1  0
 17 16  1  6
 18 17  1  0
 19 21  1  0
 19 20  1  1
 21 23  1  0
 22 21  2  0
M  END
$$$$
