LVV.pdb
     RDKit          3D

 23 22  0  0  1  0  0  0  0  0999 V2000
    6.4335  -11.2228   27.5348 C   0  0  0  0  0  0  0  0  0  0  0  0
    5.9251  -12.0665   26.3855 C   0  0  1  0  0  0  0  0  0  0  0  0
    5.8699  -11.3203   25.0767 C   0  0  0  0  0  0  0  0  0  0  0  0
    6.5388  -13.4183   26.3146 C   0  0  0  0  0  0  0  0  0  0  0  0
    5.9510  -14.3050   25.2686 C   0  0  2  0  0  0  0  0  0  0  0  0
    4.8032  -15.0564   25.6789 N   0  0  0  0  0  0  0  0  0  0  0  0
    6.9713  -15.2383   24.7369 C   0  0  0  0  0  0  0  0  0  0  0  0
    7.0473  -16.3756   25.2780 O   0  0  0  0  0  0  0  0  0  0  0  0
    8.0462  -15.5616   20.9856 C   0  0  0  0  0  0  0  0  0  0  0  0
    9.2366  -15.5809   21.9040 C   0  0  2  0  0  0  0  0  0  0  0  0
   10.3618  -16.4281   21.3568 C   0  0  0  0  0  0  0  0  0  0  0  0
    8.9348  -15.8844   23.3415 C   0  0  2  0  0  0  0  0  0  0  0  0
    7.8387  -14.9327   23.6858 N   0  0  0  0  0  0  0  0  0  0  0  0
   10.0399  -15.7101   24.2778 C   0  0  0  0  0  0  0  0  0  0  0  0
   11.0453  -15.0195   23.9500 O   0  0  0  0  0  0  0  0  0  0  0  0
    9.6634  -14.0489   27.4253 C   0  0  0  0  0  0  0  0  0  0  0  0
   10.4179  -15.3024   27.7757 C   0  0  2  0  0  0  0  0  0  0  0  0
   11.4528  -14.9890   28.8407 C   0  0  0  0  0  0  0  0  0  0  0  0
   11.0118  -15.9849   26.5850 C   0  0  2  0  0  0  0  0  0  0  0  0
   10.0394  -16.2835   25.5551 N   0  0  0  0  0  0  0  0  0  0  0  0
   11.7157  -17.2024   27.0578 C   0  0  0  0  0  0  0  0  0  0  0  0
   11.3090  -18.3767   26.8955 O   0  0  0  0  0  0  0  0  0  0  0  0
   12.9141  -17.0195   27.7298 O   0  0  0  0  0  0  0  0  0  0  0  0
  2  1  1  1
  2  3  1  0
  4  2  1  0
  4  5  1  0
  5  6  1  1
  7  8  2  0
  7  5  1  0
 10 12  1  0
 10  9  1  6
 11 10  1  0
 12 13  1  1
 13  7  1  0
 14 20  1  0
 14 12  1  0
 15 14  2  0
 17 19  1  0
 17 16  1  6
 18 17  1  0
 19 21  1  0
 19 20  1  6
 21 23  1  0
 22 21  2  0
M  END
$$$$
