LVV.pdb
     RDKit          3D

 23 22  0  0  1  0  0  0  0  0999 V2000
    4.4115  -18.6320   21.1181 C   0  0  0  0  0  0  0  0  0  0  0  0
    5.0127  -17.2656   20.8675 C   0  0  1  0  0  0  0  0  0  0  0  0
    3.9893  -16.2230   20.4951 C   0  0  0  0  0  0  0  0  0  0  0  0
    5.9958  -16.8430   21.8989 C   0  0  0  0  0  0  0  0  0  0  0  0
    6.5326  -15.4644   21.7066 C   0  0  2  0  0  0  0  0  0  0  0  0
    7.2275  -15.2455   20.4739 N   0  0  0  0  0  0  0  0  0  0  0  0
    7.4184  -15.0837   22.8315 C   0  0  0  0  0  0  0  0  0  0  0  0
    8.6466  -15.3461   22.7100 O   0  0  0  0  0  0  0  0  0  0  0  0
    8.1732  -12.4885   26.9652 C   0  0  0  0  0  0  0  0  0  0  0  0
    7.3258  -13.0639   25.8645 C   0  0  2  0  0  0  0  0  0  0  0  0
    5.9236  -13.3768   26.3324 C   0  0  0  0  0  0  0  0  0  0  0  0
    7.9444  -14.1983   25.1029 C   0  0  2  0  0  0  0  0  0  0  0  0
    6.9748  -14.4596   23.9996 N   0  0  0  0  0  0  0  0  0  0  0  0
    8.1656  -15.4286   25.8552 C   0  0  0  0  0  0  0  0  0  0  0  0
    7.1833  -16.0743   26.3167 O   0  0  0  0  0  0  0  0  0  0  0  0
   11.9161  -17.6535   25.6758 C   0  0  0  0  0  0  0  0  0  0  0  0
   10.5213  -18.1468   25.9490 C   0  0  2  0  0  0  0  0  0  0  0  0
    9.8452  -18.5042   24.6379 C   0  0  0  0  0  0  0  0  0  0  0  0
    9.7100  -17.1955   26.7695 C   0  0  2  0  0  0  0  0  0  0  0  0
    9.4458  -15.9425   26.0945 N   0  0  0  0  0  0  0  0  0  0  0  0
   10.4074  -16.9960   28.0638 C   0  0  0  0  0  0  0  0  0  0  0  0
   10.9136  -15.9161   28.4487 O   0  0  0  0  0  0  0  0  0  0  0  0
   10.5025  -18.0923   28.9066 O   0  0  0  0  0  0  0  0  0  0  0  0
  2  1  1  1
  2  3  1  0
  4  2  1  0
  4  5  1  0
  5  6  1  6
  7  8  2  0
  7  5  1  0
 10 12  1  0
 10  9  1  1
 11 10  1  0
 12 13  1  6
 13  7  1  0
 14 20  1  0
 14 12  1  0
 15 14  2  0
 17 19  1  0
 17 16  1  6
 18 17  1  0
 19 21  1  0
 19 20  1  6
 21 23  1  0
 22 21  2  0
M  END
$$$$
