LVV.pdb
     RDKit          3D

 23 22  0  0  1  0  0  0  0  0999 V2000
    9.3918  -13.7754   20.1252 C   0  0  0  0  0  0  0  0  0  0  0  0
    7.8851  -13.7871   19.9801 C   0  0  1  0  0  0  0  0  0  0  0  0
    7.3355  -12.5250   19.3654 C   0  0  0  0  0  0  0  0  0  0  0  0
    7.3457  -15.0506   19.4132 C   0  0  0  0  0  0  0  0  0  0  0  0
    7.6654  -16.2682   20.2138 C   0  0  2  0  0  0  0  0  0  0  0  0
    7.1844  -17.5018   19.6687 N   0  0  0  0  0  0  0  0  0  0  0  0
    7.1673  -16.1299   21.6022 C   0  0  0  0  0  0  0  0  0  0  0  0
    5.9371  -15.8918   21.7503 O   0  0  0  0  0  0  0  0  0  0  0  0
    8.8152  -18.0848   24.8565 C   0  0  0  0  0  0  0  0  0  0  0  0
    7.4259  -17.5638   24.6131 C   0  0  2  0  0  0  0  0  0  0  0  0
    6.5907  -18.5305   23.8061 C   0  0  0  0  0  0  0  0  0  0  0  0
    7.3480  -16.1605   24.0895 C   0  0  2  0  0  0  0  0  0  0  0  0
    7.9724  -16.2478   22.7373 N   0  0  0  0  0  0  0  0  0  0  0  0
    8.0378  -15.1446   24.8772 C   0  0  0  0  0  0  0  0  0  0  0  0
    9.2679  -14.9263   24.6919 O   0  0  0  0  0  0  0  0  0  0  0  0
    5.8893  -12.6877   27.7622 C   0  0  0  0  0  0  0  0  0  0  0  0
    7.1498  -12.2551   27.0639 C   0  0  2  0  0  0  0  0  0  0  0  0
    6.7948  -11.3847   25.8723 C   0  0  0  0  0  0  0  0  0  0  0  0
    8.0393  -13.3982   26.6919 C   0  0  2  0  0  0  0  0  0  0  0  0
    7.3858  -14.3790   25.8514 N   0  0  0  0  0  0  0  0  0  0  0  0
    8.5644  -13.9971   27.9436 C   0  0  0  0  0  0  0  0  0  0  0  0
    8.3378  -15.1672   28.3310 O   0  0  0  0  0  0  0  0  0  0  0  0
    9.3663  -13.1952   28.7407 O   0  0  0  0  0  0  0  0  0  0  0  0
  2  1  1  6
  2  3  1  0
  4  2  1  0
  4  5  1  0
  5  6  1  6
  7  8  2  0
  7  5  1  0
 10 12  1  0
 10  9  1  6
 11 10  1  0
 12 13  1  6
 13  7  1  0
 14 20  1  0
 14 12  1  0
 15 14  2  0
 17 19  1  0
 17 16  1  6
 18 17  1  0
 19 21  1  0
 19 20  1  1
 21 23  1  0
 22 21  2  0
M  END
$$$$
