LVV.pdb
     RDKit          3D

 23 22  0  0  1  0  0  0  0  0999 V2000
    5.7086  -12.1616   25.2932 C   0  0  0  0  0  0  0  0  0  0  0  0
    6.5298  -12.9991   26.2501 C   0  0  1  0  0  0  0  0  0  0  0  0
    7.1348  -12.1984   27.3751 C   0  0  0  0  0  0  0  0  0  0  0  0
    5.8673  -14.2640   26.6625 C   0  0  0  0  0  0  0  0  0  0  0  0
    5.6221  -15.2211   25.5447 C   0  0  2  0  0  0  0  0  0  0  0  0
    4.8275  -16.3637   25.8817 N   0  0  0  0  0  0  0  0  0  0  0  0
    6.9017  -15.6820   24.9573 C   0  0  0  0  0  0  0  0  0  0  0  0
    7.5279  -16.5835   25.5795 O   0  0  0  0  0  0  0  0  0  0  0  0
    8.9829  -13.9374   21.5165 C   0  0  0  0  0  0  0  0  0  0  0  0
    8.6697  -15.3860   21.7705 C   0  0  2  0  0  0  0  0  0  0  0  0
    7.4210  -15.8320   21.0460 C   0  0  0  0  0  0  0  0  0  0  0  0
    8.6785  -15.8026   23.2113 C   0  0  2  0  0  0  0  0  0  0  0  0
    7.4429  -15.1815   23.7710 N   0  0  0  0  0  0  0  0  0  0  0  0
    9.8331  -15.3750   23.9939 C   0  0  0  0  0  0  0  0  0  0  0  0
   10.3640  -14.2498   23.7770 O   0  0  0  0  0  0  0  0  0  0  0  0
   10.4431  -16.5754   27.8880 C   0  0  0  0  0  0  0  0  0  0  0  0
   11.2300  -15.4883   27.2079 C   0  0  2  0  0  0  0  0  0  0  0  0
   10.5018  -14.1654   27.3609 C   0  0  0  0  0  0  0  0  0  0  0  0
   11.5550  -15.8002   25.7820 C   0  0  2  0  0  0  0  0  0  0  0  0
   10.3941  -16.1702   25.0004 N   0  0  0  0  0  0  0  0  0  0  0  0
   12.5962  -16.8571   25.7694 C   0  0  0  0  0  0  0  0  0  0  0  0
   13.7651  -16.7199   26.2001 O   0  0  0  0  0  0  0  0  0  0  0  0
   12.2419  -18.0878   25.2392 O   0  0  0  0  0  0  0  0  0  0  0  0
  2  1  1  1
  2  3  1  0
  4  2  1  0
  4  5  1  0
  5  6  1  1
  7  8  2  0
  7  5  1  0
 10 12  1  0
 10  9  1  1
 11 10  1  0
 12 13  1  1
 13  7  1  0
 14 20  1  0
 14 12  1  0
 15 14  2  0
 17 19  1  0
 17 16  1  6
 18 17  1  0
 19 21  1  0
 19 20  1  6
 21 23  1  0
 22 21  2  0
M  END
$$$$
