LVV.pdb
     RDKit          3D

 23 22  0  0  1  0  0  0  0  0999 V2000
    5.1327  -21.0070   18.7547 C   0  0  0  0  0  0  0  0  0  0  0  0
    5.6901  -19.9492   17.8264 C   0  0  1  0  0  0  0  0  0  0  0  0
    4.6223  -19.1589   17.1136 C   0  0  0  0  0  0  0  0  0  0  0  0
    6.7802  -19.1366   18.4266 C   0  0  0  0  0  0  0  0  0  0  0  0
    7.1216  -17.9045   17.6579 C   0  0  2  0  0  0  0  0  0  0  0  0
    7.7915  -18.1273   16.4121 N   0  0  0  0  0  0  0  0  0  0  0  0
    7.9343  -16.9794   18.4817 C   0  0  0  0  0  0  0  0  0  0  0  0
    9.1752  -17.2007   18.5393 O   0  0  0  0  0  0  0  0  0  0  0  0
    8.3749  -12.6282   20.7816 C   0  0  0  0  0  0  0  0  0  0  0  0
    7.6392  -13.7101   20.0405 C   0  0  2  0  0  0  0  0  0  0  0  0
    6.1934  -13.8086   20.4684 C   0  0  0  0  0  0  0  0  0  0  0  0
    8.3216  -15.0453   20.0078 C   0  0  2  0  0  0  0  0  0  0  0  0
    7.4100  -15.8931   19.1856 N   0  0  0  0  0  0  0  0  0  0  0  0
    8.5414  -15.6833   21.3013 C   0  0  0  0  0  0  0  0  0  0  0  0
    7.5644  -16.1479   21.9528 O   0  0  0  0  0  0  0  0  0  0  0  0
   12.3420  -17.3208   22.4412 C   0  0  0  0  0  0  0  0  0  0  0  0
   10.9810  -17.6647   22.9823 C   0  0  2  0  0  0  0  0  0  0  0  0
   10.3602  -18.7582   22.1323 C   0  0  0  0  0  0  0  0  0  0  0  0
   10.0862  -16.4752   23.1260 C   0  0  2  0  0  0  0  0  0  0  0  0
    9.8149  -15.8107   21.8689 N   0  0  0  0  0  0  0  0  0  0  0  0
   10.6967  -15.5595   24.1210 C   0  0  0  0  0  0  0  0  0  0  0  0
   11.2393  -14.4626   23.8506 O   0  0  0  0  0  0  0  0  0  0  0  0
   10.6605  -15.9538   25.4493 O   0  0  0  0  0  0  0  0  0  0  0  0
  2  1  1  1
  2  3  1  0
  4  2  1  0
  4  5  1  0
  5  6  1  6
  7  8  2  0
  7  5  1  0
 10 12  1  0
 10  9  1  1
 11 10  1  0
 12 13  1  6
 13  7  1  0
 14 20  1  0
 14 12  1  0
 15 14  2  0
 17 19  1  0
 17 16  1  6
 18 17  1  0
 19 21  1  0
 19 20  1  6
 21 23  1  0
 22 21  2  0
M  END
$$$$
