LVV.pdb
     RDKit          3D

 23 22  0  0  1  0  0  0  0  0999 V2000
    6.9116  -12.2843   18.8110 C   0  0  0  0  0  0  0  0  0  0  0  0
    7.8658  -13.3210   19.3644 C   0  0  1  0  0  0  0  0  0  0  0  0
    9.3044  -12.8702   19.3597 C   0  0  0  0  0  0  0  0  0  0  0  0
    7.4055  -13.9457   20.6320 C   0  0  0  0  0  0  0  0  0  0  0  0
    8.3733  -14.9134   21.2260 C   0  0  2  0  0  0  0  0  0  0  0  0
    8.5856  -16.1091   20.4672 N   0  0  0  0  0  0  0  0  0  0  0  0
    7.9688  -15.2833   22.6023 C   0  0  0  0  0  0  0  0  0  0  0  0
    7.6113  -14.3460   23.3677 O   0  0  0  0  0  0  0  0  0  0  0  0
    6.7343  -18.8076   25.8691 C   0  0  0  0  0  0  0  0  0  0  0  0
    7.1269  -18.2655   24.5227 C   0  0  2  0  0  0  0  0  0  0  0  0
    8.0755  -19.1886   23.7939 C   0  0  0  0  0  0  0  0  0  0  0  0
    7.5920  -16.8397   24.5144 C   0  0  2  0  0  0  0  0  0  0  0  0
    7.9611  -16.5919   23.0902 N   0  0  0  0  0  0  0  0  0  0  0  0
    8.7327  -16.5338   25.3709 C   0  0  0  0  0  0  0  0  0  0  0  0
    9.9000  -16.8531   25.0096 O   0  0  0  0  0  0  0  0  0  0  0  0
    8.5255  -13.3080   27.7526 C   0  0  0  0  0  0  0  0  0  0  0  0
    9.3624  -14.3835   28.3900 C   0  0  2  0  0  0  0  0  0  0  0  0
   10.5957  -13.7597   29.0172 C   0  0  0  0  0  0  0  0  0  0  0  0
    9.6998  -15.4999   27.4539 C   0  0  2  0  0  0  0  0  0  0  0  0
    8.5933  -15.8853   26.6039 N   0  0  0  0  0  0  0  0  0  0  0  0
   10.2066  -16.6374   28.2604 C   0  0  0  0  0  0  0  0  0  0  0  0
    9.5685  -17.6890   28.5007 O   0  0  0  0  0  0  0  0  0  0  0  0
   11.4843  -16.5212   28.7851 O   0  0  0  0  0  0  0  0  0  0  0  0
  2  1  1  1
  2  3  1  0
  4  2  1  0
  4  5  1  0
  5  6  1  6
  7  8  2  0
  7  5  1  0
 10 12  1  0
 10  9  1  1
 11 10  1  0
 12 13  1  6
 13  7  1  0
 14 20  1  0
 14 12  1  0
 15 14  2  0
 17 19  1  0
 17 16  1  6
 18 17  1  0
 19 21  1  0
 19 20  1  1
 21 23  1  0
 22 21  2  0
M  END
$$$$
