LVV.pdb
     RDKit          3D

 23 22  0  0  1  0  0  0  0  0999 V2000
    6.1006  -11.4116   26.8430 C   0  0  0  0  0  0  0  0  0  0  0  0
    6.0439  -12.4201   25.7155 C   0  0  1  0  0  0  0  0  0  0  0  0
    6.8848  -12.0323   24.5258 C   0  0  0  0  0  0  0  0  0  0  0  0
    6.1958  -13.8296   26.1617 C   0  0  0  0  0  0  0  0  0  0  0  0
    6.0798  -14.8359   25.0663 C   0  0  2  0  0  0  0  0  0  0  0  0
    4.9749  -15.7395   25.1809 N   0  0  0  0  0  0  0  0  0  0  0  0
    7.3303  -15.6199   24.9383 C   0  0  0  0  0  0  0  0  0  0  0  0
    7.5201  -16.5405   25.7801 O   0  0  0  0  0  0  0  0  0  0  0  0
    8.8968  -16.4491   21.4336 C   0  0  0  0  0  0  0  0  0  0  0  0
    9.9520  -16.1750   22.4691 C   0  0  2  0  0  0  0  0  0  0  0  0
   11.2201  -16.9536   22.2069 C   0  0  0  0  0  0  0  0  0  0  0  0
    9.4969  -16.2803   23.8944 C   0  0  2  0  0  0  0  0  0  0  0  0
    8.2942  -15.3993   23.9520 N   0  0  0  0  0  0  0  0  0  0  0  0
   10.4582  -15.8548   24.9060 C   0  0  0  0  0  0  0  0  0  0  0  0
   11.4050  -15.0795   24.5940 O   0  0  0  0  0  0  0  0  0  0  0  0
    9.7921  -15.6850   29.1428 C   0  0  0  0  0  0  0  0  0  0  0  0
   10.9145  -15.0985   28.3306 C   0  0  2  0  0  0  0  0  0  0  0  0
   10.5029  -13.7334   27.8103 C   0  0  0  0  0  0  0  0  0  0  0  0
   11.3899  -16.0058   27.2410 C   0  0  2  0  0  0  0  0  0  0  0  0
   10.3790  -16.2728   26.2399 N   0  0  0  0  0  0  0  0  0  0  0  0
   11.8960  -17.2511   27.8691 C   0  0  0  0  0  0  0  0  0  0  0  0
   11.3743  -18.3835   27.7424 O   0  0  0  0  0  0  0  0  0  0  0  0
   13.0331  -17.1463   28.6548 O   0  0  0  0  0  0  0  0  0  0  0  0
  2  1  1  1
  2  3  1  0
  4  2  1  0
  4  5  1  0
  5  6  1  1
  7  8  2  0
  7  5  1  0
 10 12  1  0
 10  9  1  6
 11 10  1  0
 12 13  1  6
 13  7  1  0
 14 20  1  0
 14 12  1  0
 15 14  2  0
 17 19  1  0
 17 16  1  6
 18 17  1  0
 19 21  1  0
 19 20  1  6
 21 23  1  0
 22 21  2  0
M  END
$$$$
