LVV.pdb
     RDKit          3D

 23 22  0  0  1  0  0  0  0  0999 V2000
    5.2122  -16.5733   21.9806 C   0  0  0  0  0  0  0  0  0  0  0  0
    6.7072  -16.6625   21.7609 C   0  0  1  0  0  0  0  0  0  0  0  0
    7.2049  -18.0780   21.6141 C   0  0  0  0  0  0  0  0  0  0  0  0
    7.2243  -15.7048   20.7489 C   0  0  0  0  0  0  0  0  0  0  0  0
    7.3034  -14.2929   21.2242 C   0  0  2  0  0  0  0  0  0  0  0  0
    7.9259  -13.3765   20.3170 N   0  0  0  0  0  0  0  0  0  0  0  0
    7.9937  -14.2169   22.5329 C   0  0  0  0  0  0  0  0  0  0  0  0
    9.2471  -14.3615   22.5307 O   0  0  0  0  0  0  0  0  0  0  0  0
    7.9913  -12.5802   27.1709 C   0  0  0  0  0  0  0  0  0  0  0  0
    7.3745  -12.9150   25.8412 C   0  0  2  0  0  0  0  0  0  0  0  0
    5.9171  -13.2924   25.9706 C   0  0  0  0  0  0  0  0  0  0  0  0
    8.1476  -13.8868   25.0002 C   0  0  2  0  0  0  0  0  0  0  0  0
    7.3427  -13.9966   23.7488 N   0  0  0  0  0  0  0  0  0  0  0  0
    8.3396  -15.2156   25.5710 C   0  0  0  0  0  0  0  0  0  0  0  0
    7.3522  -15.9878   25.7250 O   0  0  0  0  0  0  0  0  0  0  0  0
   11.2427  -19.1111   26.0616 C   0  0  0  0  0  0  0  0  0  0  0  0
   10.9353  -17.7157   25.5908 C   0  0  2  0  0  0  0  0  0  0  0  0
   12.2164  -16.9029   25.5465 C   0  0  0  0  0  0  0  0  0  0  0  0
    9.8619  -17.0475   26.3894 C   0  0  2  0  0  0  0  0  0  0  0  0
    9.5970  -15.6893   25.9644 N   0  0  0  0  0  0  0  0  0  0  0  0
   10.2432  -17.1199   27.8214 C   0  0  0  0  0  0  0  0  0  0  0  0
   10.5495  -16.1358   28.5345 O   0  0  0  0  0  0  0  0  0  0  0  0
   10.2597  -18.3752   28.4089 O   0  0  0  0  0  0  0  0  0  0  0  0
  2  1  1  6
  2  3  1  0
  4  2  1  0
  4  5  1  0
  5  6  1  6
  7  8  2  0
  7  5  1  0
 10 12  1  0
 10  9  1  1
 11 10  1  0
 12 13  1  6
 13  7  1  0
 14 20  1  0
 14 12  1  0
 15 14  2  0
 17 19  1  0
 17 16  1  1
 18 17  1  0
 19 21  1  0
 19 20  1  6
 21 23  1  0
 22 21  2  0
M  END
$$$$
