CLS.pdb
     RDKit          3D

 21 20  0  0  1  0  0  0  0  0999 V2000
   19.5285  -13.0970  -16.2401 N   0  0  0  0  0  0  0  0  0  0  0  0
   19.9844  -12.0387  -17.0898 C   0  0  1  0  0  0  0  0  0  0  0  0
   18.8139  -11.5454  -17.9148 C   0  0  0  0  0  0  0  0  0  0  0  0
   18.3320  -12.9033  -19.0378 S   0  0  0  0  0  0  0  0  0  0  0  0
   20.5599  -10.9047  -16.2882 C   0  0  0  0  0  0  0  0  0  0  0  0
   19.9836  -10.4822  -15.2552 O   0  0  0  0  0  0  0  0  0  0  0  0
   25.9232   -9.9053  -15.2146 C   0  0  0  0  0  0  0  0  0  0  0  0
   24.4206   -9.9710  -15.0634 C   0  0  1  0  0  0  0  0  0  0  0  0
   24.0837   -9.9135  -13.6189 C   0  0  0  0  0  0  0  0  0  0  0  0
   23.7129   -8.9694  -15.9233 C   0  0  0  0  0  0  0  0  0  0  0  0
   22.2257   -9.1152  -15.9794 C   0  0  2  0  0  0  0  0  0  0  0  0
   21.7674  -10.2780  -16.6712 N   0  0  0  0  0  0  0  0  0  0  0  0
   21.7158   -7.9248  -16.7535 C   0  0  0  0  0  0  0  0  0  0  0  0
   21.5163   -7.9628  -17.9931 O   0  0  0  0  0  0  0  0  0  0  0  0
   18.3399   -5.2499  -17.3507 O   0  0  0  0  0  0  0  0  0  0  0  0
   19.1629   -6.2786  -16.8690 C   0  0  0  0  0  0  0  0  0  0  0  0
   20.5699   -5.6968  -16.6910 C   0  0  2  0  0  0  0  0  0  0  0  0
   21.4367   -6.6935  -16.0989 N   0  0  0  0  0  0  0  0  0  0  0  0
   20.5404   -4.4438  -15.9191 C   0  0  0  0  0  0  0  0  0  0  0  0
   20.4070   -3.2054  -16.5182 O   0  0  0  0  0  0  0  0  0  0  0  0
   20.6390   -4.4865  -14.6698 O   0  0  0  0  0  0  0  0  0  0  0  0
  2  5  1  0
  2  3  1  0
  2  1  1  1
  4  3  1  0
  5  6  2  0
  8  7  1  1
  8  9  1  0
  8 10  1  0
 11 10  1  6
 11 12  1  0
 11 13  1  0
 12  5  1  0
 13 18  1  0
 13 14  2  0
 16 15  1  0
 17 16  1  1
 18 17  1  0
 19 20  1  0
 19 17  1  0
 21 19  2  0
M  END
$$$$
