CLS.pdb
     RDKit          3D

 21 20  0  0  1  0  0  0  0  0999 V2000
   20.5583  -10.3333  -20.3900 N   0  0  0  0  0  0  0  0  0  0  0  0
   19.7310  -10.4595  -19.2282 C   0  0  1  0  0  0  0  0  0  0  0  0
   19.2218  -11.8840  -19.1522 C   0  0  0  0  0  0  0  0  0  0  0  0
   18.1154  -12.1410  -20.5828 S   0  0  0  0  0  0  0  0  0  0  0  0
   20.4918  -10.1202  -17.9770 C   0  0  0  0  0  0  0  0  0  0  0  0
   19.8974   -9.9370  -16.8857 O   0  0  0  0  0  0  0  0  0  0  0  0
   24.1434  -10.3637  -14.2733 C   0  0  0  0  0  0  0  0  0  0  0  0
   24.7778   -9.7660  -15.5083 C   0  0  1  0  0  0  0  0  0  0  0  0
   26.2204  -10.1154  -15.5200 C   0  0  0  0  0  0  0  0  0  0  0  0
   24.0293  -10.1067  -16.7602 C   0  0  0  0  0  0  0  0  0  0  0  0
   22.6025   -9.6600  -16.7913 C   0  0  2  0  0  0  0  0  0  0  0  0
   21.8996   -9.9964  -17.9886 N   0  0  0  0  0  0  0  0  0  0  0  0
   22.6323   -8.1534  -16.7184 C   0  0  0  0  0  0  0  0  0  0  0  0
   23.1141   -7.4440  -17.6363 O   0  0  0  0  0  0  0  0  0  0  0  0
   20.7063   -4.1251  -15.9340 O   0  0  0  0  0  0  0  0  0  0  0  0
   20.7212   -5.5214  -16.0683 C   0  0  0  0  0  0  0  0  0  0  0  0
   22.0664   -6.0209  -15.5294 C   0  0  2  0  0  0  0  0  0  0  0  0
   22.1073   -7.4667  -15.5891 N   0  0  0  0  0  0  0  0  0  0  0  0
   22.3297   -5.5039  -14.1766 C   0  0  0  0  0  0  0  0  0  0  0  0
   22.9147   -4.2718  -13.9533 O   0  0  0  0  0  0  0  0  0  0  0  0
   22.0166   -6.1970  -13.1797 O   0  0  0  0  0  0  0  0  0  0  0  0
  2  5  1  0
  2  3  1  0
  2  1  1  6
  4  3  1  0
  5  6  2  0
  8  7  1  1
  8  9  1  0
  8 10  1  0
 11 10  1  6
 11 12  1  0
 11 13  1  0
 12  5  1  0
 13 18  1  0
 13 14  2  0
 16 15  1  0
 17 16  1  1
 18 17  1  0
 19 20  1  0
 19 17  1  0
 21 19  2  0
M  END
$$$$
