CLS.pdb
     RDKit          3D

 21 20  0  0  1  0  0  0  0  0999 V2000
   34.9053   -8.5922  -14.6415 N   0  0  0  0  0  0  0  0  0  0  0  0
   35.3954   -9.5011  -15.6333 C   0  0  1  0  0  0  0  0  0  0  0  0
   35.5390  -10.8706  -15.0024 C   0  0  0  0  0  0  0  0  0  0  0  0
   36.9313  -10.7806  -13.8232 S   0  0  0  0  0  0  0  0  0  0  0  0
   34.4658   -9.5755  -16.8123 C   0  0  0  0  0  0  0  0  0  0  0  0
   34.7594  -10.2531  -17.8285 O   0  0  0  0  0  0  0  0  0  0  0  0
   28.8819  -10.4269  -17.0292 C   0  0  0  0  0  0  0  0  0  0  0  0
   30.3329  -10.4336  -17.4530 C   0  0  1  0  0  0  0  0  0  0  0  0
   30.4737  -11.2891  -18.6579 C   0  0  0  0  0  0  0  0  0  0  0  0
   30.8997   -9.0532  -17.5815 C   0  0  0  0  0  0  0  0  0  0  0  0
   32.3514   -8.9906  -17.9348 C   0  0  2  0  0  0  0  0  0  0  0  0
   33.2323   -8.8856  -16.8151 N   0  0  0  0  0  0  0  0  0  0  0  0
   32.5327   -7.7308  -18.7448 C   0  0  0  0  0  0  0  0  0  0  0  0
   32.7251   -6.6095  -18.2122 O   0  0  0  0  0  0  0  0  0  0  0  0
   34.4183   -7.6712  -22.2253 O   0  0  0  0  0  0  0  0  0  0  0  0
   33.1994   -6.9909  -22.3652 C   0  0  0  0  0  0  0  0  0  0  0  0
   32.7380   -6.5808  -20.9622 C   0  0  2  0  0  0  0  0  0  0  0  0
   32.4922   -7.7645  -20.1659 N   0  0  0  0  0  0  0  0  0  0  0  0
   31.5703   -5.6864  -21.0197 C   0  0  0  0  0  0  0  0  0  0  0  0
   31.6876   -4.3240  -21.2205 O   0  0  0  0  0  0  0  0  0  0  0  0
   30.4194   -6.1651  -20.8830 O   0  0  0  0  0  0  0  0  0  0  0  0
  2  5  1  0
  2  3  1  0
  2  1  1  1
  4  3  1  0
  5  6  2  0
  8  7  1  6
  8  9  1  0
  8 10  1  0
 11 10  1  1
 11 12  1  0
 11 13  1  0
 12  5  1  0
 13 18  1  0
 13 14  2  0
 16 15  1  0
 17 16  1  6
 18 17  1  0
 19 20  1  0
 19 17  1  0
 21 19  2  0
M  END
$$$$
