CLS.pdb
     RDKit          3D

 21 20  0  0  1  0  0  0  0  0999 V2000
   28.8285  -20.1322  -15.7518 N   0  0  0  0  0  0  0  0  0  0  0  0
   27.8617  -19.3641  -15.0269 C   0  0  1  0  0  0  0  0  0  0  0  0
   27.3039  -18.2991  -15.9482 C   0  0  0  0  0  0  0  0  0  0  0  0
   26.2746  -17.1860  -14.9290 S   0  0  0  0  0  0  0  0  0  0  0  0
   26.7472  -20.2331  -14.5146 C   0  0  0  0  0  0  0  0  0  0  0  0
   26.3677  -21.2457  -15.1537 O   0  0  0  0  0  0  0  0  0  0  0  0
   25.7375  -20.5871   -8.9605 C   0  0  0  0  0  0  0  0  0  0  0  0
   26.0517  -20.8588  -10.4139 C   0  0  1  0  0  0  0  0  0  0  0  0
   26.7265  -22.1769  -10.5176 C   0  0  0  0  0  0  0  0  0  0  0  0
   24.8585  -20.6820  -11.3019 C   0  0  0  0  0  0  0  0  0  0  0  0
   25.1230  -20.8436  -12.7647 C   0  0  2  0  0  0  0  0  0  0  0  0
   26.0910  -19.9385  -13.2980 N   0  0  0  0  0  0  0  0  0  0  0  0
   23.8203  -20.5414  -13.4632 C   0  0  0  0  0  0  0  0  0  0  0  0
   23.3650  -19.3750  -13.5639 O   0  0  0  0  0  0  0  0  0  0  0  0
   20.0711  -22.1911  -16.0521 O   0  0  0  0  0  0  0  0  0  0  0  0
   21.3125  -22.5119  -15.4829 C   0  0  0  0  0  0  0  0  0  0  0  0
   21.7293  -21.3340  -14.5948 C   0  0  2  0  0  0  0  0  0  0  0  0
   23.0447  -21.5823  -14.0439 N   0  0  0  0  0  0  0  0  0  0  0  0
   20.7237  -21.0618  -13.5550 C   0  0  0  0  0  0  0  0  0  0  0  0
   20.9888  -21.2153  -12.2072 O   0  0  0  0  0  0  0  0  0  0  0  0
   19.5789  -20.6752  -13.8902 O   0  0  0  0  0  0  0  0  0  0  0  0
  2  5  1  0
  2  3  1  0
  2  1  1  6
  4  3  1  0
  5  6  2  0
  8  7  1  1
  8  9  1  0
  8 10  1  0
 11 10  1  1
 11 12  1  0
 11 13  1  0
 12  5  1  0
 13 18  1  0
 13 14  2  0
 16 15  1  0
 17 16  1  1
 18 17  1  0
 19 20  1  0
 19 17  1  0
 21 19  2  0
M  END
$$$$
