CLS.pdb
     RDKit          3D

 21 20  0  0  1  0  0  0  0  0999 V2000
   21.3818  -12.6850  -18.6433 N   0  0  0  0  0  0  0  0  0  0  0  0
   22.0002  -11.4461  -19.0075 C   0  0  1  0  0  0  0  0  0  0  0  0
   21.0288  -10.6549  -19.8587 C   0  0  0  0  0  0  0  0  0  0  0  0
   21.0343  -11.4037  -21.5250 S   0  0  0  0  0  0  0  0  0  0  0  0
   22.3826  -10.6489  -17.7917 C   0  0  0  0  0  0  0  0  0  0  0  0
   21.6509  -10.6313  -16.7708 O   0  0  0  0  0  0  0  0  0  0  0  0
   27.7305  -10.0987  -16.2998 C   0  0  0  0  0  0  0  0  0  0  0  0
   26.2372  -10.3333  -16.2863 C   0  0  1  0  0  0  0  0  0  0  0  0
   25.8977  -11.1774  -15.1133 C   0  0  0  0  0  0  0  0  0  0  0  0
   25.4552   -9.0613  -16.4040 C   0  0  0  0  0  0  0  0  0  0  0  0
   23.9778   -9.2332  -16.5572 C   0  0  2  0  0  0  0  0  0  0  0  0
   23.5770   -9.8941  -17.7586 N   0  0  0  0  0  0  0  0  0  0  0  0
   23.3968   -7.8421  -16.6168 C   0  0  0  0  0  0  0  0  0  0  0  0
   23.5561   -7.0876  -17.6083 O   0  0  0  0  0  0  0  0  0  0  0  0
   19.8709   -6.9600  -15.3133 O   0  0  0  0  0  0  0  0  0  0  0  0
   20.7368   -6.0046  -14.7608 C   0  0  0  0  0  0  0  0  0  0  0  0
   22.0225   -6.0119  -15.5954 C   0  0  2  0  0  0  0  0  0  0  0  0
   22.6340   -7.3227  -15.5348 N   0  0  0  0  0  0  0  0  0  0  0  0
   22.9413   -4.9404  -15.1779 C   0  0  0  0  0  0  0  0  0  0  0  0
   22.6059   -3.6019  -15.2569 O   0  0  0  0  0  0  0  0  0  0  0  0
   24.0745   -5.2387  -14.7316 O   0  0  0  0  0  0  0  0  0  0  0  0
  2  5  1  0
  2  3  1  0
  2  1  1  1
  4  3  1  0
  5  6  2  0
  8  7  1  1
  8  9  1  0
  8 10  1  0
 11 10  1  6
 11 12  1  0
 11 13  1  0
 12  5  1  0
 13 18  1  0
 13 14  2  0
 16 15  1  0
 17 16  1  1
 18 17  1  0
 19 20  1  0
 19 17  1  0
 21 19  2  0
M  END
$$$$
