CLS.pdb
     RDKit          3D

 21 20  0  0  1  0  0  0  0  0999 V2000
   20.6020  -20.1516  -12.9730 N   0  0  0  0  0  0  0  0  0  0  0  0
   21.5572  -21.2114  -12.8533 C   0  0  1  0  0  0  0  0  0  0  0  0
   21.1034  -22.3687  -13.7188 C   0  0  0  0  0  0  0  0  0  0  0  0
   19.7866  -23.2450  -12.8049 S   0  0  0  0  0  0  0  0  0  0  0  0
   22.9275  -20.7615  -13.2772 C   0  0  0  0  0  0  0  0  0  0  0  0
   23.0785  -19.9238  -14.2009 O   0  0  0  0  0  0  0  0  0  0  0  0
   28.0278  -19.3985  -13.0375 C   0  0  0  0  0  0  0  0  0  0  0  0
   27.8691  -20.8448  -12.6275 C   0  0  1  0  0  0  0  0  0  0  0  0
   28.9718  -21.2012  -11.6998 C   0  0  0  0  0  0  0  0  0  0  0  0
   26.4911  -21.1518  -12.1273 C   0  0  0  0  0  0  0  0  0  0  0  0
   25.3827  -20.8415  -13.0819 C   0  0  2  0  0  0  0  0  0  0  0  0
   24.0890  -21.2666  -12.6502 N   0  0  0  0  0  0  0  0  0  0  0  0
   25.6887  -21.6086  -14.3446 C   0  0  0  0  0  0  0  0  0  0  0  0
   25.7179  -22.8638  -14.3797 O   0  0  0  0  0  0  0  0  0  0  0  0
   24.2039  -21.3709  -17.7653 O   0  0  0  0  0  0  0  0  0  0  0  0
   25.5612  -21.0763  -17.9627 C   0  0  0  0  0  0  0  0  0  0  0  0
   26.3336  -21.6434  -16.7662 C   0  0  2  0  0  0  0  0  0  0  0  0
   25.9604  -20.9289  -15.5639 N   0  0  0  0  0  0  0  0  0  0  0  0
   27.7858  -21.6258  -17.0058 C   0  0  0  0  0  0  0  0  0  0  0  0
   28.5310  -22.7824  -17.1368 O   0  0  0  0  0  0  0  0  0  0  0  0
   28.3826  -20.5267  -17.0968 O   0  0  0  0  0  0  0  0  0  0  0  0
  2  5  1  0
  2  3  1  0
  2  1  1  6
  4  3  1  0
  5  6  2  0
  8  7  1  1
  8  9  1  0
  8 10  1  0
 11 10  1  1
 11 12  1  0
 11 13  1  0
 12  5  1  0
 13 18  1  0
 13 14  2  0
 16 15  1  0
 17 16  1  6
 18 17  1  0
 19 20  1  0
 19 17  1  0
 21 19  2  0
M  END
$$$$
