CLS.pdb
     RDKit          3D

 21 20  0  0  1  0  0  0  0  0999 V2000
   26.0705  -19.5793  -16.9584 N   0  0  0  0  0  0  0  0  0  0  0  0
   25.1503  -19.0159  -16.0172 C   0  0  1  0  0  0  0  0  0  0  0  0
   24.0919  -18.2465  -16.7802 C   0  0  0  0  0  0  0  0  0  0  0  0
   24.8810  -16.7277  -17.4189 S   0  0  0  0  0  0  0  0  0  0  0  0
   24.5033  -20.0838  -15.1802 C   0  0  0  0  0  0  0  0  0  0  0  0
   24.2024  -21.2000  -15.6715 O   0  0  0  0  0  0  0  0  0  0  0  0
   25.4298  -20.5993   -9.6538 C   0  0  0  0  0  0  0  0  0  0  0  0
   25.2469  -20.9085  -11.1222 C   0  0  1  0  0  0  0  0  0  0  0  0
   25.8829  -22.2171  -11.4168 C   0  0  0  0  0  0  0  0  0  0  0  0
   23.8212  -20.7792  -11.5628 C   0  0  0  0  0  0  0  0  0  0  0  0
   23.5966  -20.8937  -13.0367 C   0  0  2  0  0  0  0  0  0  0  0  0
   24.2132  -19.8661  -13.8143 N   0  0  0  0  0  0  0  0  0  0  0  0
   22.1087  -20.7585  -13.2468 C   0  0  0  0  0  0  0  0  0  0  0  0
   21.4859  -19.6984  -12.9896 O   0  0  0  0  0  0  0  0  0  0  0  0
   18.1129  -22.4178  -15.3334 O   0  0  0  0  0  0  0  0  0  0  0  0
   19.5011  -22.5524  -15.1830 C   0  0  0  0  0  0  0  0  0  0  0  0
   19.9116  -21.7364  -13.9520 C   0  0  2  0  0  0  0  0  0  0  0  0
   21.3413  -21.8438  -13.7523 N   0  0  0  0  0  0  0  0  0  0  0  0
   19.1435  -22.1353  -12.7613 C   0  0  0  0  0  0  0  0  0  0  0  0
   17.8634  -21.6761  -12.5152 O   0  0  0  0  0  0  0  0  0  0  0  0
   19.6577  -22.9210  -11.9303 O   0  0  0  0  0  0  0  0  0  0  0  0
  2  5  1  0
  2  3  1  0
  2  1  1  6
  4  3  1  0
  5  6  2  0
  8  7  1  1
  8  9  1  0
  8 10  1  0
 11 10  1  1
 11 12  1  0
 11 13  1  0
 12  5  1  0
 13 18  1  0
 13 14  2  0
 16 15  1  0
 17 16  1  6
 18 17  1  0
 19 20  1  0
 19 17  1  0
 21 19  2  0
M  END
$$$$
