CLS.pdb
     RDKit          3D

 21 20  0  0  1  0  0  0  0  0999 V2000
   20.6139  -12.7648  -18.1028 N   0  0  0  0  0  0  0  0  0  0  0  0
   20.9332  -11.4220  -18.4835 C   0  0  1  0  0  0  0  0  0  0  0  0
   19.6740  -10.7545  -18.9964 C   0  0  0  0  0  0  0  0  0  0  0  0
   20.1459   -9.0940  -19.5942 S   0  0  0  0  0  0  0  0  0  0  0  0
   21.4896  -10.6437  -17.3241 C   0  0  0  0  0  0  0  0  0  0  0  0
   20.9034  -10.6263  -16.2132 O   0  0  0  0  0  0  0  0  0  0  0  0
   26.8385  -10.4832  -15.8975 C   0  0  0  0  0  0  0  0  0  0  0  0
   25.3276  -10.5234  -15.8734 C   0  0  1  0  0  0  0  0  0  0  0  0
   24.8864  -11.0930  -14.5755 C   0  0  0  0  0  0  0  0  0  0  0  0
   24.7125   -9.2061  -16.2335 C   0  0  0  0  0  0  0  0  0  0  0  0
   23.2199   -9.2027  -16.3228 C   0  0  2  0  0  0  0  0  0  0  0  0
   22.6894   -9.9069  -17.4468 N   0  0  0  0  0  0  0  0  0  0  0  0
   22.8121   -7.7595  -16.4874 C   0  0  0  0  0  0  0  0  0  0  0  0
   23.0086   -7.1212  -17.5513 O   0  0  0  0  0  0  0  0  0  0  0  0
   19.7667   -6.1564  -14.4460 O   0  0  0  0  0  0  0  0  0  0  0  0
   20.2701   -5.5512  -15.6071 C   0  0  0  0  0  0  0  0  0  0  0  0
   21.7981   -5.6640  -15.5589 C   0  0  2  0  0  0  0  0  0  0  0  0
   22.1790   -7.0543  -15.4270 N   0  0  0  0  0  0  0  0  0  0  0  0
   22.3668   -4.8194  -14.4960 C   0  0  0  0  0  0  0  0  0  0  0  0
   22.2000   -3.4476  -14.4684 O   0  0  0  0  0  0  0  0  0  0  0  0
   23.0301   -5.3511  -13.5742 O   0  0  0  0  0  0  0  0  0  0  0  0
  2  5  1  0
  2  3  1  0
  2  1  1  1
  4  3  1  0
  5  6  2  0
  8  7  1  1
  8  9  1  0
  8 10  1  0
 11 10  1  6
 11 12  1  0
 11 13  1  0
 12  5  1  0
 13 18  1  0
 13 14  2  0
 16 15  1  0
 17 16  1  1
 18 17  1  0
 19 20  1  0
 19 17  1  0
 21 19  2  0
M  END
$$$$
