CLS.pdb
     RDKit          3D

 21 20  0  0  1  0  0  0  0  0999 V2000
   28.2315  -18.5691  -16.3389 N   0  0  0  0  0  0  0  0  0  0  0  0
   27.3913  -18.1859  -15.2446 C   0  0  1  0  0  0  0  0  0  0  0  0
   26.5660  -16.9884  -15.6676 C   0  0  0  0  0  0  0  0  0  0  0  0
   26.6190  -15.7823  -14.2965 S   0  0  0  0  0  0  0  0  0  0  0  0
   26.4854  -19.3122  -14.8317 C   0  0  0  0  0  0  0  0  0  0  0  0
   26.3368  -20.3254  -15.5592 O   0  0  0  0  0  0  0  0  0  0  0  0
   25.9839  -20.7124   -9.4585 C   0  0  0  0  0  0  0  0  0  0  0  0
   26.1600  -20.7694  -10.9588 C   0  0  1  0  0  0  0  0  0  0  0  0
   26.8625  -22.0292  -11.3090 C   0  0  0  0  0  0  0  0  0  0  0  0
   24.8791  -20.5275  -11.6966 C   0  0  0  0  0  0  0  0  0  0  0  0
   25.0130  -20.3972  -13.1803 C   0  0  2  0  0  0  0  0  0  0  0  0
   25.7724  -19.2670  -13.6123 N   0  0  0  0  0  0  0  0  0  0  0  0
   23.6145  -20.2055  -13.7130 C   0  0  0  0  0  0  0  0  0  0  0  0
   23.1538  -19.0736  -14.0035 O   0  0  0  0  0  0  0  0  0  0  0  0
   19.3536  -20.0298  -14.1211 O   0  0  0  0  0  0  0  0  0  0  0  0
   20.6779  -20.0600  -13.6595 C   0  0  0  0  0  0  0  0  0  0  0  0
   21.4124  -21.1556  -14.4404 C   0  0  2  0  0  0  0  0  0  0  0  0
   22.7497  -21.3170  -13.9103 N   0  0  0  0  0  0  0  0  0  0  0  0
   21.4076  -20.8810  -15.8865 C   0  0  0  0  0  0  0  0  0  0  0  0
   22.5046  -20.3614  -16.5474 O   0  0  0  0  0  0  0  0  0  0  0  0
   20.3758  -21.1228  -16.5568 O   0  0  0  0  0  0  0  0  0  0  0  0
  2  5  1  0
  2  3  1  0
  2  1  1  6
  4  3  1  0
  5  6  2  0
  8  7  1  1
  8  9  1  0
  8 10  1  0
 11 10  1  1
 11 12  1  0
 11 13  1  0
 12  5  1  0
 13 18  1  0
 13 14  2  0
 16 15  1  0
 17 16  1  1
 18 17  1  0
 19 20  1  0
 19 17  1  0
 21 19  2  0
M  END
$$$$
