CLS.pdb
     RDKit          3D

 21 20  0  0  1  0  0  0  0  0999 V2000
   17.5691  -11.6816  -17.0322 N   0  0  0  0  0  0  0  0  0  0  0  0
   18.2238  -10.4903  -17.4820 C   0  0  1  0  0  0  0  0  0  0  0  0
   17.1669   -9.4821  -17.8830 C   0  0  0  0  0  0  0  0  0  0  0  0
   16.4065  -10.0814  -19.4322 S   0  0  0  0  0  0  0  0  0  0  0  0
   19.1022   -9.9117  -16.4082 C   0  0  0  0  0  0  0  0  0  0  0  0
   18.6956   -9.8058  -15.2243 O   0  0  0  0  0  0  0  0  0  0  0  0
   24.2671  -11.3905  -15.5014 C   0  0  0  0  0  0  0  0  0  0  0  0
   22.8387  -10.9238  -15.3380 C   0  0  1  0  0  0  0  0  0  0  0  0
   22.3663  -11.3000  -13.9820 C   0  0  0  0  0  0  0  0  0  0  0  0
   22.6619   -9.4804  -15.6969 C   0  0  0  0  0  0  0  0  0  0  0  0
   21.2537   -8.9797  -15.6497 C   0  0  2  0  0  0  0  0  0  0  0  0
   20.4129   -9.4685  -16.6961 N   0  0  0  0  0  0  0  0  0  0  0  0
   21.3337   -7.4834  -15.8252 C   0  0  0  0  0  0  0  0  0  0  0  0
   21.5444   -6.9464  -16.9410 O   0  0  0  0  0  0  0  0  0  0  0  0
   19.9347   -3.1847  -14.7458 O   0  0  0  0  0  0  0  0  0  0  0  0
   19.8336   -4.5757  -14.5952 C   0  0  0  0  0  0  0  0  0  0  0  0
   21.2200   -5.1698  -14.8681 C   0  0  2  0  0  0  0  0  0  0  0  0
   21.1709   -6.6085  -14.7158 N   0  0  0  0  0  0  0  0  0  0  0  0
   22.2490   -4.5470  -14.0196 C   0  0  0  0  0  0  0  0  0  0  0  0
   22.9350   -3.4086  -14.3987 O   0  0  0  0  0  0  0  0  0  0  0  0
   22.5239   -5.0579  -12.9079 O   0  0  0  0  0  0  0  0  0  0  0  0
  2  5  1  0
  2  3  1  0
  2  1  1  1
  4  3  1  0
  5  6  2  0
  8  7  1  1
  8  9  1  0
  8 10  1  0
 11 10  1  6
 11 12  1  0
 11 13  1  0
 12  5  1  0
 13 18  1  0
 13 14  2  0
 16 15  1  0
 17 16  1  1
 18 17  1  0
 19 20  1  0
 19 17  1  0
 21 19  2  0
M  END
$$$$
