CLS.pdb
     RDKit          3D

 21 20  0  0  1  0  0  0  0  0999 V2000
   27.7537  -18.6796  -16.0667 N   0  0  0  0  0  0  0  0  0  0  0  0
   26.8444  -18.3721  -15.0042 C   0  0  1  0  0  0  0  0  0  0  0  0
   25.8692  -17.3217  -15.4939 C   0  0  0  0  0  0  0  0  0  0  0  0
   26.5706  -15.6900  -15.0662 S   0  0  0  0  0  0  0  0  0  0  0  0
   26.0960  -19.5960  -14.5551 C   0  0  0  0  0  0  0  0  0  0  0  0
   26.1073  -20.6504  -15.2377 O   0  0  0  0  0  0  0  0  0  0  0  0
   25.8207  -20.6528   -9.1655 C   0  0  0  0  0  0  0  0  0  0  0  0
   25.9934  -20.7345  -10.6650 C   0  0  1  0  0  0  0  0  0  0  0  0
   27.0338  -21.7482  -10.9707 C   0  0  0  0  0  0  0  0  0  0  0  0
   24.6922  -20.9199  -11.3833 C   0  0  0  0  0  0  0  0  0  0  0  0
   24.7649  -20.8086  -12.8727 C   0  0  2  0  0  0  0  0  0  0  0  0
   25.3561  -19.5992  -13.3510 N   0  0  0  0  0  0  0  0  0  0  0  0
   23.3385  -20.8143  -13.3646 C   0  0  0  0  0  0  0  0  0  0  0  0
   22.5041  -21.6797  -13.0003 O   0  0  0  0  0  0  0  0  0  0  0  0
   21.3951  -17.6056  -14.3517 O   0  0  0  0  0  0  0  0  0  0  0  0
   20.6647  -18.8029  -14.3227 C   0  0  0  0  0  0  0  0  0  0  0  0
   21.5672  -19.9060  -14.8872 C   0  0  2  0  0  0  0  0  0  0  0  0
   22.8761  -19.8241  -14.2745 N   0  0  0  0  0  0  0  0  0  0  0  0
   21.6273  -19.8526  -16.3569 C   0  0  0  0  0  0  0  0  0  0  0  0
   20.5121  -20.0346  -17.1529 O   0  0  0  0  0  0  0  0  0  0  0  0
   22.7253  -19.6345  -16.9218 O   0  0  0  0  0  0  0  0  0  0  0  0
  2  5  1  0
  2  3  1  0
  2  1  1  6
  4  3  1  0
  5  6  2  0
  8  7  1  1
  8  9  1  0
  8 10  1  0
 11 10  1  1
 11 12  1  0
 11 13  1  0
 12  5  1  0
 13 18  1  0
 13 14  2  0
 16 15  1  0
 17 16  1  1
 18 17  1  0
 19 20  1  0
 19 17  1  0
 21 19  2  0
M  END
$$$$
