CLS.pdb
     RDKit          3D

 21 20  0  0  1  0  0  0  0  0999 V2000
   28.2814  -20.7975  -15.7874 N   0  0  0  0  0  0  0  0  0  0  0  0
   27.4253  -19.8707  -15.1106 C   0  0  1  0  0  0  0  0  0  0  0  0
   26.8496  -18.9123  -16.1326 C   0  0  0  0  0  0  0  0  0  0  0  0
   28.1472  -17.6849  -16.5156 S   0  0  0  0  0  0  0  0  0  0  0  0
   26.3129  -20.5807  -14.3908 C   0  0  0  0  0  0  0  0  0  0  0  0
   25.8091  -21.6342  -14.8535 O   0  0  0  0  0  0  0  0  0  0  0  0
   25.6071  -20.2843   -8.7738 C   0  0  0  0  0  0  0  0  0  0  0  0
   25.7813  -20.7467  -10.2024 C   0  0  1  0  0  0  0  0  0  0  0  0
   26.1980  -22.1714  -10.1950 C   0  0  0  0  0  0  0  0  0  0  0  0
   24.5904  -20.4353  -11.0558 C   0  0  0  0  0  0  0  0  0  0  0  0
   24.7386  -20.7735  -12.5048 C   0  0  2  0  0  0  0  0  0  0  0  0
   25.7987  -20.0857  -13.1710 N   0  0  0  0  0  0  0  0  0  0  0  0
   23.4570  -20.3378  -13.1711 C   0  0  0  0  0  0  0  0  0  0  0  0
   23.2401  -19.1447  -13.4987 O   0  0  0  0  0  0  0  0  0  0  0  0
   21.1479  -22.9618  -15.2128 O   0  0  0  0  0  0  0  0  0  0  0  0
   21.0509  -21.5818  -15.4452 C   0  0  0  0  0  0  0  0  0  0  0  0
   21.1888  -20.8766  -14.0911 C   0  0  2  0  0  0  0  0  0  0  0  0
   22.4281  -21.2764  -13.4588 N   0  0  0  0  0  0  0  0  0  0  0  0
   20.0151  -21.1184  -13.2364 C   0  0  0  0  0  0  0  0  0  0  0  0
   18.7356  -20.7546  -13.6117 O   0  0  0  0  0  0  0  0  0  0  0  0
   20.1670  -21.6746  -12.1229 O   0  0  0  0  0  0  0  0  0  0  0  0
  2  5  1  0
  2  3  1  0
  2  1  1  6
  4  3  1  0
  5  6  2  0
  8  7  1  1
  8  9  1  0
  8 10  1  0
 11 10  1  1
 11 12  1  0
 11 13  1  0
 12  5  1  0
 13 18  1  0
 13 14  2  0
 16 15  1  0
 17 16  1  6
 18 17  1  0
 19 20  1  0
 19 17  1  0
 21 19  2  0
M  END
$$$$
