CLS.pdb
     RDKit          3D

 21 20  0  0  1  0  0  0  0  0999 V2000
   20.8992  -14.3665  -16.8323 N   0  0  0  0  0  0  0  0  0  0  0  0
   21.0602  -13.1458  -17.5630 C   0  0  1  0  0  0  0  0  0  0  0  0
   19.7895  -12.8805  -18.3434 C   0  0  0  0  0  0  0  0  0  0  0  0
   19.7490  -14.0665  -19.7323 S   0  0  0  0  0  0  0  0  0  0  0  0
   21.3461  -11.9923  -16.6424 C   0  0  0  0  0  0  0  0  0  0  0  0
   20.6294  -11.7736  -15.6343 O   0  0  0  0  0  0  0  0  0  0  0  0
   26.4994   -9.8390  -15.5742 C   0  0  0  0  0  0  0  0  0  0  0  0
   25.0985  -10.3917  -15.4437 C   0  0  1  0  0  0  0  0  0  0  0  0
   24.8660  -10.7724  -14.0279 C   0  0  0  0  0  0  0  0  0  0  0  0
   24.0656   -9.4840  -16.0375 C   0  0  0  0  0  0  0  0  0  0  0  0
   22.6656  -10.0087  -16.0124 C   0  0  2  0  0  0  0  0  0  0  0  0
   22.4300  -11.1175  -16.8818 N   0  0  0  0  0  0  0  0  0  0  0  0
   21.7866   -8.8841  -16.5010 C   0  0  0  0  0  0  0  0  0  0  0  0
   21.6552   -8.6131  -17.7204 O   0  0  0  0  0  0  0  0  0  0  0  0
   18.0593   -6.0232  -15.7011 O   0  0  0  0  0  0  0  0  0  0  0  0
   18.8190   -7.1493  -15.3510 C   0  0  0  0  0  0  0  0  0  0  0  0
   20.1838   -7.0143  -16.0357 C   0  0  2  0  0  0  0  0  0  0  0  0
   21.0608   -8.0740  -15.5847 N   0  0  0  0  0  0  0  0  0  0  0  0
   20.7609   -5.6764  -15.8267 C   0  0  0  0  0  0  0  0  0  0  0  0
   20.2386   -4.5417  -16.4183 O   0  0  0  0  0  0  0  0  0  0  0  0
   21.7644   -5.5464  -15.0862 O   0  0  0  0  0  0  0  0  0  0  0  0
  2  5  1  0
  2  3  1  0
  2  1  1  1
  4  3  1  0
  5  6  2  0
  8  7  1  1
  8  9  1  0
  8 10  1  0
 11 10  1  6
 11 12  1  0
 11 13  1  0
 12  5  1  0
 13 18  1  0
 13 14  2  0
 16 15  1  0
 17 16  1  1
 18 17  1  0
 19 20  1  0
 19 17  1  0
 21 19  2  0
M  END
$$$$
