CLS.pdb
     RDKit          3D

 21 20  0  0  1  0  0  0  0  0999 V2000
   19.2034  -11.6256  -19.3087 N   0  0  0  0  0  0  0  0  0  0  0  0
   20.0518  -10.4722  -19.2994 C   0  0  1  0  0  0  0  0  0  0  0  0
   19.3676   -9.3650  -20.0741 C   0  0  0  0  0  0  0  0  0  0  0  0
   19.4242   -9.8251  -21.8411 S   0  0  0  0  0  0  0  0  0  0  0  0
   20.3360  -10.0151  -17.8959 C   0  0  0  0  0  0  0  0  0  0  0  0
   19.4316   -9.9947  -17.0244 O   0  0  0  0  0  0  0  0  0  0  0  0
   24.1773  -12.0427  -14.7845 C   0  0  0  0  0  0  0  0  0  0  0  0
   22.9070  -11.3872  -15.2760 C   0  0  1  0  0  0  0  0  0  0  0  0
   21.8053  -11.7194  -14.3382 C   0  0  0  0  0  0  0  0  0  0  0  0
   23.0863   -9.9269  -15.5570 C   0  0  0  0  0  0  0  0  0  0  0  0
   21.8986   -9.2422  -16.1542 C   0  0  2  0  0  0  0  0  0  0  0  0
   21.6294   -9.5939  -17.5123 N   0  0  0  0  0  0  0  0  0  0  0  0
   22.2160   -7.7673  -16.1462 C   0  0  0  0  0  0  0  0  0  0  0  0
   23.0521   -7.2540  -16.9306 O   0  0  0  0  0  0  0  0  0  0  0  0
   19.5745   -5.0308  -14.9647 O   0  0  0  0  0  0  0  0  0  0  0  0
   20.7031   -4.6600  -15.7107 C   0  0  0  0  0  0  0  0  0  0  0  0
   21.8900   -5.4756  -15.1854 C   0  0  2  0  0  0  0  0  0  0  0  0
   21.5702   -6.8865  -15.2353 N   0  0  0  0  0  0  0  0  0  0  0  0
   22.2922   -5.0350  -13.8398 C   0  0  0  0  0  0  0  0  0  0  0  0
   22.7381   -3.7527  -13.5806 O   0  0  0  0  0  0  0  0  0  0  0  0
   22.2333   -5.8431  -12.8829 O   0  0  0  0  0  0  0  0  0  0  0  0
  2  5  1  0
  2  3  1  0
  2  1  1  1
  4  3  1  0
  5  6  2  0
  8  7  1  1
  8  9  1  0
  8 10  1  0
 11 10  1  6
 11 12  1  0
 11 13  1  0
 12  5  1  0
 13 18  1  0
 13 14  2  0
 16 15  1  0
 17 16  1  1
 18 17  1  0
 19 20  1  0
 19 17  1  0
 21 19  2  0
M  END
$$$$
