CLS.pdb
     RDKit          3D

 21 20  0  0  1  0  0  0  0  0999 V2000
   17.7235  -11.3675  -17.3089 N   0  0  0  0  0  0  0  0  0  0  0  0
   18.5828  -10.3438  -17.8227 C   0  0  1  0  0  0  0  0  0  0  0  0
   17.7250   -9.2693  -18.4582 C   0  0  0  0  0  0  0  0  0  0  0  0
   16.9819   -9.9892  -19.9638 S   0  0  0  0  0  0  0  0  0  0  0  0
   19.4302   -9.7457  -16.7347 C   0  0  0  0  0  0  0  0  0  0  0  0
   18.9468   -9.4851  -15.6049 O   0  0  0  0  0  0  0  0  0  0  0  0
   24.6961  -11.3008  -15.8528 C   0  0  0  0  0  0  0  0  0  0  0  0
   23.2702  -10.8704  -15.5948 C   0  0  1  0  0  0  0  0  0  0  0  0
   22.8940  -11.2690  -14.2153 C   0  0  0  0  0  0  0  0  0  0  0  0
   23.0366   -9.4289  -15.9278 C   0  0  0  0  0  0  0  0  0  0  0  0
   21.6097   -8.9850  -15.8724 C   0  0  2  0  0  0  0  0  0  0  0  0
   20.7972   -9.4576  -16.9481 N   0  0  0  0  0  0  0  0  0  0  0  0
   21.6334   -7.4803  -15.9796 C   0  0  0  0  0  0  0  0  0  0  0  0
   21.8670   -6.8857  -17.0612 O   0  0  0  0  0  0  0  0  0  0  0  0
   19.3315   -5.0839  -13.8927 O   0  0  0  0  0  0  0  0  0  0  0  0
   20.0525   -4.6326  -15.0082 C   0  0  0  0  0  0  0  0  0  0  0  0
   21.4652   -5.2195  -14.9109 C   0  0  2  0  0  0  0  0  0  0  0  0
   21.3880   -6.6634  -14.8416 N   0  0  0  0  0  0  0  0  0  0  0  0
   22.2126   -4.6392  -13.7834 C   0  0  0  0  0  0  0  0  0  0  0  0
   22.5304   -3.2958  -13.7160 O   0  0  0  0  0  0  0  0  0  0  0  0
   22.5813   -5.3800  -12.8413 O   0  0  0  0  0  0  0  0  0  0  0  0
  2  5  1  0
  2  3  1  0
  2  1  1  1
  4  3  1  0
  5  6  2  0
  8  7  1  1
  8  9  1  0
  8 10  1  0
 11 10  1  6
 11 12  1  0
 11 13  1  0
 12  5  1  0
 13 18  1  0
 13 14  2  0
 16 15  1  0
 17 16  1  1
 18 17  1  0
 19 20  1  0
 19 17  1  0
 21 19  2  0
M  END
$$$$
