CLS.pdb
     RDKit          3D

 21 20  0  0  1  0  0  0  0  0999 V2000
   27.2741  -34.6925   -5.1675 N   0  0  0  0  0  0  0  0  0  0  0  0
   26.2219  -34.8607   -4.2111 C   0  0  1  0  0  0  0  0  0  0  0  0
   26.2242  -36.3006   -3.7410 C   0  0  0  0  0  0  0  0  0  0  0  0
   24.8105  -36.5008   -2.6015 S   0  0  0  0  0  0  0  0  0  0  0  0
   26.3988  -33.9386   -3.0373 C   0  0  0  0  0  0  0  0  0  0  0  0
   27.5410  -33.6737   -2.5865 O   0  0  0  0  0  0  0  0  0  0  0  0
   23.1504  -29.4468   -2.0357 C   0  0  0  0  0  0  0  0  0  0  0  0
   24.3119  -30.3954   -2.2252 C   0  0  1  0  0  0  0  0  0  0  0  0
   25.5474  -29.6003   -2.4368 C   0  0  0  0  0  0  0  0  0  0  0  0
   24.3947  -31.4254   -1.1408 C   0  0  0  0  0  0  0  0  0  0  0  0
   25.4778  -32.4425   -1.3091 C   0  0  2  0  0  0  0  0  0  0  0  0
   25.2861  -33.3404   -2.4036 N   0  0  0  0  0  0  0  0  0  0  0  0
   25.4639  -33.2824   -0.0559 C   0  0  0  0  0  0  0  0  0  0  0  0
   24.5732  -34.1385    0.1713 O   0  0  0  0  0  0  0  0  0  0  0  0
   27.8003  -34.6304    3.9709 O   0  0  0  0  0  0  0  0  0  0  0  0
   27.7963  -33.7369    2.8895 C   0  0  0  0  0  0  0  0  0  0  0  0
   26.4603  -33.9070    2.1574 C   0  0  2  0  0  0  0  0  0  0  0  0
   26.4752  -33.1348    0.9330 N   0  0  0  0  0  0  0  0  0  0  0  0
   25.3228  -33.5650    3.0268 C   0  0  0  0  0  0  0  0  0  0  0  0
   24.8853  -34.3979    4.0393 O   0  0  0  0  0  0  0  0  0  0  0  0
   24.7184  -32.4801    2.8536 O   0  0  0  0  0  0  0  0  0  0  0  0
  2  5  1  0
  2  3  1  0
  2  1  1  6
  4  3  1  0
  5  6  2  0
  8  7  1  1
  8  9  1  0
  8 10  1  0
 11 10  1  1
 11 12  1  0
 11 13  1  0
 12  5  1  0
 13 18  1  0
 13 14  2  0
 16 15  1  0
 17 16  1  1
 18 17  1  0
 19 20  1  0
 19 17  1  0
 21 19  2  0
M  END
$$$$
