VLL.pdb
     RDKit          3D

 24 23  0  0  1  0  0  0  0  0999 V2000
    8.2743  -19.1248   19.6041 C   0  0  0  0  0  0  0  0  0  0  0  0
    8.8948  -17.9110   20.2503 C   0  0  2  0  0  0  0  0  0  0  0  0
   10.3727  -17.9003   19.9120 C   0  0  0  0  0  0  0  0  0  0  0  0
    8.7739  -17.9951   21.7611 C   0  0  2  0  0  0  0  0  0  0  0  0
    7.3701  -18.1498   22.0782 N   0  0  0  0  0  0  0  0  0  0  0  0
    9.3230  -16.8185   22.4479 C   0  0  0  0  0  0  0  0  0  0  0  0
   10.5260  -16.5153   22.3040 O   0  0  0  0  0  0  0  0  0  0  0  0
    6.3079  -12.6485   25.5058 C   0  0  0  0  0  0  0  0  0  0  0  0
    7.3698  -13.7755   25.5449 C   0  0  1  0  0  0  0  0  0  0  0  0
    6.5633  -15.0214   25.8904 C   0  0  0  0  0  0  0  0  0  0  0  0
    7.9516  -13.8204   24.1835 C   0  0  0  0  0  0  0  0  0  0  0  0
    9.0403  -14.7894   23.9120 C   0  0  2  0  0  0  0  0  0  0  0  0
    8.5542  -15.9703   23.2951 N   0  0  0  0  0  0  0  0  0  0  0  0
    9.9422  -15.0248   25.0550 C   0  0  0  0  0  0  0  0  0  0  0  0
   10.8505  -14.2351   25.4228 O   0  0  0  0  0  0  0  0  0  0  0  0
   11.2569  -13.7469   28.0451 C   0  0  0  0  0  0  0  0  0  0  0  0
   10.0344  -14.6075   28.3640 C   0  0  2  0  0  0  0  0  0  0  0  0
    9.5459  -14.2461   29.7404 C   0  0  0  0  0  0  0  0  0  0  0  0
   10.3700  -16.0671   28.2660 C   0  0  0  0  0  0  0  0  0  0  0  0
   10.6835  -16.5751   26.9132 C   0  0  2  0  0  0  0  0  0  0  0  0
    9.8233  -16.2231   25.8424 N   0  0  0  0  0  0  0  0  0  0  0  0
   10.9212  -18.0423   27.0135 C   0  0  0  0  0  0  0  0  0  0  0  0
   10.3648  -18.9603   26.1453 O   0  0  0  0  0  0  0  0  0  0  0  0
   11.6633  -18.4617   27.9322 O   0  0  0  0  0  0  0  0  0  0  0  0
  2  1  1  6
  3  2  1  0
  4  6  1  0
  4  2  1  0
  4  5  1  6
  6  7  2  0
  9  8  1  6
  9 11  1  0
  9 10  1  0
 12 11  1  1
 13 12  1  0
 13  6  1  0
 14 12  1  0
 14 15  2  0
 17 16  1  1
 17 19  1  0
 18 17  1  0
 20 19  1  1
 20 21  1  0
 20 22  1  0
 21 14  1  0
 22 24  2  0
 22 23  1  0
M  END
$$$$
