VLL.pdb
     RDKit          3D

 24 23  0  0  1  0  0  0  0  0999 V2000
    9.8879  -18.7351   22.1283 C   0  0  0  0  0  0  0  0  0  0  0  0
    8.3990  -18.5056   22.2088 C   0  0  2  0  0  0  0  0  0  0  0  0
    7.7192  -19.4893   21.2766 C   0  0  0  0  0  0  0  0  0  0  0  0
    8.0516  -17.1082   21.7285 C   0  0  2  0  0  0  0  0  0  0  0  0
    8.5564  -16.9731   20.3786 N   0  0  0  0  0  0  0  0  0  0  0  0
    8.6053  -16.0518   22.5858 C   0  0  0  0  0  0  0  0  0  0  0  0
    9.7180  -15.5503   22.3206 O   0  0  0  0  0  0  0  0  0  0  0  0
    5.3122  -12.9084   25.9782 C   0  0  0  0  0  0  0  0  0  0  0  0
    6.3081  -13.2262   24.8351 C   0  0  1  0  0  0  0  0  0  0  0  0
    6.7182  -11.8521   24.3194 C   0  0  0  0  0  0  0  0  0  0  0  0
    7.4234  -13.9628   25.4733 C   0  0  0  0  0  0  0  0  0  0  0  0
    8.4698  -14.5521   24.6041 C   0  0  2  0  0  0  0  0  0  0  0  0
    7.9402  -15.5417   23.7371 N   0  0  0  0  0  0  0  0  0  0  0  0
    9.6942  -14.9589   25.3187 C   0  0  0  0  0  0  0  0  0  0  0  0
   10.7927  -14.3475   25.2590 O   0  0  0  0  0  0  0  0  0  0  0  0
   10.8435  -13.6900   28.3347 C   0  0  0  0  0  0  0  0  0  0  0  0
   10.1976  -15.0219   28.7161 C   0  0  2  0  0  0  0  0  0  0  0  0
   10.0058  -15.0459   30.2083 C   0  0  0  0  0  0  0  0  0  0  0  0
   11.0392  -16.1746   28.2519 C   0  0  0  0  0  0  0  0  0  0  0  0
   10.8244  -16.6195   26.8583 C   0  0  2  0  0  0  0  0  0  0  0  0
    9.6940  -16.1276   26.1577 N   0  0  0  0  0  0  0  0  0  0  0  0
   10.9312  -18.1051   26.8252 C   0  0  0  0  0  0  0  0  0  0  0  0
    9.9724  -18.9204   26.2577 O   0  0  0  0  0  0  0  0  0  0  0  0
   11.9422  -18.6389   27.3386 O   0  0  0  0  0  0  0  0  0  0  0  0
  2  1  1  6
  3  2  1  0
  4  6  1  0
  4  2  1  0
  4  5  1  6
  6  7  2  0
  9  8  1  1
  9 11  1  0
  9 10  1  0
 12 11  1  1
 13 12  1  0
 13  6  1  0
 14 12  1  0
 14 15  2  0
 17 16  1  1
 17 19  1  0
 18 17  1  0
 20 19  1  1
 20 21  1  0
 20 22  1  0
 21 14  1  0
 22 24  2  0
 22 23  1  0
M  END
$$$$
