VLL.pdb
     RDKit          3D

 24 23  0  0  1  0  0  0  0  0999 V2000
    7.8954  -19.1110   25.0989 C   0  0  0  0  0  0  0  0  0  0  0  0
    6.6865  -19.1425   24.1970 C   0  0  2  0  0  0  0  0  0  0  0  0
    5.8946  -20.3961   24.5133 C   0  0  0  0  0  0  0  0  0  0  0  0
    7.1127  -19.2277   22.7426 C   0  0  2  0  0  0  0  0  0  0  0  0
    7.8503  -20.4620   22.5760 N   0  0  0  0  0  0  0  0  0  0  0  0
    7.9314  -18.0853   22.3158 C   0  0  0  0  0  0  0  0  0  0  0  0
    9.1712  -18.1144   22.4642 O   0  0  0  0  0  0  0  0  0  0  0  0
    8.8288  -13.7532   19.1092 C   0  0  0  0  0  0  0  0  0  0  0  0
    7.9733  -13.4377   20.3614 C   0  0  1  0  0  0  0  0  0  0  0  0
    6.9807  -12.3920   19.8680 C   0  0  0  0  0  0  0  0  0  0  0  0
    7.3289  -14.7180   20.7351 C   0  0  0  0  0  0  0  0  0  0  0  0
    8.1204  -15.7099   21.5016 C   0  0  2  0  0  0  0  0  0  0  0  0
    7.3929  -16.9067   21.7248 N   0  0  0  0  0  0  0  0  0  0  0  0
    8.7793  -15.1633   22.7024 C   0  0  0  0  0  0  0  0  0  0  0  0
    9.8114  -14.4432   22.6857 O   0  0  0  0  0  0  0  0  0  0  0  0
    5.9520  -12.2944   27.1028 C   0  0  0  0  0  0  0  0  0  0  0  0
    7.3081  -12.8600   26.6810 C   0  0  2  0  0  0  0  0  0  0  0  0
    8.2410  -11.7092   26.4181 C   0  0  0  0  0  0  0  0  0  0  0  0
    7.1664  -13.7392   25.4729 C   0  0  0  0  0  0  0  0  0  0  0  0
    8.3449  -14.5603   25.1218 C   0  0  2  0  0  0  0  0  0  0  0  0
    8.2514  -15.4382   24.0123 N   0  0  0  0  0  0  0  0  0  0  0  0
    8.8252  -15.2338   26.3608 C   0  0  0  0  0  0  0  0  0  0  0  0
    9.2011  -16.5615   26.4035 O   0  0  0  0  0  0  0  0  0  0  0  0
    8.8903  -14.5597   27.4154 O   0  0  0  0  0  0  0  0  0  0  0  0
  2  1  1  1
  3  2  1  0
  4  6  1  0
  4  2  1  0
  4  5  1  1
  6  7  2  0
  9  8  1  6
  9 11  1  0
  9 10  1  0
 12 11  1  1
 13 12  1  0
 13  6  1  0
 14 12  1  0
 14 15  2  0
 17 16  1  6
 17 19  1  0
 18 17  1  0
 20 19  1  1
 20 21  1  0
 20 22  1  0
 21 14  1  0
 22 24  2  0
 22 23  1  0
M  END
$$$$
