VLL.pdb
     RDKit          3D

 24 23  0  0  1  0  0  0  0  0999 V2000
    5.9197  -20.5833   22.7176 C   0  0  0  0  0  0  0  0  0  0  0  0
    6.8035  -19.3832   22.9515 C   0  0  2  0  0  0  0  0  0  0  0  0
    6.0851  -18.4468   23.9032 C   0  0  0  0  0  0  0  0  0  0  0  0
    7.0277  -18.6294   21.6532 C   0  0  2  0  0  0  0  0  0  0  0  0
    7.4582  -19.5902   20.6599 N   0  0  0  0  0  0  0  0  0  0  0  0
    8.0167  -17.5506   21.7785 C   0  0  0  0  0  0  0  0  0  0  0  0
    9.2328  -17.8236   21.8590 O   0  0  0  0  0  0  0  0  0  0  0  0
    7.0824  -12.4844   19.6820 C   0  0  0  0  0  0  0  0  0  0  0  0
    7.7108  -13.8739   19.9535 C   0  0  1  0  0  0  0  0  0  0  0  0
    8.8875  -13.9345   18.9872 C   0  0  0  0  0  0  0  0  0  0  0  0
    8.1280  -13.8503   21.3746 C   0  0  0  0  0  0  0  0  0  0  0  0
    8.6038  -15.1113   21.9922 C   0  0  2  0  0  0  0  0  0  0  0  0
    7.6751  -16.1686   21.8160 N   0  0  0  0  0  0  0  0  0  0  0  0
    9.1026  -14.9607   23.3720 C   0  0  0  0  0  0  0  0  0  0  0  0
   10.2451  -14.5288   23.6754 O   0  0  0  0  0  0  0  0  0  0  0  0
    8.5256  -11.9487   26.4201 C   0  0  0  0  0  0  0  0  0  0  0  0
    7.3572  -12.9003   26.1632 C   0  0  2  0  0  0  0  0  0  0  0  0
    6.1302  -12.3344   26.8250 C   0  0  0  0  0  0  0  0  0  0  0  0
    7.6698  -14.2775   26.6717 C   0  0  0  0  0  0  0  0  0  0  0  0
    8.5997  -15.0809   25.8495 C   0  0  2  0  0  0  0  0  0  0  0  0
    8.2705  -15.3162   24.4906 N   0  0  0  0  0  0  0  0  0  0  0  0
    8.9186  -16.3290   26.5979 C   0  0  0  0  0  0  0  0  0  0  0  0
    9.4030  -16.3336   27.8907 O   0  0  0  0  0  0  0  0  0  0  0  0
    8.7374  -17.4280   26.0233 O   0  0  0  0  0  0  0  0  0  0  0  0
  2  1  1  6
  3  2  1  0
  4  6  1  0
  4  2  1  0
  4  5  1  6
  6  7  2  0
  9  8  1  6
  9 11  1  0
  9 10  1  0
 12 11  1  1
 13 12  1  0
 13  6  1  0
 14 12  1  0
 14 15  2  0
 17 16  1  1
 17 19  1  0
 18 17  1  0
 20 19  1  1
 20 21  1  0
 20 22  1  0
 21 14  1  0
 22 24  2  0
 22 23  1  0
M  END
$$$$
