VLL.pdb
     RDKit          3D

 24 23  0  0  1  0  0  0  0  0999 V2000
    9.0727  -21.1460   20.4161 C   0  0  0  0  0  0  0  0  0  0  0  0
    9.6462  -19.8231   20.8600 C   0  0  2  0  0  0  0  0  0  0  0  0
    9.9219  -19.9044   22.3487 C   0  0  0  0  0  0  0  0  0  0  0  0
    8.6377  -18.7093   20.6436 C   0  0  2  0  0  0  0  0  0  0  0  0
    8.2123  -18.7689   19.2614 N   0  0  0  0  0  0  0  0  0  0  0  0
    9.1767  -17.3783   20.9522 C   0  0  0  0  0  0  0  0  0  0  0  0
   10.3978  -17.1520   20.8196 O   0  0  0  0  0  0  0  0  0  0  0  0
    6.8722  -12.6861   19.5547 C   0  0  0  0  0  0  0  0  0  0  0  0
    7.8668  -13.8514   19.7839 C   0  0  1  0  0  0  0  0  0  0  0  0
    9.1125  -13.4201   19.0195 C   0  0  0  0  0  0  0  0  0  0  0  0
    8.0771  -13.9118   21.2488 C   0  0  0  0  0  0  0  0  0  0  0  0
    8.8843  -15.0257   21.8013 C   0  0  2  0  0  0  0  0  0  0  0  0
    8.3780  -16.2906   21.4073 N   0  0  0  0  0  0  0  0  0  0  0  0
    9.1764  -14.9071   23.2421 C   0  0  0  0  0  0  0  0  0  0  0  0
   10.2117  -14.3742   23.7197 O   0  0  0  0  0  0  0  0  0  0  0  0
    8.0636  -12.1693   26.5315 C   0  0  0  0  0  0  0  0  0  0  0  0
    7.0441  -13.1290   25.9179 C   0  0  2  0  0  0  0  0  0  0  0  0
    5.6665  -12.6815   26.3250 C   0  0  0  0  0  0  0  0  0  0  0  0
    7.3133  -14.5407   26.3508 C   0  0  0  0  0  0  0  0  0  0  0  0
    8.3825  -15.2544   25.6201 C   0  0  2  0  0  0  0  0  0  0  0  0
    8.2505  -15.4179   24.2178 N   0  0  0  0  0  0  0  0  0  0  0  0
    8.6567  -16.5329   26.3340 C   0  0  0  0  0  0  0  0  0  0  0  0
    9.0010  -16.5953   27.6695 O   0  0  0  0  0  0  0  0  0  0  0  0
    8.5701  -17.6035   25.6882 O   0  0  0  0  0  0  0  0  0  0  0  0
  2  1  1  1
  3  2  1  0
  4  6  1  0
  4  2  1  0
  4  5  1  6
  6  7  2  0
  9  8  1  1
  9 11  1  0
  9 10  1  0
 12 11  1  1
 13 12  1  0
 13  6  1  0
 14 12  1  0
 14 15  2  0
 17 16  1  1
 17 19  1  0
 18 17  1  0
 20 19  1  1
 20 21  1  0
 20 22  1  0
 21 14  1  0
 22 24  2  0
 22 23  1  0
M  END
$$$$
