VLL.pdb
     RDKit          3D

 24 23  0  0  1  0  0  0  0  0999 V2000
    8.7914  -21.0794   22.1542 C   0  0  0  0  0  0  0  0  0  0  0  0
    9.0956  -19.6964   22.6744 C   0  0  2  0  0  0  0  0  0  0  0  0
    8.9759  -19.7241   24.1856 C   0  0  0  0  0  0  0  0  0  0  0  0
    8.0761  -18.6990   22.1549 C   0  0  2  0  0  0  0  0  0  0  0  0
    7.9551  -18.9030   20.7270 N   0  0  0  0  0  0  0  0  0  0  0  0
    8.4398  -17.3046   22.4396 C   0  0  0  0  0  0  0  0  0  0  0  0
    8.3501  -16.4395   21.5433 O   0  0  0  0  0  0  0  0  0  0  0  0
    6.7742  -12.7758   23.3087 C   0  0  0  0  0  0  0  0  0  0  0  0
    7.2259  -13.5819   24.5519 C   0  0  1  0  0  0  0  0  0  0  0  0
    6.0359  -13.4845   25.4988 C   0  0  0  0  0  0  0  0  0  0  0  0
    7.4684  -14.9598   24.0652 C   0  0  0  0  0  0  0  0  0  0  0  0
    8.8409  -15.5117   24.1617 C   0  0  2  0  0  0  0  0  0  0  0  0
    8.9030  -16.8543   23.7088 N   0  0  0  0  0  0  0  0  0  0  0  0
    9.5007  -15.2743   25.4592 C   0  0  0  0  0  0  0  0  0  0  0  0
    9.7694  -14.1370   25.9265 O   0  0  0  0  0  0  0  0  0  0  0  0
   10.8293  -13.5943   28.0253 C   0  0  0  0  0  0  0  0  0  0  0  0
   10.4912  -14.9339   28.6795 C   0  0  2  0  0  0  0  0  0  0  0  0
   10.5527  -14.7613   30.1729 C   0  0  0  0  0  0  0  0  0  0  0  0
   11.4298  -16.0075   28.2116 C   0  0  0  0  0  0  0  0  0  0  0  0
   11.1754  -16.5533   26.8611 C   0  0  2  0  0  0  0  0  0  0  0  0
    9.8875  -16.3809   26.2934 N   0  0  0  0  0  0  0  0  0  0  0  0
   11.6385  -17.9690   26.8394 C   0  0  0  0  0  0  0  0  0  0  0  0
   10.8333  -19.0231   26.4566 O   0  0  0  0  0  0  0  0  0  0  0  0
   12.8179  -18.2129   27.1863 O   0  0  0  0  0  0  0  0  0  0  0  0
  2  1  1  6
  3  2  1  0
  4  6  1  0
  4  2  1  0
  4  5  1  6
  6  7  2  0
  9  8  1  6
  9 11  1  0
  9 10  1  0
 12 11  1  1
 13 12  1  0
 13  6  1  0
 14 12  1  0
 14 15  2  0
 17 16  1  6
 17 19  1  0
 18 17  1  0
 20 19  1  1
 20 21  1  0
 20 22  1  0
 21 14  1  0
 22 24  2  0
 22 23  1  0
M  END
$$$$
