VLL.pdb
     RDKit          3D

 24 23  0  0  1  0  0  0  0  0999 V2000
    7.1241  -20.9572   21.9259 C   0  0  0  0  0  0  0  0  0  0  0  0
    7.8739  -19.6909   22.2576 C   0  0  2  0  0  0  0  0  0  0  0  0
    7.2553  -19.0895   23.5044 C   0  0  0  0  0  0  0  0  0  0  0  0
    7.7215  -18.6765   21.1387 C   0  0  2  0  0  0  0  0  0  0  0  0
    8.0913  -19.3323   19.9024 N   0  0  0  0  0  0  0  0  0  0  0  0
    8.5389  -17.4727   21.3392 C   0  0  0  0  0  0  0  0  0  0  0  0
    9.7831  -17.5643   21.3979 O   0  0  0  0  0  0  0  0  0  0  0  0
    6.9739  -12.2953   19.8689 C   0  0  0  0  0  0  0  0  0  0  0  0
    7.8516  -13.5667   19.9800 C   0  0  1  0  0  0  0  0  0  0  0  0
    9.1184  -13.2003   19.2163 C   0  0  0  0  0  0  0  0  0  0  0  0
    8.0847  -13.7631   21.4295 C   0  0  0  0  0  0  0  0  0  0  0  0
    8.7306  -15.0202   21.8773 C   0  0  2  0  0  0  0  0  0  0  0  0
    7.9942  -16.1640   21.4761 N   0  0  0  0  0  0  0  0  0  0  0  0
    9.1367  -15.0222   23.2951 C   0  0  0  0  0  0  0  0  0  0  0  0
   10.3068  -14.8030   23.7033 O   0  0  0  0  0  0  0  0  0  0  0  0
    8.1815  -12.1296   26.5643 C   0  0  0  0  0  0  0  0  0  0  0  0
    7.0777  -13.1149   26.1801 C   0  0  2  0  0  0  0  0  0  0  0  0
    5.7982  -12.6737   26.8374 C   0  0  0  0  0  0  0  0  0  0  0  0
    7.4478  -14.5129   26.5816 C   0  0  0  0  0  0  0  0  0  0  0  0
    8.4337  -15.1997   25.7200 C   0  0  2  0  0  0  0  0  0  0  0  0
    8.1719  -15.2869   24.3291 N   0  0  0  0  0  0  0  0  0  0  0  0
    8.7502  -16.5175   26.3385 C   0  0  0  0  0  0  0  0  0  0  0  0
    8.7656  -17.7022   25.6297 O   0  0  0  0  0  0  0  0  0  0  0  0
    9.0152  -16.5499   27.5630 O   0  0  0  0  0  0  0  0  0  0  0  0
  2  1  1  6
  3  2  1  0
  4  6  1  0
  4  2  1  0
  4  5  1  6
  6  7  2  0
  9  8  1  1
  9 11  1  0
  9 10  1  0
 12 11  1  1
 13 12  1  0
 13  6  1  0
 14 12  1  0
 14 15  2  0
 17 16  1  1
 17 19  1  0
 18 17  1  0
 20 19  1  1
 20 21  1  0
 20 22  1  0
 21 14  1  0
 22 24  2  0
 22 23  1  0
M  END
$$$$
