VLL.pdb
     RDKit          3D

 24 23  0  0  1  0  0  0  0  0999 V2000
    7.3351  -13.8984   18.3673 C   0  0  0  0  0  0  0  0  0  0  0  0
    7.5890  -13.5479   19.8126 C   0  0  2  0  0  0  0  0  0  0  0  0
    8.4495  -12.3002   19.8510 C   0  0  0  0  0  0  0  0  0  0  0  0
    8.3650  -14.6578   20.4983 C   0  0  2  0  0  0  0  0  0  0  0  0
    7.5722  -15.8653   20.4061 N   0  0  0  0  0  0  0  0  0  0  0  0
    8.6745  -14.3594   21.9028 C   0  0  0  0  0  0  0  0  0  0  0  0
    9.6186  -13.5923   22.1857 O   0  0  0  0  0  0  0  0  0  0  0  0
    5.2336  -13.0714   26.0931 C   0  0  0  0  0  0  0  0  0  0  0  0
    6.3730  -13.0699   25.0438 C   0  0  1  0  0  0  0  0  0  0  0  0
    7.2734  -11.9236   25.4883 C   0  0  0  0  0  0  0  0  0  0  0  0
    7.0223  -14.3961   25.1606 C   0  0  0  0  0  0  0  0  0  0  0  0
    8.2471  -14.6555   24.3667 C   0  0  2  0  0  0  0  0  0  0  0  0
    7.9493  -14.9016   23.0021 N   0  0  0  0  0  0  0  0  0  0  0  0
    9.1696  -15.6318   24.9757 C   0  0  0  0  0  0  0  0  0  0  0  0
    9.6505  -16.6295   24.3779 O   0  0  0  0  0  0  0  0  0  0  0  0
   11.2662  -13.5875   27.9770 C   0  0  0  0  0  0  0  0  0  0  0  0
   10.5762  -14.6381   28.8469 C   0  0  2  0  0  0  0  0  0  0  0  0
   10.9955  -14.4207   30.2755 C   0  0  0  0  0  0  0  0  0  0  0  0
   10.9156  -16.0234   28.3796 C   0  0  0  0  0  0  0  0  0  0  0  0
   10.4184  -16.3997   27.0389 C   0  0  2  0  0  0  0  0  0  0  0  0
    9.5848  -15.4859   26.3455 N   0  0  0  0  0  0  0  0  0  0  0  0
    9.8371  -17.7685   27.1284 C   0  0  0  0  0  0  0  0  0  0  0  0
   10.5505  -18.8667   27.5655 O   0  0  0  0  0  0  0  0  0  0  0  0
    8.6411  -17.9285   26.7896 O   0  0  0  0  0  0  0  0  0  0  0  0
  2  1  1  6
  3  2  1  0
  4  6  1  0
  4  2  1  0
  4  5  1  1
  6  7  2  0
  9  8  1  1
  9 11  1  0
  9 10  1  0
 12 11  1  1
 13 12  1  0
 13  6  1  0
 14 12  1  0
 14 15  2  0
 17 16  1  6
 17 19  1  0
 18 17  1  0
 20 19  1  1
 20 21  1  0
 20 22  1  0
 21 14  1  0
 22 24  2  0
 22 23  1  0
M  END
$$$$
