VLL.pdb
     RDKit          3D

 24 23  0  0  1  0  0  0  0  0999 V2000
    9.5226  -16.7418   19.1686 C   0  0  0  0  0  0  0  0  0  0  0  0
    9.9440  -18.1675   19.4249 C   0  0  2  0  0  0  0  0  0  0  0  0
   10.4773  -18.7421   18.1271 C   0  0  0  0  0  0  0  0  0  0  0  0
    8.7486  -19.0072   19.8376 C   0  0  2  0  0  0  0  0  0  0  0  0
    7.8770  -19.1198   18.6875 N   0  0  0  0  0  0  0  0  0  0  0  0
    8.0150  -18.4412   20.9774 C   0  0  0  0  0  0  0  0  0  0  0  0
    7.1748  -17.5358   20.7928 O   0  0  0  0  0  0  0  0  0  0  0  0
    6.1676  -21.5735   25.0685 C   0  0  0  0  0  0  0  0  0  0  0  0
    6.2666  -20.5758   23.8876 C   0  0  1  0  0  0  0  0  0  0  0  0
    4.8203  -20.1672   23.6363 C   0  0  0  0  0  0  0  0  0  0  0  0
    7.1073  -19.4600   24.3798 C   0  0  0  0  0  0  0  0  0  0  0  0
    7.4673  -18.3763   23.4343 C   0  0  2  0  0  0  0  0  0  0  0  0
    8.2005  -18.8667   22.3238 N   0  0  0  0  0  0  0  0  0  0  0  0
    8.0528  -17.1831   24.0734 C   0  0  0  0  0  0  0  0  0  0  0  0
    9.2843  -17.0060   24.2630 O   0  0  0  0  0  0  0  0  0  0  0  0
    6.0775  -11.8338   26.8116 C   0  0  0  0  0  0  0  0  0  0  0  0
    7.2164  -12.7366   26.3377 C   0  0  2  0  0  0  0  0  0  0  0  0
    8.1475  -11.9178   25.4853 C   0  0  0  0  0  0  0  0  0  0  0  0
    6.6808  -13.9198   25.5855 C   0  0  0  0  0  0  0  0  0  0  0  0
    7.6615  -14.9707   25.2388 C   0  0  2  0  0  0  0  0  0  0  0  0
    7.2073  -16.1135   24.5329 N   0  0  0  0  0  0  0  0  0  0  0  0
    8.4294  -15.3111   26.4692 C   0  0  0  0  0  0  0  0  0  0  0  0
    8.0089  -16.2522   27.3877 O   0  0  0  0  0  0  0  0  0  0  0  0
    9.5102  -14.7123   26.6787 O   0  0  0  0  0  0  0  0  0  0  0  0
  2  1  1  6
  3  2  1  0
  4  6  1  0
  4  2  1  0
  4  5  1  6
  6  7  2  0
  9  8  1  1
  9 11  1  0
  9 10  1  0
 12 11  1  1
 13 12  1  0
 13  6  1  0
 14 12  1  0
 14 15  2  0
 17 16  1  6
 17 19  1  0
 18 17  1  0
 20 19  1  1
 20 21  1  0
 20 22  1  0
 21 14  1  0
 22 24  2  0
 22 23  1  0
M  END
$$$$
