VLL.pdb
     RDKit          3D

 24 23  0  0  1  0  0  0  0  0999 V2000
   10.2426  -19.7842   23.9924 C   0  0  0  0  0  0  0  0  0  0  0  0
    8.9586  -19.9559   23.2192 C   0  0  2  0  0  0  0  0  0  0  0  0
    8.6386  -21.4368   23.1596 C   0  0  0  0  0  0  0  0  0  0  0  0
    9.1308  -19.4692   21.7918 C   0  0  2  0  0  0  0  0  0  0  0  0
   10.1842  -20.2563   21.1868 N   0  0  0  0  0  0  0  0  0  0  0  0
    9.4533  -18.0387   21.7074 C   0  0  0  0  0  0  0  0  0  0  0  0
   10.6450  -17.6649   21.7152 O   0  0  0  0  0  0  0  0  0  0  0  0
    8.4787  -13.0542   19.4732 C   0  0  0  0  0  0  0  0  0  0  0  0
    7.8350  -13.3747   20.8452 C   0  0  1  0  0  0  0  0  0  0  0  0
    6.4874  -12.6655   20.7877 C   0  0  0  0  0  0  0  0  0  0  0  0
    7.7124  -14.8501   20.8916 C   0  0  0  0  0  0  0  0  0  0  0  0
    8.7493  -15.6227   21.6166 C   0  0  2  0  0  0  0  0  0  0  0  0
    8.4696  -17.0131   21.6142 N   0  0  0  0  0  0  0  0  0  0  0  0
    9.1015  -15.0733   22.9392 C   0  0  0  0  0  0  0  0  0  0  0  0
    9.6686  -13.9651   23.1245 O   0  0  0  0  0  0  0  0  0  0  0  0
    6.4018  -12.2099   26.3401 C   0  0  0  0  0  0  0  0  0  0  0  0
    7.6770  -13.0522   26.3045 C   0  0  2  0  0  0  0  0  0  0  0  0
    8.7447  -12.2666   25.5927 C   0  0  0  0  0  0  0  0  0  0  0  0
    7.4260  -14.3710   25.6333 C   0  0  0  0  0  0  0  0  0  0  0  0
    8.6108  -15.2289   25.4173 C   0  0  2  0  0  0  0  0  0  0  0  0
    8.8010  -15.8100   24.1380 N   0  0  0  0  0  0  0  0  0  0  0  0
    8.6704  -16.2231   26.5252 C   0  0  0  0  0  0  0  0  0  0  0  0
    9.4889  -16.0798   27.6277 O   0  0  0  0  0  0  0  0  0  0  0  0
    7.9404  -17.2391   26.4505 O   0  0  0  0  0  0  0  0  0  0  0  0
  2  1  1  1
  3  2  1  0
  4  6  1  0
  4  2  1  0
  4  5  1  1
  6  7  2  0
  9  8  1  6
  9 11  1  0
  9 10  1  0
 12 11  1  1
 13 12  1  0
 13  6  1  0
 14 12  1  0
 14 15  2  0
 17 16  1  6
 17 19  1  0
 18 17  1  0
 20 19  1  6
 20 21  1  0
 20 22  1  0
 21 14  1  0
 22 24  2  0
 22 23  1  0
M  END
$$$$
