WIN.pdb
     RDKit          3D

 31 32  0  0  1  0  0  0  0  0999 V2000
   28.6235  -20.7492  -15.6051 N   0  0  0  0  0  0  0  0  0  0  0  0
   27.6120  -20.0619  -14.8735 C   0  0  1  0  0  0  0  0  0  0  0  0
   26.6398  -19.5019  -15.8942 C   0  0  0  0  0  0  0  0  0  0  0  0
   27.1852  -18.3845  -16.6841 C   0  0  0  0  0  0  0  0  0  0  0  0
   27.7200  -18.4271  -17.9534 C   0  0  0  0  0  0  0  0  0  0  0  0
   28.0964  -17.1812  -18.3309 N   0  0  0  0  0  0  0  0  0  0  0  0
   27.8169  -16.3054  -17.3245 C   0  0  0  0  0  0  0  0  0  0  0  0
   27.9989  -14.9471  -17.2078 C   0  0  0  0  0  0  0  0  0  0  0  0
   27.6239  -14.2776  -16.0642 C   0  0  0  0  0  0  0  0  0  0  0  0
   27.0664  -15.0322  -15.0589 C   0  0  0  0  0  0  0  0  0  0  0  0
   26.8778  -16.3795  -15.1553 C   0  0  0  0  0  0  0  0  0  0  0  0
   27.2576  -17.0585  -16.3179 C   0  0  0  0  0  0  0  0  0  0  0  0
   26.8273  -20.9687  -13.9560 C   0  0  0  0  0  0  0  0  0  0  0  0
   26.5125  -22.1282  -14.3059 O   0  0  0  0  0  0  0  0  0  0  0  0
   26.9825  -20.3669   -8.4809 C   0  0  0  0  0  0  0  0  0  0  0  0
   26.7082  -21.2130   -9.7328 C   0  0  0  0  0  0  0  0  0  0  0  0
   25.4781  -20.7118  -10.3896 C   0  0  2  0  0  0  0  0  0  0  0  0
   24.2709  -21.2227   -9.6338 C   0  0  0  0  0  0  0  0  0  0  0  0
   25.3707  -20.9730  -11.8678 C   0  0  2  0  0  0  0  0  0  0  0  0
   26.4317  -20.5212  -12.6685 N   0  0  0  0  0  0  0  0  0  0  0  0
   23.9873  -20.7453  -12.3033 C   0  0  0  0  0  0  0  0  0  0  0  0
   23.7224  -19.4996  -12.5144 O   0  0  0  0  0  0  0  0  0  0  0  0
   19.8381  -21.1930  -16.1136 N   0  0  0  0  0  0  0  0  0  0  0  0
   20.0247  -21.9389  -14.9140 C   0  0  0  0  0  0  0  0  0  0  0  0
   18.9851  -22.4080  -14.3427 O   0  0  0  0  0  0  0  0  0  0  0  0
   21.3293  -22.1893  -14.3134 C   0  0  0  0  0  0  0  0  0  0  0  0
   21.6718  -21.2974  -13.1274 C   0  0  2  0  0  0  0  0  0  0  0  0
   22.9488  -21.6544  -12.5129 N   0  0  0  0  0  0  0  0  0  0  0  0
   20.5471  -21.3736  -12.1971 C   0  0  0  0  0  0  0  0  0  0  0  0
   19.4063  -20.6133  -12.3180 O   0  0  0  0  0  0  0  0  0  0  0  0
   20.5624  -22.1798  -11.1876 O   0  0  0  0  0  0  0  0  0  0  0  0
  2 13  1  0
  2  1  1  6
  2  3  1  0
  4  3  1  0
  4  5  2  0
  6  5  1  0
  7  6  1  0
  8  7  2  0
  9  8  1  0
 10  9  2  0
 10 11  1  0
 11 12  2  0
 12  7  1  0
 12  4  1  0
 13 14  2  0
 16 15  1  0
 17 16  1  0
 17 18  1  1
 19 17  1  0
 19 20  1  6
 20 13  1  0
 21 19  1  0
 22 21  2  0
 24 23  1  0
 24 26  1  0
 25 24  2  0
 27 26  1  6
 27 28  1  0
 28 21  1  0
 29 30  1  0
 29 27  1  0
 31 29  2  0
M  END
$$$$
