WIN.pdb
     RDKit          3D

 31 32  0  0  1  0  0  0  0  0999 V2000
   24.9285  -19.1982   -8.4929 N   0  0  0  0  0  0  0  0  0  0  0  0
   25.9576  -20.0261   -9.0282 C   0  0  1  0  0  0  0  0  0  0  0  0
   26.1414  -21.1765   -8.0570 C   0  0  0  0  0  0  0  0  0  0  0  0
   26.5475  -20.7544   -6.7053 C   0  0  0  0  0  0  0  0  0  0  0  0
   25.7357  -20.4101   -5.6464 C   0  0  0  0  0  0  0  0  0  0  0  0
   26.4984  -20.0954   -4.5714 N   0  0  0  0  0  0  0  0  0  0  0  0
   27.8141  -20.2273   -4.9026 C   0  0  0  0  0  0  0  0  0  0  0  0
   28.9696  -20.0333   -4.1823 C   0  0  0  0  0  0  0  0  0  0  0  0
   30.2048  -20.2392   -4.7554 C   0  0  0  0  0  0  0  0  0  0  0  0
   30.2186  -20.6426   -6.0699 C   0  0  0  0  0  0  0  0  0  0  0  0
   29.0843  -20.8403   -6.8008 C   0  0  0  0  0  0  0  0  0  0  0  0
   27.8300  -20.6324   -6.2174 C   0  0  0  0  0  0  0  0  0  0  0  0
   25.5989  -20.6223  -10.3682 C   0  0  0  0  0  0  0  0  0  0  0  0
   24.4103  -20.6752  -10.7559 O   0  0  0  0  0  0  0  0  0  0  0  0
   30.6383  -21.5260  -12.9044 C   0  0  0  0  0  0  0  0  0  0  0  0
   29.3804  -20.9268  -12.2586 C   0  0  0  0  0  0  0  0  0  0  0  0
   28.2094  -21.2382  -13.1116 C   0  0  2  0  0  0  0  0  0  0  0  0
   28.4504  -20.6902  -14.5012 C   0  0  0  0  0  0  0  0  0  0  0  0
   26.8704  -20.8217  -12.5649 C   0  0  2  0  0  0  0  0  0  0  0  0
   26.6108  -21.1350  -11.2214 N   0  0  0  0  0  0  0  0  0  0  0  0
   25.8349  -21.0623  -13.5775 C   0  0  0  0  0  0  0  0  0  0  0  0
   26.0348  -22.1405  -14.2587 O   0  0  0  0  0  0  0  0  0  0  0  0
   20.4271  -20.9213  -15.7865 N   0  0  0  0  0  0  0  0  0  0  0  0
   21.5577  -20.0843  -16.0135 C   0  0  0  0  0  0  0  0  0  0  0  0
   21.7062  -19.5970  -17.1829 O   0  0  0  0  0  0  0  0  0  0  0  0
   22.5422  -19.7611  -14.9878 C   0  0  0  0  0  0  0  0  0  0  0  0
   23.7184  -20.7246  -14.9011 C   0  0  2  0  0  0  0  0  0  0  0  0
   24.7017  -20.3140  -13.9008 N   0  0  0  0  0  0  0  0  0  0  0  0
   24.2804  -20.8344  -16.2458 C   0  0  0  0  0  0  0  0  0  0  0  0
   23.9514  -21.8374  -17.1288 O   0  0  0  0  0  0  0  0  0  0  0  0
   25.1359  -19.9739  -16.6897 O   0  0  0  0  0  0  0  0  0  0  0  0
  2 13  1  0
  2  1  1  1
  2  3  1  0
  4  3  1  0
  4  5  2  0
  6  5  1  0
  7  6  1  0
  8  7  2  0
  9  8  1  0
 10  9  2  0
 10 11  1  0
 11 12  2  0
 12  7  1  0
 12  4  1  0
 13 14  2  0
 16 15  1  0
 17 16  1  0
 17 18  1  6
 19 17  1  0
 19 20  1  1
 20 13  1  0
 21 19  1  0
 22 21  2  0
 24 23  1  0
 24 26  1  0
 25 24  2  0
 27 26  1  6
 27 28  1  0
 28 21  1  0
 29 30  1  0
 29 27  1  0
 31 29  2  0
M  END
$$$$
