WIN.pdb
     RDKit          3D

 31 32  0  0  1  0  0  0  0  0999 V2000
   26.4253  -20.4952  -16.9689 N   0  0  0  0  0  0  0  0  0  0  0  0
   26.2892  -19.9802  -15.6471 C   0  0  1  0  0  0  0  0  0  0  0  0
   25.5351  -18.6696  -15.7651 C   0  0  0  0  0  0  0  0  0  0  0  0
   26.1122  -17.7381  -16.7496 C   0  0  0  0  0  0  0  0  0  0  0  0
   25.4447  -16.9525  -17.6640 C   0  0  0  0  0  0  0  0  0  0  0  0
   26.3382  -16.2256  -18.3779 N   0  0  0  0  0  0  0  0  0  0  0  0
   27.5981  -16.5180  -17.9477 C   0  0  0  0  0  0  0  0  0  0  0  0
   28.8346  -16.0583  -18.3366 C   0  0  0  0  0  0  0  0  0  0  0  0
   29.9837  -16.5178  -17.7323 C   0  0  0  0  0  0  0  0  0  0  0  0
   29.8284  -17.4499  -16.7333 C   0  0  0  0  0  0  0  0  0  0  0  0
   28.6115  -17.9182  -16.3336 C   0  0  0  0  0  0  0  0  0  0  0  0
   27.4447  -17.4497  -16.9469 C   0  0  0  0  0  0  0  0  0  0  0  0
   25.4842  -20.8817  -14.7420 C   0  0  0  0  0  0  0  0  0  0  0  0
   24.7493  -21.7799  -15.2102 O   0  0  0  0  0  0  0  0  0  0  0  0
   25.8733  -20.5263   -8.7741 C   0  0  0  0  0  0  0  0  0  0  0  0
   25.3457  -20.1110  -10.1552 C   0  0  0  0  0  0  0  0  0  0  0  0
   25.1185  -21.3294  -10.9674 C   0  0  2  0  0  0  0  0  0  0  0  0
   26.3753  -22.1719  -10.9567 C   0  0  0  0  0  0  0  0  0  0  0  0
   24.6040  -21.1009  -12.3631 C   0  0  2  0  0  0  0  0  0  0  0  0
   25.5488  -20.7288  -13.3324 N   0  0  0  0  0  0  0  0  0  0  0  0
   23.3173  -20.3967  -12.2984 C   0  0  0  0  0  0  0  0  0  0  0  0
   23.3636  -19.2117  -12.8088 O   0  0  0  0  0  0  0  0  0  0  0  0
   19.4276  -17.9065  -14.8222 N   0  0  0  0  0  0  0  0  0  0  0  0
   19.6909  -19.1697  -14.2176 C   0  0  0  0  0  0  0  0  0  0  0  0
   18.7768  -20.0570  -14.2819 O   0  0  0  0  0  0  0  0  0  0  0  0
   20.9383  -19.4948  -13.5365 C   0  0  0  0  0  0  0  0  0  0  0  0
   20.8008  -20.4746  -12.3787 C   0  0  2  0  0  0  0  0  0  0  0  0
   22.0900  -20.8109  -11.7781 N   0  0  0  0  0  0  0  0  0  0  0  0
   20.0849  -21.6417  -12.8900 C   0  0  0  0  0  0  0  0  0  0  0  0
   18.8562  -21.5715  -13.5060 O   0  0  0  0  0  0  0  0  0  0  0  0
   20.5795  -22.8312  -12.7905 O   0  0  0  0  0  0  0  0  0  0  0  0
  2 13  1  0
  2  1  1  6
  2  3  1  0
  4  3  1  0
  4  5  2  0
  6  5  1  0
  7  6  1  0
  8  7  2  0
  9  8  1  0
 10  9  2  0
 10 11  1  0
 11 12  2  0
 12  7  1  0
 12  4  1  0
 13 14  2  0
 16 15  1  0
 17 16  1  0
 17 18  1  6
 19 17  1  0
 19 20  1  6
 20 13  1  0
 21 19  1  0
 22 21  2  0
 24 23  1  0
 24 26  1  0
 25 24  2  0
 27 26  1  6
 27 28  1  0
 28 21  1  0
 29 30  1  0
 29 27  1  0
 31 29  2  0
M  END
$$$$
