WIN.pdb
     RDKit          3D

 31 32  0  0  1  0  0  0  0  0999 V2000
   27.0242  -21.9404  -11.4424 N   0  0  0  0  0  0  0  0  0  0  0  0
   26.0945  -20.9624  -10.9840 C   0  0  1  0  0  0  0  0  0  0  0  0
   26.9101  -19.8317  -10.3866 C   0  0  0  0  0  0  0  0  0  0  0  0
   27.9129  -20.2767   -9.4036 C   0  0  0  0  0  0  0  0  0  0  0  0
   29.1139  -20.9073   -9.6460 C   0  0  0  0  0  0  0  0  0  0  0  0
   29.7527  -21.1365   -8.4730 N   0  0  0  0  0  0  0  0  0  0  0  0
   28.9889  -20.6635   -7.4479 C   0  0  0  0  0  0  0  0  0  0  0  0
   29.1817  -20.6476   -6.0863 C   0  0  0  0  0  0  0  0  0  0  0  0
   28.2409  -20.0982   -5.2438 C   0  0  0  0  0  0  0  0  0  0  0  0
   27.1131  -19.5749   -5.8313 C   0  0  0  0  0  0  0  0  0  0  0  0
   26.9035  -19.5812   -7.1789 C   0  0  0  0  0  0  0  0  0  0  0  0
   27.8603  -20.1381   -8.0341 C   0  0  0  0  0  0  0  0  0  0  0  0
   25.2591  -20.3748  -12.0960 C   0  0  0  0  0  0  0  0  0  0  0  0
   25.7712  -19.6451  -12.9742 O   0  0  0  0  0  0  0  0  0  0  0  0
   24.9395  -20.7940  -16.4254 C   0  0  0  0  0  0  0  0  0  0  0  0
   24.3945  -19.9763  -15.2453 C   0  0  0  0  0  0  0  0  0  0  0  0
   23.3184  -20.7502  -14.5827 C   0  0  2  0  0  0  0  0  0  0  0  0
   22.1098  -20.7945  -15.4919 C   0  0  0  0  0  0  0  0  0  0  0  0
   22.9599  -20.3134  -13.1879 C   0  0  2  0  0  0  0  0  0  0  0  0
   23.8673  -20.6437  -12.1690 N   0  0  0  0  0  0  0  0  0  0  0  0
   21.5219  -20.5135  -12.9695 C   0  0  0  0  0  0  0  0  0  0  0  0
   20.7920  -19.9856  -13.8942 O   0  0  0  0  0  0  0  0  0  0  0  0
   18.7698  -23.9532   -9.1088 N   0  0  0  0  0  0  0  0  0  0  0  0
   19.7335  -23.1526   -9.7876 C   0  0  0  0  0  0  0  0  0  0  0  0
   20.2031  -22.1415   -9.1677 O   0  0  0  0  0  0  0  0  0  0  0  0
   20.2038  -23.4278  -11.1399 C   0  0  0  0  0  0  0  0  0  0  0  0
   19.9600  -22.3093  -12.1442 C   0  0  2  0  0  0  0  0  0  0  0  0
   20.8516  -21.1702  -11.9359 N   0  0  0  0  0  0  0  0  0  0  0  0
   18.5453  -21.9538  -12.0522 C   0  0  0  0  0  0  0  0  0  0  0  0
   18.0963  -20.6857  -11.7620 O   0  0  0  0  0  0  0  0  0  0  0  0
   17.6171  -22.8318  -12.2449 O   0  0  0  0  0  0  0  0  0  0  0  0
  2 13  1  0
  2  1  1  6
  2  3  1  0
  4  3  1  0
  4  5  2  0
  6  5  1  0
  7  6  1  0
  8  7  2  0
  9  8  1  0
 10  9  2  0
 10 11  1  0
 11 12  2  0
 12  7  1  0
 12  4  1  0
 13 14  2  0
 16 15  1  0
 17 16  1  0
 17 18  1  6
 19 17  1  0
 19 20  1  1
 20 13  1  0
 21 19  1  0
 22 21  2  0
 24 23  1  0
 24 26  1  0
 25 24  2  0
 27 26  1  1
 27 28  1  0
 28 21  1  0
 29 30  1  0
 29 27  1  0
 31 29  2  0
M  END
$$$$
