WIN.pdb
     RDKit          3D

 31 32  0  0  1  0  0  0  0  0999 V2000
   23.9509   -5.9031  -17.5696 N   0  0  0  0  0  0  0  0  0  0  0  0
   22.9047   -6.1816  -16.6428 C   0  0  1  0  0  0  0  0  0  0  0  0
   21.7319   -5.3019  -17.0316 C   0  0  0  0  0  0  0  0  0  0  0  0
   21.9686   -3.8645  -16.8129 C   0  0  0  0  0  0  0  0  0  0  0  0
   22.2547   -2.9009  -17.7555 C   0  0  0  0  0  0  0  0  0  0  0  0
   22.3883   -1.6964  -17.1491 N   0  0  0  0  0  0  0  0  0  0  0  0
   22.1930   -1.8465  -15.8084 C   0  0  0  0  0  0  0  0  0  0  0  0
   22.2161   -0.9479  -14.7675 C   0  0  0  0  0  0  0  0  0  0  0  0
   21.9805   -1.3563  -13.4735 C   0  0  0  0  0  0  0  0  0  0  0  0
   21.7257   -2.6940  -13.2825 C   0  0  0  0  0  0  0  0  0  0  0  0
   21.6985   -3.6004  -14.3011 C   0  0  0  0  0  0  0  0  0  0  0  0
   21.9364   -3.1845  -15.6154 C   0  0  0  0  0  0  0  0  0  0  0  0
   22.4304   -7.6140  -16.7005 C   0  0  0  0  0  0  0  0  0  0  0  0
   22.2729   -8.2002  -17.7948 O   0  0  0  0  0  0  0  0  0  0  0  0
   24.0252  -11.1993  -16.0248 C   0  0  0  0  0  0  0  0  0  0  0  0
   23.7479  -10.6802  -14.6064 C   0  0  0  0  0  0  0  0  0  0  0  0
   22.2833  -10.5530  -14.4207 C   0  0  2  0  0  0  0  0  0  0  0  0
   21.6606  -11.9318  -14.4432 C   0  0  0  0  0  0  0  0  0  0  0  0
   21.5838   -9.6024  -15.3545 C   0  0  2  0  0  0  0  0  0  0  0  0
   22.1555   -8.3292  -15.5057 N   0  0  0  0  0  0  0  0  0  0  0  0
   20.1316   -9.7276  -15.1790 C   0  0  0  0  0  0  0  0  0  0  0  0
   19.8056  -10.3738  -14.1100 O   0  0  0  0  0  0  0  0  0  0  0  0
   14.8228   -9.6263  -15.2006 N   0  0  0  0  0  0  0  0  0  0  0  0
   15.3274   -8.8303  -16.2692 C   0  0  0  0  0  0  0  0  0  0  0  0
   14.4805   -8.2131  -16.9966 O   0  0  0  0  0  0  0  0  0  0  0  0
   16.7469   -8.6880  -16.5699 C   0  0  0  0  0  0  0  0  0  0  0  0
   17.6747   -9.5206  -15.6952 C   0  0  2  0  0  0  0  0  0  0  0  0
   19.0854   -9.2647  -15.9788 N   0  0  0  0  0  0  0  0  0  0  0  0
   17.2971  -10.9200  -15.8833 C   0  0  0  0  0  0  0  0  0  0  0  0
   16.5716  -11.6428  -14.9641 O   0  0  0  0  0  0  0  0  0  0  0  0
   17.6305  -11.5693  -16.9495 O   0  0  0  0  0  0  0  0  0  0  0  0
  2 13  1  0
  2  1  1  6
  2  3  1  0
  4  3  1  0
  4  5  2  0
  6  5  1  0
  7  6  1  0
  8  7  2  0
  9  8  1  0
 10  9  2  0
 10 11  1  0
 11 12  2  0
 12  7  1  0
 12  4  1  0
 13 14  2  0
 16 15  1  0
 17 16  1  0
 17 18  1  6
 19 17  1  0
 19 20  1  1
 20 13  1  0
 21 19  1  0
 22 21  2  0
 24 23  1  0
 24 26  1  0
 25 24  2  0
 27 26  1  6
 27 28  1  0
 28 21  1  0
 29 30  1  0
 29 27  1  0
 31 29  2  0
M  END
$$$$
