WIN.pdb
     RDKit          3D

 31 32  0  0  1  0  0  0  0  0999 V2000
   25.5426  -21.8203   -9.6052 N   0  0  0  0  0  0  0  0  0  0  0  0
   25.9189  -20.4541   -9.7564 C   0  0  1  0  0  0  0  0  0  0  0  0
   27.1638  -20.2489   -8.9146 C   0  0  0  0  0  0  0  0  0  0  0  0
   26.9344  -20.3991   -7.4673 C   0  0  0  0  0  0  0  0  0  0  0  0
   25.8385  -20.9467   -6.8364 C   0  0  0  0  0  0  0  0  0  0  0  0
   26.0211  -20.9113   -5.4941 N   0  0  0  0  0  0  0  0  0  0  0  0
   27.2309  -20.3452   -5.2221 C   0  0  0  0  0  0  0  0  0  0  0  0
   27.8806  -20.0835   -4.0384 C   0  0  0  0  0  0  0  0  0  0  0  0
   29.1244  -19.4923   -4.0286 C   0  0  0  0  0  0  0  0  0  0  0  0
   29.6724  -19.1811   -5.2508 C   0  0  0  0  0  0  0  0  0  0  0  0
   29.0443  -19.4324   -6.4349 C   0  0  0  0  0  0  0  0  0  0  0  0
   27.7815  -20.0344   -6.4441 C   0  0  0  0  0  0  0  0  0  0  0  0
   26.2738  -20.0931  -11.1788 C   0  0  0  0  0  0  0  0  0  0  0  0
   26.8759  -19.0290  -11.4457 O   0  0  0  0  0  0  0  0  0  0  0  0
   26.0443  -21.2670  -17.1600 C   0  0  0  0  0  0  0  0  0  0  0  0
   25.2684  -20.6801  -15.9718 C   0  0  0  0  0  0  0  0  0  0  0  0
   25.8573  -21.1956  -14.7135 C   0  0  2  0  0  0  0  0  0  0  0  0
   25.8589  -22.7082  -14.7519 C   0  0  0  0  0  0  0  0  0  0  0  0
   25.2547  -20.6638  -13.4411 C   0  0  2  0  0  0  0  0  0  0  0  0
   25.9318  -20.9617  -12.2480 N   0  0  0  0  0  0  0  0  0  0  0  0
   23.7943  -20.8028  -13.4988 C   0  0  0  0  0  0  0  0  0  0  0  0
   23.2854  -20.3409  -14.5916 O   0  0  0  0  0  0  0  0  0  0  0  0
   18.5673  -21.5313  -12.8525 N   0  0  0  0  0  0  0  0  0  0  0  0
   19.2251  -20.9509  -11.7297 C   0  0  0  0  0  0  0  0  0  0  0  0
   18.4957  -20.5176  -10.7772 O   0  0  0  0  0  0  0  0  0  0  0  0
   20.6735  -20.8282  -11.6166 C   0  0  0  0  0  0  0  0  0  0  0  0
   21.4602  -21.4190  -12.7791 C   0  0  2  0  0  0  0  0  0  0  0  0
   22.9046  -21.3437  -12.5690 N   0  0  0  0  0  0  0  0  0  0  0  0
   21.0202  -20.7259  -13.9884 C   0  0  0  0  0  0  0  0  0  0  0  0
   21.5105  -19.5030  -14.3859 O   0  0  0  0  0  0  0  0  0  0  0  0
   20.1269  -21.2370  -14.7695 O   0  0  0  0  0  0  0  0  0  0  0  0
  2 13  1  0
  2  1  1  6
  2  3  1  0
  4  3  1  0
  4  5  2  0
  6  5  1  0
  7  6  1  0
  8  7  2  0
  9  8  1  0
 10  9  2  0
 10 11  1  0
 11 12  2  0
 12  7  1  0
 12  4  1  0
 13 14  2  0
 16 15  1  0
 17 16  1  0
 17 18  1  1
 19 17  1  0
 19 20  1  1
 20 13  1  0
 21 19  1  0
 22 21  2  0
 24 23  1  0
 24 26  1  0
 25 24  2  0
 27 26  1  1
 27 28  1  0
 28 21  1  0
 29 30  1  0
 29 27  1  0
 31 29  2  0
M  END
$$$$
