WIN.pdb
     RDKit          3D

 31 32  0  0  1  0  0  0  0  0999 V2000
   25.6076  -21.1664  -16.4380 N   0  0  0  0  0  0  0  0  0  0  0  0
   25.2917  -20.3194  -15.3363 C   0  0  1  0  0  0  0  0  0  0  0  0
   23.8127  -20.0003  -15.4415 C   0  0  0  0  0  0  0  0  0  0  0  0
   23.4825  -19.0630  -16.5289 C   0  0  0  0  0  0  0  0  0  0  0  0
   24.3170  -18.5822  -17.5145 C   0  0  0  0  0  0  0  0  0  0  0  0
   23.6249  -17.7523  -18.3323 N   0  0  0  0  0  0  0  0  0  0  0  0
   22.3338  -17.6749  -17.9021 C   0  0  0  0  0  0  0  0  0  0  0  0
   21.2443  -16.9825  -18.3768 C   0  0  0  0  0  0  0  0  0  0  0  0
   20.0202  -17.0733  -17.7524 C   0  0  0  0  0  0  0  0  0  0  0  0
   19.9489  -17.8822  -16.6426 C   0  0  0  0  0  0  0  0  0  0  0  0
   21.0174  -18.5765  -16.1566 C   0  0  0  0  0  0  0  0  0  0  0  0
   22.2602  -18.4850  -16.7924 C   0  0  0  0  0  0  0  0  0  0  0  0
   25.5140  -20.9830  -13.9984 C   0  0  0  0  0  0  0  0  0  0  0  0
   24.9646  -22.0714  -13.7163 O   0  0  0  0  0  0  0  0  0  0  0  0
   30.3308  -20.8087  -11.2290 C   0  0  0  0  0  0  0  0  0  0  0  0
   28.9911  -21.1505  -11.8973 C   0  0  0  0  0  0  0  0  0  0  0  0
   27.8918  -20.5696  -11.0913 C   0  0  2  0  0  0  0  0  0  0  0  0
   27.9716  -21.1135   -9.6817 C   0  0  0  0  0  0  0  0  0  0  0  0
   26.5099  -20.7062  -11.6716 C   0  0  2  0  0  0  0  0  0  0  0  0
   26.3594  -20.3823  -13.0293 N   0  0  0  0  0  0  0  0  0  0  0  0
   25.5230  -20.2224  -10.6983 C   0  0  0  0  0  0  0  0  0  0  0  0
   25.4291  -18.9352  -10.6708 O   0  0  0  0  0  0  0  0  0  0  0  0
   20.7204  -18.8509   -9.6285 N   0  0  0  0  0  0  0  0  0  0  0  0
   21.0502  -20.0323  -10.3535 C   0  0  0  0  0  0  0  0  0  0  0  0
   20.0878  -20.7688  -10.7516 O   0  0  0  0  0  0  0  0  0  0  0  0
   22.4171  -20.4373  -10.6592 C   0  0  0  0  0  0  0  0  0  0  0  0
   23.3495  -20.5076   -9.4572 C   0  0  2  0  0  0  0  0  0  0  0  0
   24.6989  -20.9328   -9.8237 N   0  0  0  0  0  0  0  0  0  0  0  0
   22.7173  -21.3889   -8.4774 C   0  0  0  0  0  0  0  0  0  0  0  0
   23.3219  -22.5131   -7.9629 O   0  0  0  0  0  0  0  0  0  0  0  0
   21.5287  -21.1535   -8.0290 O   0  0  0  0  0  0  0  0  0  0  0  0
  2 13  1  0
  2  1  1  6
  2  3  1  0
  4  3  1  0
  4  5  2  0
  6  5  1  0
  7  6  1  0
  8  7  2  0
  9  8  1  0
 10  9  2  0
 10 11  1  0
 11 12  2  0
 12  7  1  0
 12  4  1  0
 13 14  2  0
 16 15  1  0
 17 16  1  0
 17 18  1  1
 19 17  1  0
 19 20  1  6
 20 13  1  0
 21 19  1  0
 22 21  2  0
 24 23  1  0
 24 26  1  0
 25 24  2  0
 27 26  1  6
 27 28  1  0
 28 21  1  0
 29 30  1  0
 29 27  1  0
 31 29  2  0
M  END
$$$$
