WIN.pdb
     RDKit          3D

 31 32  0  0  1  0  0  0  0  0999 V2000
   28.2374  -22.2334  -10.0007 N   0  0  0  0  0  0  0  0  0  0  0  0
   27.3219  -21.1700   -9.7515 C   0  0  1  0  0  0  0  0  0  0  0  0
   28.1290  -20.0286   -9.1631 C   0  0  0  0  0  0  0  0  0  0  0  0
   28.8376  -20.3800   -7.9204 C   0  0  0  0  0  0  0  0  0  0  0  0
   29.9285  -21.2091   -7.7736 C   0  0  0  0  0  0  0  0  0  0  0  0
   30.2896  -21.2595   -6.4685 N   0  0  0  0  0  0  0  0  0  0  0  0
   29.4495  -20.4701   -5.7411 C   0  0  0  0  0  0  0  0  0  0  0  0
   29.3895  -20.1803   -4.3980 C   0  0  0  0  0  0  0  0  0  0  0  0
   28.4256  -19.3330   -3.8983 C   0  0  0  0  0  0  0  0  0  0  0  0
   27.5380  -18.8013   -4.8040 C   0  0  0  0  0  0  0  0  0  0  0  0
   27.5809  -19.0763   -6.1391 C   0  0  0  0  0  0  0  0  0  0  0  0
   28.5613  -19.9359   -6.6461 C   0  0  0  0  0  0  0  0  0  0  0  0
   26.6614  -20.6529  -11.0069 C   0  0  0  0  0  0  0  0  0  0  0  0
   27.3362  -20.1526  -11.9344 O   0  0  0  0  0  0  0  0  0  0  0  0
   23.9927  -23.7814  -14.2219 C   0  0  0  0  0  0  0  0  0  0  0  0
   24.6953  -23.0358  -13.0779 C   0  0  0  0  0  0  0  0  0  0  0  0
   24.8045  -21.6022  -13.4363 C   0  0  2  0  0  0  0  0  0  0  0  0
   26.1642  -21.3480  -14.0492 C   0  0  0  0  0  0  0  0  0  0  0  0
   24.4898  -20.6252  -12.3356 C   0  0  2  0  0  0  0  0  0  0  0  0
   25.2525  -20.7281  -11.1616 N   0  0  0  0  0  0  0  0  0  0  0  0
   23.0352  -20.4503  -12.2409 C   0  0  0  0  0  0  0  0  0  0  0  0
   22.5178  -21.0597  -11.2273 O   0  0  0  0  0  0  0  0  0  0  0  0
   17.9458  -18.9004  -12.3681 N   0  0  0  0  0  0  0  0  0  0  0  0
   18.7538  -18.0719  -13.1993 C   0  0  0  0  0  0  0  0  0  0  0  0
   18.2088  -17.0380  -13.7105 O   0  0  0  0  0  0  0  0  0  0  0  0
   20.1559  -18.3437  -13.4918 C   0  0  0  0  0  0  0  0  0  0  0  0
   20.7432  -19.5435  -12.7605 C   0  0  2  0  0  0  0  0  0  0  0  0
   22.1584  -19.7435  -13.0657 N   0  0  0  0  0  0  0  0  0  0  0  0
   19.9148  -20.6985  -13.1012 C   0  0  0  0  0  0  0  0  0  0  0  0
   18.7998  -21.0729  -12.3866 O   0  0  0  0  0  0  0  0  0  0  0  0
   20.1900  -21.4476  -14.1173 O   0  0  0  0  0  0  0  0  0  0  0  0
  2 13  1  0
  2  1  1  6
  2  3  1  0
  4  3  1  0
  4  5  2  0
  6  5  1  0
  7  6  1  0
  8  7  2  0
  9  8  1  0
 10  9  2  0
 10 11  1  0
 11 12  2  0
 12  7  1  0
 12  4  1  0
 13 14  2  0
 16 15  1  0
 17 16  1  0
 17 18  1  1
 19 17  1  0
 19 20  1  1
 20 13  1  0
 21 19  1  0
 22 21  2  0
 24 23  1  0
 24 26  1  0
 25 24  2  0
 27 26  1  6
 27 28  1  0
 28 21  1  0
 29 30  1  0
 29 27  1  0
 31 29  2  0
M  END
$$$$
