WIN.pdb
     RDKit          3D

 31 32  0  0  1  0  0  0  0  0999 V2000
   29.0826  -28.1651  -16.2573 N   0  0  0  0  0  0  0  0  0  0  0  0
   28.1952  -27.6006  -17.2190 C   0  0  1  0  0  0  0  0  0  0  0  0
   27.1034  -28.6256  -17.4596 C   0  0  0  0  0  0  0  0  0  0  0  0
   27.5648  -29.8297  -18.1718 C   0  0  0  0  0  0  0  0  0  0  0  0
   28.0980  -30.9800  -17.6321 C   0  0  0  0  0  0  0  0  0  0  0  0
   28.3827  -31.8587  -18.6236 N   0  0  0  0  0  0  0  0  0  0  0  0
   28.0433  -31.3056  -19.8224 C   0  0  0  0  0  0  0  0  0  0  0  0
   28.1272  -31.7773  -21.1116 C   0  0  0  0  0  0  0  0  0  0  0  0
   27.7079  -31.0098  -22.1755 C   0  0  0  0  0  0  0  0  0  0  0  0
   27.2089  -29.7627  -21.8815 C   0  0  0  0  0  0  0  0  0  0  0  0
   27.1176  -29.2771  -20.6103 C   0  0  0  0  0  0  0  0  0  0  0  0
   27.5424  -30.0579  -19.5301 C   0  0  0  0  0  0  0  0  0  0  0  0
   27.5260  -26.3367  -16.7347 C   0  0  0  0  0  0  0  0  0  0  0  0
   27.3352  -26.1316  -15.5150 O   0  0  0  0  0  0  0  0  0  0  0  0
   27.1138  -20.4776  -18.4214 C   0  0  0  0  0  0  0  0  0  0  0  0
   26.3505  -21.6243  -17.7426 C   0  0  0  0  0  0  0  0  0  0  0  0
   27.0284  -22.9037  -18.0579 C   0  0  2  0  0  0  0  0  0  0  0  0
   27.1318  -23.0511  -19.5602 C   0  0  0  0  0  0  0  0  0  0  0  0
   26.4477  -24.1310  -17.4089 C   0  0  2  0  0  0  0  0  0  0  0  0
   27.1005  -25.3482  -17.6601 N   0  0  0  0  0  0  0  0  0  0  0  0
   24.9822  -24.0688  -17.4734 C   0  0  0  0  0  0  0  0  0  0  0  0
   24.5125  -24.4042  -18.6281 O   0  0  0  0  0  0  0  0  0  0  0  0
   19.7368  -24.2038  -16.7600 N   0  0  0  0  0  0  0  0  0  0  0  0
   20.5508  -25.0767  -15.9816 C   0  0  0  0  0  0  0  0  0  0  0  0
   19.9745  -26.0456  -15.3847 O   0  0  0  0  0  0  0  0  0  0  0  0
   21.9928  -24.9194  -15.8346 C   0  0  0  0  0  0  0  0  0  0  0  0
   22.6065  -23.8092  -16.6773 C   0  0  2  0  0  0  0  0  0  0  0  0
   24.0531  -23.7078  -16.4961 N   0  0  0  0  0  0  0  0  0  0  0  0
   21.8988  -22.5758  -16.3393 C   0  0  0  0  0  0  0  0  0  0  0  0
   20.5724  -22.3546  -16.6319 O   0  0  0  0  0  0  0  0  0  0  0  0
   22.4941  -21.6036  -15.7310 O   0  0  0  0  0  0  0  0  0  0  0  0
  2 13  1  0
  2  1  1  1
  2  3  1  0
  4  3  1  0
  4  5  2  0
  6  5  1  0
  7  6  1  0
  8  7  2  0
  9  8  1  0
 10  9  2  0
 10 11  1  0
 11 12  2  0
 12  7  1  0
 12  4  1  0
 13 14  2  0
 16 15  1  0
 17 16  1  0
 17 18  1  6
 19 17  1  0
 19 20  1  6
 20 13  1  0
 21 19  1  0
 22 21  2  0
 24 23  1  0
 24 26  1  0
 25 24  2  0
 27 26  1  1
 27 28  1  0
 28 21  1  0
 29 30  1  0
 29 27  1  0
 31 29  2  0
M  END
$$$$
