WIN.pdb
     RDKit          3D

 31 32  0  0  1  0  0  0  0  0999 V2000
   25.7872  -20.3430  -17.9711 N   0  0  0  0  0  0  0  0  0  0  0  0
   25.9450  -19.7104  -16.7038 C   0  0  1  0  0  0  0  0  0  0  0  0
   24.9836  -18.5376  -16.6790 C   0  0  0  0  0  0  0  0  0  0  0  0
   25.1652  -17.5961  -17.7973 C   0  0  0  0  0  0  0  0  0  0  0  0
   24.1934  -17.0320  -18.5951 C   0  0  0  0  0  0  0  0  0  0  0  0
   24.7711  -16.2072  -19.5019 N   0  0  0  0  0  0  0  0  0  0  0  0
   26.1215  -16.2144  -19.3166 C   0  0  0  0  0  0  0  0  0  0  0  0
   27.1437  -15.5579  -19.9614 C   0  0  0  0  0  0  0  0  0  0  0  0
   28.4540  -15.7357  -19.5765 C   0  0  0  0  0  0  0  0  0  0  0  0
   28.6806  -16.5951  -18.5273 C   0  0  0  0  0  0  0  0  0  0  0  0
   27.6810  -17.2552  -17.8754 C   0  0  0  0  0  0  0  0  0  0  0  0
   26.3502  -17.0729  -18.2659 C   0  0  0  0  0  0  0  0  0  0  0  0
   25.5859  -20.6103  -15.5458 C   0  0  0  0  0  0  0  0  0  0  0  0
   24.9062  -21.6469  -15.7180 O   0  0  0  0  0  0  0  0  0  0  0  0
   28.9538  -20.7390  -11.1514 C   0  0  0  0  0  0  0  0  0  0  0  0
   27.9979  -21.2368  -12.2454 C   0  0  0  0  0  0  0  0  0  0  0  0
   26.6147  -20.8428  -11.8885 C   0  0  2  0  0  0  0  0  0  0  0  0
   26.1568  -21.6647  -10.7036 C   0  0  0  0  0  0  0  0  0  0  0  0
   25.6148  -20.8675  -13.0130 C   0  0  2  0  0  0  0  0  0  0  0  0
   26.0183  -20.2973  -14.2307 N   0  0  0  0  0  0  0  0  0  0  0  0
   24.2782  -20.5713  -12.4826 C   0  0  0  0  0  0  0  0  0  0  0  0
   24.0464  -19.3059  -12.3744 O   0  0  0  0  0  0  0  0  0  0  0  0
   19.1375  -20.0840  -12.4330 N   0  0  0  0  0  0  0  0  0  0  0  0
   20.2323  -19.1725  -12.4584 C   0  0  0  0  0  0  0  0  0  0  0  0
   19.9655  -17.9332  -12.6005 O   0  0  0  0  0  0  0  0  0  0  0  0
   21.6262  -19.5807  -12.3322 C   0  0  0  0  0  0  0  0  0  0  0  0
   21.8398  -21.0695  -12.0932 C   0  0  2  0  0  0  0  0  0  0  0  0
   23.2548  -21.4351  -12.0885 N   0  0  0  0  0  0  0  0  0  0  0  0
   21.0678  -21.7802  -13.1106 C   0  0  0  0  0  0  0  0  0  0  0  0
   19.7050  -21.9604  -13.0441 O   0  0  0  0  0  0  0  0  0  0  0  0
   21.6363  -22.2886  -14.1536 O   0  0  0  0  0  0  0  0  0  0  0  0
  2 13  1  0
  2  1  1  6
  2  3  1  0
  4  3  1  0
  4  5  2  0
  6  5  1  0
  7  6  1  0
  8  7  2  0
  9  8  1  0
 10  9  2  0
 10 11  1  0
 11 12  2  0
 12  7  1  0
 12  4  1  0
 13 14  2  0
 16 15  1  0
 17 16  1  0
 17 18  1  1
 19 17  1  0
 19 20  1  6
 20 13  1  0
 21 19  1  0
 22 21  2  0
 24 23  1  0
 24 26  1  0
 25 24  2  0
 27 26  1  6
 27 28  1  0
 28 21  1  0
 29 30  1  0
 29 27  1  0
 31 29  2  0
M  END
$$$$
