WIN.pdb
     RDKit          3D

 31 32  0  0  1  0  0  0  0  0999 V2000
   26.2773  -21.5747  -15.9959 N   0  0  0  0  0  0  0  0  0  0  0  0
   26.4473  -20.8986  -14.7530 C   0  0  1  0  0  0  0  0  0  0  0  0
   25.5118  -19.7049  -14.7743 C   0  0  0  0  0  0  0  0  0  0  0  0
   25.7810  -18.7579  -15.8701 C   0  0  0  0  0  0  0  0  0  0  0  0
   24.8702  -18.1527  -16.7086 C   0  0  0  0  0  0  0  0  0  0  0  0
   25.5202  -17.3379  -17.5747 N   0  0  0  0  0  0  0  0  0  0  0  0
   26.8584  -17.3927  -17.3217 C   0  0  0  0  0  0  0  0  0  0  0  0
   27.9332  -16.7639  -17.9058 C   0  0  0  0  0  0  0  0  0  0  0  0
   29.2157  -16.9899  -17.4576 C   0  0  0  0  0  0  0  0  0  0  0  0
   29.3601  -17.8679  -16.4092 C   0  0  0  0  0  0  0  0  0  0  0  0
   28.3074  -18.5011  -15.8169 C   0  0  0  0  0  0  0  0  0  0  0  0
   27.0049  -18.2698  -16.2718 C   0  0  0  0  0  0  0  0  0  0  0  0
   26.0671  -21.7461  -13.5627 C   0  0  0  0  0  0  0  0  0  0  0  0
   25.4649  -22.8335  -13.7081 O   0  0  0  0  0  0  0  0  0  0  0  0
   26.1971  -20.2052   -7.4703 C   0  0  0  0  0  0  0  0  0  0  0  0
   25.4677  -20.9526   -8.5962 C   0  0  0  0  0  0  0  0  0  0  0  0
   26.1110  -20.6179   -9.8884 C   0  0  2  0  0  0  0  0  0  0  0  0
   26.0663  -19.1189  -10.0892 C   0  0  0  0  0  0  0  0  0  0  0  0
   25.5965  -21.3640  -11.0899 C   0  0  2  0  0  0  0  0  0  0  0  0
   26.3909  -21.3245  -12.2467 N   0  0  0  0  0  0  0  0  0  0  0  0
   24.1459  -21.1673  -11.2009 C   0  0  0  0  0  0  0  0  0  0  0  0
   23.5147  -21.4321  -10.1063 O   0  0  0  0  0  0  0  0  0  0  0  0
   20.5551  -19.0178  -10.2459 N   0  0  0  0  0  0  0  0  0  0  0  0
   20.8042  -18.4716  -11.5381 C   0  0  0  0  0  0  0  0  0  0  0  0
   20.4258  -17.2730  -11.7555 O   0  0  0  0  0  0  0  0  0  0  0  0
   21.4618  -19.2060  -12.6123 C   0  0  0  0  0  0  0  0  0  0  0  0
   21.9209  -20.6101  -12.2423 C   0  0  2  0  0  0  0  0  0  0  0  0
   23.3750  -20.7502  -12.2874 N   0  0  0  0  0  0  0  0  0  0  0  0
   21.2281  -21.5354  -13.1368 C   0  0  0  0  0  0  0  0  0  0  0  0
   20.1941  -22.3506  -12.7365 O   0  0  0  0  0  0  0  0  0  0  0  0
   21.5556  -21.6393  -14.3824 O   0  0  0  0  0  0  0  0  0  0  0  0
  2 13  1  0
  2  1  1  6
  2  3  1  0
  4  3  1  0
  4  5  2  0
  6  5  1  0
  7  6  1  0
  8  7  2  0
  9  8  1  0
 10  9  2  0
 10 11  1  0
 11 12  2  0
 12  7  1  0
 12  4  1  0
 13 14  2  0
 16 15  1  0
 17 16  1  0
 17 18  1  6
 19 17  1  0
 19 20  1  6
 20 13  1  0
 21 19  1  0
 22 21  2  0
 24 23  1  0
 24 26  1  0
 25 24  2  0
 27 26  1  6
 27 28  1  0
 28 21  1  0
 29 30  1  0
 29 27  1  0
 31 29  2  0
M  END
$$$$
