QGD.pdb
     RDKit          3D

 22 21  0  0  1  0  0  0  0  0999 V2000
   24.1148  -19.9453  -10.0916 N   0  0  0  0  0  0  0  0  0  0  0  0
   24.6586  -20.9598   -9.2701 C   0  0  0  0  0  0  0  0  0  0  0  0
   23.9338  -21.4966   -8.3864 O   0  0  0  0  0  0  0  0  0  0  0  0
   26.0717  -21.3745   -9.4620 C   0  0  0  0  0  0  0  0  0  0  0  0
   26.7432  -20.5217  -10.5082 C   0  0  0  0  0  0  0  0  0  0  0  0
   26.1329  -20.7160  -11.8770 C   0  0  2  0  0  0  0  0  0  0  0  0
   26.3308  -22.0298  -12.3992 N   0  0  0  0  0  0  0  0  0  0  0  0
   26.7365  -19.6876  -12.7620 C   0  0  0  0  0  0  0  0  0  0  0  0
   26.5381  -18.4699  -12.5234 O   0  0  0  0  0  0  0  0  0  0  0  0
   27.5284  -20.0927  -13.8638 N   0  0  0  0  0  0  0  0  0  0  0  0
   28.1566  -19.2002  -14.7799 C   0  0  0  0  0  0  0  0  0  0  0  0
   27.2803  -18.6728  -15.8464 C   0  0  0  0  0  0  0  0  0  0  0  0
   26.1106  -18.2236  -15.5650 O   0  0  0  0  0  0  0  0  0  0  0  0
   27.6344  -18.6131  -17.2196 N   0  0  0  0  0  0  0  0  0  0  0  0
   26.7258  -18.0737  -18.2243 C   0  0  1  0  0  0  0  0  0  0  0  0
   27.5053  -17.6323  -19.4574 C   0  0  0  0  0  0  0  0  0  0  0  0
   27.9570  -16.2311  -19.3884 C   0  0  0  0  0  0  0  0  0  0  0  0
   27.5932  -15.4738  -18.4596 O   0  0  0  0  0  0  0  0  0  0  0  0
   25.6337  -19.0079  -18.5291 C   0  0  0  0  0  0  0  0  0  0  0  0
   24.5281  -18.6444  -18.9992 O   0  0  0  0  0  0  0  0  0  0  0  0
   28.7999  -15.7130  -20.3541 O   0  0  0  0  0  0  0  0  0  0  0  0
   25.7547  -20.3947  -18.3114 O   0  0  0  0  0  0  0  0  0  0  0  0
  2  4  1  0
  2  1  1  0
  3  2  2  0
  5  6  1  0
  5  4  1  0
  6  7  1  6
  8  6  1  0
  9  8  2  0
 10  8  1  0
 11 10  1  0
 11 12  1  0
 12 14  1  0
 13 12  2  0
 14 15  1  0
 15 19  1  0
 15 16  1  6
 16 17  1  0
 17 18  2  0
 17 21  1  0
 19 22  1  0
 20 19  2  0
M  END
$$$$
