QGD.pdb
     RDKit          3D

 22 21  0  0  1  0  0  0  0  0999 V2000
   30.6563  -21.7207  -10.9794 N   0  0  0  0  0  0  0  0  0  0  0  0
   30.1669  -21.4907   -9.6726 C   0  0  0  0  0  0  0  0  0  0  0  0
   30.9408  -21.6389   -8.6860 O   0  0  0  0  0  0  0  0  0  0  0  0
   28.7521  -21.0797   -9.4856 C   0  0  0  0  0  0  0  0  0  0  0  0
   28.0748  -20.8687  -10.8157 C   0  0  0  0  0  0  0  0  0  0  0  0
   26.6638  -20.3507  -10.6590 C   0  0  2  0  0  0  0  0  0  0  0  0
   25.8862  -21.1095   -9.7330 N   0  0  0  0  0  0  0  0  0  0  0  0
   26.0531  -20.3628  -12.0126 C   0  0  0  0  0  0  0  0  0  0  0  0
   26.7700  -20.1328  -13.0187 O   0  0  0  0  0  0  0  0  0  0  0  0
   24.6703  -20.6338  -12.1521 N   0  0  0  0  0  0  0  0  0  0  0  0
   23.8549  -20.1511  -13.2164 C   0  0  0  0  0  0  0  0  0  0  0  0
   22.4352  -20.5564  -13.1556 C   0  0  0  0  0  0  0  0  0  0  0  0
   21.9708  -21.1464  -12.1138 O   0  0  0  0  0  0  0  0  0  0  0  0
   21.4934  -20.3388  -14.1949 N   0  0  0  0  0  0  0  0  0  0  0  0
   20.0570  -20.3495  -13.9444 C   0  0  1  0  0  0  0  0  0  0  0  0
   19.3520  -19.3707  -14.8761 C   0  0  0  0  0  0  0  0  0  0  0  0
   17.8967  -19.3024  -14.6536 C   0  0  0  0  0  0  0  0  0  0  0  0
   17.3807  -19.7061  -13.5863 O   0  0  0  0  0  0  0  0  0  0  0  0
   19.5039  -21.7092  -14.0015 C   0  0  0  0  0  0  0  0  0  0  0  0
   18.7215  -22.1710  -13.1355 O   0  0  0  0  0  0  0  0  0  0  0  0
   17.0578  -18.7873  -15.6244 O   0  0  0  0  0  0  0  0  0  0  0  0
   19.8186  -22.6001  -15.0468 O   0  0  0  0  0  0  0  0  0  0  0  0
  2  4  1  0
  2  1  1  0
  3  2  2  0
  5  6  1  0
  5  4  1  0
  6  7  1  1
  8  6  1  0
  9  8  2  0
 10  8  1  0
 11 10  1  0
 11 12  1  0
 12 14  1  0
 13 12  2  0
 14 15  1  0
 15 19  1  0
 15 16  1  6
 16 17  1  0
 17 18  2  0
 17 21  1  0
 19 22  1  0
 20 19  2  0
M  END
$$$$
