QGD.pdb
     RDKit          3D

 22 21  0  0  1  0  0  0  0  0999 V2000
   21.8883  -21.6219   -9.1315 N   0  0  0  0  0  0  0  0  0  0  0  0
   21.9079  -20.4444   -9.9145 C   0  0  0  0  0  0  0  0  0  0  0  0
   21.0431  -19.5480   -9.7073 O   0  0  0  0  0  0  0  0  0  0  0  0
   22.9449  -20.2847  -10.9655 C   0  0  0  0  0  0  0  0  0  0  0  0
   23.7737  -21.5372  -11.0955 C   0  0  0  0  0  0  0  0  0  0  0  0
   25.1532  -21.3697  -10.5016 C   0  0  2  0  0  0  0  0  0  0  0  0
   25.3259  -20.1253   -9.8236 N   0  0  0  0  0  0  0  0  0  0  0  0
   26.1187  -21.5123  -11.6208 C   0  0  0  0  0  0  0  0  0  0  0  0
   26.2902  -22.6377  -12.1528 O   0  0  0  0  0  0  0  0  0  0  0  0
   26.8338  -20.3775  -12.0746 N   0  0  0  0  0  0  0  0  0  0  0  0
   27.7309  -20.3763  -13.1817 C   0  0  0  0  0  0  0  0  0  0  0  0
   27.2805  -19.6011  -14.3563 C   0  0  0  0  0  0  0  0  0  0  0  0
   26.1925  -18.9204  -14.3088 O   0  0  0  0  0  0  0  0  0  0  0  0
   27.9781  -19.5367  -15.5907 N   0  0  0  0  0  0  0  0  0  0  0  0
   27.5373  -18.6706  -16.6778 C   0  0  1  0  0  0  0  0  0  0  0  0
   28.7381  -18.1611  -17.4661 C   0  0  0  0  0  0  0  0  0  0  0  0
   28.3699  -17.2354  -18.5521 C   0  0  0  0  0  0  0  0  0  0  0  0
   28.8426  -17.3618  -19.7049 O   0  0  0  0  0  0  0  0  0  0  0  0
   26.5235  -19.3228  -17.5174 C   0  0  0  0  0  0  0  0  0  0  0  0
   26.5551  -20.5424  -17.8125 O   0  0  0  0  0  0  0  0  0  0  0  0
   27.4869  -16.1961  -18.3246 O   0  0  0  0  0  0  0  0  0  0  0  0
   25.4315  -18.6139  -18.0563 O   0  0  0  0  0  0  0  0  0  0  0  0
  2  4  1  0
  2  1  1  0
  3  2  2  0
  5  6  1  0
  5  4  1  0
  6  7  1  6
  8  6  1  0
  9  8  2  0
 10  8  1  0
 11 10  1  0
 11 12  1  0
 12 14  1  0
 13 12  2  0
 14 15  1  0
 15 19  1  0
 15 16  1  6
 16 17  1  0
 17 18  2  0
 17 21  1  0
 19 22  1  0
 20 19  2  0
M  END
$$$$
