QGD.pdb
     RDKit          3D

 22 21  0  0  1  0  0  0  0  0999 V2000
   19.7657  -16.0594  -14.6221 N   0  0  0  0  0  0  0  0  0  0  0  0
   20.8513  -16.8829  -15.0006 C   0  0  0  0  0  0  0  0  0  0  0  0
   20.9772  -18.0234  -14.4736 O   0  0  0  0  0  0  0  0  0  0  0  0
   21.8226  -16.3906  -16.0105 C   0  0  0  0  0  0  0  0  0  0  0  0
   21.5324  -14.9582  -16.3797 C   0  0  0  0  0  0  0  0  0  0  0  0
   22.5164  -14.4223  -17.3937 C   0  0  2  0  0  0  0  0  0  0  0  0
   23.3520  -15.4344  -17.9553 N   0  0  0  0  0  0  0  0  0  0  0  0
   23.3197  -13.3839  -16.6997 C   0  0  0  0  0  0  0  0  0  0  0  0
   24.5167  -13.6224  -16.4008 O   0  0  0  0  0  0  0  0  0  0  0  0
   22.7262  -12.1377  -16.3838 N   0  0  0  0  0  0  0  0  0  0  0  0
   23.4034  -11.0576  -15.7471 C   0  0  0  0  0  0  0  0  0  0  0  0
   22.6318   -9.8012  -15.6485 C   0  0  0  0  0  0  0  0  0  0  0  0
   21.4444   -9.7269  -16.1319 O   0  0  0  0  0  0  0  0  0  0  0  0
   23.1081   -8.6131  -15.0352 N   0  0  0  0  0  0  0  0  0  0  0  0
   22.2797   -7.4178  -14.9299 C   0  0  1  0  0  0  0  0  0  0  0  0
   22.9115   -6.4217  -13.9649 C   0  0  0  0  0  0  0  0  0  0  0  0
   22.1223   -5.1874  -13.8045 C   0  0  0  0  0  0  0  0  0  0  0  0
   21.0357   -5.1846  -13.1818 O   0  0  0  0  0  0  0  0  0  0  0  0
   21.9824   -6.8428  -16.2487 C   0  0  0  0  0  0  0  0  0  0  0  0
   22.8110   -6.8170  -17.1910 O   0  0  0  0  0  0  0  0  0  0  0  0
   22.5644   -3.9924  -14.3411 O   0  0  0  0  0  0  0  0  0  0  0  0
   20.7293   -6.2730  -16.5496 O   0  0  0  0  0  0  0  0  0  0  0  0
  2  4  1  0
  2  1  1  0
  3  2  2  0
  5  6  1  0
  5  4  1  0
  6  7  1  1
  8  6  1  0
  9  8  2  0
 10  8  1  0
 11 10  1  0
 11 12  1  0
 12 14  1  0
 13 12  2  0
 14 15  1  0
 15 19  1  0
 15 16  1  1
 16 17  1  0
 17 18  2  0
 17 21  1  0
 19 22  1  0
 20 19  2  0
M  END
$$$$
