QGD.pdb
     RDKit          3D

 22 21  0  0  1  0  0  0  0  0999 V2000
   16.8055  -14.6395  -13.8088 N   0  0  0  0  0  0  0  0  0  0  0  0
   16.6318  -14.7778  -15.2055 C   0  0  0  0  0  0  0  0  0  0  0  0
   16.3537  -15.9119  -15.6861 O   0  0  0  0  0  0  0  0  0  0  0  0
   16.7801  -13.5869  -16.0803 C   0  0  0  0  0  0  0  0  0  0  0  0
   17.0323  -12.3474  -15.2603 C   0  0  0  0  0  0  0  0  0  0  0  0
   17.0980  -11.1035  -16.1160 C   0  0  2  0  0  0  0  0  0  0  0  0
   18.2259  -11.0821  -16.9907 N   0  0  0  0  0  0  0  0  0  0  0  0
   17.1158   -9.9468  -15.1850 C   0  0  0  0  0  0  0  0  0  0  0  0
   16.2117   -9.8327  -14.3198 O   0  0  0  0  0  0  0  0  0  0  0  0
   18.1521   -8.9869  -15.2842 N   0  0  0  0  0  0  0  0  0  0  0  0
   18.3191   -7.8827  -14.3992 C   0  0  0  0  0  0  0  0  0  0  0  0
   19.5226   -7.0596  -14.6395 C   0  0  0  0  0  0  0  0  0  0  0  0
   20.4703   -7.4953  -15.3886 O   0  0  0  0  0  0  0  0  0  0  0  0
   19.7332   -5.7671  -14.0919 N   0  0  0  0  0  0  0  0  0  0  0  0
   20.9319   -4.9925  -14.3905 C   0  0  1  0  0  0  0  0  0  0  0  0
   20.6675   -3.5073  -14.1735 C   0  0  0  0  0  0  0  0  0  0  0  0
   19.6077   -2.9721  -15.0467 C   0  0  0  0  0  0  0  0  0  0  0  0
   19.5131   -3.3206  -16.2459 O   0  0  0  0  0  0  0  0  0  0  0  0
   22.1003   -5.4901  -13.6520 C   0  0  0  0  0  0  0  0  0  0  0  0
   22.0247   -6.0044  -12.5096 O   0  0  0  0  0  0  0  0  0  0  0  0
   18.6841   -2.0651  -14.5610 O   0  0  0  0  0  0  0  0  0  0  0  0
   23.4037   -5.4227  -14.1833 O   0  0  0  0  0  0  0  0  0  0  0  0
  2  4  1  0
  2  1  1  0
  3  2  2  0
  5  6  1  0
  5  4  1  0
  6  7  1  1
  8  6  1  0
  9  8  2  0
 10  8  1  0
 11 10  1  0
 11 12  1  0
 12 14  1  0
 13 12  2  0
 14 15  1  0
 15 19  1  0
 15 16  1  1
 16 17  1  0
 17 18  2  0
 17 21  1  0
 19 22  1  0
 20 19  2  0
M  END
$$$$
