QGD.pdb
     RDKit          3D

 22 21  0  0  1  0  0  0  0  0999 V2000
   26.2839  -15.8514  -14.9472 N   0  0  0  0  0  0  0  0  0  0  0  0
   24.9764  -16.3152  -15.2216 C   0  0  0  0  0  0  0  0  0  0  0  0
   24.7439  -17.5563  -15.2100 O   0  0  0  0  0  0  0  0  0  0  0  0
   23.9018  -15.3340  -15.5185 C   0  0  0  0  0  0  0  0  0  0  0  0
   24.3968  -13.9229  -15.3281 C   0  0  0  0  0  0  0  0  0  0  0  0
   23.2977  -12.9041  -15.5226 C   0  0  2  0  0  0  0  0  0  0  0  0
   22.6467  -13.0145  -16.7882 N   0  0  0  0  0  0  0  0  0  0  0  0
   23.9214  -11.5673  -15.3520 C   0  0  0  0  0  0  0  0  0  0  0  0
   25.1607  -11.4358  -15.5124 O   0  0  0  0  0  0  0  0  0  0  0  0
   23.1110  -10.4574  -15.0107 N   0  0  0  0  0  0  0  0  0  0  0  0
   23.5894   -9.1244  -14.8539 C   0  0  0  0  0  0  0  0  0  0  0  0
   22.5510   -8.1118  -14.5713 C   0  0  0  0  0  0  0  0  0  0  0  0
   21.3375   -8.4684  -14.3488 O   0  0  0  0  0  0  0  0  0  0  0  0
   22.7873   -6.7132  -14.5188 N   0  0  0  0  0  0  0  0  0  0  0  0
   21.7075   -5.7599  -14.2925 C   0  0  1  0  0  0  0  0  0  0  0  0
   22.2755   -4.4116  -13.8654 C   0  0  0  0  0  0  0  0  0  0  0  0
   21.2378   -3.3910  -13.6334 C   0  0  0  0  0  0  0  0  0  0  0  0
   20.0593   -3.7110  -13.3553 O   0  0  0  0  0  0  0  0  0  0  0  0
   20.8064   -5.6722  -15.4494 C   0  0  0  0  0  0  0  0  0  0  0  0
   19.5977   -5.3469  -15.3573 O   0  0  0  0  0  0  0  0  0  0  0  0
   21.5408   -2.0447  -13.7174 O   0  0  0  0  0  0  0  0  0  0  0  0
   21.2438   -5.9514  -16.7594 O   0  0  0  0  0  0  0  0  0  0  0  0
  2  4  1  0
  2  1  1  0
  3  2  2  0
  5  6  1  0
  5  4  1  0
  6  7  1  6
  8  6  1  0
  9  8  2  0
 10  8  1  0
 11 10  1  0
 11 12  1  0
 12 14  1  0
 13 12  2  0
 14 15  1  0
 15 19  1  0
 15 16  1  6
 16 17  1  0
 17 18  2  0
 17 21  1  0
 19 22  1  0
 20 19  2  0
M  END
$$$$
