QGD.pdb
     RDKit          3D

 22 21  0  0  1  0  0  0  0  0999 V2000
   10.5617   -9.6003   -6.3333 N   0  0  0  0  0  0  0  0  0  0  0  0
   10.4536   -9.9889   -7.6887 C   0  0  0  0  0  0  0  0  0  0  0  0
    9.4629  -10.6787   -8.0585 O   0  0  0  0  0  0  0  0  0  0  0  0
   11.5074   -9.5783   -8.6513 C   0  0  0  0  0  0  0  0  0  0  0  0
   12.5974   -8.8041   -7.9549 C   0  0  0  0  0  0  0  0  0  0  0  0
   13.0456   -7.6056   -8.7590 C   0  0  2  0  0  0  0  0  0  0  0  0
   12.8697   -7.7748  -10.1655 N   0  0  0  0  0  0  0  0  0  0  0  0
   14.4723   -7.3738   -8.4183 C   0  0  0  0  0  0  0  0  0  0  0  0
   14.8180   -7.2990   -7.2125 O   0  0  0  0  0  0  0  0  0  0  0  0
   15.4252   -7.2404   -9.4572 N   0  0  0  0  0  0  0  0  0  0  0  0
   16.8235   -7.0571   -9.2534 C   0  0  0  0  0  0  0  0  0  0  0  0
   17.5874   -6.6552  -10.4528 C   0  0  0  0  0  0  0  0  0  0  0  0
   16.9813   -6.4058  -11.5572 O   0  0  0  0  0  0  0  0  0  0  0  0
   18.9988   -6.5109  -10.4942 N   0  0  0  0  0  0  0  0  0  0  0  0
   19.6910   -6.0727  -11.7004 C   0  0  1  0  0  0  0  0  0  0  0  0
   21.1302   -5.6924  -11.3737 C   0  0  0  0  0  0  0  0  0  0  0  0
   21.8783   -5.1921  -12.5408 C   0  0  0  0  0  0  0  0  0  0  0  0
   21.3903   -4.3306  -13.3076 O   0  0  0  0  0  0  0  0  0  0  0  0
   19.5808   -7.0612  -12.7816 C   0  0  0  0  0  0  0  0  0  0  0  0
   19.7028   -8.2971  -12.5994 O   0  0  0  0  0  0  0  0  0  0  0  0
   23.1471   -5.6644  -12.8212 O   0  0  0  0  0  0  0  0  0  0  0  0
   19.3274   -6.6840  -14.1154 O   0  0  0  0  0  0  0  0  0  0  0  0
  2  4  1  0
  2  1  1  0
  3  2  2  0
  5  6  1  0
  5  4  1  0
  6  7  1  6
  8  6  1  0
  9  8  2  0
 10  8  1  0
 11 10  1  0
 11 12  1  0
 12 14  1  0
 13 12  2  0
 14 15  1  0
 15 19  1  0
 15 16  1  1
 16 17  1  0
 17 18  2  0
 17 21  1  0
 19 22  1  0
 20 19  2  0
M  END
$$$$
