QGD.pdb
     RDKit          3D

 22 21  0  0  1  0  0  0  0  0999 V2000
   16.9723  -14.7435  -14.2757 N   0  0  0  0  0  0  0  0  0  0  0  0
   16.9017  -15.9043  -15.0803 C   0  0  0  0  0  0  0  0  0  0  0  0
   16.8283  -17.0375  -14.5282 O   0  0  0  0  0  0  0  0  0  0  0  0
   16.9157  -15.7685  -16.5592 C   0  0  0  0  0  0  0  0  0  0  0  0
   16.9773  -14.3177  -16.9637 C   0  0  0  0  0  0  0  0  0  0  0  0
   18.3934  -13.8618  -17.2300 C   0  0  2  0  0  0  0  0  0  0  0  0
   19.2842  -14.1339  -16.1482 N   0  0  0  0  0  0  0  0  0  0  0  0
   18.3249  -12.4069  -17.5191 C   0  0  0  0  0  0  0  0  0  0  0  0
   17.6553  -12.0003  -18.5016 O   0  0  0  0  0  0  0  0  0  0  0  0
   19.0153  -11.4959  -16.6832 N   0  0  0  0  0  0  0  0  0  0  0  0
   18.9520  -10.0778  -16.8064 C   0  0  0  0  0  0  0  0  0  0  0  0
   19.7724   -9.3241  -15.8355 C   0  0  0  0  0  0  0  0  0  0  0  0
   20.2753   -9.9142  -14.8117 O   0  0  0  0  0  0  0  0  0  0  0  0
   20.0704   -7.9404  -15.9402 N   0  0  0  0  0  0  0  0  0  0  0  0
   20.8795   -7.2514  -14.9417 C   0  0  1  0  0  0  0  0  0  0  0  0
   21.2925   -5.8770  -15.4550 C   0  0  0  0  0  0  0  0  0  0  0  0
   22.1780   -5.1519  -14.5264 C   0  0  0  0  0  0  0  0  0  0  0  0
   22.8529   -5.7574  -13.6624 O   0  0  0  0  0  0  0  0  0  0  0  0
   20.2114   -7.2082  -13.6341 C   0  0  0  0  0  0  0  0  0  0  0  0
   18.9912   -6.9504  -13.4928 O   0  0  0  0  0  0  0  0  0  0  0  0
   22.2870   -3.7749  -14.5854 O   0  0  0  0  0  0  0  0  0  0  0  0
   20.9046   -7.4566  -12.4328 O   0  0  0  0  0  0  0  0  0  0  0  0
  2  4  1  0
  2  1  1  0
  3  2  2  0
  5  6  1  0
  5  4  1  0
  6  7  1  1
  8  6  1  0
  9  8  2  0
 10  8  1  0
 11 10  1  0
 11 12  1  0
 12 14  1  0
 13 12  2  0
 14 15  1  0
 15 19  1  0
 15 16  1  6
 16 17  1  0
 17 18  2  0
 17 21  1  0
 19 22  1  0
 20 19  2  0
M  END
$$$$
