QGD.pdb
     RDKit          3D

 22 21  0  0  1  0  0  0  0  0999 V2000
   15.5717  -15.2414  -16.6825 N   0  0  0  0  0  0  0  0  0  0  0  0
   15.5004  -13.8756  -16.3228 C   0  0  0  0  0  0  0  0  0  0  0  0
   14.4020  -13.3959  -15.9259 O   0  0  0  0  0  0  0  0  0  0  0  0
   16.7186  -13.0316  -16.4191 C   0  0  0  0  0  0  0  0  0  0  0  0
   17.8894  -13.8357  -16.9241 C   0  0  0  0  0  0  0  0  0  0  0  0
   19.1487  -13.5632  -16.1342 C   0  0  2  0  0  0  0  0  0  0  0  0
   18.9018  -13.3193  -14.7495 N   0  0  0  0  0  0  0  0  0  0  0  0
   19.8108  -12.3997  -16.7768 C   0  0  0  0  0  0  0  0  0  0  0  0
   20.1790  -12.4795  -17.9756 O   0  0  0  0  0  0  0  0  0  0  0  0
   20.0187  -11.2147  -16.0301 N   0  0  0  0  0  0  0  0  0  0  0  0
   20.5042   -9.9906  -16.5742 C   0  0  0  0  0  0  0  0  0  0  0  0
   20.5100   -8.8450  -15.6408 C   0  0  0  0  0  0  0  0  0  0  0  0
   19.9972   -8.9577  -14.4688 O   0  0  0  0  0  0  0  0  0  0  0  0
   21.0609   -7.5710  -15.9376 N   0  0  0  0  0  0  0  0  0  0  0  0
   21.0845   -6.4961  -14.9526 C   0  0  1  0  0  0  0  0  0  0  0  0
   22.3229   -5.6295  -15.1475 C   0  0  0  0  0  0  0  0  0  0  0  0
   22.4278   -4.5363  -14.1646 C   0  0  0  0  0  0  0  0  0  0  0  0
   22.2504   -4.7400  -12.9417 O   0  0  0  0  0  0  0  0  0  0  0  0
   19.8313   -5.7296  -14.9521 C   0  0  0  0  0  0  0  0  0  0  0  0
   19.1874   -5.4625  -15.9959 O   0  0  0  0  0  0  0  0  0  0  0  0
   22.7268   -3.2488  -14.5702 O   0  0  0  0  0  0  0  0  0  0  0  0
   19.2589   -5.2349  -13.7634 O   0  0  0  0  0  0  0  0  0  0  0  0
  2  4  1  0
  2  1  1  0
  3  2  2  0
  5  6  1  0
  5  4  1  0
  6  7  1  1
  8  6  1  0
  9  8  2  0
 10  8  1  0
 11 10  1  0
 11 12  1  0
 12 14  1  0
 13 12  2  0
 14 15  1  0
 15 19  1  0
 15 16  1  6
 16 17  1  0
 17 18  2  0
 17 21  1  0
 19 22  1  0
 20 19  2  0
M  END
$$$$
