QGD.pdb
     RDKit          3D

 22 21  0  0  1  0  0  0  0  0999 V2000
   19.1649  -14.9342  -14.9905 N   0  0  0  0  0  0  0  0  0  0  0  0
   18.1821  -14.9440  -16.0073 C   0  0  0  0  0  0  0  0  0  0  0  0
   17.3769  -15.9137  -16.0817 O   0  0  0  0  0  0  0  0  0  0  0  0
   18.1158  -13.8136  -16.9684 C   0  0  0  0  0  0  0  0  0  0  0  0
   19.1704  -12.7825  -16.6567 C   0  0  0  0  0  0  0  0  0  0  0  0
   18.6223  -11.6405  -15.8326 C   0  0  2  0  0  0  0  0  0  0  0  0
   17.2290  -11.4127  -16.0442 N   0  0  0  0  0  0  0  0  0  0  0  0
   19.4238  -10.4402  -16.1822 C   0  0  0  0  0  0  0  0  0  0  0  0
   20.6622  -10.4374  -15.9688 O   0  0  0  0  0  0  0  0  0  0  0  0
   18.7820   -9.3140  -16.7521 N   0  0  0  0  0  0  0  0  0  0  0  0
   19.4458   -8.1128  -17.1354 C   0  0  0  0  0  0  0  0  0  0  0  0
   19.3014   -6.9850  -16.1916 C   0  0  0  0  0  0  0  0  0  0  0  0
   18.3624   -6.9854  -15.3156 O   0  0  0  0  0  0  0  0  0  0  0  0
   20.1506   -5.8480  -16.1642 N   0  0  0  0  0  0  0  0  0  0  0  0
   19.9288   -4.7460  -15.2354 C   0  0  1  0  0  0  0  0  0  0  0  0
   21.2594   -4.2379  -14.6929 C   0  0  0  0  0  0  0  0  0  0  0  0
   21.8715   -5.1483  -13.7087 C   0  0  0  0  0  0  0  0  0  0  0  0
   21.2344   -6.1145  -13.2300 O   0  0  0  0  0  0  0  0  0  0  0  0
   19.1010   -3.6889  -15.8316 C   0  0  0  0  0  0  0  0  0  0  0  0
   18.9942   -3.5143  -17.0699 O   0  0  0  0  0  0  0  0  0  0  0  0
   23.1739   -4.9578  -13.2856 O   0  0  0  0  0  0  0  0  0  0  0  0
   18.3603   -2.7863  -15.0428 O   0  0  0  0  0  0  0  0  0  0  0  0
  2  4  1  0
  2  1  1  0
  3  2  2  0
  5  6  1  0
  5  4  1  0
  6  7  1  6
  8  6  1  0
  9  8  2  0
 10  8  1  0
 11 10  1  0
 11 12  1  0
 12 14  1  0
 13 12  2  0
 14 15  1  0
 15 19  1  0
 15 16  1  6
 16 17  1  0
 17 18  2  0
 17 21  1  0
 19 22  1  0
 20 19  2  0
M  END
$$$$
