LYE.pdb
     RDKit          3D

 30 30  0  0  1  0  0  0  0  0999 V2000
   27.2250  -17.4884  -17.4389 C   0  0  0  0  0  0  0  0  0  0  0  0
   27.7975  -18.2275  -16.2479 C   0  0  1  0  0  0  0  0  0  0  0  0
   28.4448  -17.2678  -15.2508 C   0  0  0  0  0  0  0  0  0  0  0  0
   26.7731  -19.1173  -15.5651 C   0  0  0  0  0  0  0  0  0  0  0  0
   27.4281  -19.8649  -14.4617 C   0  0  2  0  0  0  0  0  0  0  0  0
   28.4782  -20.6988  -14.9405 N   0  0  0  0  0  0  0  0  0  0  0  0
   26.4994  -20.6649  -13.6340 C   0  0  0  0  0  0  0  0  0  0  0  0
   26.3226  -21.9009  -13.8096 O   0  0  0  0  0  0  0  0  0  0  0  0
   29.4053  -20.8758   -7.1347 O   0  0  0  0  0  0  0  0  0  0  0  0
   28.2984  -20.7189   -7.9383 C   0  0  0  0  0  0  0  0  0  0  0  0
   28.1269  -21.4094   -9.1157 C   0  0  0  0  0  0  0  0  0  0  0  0
   27.0172  -21.2423   -9.9138 C   0  0  0  0  0  0  0  0  0  0  0  0
   26.0125  -20.3429   -9.5342 C   0  0  0  0  0  0  0  0  0  0  0  0
   24.8504  -20.0837  -10.3847 C   0  0  0  0  0  0  0  0  0  0  0  0
   24.8691  -20.7779  -11.6810 C   0  0  2  0  0  0  0  0  0  0  0  0
   25.7767  -20.0493  -12.6084 N   0  0  0  0  0  0  0  0  0  0  0  0
   23.5879  -20.8245  -12.3782 C   0  0  0  0  0  0  0  0  0  0  0  0
   23.2748  -19.7978  -13.0821 O   0  0  0  0  0  0  0  0  0  0  0  0
   26.1895  -19.6569   -8.3576 C   0  0  0  0  0  0  0  0  0  0  0  0
   27.2977  -19.8401   -7.5828 C   0  0  0  0  0  0  0  0  0  0  0  0
   22.6332  -21.8770  -12.3923 N   0  0  0  0  0  0  0  0  0  0  0  0
   21.4399  -21.8723  -13.1498 C   0  0  1  0  0  0  0  0  0  0  0  0
   20.8729  -23.1142  -13.6873 C   0  0  0  0  0  0  0  0  0  0  0  0
   19.6411  -22.8651  -14.5216 C   0  0  0  0  0  0  0  0  0  0  0  0
   19.1291  -24.1448  -15.0735 C   0  0  0  0  0  0  0  0  0  0  0  0
   19.7231  -25.2118  -14.7952 O   0  0  0  0  0  0  0  0  0  0  0  0
   20.3096  -21.0866  -12.5344 C   0  0  0  0  0  0  0  0  0  0  0  0
   19.3264  -20.6109  -13.3669 O   0  0  0  0  0  0  0  0  0  0  0  0
   18.0088  -24.1247  -15.8802 O   0  0  0  0  0  0  0  0  0  0  0  0
   20.2825  -20.8855  -11.3254 O   0  0  0  0  0  0  0  0  0  0  0  0
  2  1  1  6
  2  3  1  0
  4  2  1  0
  5  4  1  0
  5  6  1  6
  7  5  1  0
  7  8  2  0
  9 10  1  0
 10 11  2  0
 11 12  1  0
 13 12  2  0
 13 14  1  0
 15 14  1  1
 15 16  1  0
 16  7  1  0
 17 15  1  0
 18 17  2  0
 19 13  1  0
 20 10  1  0
 20 19  2  0
 21 17  1  0
 22 21  1  0
 23 24  1  0
 22 23  1  1
 24 25  1  0
 25 26  2  0
 27 22  1  0
 27 28  1  0
 29 25  1  0
 30 27  2  0
M  END
$$$$
