LYE.pdb
     RDKit          3D

 30 30  0  0  1  0  0  0  0  0999 V2000
   24.6518  -14.3015  -14.7243 C   0  0  0  0  0  0  0  0  0  0  0  0
   23.7437  -13.3299  -15.4480 C   0  0  1  0  0  0  0  0  0  0  0  0
   22.2898  -13.7990  -15.4265 C   0  0  0  0  0  0  0  0  0  0  0  0
   23.8687  -11.9106  -14.9214 C   0  0  0  0  0  0  0  0  0  0  0  0
   22.9136  -11.0319  -15.6432 C   0  0  2  0  0  0  0  0  0  0  0  0
   22.9632  -11.2430  -17.0505 N   0  0  0  0  0  0  0  0  0  0  0  0
   23.0750   -9.5906  -15.3532 C   0  0  0  0  0  0  0  0  0  0  0  0
   23.0705   -9.1269  -14.1807 O   0  0  0  0  0  0  0  0  0  0  0  0
   24.7331   -1.0915  -17.3214 O   0  0  0  0  0  0  0  0  0  0  0  0
   24.6533   -2.4659  -17.3209 C   0  0  0  0  0  0  0  0  0  0  0  0
   23.8738   -3.1687  -18.2102 C   0  0  0  0  0  0  0  0  0  0  0  0
   23.7985   -4.5436  -18.1987 C   0  0  0  0  0  0  0  0  0  0  0  0
   24.5335   -5.2758  -17.2572 C   0  0  0  0  0  0  0  0  0  0  0  0
   24.4307   -6.7324  -17.1649 C   0  0  0  0  0  0  0  0  0  0  0  0
   23.4186   -7.2192  -16.2154 C   0  0  2  0  0  0  0  0  0  0  0  0
   23.2416   -8.6847  -16.4043 N   0  0  0  0  0  0  0  0  0  0  0  0
   22.0824   -6.6596  -16.3920 C   0  0  0  0  0  0  0  0  0  0  0  0
   21.5566   -6.7744  -17.5574 O   0  0  0  0  0  0  0  0  0  0  0  0
   25.3100   -4.5683  -16.3725 C   0  0  0  0  0  0  0  0  0  0  0  0
   25.3691   -3.2055  -16.4040 C   0  0  0  0  0  0  0  0  0  0  0  0
   21.2688   -6.0070  -15.4269 N   0  0  0  0  0  0  0  0  0  0  0  0
   20.0612   -5.3315  -15.7154 C   0  0  1  0  0  0  0  0  0  0  0  0
   18.7582   -5.9542  -15.4561 C   0  0  0  0  0  0  0  0  0  0  0  0
   18.6875   -7.3681  -15.9769 C   0  0  0  0  0  0  0  0  0  0  0  0
   18.0739   -8.2585  -14.9596 C   0  0  0  0  0  0  0  0  0  0  0  0
   17.2040   -7.7953  -14.1867 O   0  0  0  0  0  0  0  0  0  0  0  0
   19.9971   -3.9150  -15.2024 C   0  0  0  0  0  0  0  0  0  0  0  0
   20.9960   -3.4870  -14.3628 O   0  0  0  0  0  0  0  0  0  0  0  0
   18.4792   -9.5767  -14.8927 O   0  0  0  0  0  0  0  0  0  0  0  0
   19.0742   -3.1788  -15.5328 O   0  0  0  0  0  0  0  0  0  0  0  0
  2  1  1  1
  2  3  1  0
  4  2  1  0
  5  4  1  0
  5  6  1  6
  7  5  1  0
  7  8  2  0
  9 10  1  0
 10 11  2  0
 11 12  1  0
 13 12  2  0
 13 14  1  0
 15 14  1  6
 15 16  1  0
 16  7  1  0
 17 15  1  0
 18 17  2  0
 19 13  1  0
 20 10  1  0
 20 19  2  0
 21 17  1  0
 22 21  1  0
 23 24  1  0
 22 23  1  1
 24 25  1  0
 25 26  2  0
 27 22  1  0
 27 28  1  0
 29 25  1  0
 30 27  2  0
M  END
$$$$
