LYE.pdb
     RDKit          3D

 30 30  0  0  1  0  0  0  0  0999 V2000
   24.2903  -31.8633   -7.5744 C   0  0  0  0  0  0  0  0  0  0  0  0
   25.3911  -32.7800   -8.0645 C   0  0  1  0  0  0  0  0  0  0  0  0
   26.4098  -32.0265   -8.9181 C   0  0  0  0  0  0  0  0  0  0  0  0
   26.0731  -33.5304   -6.9335 C   0  0  0  0  0  0  0  0  0  0  0  0
   27.1226  -34.4188   -7.4947 C   0  0  2  0  0  0  0  0  0  0  0  0
   26.5674  -35.4248   -8.3356 N   0  0  0  0  0  0  0  0  0  0  0  0
   27.9934  -35.0485   -6.4786 C   0  0  0  0  0  0  0  0  0  0  0  0
   27.7820  -36.2048   -6.0224 O   0  0  0  0  0  0  0  0  0  0  0  0
   35.6769  -36.3759   -2.2897 O   0  0  0  0  0  0  0  0  0  0  0  0
   34.6335  -35.8161   -2.9921 C   0  0  0  0  0  0  0  0  0  0  0  0
   33.6730  -35.0286   -2.4006 C   0  0  0  0  0  0  0  0  0  0  0  0
   32.6313  -34.4763   -3.1120 C   0  0  0  0  0  0  0  0  0  0  0  0
   32.5244  -34.7097   -4.4892 C   0  0  0  0  0  0  0  0  0  0  0  0
   31.3975  -34.1996   -5.2707 C   0  0  0  0  0  0  0  0  0  0  0  0
   30.1523  -34.9693   -5.1303 C   0  0  2  0  0  0  0  0  0  0  0  0
   29.1028  -34.3546   -5.9879 N   0  0  0  0  0  0  0  0  0  0  0  0
   29.5761  -34.9776   -3.7895 C   0  0  0  0  0  0  0  0  0  0  0  0
   29.0611  -33.8774   -3.3745 O   0  0  0  0  0  0  0  0  0  0  0  0
   33.4865  -35.4964   -5.0737 C   0  0  0  0  0  0  0  0  0  0  0  0
   34.5102  -36.0322   -4.3478 C   0  0  0  0  0  0  0  0  0  0  0  0
   29.4962  -36.0618   -2.8745 N   0  0  0  0  0  0  0  0  0  0  0  0
   28.9109  -35.9904   -1.5899 C   0  0  1  0  0  0  0  0  0  0  0  0
   28.5568  -37.2037   -0.8446 C   0  0  0  0  0  0  0  0  0  0  0  0
   27.7971  -36.8947    0.4214 C   0  0  0  0  0  0  0  0  0  0  0  0
   27.5294  -38.1450    1.1760 C   0  0  0  0  0  0  0  0  0  0  0  0
   27.8609  -39.2442    0.6753 O   0  0  0  0  0  0  0  0  0  0  0  0
   29.6104  -35.0582   -0.6330 C   0  0  0  0  0  0  0  0  0  0  0  0
   30.9829  -35.0848   -0.5937 O   0  0  0  0  0  0  0  0  0  0  0  0
   26.9213  -38.0627    2.4128 O   0  0  0  0  0  0  0  0  0  0  0  0
   28.9602  -34.3051    0.0832 O   0  0  0  0  0  0  0  0  0  0  0  0
  2  1  1  1
  2  3  1  0
  4  2  1  0
  5  4  1  0
  5  6  1  1
  7  5  1  0
  7  8  2  0
  9 10  1  0
 10 11  2  0
 11 12  1  0
 13 12  2  0
 13 14  1  0
 15 14  1  1
 15 16  1  0
 16  7  1  0
 17 15  1  0
 18 17  2  0
 19 13  1  0
 20 10  1  0
 20 19  2  0
 21 17  1  0
 22 21  1  0
 23 24  1  0
 22 23  1  1
 24 25  1  0
 25 26  2  0
 27 22  1  0
 27 28  1  0
 29 25  1  0
 30 27  2  0
M  END
$$$$
