LYE.pdb
     RDKit          3D

 30 30  0  0  1  0  0  0  0  0999 V2000
   28.8587  -20.6801  -21.2973 C   0  0  0  0  0  0  0  0  0  0  0  0
   28.1028  -19.8427  -20.2874 C   0  0  1  0  0  0  0  0  0  0  0  0
   27.0371  -18.9793  -20.9606 C   0  0  0  0  0  0  0  0  0  0  0  0
   27.5045  -20.6768  -19.1678 C   0  0  0  0  0  0  0  0  0  0  0  0
   26.7567  -19.7909  -18.2397 C   0  0  2  0  0  0  0  0  0  0  0  0
   27.5605  -18.7085  -17.7818 N   0  0  0  0  0  0  0  0  0  0  0  0
   26.1606  -20.4894  -17.0803 C   0  0  0  0  0  0  0  0  0  0  0  0
   25.4767  -21.5423  -17.1972 O   0  0  0  0  0  0  0  0  0  0  0  0
   23.8963  -21.0218   -8.4177 O   0  0  0  0  0  0  0  0  0  0  0  0
   24.5282  -20.8280   -9.6254 C   0  0  0  0  0  0  0  0  0  0  0  0
   25.7546  -21.3759   -9.9226 C   0  0  0  0  0  0  0  0  0  0  0  0
   26.3795  -21.1728  -11.1327 C   0  0  0  0  0  0  0  0  0  0  0  0
   25.7639  -20.3841  -12.1133 C   0  0  0  0  0  0  0  0  0  0  0  0
   26.4219  -20.0863  -13.3859 C   0  0  0  0  0  0  0  0  0  0  0  0
   25.6881  -20.5358  -14.5784 C   0  0  2  0  0  0  0  0  0  0  0  0
   26.3488  -19.9824  -15.7916 N   0  0  0  0  0  0  0  0  0  0  0  0
   24.3063  -20.0745  -14.6670 C   0  0  0  0  0  0  0  0  0  0  0  0
   24.1205  -18.8887  -15.1220 O   0  0  0  0  0  0  0  0  0  0  0  0
   24.5396  -19.8404  -11.8107 C   0  0  0  0  0  0  0  0  0  0  0  0
   23.9396  -20.0566  -10.6044 C   0  0  0  0  0  0  0  0  0  0  0  0
   23.1212  -20.7795  -14.3240 N   0  0  0  0  0  0  0  0  0  0  0  0
   21.8086  -20.2961  -14.5276 C   0  0  1  0  0  0  0  0  0  0  0  0
   21.3366  -19.9097  -15.8621 C   0  0  0  0  0  0  0  0  0  0  0  0
   21.0775  -18.4276  -15.9689 C   0  0  0  0  0  0  0  0  0  0  0  0
   19.9344  -18.1720  -16.8812 C   0  0  0  0  0  0  0  0  0  0  0  0
   19.3094  -19.1436  -17.3652 O   0  0  0  0  0  0  0  0  0  0  0  0
   20.7271  -21.1296  -13.8876 C   0  0  0  0  0  0  0  0  0  0  0  0
   20.9967  -22.4521  -13.6344 O   0  0  0  0  0  0  0  0  0  0  0  0
   19.5896  -16.8671  -17.1722 O   0  0  0  0  0  0  0  0  0  0  0  0
   19.6440  -20.6282  -13.6080 O   0  0  0  0  0  0  0  0  0  0  0  0
  2  1  1  6
  2  3  1  0
  4  2  1  0
  5  4  1  0
  5  6  1  1
  7  5  1  0
  7  8  2  0
  9 10  1  0
 10 11  2  0
 11 12  1  0
 13 12  2  0
 13 14  1  0
 15 14  1  1
 15 16  1  0
 16  7  1  0
 17 15  1  0
 18 17  2  0
 19 13  1  0
 20 10  1  0
 20 19  2  0
 21 17  1  0
 22 21  1  0
 23 24  1  0
 22 23  1  6
 24 25  1  0
 25 26  2  0
 27 22  1  0
 27 28  1  0
 29 25  1  0
 30 27  2  0
M  END
$$$$
