LYE.pdb
     RDKit          3D

 30 30  0  0  1  0  0  0  0  0999 V2000
   15.3349  -14.6300  -18.6980 C   0  0  0  0  0  0  0  0  0  0  0  0
   16.7496  -14.2560  -18.3091 C   0  0  1  0  0  0  0  0  0  0  0  0
   17.5669  -13.8158  -19.5226 C   0  0  0  0  0  0  0  0  0  0  0  0
   16.7956  -13.2092  -17.2094 C   0  0  0  0  0  0  0  0  0  0  0  0
   18.2109  -12.8870  -16.8955 C   0  0  2  0  0  0  0  0  0  0  0  0
   18.8676  -13.9721  -16.2484 N   0  0  0  0  0  0  0  0  0  0  0  0
   18.3916  -11.6537  -16.0993 C   0  0  0  0  0  0  0  0  0  0  0  0
   17.7375  -11.4201  -15.0470 O   0  0  0  0  0  0  0  0  0  0  0  0
   22.7126   -4.3977  -13.4152 O   0  0  0  0  0  0  0  0  0  0  0  0
   22.3453   -5.6047  -13.9662 C   0  0  0  0  0  0  0  0  0  0  0  0
   22.4426   -5.8712  -15.3124 C   0  0  0  0  0  0  0  0  0  0  0  0
   22.0691   -7.0811  -15.8536 C   0  0  0  0  0  0  0  0  0  0  0  0
   21.5696   -8.0933  -15.0240 C   0  0  0  0  0  0  0  0  0  0  0  0
   21.0974   -9.3683  -15.5648 C   0  0  0  0  0  0  0  0  0  0  0  0
   19.6394   -9.4647  -15.7305 C   0  0  2  0  0  0  0  0  0  0  0  0
   19.3197  -10.6923  -16.5086 N   0  0  0  0  0  0  0  0  0  0  0  0
   19.0280   -8.3772  -16.4878 C   0  0  0  0  0  0  0  0  0  0  0  0
   19.3127   -8.3114  -17.7377 O   0  0  0  0  0  0  0  0  0  0  0  0
   21.4752   -7.8211  -13.6811 C   0  0  0  0  0  0  0  0  0  0  0  0
   21.8525   -6.6145  -13.1678 C   0  0  0  0  0  0  0  0  0  0  0  0
   18.1353   -7.3750  -16.0209 N   0  0  0  0  0  0  0  0  0  0  0  0
   17.7738   -6.2169  -16.7460 C   0  0  1  0  0  0  0  0  0  0  0  0
   16.4632   -5.5822  -16.5655 C   0  0  0  0  0  0  0  0  0  0  0  0
   15.3422   -6.5903  -16.5194 C   0  0  0  0  0  0  0  0  0  0  0  0
   14.0426   -5.9021  -16.3148 C   0  0  0  0  0  0  0  0  0  0  0  0
   13.3084   -5.6755  -17.3040 O   0  0  0  0  0  0  0  0  0  0  0  0
   18.8121   -5.1234  -16.7394 C   0  0  0  0  0  0  0  0  0  0  0  0
   19.5621   -4.9527  -15.6018 O   0  0  0  0  0  0  0  0  0  0  0  0
   13.6768   -5.5298  -15.0366 O   0  0  0  0  0  0  0  0  0  0  0  0
   18.9703   -4.4149  -17.7273 O   0  0  0  0  0  0  0  0  0  0  0  0
  2  1  1  6
  2  3  1  0
  4  2  1  0
  5  4  1  0
  5  6  1  1
  7  5  1  0
  7  8  2  0
  9 10  1  0
 10 11  2  0
 11 12  1  0
 13 12  2  0
 13 14  1  0
 15 14  1  6
 15 16  1  0
 16  7  1  0
 17 15  1  0
 18 17  2  0
 19 13  1  0
 20 10  1  0
 20 19  2  0
 21 17  1  0
 22 21  1  0
 23 24  1  0
 22 23  1  1
 24 25  1  0
 25 26  2  0
 27 22  1  0
 27 28  1  0
 29 25  1  0
 30 27  2  0
M  END
$$$$
