LYE.pdb
     RDKit          3D

 30 30  0  0  1  0  0  0  0  0999 V2000
   15.7055  -10.2257  -19.2553 C   0  0  0  0  0  0  0  0  0  0  0  0
   17.1627  -10.6252  -19.1584 C   0  0  1  0  0  0  0  0  0  0  0  0
   18.0181   -9.8778  -20.1802 C   0  0  0  0  0  0  0  0  0  0  0  0
   17.7206  -10.4636  -17.7548 C   0  0  0  0  0  0  0  0  0  0  0  0
   19.1651  -10.8082  -17.7566 C   0  0  2  0  0  0  0  0  0  0  0  0
   19.3728  -12.2086  -17.9083 N   0  0  0  0  0  0  0  0  0  0  0  0
   19.9073  -10.3234  -16.5728 C   0  0  0  0  0  0  0  0  0  0  0  0
   19.6494  -10.7111  -15.4010 O   0  0  0  0  0  0  0  0  0  0  0  0
   23.9772  -15.0574  -15.3652 O   0  0  0  0  0  0  0  0  0  0  0  0
   23.7666  -13.7067  -15.5285 C   0  0  0  0  0  0  0  0  0  0  0  0
   23.5245  -13.1319  -16.7547 C   0  0  0  0  0  0  0  0  0  0  0  0
   23.3185  -11.7789  -16.9073 C   0  0  0  0  0  0  0  0  0  0  0  0
   23.3513  -10.9366  -15.7884 C   0  0  0  0  0  0  0  0  0  0  0  0
   23.2058   -9.4860  -15.9130 C   0  0  0  0  0  0  0  0  0  0  0  0
   21.8546   -8.9766  -15.6349 C   0  0  2  0  0  0  0  0  0  0  0  0
   20.9421   -9.3977  -16.7326 N   0  0  0  0  0  0  0  0  0  0  0  0
   21.7362   -7.5226  -15.5931 C   0  0  0  0  0  0  0  0  0  0  0  0
   22.0042   -6.8891  -16.6769 O   0  0  0  0  0  0  0  0  0  0  0  0
   23.5932  -11.5166  -14.5672 C   0  0  0  0  0  0  0  0  0  0  0  0
   23.7936  -12.8604  -14.4409 C   0  0  0  0  0  0  0  0  0  0  0  0
   21.3447   -6.7043  -14.4994 N   0  0  0  0  0  0  0  0  0  0  0  0
   21.3731   -5.2911  -14.4997 C   0  0  1  0  0  0  0  0  0  0  0  0
   20.1359   -4.5034  -14.5428 C   0  0  0  0  0  0  0  0  0  0  0  0
   19.0003   -5.2589  -15.1867 C   0  0  0  0  0  0  0  0  0  0  0  0
   17.7323   -4.5007  -15.0395 C   0  0  0  0  0  0  0  0  0  0  0  0
   17.7356   -3.4213  -14.4041 O   0  0  0  0  0  0  0  0  0  0  0  0
   22.2625   -4.6815  -13.4456 C   0  0  0  0  0  0  0  0  0  0  0  0
   22.6214   -3.3635  -13.5877 O   0  0  0  0  0  0  0  0  0  0  0  0
   16.5805   -5.0065  -15.6086 O   0  0  0  0  0  0  0  0  0  0  0  0
   22.6470   -5.3547  -12.4960 O   0  0  0  0  0  0  0  0  0  0  0  0
  2  1  1  1
  2  3  1  0
  4  2  1  0
  5  4  1  0
  5  6  1  1
  7  5  1  0
  7  8  2  0
  9 10  1  0
 10 11  2  0
 11 12  1  0
 13 12  2  0
 13 14  1  0
 15 14  1  6
 15 16  1  0
 16  7  1  0
 17 15  1  0
 18 17  2  0
 19 13  1  0
 20 10  1  0
 20 19  2  0
 21 17  1  0
 22 21  1  0
 23 24  1  0
 22 23  1  1
 24 25  1  0
 25 26  2  0
 27 22  1  0
 27 28  1  0
 29 25  1  0
 30 27  2  0
M  END
$$$$
