LYE.pdb
     RDKit          3D

 30 30  0  0  1  0  0  0  0  0999 V2000
   29.4332  -20.1383   -4.8206 C   0  0  0  0  0  0  0  0  0  0  0  0
   27.9986  -19.9868   -5.2805 C   0  0  1  0  0  0  0  0  0  0  0  0
   27.1665  -19.1981   -4.2707 C   0  0  0  0  0  0  0  0  0  0  0  0
   27.8914  -19.3816   -6.6696 C   0  0  0  0  0  0  0  0  0  0  0  0
   26.5329  -19.6351   -7.2134 C   0  0  2  0  0  0  0  0  0  0  0  0
   26.0321  -20.9055   -6.8100 N   0  0  0  0  0  0  0  0  0  0  0  0
   26.4330  -19.5081   -8.6835 C   0  0  0  0  0  0  0  0  0  0  0  0
   26.7879  -18.4690   -9.3033 O   0  0  0  0  0  0  0  0  0  0  0  0
   26.9025  -22.1876  -17.0123 O   0  0  0  0  0  0  0  0  0  0  0  0
   26.8321  -22.1283  -15.6386 C   0  0  0  0  0  0  0  0  0  0  0  0
   25.9310  -22.8646  -14.9049 C   0  0  0  0  0  0  0  0  0  0  0  0
   25.8666  -22.7950  -13.5311 C   0  0  0  0  0  0  0  0  0  0  0  0
   26.7404  -21.9517  -12.8325 C   0  0  0  0  0  0  0  0  0  0  0  0
   26.6615  -21.7954  -11.3799 C   0  0  0  0  0  0  0  0  0  0  0  0
   25.9309  -20.6019  -10.9278 C   0  0  2  0  0  0  0  0  0  0  0  0
   25.9283  -20.5694   -9.4399 N   0  0  0  0  0  0  0  0  0  0  0  0
   24.5207  -20.5595  -11.3010 C   0  0  0  0  0  0  0  0  0  0  0  0
   23.6995  -21.1743  -10.5294 O   0  0  0  0  0  0  0  0  0  0  0  0
   27.6377  -21.2196  -13.5707 C   0  0  0  0  0  0  0  0  0  0  0  0
   27.6831  -21.3060  -14.9317 C   0  0  0  0  0  0  0  0  0  0  0  0
   23.9259  -19.9067  -12.4142 N   0  0  0  0  0  0  0  0  0  0  0  0
   22.5443  -19.9201  -12.7124 C   0  0  1  0  0  0  0  0  0  0  0  0
   21.9397  -18.8967  -13.5726 C   0  0  0  0  0  0  0  0  0  0  0  0
   22.1839  -19.1646  -15.0367 C   0  0  0  0  0  0  0  0  0  0  0  0
   22.9968  -18.0722  -15.6286 C   0  0  0  0  0  0  0  0  0  0  0  0
   24.2437  -18.1075  -15.5148 O   0  0  0  0  0  0  0  0  0  0  0  0
   22.0118  -21.2589  -13.1572 C   0  0  0  0  0  0  0  0  0  0  0  0
   20.6911  -21.5426  -12.9093 O   0  0  0  0  0  0  0  0  0  0  0  0
   22.3553  -17.0443  -16.2905 O   0  0  0  0  0  0  0  0  0  0  0  0
   22.7476  -22.0607  -13.7216 O   0  0  0  0  0  0  0  0  0  0  0  0
  2  1  1  1
  2  3  1  0
  4  2  1  0
  5  4  1  0
  5  6  1  6
  7  5  1  0
  7  8  2  0
  9 10  1  0
 10 11  2  0
 11 12  1  0
 13 12  2  0
 13 14  1  0
 15 14  1  1
 15 16  1  0
 16  7  1  0
 17 15  1  0
 18 17  2  0
 19 13  1  0
 20 10  1  0
 20 19  2  0
 21 17  1  0
 22 21  1  0
 23 24  1  0
 22 23  1  6
 24 25  1  0
 25 26  2  0
 27 22  1  0
 27 28  1  0
 29 25  1  0
 30 27  2  0
M  END
$$$$
