LYE.pdb
     RDKit          3D

 30 30  0  0  1  0  0  0  0  0999 V2000
   22.4588  -11.5099  -20.8343 C   0  0  0  0  0  0  0  0  0  0  0  0
   21.2333  -11.2183  -19.9943 C   0  0  1  0  0  0  0  0  0  0  0  0
   19.9513  -11.6508  -20.7041 C   0  0  0  0  0  0  0  0  0  0  0  0
   21.3203  -11.8241  -18.6041 C   0  0  0  0  0  0  0  0  0  0  0  0
   22.2414  -11.0112  -17.7697 C   0  0  2  0  0  0  0  0  0  0  0  0
   23.4909  -11.6652  -17.5737 N   0  0  0  0  0  0  0  0  0  0  0  0
   21.6821  -10.6103  -16.4606 C   0  0  0  0  0  0  0  0  0  0  0  0
   21.2719  -11.4460  -15.6102 O   0  0  0  0  0  0  0  0  0  0  0  0
   23.8526   -3.0804  -15.6081 O   0  0  0  0  0  0  0  0  0  0  0  0
   23.4841   -4.3519  -15.2304 C   0  0  0  0  0  0  0  0  0  0  0  0
   24.0319   -5.4843  -15.7873 C   0  0  0  0  0  0  0  0  0  0  0  0
   23.6535   -6.7518  -15.4045 C   0  0  0  0  0  0  0  0  0  0  0  0
   22.6776   -6.9203  -14.4136 C   0  0  0  0  0  0  0  0  0  0  0  0
   22.1967   -8.2464  -14.0250 C   0  0  0  0  0  0  0  0  0  0  0  0
   21.0736   -8.7536  -14.8274 C   0  0  2  0  0  0  0  0  0  0  0  0
   21.5944   -9.2557  -16.1279 N   0  0  0  0  0  0  0  0  0  0  0  0
   20.0709   -7.7572  -15.1905 C   0  0  0  0  0  0  0  0  0  0  0  0
   20.2824   -7.0892  -16.2660 O   0  0  0  0  0  0  0  0  0  0  0  0
   22.1348   -5.7859  -13.8614 C   0  0  0  0  0  0  0  0  0  0  0  0
   22.5267   -4.5401  -14.2567 C   0  0  0  0  0  0  0  0  0  0  0  0
   18.8671   -7.4335  -14.5085 N   0  0  0  0  0  0  0  0  0  0  0  0
   17.9459   -6.4455  -14.9248 C   0  0  1  0  0  0  0  0  0  0  0  0
   16.5071   -6.7246  -14.9930 C   0  0  0  0  0  0  0  0  0  0  0  0
   15.7318   -5.5809  -15.5980 C   0  0  0  0  0  0  0  0  0  0  0  0
   14.2783   -5.8833  -15.5837 C   0  0  0  0  0  0  0  0  0  0  0  0
   13.8824   -6.9581  -15.0770 O   0  0  0  0  0  0  0  0  0  0  0  0
   18.1168   -5.1062  -14.2534 C   0  0  0  0  0  0  0  0  0  0  0  0
   17.7626   -3.9816  -14.9576 O   0  0  0  0  0  0  0  0  0  0  0  0
   13.3995   -4.9693  -16.1302 O   0  0  0  0  0  0  0  0  0  0  0  0
   18.5607   -5.0383  -13.1127 O   0  0  0  0  0  0  0  0  0  0  0  0
  2  1  1  6
  2  3  1  0
  4  2  1  0
  5  4  1  0
  5  6  1  1
  7  5  1  0
  7  8  2  0
  9 10  1  0
 10 11  2  0
 11 12  1  0
 13 12  2  0
 13 14  1  0
 15 14  1  1
 15 16  1  0
 16  7  1  0
 17 15  1  0
 18 17  2  0
 19 13  1  0
 20 10  1  0
 20 19  2  0
 21 17  1  0
 22 21  1  0
 23 24  1  0
 22 23  1  1
 24 25  1  0
 25 26  2  0
 27 22  1  0
 27 28  1  0
 29 25  1  0
 30 27  2  0
M  END
$$$$
