LYE.pdb
     RDKit          3D

 30 30  0  0  1  0  0  0  0  0999 V2000
   17.1375  -17.3268  -24.4556 C   0  0  0  0  0  0  0  0  0  0  0  0
   18.2990  -17.9317  -23.6957 C   0  0  1  0  0  0  0  0  0  0  0  0
   19.5810  -17.9171  -24.5267 C   0  0  0  0  0  0  0  0  0  0  0  0
   18.5163  -17.2767  -22.3426 C   0  0  0  0  0  0  0  0  0  0  0  0
   19.7329  -17.8466  -21.7096 C   0  0  2  0  0  0  0  0  0  0  0  0
   19.5645  -19.2235  -21.3886 N   0  0  0  0  0  0  0  0  0  0  0  0
   20.1961  -17.1124  -20.5121 C   0  0  0  0  0  0  0  0  0  0  0  0
   19.7179  -17.3130  -19.3628 O   0  0  0  0  0  0  0  0  0  0  0  0
   24.6145  -20.9857  -17.6025 O   0  0  0  0  0  0  0  0  0  0  0  0
   24.2760  -19.7417  -18.0857 C   0  0  0  0  0  0  0  0  0  0  0  0
   24.2910  -19.4321  -19.4260 C   0  0  0  0  0  0  0  0  0  0  0  0
   23.9538  -18.1833  -19.8983 C   0  0  0  0  0  0  0  0  0  0  0  0
   23.5779  -17.1750  -19.0014 C   0  0  0  0  0  0  0  0  0  0  0  0
   23.2780  -15.8160  -19.4532 C   0  0  0  0  0  0  0  0  0  0  0  0
   21.8475  -15.4756  -19.4736 C   0  0  2  0  0  0  0  0  0  0  0  0
   21.2044  -16.1522  -20.6326 N   0  0  0  0  0  0  0  0  0  0  0  0
   21.5496  -14.0592  -19.6605 C   0  0  0  0  0  0  0  0  0  0  0  0
   21.6652  -13.5962  -20.8522 O   0  0  0  0  0  0  0  0  0  0  0  0
   23.5646  -17.4905  -17.6648 C   0  0  0  0  0  0  0  0  0  0  0  0
   23.9021  -18.7358  -17.2206 C   0  0  0  0  0  0  0  0  0  0  0  0
   21.1292  -13.1140  -18.6863 N   0  0  0  0  0  0  0  0  0  0  0  0
   20.8410  -11.7561  -18.9529 C   0  0  1  0  0  0  0  0  0  0  0  0
   20.1701  -10.9096  -17.9598 C   0  0  0  0  0  0  0  0  0  0  0  0
   19.6833   -9.6107  -18.5524 C   0  0  0  0  0  0  0  0  0  0  0  0
   19.0618   -8.7685  -17.4995 C   0  0  0  0  0  0  0  0  0  0  0  0
   19.1122   -9.1456  -16.3061 O   0  0  0  0  0  0  0  0  0  0  0  0
   21.9979  -10.9679  -19.5134 C   0  0  0  0  0  0  0  0  0  0  0  0
   21.7153   -9.8699  -20.2883 O   0  0  0  0  0  0  0  0  0  0  0  0
   18.4439   -7.5890  -17.8644 O   0  0  0  0  0  0  0  0  0  0  0  0
   23.1513  -11.3093  -19.2768 O   0  0  0  0  0  0  0  0  0  0  0  0
  2  1  1  6
  2  3  1  0
  4  2  1  0
  5  4  1  0
  5  6  1  1
  7  5  1  0
  7  8  2  0
  9 10  1  0
 10 11  2  0
 11 12  1  0
 13 12  2  0
 13 14  1  0
 15 14  1  6
 15 16  1  0
 16  7  1  0
 17 15  1  0
 18 17  2  0
 19 13  1  0
 20 10  1  0
 20 19  2  0
 21 17  1  0
 22 21  1  0
 23 24  1  0
 22 23  1  1
 24 25  1  0
 25 26  2  0
 27 22  1  0
 27 28  1  0
 29 25  1  0
 30 27  2  0
M  END
$$$$
