LYE.pdb
     RDKit          3D

 30 30  0  0  1  0  0  0  0  0999 V2000
   31.2204  -22.3456  -19.7598 C   0  0  0  0  0  0  0  0  0  0  0  0
   29.9315  -21.6897  -19.3115 C   0  0  1  0  0  0  0  0  0  0  0  0
   28.8953  -21.6646  -20.4339 C   0  0  0  0  0  0  0  0  0  0  0  0
   29.3609  -22.3223  -18.0539 C   0  0  0  0  0  0  0  0  0  0  0  0
   28.1553  -21.5676  -17.6268 C   0  0  2  0  0  0  0  0  0  0  0  0
   28.3727  -20.1609  -17.6655 N   0  0  0  0  0  0  0  0  0  0  0  0
   27.6374  -21.9517  -16.2957 C   0  0  0  0  0  0  0  0  0  0  0  0
   27.5594  -23.1512  -15.9152 O   0  0  0  0  0  0  0  0  0  0  0  0
   25.0697  -20.5320   -7.8515 O   0  0  0  0  0  0  0  0  0  0  0  0
   25.5990  -20.5094   -9.1223 C   0  0  0  0  0  0  0  0  0  0  0  0
   26.7709  -21.1490   -9.4543 C   0  0  0  0  0  0  0  0  0  0  0  0
   27.2933  -21.1171  -10.7280 C   0  0  0  0  0  0  0  0  0  0  0  0
   26.6254  -20.4151  -11.7398 C   0  0  0  0  0  0  0  0  0  0  0  0
   27.1790  -20.2980  -13.0891 C   0  0  0  0  0  0  0  0  0  0  0  0
   26.6284  -21.2501  -14.0653 C   0  0  2  0  0  0  0  0  0  0  0  0
   27.2110  -20.9633  -15.4043 N   0  0  0  0  0  0  0  0  0  0  0  0
   25.1850  -21.1686  -14.2651 C   0  0  0  0  0  0  0  0  0  0  0  0
   24.7585  -20.2259  -15.0248 O   0  0  0  0  0  0  0  0  0  0  0  0
   25.4560  -19.7791  -11.4020 C   0  0  0  0  0  0  0  0  0  0  0  0
   24.9574  -19.8257  -10.1327 C   0  0  0  0  0  0  0  0  0  0  0  0
   24.1754  -22.0152  -13.7330 N   0  0  0  0  0  0  0  0  0  0  0  0
   22.7873  -21.8366  -13.9308 C   0  0  1  0  0  0  0  0  0  0  0  0
   21.8958  -22.9799  -14.1569 C   0  0  0  0  0  0  0  0  0  0  0  0
   20.4682  -22.5529  -14.3915 C   0  0  0  0  0  0  0  0  0  0  0  0
   19.9569  -23.1466  -15.6526 C   0  0  0  0  0  0  0  0  0  0  0  0
   20.6485  -24.0036  -16.2493 O   0  0  0  0  0  0  0  0  0  0  0  0
   22.1212  -20.9343  -12.9229 C   0  0  0  0  0  0  0  0  0  0  0  0
   20.8713  -20.4484  -13.2186 O   0  0  0  0  0  0  0  0  0  0  0  0
   18.7294  -22.7379  -16.1348 O   0  0  0  0  0  0  0  0  0  0  0  0
   22.6909  -20.6507  -11.8751 O   0  0  0  0  0  0  0  0  0  0  0  0
  2  1  1  6
  2  3  1  0
  4  2  1  0
  5  4  1  0
  5  6  1  1
  7  5  1  0
  7  8  2  0
  9 10  1  0
 10 11  2  0
 11 12  1  0
 13 12  2  0
 13 14  1  0
 15 14  1  1
 15 16  1  0
 16  7  1  0
 17 15  1  0
 18 17  2  0
 19 13  1  0
 20 10  1  0
 20 19  2  0
 21 17  1  0
 22 21  1  0
 23 24  1  0
 22 23  1  1
 24 25  1  0
 25 26  2  0
 27 22  1  0
 27 28  1  0
 29 25  1  0
 30 27  2  0
M  END
$$$$
