LYE.pdb
     RDKit          3D

 30 30  0  0  1  0  0  0  0  0999 V2000
   28.0192  -18.5858  -17.0750 C   0  0  0  0  0  0  0  0  0  0  0  0
   28.3093  -19.8632  -17.8342 C   0  0  1  0  0  0  0  0  0  0  0  0
   29.7225  -19.8618  -18.4148 C   0  0  0  0  0  0  0  0  0  0  0  0
   28.0619  -21.1079  -16.9993 C   0  0  0  0  0  0  0  0  0  0  0  0
   28.5386  -22.3019  -17.7426 C   0  0  2  0  0  0  0  0  0  0  0  0
   28.0472  -22.3219  -19.0789 N   0  0  0  0  0  0  0  0  0  0  0  0
   28.2329  -23.5903  -17.0838 C   0  0  0  0  0  0  0  0  0  0  0  0
   28.5132  -23.8215  -15.8765 O   0  0  0  0  0  0  0  0  0  0  0  0
   22.9843  -22.6542  -13.4485 O   0  0  0  0  0  0  0  0  0  0  0  0
   23.6411  -23.4106  -14.3928 C   0  0  0  0  0  0  0  0  0  0  0  0
   23.7185  -23.0481  -15.7176 C   0  0  0  0  0  0  0  0  0  0  0  0
   24.3752  -23.8140  -16.6548 C   0  0  0  0  0  0  0  0  0  0  0  0
   24.9954  -25.0096  -16.2697 C   0  0  0  0  0  0  0  0  0  0  0  0
   25.6449  -25.8877  -17.2434 C   0  0  0  0  0  0  0  0  0  0  0  0
   27.1148  -25.8753  -17.1994 C   0  0  2  0  0  0  0  0  0  0  0  0
   27.6076  -24.6095  -17.8073 N   0  0  0  0  0  0  0  0  0  0  0  0
   27.7672  -26.9321  -17.9658 C   0  0  0  0  0  0  0  0  0  0  0  0
   27.8751  -26.7463  -19.2314 O   0  0  0  0  0  0  0  0  0  0  0  0
   24.9148  -25.3658  -14.9458 C   0  0  0  0  0  0  0  0  0  0  0  0
   24.2589  -24.5897  -14.0351 C   0  0  0  0  0  0  0  0  0  0  0  0
   28.3192  -28.1511  -17.4878 N   0  0  0  0  0  0  0  0  0  0  0  0
   29.0198  -29.0853  -18.2841 C   0  0  1  0  0  0  0  0  0  0  0  0
   30.1527  -29.8474  -17.7469 C   0  0  0  0  0  0  0  0  0  0  0  0
   30.9222  -30.5646  -18.8280 C   0  0  0  0  0  0  0  0  0  0  0  0
   32.0969  -31.2606  -18.2448 C   0  0  0  0  0  0  0  0  0  0  0  0
   32.2840  -31.2118  -17.0073 O   0  0  0  0  0  0  0  0  0  0  0  0
   28.1406  -30.0507  -19.0383 C   0  0  0  0  0  0  0  0  0  0  0  0
   28.6774  -30.7001  -20.1227 O   0  0  0  0  0  0  0  0  0  0  0  0
   32.9535  -31.9450  -19.0839 O   0  0  0  0  0  0  0  0  0  0  0  0
   26.9826  -30.2395  -18.6831 O   0  0  0  0  0  0  0  0  0  0  0  0
  2  1  1  1
  2  3  1  0
  4  2  1  0
  5  4  1  0
  5  6  1  6
  7  5  1  0
  7  8  2  0
  9 10  1  0
 10 11  2  0
 11 12  1  0
 13 12  2  0
 13 14  1  0
 15 14  1  6
 15 16  1  0
 16  7  1  0
 17 15  1  0
 18 17  2  0
 19 13  1  0
 20 10  1  0
 20 19  2  0
 21 17  1  0
 22 21  1  0
 23 24  1  0
 22 23  1  1
 24 25  1  0
 25 26  2  0
 27 22  1  0
 27 28  1  0
 29 25  1  0
 30 27  2  0
M  END
$$$$
