LYE.pdb
     RDKit          3D

 30 30  0  0  1  0  0  0  0  0999 V2000
   25.1149  -13.5637  -20.1332 C   0  0  0  0  0  0  0  0  0  0  0  0
   26.4054  -12.9519  -20.6359 C   0  0  1  0  0  0  0  0  0  0  0  0
   26.2432  -12.3782  -22.0427 C   0  0  0  0  0  0  0  0  0  0  0  0
   26.9692  -11.9123  -19.6826 C   0  0  0  0  0  0  0  0  0  0  0  0
   28.2424  -11.3802  -20.2316 C   0  0  2  0  0  0  0  0  0  0  0  0
   29.2269  -12.4004  -20.3635 N   0  0  0  0  0  0  0  0  0  0  0  0
   28.8056  -10.2447  -19.4696 C   0  0  0  0  0  0  0  0  0  0  0  0
   28.1218   -9.2367  -19.1439 O   0  0  0  0  0  0  0  0  0  0  0  0
   35.0416   -6.2909  -14.4005 O   0  0  0  0  0  0  0  0  0  0  0  0
   34.1596   -7.0945  -15.0874 C   0  0  0  0  0  0  0  0  0  0  0  0
   32.8713   -6.7102  -15.3790 C   0  0  0  0  0  0  0  0  0  0  0  0
   31.9961   -7.5233  -16.0638 C   0  0  0  0  0  0  0  0  0  0  0  0
   32.4092   -8.7922  -16.4902 C   0  0  0  0  0  0  0  0  0  0  0  0
   31.4924   -9.7150  -17.1602 C   0  0  0  0  0  0  0  0  0  0  0  0
   30.8147   -9.1602  -18.3415 C   0  0  2  0  0  0  0  0  0  0  0  0
   30.1482  -10.2657  -19.0821 N   0  0  0  0  0  0  0  0  0  0  0  0
   31.6937   -8.5342  -19.3240 C   0  0  0  0  0  0  0  0  0  0  0  0
   32.3658   -9.3213  -20.0833 O   0  0  0  0  0  0  0  0  0  0  0  0
   33.6965   -9.1698  -16.1963 C   0  0  0  0  0  0  0  0  0  0  0  0
   34.5460   -8.3460  -15.5169 C   0  0  0  0  0  0  0  0  0  0  0  0
   31.8969   -7.1485  -19.5641 N   0  0  0  0  0  0  0  0  0  0  0  0
   32.7475   -6.6198  -20.5615 C   0  0  1  0  0  0  0  0  0  0  0  0
   32.2700   -6.3951  -21.9306 C   0  0  0  0  0  0  0  0  0  0  0  0
   33.3796   -5.9699  -22.8596 C   0  0  0  0  0  0  0  0  0  0  0  0
   32.8407   -5.7196  -24.2202 C   0  0  0  0  0  0  0  0  0  0  0  0
   31.6081   -5.8219  -24.4179 O   0  0  0  0  0  0  0  0  0  0  0  0
   33.5180   -5.3930  -20.1428 C   0  0  0  0  0  0  0  0  0  0  0  0
   34.8897   -5.4505  -20.1749 O   0  0  0  0  0  0  0  0  0  0  0  0
   33.7144   -5.3794  -25.2337 O   0  0  0  0  0  0  0  0  0  0  0  0
   32.9242   -4.3817  -19.7858 O   0  0  0  0  0  0  0  0  0  0  0  0
  2  1  1  1
  2  3  1  0
  4  2  1  0
  5  4  1  0
  5  6  1  1
  7  5  1  0
  7  8  2  0
  9 10  1  0
 10 11  2  0
 11 12  1  0
 13 12  2  0
 13 14  1  0
 15 14  1  1
 15 16  1  0
 16  7  1  0
 17 15  1  0
 18 17  2  0
 19 13  1  0
 20 10  1  0
 20 19  2  0
 21 17  1  0
 22 21  1  0
 23 24  1  0
 22 23  1  6
 24 25  1  0
 25 26  2  0
 27 22  1  0
 27 28  1  0
 29 25  1  0
 30 27  2  0
M  END
$$$$
