LYE.pdb
     RDKit          3D

 30 30  0  0  1  0  0  0  0  0999 V2000
   24.5935  -14.7023  -17.9255 C   0  0  0  0  0  0  0  0  0  0  0  0
   24.2914  -13.5077  -17.0457 C   0  0  1  0  0  0  0  0  0  0  0  0
   25.4835  -12.5555  -16.9646 C   0  0  0  0  0  0  0  0  0  0  0  0
   23.0319  -12.7728  -17.4708 C   0  0  0  0  0  0  0  0  0  0  0  0
   22.8083  -11.6159  -16.5669 C   0  0  2  0  0  0  0  0  0  0  0  0
   22.8567  -12.0002  -15.1968 N   0  0  0  0  0  0  0  0  0  0  0  0
   21.5564  -10.8730  -16.8284 C   0  0  0  0  0  0  0  0  0  0  0  0
   21.2761  -10.3862  -17.9573 O   0  0  0  0  0  0  0  0  0  0  0  0
   16.4933  -14.7796  -19.0879 O   0  0  0  0  0  0  0  0  0  0  0  0
   16.8904  -13.8013  -18.2043 C   0  0  0  0  0  0  0  0  0  0  0  0
   16.5476  -12.4773  -18.3529 C   0  0  0  0  0  0  0  0  0  0  0  0
   16.9531  -11.5062  -17.4648 C   0  0  0  0  0  0  0  0  0  0  0  0
   17.7436  -11.8542  -16.3618 C   0  0  0  0  0  0  0  0  0  0  0  0
   18.2533  -10.8460  -15.4319 C   0  0  0  0  0  0  0  0  0  0  0  0
   19.3244   -9.9955  -15.9723 C   0  0  2  0  0  0  0  0  0  0  0  0
   20.6292  -10.6898  -15.7989 N   0  0  0  0  0  0  0  0  0  0  0  0
   19.4962   -8.7119  -15.2994 C   0  0  0  0  0  0  0  0  0  0  0  0
   20.1977   -8.7118  -14.2244 O   0  0  0  0  0  0  0  0  0  0  0  0
   18.0822  -13.1775  -16.2190 C   0  0  0  0  0  0  0  0  0  0  0  0
   17.6675  -14.1222  -17.1119 C   0  0  0  0  0  0  0  0  0  0  0  0
   18.9939   -7.4413  -15.6898 N   0  0  0  0  0  0  0  0  0  0  0  0
   19.3256   -6.2173  -15.0655 C   0  0  1  0  0  0  0  0  0  0  0  0
   20.7164   -5.8767  -14.7453 C   0  0  0  0  0  0  0  0  0  0  0  0
   20.8265   -4.5736  -13.9937 C   0  0  0  0  0  0  0  0  0  0  0  0
   22.2537   -4.2233  -13.7823 C   0  0  0  0  0  0  0  0  0  0  0  0
   22.7448   -3.2557  -14.4079 O   0  0  0  0  0  0  0  0  0  0  0  0
   18.6941   -5.0011  -15.6947 C   0  0  0  0  0  0  0  0  0  0  0  0
   18.5438   -3.8779  -14.9189 O   0  0  0  0  0  0  0  0  0  0  0  0
   23.0033   -4.9749  -12.8994 O   0  0  0  0  0  0  0  0  0  0  0  0
   18.3297   -5.0289  -16.8648 O   0  0  0  0  0  0  0  0  0  0  0  0
  2  1  1  6
  2  3  1  0
  4  2  1  0
  5  4  1  0
  5  6  1  1
  7  5  1  0
  7  8  2  0
  9 10  1  0
 10 11  2  0
 11 12  1  0
 13 12  2  0
 13 14  1  0
 15 14  1  1
 15 16  1  0
 16  7  1  0
 17 15  1  0
 18 17  2  0
 19 13  1  0
 20 10  1  0
 20 19  2  0
 21 17  1  0
 22 21  1  0
 23 24  1  0
 22 23  1  6
 24 25  1  0
 25 26  2  0
 27 22  1  0
 27 28  1  0
 29 25  1  0
 30 27  2  0
M  END
$$$$
