LYE.pdb
     RDKit          3D

 30 30  0  0  1  0  0  0  0  0999 V2000
   25.1034  -37.3695   -5.4925 C   0  0  0  0  0  0  0  0  0  0  0  0
   24.3250  -36.1756   -6.0035 C   0  0  1  0  0  0  0  0  0  0  0  0
   22.9159  -36.5709   -6.4420 C   0  0  0  0  0  0  0  0  0  0  0  0
   24.2867  -35.0322   -5.0043 C   0  0  0  0  0  0  0  0  0  0  0  0
   23.6091  -33.8629   -5.6201 C   0  0  2  0  0  0  0  0  0  0  0  0
   24.2905  -33.4126   -6.7864 N   0  0  0  0  0  0  0  0  0  0  0  0
   23.4017  -32.7253   -4.6981 C   0  0  0  0  0  0  0  0  0  0  0  0
   24.3100  -31.8940   -4.4265 O   0  0  0  0  0  0  0  0  0  0  0  0
   19.0884  -26.1575   -0.8270 O   0  0  0  0  0  0  0  0  0  0  0  0
   19.5229  -27.2014   -1.6123 C   0  0  0  0  0  0  0  0  0  0  0  0
   18.7205  -28.2673   -1.9481 C   0  0  0  0  0  0  0  0  0  0  0  0
   19.1664  -29.3082   -2.7316 C   0  0  0  0  0  0  0  0  0  0  0  0
   20.4805  -29.3042   -3.2170 C   0  0  0  0  0  0  0  0  0  0  0  0
   21.0166  -30.4214   -3.9952 C   0  0  0  0  0  0  0  0  0  0  0  0
   21.8211  -31.3798   -3.2227 C   0  0  2  0  0  0  0  0  0  0  0  0
   22.1567  -32.5415   -4.0903 N   0  0  0  0  0  0  0  0  0  0  0  0
   21.1489  -31.9639   -2.0665 C   0  0  0  0  0  0  0  0  0  0  0  0
   20.2797  -32.8782   -2.3036 O   0  0  0  0  0  0  0  0  0  0  0  0
   21.2763  -28.2373   -2.8786 C   0  0  0  0  0  0  0  0  0  0  0  0
   20.8116  -27.2167   -2.1012 C   0  0  0  0  0  0  0  0  0  0  0  0
   21.3418  -31.6596   -0.6919 N   0  0  0  0  0  0  0  0  0  0  0  0
   20.6080  -32.2335    0.3710 C   0  0  1  0  0  0  0  0  0  0  0  0
   21.2558  -32.5968    1.6364 C   0  0  0  0  0  0  0  0  0  0  0  0
   20.3718  -33.4578    2.5038 C   0  0  0  0  0  0  0  0  0  0  0  0
   21.0507  -33.7564    3.7899 C   0  0  0  0  0  0  0  0  0  0  0  0
   22.0931  -33.1304    4.0907 O   0  0  0  0  0  0  0  0  0  0  0  0
   19.3259  -31.5146    0.7079 C   0  0  0  0  0  0  0  0  0  0  0  0
   18.2027  -32.2712    0.9359 O   0  0  0  0  0  0  0  0  0  0  0  0
   20.5136  -34.7180    4.6225 O   0  0  0  0  0  0  0  0  0  0  0  0
   19.3017  -30.2906    0.7719 O   0  0  0  0  0  0  0  0  0  0  0  0
  2  1  1  1
  2  3  1  0
  4  2  1  0
  5  4  1  0
  5  6  1  6
  7  5  1  0
  7  8  2  0
  9 10  1  0
 10 11  2  0
 11 12  1  0
 13 12  2  0
 13 14  1  0
 15 14  1  6
 15 16  1  0
 16  7  1  0
 17 15  1  0
 18 17  2  0
 19 13  1  0
 20 10  1  0
 20 19  2  0
 21 17  1  0
 22 21  1  0
 23 24  1  0
 22 23  1  1
 24 25  1  0
 25 26  2  0
 27 22  1  0
 27 28  1  0
 29 25  1  0
 30 27  2  0
M  END
$$$$
