DIQ.pdb
     RDKit          3D

 26 25  0  0  1  0  0  0  0  0999 V2000
    8.3718  -15.0875   20.4429 N   0  0  0  0  0  0  0  0  0  0  0  0
    7.5445  -15.4536   21.5758 C   0  0  1  0  0  0  0  0  0  0  0  0
    7.3391  -16.9470   21.6412 C   0  0  0  0  0  0  0  0  0  0  0  0
    6.6005  -17.4589   20.4710 C   0  0  0  0  0  0  0  0  0  0  0  0
    6.3485  -16.7167   19.4889 O   0  0  0  0  0  0  0  0  0  0  0  0
    8.2761  -15.0292   22.8099 C   0  0  0  0  0  0  0  0  0  0  0  0
    9.5317  -15.0704   22.8505 O   0  0  0  0  0  0  0  0  0  0  0  0
    6.1533  -18.7714   20.4006 O   0  0  0  0  0  0  0  0  0  0  0  0
    5.9057  -11.4102   26.1920 C   0  0  0  0  0  0  0  0  0  0  0  0
    6.9940  -12.0888   25.3395 C   0  0  0  0  0  0  0  0  0  0  0  0
    7.3273  -13.3652   26.0540 C   0  0  2  0  0  0  0  0  0  0  0  0
    8.0226  -12.9945   27.3608 C   0  0  0  0  0  0  0  0  0  0  0  0
    8.1605  -14.2360   25.2239 C   0  0  2  0  0  0  0  0  0  0  0  0
    7.5957  -14.5819   23.9389 N   0  0  0  0  0  0  0  0  0  0  0  0
    8.4058  -15.5425   25.9082 C   0  0  0  0  0  0  0  0  0  0  0  0
    7.5383  -16.4108   26.1372 O   0  0  0  0  0  0  0  0  0  0  0  0
   12.8685  -19.2344   24.3630 N   0  0  0  0  0  0  0  0  0  0  0  0
   12.5869  -19.7052   25.6768 C   0  0  0  0  0  0  0  0  0  0  0  0
   13.2838  -20.6846   26.0994 O   0  0  0  0  0  0  0  0  0  0  0  0
   11.5457  -19.0988   26.5287 C   0  0  0  0  0  0  0  0  0  0  0  0
   10.9727  -17.8276   26.0535 C   0  0  0  0  0  0  0  0  0  0  0  0
    9.9664  -17.2043   26.9360 C   0  0  2  0  0  0  0  0  0  0  0  0
    9.7191  -15.8485   26.3457 N   0  0  0  0  0  0  0  0  0  0  0  0
   10.4303  -16.9259   28.2901 C   0  0  0  0  0  0  0  0  0  0  0  0
   10.4744  -17.8856   29.2804 O   0  0  0  0  0  0  0  0  0  0  0  0
   10.8193  -15.7586   28.6088 O   0  0  0  0  0  0  0  0  0  0  0  0
  2  3  1  0
  2  1  1  6
  4  8  1  0
  4  3  1  0
  5  4  2  0
  6  2  1  0
  7  6  2  0
  9 10  1  0
 10 11  1  0
 11 13  1  0
 11 12  1  1
 13 14  1  6
 14  6  1  0
 15 13  1  0
 15 23  1  0
 16 15  2  0
 18 17  1  0
 19 18  2  0
 20 18  1  0
 22 21  1  6
 21 20  1  0
 22 24  1  0
 22 23  1  0
 24 25  1  0
 26 24  2  0
M  END
$$$$
