DIQ.pdb
     RDKit          3D

 26 25  0  0  1  0  0  0  0  0999 V2000
   10.1743  -17.9910   16.6899 N   0  0  0  0  0  0  0  0  0  0  0  0
    9.1200  -17.9876   17.6850 C   0  0  1  0  0  0  0  0  0  0  0  0
    8.8858  -19.3727   18.2362 C   0  0  0  0  0  0  0  0  0  0  0  0
    8.4342  -20.3165   17.1959 C   0  0  0  0  0  0  0  0  0  0  0  0
    8.4204  -19.9860   15.9837 O   0  0  0  0  0  0  0  0  0  0  0  0
    9.5774  -17.1105   18.8074 C   0  0  0  0  0  0  0  0  0  0  0  0
   10.8013  -17.0047   19.0734 O   0  0  0  0  0  0  0  0  0  0  0  0
    8.0075  -21.6012   17.5042 O   0  0  0  0  0  0  0  0  0  0  0  0
    6.6161  -12.6093   20.0762 C   0  0  0  0  0  0  0  0  0  0  0  0
    7.8106  -13.5206   19.7380 C   0  0  0  0  0  0  0  0  0  0  0  0
    7.9466  -14.4551   20.9038 C   0  0  2  0  0  0  0  0  0  0  0  0
    8.2717  -13.6133   22.1344 C   0  0  0  0  0  0  0  0  0  0  0  0
    8.9713  -15.4696   20.6540 C   0  0  2  0  0  0  0  0  0  0  0  0
    8.6711  -16.3937   19.5835 N   0  0  0  0  0  0  0  0  0  0  0  0
    9.1752  -16.3245   21.8635 C   0  0  0  0  0  0  0  0  0  0  0  0
    8.3781  -17.1926   22.2759 O   0  0  0  0  0  0  0  0  0  0  0  0
   14.1829  -20.3443   24.6313 N   0  0  0  0  0  0  0  0  0  0  0  0
   13.5119  -19.5827   23.6328 C   0  0  0  0  0  0  0  0  0  0  0  0
   14.1435  -19.3740   22.5462 O   0  0  0  0  0  0  0  0  0  0  0  0
   12.1470  -19.0552   23.8237 C   0  0  0  0  0  0  0  0  0  0  0  0
   11.9609  -17.6173   23.5630 C   0  0  0  0  0  0  0  0  0  0  0  0
   10.5956  -17.0958   23.7717 C   0  0  2  0  0  0  0  0  0  0  0  0
   10.3588  -16.1584   22.6258 N   0  0  0  0  0  0  0  0  0  0  0  0
   10.4351  -16.2607   24.9563 C   0  0  0  0  0  0  0  0  0  0  0  0
   10.4076  -16.7727   26.2372 O   0  0  0  0  0  0  0  0  0  0  0  0
   10.3127  -15.0008   24.8424 O   0  0  0  0  0  0  0  0  0  0  0  0
  2  3  1  0
  2  1  1  6
  4  8  1  0
  4  3  1  0
  5  4  2  0
  6  2  1  0
  7  6  2  0
  9 10  1  0
 10 11  1  0
 11 13  1  0
 11 12  1  1
 13 14  1  6
 14  6  1  0
 15 13  1  0
 15 23  1  0
 16 15  2  0
 18 17  1  0
 19 18  2  0
 20 18  1  0
 22 21  1  6
 21 20  1  0
 22 24  1  0
 22 23  1  0
 24 25  1  0
 26 24  2  0
M  END
$$$$
