DIQ.pdb
     RDKit          3D

 26 25  0  0  1  0  0  0  0  0999 V2000
    9.0206  -15.7385   20.7043 N   0  0  0  0  0  0  0  0  0  0  0  0
    8.2479  -16.1600   21.8563 C   0  0  1  0  0  0  0  0  0  0  0  0
    8.3652  -17.6480   22.0770 C   0  0  0  0  0  0  0  0  0  0  0  0
    7.7740  -18.4231   20.9695 C   0  0  0  0  0  0  0  0  0  0  0  0
    8.4884  -19.1486   20.2332 O   0  0  0  0  0  0  0  0  0  0  0  0
    8.8230  -15.4649   23.0498 C   0  0  0  0  0  0  0  0  0  0  0  0
   10.0623  -15.2746   23.1388 O   0  0  0  0  0  0  0  0  0  0  0  0
    6.4142  -18.3877   20.6914 O   0  0  0  0  0  0  0  0  0  0  0  0
    5.7035  -11.8543   25.7383 C   0  0  0  0  0  0  0  0  0  0  0  0
    6.9388  -12.4625   25.0485 C   0  0  0  0  0  0  0  0  0  0  0  0
    7.4175  -13.5492   25.9655 C   0  0  2  0  0  0  0  0  0  0  0  0
    7.9541  -12.8834   27.2293 C   0  0  0  0  0  0  0  0  0  0  0  0
    8.4319  -14.3816   25.3177 C   0  0  2  0  0  0  0  0  0  0  0  0
    8.0120  -15.0139   24.0874 N   0  0  0  0  0  0  0  0  0  0  0  0
    8.8457  -15.5046   26.2138 C   0  0  0  0  0  0  0  0  0  0  0  0
    8.1314  -16.4808   26.5236 O   0  0  0  0  0  0  0  0  0  0  0  0
   12.0158  -19.7166   26.0473 N   0  0  0  0  0  0  0  0  0  0  0  0
   12.6403  -19.4080   27.2890 C   0  0  0  0  0  0  0  0  0  0  0  0
   13.2112  -20.3686   27.9012 O   0  0  0  0  0  0  0  0  0  0  0  0
   12.6437  -18.0457   27.8563 C   0  0  0  0  0  0  0  0  0  0  0  0
   11.9170  -17.0183   27.0905 C   0  0  0  0  0  0  0  0  0  0  0  0
   10.5758  -16.6653   27.5969 C   0  0  2  0  0  0  0  0  0  0  0  0
   10.1479  -15.4874   26.7739 N   0  0  0  0  0  0  0  0  0  0  0  0
   10.5513  -16.1713   28.9686 C   0  0  0  0  0  0  0  0  0  0  0  0
   10.5187  -17.0063   30.0665 O   0  0  0  0  0  0  0  0  0  0  0  0
   10.5601  -14.9219   29.2019 O   0  0  0  0  0  0  0  0  0  0  0  0
  2  3  1  0
  2  1  1  6
  4  8  1  0
  4  3  1  0
  5  4  2  0
  6  2  1  0
  7  6  2  0
  9 10  1  0
 10 11  1  0
 11 13  1  0
 11 12  1  1
 13 14  1  6
 14  6  1  0
 15 13  1  0
 15 23  1  0
 16 15  2  0
 18 17  1  0
 19 18  2  0
 20 18  1  0
 22 21  1  6
 21 20  1  0
 22 24  1  0
 22 23  1  0
 24 25  1  0
 26 24  2  0
M  END
$$$$
