DIQ.pdb
     RDKit          3D

 26 25  0  0  1  0  0  0  0  0999 V2000
    9.0142  -17.6082   17.2916 N   0  0  0  0  0  0  0  0  0  0  0  0
   10.4149  -17.4910   17.6466 C   0  0  1  0  0  0  0  0  0  0  0  0
   11.2253  -16.9455   16.4965 C   0  0  0  0  0  0  0  0  0  0  0  0
   11.0553  -17.7445   15.2678 C   0  0  0  0  0  0  0  0  0  0  0  0
   11.8347  -17.6055   14.2920 O   0  0  0  0  0  0  0  0  0  0  0  0
   10.5015  -16.5187   18.7803 C   0  0  0  0  0  0  0  0  0  0  0  0
   11.6189  -16.1955   19.2568 O   0  0  0  0  0  0  0  0  0  0  0  0
   10.0364  -18.6780   15.1331 O   0  0  0  0  0  0  0  0  0  0  0  0
    6.8300  -12.4766   19.4535 C   0  0  0  0  0  0  0  0  0  0  0  0
    8.2074  -13.1651   19.4675 C   0  0  0  0  0  0  0  0  0  0  0  0
    8.1267  -14.2049   20.5460 C   0  0  2  0  0  0  0  0  0  0  0  0
    8.0226  -13.4761   21.8827 C   0  0  0  0  0  0  0  0  0  0  0  0
    9.2820  -15.1022   20.5056 C   0  0  2  0  0  0  0  0  0  0  0  0
    9.3596  -15.9496   19.3368 N   0  0  0  0  0  0  0  0  0  0  0  0
    9.2637  -16.0409   21.6692 C   0  0  0  0  0  0  0  0  0  0  0  0
    8.4814  -17.0043   21.8064 O   0  0  0  0  0  0  0  0  0  0  0  0
   13.2554  -19.6298   21.5469 N   0  0  0  0  0  0  0  0  0  0  0  0
   12.7923  -19.9456   22.8558 C   0  0  0  0  0  0  0  0  0  0  0  0
   13.2744  -20.9917   23.4004 O   0  0  0  0  0  0  0  0  0  0  0  0
   11.8056  -19.1118   23.5689 C   0  0  0  0  0  0  0  0  0  0  0  0
   11.3268  -17.9146   22.8565 C   0  0  0  0  0  0  0  0  0  0  0  0
   10.4727  -16.9981   23.6378 C   0  0  2  0  0  0  0  0  0  0  0  0
   10.1968  -15.8463   22.7185 N   0  0  0  0  0  0  0  0  0  0  0  0
   11.1256  -16.3879   24.7901 C   0  0  0  0  0  0  0  0  0  0  0  0
   11.1843  -16.9947   26.0278 O   0  0  0  0  0  0  0  0  0  0  0  0
   11.6763  -15.2471   24.6870 O   0  0  0  0  0  0  0  0  0  0  0  0
  2  3  1  0
  2  1  1  6
  4  8  1  0
  4  3  1  0
  5  4  2  0
  6  2  1  0
  7  6  2  0
  9 10  1  0
 10 11  1  0
 11 13  1  0
 11 12  1  1
 13 14  1  6
 14  6  1  0
 15 13  1  0
 15 23  1  0
 16 15  2  0
 18 17  1  0
 19 18  2  0
 20 18  1  0
 22 21  1  6
 21 20  1  0
 22 24  1  0
 22 23  1  0
 24 25  1  0
 26 24  2  0
M  END
$$$$
