DIQ.pdb
     RDKit          3D

 26 25  0  0  1  0  0  0  0  0999 V2000
   10.6380  -15.7307   20.5414 N   0  0  0  0  0  0  0  0  0  0  0  0
    9.5997  -16.2730   21.3956 C   0  0  1  0  0  0  0  0  0  0  0  0
    9.6842  -17.7778   21.4687 C   0  0  0  0  0  0  0  0  0  0  0  0
    9.4442  -18.4128   20.1587 C   0  0  0  0  0  0  0  0  0  0  0  0
    8.5169  -18.0184   19.4081 O   0  0  0  0  0  0  0  0  0  0  0  0
    9.8298  -15.7259   22.7690 C   0  0  0  0  0  0  0  0  0  0  0  0
   10.9990  -15.5631   23.2008 O   0  0  0  0  0  0  0  0  0  0  0  0
   10.2235  -19.4656   19.6984 O   0  0  0  0  0  0  0  0  0  0  0  0
    6.9666  -12.1117   26.7336 C   0  0  0  0  0  0  0  0  0  0  0  0
    8.0427  -13.2035   26.5865 C   0  0  0  0  0  0  0  0  0  0  0  0
    7.8699  -13.7549   25.2020 C   0  0  2  0  0  0  0  0  0  0  0  0
    6.4339  -14.2568   25.0811 C   0  0  0  0  0  0  0  0  0  0  0  0
    8.8405  -14.8153   24.9281 C   0  0  2  0  0  0  0  0  0  0  0  0
    8.7676  -15.3857   23.6017 N   0  0  0  0  0  0  0  0  0  0  0  0
    8.6429  -15.9670   25.8609 C   0  0  0  0  0  0  0  0  0  0  0  0
    7.6318  -16.6985   25.8997 O   0  0  0  0  0  0  0  0  0  0  0  0
   12.2134  -20.3919   25.5182 N   0  0  0  0  0  0  0  0  0  0  0  0
   12.7357  -19.2758   26.2316 C   0  0  0  0  0  0  0  0  0  0  0  0
   13.9992  -19.1142   26.2033 O   0  0  0  0  0  0  0  0  0  0  0  0
   11.8724  -18.3346   26.9708 C   0  0  0  0  0  0  0  0  0  0  0  0
   10.4196  -18.5156   26.8070 C   0  0  0  0  0  0  0  0  0  0  0  0
    9.5643  -17.5669   27.5475 C   0  0  2  0  0  0  0  0  0  0  0  0
    9.6681  -16.2776   26.7894 N   0  0  0  0  0  0  0  0  0  0  0  0
   10.0377  -17.2342   28.8860 C   0  0  0  0  0  0  0  0  0  0  0  0
   10.0407  -18.1392   29.9274 O   0  0  0  0  0  0  0  0  0  0  0  0
   10.4746  -16.0684   29.1417 O   0  0  0  0  0  0  0  0  0  0  0  0
  2  3  1  0
  2  1  1  6
  4  8  1  0
  4  3  1  0
  5  4  2  0
  6  2  1  0
  7  6  2  0
  9 10  1  0
 10 11  1  0
 11 13  1  0
 11 12  1  1
 13 14  1  6
 14  6  1  0
 15 13  1  0
 15 23  1  0
 16 15  2  0
 18 17  1  0
 19 18  2  0
 20 18  1  0
 22 21  1  6
 21 20  1  0
 22 24  1  0
 22 23  1  0
 24 25  1  0
 26 24  2  0
M  END
$$$$
