DIQ.pdb
     RDKit          3D

 26 25  0  0  1  0  0  0  0  0999 V2000
    9.9078  -18.3193   16.9280 N   0  0  0  0  0  0  0  0  0  0  0  0
    8.8728  -18.1225   17.9239 C   0  0  1  0  0  0  0  0  0  0  0  0
    8.5376  -19.4158   18.6251 C   0  0  0  0  0  0  0  0  0  0  0  0
    8.0177  -20.4352   17.6938 C   0  0  0  0  0  0  0  0  0  0  0  0
    7.3415  -20.1075   16.6867 O   0  0  0  0  0  0  0  0  0  0  0  0
    9.4161  -17.1684   18.9402 C   0  0  0  0  0  0  0  0  0  0  0  0
   10.6533  -17.1019   19.1523 O   0  0  0  0  0  0  0  0  0  0  0  0
    8.2487  -21.7910   17.8843 O   0  0  0  0  0  0  0  0  0  0  0  0
    6.5956  -12.5176   19.9810 C   0  0  0  0  0  0  0  0  0  0  0  0
    7.7801  -13.4476   19.6589 C   0  0  0  0  0  0  0  0  0  0  0  0
    7.9787  -14.2863   20.8869 C   0  0  2  0  0  0  0  0  0  0  0  0
    8.4060  -13.3550   22.0177 C   0  0  0  0  0  0  0  0  0  0  0  0
    8.9627  -15.3441   20.6537 C   0  0  2  0  0  0  0  0  0  0  0  0
    8.5770  -16.3355   19.6748 N   0  0  0  0  0  0  0  0  0  0  0  0
    9.2201  -16.1133   21.9096 C   0  0  0  0  0  0  0  0  0  0  0  0
    8.4070  -16.8816   22.4643 O   0  0  0  0  0  0  0  0  0  0  0  0
   13.0592  -19.9268   23.1794 N   0  0  0  0  0  0  0  0  0  0  0  0
   13.2271  -19.3081   24.4506 C   0  0  0  0  0  0  0  0  0  0  0  0
   13.7440  -20.0186   25.3733 O   0  0  0  0  0  0  0  0  0  0  0  0
   12.8333  -17.9095   24.7084 C   0  0  0  0  0  0  0  0  0  0  0  0
   12.2291  -17.1830   23.5782 C   0  0  0  0  0  0  0  0  0  0  0  0
   10.7868  -16.8906   23.6970 C   0  0  2  0  0  0  0  0  0  0  0  0
   10.4794  -15.9794   22.5468 N   0  0  0  0  0  0  0  0  0  0  0  0
   10.4155  -16.1166   24.8758 C   0  0  0  0  0  0  0  0  0  0  0  0
   10.1367  -14.7662   24.8296 O   0  0  0  0  0  0  0  0  0  0  0  0
   10.3346  -16.6776   26.0134 O   0  0  0  0  0  0  0  0  0  0  0  0
  2  3  1  0
  2  1  1  6
  4  8  1  0
  4  3  1  0
  5  4  2  0
  6  2  1  0
  7  6  2  0
  9 10  1  0
 10 11  1  0
 11 13  1  0
 11 12  1  1
 13 14  1  6
 14  6  1  0
 15 13  1  0
 15 23  1  0
 16 15  2  0
 18 17  1  0
 19 18  2  0
 20 18  1  0
 22 21  1  1
 21 20  1  0
 22 24  1  0
 22 23  1  0
 24 25  1  0
 26 24  2  0
M  END
$$$$
