DIQ.pdb
     RDKit          3D

 26 25  0  0  1  0  0  0  0  0999 V2000
    8.5282  -16.4779   15.3967 N   0  0  0  0  0  0  0  0  0  0  0  0
    9.9383  -16.1506   15.3170 C   0  0  1  0  0  0  0  0  0  0  0  0
   10.2225  -15.2445   14.1444 C   0  0  0  0  0  0  0  0  0  0  0  0
   10.0132  -15.9248   12.8520 C   0  0  0  0  0  0  0  0  0  0  0  0
    9.5498  -17.0916   12.8020 O   0  0  0  0  0  0  0  0  0  0  0  0
   10.2905  -15.4144   16.5710 C   0  0  0  0  0  0  0  0  0  0  0  0
   11.4616  -14.9968   16.7555 O   0  0  0  0  0  0  0  0  0  0  0  0
   10.3156  -15.3140   11.6424 O   0  0  0  0  0  0  0  0  0  0  0  0
    6.2421  -12.8967   19.4089 C   0  0  0  0  0  0  0  0  0  0  0  0
    7.6158  -13.0558   18.7313 C   0  0  0  0  0  0  0  0  0  0  0  0
    8.3391  -14.1010   19.5284 C   0  0  2  0  0  0  0  0  0  0  0  0
    8.6451  -13.5058   20.8997 C   0  0  0  0  0  0  0  0  0  0  0  0
    9.5552  -14.5427   18.8446 C   0  0  2  0  0  0  0  0  0  0  0  0
    9.3425  -15.1734   17.5613 N   0  0  0  0  0  0  0  0  0  0  0  0
   10.2836  -15.5589   19.6644 C   0  0  0  0  0  0  0  0  0  0  0  0
    9.9272  -16.7445   19.8268 O   0  0  0  0  0  0  0  0  0  0  0  0
   16.2706  -16.1928   19.4097 N   0  0  0  0  0  0  0  0  0  0  0  0
   15.5369  -14.9846   19.5806 C   0  0  0  0  0  0  0  0  0  0  0  0
   16.1006  -13.9090   19.1950 O   0  0  0  0  0  0  0  0  0  0  0  0
   14.1838  -14.9567   20.1688 C   0  0  0  0  0  0  0  0  0  0  0  0
   13.5685  -16.2649   20.4521 C   0  0  0  0  0  0  0  0  0  0  0  0
   12.2332  -16.2266   21.0809 C   0  0  2  0  0  0  0  0  0  0  0  0
   11.4781  -15.1752   20.3245 N   0  0  0  0  0  0  0  0  0  0  0  0
   12.2210  -15.7535   22.4601 C   0  0  0  0  0  0  0  0  0  0  0  0
   11.5549  -14.6119   22.8560 O   0  0  0  0  0  0  0  0  0  0  0  0
   12.8399  -16.3961   23.3653 O   0  0  0  0  0  0  0  0  0  0  0  0
  2  3  1  0
  2  1  1  1
  4  8  1  0
  4  3  1  0
  5  4  2  0
  6  2  1  0
  7  6  2  0
  9 10  1  0
 10 11  1  0
 11 13  1  0
 11 12  1  1
 13 14  1  6
 14  6  1  0
 15 13  1  0
 15 23  1  0
 16 15  2  0
 18 17  1  0
 19 18  2  0
 20 18  1  0
 22 21  1  6
 21 20  1  0
 22 24  1  0
 22 23  1  0
 24 25  1  0
 26 24  2  0
M  END
$$$$
