DIQ.pdb
     RDKit          3D

 26 25  0  0  1  0  0  0  0  0999 V2000
    8.5228  -14.9117   20.2280 N   0  0  0  0  0  0  0  0  0  0  0  0
    7.6612  -15.3647   21.3024 C   0  0  1  0  0  0  0  0  0  0  0  0
    7.4400  -16.8556   21.2323 C   0  0  0  0  0  0  0  0  0  0  0  0
    6.7672  -17.2602   19.9831 C   0  0  0  0  0  0  0  0  0  0  0  0
    6.9041  -16.5917   18.9280 O   0  0  0  0  0  0  0  0  0  0  0  0
    8.3625  -15.0574   22.5877 C   0  0  0  0  0  0  0  0  0  0  0  0
    9.6135  -15.1503   22.6674 O   0  0  0  0  0  0  0  0  0  0  0  0
    5.9591  -18.3872   19.9151 O   0  0  0  0  0  0  0  0  0  0  0  0
    5.8740  -11.6320   26.1046 C   0  0  0  0  0  0  0  0  0  0  0  0
    6.9668  -12.2586   25.2188 C   0  0  0  0  0  0  0  0  0  0  0  0
    7.3334  -13.5514   25.8860 C   0  0  2  0  0  0  0  0  0  0  0  0
    8.0084  -13.2113   27.2116 C   0  0  0  0  0  0  0  0  0  0  0  0
    8.1980  -14.3641   25.0295 C   0  0  2  0  0  0  0  0  0  0  0  0
    7.6583  -14.6649   23.7225 N   0  0  0  0  0  0  0  0  0  0  0  0
    8.4658  -15.6940   25.6580 C   0  0  0  0  0  0  0  0  0  0  0  0
    7.6196  -16.5970   25.8236 O   0  0  0  0  0  0  0  0  0  0  0  0
   13.0788  -20.9427   24.8842 N   0  0  0  0  0  0  0  0  0  0  0  0
   12.5436  -19.6273   24.7811 C   0  0  0  0  0  0  0  0  0  0  0  0
   13.1533  -18.8163   24.0104 O   0  0  0  0  0  0  0  0  0  0  0  0
   11.3375  -19.2034   25.5181 C   0  0  0  0  0  0  0  0  0  0  0  0
   11.2851  -17.7885   25.9246 C   0  0  0  0  0  0  0  0  0  0  0  0
   10.0564  -17.3640   26.6247 C   0  0  2  0  0  0  0  0  0  0  0  0
    9.7767  -15.9823   26.1145 N   0  0  0  0  0  0  0  0  0  0  0  0
   10.2030  -17.1908   28.0651 C   0  0  0  0  0  0  0  0  0  0  0  0
   10.2401  -18.2501   28.9484 O   0  0  0  0  0  0  0  0  0  0  0  0
   10.3045  -16.0268   28.5653 O   0  0  0  0  0  0  0  0  0  0  0  0
  2  3  1  0
  2  1  1  6
  4  8  1  0
  4  3  1  0
  5  4  2  0
  6  2  1  0
  7  6  2  0
  9 10  1  0
 10 11  1  0
 11 13  1  0
 11 12  1  1
 13 14  1  6
 14  6  1  0
 15 13  1  0
 15 23  1  0
 16 15  2  0
 18 17  1  0
 19 18  2  0
 20 18  1  0
 22 21  1  6
 21 20  1  0
 22 24  1  0
 22 23  1  0
 24 25  1  0
 26 24  2  0
M  END
$$$$
