DIQ.pdb
     RDKit          3D

 26 25  0  0  1  0  0  0  0  0999 V2000
   10.3991  -17.4320   16.0730 N   0  0  0  0  0  0  0  0  0  0  0  0
    9.3321  -17.4714   17.0538 C   0  0  1  0  0  0  0  0  0  0  0  0
    9.1579  -18.8613   17.6148 C   0  0  0  0  0  0  0  0  0  0  0  0
    8.6576  -19.8111   16.6027 C   0  0  0  0  0  0  0  0  0  0  0  0
    7.4830  -19.7306   16.1638 O   0  0  0  0  0  0  0  0  0  0  0  0
    9.7306  -16.5631   18.1738 C   0  0  0  0  0  0  0  0  0  0  0  0
   10.9394  -16.2696   18.3549 O   0  0  0  0  0  0  0  0  0  0  0  0
    9.4529  -20.8286   16.0929 O   0  0  0  0  0  0  0  0  0  0  0  0
    6.4198  -12.4732   19.8291 C   0  0  0  0  0  0  0  0  0  0  0  0
    7.7098  -13.2172   19.4365 C   0  0  0  0  0  0  0  0  0  0  0  0
    7.9182  -14.2516   20.5031 C   0  0  2  0  0  0  0  0  0  0  0  0
    8.1651  -13.5162   21.8171 C   0  0  0  0  0  0  0  0  0  0  0  0
    9.0259  -15.1464   20.1653 C   0  0  2  0  0  0  0  0  0  0  0  0
    8.7853  -16.0226   19.0409 N   0  0  0  0  0  0  0  0  0  0  0  0
    9.3394  -16.0555   21.3101 C   0  0  0  0  0  0  0  0  0  0  0  0
    8.6740  -17.0605   21.6362 O   0  0  0  0  0  0  0  0  0  0  0  0
   15.2907  -16.7551   23.0779 N   0  0  0  0  0  0  0  0  0  0  0  0
   14.5726  -17.6082   23.9633 C   0  0  0  0  0  0  0  0  0  0  0  0
   15.2615  -18.2986   24.7831 O   0  0  0  0  0  0  0  0  0  0  0  0
   13.0998  -17.6998   23.9533 C   0  0  0  0  0  0  0  0  0  0  0  0
   12.3983  -16.8254   22.9976 C   0  0  0  0  0  0  0  0  0  0  0  0
   10.9243  -16.8284   23.0832 C   0  0  2  0  0  0  0  0  0  0  0  0
   10.4768  -15.7795   22.1100 N   0  0  0  0  0  0  0  0  0  0  0  0
   10.3859  -16.3823   24.3629 C   0  0  0  0  0  0  0  0  0  0  0  0
   10.2222  -17.2251   25.4429 O   0  0  0  0  0  0  0  0  0  0  0  0
   10.0419  -15.1699   24.5277 O   0  0  0  0  0  0  0  0  0  0  0  0
  2  3  1  0
  2  1  1  6
  4  8  1  0
  4  3  1  0
  5  4  2  0
  6  2  1  0
  7  6  2  0
  9 10  1  0
 10 11  1  0
 11 13  1  0
 11 12  1  1
 13 14  1  6
 14  6  1  0
 15 13  1  0
 15 23  1  0
 16 15  2  0
 18 17  1  0
 19 18  2  0
 20 18  1  0
 22 21  1  1
 21 20  1  0
 22 24  1  0
 22 23  1  0
 24 25  1  0
 26 24  2  0
M  END
$$$$
