DIQ.pdb
     RDKit          3D

 26 25  0  0  1  0  0  0  0  0999 V2000
    8.4238  -15.3427   20.5875 N   0  0  0  0  0  0  0  0  0  0  0  0
    7.6882  -15.7563   21.7664 C   0  0  1  0  0  0  0  0  0  0  0  0
    7.6273  -17.2603   21.8715 C   0  0  0  0  0  0  0  0  0  0  0  0
    6.9075  -17.8687   20.7363 C   0  0  0  0  0  0  0  0  0  0  0  0
    6.9117  -17.3279   19.6022 O   0  0  0  0  0  0  0  0  0  0  0  0
    8.4333  -15.2358   22.9548 C   0  0  0  0  0  0  0  0  0  0  0  0
    9.6888  -15.1749   22.9414 O   0  0  0  0  0  0  0  0  0  0  0  0
    6.1986  -19.0554   20.8665 O   0  0  0  0  0  0  0  0  0  0  0  0
    5.9483  -11.5724   26.0890 C   0  0  0  0  0  0  0  0  0  0  0  0
    7.0779  -12.2436   25.2859 C   0  0  0  0  0  0  0  0  0  0  0  0
    7.5114  -13.4212   26.1083 C   0  0  2  0  0  0  0  0  0  0  0  0
    8.2417  -12.8831   27.3354 C   0  0  0  0  0  0  0  0  0  0  0  0
    8.3541  -14.3303   25.3304 C   0  0  2  0  0  0  0  0  0  0  0  0
    7.7662  -14.8090   24.0995 N   0  0  0  0  0  0  0  0  0  0  0  0
    8.6712  -15.5613   26.1175 C   0  0  0  0  0  0  0  0  0  0  0  0
    7.8399  -16.4193   26.4805 O   0  0  0  0  0  0  0  0  0  0  0  0
   14.1414  -18.4691   25.6306 N   0  0  0  0  0  0  0  0  0  0  0  0
   12.9920  -18.3626   24.7971 C   0  0  0  0  0  0  0  0  0  0  0  0
   13.1254  -18.7250   23.5829 O   0  0  0  0  0  0  0  0  0  0  0  0
   11.6958  -17.8644   25.2962 C   0  0  0  0  0  0  0  0  0  0  0  0
   11.6436  -17.4958   26.7215 C   0  0  0  0  0  0  0  0  0  0  0  0
   10.3236  -17.0729   27.2301 C   0  0  2  0  0  0  0  0  0  0  0  0
   10.0153  -15.8008   26.4991 N   0  0  0  0  0  0  0  0  0  0  0  0
   10.3050  -16.6906   28.6372 C   0  0  0  0  0  0  0  0  0  0  0  0
   10.2477  -17.6104   29.6640 O   0  0  0  0  0  0  0  0  0  0  0  0
   10.3425  -15.4647   28.9705 O   0  0  0  0  0  0  0  0  0  0  0  0
  2  3  1  0
  2  1  1  6
  4  8  1  0
  4  3  1  0
  5  4  2  0
  6  2  1  0
  7  6  2  0
  9 10  1  0
 10 11  1  0
 11 13  1  0
 11 12  1  1
 13 14  1  6
 14  6  1  0
 15 13  1  0
 15 23  1  0
 16 15  2  0
 18 17  1  0
 19 18  2  0
 20 18  1  0
 22 21  1  6
 21 20  1  0
 22 24  1  0
 22 23  1  0
 24 25  1  0
 26 24  2  0
M  END
$$$$
