DIQ.pdb
     RDKit          3D

 26 25  0  0  1  0  0  0  0  0999 V2000
    9.1595  -15.2937   20.7476 N   0  0  0  0  0  0  0  0  0  0  0  0
    8.2704  -15.9019   21.7179 C   0  0  1  0  0  0  0  0  0  0  0  0
    8.2961  -17.4070   21.6130 C   0  0  0  0  0  0  0  0  0  0  0  0
    7.8418  -17.8805   20.2916 C   0  0  0  0  0  0  0  0  0  0  0  0
    6.7674  -17.4656   19.7893 O   0  0  0  0  0  0  0  0  0  0  0  0
    8.7728  -15.5205   23.0745 C   0  0  0  0  0  0  0  0  0  0  0  0
    9.9995  -15.5882   23.3404 O   0  0  0  0  0  0  0  0  0  0  0  0
    8.5724  -18.7978   19.5484 O   0  0  0  0  0  0  0  0  0  0  0  0
    6.0729  -11.7104   25.8840 C   0  0  0  0  0  0  0  0  0  0  0  0
    7.1965  -12.5299   25.2224 C   0  0  0  0  0  0  0  0  0  0  0  0
    7.3439  -13.7633   26.0637 C   0  0  2  0  0  0  0  0  0  0  0  0
    7.8521  -13.3282   27.4353 C   0  0  0  0  0  0  0  0  0  0  0  0
    8.2428  -14.7311   25.4337 C   0  0  2  0  0  0  0  0  0  0  0  0
    7.9063  -15.0851   24.0731 N   0  0  0  0  0  0  0  0  0  0  0  0
    8.2406  -16.0230   26.1864 C   0  0  0  0  0  0  0  0  0  0  0  0
    7.2313  -16.7201   26.4195 O   0  0  0  0  0  0  0  0  0  0  0  0
   11.6014  -20.6058   24.8048 N   0  0  0  0  0  0  0  0  0  0  0  0
   12.2954  -19.6117   25.5514 C   0  0  0  0  0  0  0  0  0  0  0  0
   13.5592  -19.5554   25.4001 O   0  0  0  0  0  0  0  0  0  0  0  0
   11.6032  -18.6765   26.4590 C   0  0  0  0  0  0  0  0  0  0  0  0
   10.1344  -18.7795   26.5056 C   0  0  0  0  0  0  0  0  0  0  0  0
    9.4504  -17.8360   27.4121 C   0  0  2  0  0  0  0  0  0  0  0  0
    9.4681  -16.5222   26.6902 N   0  0  0  0  0  0  0  0  0  0  0  0
   10.1555  -17.5681   28.6601 C   0  0  0  0  0  0  0  0  0  0  0  0
   10.2537  -18.4923   29.6798 O   0  0  0  0  0  0  0  0  0  0  0  0
   10.7173  -16.4444   28.8522 O   0  0  0  0  0  0  0  0  0  0  0  0
  2  3  1  0
  2  1  1  6
  4  8  1  0
  4  3  1  0
  5  4  2  0
  6  2  1  0
  7  6  2  0
  9 10  1  0
 10 11  1  0
 11 13  1  0
 11 12  1  1
 13 14  1  6
 14  6  1  0
 15 13  1  0
 15 23  1  0
 16 15  2  0
 18 17  1  0
 19 18  2  0
 20 18  1  0
 22 21  1  6
 21 20  1  0
 22 24  1  0
 22 23  1  0
 24 25  1  0
 26 24  2  0
M  END
$$$$
