DIQ.pdb
     RDKit          3D

 26 25  0  0  1  0  0  0  0  0999 V2000
    5.5010  -17.5736   24.1306 N   0  0  0  0  0  0  0  0  0  0  0  0
    6.6103  -17.5716   23.1971 C   0  0  1  0  0  0  0  0  0  0  0  0
    6.1351  -17.3271   21.7859 C   0  0  0  0  0  0  0  0  0  0  0  0
    5.2917  -18.4288   21.2841 C   0  0  0  0  0  0  0  0  0  0  0  0
    4.9686  -18.4965   20.0717 O   0  0  0  0  0  0  0  0  0  0  0  0
    7.5116  -16.4431   23.5875 C   0  0  0  0  0  0  0  0  0  0  0  0
    8.5185  -16.1629   22.8891 O   0  0  0  0  0  0  0  0  0  0  0  0
    4.8199  -19.4325   22.1194 O   0  0  0  0  0  0  0  0  0  0  0  0
    5.3703  -12.2470   26.2074 C   0  0  0  0  0  0  0  0  0  0  0  0
    6.3479  -12.8917   25.2074 C   0  0  0  0  0  0  0  0  0  0  0  0
    7.3638  -13.6112   26.0446 C   0  0  2  0  0  0  0  0  0  0  0  0
    8.3074  -12.5630   26.6273 C   0  0  0  0  0  0  0  0  0  0  0  0
    8.0847  -14.6138   25.2593 C   0  0  2  0  0  0  0  0  0  0  0  0
    7.2660  -15.6784   24.7244 N   0  0  0  0  0  0  0  0  0  0  0  0
    9.1187  -15.2973   26.0953 C   0  0  0  0  0  0  0  0  0  0  0  0
    8.8922  -16.2013   26.9263 O   0  0  0  0  0  0  0  0  0  0  0  0
    9.8288  -18.8840   29.4501 N   0  0  0  0  0  0  0  0  0  0  0  0
   10.8669  -17.9475   29.7192 C   0  0  0  0  0  0  0  0  0  0  0  0
   11.1487  -17.7360   30.9436 O   0  0  0  0  0  0  0  0  0  0  0  0
   11.5993  -17.2476   28.6461 C   0  0  0  0  0  0  0  0  0  0  0  0
   10.8178  -16.2982   27.8349 C   0  0  0  0  0  0  0  0  0  0  0  0
   11.5157  -15.7192   26.6697 C   0  0  2  0  0  0  0  0  0  0  0  0
   10.4750  -14.9084   25.9575 N   0  0  0  0  0  0  0  0  0  0  0  0
   11.9543  -16.6914   25.6753 C   0  0  0  0  0  0  0  0  0  0  0  0
   11.0876  -17.5530   25.0349 O   0  0  0  0  0  0  0  0  0  0  0  0
   13.1822  -16.7772   25.3586 O   0  0  0  0  0  0  0  0  0  0  0  0
  2  3  1  0
  2  1  1  1
  4  8  1  0
  4  3  1  0
  5  4  2  0
  6  2  1  0
  7  6  2  0
  9 10  1  0
 10 11  1  0
 11 13  1  0
 11 12  1  6
 13 14  1  1
 14  6  1  0
 15 13  1  0
 15 23  1  0
 16 15  2  0
 18 17  1  0
 19 18  2  0
 20 18  1  0
 22 21  1  1
 21 20  1  0
 22 24  1  0
 22 23  1  0
 24 25  1  0
 26 24  2  0
M  END
$$$$
