DIQ.pdb
     RDKit          3D

 26 25  0  0  1  0  0  0  0  0999 V2000
    9.2158  -16.0663   20.5594 N   0  0  0  0  0  0  0  0  0  0  0  0
    8.3119  -16.3005   21.6684 C   0  0  1  0  0  0  0  0  0  0  0  0
    8.3125  -17.7537   22.0750 C   0  0  0  0  0  0  0  0  0  0  0  0
    7.7254  -18.6222   21.0368 C   0  0  0  0  0  0  0  0  0  0  0  0
    8.4277  -19.0755   20.0986 O   0  0  0  0  0  0  0  0  0  0  0  0
    8.8143  -15.4932   22.8235 C   0  0  0  0  0  0  0  0  0  0  0  0
   10.0484  -15.3925   23.0398 O   0  0  0  0  0  0  0  0  0  0  0  0
    6.3828  -18.9757   21.0472 O   0  0  0  0  0  0  0  0  0  0  0  0
    6.6197  -11.1560   26.5929 C   0  0  0  0  0  0  0  0  0  0  0  0
    7.7545  -12.1639   26.3318 C   0  0  0  0  0  0  0  0  0  0  0  0
    7.2687  -13.0357   25.2116 C   0  0  2  0  0  0  0  0  0  0  0  0
    5.9776  -13.7046   25.6743 C   0  0  0  0  0  0  0  0  0  0  0  0
    8.2818  -14.0190   24.8267 C   0  0  2  0  0  0  0  0  0  0  0  0
    7.9397  -14.8371   23.6850 N   0  0  0  0  0  0  0  0  0  0  0  0
    8.5311  -14.9852   25.9402 C   0  0  0  0  0  0  0  0  0  0  0  0
    7.8352  -15.9909   26.1917 O   0  0  0  0  0  0  0  0  0  0  0  0
   12.0610  -18.9825   26.1045 N   0  0  0  0  0  0  0  0  0  0  0  0
   12.2358  -18.7434   27.4971 C   0  0  0  0  0  0  0  0  0  0  0  0
   12.7669  -19.6789   28.1799 O   0  0  0  0  0  0  0  0  0  0  0  0
   11.8337  -17.4772   28.1395 C   0  0  0  0  0  0  0  0  0  0  0  0
   11.2026  -16.4737   27.2649 C   0  0  0  0  0  0  0  0  0  0  0  0
    9.9793  -15.8371   27.7923 C   0  0  2  0  0  0  0  0  0  0  0  0
    9.6386  -14.7679   26.7980 N   0  0  0  0  0  0  0  0  0  0  0  0
   10.1583  -15.1154   29.0467 C   0  0  0  0  0  0  0  0  0  0  0  0
   10.1308  -13.7386   29.1308 O   0  0  0  0  0  0  0  0  0  0  0  0
   10.3501  -15.7498   30.1312 O   0  0  0  0  0  0  0  0  0  0  0  0
  2  3  1  0
  2  1  1  6
  4  8  1  0
  4  3  1  0
  5  4  2  0
  6  2  1  0
  7  6  2  0
  9 10  1  0
 10 11  1  0
 11 13  1  0
 11 12  1  1
 13 14  1  6
 14  6  1  0
 15 13  1  0
 15 23  1  0
 16 15  2  0
 18 17  1  0
 19 18  2  0
 20 18  1  0
 22 21  1  6
 21 20  1  0
 22 24  1  0
 22 23  1  0
 24 25  1  0
 26 24  2  0
M  END
$$$$
