DIQ.pdb
     RDKit          3D

 26 25  0  0  1  0  0  0  0  0999 V2000
    9.4649  -15.5734   20.3870 N   0  0  0  0  0  0  0  0  0  0  0  0
    8.7899  -16.4147   21.3557 C   0  0  1  0  0  0  0  0  0  0  0  0
    9.2005  -17.8587   21.2040 C   0  0  0  0  0  0  0  0  0  0  0  0
    8.2226  -18.6357   20.4186 C   0  0  0  0  0  0  0  0  0  0  0  0
    7.3207  -18.0623   19.7578 O   0  0  0  0  0  0  0  0  0  0  0  0
    9.2137  -15.9497   22.7131 C   0  0  0  0  0  0  0  0  0  0  0  0
   10.4301  -15.7652   22.9708 O   0  0  0  0  0  0  0  0  0  0  0  0
    8.2523  -20.0230   20.3733 O   0  0  0  0  0  0  0  0  0  0  0  0
    6.1641  -12.4549   25.5342 C   0  0  0  0  0  0  0  0  0  0  0  0
    7.3783  -13.1689   24.9117 C   0  0  0  0  0  0  0  0  0  0  0  0
    7.5360  -14.4441   25.6862 C   0  0  2  0  0  0  0  0  0  0  0  0
    7.8903  -14.0706   27.1227 C   0  0  0  0  0  0  0  0  0  0  0  0
    8.5514  -15.3087   25.0839 C   0  0  2  0  0  0  0  0  0  0  0  0
    8.2841  -15.7112   23.7213 N   0  0  0  0  0  0  0  0  0  0  0  0
    8.6815  -16.5855   25.8509 C   0  0  0  0  0  0  0  0  0  0  0  0
    7.7701  -17.4223   26.0185 O   0  0  0  0  0  0  0  0  0  0  0  0
   11.9807  -20.2166   23.9789 N   0  0  0  0  0  0  0  0  0  0  0  0
   11.5188  -20.9783   25.0895 C   0  0  0  0  0  0  0  0  0  0  0  0
   11.4324  -22.2391   24.9273 O   0  0  0  0  0  0  0  0  0  0  0  0
   11.1572  -20.3584   26.3789 C   0  0  0  0  0  0  0  0  0  0  0  0
   11.2009  -18.8869   26.4303 C   0  0  0  0  0  0  0  0  0  0  0  0
   10.0714  -18.2321   27.1198 C   0  0  2  0  0  0  0  0  0  0  0  0
    9.9278  -16.8987   26.4496 N   0  0  0  0  0  0  0  0  0  0  0  0
   10.3172  -17.9045   28.5194 C   0  0  0  0  0  0  0  0  0  0  0  0
   10.2350  -18.8361   29.5337 O   0  0  0  0  0  0  0  0  0  0  0  0
   10.6237  -16.7182   28.8573 O   0  0  0  0  0  0  0  0  0  0  0  0
  2  3  1  0
  2  1  1  6
  4  8  1  0
  4  3  1  0
  5  4  2  0
  6  2  1  0
  7  6  2  0
  9 10  1  0
 10 11  1  0
 11 13  1  0
 11 12  1  1
 13 14  1  6
 14  6  1  0
 15 13  1  0
 15 23  1  0
 16 15  2  0
 18 17  1  0
 19 18  2  0
 20 18  1  0
 22 21  1  6
 21 20  1  0
 22 24  1  0
 22 23  1  0
 24 25  1  0
 26 24  2  0
M  END
$$$$
