QCY.pdb
     RDKit          3D

 28 28  0  0  1  0  0  0  0  0999 V2000
   22.5297  -12.5842  -20.1768 N   0  0  0  0  0  0  0  0  0  0  0  0
   21.2506  -12.2901  -20.7082 C   0  0  0  0  0  0  0  0  0  0  0  0
   20.8087  -12.6584  -21.8174 O   0  0  0  0  0  0  0  0  0  0  0  0
   20.3712  -11.4401  -19.7978 C   0  0  0  0  0  0  0  0  0  0  0  0
   21.1112  -11.0693  -18.5633 C   0  0  0  0  0  0  0  0  0  0  0  0
   20.5325  -11.5802  -17.2902 C   0  0  2  0  0  0  0  0  0  0  0  0
   19.4151  -12.4837  -17.6055 N   0  0  0  0  0  0  0  0  0  0  0  0
   20.0769  -10.5195  -16.3884 C   0  0  0  0  0  0  0  0  0  0  0  0
   18.8753  -10.4862  -15.9467 O   0  0  0  0  0  0  0  0  0  0  0  0
   20.9066   -9.4517  -15.9252 N   0  0  0  0  0  0  0  0  0  0  0  0
   20.4491   -8.4968  -14.9452 C   0  0  1  0  0  0  0  0  0  0  0  0
   19.8325   -9.0400  -13.7273 C   0  0  0  0  0  0  0  0  0  0  0  0
   19.6136   -7.9481  -12.3284 S   0  0  0  0  0  0  0  0  0  0  0  0
   21.3778   -7.3617  -14.7744 C   0  0  0  0  0  0  0  0  0  0  0  0
   22.5390   -7.4959  -14.2760 O   0  0  0  0  0  0  0  0  0  0  0  0
   18.6371   -2.9771  -19.9462 O   0  0  0  0  0  0  0  0  0  0  0  0
   19.5497   -3.4002  -18.9902 C   0  0  0  0  0  0  0  0  0  0  0  0
   20.7880   -3.8048  -19.4758 C   0  0  0  0  0  0  0  0  0  0  0  0
   21.7961   -4.2497  -18.6460 C   0  0  0  0  0  0  0  0  0  0  0  0
   21.5620   -4.2933  -17.2933 C   0  0  0  0  0  0  0  0  0  0  0  0
   22.6004   -4.7574  -16.3776 C   0  0  0  0  0  0  0  0  0  0  0  0
   22.0345   -4.9454  -14.9939 C   0  0  2  0  0  0  0  0  0  0  0  0
   21.0557   -6.0362  -15.1516 N   0  0  0  0  0  0  0  0  0  0  0  0
   21.3996   -3.7042  -14.5439 C   0  0  0  0  0  0  0  0  0  0  0  0
   20.0574   -3.4987  -14.3838 O   0  0  0  0  0  0  0  0  0  0  0  0
   20.3385   -3.8937  -16.8208 C   0  0  0  0  0  0  0  0  0  0  0  0
   19.3169   -3.4444  -17.6481 C   0  0  0  0  0  0  0  0  0  0  0  0
   22.1759   -2.7268  -14.2806 O   0  0  0  0  0  0  0  0  0  0  0  0
  2  1  1  0
  3  2  2  0
  4  2  1  0
  5  6  1  0
  5  4  1  0
  6  7  1  6
  8  6  1  0
  9  8  2  0
 10  8  1  0
 11 14  1  0
 11 10  1  0
 11 12  1  1
 13 12  1  0
 14 23  1  0
 15 14  2  0
 16 17  1  0
 17 18  2  0
 17 27  1  0
 18 19  1  0
 19 20  2  0
 20 21  1  0
 22 21  1  6
 22 24  1  0
 23 22  1  0
 24 28  2  0
 24 25  1  0
 26 20  1  0
 27 26  2  0
M  END
$$$$
