QCY.pdb
     RDKit          3D

 28 28  0  0  1  0  0  0  0  0999 V2000
   25.2593  -25.7710  -15.7683 N   0  0  0  0  0  0  0  0  0  0  0  0
   25.2723  -25.2540  -17.0865 C   0  0  0  0  0  0  0  0  0  0  0  0
   24.4285  -24.4786  -17.5845 O   0  0  0  0  0  0  0  0  0  0  0  0
   26.4503  -25.7213  -17.9342 C   0  0  0  0  0  0  0  0  0  0  0  0
   27.1603  -24.5546  -18.5207 C   0  0  0  0  0  0  0  0  0  0  0  0
   28.4329  -24.1735  -17.8485 C   0  0  2  0  0  0  0  0  0  0  0  0
   29.2175  -25.3913  -17.5920 N   0  0  0  0  0  0  0  0  0  0  0  0
   28.2351  -23.4353  -16.5987 C   0  0  0  0  0  0  0  0  0  0  0  0
   29.2092  -23.1905  -15.8042 O   0  0  0  0  0  0  0  0  0  0  0  0
   26.9727  -22.9286  -16.1597 N   0  0  0  0  0  0  0  0  0  0  0  0
   26.8572  -21.6892  -15.4304 C   0  0  1  0  0  0  0  0  0  0  0  0
   27.7624  -20.6010  -15.8243 C   0  0  0  0  0  0  0  0  0  0  0  0
   27.6293  -19.0362  -14.9694 S   0  0  0  0  0  0  0  0  0  0  0  0
   25.4562  -21.3217  -15.1439 C   0  0  0  0  0  0  0  0  0  0  0  0
   24.7177  -20.7262  -15.9893 O   0  0  0  0  0  0  0  0  0  0  0  0
   26.3174  -20.6477   -7.8032 O   0  0  0  0  0  0  0  0  0  0  0  0
   25.6887  -20.4098   -9.0172 C   0  0  0  0  0  0  0  0  0  0  0  0
   26.5234  -20.0448  -10.0674 C   0  0  0  0  0  0  0  0  0  0  0  0
   26.0431  -19.7776  -11.3326 C   0  0  0  0  0  0  0  0  0  0  0  0
   24.6916  -19.8763  -11.5564 C   0  0  0  0  0  0  0  0  0  0  0  0
   24.1393  -19.6026  -12.8801 C   0  0  0  0  0  0  0  0  0  0  0  0
   23.6091  -20.8695  -13.5001 C   0  0  2  0  0  0  0  0  0  0  0  0
   24.8204  -21.6022  -13.9110 N   0  0  0  0  0  0  0  0  0  0  0  0
   22.7551  -20.5430  -14.6446 C   0  0  0  0  0  0  0  0  0  0  0  0
   23.1641  -20.4121  -15.9427 O   0  0  0  0  0  0  0  0  0  0  0  0
   23.8737  -20.2359  -10.5164 C   0  0  0  0  0  0  0  0  0  0  0  0
   24.3475  -20.5067   -9.2389 C   0  0  0  0  0  0  0  0  0  0  0  0
   21.5159  -20.3628  -14.4015 O   0  0  0  0  0  0  0  0  0  0  0  0
  2  1  1  0
  3  2  2  0
  4  2  1  0
  5  6  1  0
  5  4  1  0
  6  7  1  1
  8  6  1  0
  9  8  2  0
 10  8  1  0
 11 14  1  0
 11 10  1  0
 11 12  1  6
 13 12  1  0
 14 23  1  0
 15 14  2  0
 16 17  1  0
 17 18  2  0
 17 27  1  0
 18 19  1  0
 19 20  2  0
 20 21  1  0
 22 21  1  6
 22 24  1  0
 23 22  1  0
 24 28  2  0
 24 25  1  0
 26 20  1  0
 27 26  2  0
M  END
$$$$
