QCY.pdb
     RDKit          3D

 28 28  0  0  1  0  0  0  0  0999 V2000
   22.3903  -15.9762  -18.8993 N   0  0  0  0  0  0  0  0  0  0  0  0
   22.4722  -15.6660  -20.2785 C   0  0  0  0  0  0  0  0  0  0  0  0
   22.2181  -14.5611  -20.8038 O   0  0  0  0  0  0  0  0  0  0  0  0
   22.9175  -16.8281  -21.1595 C   0  0  0  0  0  0  0  0  0  0  0  0
   23.2922  -17.9976  -20.3222 C   0  0  0  0  0  0  0  0  0  0  0  0
   24.7422  -18.3350  -20.3033 C   0  0  2  0  0  0  0  0  0  0  0  0
   25.1519  -18.7453  -21.6554 N   0  0  0  0  0  0  0  0  0  0  0  0
   25.0855  -19.3828  -19.3387 C   0  0  0  0  0  0  0  0  0  0  0  0
   24.7510  -20.6042  -19.5293 O   0  0  0  0  0  0  0  0  0  0  0  0
   25.8091  -19.1502  -18.1282 N   0  0  0  0  0  0  0  0  0  0  0  0
   26.0173  -20.1894  -17.1493 C   0  0  1  0  0  0  0  0  0  0  0  0
   27.3846  -20.7100  -17.0152 C   0  0  0  0  0  0  0  0  0  0  0  0
   27.7895  -21.6641  -15.5582 S   0  0  0  0  0  0  0  0  0  0  0  0
   25.2653  -19.9583  -15.8998 C   0  0  0  0  0  0  0  0  0  0  0  0
   24.8221  -18.8143  -15.5688 O   0  0  0  0  0  0  0  0  0  0  0  0
   19.6741  -19.8642   -9.4897 O   0  0  0  0  0  0  0  0  0  0  0  0
   20.4760  -19.9060  -10.6214 C   0  0  0  0  0  0  0  0  0  0  0  0
   20.6892  -21.1685  -11.1633 C   0  0  0  0  0  0  0  0  0  0  0  0
   21.4632  -21.3675  -12.2877 C   0  0  0  0  0  0  0  0  0  0  0  0
   22.0418  -20.2762  -12.8881 C   0  0  0  0  0  0  0  0  0  0  0  0
   22.8690  -20.4399  -14.0803 C   0  0  0  0  0  0  0  0  0  0  0  0
   24.3046  -20.6848  -13.6936 C   0  0  2  0  0  0  0  0  0  0  0  0
   24.9741  -20.9864  -14.9717 N   0  0  0  0  0  0  0  0  0  0  0  0
   24.3823  -21.8101  -12.7588 C   0  0  0  0  0  0  0  0  0  0  0  0
   24.4510  -21.7212  -11.3962 O   0  0  0  0  0  0  0  0  0  0  0  0
   21.8285  -19.0339  -12.3484 C   0  0  0  0  0  0  0  0  0  0  0  0
   21.0511  -18.8232  -11.2165 C   0  0  0  0  0  0  0  0  0  0  0  0
   24.3884  -22.9791  -13.2692 O   0  0  0  0  0  0  0  0  0  0  0  0
  2  1  1  0
  3  2  2  0
  4  2  1  0
  5  6  1  0
  5  4  1  0
  6  7  1  6
  8  6  1  0
  9  8  2  0
 10  8  1  0
 11 14  1  0
 11 10  1  0
 11 12  1  1
 13 12  1  0
 14 23  1  0
 15 14  2  0
 16 17  1  0
 17 18  2  0
 17 27  1  0
 18 19  1  0
 19 20  2  0
 20 21  1  0
 22 21  1  6
 22 24  1  0
 23 22  1  0
 24 28  2  0
 24 25  1  0
 26 20  1  0
 27 26  2  0
M  END
$$$$
