QCY.pdb
     RDKit          3D

 28 28  0  0  1  0  0  0  0  0999 V2000
   19.8940  -17.9783  -16.0351 N   0  0  0  0  0  0  0  0  0  0  0  0
   20.9846  -18.7361  -15.5433 C   0  0  0  0  0  0  0  0  0  0  0  0
   21.1044  -19.9786  -15.5959 O   0  0  0  0  0  0  0  0  0  0  0  0
   22.0883  -17.9050  -14.8984 C   0  0  0  0  0  0  0  0  0  0  0  0
   21.6743  -16.4807  -14.8030 C   0  0  0  0  0  0  0  0  0  0  0  0
   22.0889  -15.6143  -15.9405 C   0  0  2  0  0  0  0  0  0  0  0  0
   23.1307  -16.3098  -16.7120 N   0  0  0  0  0  0  0  0  0  0  0  0
   22.5731  -14.2958  -15.5244 C   0  0  0  0  0  0  0  0  0  0  0  0
   21.9172  -13.5722  -14.6960 O   0  0  0  0  0  0  0  0  0  0  0  0
   23.7912  -13.7080  -15.9870 N   0  0  0  0  0  0  0  0  0  0  0  0
   24.1884  -12.3733  -15.6098 C   0  0  1  0  0  0  0  0  0  0  0  0
   25.6168  -12.0489  -15.7250 C   0  0  0  0  0  0  0  0  0  0  0  0
   26.8098  -13.3051  -15.2826 S   0  0  0  0  0  0  0  0  0  0  0  0
   23.2312  -11.3425  -16.0584 C   0  0  0  0  0  0  0  0  0  0  0  0
   22.7145  -11.3465  -17.2193 O   0  0  0  0  0  0  0  0  0  0  0  0
   17.2677  -13.5946  -15.3871 O   0  0  0  0  0  0  0  0  0  0  0  0
   18.1732  -12.5735  -15.1362 C   0  0  0  0  0  0  0  0  0  0  0  0
   18.0777  -11.4644  -15.9692 C   0  0  0  0  0  0  0  0  0  0  0  0
   18.9093  -10.3714  -15.8404 C   0  0  0  0  0  0  0  0  0  0  0  0
   19.8641  -10.3854  -14.8532 C   0  0  0  0  0  0  0  0  0  0  0  0
   20.7659   -9.2500  -14.6803 C   0  0  0  0  0  0  0  0  0  0  0  0
   21.8446   -9.2715  -15.7321 C   0  0  2  0  0  0  0  0  0  0  0  0
   22.8091  -10.2701  -15.2369 N   0  0  0  0  0  0  0  0  0  0  0  0
   22.4489   -7.9423  -15.8512 C   0  0  0  0  0  0  0  0  0  0  0  0
   21.8562   -6.8339  -16.3891 O   0  0  0  0  0  0  0  0  0  0  0  0
   19.9537  -11.4824  -14.0355 C   0  0  0  0  0  0  0  0  0  0  0  0
   19.1213  -12.5879  -14.1573 C   0  0  0  0  0  0  0  0  0  0  0  0
   23.6398   -7.8134  -15.4126 O   0  0  0  0  0  0  0  0  0  0  0  0
  2  1  1  0
  3  2  2  0
  4  2  1  0
  5  6  1  0
  5  4  1  0
  6  7  1  1
  8  6  1  0
  9  8  2  0
 10  8  1  0
 11 14  1  0
 11 10  1  0
 11 12  1  6
 13 12  1  0
 14 23  1  0
 15 14  2  0
 16 17  1  0
 17 18  2  0
 17 27  1  0
 18 19  1  0
 19 20  2  0
 20 21  1  0
 22 21  1  1
 22 24  1  0
 23 22  1  0
 24 28  2  0
 24 25  1  0
 26 20  1  0
 27 26  2  0
M  END
$$$$
