QCY.pdb
     RDKit          3D

 28 28  0  0  1  0  0  0  0  0999 V2000
   25.0001  -24.1076  -18.2772 N   0  0  0  0  0  0  0  0  0  0  0  0
   24.1437  -25.2272  -18.4123 C   0  0  0  0  0  0  0  0  0  0  0  0
   24.2793  -26.1676  -19.2237 O   0  0  0  0  0  0  0  0  0  0  0  0
   22.9602  -25.2337  -17.4509 C   0  0  0  0  0  0  0  0  0  0  0  0
   23.4107  -25.5843  -16.0786 C   0  0  0  0  0  0  0  0  0  0  0  0
   22.8134  -24.7752  -14.9808 C   0  0  2  0  0  0  0  0  0  0  0  0
   23.8983  -24.1993  -14.1710 N   0  0  0  0  0  0  0  0  0  0  0  0
   21.9015  -25.5367  -14.1235 C   0  0  0  0  0  0  0  0  0  0  0  0
   22.0646  -26.7904  -13.9193 O   0  0  0  0  0  0  0  0  0  0  0  0
   20.7761  -24.9694  -13.4492 N   0  0  0  0  0  0  0  0  0  0  0  0
   19.9251  -25.7536  -12.5876 C   0  0  1  0  0  0  0  0  0  0  0  0
   20.5848  -26.5146  -11.5179 C   0  0  0  0  0  0  0  0  0  0  0  0
   19.7531  -26.6563   -9.9414 S   0  0  0  0  0  0  0  0  0  0  0  0
   18.6697  -25.0598  -12.2371 C   0  0  0  0  0  0  0  0  0  0  0  0
   18.6504  -23.9469  -11.6241 O   0  0  0  0  0  0  0  0  0  0  0  0
   15.0109  -25.2071  -18.3627 O   0  0  0  0  0  0  0  0  0  0  0  0
   15.0079  -25.2201  -16.9750 C   0  0  0  0  0  0  0  0  0  0  0  0
   15.1563  -26.4693  -16.3832 C   0  0  0  0  0  0  0  0  0  0  0  0
   15.1732  -26.6397  -15.0145 C   0  0  0  0  0  0  0  0  0  0  0  0
   15.0372  -25.5326  -14.2131 C   0  0  0  0  0  0  0  0  0  0  0  0
   15.0494  -25.6661  -12.7591 C   0  0  0  0  0  0  0  0  0  0  0  0
   16.1662  -24.8466  -12.1661 C   0  0  2  0  0  0  0  0  0  0  0  0
   17.3891  -25.5720  -12.5547 N   0  0  0  0  0  0  0  0  0  0  0  0
   16.0128  -24.7773  -10.7108 C   0  0  0  0  0  0  0  0  0  0  0  0
   15.1302  -23.9845  -10.0313 O   0  0  0  0  0  0  0  0  0  0  0  0
   14.8904  -24.3036  -14.8029 C   0  0  0  0  0  0  0  0  0  0  0  0
   14.8719  -24.1215  -16.1799 C   0  0  0  0  0  0  0  0  0  0  0  0
   16.7781  -25.5268  -10.0180 O   0  0  0  0  0  0  0  0  0  0  0  0
  2  1  1  0
  3  2  2  0
  4  2  1  0
  5  6  1  0
  5  4  1  0
  6  7  1  1
  8  6  1  0
  9  8  2  0
 10  8  1  0
 11 14  1  0
 11 10  1  0
 11 12  1  1
 13 12  1  0
 14 23  1  0
 15 14  2  0
 16 17  1  0
 17 18  2  0
 17 27  1  0
 18 19  1  0
 19 20  2  0
 20 21  1  0
 22 21  1  6
 22 24  1  0
 23 22  1  0
 24 28  2  0
 24 25  1  0
 26 20  1  0
 27 26  2  0
M  END
$$$$
