QCY.pdb
     RDKit          3D

 28 28  0  0  1  0  0  0  0  0999 V2000
   28.9235  -24.1809  -15.7759 N   0  0  0  0  0  0  0  0  0  0  0  0
   29.7322  -23.2659  -16.4929 C   0  0  0  0  0  0  0  0  0  0  0  0
   30.9382  -23.4158  -16.7832 O   0  0  0  0  0  0  0  0  0  0  0  0
   29.0110  -21.9946  -16.9269 C   0  0  0  0  0  0  0  0  0  0  0  0
   27.5877  -22.0365  -16.5007 C   0  0  0  0  0  0  0  0  0  0  0  0
   27.1180  -20.8616  -15.7160 C   0  0  2  0  0  0  0  0  0  0  0  0
   28.2816  -20.2090  -15.0958 N   0  0  0  0  0  0  0  0  0  0  0  0
   26.1308  -21.2022  -14.6886 C   0  0  0  0  0  0  0  0  0  0  0  0
   25.0627  -21.8484  -14.9742 O   0  0  0  0  0  0  0  0  0  0  0  0
   26.2623  -20.8587  -13.3074 N   0  0  0  0  0  0  0  0  0  0  0  0
   25.2239  -21.1408  -12.3464 C   0  0  1  0  0  0  0  0  0  0  0  0
   25.5865  -21.0321  -10.9268 C   0  0  0  0  0  0  0  0  0  0  0  0
   27.2852  -21.3378  -10.4599 S   0  0  0  0  0  0  0  0  0  0  0  0
   23.9114  -20.5936  -12.7441 C   0  0  0  0  0  0  0  0  0  0  0  0
   23.6997  -19.3473  -12.8733 O   0  0  0  0  0  0  0  0  0  0  0  0
   16.5792  -18.7895  -16.7756 O   0  0  0  0  0  0  0  0  0  0  0  0
   17.8221  -19.1710  -16.2904 C   0  0  0  0  0  0  0  0  0  0  0  0
   18.0456  -20.5411  -16.2149 C   0  0  0  0  0  0  0  0  0  0  0  0
   19.2330  -21.0705  -15.7539 C   0  0  0  0  0  0  0  0  0  0  0  0
   20.2255  -20.2087  -15.3557 C   0  0  0  0  0  0  0  0  0  0  0  0
   21.4986  -20.7248  -14.8609 C   0  0  0  0  0  0  0  0  0  0  0  0
   21.4829  -20.8066  -13.3564 C   0  0  2  0  0  0  0  0  0  0  0  0
   22.7854  -21.4068  -13.0158 N   0  0  0  0  0  0  0  0  0  0  0  0
   20.3648  -21.6445  -12.9161 C   0  0  0  0  0  0  0  0  0  0  0  0
   19.1695  -21.1985  -12.4243 O   0  0  0  0  0  0  0  0  0  0  0  0
   19.9986  -18.8586  -15.4317 C   0  0  0  0  0  0  0  0  0  0  0  0
   18.8065  -18.3157  -15.8943 C   0  0  0  0  0  0  0  0  0  0  0  0
   20.5279  -22.9069  -12.9992 O   0  0  0  0  0  0  0  0  0  0  0  0
  2  1  1  0
  3  2  2  0
  4  2  1  0
  5  6  1  0
  5  4  1  0
  6  7  1  1
  8  6  1  0
  9  8  2  0
 10  8  1  0
 11 14  1  0
 11 10  1  0
 11 12  1  1
 13 12  1  0
 14 23  1  0
 15 14  2  0
 16 17  1  0
 17 18  2  0
 17 27  1  0
 18 19  1  0
 19 20  2  0
 20 21  1  0
 22 21  1  6
 22 24  1  0
 23 22  1  0
 24 28  2  0
 24 25  1  0
 26 20  1  0
 27 26  2  0
M  END
$$$$
