QCY.pdb
     RDKit          3D

 28 28  0  0  1  0  0  0  0  0999 V2000
   25.9530  -27.4522  -17.3578 N   0  0  0  0  0  0  0  0  0  0  0  0
   26.9731  -28.4336  -17.3206 C   0  0  0  0  0  0  0  0  0  0  0  0
   26.8232  -29.6457  -17.0573 O   0  0  0  0  0  0  0  0  0  0  0  0
   28.3670  -27.9047  -17.6402 C   0  0  0  0  0  0  0  0  0  0  0  0
   28.2992  -26.4729  -18.0332 C   0  0  0  0  0  0  0  0  0  0  0  0
   29.4248  -25.6227  -17.5568 C   0  0  2  0  0  0  0  0  0  0  0  0
   30.2378  -26.3992  -16.6079 N   0  0  0  0  0  0  0  0  0  0  0  0
   28.9881  -24.3716  -16.9320 C   0  0  0  0  0  0  0  0  0  0  0  0
   29.0254  -24.2085  -15.6623 O   0  0  0  0  0  0  0  0  0  0  0  0
   28.4954  -23.2436  -17.6586 N   0  0  0  0  0  0  0  0  0  0  0  0
   28.1351  -22.0095  -17.0039 C   0  0  1  0  0  0  0  0  0  0  0  0
   28.8715  -20.8043  -17.4089 C   0  0  0  0  0  0  0  0  0  0  0  0
   28.2928  -19.2188  -16.8186 S   0  0  0  0  0  0  0  0  0  0  0  0
   26.6783  -21.8682  -16.8097 C   0  0  0  0  0  0  0  0  0  0  0  0
   25.8423  -22.0361  -17.7519 O   0  0  0  0  0  0  0  0  0  0  0  0
   18.9422  -20.4960  -12.8811 O   0  0  0  0  0  0  0  0  0  0  0  0
   20.3017  -20.5280  -13.1581 C   0  0  0  0  0  0  0  0  0  0  0  0
   20.8757  -21.7929  -13.2163 C   0  0  0  0  0  0  0  0  0  0  0  0
   22.2157  -21.9832  -13.4828 C   0  0  0  0  0  0  0  0  0  0  0  0
   23.0059  -20.8803  -13.6962 C   0  0  0  0  0  0  0  0  0  0  0  0
   24.4296  -21.0346  -13.9816 C   0  0  0  0  0  0  0  0  0  0  0  0
   24.6470  -21.2751  -15.4531 C   0  0  2  0  0  0  0  0  0  0  0  0
   26.0932  -21.5380  -15.5640 N   0  0  0  0  0  0  0  0  0  0  0  0
   24.2488  -20.0886  -16.2146 C   0  0  0  0  0  0  0  0  0  0  0  0
   23.0627  -19.9149  -16.8721 O   0  0  0  0  0  0  0  0  0  0  0  0
   22.4340  -19.6356  -13.6366 C   0  0  0  0  0  0  0  0  0  0  0  0
   21.0859  -19.4335  -13.3688 C   0  0  0  0  0  0  0  0  0  0  0  0
   25.0918  -19.1327  -16.2676 O   0  0  0  0  0  0  0  0  0  0  0  0
  2  1  1  0
  3  2  2  0
  4  2  1  0
  5  6  1  0
  5  4  1  0
  6  7  1  1
  8  6  1  0
  9  8  2  0
 10  8  1  0
 11 14  1  0
 11 10  1  0
 11 12  1  6
 13 12  1  0
 14 23  1  0
 15 14  2  0
 16 17  1  0
 17 18  2  0
 17 27  1  0
 18 19  1  0
 19 20  2  0
 20 21  1  0
 22 21  1  1
 22 24  1  0
 23 22  1  0
 24 28  2  0
 24 25  1  0
 26 20  1  0
 27 26  2  0
M  END
$$$$
