QCY.pdb
     RDKit          3D

 28 28  0  0  1  0  0  0  0  0999 V2000
   28.9344  -24.2162  -17.1368 N   0  0  0  0  0  0  0  0  0  0  0  0
   28.9970  -22.8893  -17.6273 C   0  0  0  0  0  0  0  0  0  0  0  0
   30.0357  -22.2486  -17.8951 O   0  0  0  0  0  0  0  0  0  0  0  0
   27.6378  -22.2282  -17.8287 C   0  0  0  0  0  0  0  0  0  0  0  0
   26.5489  -23.1429  -17.3968 C   0  0  0  0  0  0  0  0  0  0  0  0
   25.1720  -22.5811  -17.4703 C   0  0  2  0  0  0  0  0  0  0  0  0
   25.0069  -21.8963  -18.7619 N   0  0  0  0  0  0  0  0  0  0  0  0
   24.8571  -21.6614  -16.3744 C   0  0  0  0  0  0  0  0  0  0  0  0
   25.2635  -20.4469  -16.3817 O   0  0  0  0  0  0  0  0  0  0  0  0
   24.0854  -22.0195  -15.2258 N   0  0  0  0  0  0  0  0  0  0  0  0
   23.8282  -21.0870  -14.1554 C   0  0  1  0  0  0  0  0  0  0  0  0
   22.4486  -20.6011  -14.0162 C   0  0  0  0  0  0  0  0  0  0  0  0
   21.7462  -19.6481  -15.3560 S   0  0  0  0  0  0  0  0  0  0  0  0
   24.5434  -21.4323  -12.9107 C   0  0  0  0  0  0  0  0  0  0  0  0
   24.4140  -22.5584  -12.3363 O   0  0  0  0  0  0  0  0  0  0  0  0
   29.3303  -20.4674   -5.5995 O   0  0  0  0  0  0  0  0  0  0  0  0
   28.8060  -20.3744   -6.8810 C   0  0  0  0  0  0  0  0  0  0  0  0
   27.8482  -19.3847   -7.0704 C   0  0  0  0  0  0  0  0  0  0  0  0
   27.2386  -19.1718   -8.2894 C   0  0  0  0  0  0  0  0  0  0  0  0
   27.5938  -19.9696   -9.3494 C   0  0  0  0  0  0  0  0  0  0  0  0
   26.9744  -19.7799  -10.6580 C   0  0  0  0  0  0  0  0  0  0  0  0
   25.9139  -20.8241  -10.8933 C   0  0  2  0  0  0  0  0  0  0  0  0
   25.4304  -20.5439  -12.2572 N   0  0  0  0  0  0  0  0  0  0  0  0
   24.8485  -20.6833   -9.8977 C   0  0  0  0  0  0  0  0  0  0  0  0
   24.7439  -21.3811   -8.7265 O   0  0  0  0  0  0  0  0  0  0  0  0
   28.5384  -20.9444   -9.1559 C   0  0  0  0  0  0  0  0  0  0  0  0
   29.1578  -21.1668   -7.9325 C   0  0  0  0  0  0  0  0  0  0  0  0
   23.9349  -19.8305  -10.1534 O   0  0  0  0  0  0  0  0  0  0  0  0
  2  1  1  0
  3  2  2  0
  4  2  1  0
  5  6  1  0
  5  4  1  0
  6  7  1  6
  8  6  1  0
  9  8  2  0
 10  8  1  0
 11 14  1  0
 11 10  1  0
 11 12  1  1
 13 12  1  0
 14 23  1  0
 15 14  2  0
 16 17  1  0
 17 18  2  0
 17 27  1  0
 18 19  1  0
 19 20  2  0
 20 21  1  0
 22 21  1  1
 22 24  1  0
 23 22  1  0
 24 28  2  0
 24 25  1  0
 26 20  1  0
 27 26  2  0
M  END
$$$$
