QCY.pdb
     RDKit          3D

 28 28  0  0  1  0  0  0  0  0999 V2000
   17.9307  -13.8602  -19.7542 N   0  0  0  0  0  0  0  0  0  0  0  0
   19.0188  -13.9479  -20.6561 C   0  0  0  0  0  0  0  0  0  0  0  0
   18.9717  -14.3668  -21.8323 O   0  0  0  0  0  0  0  0  0  0  0  0
   20.3500  -13.4727  -20.0844 C   0  0  0  0  0  0  0  0  0  0  0  0
   20.1782  -13.0254  -18.6774 C   0  0  0  0  0  0  0  0  0  0  0  0
   21.4061  -12.5062  -18.0146 C   0  0  2  0  0  0  0  0  0  0  0  0
   22.2055  -13.6451  -17.5368 N   0  0  0  0  0  0  0  0  0  0  0  0
   21.1284  -11.5913  -16.9046 C   0  0  0  0  0  0  0  0  0  0  0  0
   20.3319  -11.9132  -15.9547 O   0  0  0  0  0  0  0  0  0  0  0  0
   21.7055  -10.2899  -16.7766 N   0  0  0  0  0  0  0  0  0  0  0  0
   21.3220   -9.3829  -15.7222 C   0  0  1  0  0  0  0  0  0  0  0  0
   22.2956   -9.1713  -14.6425 C   0  0  0  0  0  0  0  0  0  0  0  0
   21.9762   -7.8731  -13.4553 S   0  0  0  0  0  0  0  0  0  0  0  0
   20.6108   -8.1900  -16.2234 C   0  0  0  0  0  0  0  0  0  0  0  0
   21.1214   -7.3947  -17.0728 O   0  0  0  0  0  0  0  0  0  0  0  0
   13.8385  -10.2831  -14.7616 O   0  0  0  0  0  0  0  0  0  0  0  0
   14.8213   -9.5367  -15.3963 C   0  0  0  0  0  0  0  0  0  0  0  0
   14.7217   -8.1580  -15.2479 C   0  0  0  0  0  0  0  0  0  0  0  0
   15.6259   -7.2874  -15.8200 C   0  0  0  0  0  0  0  0  0  0  0  0
   16.6582   -7.8067  -16.5622 C   0  0  0  0  0  0  0  0  0  0  0  0
   17.6385   -6.9224  -17.1861 C   0  0  0  0  0  0  0  0  0  0  0  0
   18.7102   -6.5453  -16.1963 C   0  0  2  0  0  0  0  0  0  0  0  0
   19.3065   -7.8349  -15.8040 N   0  0  0  0  0  0  0  0  0  0  0  0
   18.1096   -5.8525  -15.0538 C   0  0  0  0  0  0  0  0  0  0  0  0
   17.9987   -6.3432  -13.7824 O   0  0  0  0  0  0  0  0  0  0  0  0
   16.7503   -9.1672  -16.7056 C   0  0  0  0  0  0  0  0  0  0  0  0
   15.8450  -10.0522  -16.1337 C   0  0  0  0  0  0  0  0  0  0  0  0
   17.6466   -4.6839  -15.2715 O   0  0  0  0  0  0  0  0  0  0  0  0
  2  1  1  0
  3  2  2  0
  4  2  1  0
  5  6  1  0
  5  4  1  0
  6  7  1  1
  8  6  1  0
  9  8  2  0
 10  8  1  0
 11 14  1  0
 11 10  1  0
 11 12  1  6
 13 12  1  0
 14 23  1  0
 15 14  2  0
 16 17  1  0
 17 18  2  0
 17 27  1  0
 18 19  1  0
 19 20  2  0
 20 21  1  0
 22 21  1  6
 22 24  1  0
 23 22  1  0
 24 28  2  0
 24 25  1  0
 26 20  1  0
 27 26  2  0
M  END
$$$$
