QCY.pdb
     RDKit          3D

 28 28  0  0  1  0  0  0  0  0999 V2000
   27.8153  -15.1133  -15.4568 N   0  0  0  0  0  0  0  0  0  0  0  0
   28.4050  -15.9070  -16.4705 C   0  0  0  0  0  0  0  0  0  0  0  0
   29.1891  -15.5091  -17.3581 O   0  0  0  0  0  0  0  0  0  0  0  0
   28.0104  -17.3791  -16.4265 C   0  0  0  0  0  0  0  0  0  0  0  0
   27.1877  -17.6580  -15.2204 C   0  0  0  0  0  0  0  0  0  0  0  0
   26.3583  -18.8929  -15.2809 C   0  0  2  0  0  0  0  0  0  0  0  0
   25.3368  -18.7280  -16.3267 N   0  0  0  0  0  0  0  0  0  0  0  0
   25.7179  -19.2295  -14.0070 C   0  0  0  0  0  0  0  0  0  0  0  0
   24.8231  -18.4749  -13.4873 O   0  0  0  0  0  0  0  0  0  0  0  0
   26.0190  -20.4005  -13.2447 N   0  0  0  0  0  0  0  0  0  0  0  0
   25.2969  -20.7375  -12.0420 C   0  0  1  0  0  0  0  0  0  0  0  0
   24.1954  -21.7003  -12.1774 C   0  0  0  0  0  0  0  0  0  0  0  0
   24.3521  -23.0024  -13.3927 S   0  0  0  0  0  0  0  0  0  0  0  0
   26.1796  -20.8932  -10.8686 C   0  0  0  0  0  0  0  0  0  0  0  0
   27.1699  -21.6893  -10.8575 O   0  0  0  0  0  0  0  0  0  0  0  0
   29.9479  -20.1272   -3.0441 O   0  0  0  0  0  0  0  0  0  0  0  0
   29.2491  -19.8725   -4.2157 C   0  0  0  0  0  0  0  0  0  0  0  0
   29.8075  -20.3949   -5.3768 C   0  0  0  0  0  0  0  0  0  0  0  0
   29.2264  -20.2245   -6.6161 C   0  0  0  0  0  0  0  0  0  0  0  0
   28.0554  -19.5117   -6.6999 C   0  0  0  0  0  0  0  0  0  0  0  0
   27.4052  -19.3065   -7.9912 C   0  0  0  0  0  0  0  0  0  0  0  0
   26.7053  -20.5658   -8.4326 C   0  0  2  0  0  0  0  0  0  0  0  0
   25.9994  -20.1710   -9.6649 N   0  0  0  0  0  0  0  0  0  0  0  0
   25.7761  -21.0091   -7.3903 C   0  0  0  0  0  0  0  0  0  0  0  0
   24.4127  -20.9185   -7.4359 O   0  0  0  0  0  0  0  0  0  0  0  0
   27.5102  -18.9984   -5.5514 C   0  0  0  0  0  0  0  0  0  0  0  0
   28.0877  -19.1643   -4.2989 C   0  0  0  0  0  0  0  0  0  0  0  0
   26.2928  -21.5247   -6.3442 O   0  0  0  0  0  0  0  0  0  0  0  0
  2  1  1  0
  3  2  2  0
  4  2  1  0
  5  6  1  0
  5  4  1  0
  6  7  1  6
  8  6  1  0
  9  8  2  0
 10  8  1  0
 11 14  1  0
 11 10  1  0
 11 12  1  6
 13 12  1  0
 14 23  1  0
 15 14  2  0
 16 17  1  0
 17 18  2  0
 17 27  1  0
 18 19  1  0
 19 20  2  0
 20 21  1  0
 22 21  1  1
 22 24  1  0
 23 22  1  0
 24 28  2  0
 24 25  1  0
 26 20  1  0
 27 26  2  0
M  END
$$$$
