QCY.pdb
     RDKit          3D

 28 28  0  0  1  0  0  0  0  0999 V2000
   15.5938  -13.4600  -13.3836 N   0  0  0  0  0  0  0  0  0  0  0  0
   14.9153  -14.4039  -14.1921 C   0  0  0  0  0  0  0  0  0  0  0  0
   13.7136  -14.7319  -14.0949 O   0  0  0  0  0  0  0  0  0  0  0  0
   15.7822  -15.0504  -15.2670 C   0  0  0  0  0  0  0  0  0  0  0  0
   17.1764  -14.5426  -15.1813 C   0  0  0  0  0  0  0  0  0  0  0  0
   18.1229  -15.0926  -16.1904 C   0  0  2  0  0  0  0  0  0  0  0  0
   18.5463  -16.4349  -15.7621 N   0  0  0  0  0  0  0  0  0  0  0  0
   19.2978  -14.2461  -16.4118 C   0  0  0  0  0  0  0  0  0  0  0  0
   20.4545  -14.5780  -15.9739 O   0  0  0  0  0  0  0  0  0  0  0  0
   19.2679  -13.0050  -17.1204 N   0  0  0  0  0  0  0  0  0  0  0  0
   20.4649  -12.2423  -17.3789 C   0  0  1  0  0  0  0  0  0  0  0  0
   21.1499  -12.4948  -18.6539 C   0  0  0  0  0  0  0  0  0  0  0  0
   22.5472  -11.4653  -19.0839 S   0  0  0  0  0  0  0  0  0  0  0  0
   20.3506  -10.8342  -16.9496 C   0  0  0  0  0  0  0  0  0  0  0  0
   19.3228  -10.1264  -17.1893 O   0  0  0  0  0  0  0  0  0  0  0  0
   22.5597   -2.9962  -13.6276 O   0  0  0  0  0  0  0  0  0  0  0  0
   22.4816   -4.3494  -13.9252 C   0  0  0  0  0  0  0  0  0  0  0  0
   23.2231   -4.7691  -15.0238 C   0  0  0  0  0  0  0  0  0  0  0  0
   23.2451   -6.0840  -15.4400 C   0  0  0  0  0  0  0  0  0  0  0  0
   22.5055   -7.0065  -14.7411 C   0  0  0  0  0  0  0  0  0  0  0  0
   22.4992   -8.4094  -15.1461 C   0  0  0  0  0  0  0  0  0  0  0  0
   21.2795   -8.7102  -15.9780 C   0  0  2  0  0  0  0  0  0  0  0  0
   21.3696  -10.1585  -16.2368 N   0  0  0  0  0  0  0  0  0  0  0  0
   21.3196   -7.9314  -17.2182 C   0  0  0  0  0  0  0  0  0  0  0  0
   20.6637   -6.7547  -17.4514 O   0  0  0  0  0  0  0  0  0  0  0  0
   21.7758   -6.5861  -13.6592 C   0  0  0  0  0  0  0  0  0  0  0  0
   21.7469   -5.2644  -13.2323 C   0  0  0  0  0  0  0  0  0  0  0  0
   22.0327   -8.4007  -18.1662 O   0  0  0  0  0  0  0  0  0  0  0  0
  2  1  1  0
  3  2  2  0
  4  2  1  0
  5  6  1  0
  5  4  1  0
  6  7  1  1
  8  6  1  0
  9  8  2  0
 10  8  1  0
 11 14  1  0
 11 10  1  0
 11 12  1  6
 13 12  1  0
 14 23  1  0
 15 14  2  0
 16 17  1  0
 17 18  2  0
 17 27  1  0
 18 19  1  0
 19 20  2  0
 20 21  1  0
 22 21  1  1
 22 24  1  0
 23 22  1  0
 24 28  2  0
 24 25  1  0
 26 20  1  0
 27 26  2  0
M  END
$$$$
