QCY.pdb
     RDKit          3D

 28 28  0  0  1  0  0  0  0  0999 V2000
   28.7465  -20.5906  -20.3705 N   0  0  0  0  0  0  0  0  0  0  0  0
   27.6311  -20.5167  -21.2397 C   0  0  0  0  0  0  0  0  0  0  0  0
   27.5755  -19.8892  -22.3188 O   0  0  0  0  0  0  0  0  0  0  0  0
   26.4098  -21.2957  -20.7638 C   0  0  0  0  0  0  0  0  0  0  0  0
   26.7132  -22.0084  -19.4953 C   0  0  0  0  0  0  0  0  0  0  0  0
   25.7540  -21.7724  -18.3814 C   0  0  2  0  0  0  0  0  0  0  0  0
   24.7951  -20.7350  -18.7923 N   0  0  0  0  0  0  0  0  0  0  0  0
   26.4010  -21.3841  -17.1257 C   0  0  0  0  0  0  0  0  0  0  0  0
   27.3626  -22.0682  -16.6284 O   0  0  0  0  0  0  0  0  0  0  0  0
   26.0342  -20.2354  -16.3583 N   0  0  0  0  0  0  0  0  0  0  0  0
   26.6861  -19.9061  -15.1141 C   0  0  1  0  0  0  0  0  0  0  0  0
   27.0379  -18.4954  -14.9026 C   0  0  0  0  0  0  0  0  0  0  0  0
   27.9028  -17.6324  -16.2080 S   0  0  0  0  0  0  0  0  0  0  0  0
   26.1195  -20.6333  -13.9607 C   0  0  0  0  0  0  0  0  0  0  0  0
   24.8980  -20.9786  -13.9017 O   0  0  0  0  0  0  0  0  0  0  0  0
   25.5399  -20.1543   -5.2952 O   0  0  0  0  0  0  0  0  0  0  0  0
   26.0339  -20.2084   -6.5908 C   0  0  0  0  0  0  0  0  0  0  0  0
   25.9182  -21.4378   -7.2297 C   0  0  0  0  0  0  0  0  0  0  0  0
   26.3633  -21.6439   -8.5189 C   0  0  0  0  0  0  0  0  0  0  0  0
   26.9414  -20.5940   -9.1897 C   0  0  0  0  0  0  0  0  0  0  0  0
   27.4268  -20.7668  -10.5560 C   0  0  0  0  0  0  0  0  0  0  0  0
   26.2790  -21.0568  -11.4882 C   0  0  2  0  0  0  0  0  0  0  0  0
   26.8854  -21.0069  -12.8307 N   0  0  0  0  0  0  0  0  0  0  0  0
   25.2361  -20.0414  -11.3231 C   0  0  0  0  0  0  0  0  0  0  0  0
   25.2747  -18.7622  -11.8044 O   0  0  0  0  0  0  0  0  0  0  0  0
   27.0534  -19.3844   -8.5539 C   0  0  0  0  0  0  0  0  0  0  0  0
   26.6085  -19.1669   -7.2560 C   0  0  0  0  0  0  0  0  0  0  0  0
   24.1986  -20.3876  -10.6664 O   0  0  0  0  0  0  0  0  0  0  0  0
  2  1  1  0
  3  2  2  0
  4  2  1  0
  5  6  1  0
  5  4  1  0
  6  7  1  6
  8  6  1  0
  9  8  2  0
 10  8  1  0
 11 14  1  0
 11 10  1  0
 11 12  1  1
 13 12  1  0
 14 23  1  0
 15 14  2  0
 16 17  1  0
 17 18  2  0
 17 27  1  0
 18 19  1  0
 19 20  2  0
 20 21  1  0
 22 21  1  1
 22 24  1  0
 23 22  1  0
 24 28  2  0
 24 25  1  0
 26 20  1  0
 27 26  2  0
M  END
$$$$
