HSN.pdb
     RDKit          3D

 25 25  0  0  1  0  0  0  0  0999 V2000
   11.4248  -20.5304   15.7470 N   0  0  0  0  0  0  0  0  0  0  0  0
   11.0681  -21.4021   16.8353 C   0  0  1  0  0  0  0  0  0  0  0  0
   11.5919  -22.7793   16.5019 C   0  0  0  0  0  0  0  0  0  0  0  0
   10.9168  -23.3322   15.2991 C   0  0  0  0  0  0  0  0  0  0  0  0
   11.2689  -24.3903   14.5087 C   0  0  0  0  0  0  0  0  0  0  0  0
   10.3362  -24.4985   13.5379 N   0  0  0  0  0  0  0  0  0  0  0  0
    9.4067  -23.5370   13.6960 C   0  0  0  0  0  0  0  0  0  0  0  0
    9.7684  -22.8267   14.7764 N   0  0  0  0  0  0  0  0  0  0  0  0
   11.6637  -20.9003   18.1106 C   0  0  0  0  0  0  0  0  0  0  0  0
   12.7254  -20.2048   18.1071 O   0  0  0  0  0  0  0  0  0  0  0  0
    9.5999  -20.8033   21.7560 O   0  0  0  0  0  0  0  0  0  0  0  0
   10.6307  -19.9198   21.4635 C   0  0  0  0  0  0  0  0  0  0  0  0
   11.6337  -20.6731   20.6173 C   0  0  2  0  0  0  0  0  0  0  0  0
   11.0984  -21.1596   19.3872 N   0  0  0  0  0  0  0  0  0  0  0  0
   12.3458  -21.7180   21.3967 C   0  0  0  0  0  0  0  0  0  0  0  0
   11.8498  -22.8802   21.4489 O   0  0  0  0  0  0  0  0  0  0  0  0
   16.9992  -20.8835   21.1122 N   0  0  0  0  0  0  0  0  0  0  0  0
   16.3068  -22.0548   21.5005 C   0  0  0  0  0  0  0  0  0  0  0  0
   16.1995  -22.9978   20.6593 O   0  0  0  0  0  0  0  0  0  0  0  0
   15.7281  -22.1753   22.8500 C   0  0  0  0  0  0  0  0  0  0  0  0
   14.2630  -22.5464   22.8323 C   0  0  2  0  0  0  0  0  0  0  0  0
   13.5495  -21.4922   22.0864 N   0  0  0  0  0  0  0  0  0  0  0  0
   13.6872  -22.6634   24.1883 C   0  0  0  0  0  0  0  0  0  0  0  0
   13.1009  -21.7001   24.7064 O   0  0  0  0  0  0  0  0  0  0  0  0
   13.7854  -23.8406   24.9128 O   0  0  0  0  0  0  0  0  0  0  0  0
  2  3  1  0
  2  1  1  6
  4  3  1  0
  5  4  2  0
  6  5  1  0
  6  7  1  0
  7  8  2  0
  8  4  1  0
  9  2  1  0
 10  9  2  0
 11 12  1  0
 13 12  1  1
 13 14  1  0
 14  9  1  0
 15 13  1  0
 15 22  1  0
 16 15  2  0
 17 18  1  0
 18 19  2  0
 21 20  1  1
 20 18  1  0
 21 22  1  0
 21 23  1  0
 23 25  1  0
 24 23  2  0
M  END
$$$$
