HSN.pdb
     RDKit          3D

 25 25  0  0  1  0  0  0  0  0999 V2000
   11.3362  -13.4012   18.7610 N   0  0  0  0  0  0  0  0  0  0  0  0
   10.0449  -13.7683   19.2798 C   0  0  1  0  0  0  0  0  0  0  0  0
    9.5496  -14.9435   18.4697 C   0  0  0  0  0  0  0  0  0  0  0  0
    9.1031  -14.5128   17.1195 C   0  0  0  0  0  0  0  0  0  0  0  0
    8.7459  -13.2716   16.6722 C   0  0  0  0  0  0  0  0  0  0  0  0
    8.4167  -13.3904   15.3677 N   0  0  0  0  0  0  0  0  0  0  0  0
    8.5571  -14.6730   14.9820 C   0  0  0  0  0  0  0  0  0  0  0  0
    8.9778  -15.3545   16.0596 N   0  0  0  0  0  0  0  0  0  0  0  0
   10.1566  -14.1278   20.7259 C   0  0  0  0  0  0  0  0  0  0  0  0
   11.2783  -14.4219   21.2416 O   0  0  0  0  0  0  0  0  0  0  0  0
    6.8920  -15.0811   23.1932 O   0  0  0  0  0  0  0  0  0  0  0  0
    7.8332  -14.2253   23.7506 C   0  0  0  0  0  0  0  0  0  0  0  0
    9.1299  -14.4446   23.0022 C   0  0  2  0  0  0  0  0  0  0  0  0
    9.0423  -14.1656   21.6055 N   0  0  0  0  0  0  0  0  0  0  0  0
    9.7230  -15.7748   23.2946 C   0  0  0  0  0  0  0  0  0  0  0  0
    9.4095  -16.7544   22.5586 O   0  0  0  0  0  0  0  0  0  0  0  0
   12.6222  -17.3362   22.3285 N   0  0  0  0  0  0  0  0  0  0  0  0
   13.3389  -17.2649   23.5464 C   0  0  0  0  0  0  0  0  0  0  0  0
   14.6051  -17.2144   23.4981 O   0  0  0  0  0  0  0  0  0  0  0  0
   12.6297  -17.2471   24.8377 C   0  0  0  0  0  0  0  0  0  0  0  0
   11.1297  -17.3565   24.6881 C   0  0  2  0  0  0  0  0  0  0  0  0
   10.6205  -16.0138   24.3495 N   0  0  0  0  0  0  0  0  0  0  0  0
   10.4668  -17.8367   25.9186 C   0  0  0  0  0  0  0  0  0  0  0  0
    9.7504  -17.0727   26.5845 O   0  0  0  0  0  0  0  0  0  0  0  0
   10.6252  -19.1408   26.3595 O   0  0  0  0  0  0  0  0  0  0  0  0
  2  3  1  0
  2  1  1  6
  4  3  1  0
  5  4  2  0
  6  5  1  0
  6  7  1  0
  7  8  2  0
  8  4  1  0
  9  2  1  0
 10  9  2  0
 11 12  1  0
 13 12  1  6
 13 14  1  0
 14  9  1  0
 15 13  1  0
 15 22  1  0
 16 15  2  0
 17 18  1  0
 18 19  2  0
 21 20  1  1
 20 18  1  0
 21 22  1  0
 21 23  1  0
 23 25  1  0
 24 23  2  0
M  END
$$$$
