HSN.pdb
     RDKit          3D

 25 25  0  0  1  0  0  0  0  0999 V2000
    6.7840  -14.8579   21.6430 N   0  0  0  0  0  0  0  0  0  0  0  0
    8.1165  -15.4010   21.6144 C   0  0  1  0  0  0  0  0  0  0  0  0
    8.9908  -14.4149   20.8757 C   0  0  0  0  0  0  0  0  0  0  0  0
    8.5055  -14.2047   19.4871 C   0  0  0  0  0  0  0  0  0  0  0  0
    8.7505  -14.9328   18.3565 C   0  0  0  0  0  0  0  0  0  0  0  0
    8.0839  -14.3415   17.3416 N   0  0  0  0  0  0  0  0  0  0  0  0
    7.4260  -13.2609   17.8029 C   0  0  0  0  0  0  0  0  0  0  0  0
    7.6885  -13.1833   19.1174 N   0  0  0  0  0  0  0  0  0  0  0  0
    8.6136  -15.6137   23.0075 C   0  0  0  0  0  0  0  0  0  0  0  0
    9.1895  -14.6800   23.6458 O   0  0  0  0  0  0  0  0  0  0  0  0
   11.6150  -18.4383   23.2203 O   0  0  0  0  0  0  0  0  0  0  0  0
   10.2689  -18.3359   22.8940 C   0  0  0  0  0  0  0  0  0  0  0  0
    9.5762  -17.6826   24.0700 C   0  0  2  0  0  0  0  0  0  0  0  0
    8.4807  -16.8462   23.7003 N   0  0  0  0  0  0  0  0  0  0  0  0
   10.5393  -17.0127   24.9811 C   0  0  0  0  0  0  0  0  0  0  0  0
   11.0041  -15.8841   24.6498 O   0  0  0  0  0  0  0  0  0  0  0  0
   10.9823  -14.0495   27.9574 N   0  0  0  0  0  0  0  0  0  0  0  0
    9.7276  -14.6919   27.8338 C   0  0  0  0  0  0  0  0  0  0  0  0
    8.6786  -13.9823   27.9000 O   0  0  0  0  0  0  0  0  0  0  0  0
    9.6440  -16.1487   27.6305 C   0  0  0  0  0  0  0  0  0  0  0  0
   10.9980  -16.7995   27.4644 C   0  0  2  0  0  0  0  0  0  0  0  0
   10.9698  -17.5615   26.2014 N   0  0  0  0  0  0  0  0  0  0  0  0
   11.3347  -17.7096   28.5791 C   0  0  0  0  0  0  0  0  0  0  0  0
   10.8156  -18.8346   28.6493 O   0  0  0  0  0  0  0  0  0  0  0  0
   12.2305  -17.3357   29.5680 O   0  0  0  0  0  0  0  0  0  0  0  0
  2  3  1  0
  2  1  1  1
  4  3  1  0
  5  4  2  0
  6  5  1  0
  6  7  1  0
  7  8  2  0
  8  4  1  0
  9  2  1  0
 10  9  2  0
 11 12  1  0
 13 12  1  6
 13 14  1  0
 14  9  1  0
 15 13  1  0
 15 22  1  0
 16 15  2  0
 17 18  1  0
 18 19  2  0
 21 20  1  1
 20 18  1  0
 21 22  1  0
 21 23  1  0
 23 25  1  0
 24 23  2  0
M  END
$$$$
