HSN.pdb
     RDKit          3D

 25 25  0  0  1  0  0  0  0  0999 V2000
   11.8539  -16.1839   19.3437 N   0  0  0  0  0  0  0  0  0  0  0  0
   10.7343  -16.7543   20.0456 C   0  0  1  0  0  0  0  0  0  0  0  0
   11.2705  -17.8488   20.9384 C   0  0  0  0  0  0  0  0  0  0  0  0
   11.9171  -18.9223   20.1400 C   0  0  0  0  0  0  0  0  0  0  0  0
   12.0672  -19.0340   18.7860 C   0  0  0  0  0  0  0  0  0  0  0  0
   12.7234  -20.1896   18.5452 N   0  0  0  0  0  0  0  0  0  0  0  0
   12.9903  -20.8083   19.7112 C   0  0  0  0  0  0  0  0  0  0  0  0
   12.4939  -20.0266   20.6834 N   0  0  0  0  0  0  0  0  0  0  0  0
   10.0433  -15.7016   20.8502 C   0  0  0  0  0  0  0  0  0  0  0  0
   10.6731  -14.6849   21.2750 O   0  0  0  0  0  0  0  0  0  0  0  0
    5.8454  -15.4807   21.3748 O   0  0  0  0  0  0  0  0  0  0  0  0
    6.6571  -14.3544   21.4153 C   0  0  0  0  0  0  0  0  0  0  0  0
    7.9900  -14.7888   21.9846 C   0  0  2  0  0  0  0  0  0  0  0  0
    8.6656  -15.7621   21.1893 N   0  0  0  0  0  0  0  0  0  0  0  0
    7.8845  -15.1764   23.4147 C   0  0  0  0  0  0  0  0  0  0  0  0
    7.3323  -14.3744   24.2219 O   0  0  0  0  0  0  0  0  0  0  0  0
    5.8807  -18.7587   23.5491 N   0  0  0  0  0  0  0  0  0  0  0  0
    6.1397  -17.8932   24.6382 C   0  0  0  0  0  0  0  0  0  0  0  0
    5.2728  -17.0143   24.9284 O   0  0  0  0  0  0  0  0  0  0  0  0
    7.3850  -18.0135   25.4163 C   0  0  0  0  0  0  0  0  0  0  0  0
    8.2430  -16.7708   25.3517 C   0  0  2  0  0  0  0  0  0  0  0  0
    8.3652  -16.3920   23.9310 N   0  0  0  0  0  0  0  0  0  0  0  0
    9.5906  -16.9772   25.9222 C   0  0  0  0  0  0  0  0  0  0  0  0
    9.7244  -17.3247   27.1060 O   0  0  0  0  0  0  0  0  0  0  0  0
   10.7317  -16.7899   25.1586 O   0  0  0  0  0  0  0  0  0  0  0  0
  2  3  1  0
  2  1  1  1
  4  3  1  0
  5  4  2  0
  6  5  1  0
  6  7  1  0
  7  8  2  0
  8  4  1  0
  9  2  1  0
 10  9  2  0
 11 12  1  0
 13 12  1  6
 13 14  1  0
 14  9  1  0
 15 13  1  0
 15 22  1  0
 16 15  2  0
 17 18  1  0
 18 19  2  0
 21 20  1  6
 20 18  1  0
 21 22  1  0
 21 23  1  0
 23 25  1  0
 24 23  2  0
M  END
$$$$
