HSN.pdb
     RDKit          3D

 25 25  0  0  1  0  0  0  0  0999 V2000
   11.0490  -17.6328   17.9493 N   0  0  0  0  0  0  0  0  0  0  0  0
    9.7734  -17.4360   18.5859 C   0  0  1  0  0  0  0  0  0  0  0  0
    9.1687  -18.8008   18.8184 C   0  0  0  0  0  0  0  0  0  0  0  0
    8.5995  -19.3551   17.5627 C   0  0  0  0  0  0  0  0  0  0  0  0
    8.5062  -18.7899   16.3217 C   0  0  0  0  0  0  0  0  0  0  0  0
    7.9103  -19.6902   15.5104 N   0  0  0  0  0  0  0  0  0  0  0  0
    7.6258  -20.8068   16.2072 C   0  0  0  0  0  0  0  0  0  0  0  0
    8.0507  -20.5947   17.4631 N   0  0  0  0  0  0  0  0  0  0  0  0
    9.9520  -16.7058   19.8774 C   0  0  0  0  0  0  0  0  0  0  0  0
   11.0557  -16.7444   20.5029 O   0  0  0  0  0  0  0  0  0  0  0  0
    6.7530  -15.0203   22.1877 O   0  0  0  0  0  0  0  0  0  0  0  0
    7.9404  -14.3127   22.0534 C   0  0  0  0  0  0  0  0  0  0  0  0
    9.0293  -15.3239   21.7681 C   0  0  2  0  0  0  0  0  0  0  0  0
    8.9243  -15.9353   20.4830 N   0  0  0  0  0  0  0  0  0  0  0  0
    9.1778  -16.3077   22.8712 C   0  0  0  0  0  0  0  0  0  0  0  0
    8.7569  -17.4870   22.6936 O   0  0  0  0  0  0  0  0  0  0  0  0
   12.1892  -19.8137   25.7874 N   0  0  0  0  0  0  0  0  0  0  0  0
   10.9104  -19.2245   25.6462 C   0  0  0  0  0  0  0  0  0  0  0  0
    9.9757  -19.6252   26.4040 O   0  0  0  0  0  0  0  0  0  0  0  0
   10.6733  -18.1698   24.6452 C   0  0  0  0  0  0  0  0  0  0  0  0
    9.9057  -16.9920   25.2002 C   0  0  2  0  0  0  0  0  0  0  0  0
    9.7637  -16.0054   24.1125 N   0  0  0  0  0  0  0  0  0  0  0  0
   10.5840  -16.3595   26.3508 C   0  0  0  0  0  0  0  0  0  0  0  0
   10.8476  -17.0228   27.3661 O   0  0  0  0  0  0  0  0  0  0  0  0
   10.9410  -15.0208   26.3287 O   0  0  0  0  0  0  0  0  0  0  0  0
  2  3  1  0
  2  1  1  1
  4  3  1  0
  5  4  2  0
  6  5  1  0
  6  7  1  0
  7  8  2  0
  8  4  1  0
  9  2  1  0
 10  9  2  0
 11 12  1  0
 13 12  1  1
 13 14  1  0
 14  9  1  0
 15 13  1  0
 15 22  1  0
 16 15  2  0
 17 18  1  0
 18 19  2  0
 21 20  1  6
 20 18  1  0
 21 22  1  0
 21 23  1  0
 23 25  1  0
 24 23  2  0
M  END
$$$$
