HSN.pdb
     RDKit          3D

 25 25  0  0  1  0  0  0  0  0999 V2000
   11.0225  -17.8471   12.5462 N   0  0  0  0  0  0  0  0  0  0  0  0
   10.8171  -19.0296   13.3404 C   0  0  1  0  0  0  0  0  0  0  0  0
   11.5866  -20.1530   12.6862 C   0  0  0  0  0  0  0  0  0  0  0  0
   10.9840  -20.5251   11.3799 C   0  0  0  0  0  0  0  0  0  0  0  0
    9.7570  -20.2146   10.8639 C   0  0  0  0  0  0  0  0  0  0  0  0
    9.6752  -20.7850    9.6425 N   0  0  0  0  0  0  0  0  0  0  0  0
   10.8177  -21.4461    9.3758 C   0  0  0  0  0  0  0  0  0  0  0  0
   11.6146  -21.2826   10.4439 N   0  0  0  0  0  0  0  0  0  0  0  0
   11.2960  -18.7988   14.7370 C   0  0  0  0  0  0  0  0  0  0  0  0
   12.2707  -18.0212   14.9737 O   0  0  0  0  0  0  0  0  0  0  0  0
    9.5981  -20.6621   18.1968 O   0  0  0  0  0  0  0  0  0  0  0  0
   10.1296  -19.3808   18.2657 C   0  0  0  0  0  0  0  0  0  0  0  0
   11.2041  -19.2890   17.2042 C   0  0  2  0  0  0  0  0  0  0  0  0
   10.7093  -19.4186   15.8721 N   0  0  0  0  0  0  0  0  0  0  0  0
   12.3484  -20.1917   17.4913 C   0  0  0  0  0  0  0  0  0  0  0  0
   12.3646  -21.3391   16.9597 O   0  0  0  0  0  0  0  0  0  0  0  0
   15.7821  -19.8590   16.3194 N   0  0  0  0  0  0  0  0  0  0  0  0
   16.3436  -19.4597   17.5554 C   0  0  0  0  0  0  0  0  0  0  0  0
   17.3436  -18.6799   17.5386 O   0  0  0  0  0  0  0  0  0  0  0  0
   15.7776  -19.9370   18.8291 C   0  0  0  0  0  0  0  0  0  0  0  0
   14.5298  -20.7697   18.6445 C   0  0  2  0  0  0  0  0  0  0  0  0
   13.4252  -19.8451   18.3254 N   0  0  0  0  0  0  0  0  0  0  0  0
   14.1822  -21.5521   19.8491 C   0  0  0  0  0  0  0  0  0  0  0  0
   13.2146  -21.2235   20.5533 O   0  0  0  0  0  0  0  0  0  0  0  0
   14.9201  -22.6639   20.2228 O   0  0  0  0  0  0  0  0  0  0  0  0
  2  3  1  0
  2  1  1  6
  4  3  1  0
  5  4  2  0
  6  5  1  0
  6  7  1  0
  7  8  2  0
  8  4  1  0
  9  2  1  0
 10  9  2  0
 11 12  1  0
 13 12  1  1
 13 14  1  0
 14  9  1  0
 15 13  1  0
 15 22  1  0
 16 15  2  0
 17 18  1  0
 18 19  2  0
 21 20  1  1
 20 18  1  0
 21 22  1  0
 21 23  1  0
 23 25  1  0
 24 23  2  0
M  END
$$$$
