HSN.pdb
     RDKit          3D

 25 25  0  0  1  0  0  0  0  0999 V2000
   10.9386  -17.3550   15.8871 N   0  0  0  0  0  0  0  0  0  0  0  0
   11.3427  -18.2181   16.9656 C   0  0  1  0  0  0  0  0  0  0  0  0
   12.6747  -18.8218   16.5866 C   0  0  0  0  0  0  0  0  0  0  0  0
   12.5275  -19.7788   15.4595 C   0  0  0  0  0  0  0  0  0  0  0  0
   11.6110  -20.7758   15.2740 C   0  0  0  0  0  0  0  0  0  0  0  0
   11.8912  -21.3690   14.0935 N   0  0  0  0  0  0  0  0  0  0  0  0
   12.9593  -20.7723   13.5310 C   0  0  0  0  0  0  0  0  0  0  0  0
   13.3437  -19.7995   14.3727 N   0  0  0  0  0  0  0  0  0  0  0  0
   11.4542  -17.4360   18.2340 C   0  0  0  0  0  0  0  0  0  0  0  0
   12.3792  -16.5825   18.3965 O   0  0  0  0  0  0  0  0  0  0  0  0
    8.7114  -17.8575   21.3949 O   0  0  0  0  0  0  0  0  0  0  0  0
    9.3155  -16.6195   21.2176 C   0  0  0  0  0  0  0  0  0  0  0  0
   10.6508  -16.8691   20.5511 C   0  0  2  0  0  0  0  0  0  0  0  0
   10.5549  -17.5884   19.3224 N   0  0  0  0  0  0  0  0  0  0  0  0
   11.6418  -17.4518   21.4917 C   0  0  0  0  0  0  0  0  0  0  0  0
   11.9243  -18.6805   21.3917 O   0  0  0  0  0  0  0  0  0  0  0  0
   15.0205  -16.8804   21.3980 N   0  0  0  0  0  0  0  0  0  0  0  0
   15.2268  -16.1581   22.5972 C   0  0  0  0  0  0  0  0  0  0  0  0
   16.2145  -15.3650   22.6602 O   0  0  0  0  0  0  0  0  0  0  0  0
   14.3142  -16.3225   23.7420 C   0  0  0  0  0  0  0  0  0  0  0  0
   13.2107  -17.3210   23.4777 C   0  0  2  0  0  0  0  0  0  0  0  0
   12.2918  -16.7139   22.4959 N   0  0  0  0  0  0  0  0  0  0  0  0
   12.4584  -17.6771   24.6989 C   0  0  0  0  0  0  0  0  0  0  0  0
   11.3335  -17.1954   24.9059 O   0  0  0  0  0  0  0  0  0  0  0  0
   12.9831  -18.5501   25.6385 O   0  0  0  0  0  0  0  0  0  0  0  0
  2  3  1  0
  2  1  1  6
  4  3  1  0
  5  4  2  0
  6  5  1  0
  6  7  1  0
  7  8  2  0
  8  4  1  0
  9  2  1  0
 10  9  2  0
 11 12  1  0
 13 12  1  1
 13 14  1  0
 14  9  1  0
 15 13  1  0
 15 22  1  0
 16 15  2  0
 17 18  1  0
 18 19  2  0
 21 20  1  1
 20 18  1  0
 21 22  1  0
 21 23  1  0
 23 25  1  0
 24 23  2  0
M  END
$$$$
