HSN.pdb
     RDKit          3D

 25 25  0  0  1  0  0  0  0  0999 V2000
   11.1046  -14.7806   15.6952 N   0  0  0  0  0  0  0  0  0  0  0  0
   11.4655  -16.1427   15.9878 C   0  0  1  0  0  0  0  0  0  0  0  0
   12.6367  -16.5002   15.1030 C   0  0  0  0  0  0  0  0  0  0  0  0
   12.2119  -16.6493   13.6869 C   0  0  0  0  0  0  0  0  0  0  0  0
   11.5068  -15.7901   12.8913 C   0  0  0  0  0  0  0  0  0  0  0  0
   11.3715  -16.3764   11.6822 N   0  0  0  0  0  0  0  0  0  0  0  0
   11.9725  -17.5815   11.6953 C   0  0  0  0  0  0  0  0  0  0  0  0
   12.4850  -17.7419   12.9259 N   0  0  0  0  0  0  0  0  0  0  0  0
   11.8278  -16.2785   17.4311 C   0  0  0  0  0  0  0  0  0  0  0  0
   12.5003  -15.3799   18.0237 O   0  0  0  0  0  0  0  0  0  0  0  0
    9.9062  -18.0527   20.5703 O   0  0  0  0  0  0  0  0  0  0  0  0
   11.1335  -18.6521   20.3183 C   0  0  0  0  0  0  0  0  0  0  0  0
   11.9599  -17.6572   19.5330 C   0  0  2  0  0  0  0  0  0  0  0  0
   11.4549  -17.3960   18.2241 N   0  0  0  0  0  0  0  0  0  0  0  0
   13.4043  -18.0038   19.5419 C   0  0  0  0  0  0  0  0  0  0  0  0
   13.9704  -18.2747   18.4439 O   0  0  0  0  0  0  0  0  0  0  0  0
   18.4133  -18.4439   20.3942 N   0  0  0  0  0  0  0  0  0  0  0  0
   17.7533  -17.3420   19.8005 C   0  0  0  0  0  0  0  0  0  0  0  0
   18.4510  -16.4884   19.1737 O   0  0  0  0  0  0  0  0  0  0  0  0
   16.2913  -17.1933   19.9065 C   0  0  0  0  0  0  0  0  0  0  0  0
   15.6410  -18.3074   20.6942 C   0  0  2  0  0  0  0  0  0  0  0  0
   14.1884  -18.0491   20.7075 N   0  0  0  0  0  0  0  0  0  0  0  0
   16.1375  -18.3894   22.0837 C   0  0  0  0  0  0  0  0  0  0  0  0
   15.5408  -17.8009   22.9991 O   0  0  0  0  0  0  0  0  0  0  0  0
   17.2726  -19.1183   22.4005 O   0  0  0  0  0  0  0  0  0  0  0  0
  2  3  1  0
  2  1  1  1
  4  3  1  0
  5  4  2  0
  6  5  1  0
  6  7  1  0
  7  8  2  0
  8  4  1  0
  9  2  1  0
 10  9  2  0
 11 12  1  0
 13 12  1  6
 13 14  1  0
 14  9  1  0
 15 13  1  0
 15 22  1  0
 16 15  2  0
 17 18  1  0
 18 19  2  0
 21 20  1  6
 20 18  1  0
 21 22  1  0
 21 23  1  0
 23 25  1  0
 24 23  2  0
M  END
$$$$
