HSN.pdb
     RDKit          3D

 25 25  0  0  1  0  0  0  0  0999 V2000
   10.1393  -15.9477   17.8039 N   0  0  0  0  0  0  0  0  0  0  0  0
   11.0285  -14.9074   18.2493 C   0  0  1  0  0  0  0  0  0  0  0  0
   10.3873  -14.2468   19.4472 C   0  0  0  0  0  0  0  0  0  0  0  0
    9.1034  -13.5969   19.0768 C   0  0  0  0  0  0  0  0  0  0  0  0
    8.5267  -13.4395   17.8476 C   0  0  0  0  0  0  0  0  0  0  0  0
    7.3600  -12.7837   18.0286 N   0  0  0  0  0  0  0  0  0  0  0  0
    7.1869  -12.5240   19.3386 C   0  0  0  0  0  0  0  0  0  0  0  0
    8.2581  -13.0249   19.9745 N   0  0  0  0  0  0  0  0  0  0  0  0
   12.3574  -15.4881   18.6095 C   0  0  0  0  0  0  0  0  0  0  0  0
   12.4471  -16.6421   19.1301 O   0  0  0  0  0  0  0  0  0  0  0  0
   16.0325  -13.7281   17.4908 O   0  0  0  0  0  0  0  0  0  0  0  0
   15.9017  -15.1050   17.6171 C   0  0  0  0  0  0  0  0  0  0  0  0
   14.8696  -15.3553   18.6949 C   0  0  2  0  0  0  0  0  0  0  0  0
   13.5856  -14.8067   18.4004 N   0  0  0  0  0  0  0  0  0  0  0  0
   15.3692  -14.9784   20.0421 C   0  0  0  0  0  0  0  0  0  0  0  0
   15.2608  -13.7747   20.4150 O   0  0  0  0  0  0  0  0  0  0  0  0
   13.8030  -15.2337   23.1966 N   0  0  0  0  0  0  0  0  0  0  0  0
   14.5272  -16.3670   23.6364 C   0  0  0  0  0  0  0  0  0  0  0  0
   13.9330  -17.2143   24.3694 O   0  0  0  0  0  0  0  0  0  0  0  0
   15.9358  -16.5577   23.2489 C   0  0  0  0  0  0  0  0  0  0  0  0
   16.4293  -15.5051   22.2829 C   0  0  2  0  0  0  0  0  0  0  0  0
   15.9607  -15.8866   20.9369 N   0  0  0  0  0  0  0  0  0  0  0  0
   17.9022  -15.3843   22.2737 C   0  0  0  0  0  0  0  0  0  0  0  0
   18.5570  -15.7666   21.2912 O   0  0  0  0  0  0  0  0  0  0  0  0
   18.5869  -14.8463   23.3516 O   0  0  0  0  0  0  0  0  0  0  0  0
  2  3  1  0
  2  1  1  1
  4  3  1  0
  5  4  2  0
  6  5  1  0
  6  7  1  0
  7  8  2  0
  8  4  1  0
  9  2  1  0
 10  9  2  0
 11 12  1  0
 13 12  1  6
 13 14  1  0
 14  9  1  0
 15 13  1  0
 15 22  1  0
 16 15  2  0
 17 18  1  0
 18 19  2  0
 21 20  1  1
 20 18  1  0
 21 22  1  0
 21 23  1  0
 23 25  1  0
 24 23  2  0
M  END
$$$$
