HSN.pdb
     RDKit          3D

 25 25  0  0  1  0  0  0  0  0999 V2000
    6.0785  -19.6611   21.0792 N   0  0  0  0  0  0  0  0  0  0  0  0
    5.5664  -18.7298   22.0496 C   0  0  1  0  0  0  0  0  0  0  0  0
    4.4016  -19.3954   22.7443 C   0  0  0  0  0  0  0  0  0  0  0  0
    3.2053  -19.4361   21.8638 C   0  0  0  0  0  0  0  0  0  0  0  0
    3.0578  -19.0184   20.5707 C   0  0  0  0  0  0  0  0  0  0  0  0
    1.7811  -19.2679   20.2077 N   0  0  0  0  0  0  0  0  0  0  0  0
    1.1210  -19.8313   21.2375 C   0  0  0  0  0  0  0  0  0  0  0  0
    1.9992  -19.9314   22.2481 N   0  0  0  0  0  0  0  0  0  0  0  0
    6.6357  -18.3702   23.0294 C   0  0  0  0  0  0  0  0  0  0  0  0
    7.6290  -19.1360   23.2233 O   0  0  0  0  0  0  0  0  0  0  0  0
    6.1919  -15.2934   25.8489 O   0  0  0  0  0  0  0  0  0  0  0  0
    7.4654  -15.4282   25.3115 C   0  0  0  0  0  0  0  0  0  0  0  0
    7.5812  -16.8459   24.7954 C   0  0  2  0  0  0  0  0  0  0  0  0
    6.6175  -17.1747   23.7956 N   0  0  0  0  0  0  0  0  0  0  0  0
    7.6361  -17.8374   25.9002 C   0  0  0  0  0  0  0  0  0  0  0  0
    6.5989  -18.5116   26.1631 O   0  0  0  0  0  0  0  0  0  0  0  0
    6.6962  -20.6123   28.6897 N   0  0  0  0  0  0  0  0  0  0  0  0
    7.4565  -21.1711   27.6352 C   0  0  0  0  0  0  0  0  0  0  0  0
    7.1225  -22.3108   27.1902 O   0  0  0  0  0  0  0  0  0  0  0  0
    8.6055  -20.4443   27.0677 C   0  0  0  0  0  0  0  0  0  0  0  0
    8.8434  -19.1073   27.7312 C   0  0  2  0  0  0  0  0  0  0  0  0
    8.7818  -18.0749   26.6789 N   0  0  0  0  0  0  0  0  0  0  0  0
   10.1517  -19.0338   28.4145 C   0  0  0  0  0  0  0  0  0  0  0  0
   11.1671  -18.6874   27.7906 O   0  0  0  0  0  0  0  0  0  0  0  0
   10.2804  -19.3470   29.7582 O   0  0  0  0  0  0  0  0  0  0  0  0
  2  3  1  0
  2  1  1  6
  4  3  1  0
  5  4  2  0
  6  5  1  0
  6  7  1  0
  7  8  2  0
  8  4  1  0
  9  2  1  0
 10  9  2  0
 11 12  1  0
 13 12  1  1
 13 14  1  0
 14  9  1  0
 15 13  1  0
 15 22  1  0
 16 15  2  0
 17 18  1  0
 18 19  2  0
 21 20  1  6
 20 18  1  0
 21 22  1  0
 21 23  1  0
 23 25  1  0
 24 23  2  0
M  END
$$$$
