HSN.pdb
     RDKit          3D

 25 25  0  0  1  0  0  0  0  0999 V2000
    9.6668  -17.7126   19.2775 N   0  0  0  0  0  0  0  0  0  0  0  0
    8.5976  -16.8552   19.7171 C   0  0  1  0  0  0  0  0  0  0  0  0
    7.4102  -17.7362   20.0275 C   0  0  0  0  0  0  0  0  0  0  0  0
    6.9191  -18.4232   18.8049 C   0  0  0  0  0  0  0  0  0  0  0  0
    7.5852  -19.2400   17.9346 C   0  0  0  0  0  0  0  0  0  0  0  0
    6.7071  -19.6170   16.9802 N   0  0  0  0  0  0  0  0  0  0  0  0
    5.5063  -19.0594   17.2263 C   0  0  0  0  0  0  0  0  0  0  0  0
    5.6434  -18.3299   18.3451 N   0  0  0  0  0  0  0  0  0  0  0  0
    9.0210  -16.0867   20.9266 C   0  0  0  0  0  0  0  0  0  0  0  0
    8.2214  -15.2913   21.5087 O   0  0  0  0  0  0  0  0  0  0  0  0
    9.8243  -15.9410   25.0813 O   0  0  0  0  0  0  0  0  0  0  0  0
    9.4383  -16.2980   23.7958 C   0  0  0  0  0  0  0  0  0  0  0  0
   10.6040  -15.9905   22.8814 C   0  0  2  0  0  0  0  0  0  0  0  0
   10.3173  -16.1883   21.4975 N   0  0  0  0  0  0  0  0  0  0  0  0
   11.8502  -16.6689   23.3211 C   0  0  0  0  0  0  0  0  0  0  0  0
   11.8528  -17.9298   23.4193 O   0  0  0  0  0  0  0  0  0  0  0  0
   15.2876  -14.4078   21.4782 N   0  0  0  0  0  0  0  0  0  0  0  0
   15.3789  -15.7010   22.0453 C   0  0  0  0  0  0  0  0  0  0  0  0
   15.4092  -16.7001   21.2649 O   0  0  0  0  0  0  0  0  0  0  0  0
   15.4401  -15.8800   23.5064 C   0  0  0  0  0  0  0  0  0  0  0  0
   14.2767  -16.6756   24.0522 C   0  0  2  0  0  0  0  0  0  0  0  0
   13.0387  -15.9885   23.6374 N   0  0  0  0  0  0  0  0  0  0  0  0
   14.3043  -16.7901   25.5253 C   0  0  0  0  0  0  0  0  0  0  0  0
   15.2753  -17.3112   26.0961 O   0  0  0  0  0  0  0  0  0  0  0  0
   13.2567  -16.3237   26.3032 O   0  0  0  0  0  0  0  0  0  0  0  0
  2  3  1  0
  2  1  1  1
  4  3  1  0
  5  4  2  0
  6  5  1  0
  6  7  1  0
  7  8  2  0
  8  4  1  0
  9  2  1  0
 10  9  2  0
 11 12  1  0
 13 12  1  1
 13 14  1  0
 14  9  1  0
 15 13  1  0
 15 22  1  0
 16 15  2  0
 17 18  1  0
 18 19  2  0
 21 20  1  1
 20 18  1  0
 21 22  1  0
 21 23  1  0
 23 25  1  0
 24 23  2  0
M  END
$$$$
