HSN.pdb
     RDKit          3D

 25 25  0  0  1  0  0  0  0  0999 V2000
    9.0234  -18.9612   18.6132 N   0  0  0  0  0  0  0  0  0  0  0  0
    8.5968  -19.7144   19.7630 C   0  0  1  0  0  0  0  0  0  0  0  0
    9.8287  -20.3343   20.3799 C   0  0  0  0  0  0  0  0  0  0  0  0
   10.5400  -21.1982   19.4024 C   0  0  0  0  0  0  0  0  0  0  0  0
   10.2286  -21.4870   18.1032 C   0  0  0  0  0  0  0  0  0  0  0  0
   11.1824  -22.3200   17.6337 N   0  0  0  0  0  0  0  0  0  0  0  0
   12.0858  -22.5632   18.6023 C   0  0  0  0  0  0  0  0  0  0  0  0
   11.6862  -21.8730   19.6825 N   0  0  0  0  0  0  0  0  0  0  0  0
    7.9080  -18.8156   20.7380 C   0  0  0  0  0  0  0  0  0  0  0  0
    7.7507  -17.5807   20.4905 O   0  0  0  0  0  0  0  0  0  0  0  0
    4.5594  -18.9021   21.9283 O   0  0  0  0  0  0  0  0  0  0  0  0
    5.3992  -17.8498   22.2692 C   0  0  0  0  0  0  0  0  0  0  0  0
    6.6421  -18.4557   22.8837 C   0  0  2  0  0  0  0  0  0  0  0  0
    7.3927  -19.2676   21.9817 N   0  0  0  0  0  0  0  0  0  0  0  0
    6.3516  -19.1329   24.1735 C   0  0  0  0  0  0  0  0  0  0  0  0
    5.8227  -20.2815   24.1505 O   0  0  0  0  0  0  0  0  0  0  0  0
    7.4004  -22.3508   27.8094 N   0  0  0  0  0  0  0  0  0  0  0  0
    6.9209  -21.7452   26.6239 C   0  0  0  0  0  0  0  0  0  0  0  0
    5.8192  -22.1503   26.1436 O   0  0  0  0  0  0  0  0  0  0  0  0
    7.6825  -20.6687   25.9667 C   0  0  0  0  0  0  0  0  0  0  0  0
    7.3430  -19.2959   26.5001 C   0  0  2  0  0  0  0  0  0  0  0  0
    6.6317  -18.5701   25.4306 N   0  0  0  0  0  0  0  0  0  0  0  0
    8.5398  -18.5277   26.9022 C   0  0  0  0  0  0  0  0  0  0  0  0
    9.1397  -17.8225   26.0759 O   0  0  0  0  0  0  0  0  0  0  0  0
    9.0213  -18.5732   28.2008 O   0  0  0  0  0  0  0  0  0  0  0  0
  2  3  1  0
  2  1  1  6
  4  3  1  0
  5  4  2  0
  6  5  1  0
  6  7  1  0
  7  8  2  0
  8  4  1  0
  9  2  1  0
 10  9  2  0
 11 12  1  0
 13 12  1  6
 13 14  1  0
 14  9  1  0
 15 13  1  0
 15 22  1  0
 16 15  2  0
 17 18  1  0
 18 19  2  0
 21 20  1  6
 20 18  1  0
 21 22  1  0
 21 23  1  0
 23 25  1  0
 24 23  2  0
M  END
$$$$
