HSN.pdb
     RDKit          3D

 25 25  0  0  1  0  0  0  0  0999 V2000
   13.3560  -17.2349   19.0127 N   0  0  0  0  0  0  0  0  0  0  0  0
   13.1229  -17.7954   20.3176 C   0  0  1  0  0  0  0  0  0  0  0  0
   14.4711  -18.0134   20.9635 C   0  0  0  0  0  0  0  0  0  0  0  0
   15.1034  -19.2655   20.4734 C   0  0  0  0  0  0  0  0  0  0  0  0
   14.5333  -20.3601   19.8860 C   0  0  0  0  0  0  0  0  0  0  0  0
   15.5238  -21.2386   19.6192 N   0  0  0  0  0  0  0  0  0  0  0  0
   16.7020  -20.7264   20.0230 C   0  0  0  0  0  0  0  0  0  0  0  0
   16.4371  -19.5181   20.5449 N   0  0  0  0  0  0  0  0  0  0  0  0
   12.2859  -16.8645   21.1335 C   0  0  0  0  0  0  0  0  0  0  0  0
   12.4041  -15.6062   21.0163 O   0  0  0  0  0  0  0  0  0  0  0  0
    8.6932  -17.8881   23.0205 O   0  0  0  0  0  0  0  0  0  0  0  0
    9.0340  -16.5954   22.6439 C   0  0  0  0  0  0  0  0  0  0  0  0
   10.5211  -16.4429   22.8781 C   0  0  2  0  0  0  0  0  0  0  0  0
   11.3217  -17.3101   22.0760 N   0  0  0  0  0  0  0  0  0  0  0  0
   10.8658  -16.5010   24.3218 C   0  0  0  0  0  0  0  0  0  0  0  0
   11.5116  -17.4997   24.7521 O   0  0  0  0  0  0  0  0  0  0  0  0
   10.0868  -13.2851   29.6092 N   0  0  0  0  0  0  0  0  0  0  0  0
   10.6310  -14.3050   28.7931 C   0  0  0  0  0  0  0  0  0  0  0  0
   11.3362  -15.2043   29.3430 O   0  0  0  0  0  0  0  0  0  0  0  0
   10.3810  -14.3218   27.3413 C   0  0  0  0  0  0  0  0  0  0  0  0
   10.6903  -15.6575   26.7052 C   0  0  2  0  0  0  0  0  0  0  0  0
   10.5151  -15.5039   25.2483 N   0  0  0  0  0  0  0  0  0  0  0  0
    9.8107  -16.7399   27.1937 C   0  0  0  0  0  0  0  0  0  0  0  0
    8.6392  -16.8255   26.7933 O   0  0  0  0  0  0  0  0  0  0  0  0
   10.2648  -17.6806   28.1043 O   0  0  0  0  0  0  0  0  0  0  0  0
  2  3  1  0
  2  1  1  6
  4  3  1  0
  5  4  2  0
  6  5  1  0
  6  7  1  0
  7  8  2  0
  8  4  1  0
  9  2  1  0
 10  9  2  0
 11 12  1  0
 13 12  1  1
 13 14  1  0
 14  9  1  0
 15 13  1  0
 15 22  1  0
 16 15  2  0
 17 18  1  0
 18 19  2  0
 21 20  1  1
 20 18  1  0
 21 22  1  0
 21 23  1  0
 23 25  1  0
 24 23  2  0
M  END
$$$$
