DNC.pdb
     RDKit          3D

 23 22  0  0  1  0  0  0  0  0999 V2000
   13.0596  -17.2416   15.5833 N   0  0  0  0  0  0  0  0  0  0  0  0
   11.7423  -17.2684   16.2537 C   0  0  1  0  0  0  0  0  0  0  0  0
   10.8219  -18.0942   15.4104 C   0  0  0  0  0  0  0  0  0  0  0  0
   10.5624  -17.5310   14.0867 C   0  0  0  0  0  0  0  0  0  0  0  0
   11.1119  -16.5314   13.6150 O   0  0  0  0  0  0  0  0  0  0  0  0
   11.9256  -17.8157   17.6223 C   0  0  0  0  0  0  0  0  0  0  0  0
   11.0326  -18.4776   18.1729 O   0  0  0  0  0  0  0  0  0  0  0  0
    9.6143  -18.1594   13.2613 O   0  0  0  0  0  0  0  0  0  0  0  0
   15.9997  -20.1484   18.4294 N   0  0  0  0  0  0  0  0  0  0  0  0
   14.8125  -19.9697   19.2116 C   0  0  0  0  0  0  0  0  0  0  0  0
   13.9759  -20.9065   19.2270 O   0  0  0  0  0  0  0  0  0  0  0  0
   14.5736  -18.7346   19.9739 C   0  0  0  0  0  0  0  0  0  0  0  0
   13.2388  -18.1007   19.7356 C   0  0  2  0  0  0  0  0  0  0  0  0
   13.1337  -17.6023   18.3584 N   0  0  0  0  0  0  0  0  0  0  0  0
   12.9083  -17.0260   20.6981 C   0  0  0  0  0  0  0  0  0  0  0  0
   13.4250  -15.8979   20.6391 O   0  0  0  0  0  0  0  0  0  0  0  0
   11.9489  -17.2809   21.7539 N   0  0  0  0  0  0  0  0  0  0  0  0
   11.5653  -16.3397   22.7458 C   0  0  1  0  0  0  0  0  0  0  0  0
   10.1348  -16.4864   23.2100 C   0  0  0  0  0  0  0  0  0  0  0  0
    9.0499  -16.2063   21.7643 S   0  0  0  0  0  0  0  0  0  0  0  0
   12.4179  -16.5189   23.9447 C   0  0  0  0  0  0  0  0  0  0  0  0
   12.3749  -15.5606   24.9410 O   0  0  0  0  0  0  0  0  0  0  0  0
   13.1782  -17.5025   24.0964 O   0  0  0  0  0  0  0  0  0  0  0  0
  2  1  1  6
  3  2  1  0
  3  4  1  0
  4  5  2  0
  6  7  2  0
  6  2  1  0
  8  4  1  0
  9 10  1  0
 10 11  2  0
 10 12  1  0
 13 12  1  1
 13 15  1  0
 13 14  1  0
 14  6  1  0
 15 17  1  0
 16 15  2  0
 17 18  1  0
 18 21  1  0
 19 20  1  0
 18 19  1  1
 21 23  2  0
 21 22  1  0
M  END
$$$$
