DNC.pdb
     RDKit          3D

 23 22  0  0  1  0  0  0  0  0999 V2000
    8.6837  -15.6814   19.8410 N   0  0  0  0  0  0  0  0  0  0  0  0
    8.5378  -14.4074   20.5763 C   0  0  1  0  0  0  0  0  0  0  0  0
    7.4482  -13.6241   19.9132 C   0  0  0  0  0  0  0  0  0  0  0  0
    7.6432  -13.4323   18.4773 C   0  0  0  0  0  0  0  0  0  0  0  0
    8.5932  -13.8680   17.8204 O   0  0  0  0  0  0  0  0  0  0  0  0
    8.2467  -14.7197   21.9990 C   0  0  0  0  0  0  0  0  0  0  0  0
    7.9639  -13.8224   22.8074 O   0  0  0  0  0  0  0  0  0  0  0  0
    6.6853  -12.6956   17.7598 O   0  0  0  0  0  0  0  0  0  0  0  0
    7.1494  -17.0259   26.5243 N   0  0  0  0  0  0  0  0  0  0  0  0
    7.2431  -18.0431   25.5195 C   0  0  0  0  0  0  0  0  0  0  0  0
    6.8467  -19.1972   25.8171 O   0  0  0  0  0  0  0  0  0  0  0  0
    7.7835  -17.7544   24.1822 C   0  0  0  0  0  0  0  0  0  0  0  0
    8.0817  -16.3100   23.9264 C   0  0  2  0  0  0  0  0  0  0  0  0
    8.2811  -16.0619   22.4930 N   0  0  0  0  0  0  0  0  0  0  0  0
    9.2301  -15.7914   24.7029 C   0  0  0  0  0  0  0  0  0  0  0  0
   10.3015  -15.4628   24.1671 O   0  0  0  0  0  0  0  0  0  0  0  0
    9.1182  -15.6548   26.1412 N   0  0  0  0  0  0  0  0  0  0  0  0
   10.0933  -15.0478   26.9766 C   0  0  1  0  0  0  0  0  0  0  0  0
    9.8807  -13.5675   27.1920 C   0  0  0  0  0  0  0  0  0  0  0  0
    8.1444  -13.3255   27.7138 S   0  0  0  0  0  0  0  0  0  0  0  0
   10.0496  -15.6793   28.3166 C   0  0  0  0  0  0  0  0  0  0  0  0
   10.9840  -15.2984   29.2624 O   0  0  0  0  0  0  0  0  0  0  0  0
    9.2017  -16.5455   28.6317 O   0  0  0  0  0  0  0  0  0  0  0  0
  2  1  1  6
  3  2  1  0
  3  4  1  0
  4  5  2  0
  6  7  2  0
  6  2  1  0
  8  4  1  0
  9 10  1  0
 10 11  2  0
 10 12  1  0
 13 12  1  6
 13 15  1  0
 13 14  1  0
 14  6  1  0
 15 17  1  0
 16 15  2  0
 17 18  1  0
 18 21  1  0
 19 20  1  0
 18 19  1  1
 21 23  2  0
 21 22  1  0
M  END
$$$$
