DNC.pdb
     RDKit          3D

 23 22  0  0  1  0  0  0  0  0999 V2000
    9.3646  -15.0639   19.1043 N   0  0  0  0  0  0  0  0  0  0  0  0
    8.6584  -13.8578   19.5856 C   0  0  1  0  0  0  0  0  0  0  0  0
    7.6108  -13.5126   18.5740 C   0  0  0  0  0  0  0  0  0  0  0  0
    8.0617  -13.6271   17.1882 C   0  0  0  0  0  0  0  0  0  0  0  0
    8.8530  -14.4730   16.7617 O   0  0  0  0  0  0  0  0  0  0  0  0
    8.0960  -14.1505   20.9289 C   0  0  0  0  0  0  0  0  0  0  0  0
    7.3873  -13.3227   21.5215 O   0  0  0  0  0  0  0  0  0  0  0  0
    7.5695  -12.7122   16.2418 O   0  0  0  0  0  0  0  0  0  0  0  0
    9.8446  -18.2473   22.3128 N   0  0  0  0  0  0  0  0  0  0  0  0
    9.1371  -17.6635   23.4136 C   0  0  0  0  0  0  0  0  0  0  0  0
    9.7071  -17.6482   24.5328 O   0  0  0  0  0  0  0  0  0  0  0  0
    7.7889  -17.0990   23.2477 C   0  0  0  0  0  0  0  0  0  0  0  0
    7.7584  -15.6403   22.9133 C   0  0  2  0  0  0  0  0  0  0  0  0
    8.3481  -15.3932   21.5915 N   0  0  0  0  0  0  0  0  0  0  0  0
    8.4018  -14.7811   23.9324 C   0  0  0  0  0  0  0  0  0  0  0  0
    9.6241  -14.5596   23.9403 O   0  0  0  0  0  0  0  0  0  0  0  0
    7.5920  -14.1672   24.9655 N   0  0  0  0  0  0  0  0  0  0  0  0
    8.0868  -13.3005   25.9760 C   0  0  1  0  0  0  0  0  0  0  0  0
    7.1464  -12.1724   26.3309 C   0  0  0  0  0  0  0  0  0  0  0  0
    5.5445  -12.9140   26.8100 S   0  0  0  0  0  0  0  0  0  0  0  0
    8.3041  -14.0754   27.2205 C   0  0  0  0  0  0  0  0  0  0  0  0
    7.8727  -15.3885   27.2706 O   0  0  0  0  0  0  0  0  0  0  0  0
    8.8626  -13.5927   28.2321 O   0  0  0  0  0  0  0  0  0  0  0  0
  2  1  1  6
  3  2  1  0
  3  4  1  0
  4  5  2  0
  6  7  2  0
  6  2  1  0
  8  4  1  0
  9 10  1  0
 10 11  2  0
 10 12  1  0
 13 12  1  1
 13 15  1  0
 13 14  1  0
 14  6  1  0
 15 17  1  0
 16 15  2  0
 17 18  1  0
 18 21  1  0
 19 20  1  0
 18 19  1  1
 21 23  2  0
 21 22  1  0
M  END
$$$$
