DNC.pdb
     RDKit          3D

 23 22  0  0  1  0  0  0  0  0999 V2000
    9.2017  -14.2135   16.8412 N   0  0  0  0  0  0  0  0  0  0  0  0
    8.5394  -15.4956   16.5206 C   0  0  1  0  0  0  0  0  0  0  0  0
    9.1008  -15.9828   15.2215 C   0  0  0  0  0  0  0  0  0  0  0  0
    8.6262  -15.2427   14.0537 C   0  0  0  0  0  0  0  0  0  0  0  0
    9.0664  -14.1555   13.6692 O   0  0  0  0  0  0  0  0  0  0  0  0
    8.7743  -16.4369   17.6454 C   0  0  0  0  0  0  0  0  0  0  0  0
    8.7414  -17.6646   17.4714 O   0  0  0  0  0  0  0  0  0  0  0  0
    7.5839  -15.7908   13.2867 O   0  0  0  0  0  0  0  0  0  0  0  0
   13.4209  -14.0522   19.2395 N   0  0  0  0  0  0  0  0  0  0  0  0
   12.7314  -15.1967   18.7219 C   0  0  0  0  0  0  0  0  0  0  0  0
   13.4010  -16.2395   18.5171 O   0  0  0  0  0  0  0  0  0  0  0  0
   11.2887  -15.1605   18.4372 C   0  0  0  0  0  0  0  0  0  0  0  0
   10.4361  -15.8810   19.4344 C   0  0  2  0  0  0  0  0  0  0  0  0
    9.0460  -15.9682   18.9695 N   0  0  0  0  0  0  0  0  0  0  0  0
   10.4880  -15.2994   20.7945 C   0  0  0  0  0  0  0  0  0  0  0  0
   11.5524  -15.1659   21.4209 O   0  0  0  0  0  0  0  0  0  0  0  0
    9.2626  -14.8639   21.4339 N   0  0  0  0  0  0  0  0  0  0  0  0
    9.1044  -14.6610   22.8306 C   0  0  1  0  0  0  0  0  0  0  0  0
    7.7843  -14.0335   23.2135 C   0  0  0  0  0  0  0  0  0  0  0  0
    7.6523  -12.4356   22.3332 S   0  0  0  0  0  0  0  0  0  0  0  0
    9.1661  -15.9692   23.5241 C   0  0  0  0  0  0  0  0  0  0  0  0
    9.1865  -15.9889   24.9069 O   0  0  0  0  0  0  0  0  0  0  0  0
    9.2009  -17.0613   22.9121 O   0  0  0  0  0  0  0  0  0  0  0  0
  2  1  1  1
  3  2  1  0
  3  4  1  0
  4  5  2  0
  6  7  2  0
  6  2  1  0
  8  4  1  0
  9 10  1  0
 10 11  2  0
 10 12  1  0
 13 12  1  6
 13 15  1  0
 13 14  1  0
 14  6  1  0
 15 17  1  0
 16 15  2  0
 17 18  1  0
 18 21  1  0
 19 20  1  0
 18 19  1  6
 21 23  2  0
 21 22  1  0
M  END
$$$$
