DNC.pdb
     RDKit          3D

 23 22  0  0  1  0  0  0  0  0999 V2000
   13.6435  -17.3930   17.4787 N   0  0  0  0  0  0  0  0  0  0  0  0
   12.2637  -17.8442   17.7576 C   0  0  1  0  0  0  0  0  0  0  0  0
   12.0235  -19.0869   16.9587 C   0  0  0  0  0  0  0  0  0  0  0  0
   12.1805  -18.9064   15.5167 C   0  0  0  0  0  0  0  0  0  0  0  0
   13.1028  -18.2955   14.9690 O   0  0  0  0  0  0  0  0  0  0  0  0
   12.1289  -18.0583   19.2213 C   0  0  0  0  0  0  0  0  0  0  0  0
   11.0722  -18.4836   19.7123 O   0  0  0  0  0  0  0  0  0  0  0  0
   11.2169  -19.4641   14.6591 O   0  0  0  0  0  0  0  0  0  0  0  0
   16.5300  -17.9818   21.2116 N   0  0  0  0  0  0  0  0  0  0  0  0
   15.4623  -17.8564   22.1589 C   0  0  0  0  0  0  0  0  0  0  0  0
   15.5683  -16.9735   23.0460 O   0  0  0  0  0  0  0  0  0  0  0  0
   14.2784  -18.7277   22.1018 C   0  0  0  0  0  0  0  0  0  0  0  0
   13.0486  -18.0767   21.5505 C   0  0  2  0  0  0  0  0  0  0  0  0
   13.2071  -17.7833   20.1205 N   0  0  0  0  0  0  0  0  0  0  0  0
   12.6393  -16.8577   22.2833 C   0  0  0  0  0  0  0  0  0  0  0  0
   13.2471  -15.7798   22.1738 O   0  0  0  0  0  0  0  0  0  0  0  0
   11.4898  -16.9045   23.1646 N   0  0  0  0  0  0  0  0  0  0  0  0
   11.0445  -15.8264   23.9748 C   0  0  1  0  0  0  0  0  0  0  0  0
    9.7661  -15.1825   23.4906 C   0  0  0  0  0  0  0  0  0  0  0  0
    8.4859  -16.4859   23.4033 S   0  0  0  0  0  0  0  0  0  0  0  0
   10.7733  -16.3241   25.3441 C   0  0  0  0  0  0  0  0  0  0  0  0
   10.6218  -15.4065   26.3678 O   0  0  0  0  0  0  0  0  0  0  0  0
   10.6751  -17.5425   25.6166 O   0  0  0  0  0  0  0  0  0  0  0  0
  2  1  1  1
  3  2  1  0
  3  4  1  0
  4  5  2  0
  6  7  2  0
  6  2  1  0
  8  4  1  0
  9 10  1  0
 10 11  2  0
 10 12  1  0
 13 12  1  1
 13 15  1  0
 13 14  1  0
 14  6  1  0
 15 17  1  0
 16 15  2  0
 17 18  1  0
 18 21  1  0
 19 20  1  0
 18 19  1  6
 21 23  2  0
 21 22  1  0
M  END
$$$$
