DNC.pdb
     RDKit          3D

 23 22  0  0  1  0  0  0  0  0999 V2000
   11.2224  -18.5542   18.0203 N   0  0  0  0  0  0  0  0  0  0  0  0
   12.2184  -17.4753   17.8504 C   0  0  1  0  0  0  0  0  0  0  0  0
   12.7268  -17.5456   16.4445 C   0  0  0  0  0  0  0  0  0  0  0  0
   12.9588  -18.9063   15.9635 C   0  0  0  0  0  0  0  0  0  0  0  0
   12.5887  -19.9380   16.5313 O   0  0  0  0  0  0  0  0  0  0  0  0
   11.5635  -16.1805   18.1682 C   0  0  0  0  0  0  0  0  0  0  0  0
   12.2339  -15.1644   18.4064 O   0  0  0  0  0  0  0  0  0  0  0  0
   13.6579  -19.0845   14.7574 O   0  0  0  0  0  0  0  0  0  0  0  0
    6.7438  -13.0608   19.1461 N   0  0  0  0  0  0  0  0  0  0  0  0
    7.5111  -13.3486   17.9707 C   0  0  0  0  0  0  0  0  0  0  0  0
    7.5867  -12.4572   17.0890 O   0  0  0  0  0  0  0  0  0  0  0  0
    8.1907  -14.6412   17.7944 C   0  0  0  0  0  0  0  0  0  0  0  0
    9.5383  -14.7326   18.4395 C   0  0  2  0  0  0  0  0  0  0  0  0
   10.1392  -16.0531   18.2131 N   0  0  0  0  0  0  0  0  0  0  0  0
    9.5310  -14.4117   19.8843 C   0  0  0  0  0  0  0  0  0  0  0  0
    9.0381  -13.3623   20.3304 O   0  0  0  0  0  0  0  0  0  0  0  0
   10.1152  -15.3441   20.8275 N   0  0  0  0  0  0  0  0  0  0  0  0
   10.1796  -15.1436   22.2320 C   0  0  1  0  0  0  0  0  0  0  0  0
    8.8713  -15.3886   22.9472 C   0  0  0  0  0  0  0  0  0  0  0  0
    9.1309  -15.0250   24.7208 S   0  0  0  0  0  0  0  0  0  0  0  0
   11.1620  -16.0874   22.8154 C   0  0  0  0  0  0  0  0  0  0  0  0
   11.5625  -15.9048   24.1265 O   0  0  0  0  0  0  0  0  0  0  0  0
   11.6475  -17.0460   22.1720 O   0  0  0  0  0  0  0  0  0  0  0  0
  2  1  1  6
  3  2  1  0
  3  4  1  0
  4  5  2  0
  6  7  2  0
  6  2  1  0
  8  4  1  0
  9 10  1  0
 10 11  2  0
 10 12  1  0
 13 12  1  1
 13 15  1  0
 13 14  1  0
 14  6  1  0
 15 17  1  0
 16 15  2  0
 17 18  1  0
 18 21  1  0
 19 20  1  0
 18 19  1  1
 21 23  2  0
 21 22  1  0
M  END
$$$$
