DNC.pdb
     RDKit          3D

 23 22  0  0  1  0  0  0  0  0999 V2000
    9.8135  -17.6303   19.9638 N   0  0  0  0  0  0  0  0  0  0  0  0
    8.5468  -16.8689   19.9962 C   0  0  1  0  0  0  0  0  0  0  0  0
    7.5451  -17.6214   19.1774 C   0  0  0  0  0  0  0  0  0  0  0  0
    7.8826  -17.7085   17.7578 C   0  0  0  0  0  0  0  0  0  0  0  0
    8.9500  -17.3481   17.2534 O   0  0  0  0  0  0  0  0  0  0  0  0
    8.1353  -16.7068   21.4142 C   0  0  0  0  0  0  0  0  0  0  0  0
    7.0867  -16.1157   21.7138 O   0  0  0  0  0  0  0  0  0  0  0  0
    6.9324  -18.2431   16.8710 O   0  0  0  0  0  0  0  0  0  0  0  0
    7.4101  -19.9804   24.8436 N   0  0  0  0  0  0  0  0  0  0  0  0
    8.6441  -19.3990   24.4050 C   0  0  0  0  0  0  0  0  0  0  0  0
    9.3927  -20.0965   23.6765 O   0  0  0  0  0  0  0  0  0  0  0  0
    9.0288  -18.0323   24.7897 C   0  0  0  0  0  0  0  0  0  0  0  0
    8.5255  -16.9598   23.8749 C   0  0  2  0  0  0  0  0  0  0  0  0
    8.9281  -17.2228   22.4875 N   0  0  0  0  0  0  0  0  0  0  0  0
    8.9297  -15.5941   24.2776 C   0  0  0  0  0  0  0  0  0  0  0  0
   10.0633  -15.1408   24.0483 O   0  0  0  0  0  0  0  0  0  0  0  0
    7.9814  -14.7405   24.9649 N   0  0  0  0  0  0  0  0  0  0  0  0
    8.2829  -13.4606   25.5014 C   0  0  1  0  0  0  0  0  0  0  0  0
    7.0834  -12.5504   25.6277 C   0  0  0  0  0  0  0  0  0  0  0  0
    5.8472  -13.4021   26.6727 S   0  0  0  0  0  0  0  0  0  0  0  0
    8.8357  -13.6213   26.8669 C   0  0  0  0  0  0  0  0  0  0  0  0
    9.4016  -12.5234   27.4892 O   0  0  0  0  0  0  0  0  0  0  0  0
    8.8135  -14.7106   27.4846 O   0  0  0  0  0  0  0  0  0  0  0  0
  2  1  1  1
  3  2  1  0
  3  4  1  0
  4  5  2  0
  6  7  2  0
  6  2  1  0
  8  4  1  0
  9 10  1  0
 10 11  2  0
 10 12  1  0
 13 12  1  1
 13 15  1  0
 13 14  1  0
 14  6  1  0
 15 17  1  0
 16 15  2  0
 17 18  1  0
 18 21  1  0
 19 20  1  0
 18 19  1  1
 21 23  2  0
 21 22  1  0
M  END
$$$$
