DNC.pdb
     RDKit          3D

 23 22  0  0  1  0  0  0  0  0999 V2000
   10.2442  -16.9515   19.4157 N   0  0  0  0  0  0  0  0  0  0  0  0
   10.7799  -17.1676   20.7764 C   0  0  1  0  0  0  0  0  0  0  0  0
   12.0805  -16.4332   20.8730 C   0  0  0  0  0  0  0  0  0  0  0  0
   13.1355  -16.9777   20.0202 C   0  0  0  0  0  0  0  0  0  0  0  0
   13.5995  -18.1189   20.0977 O   0  0  0  0  0  0  0  0  0  0  0  0
    9.7698  -16.6935   21.7569 C   0  0  0  0  0  0  0  0  0  0  0  0
    9.0251  -15.7359   21.4979 O   0  0  0  0  0  0  0  0  0  0  0  0
   13.6848  -16.1565   19.0207 O   0  0  0  0  0  0  0  0  0  0  0  0
    6.7944  -18.3085   26.7964 N   0  0  0  0  0  0  0  0  0  0  0  0
    6.7916  -17.6651   25.5161 C   0  0  0  0  0  0  0  0  0  0  0  0
    5.9195  -16.7861   25.3054 O   0  0  0  0  0  0  0  0  0  0  0  0
    7.7731  -18.0158   24.4781 C   0  0  0  0  0  0  0  0  0  0  0  0
    8.5562  -16.8586   23.9413 C   0  0  2  0  0  0  0  0  0  0  0  0
    9.6158  -17.3185   23.0346 N   0  0  0  0  0  0  0  0  0  0  0  0
    9.1223  -15.9828   24.9916 C   0  0  0  0  0  0  0  0  0  0  0  0
   10.2000  -16.2325   25.5566 O   0  0  0  0  0  0  0  0  0  0  0  0
    8.4073  -14.7860   25.3874 N   0  0  0  0  0  0  0  0  0  0  0  0
    8.7832  -13.9340   26.4597 C   0  0  1  0  0  0  0  0  0  0  0  0
    7.8770  -12.7385   26.6398 C   0  0  0  0  0  0  0  0  0  0  0  0
    6.1649  -13.3594   26.8094 S   0  0  0  0  0  0  0  0  0  0  0  0
    8.7329  -14.6961   27.7296 C   0  0  0  0  0  0  0  0  0  0  0  0
    9.2565  -14.1198   28.8727 O   0  0  0  0  0  0  0  0  0  0  0  0
    8.2360  -15.8426   27.8143 O   0  0  0  0  0  0  0  0  0  0  0  0
  2  1  1  6
  3  2  1  0
  3  4  1  0
  4  5  2  0
  6  7  2  0
  6  2  1  0
  8  4  1  0
  9 10  1  0
 10 11  2  0
 10 12  1  0
 13 12  1  1
 13 15  1  0
 13 14  1  0
 14  6  1  0
 15 17  1  0
 16 15  2  0
 17 18  1  0
 18 21  1  0
 19 20  1  0
 18 19  1  1
 21 23  2  0
 21 22  1  0
M  END
$$$$
