DNC.pdb
     RDKit          3D

 23 22  0  0  1  0  0  0  0  0999 V2000
    8.7158  -16.3064   20.0616 N   0  0  0  0  0  0  0  0  0  0  0  0
    8.3466  -14.9602   20.5481 C   0  0  1  0  0  0  0  0  0  0  0  0
    7.3539  -14.3874   19.5855 C   0  0  0  0  0  0  0  0  0  0  0  0
    7.8350  -14.3166   18.2069 C   0  0  0  0  0  0  0  0  0  0  0  0
    7.2009  -13.8603   17.2512 O   0  0  0  0  0  0  0  0  0  0  0  0
    7.8104  -15.0925   21.9270 C   0  0  0  0  0  0  0  0  0  0  0  0
    7.1102  -14.2011   22.4307 O   0  0  0  0  0  0  0  0  0  0  0  0
    9.1222  -14.8003   17.9169 O   0  0  0  0  0  0  0  0  0  0  0  0
    6.1976  -19.2582   22.5774 N   0  0  0  0  0  0  0  0  0  0  0  0
    5.9871  -18.2392   23.5626 C   0  0  0  0  0  0  0  0  0  0  0  0
    4.8230  -17.7867   23.6961 O   0  0  0  0  0  0  0  0  0  0  0  0
    7.0908  -17.7346   24.3937 C   0  0  0  0  0  0  0  0  0  0  0  0
    7.5194  -16.3348   24.0818 C   0  0  2  0  0  0  0  0  0  0  0  0
    8.0791  -16.2477   22.7271 N   0  0  0  0  0  0  0  0  0  0  0  0
    8.4669  -15.7674   25.0672 C   0  0  0  0  0  0  0  0  0  0  0  0
    9.6797  -16.0360   25.0552 O   0  0  0  0  0  0  0  0  0  0  0  0
    7.9800  -14.8635   26.0899 N   0  0  0  0  0  0  0  0  0  0  0  0
    8.7908  -14.2440   27.0777 C   0  0  1  0  0  0  0  0  0  0  0  0
    8.0523  -13.2478   27.9411 C   0  0  0  0  0  0  0  0  0  0  0  0
    7.2471  -12.0386   26.8298 S   0  0  0  0  0  0  0  0  0  0  0  0
    9.3239  -15.2809   27.9925 C   0  0  0  0  0  0  0  0  0  0  0  0
   10.2312  -14.9059   28.9667 O   0  0  0  0  0  0  0  0  0  0  0  0
    8.9887  -16.4855   27.9225 O   0  0  0  0  0  0  0  0  0  0  0  0
  2  1  1  6
  3  2  1  0
  3  4  1  0
  4  5  2  0
  6  7  2  0
  6  2  1  0
  8  4  1  0
  9 10  1  0
 10 11  2  0
 10 12  1  0
 13 12  1  1
 13 15  1  0
 13 14  1  0
 14  6  1  0
 15 17  1  0
 16 15  2  0
 17 18  1  0
 18 21  1  0
 19 20  1  0
 18 19  1  1
 21 23  2  0
 21 22  1  0
M  END
$$$$
