DNC.pdb
     RDKit          3D

 23 22  0  0  1  0  0  0  0  0999 V2000
    9.2865  -17.7987   20.4701 N   0  0  0  0  0  0  0  0  0  0  0  0
    8.7367  -16.4369   20.3013 C   0  0  1  0  0  0  0  0  0  0  0  0
    7.8644  -16.4484   19.0851 C   0  0  0  0  0  0  0  0  0  0  0  0
    8.5917  -16.6515   17.8335 C   0  0  0  0  0  0  0  0  0  0  0  0
    9.3571  -17.5903   17.5959 O   0  0  0  0  0  0  0  0  0  0  0  0
    8.0028  -16.0725   21.5402 C   0  0  0  0  0  0  0  0  0  0  0  0
    7.2793  -15.0659   21.5842 O   0  0  0  0  0  0  0  0  0  0  0  0
    8.4243  -15.7166   16.7977 O   0  0  0  0  0  0  0  0  0  0  0  0
    7.0159  -20.0456   23.8471 N   0  0  0  0  0  0  0  0  0  0  0  0
    6.3612  -18.7853   24.0371 C   0  0  0  0  0  0  0  0  0  0  0  0
    5.2042  -18.6507   23.5670 O   0  0  0  0  0  0  0  0  0  0  0  0
    7.0143  -17.6813   24.7572 C   0  0  0  0  0  0  0  0  0  0  0  0
    7.3253  -16.4831   23.9159 C   0  0  2  0  0  0  0  0  0  0  0  0
    8.1006  -16.8635   22.7283 N   0  0  0  0  0  0  0  0  0  0  0  0
    8.0121  -15.3987   24.6529 C   0  0  0  0  0  0  0  0  0  0  0  0
    9.2481  -15.3512   24.7675 O   0  0  0  0  0  0  0  0  0  0  0  0
    7.2303  -14.3456   25.2692 N   0  0  0  0  0  0  0  0  0  0  0  0
    7.7678  -13.2853   26.0463 C   0  0  1  0  0  0  0  0  0  0  0  0
    6.8625  -12.0798   26.1486 C   0  0  0  0  0  0  0  0  0  0  0  0
    5.2154  -12.6657   26.6863 S   0  0  0  0  0  0  0  0  0  0  0  0
    7.9941  -13.7611   27.4314 C   0  0  0  0  0  0  0  0  0  0  0  0
    7.5296  -15.0139   27.7888 O   0  0  0  0  0  0  0  0  0  0  0  0
    8.5890  -13.0773   28.2956 O   0  0  0  0  0  0  0  0  0  0  0  0
  2  1  1  1
  3  2  1  0
  3  4  1  0
  4  5  2  0
  6  7  2  0
  6  2  1  0
  8  4  1  0
  9 10  1  0
 10 11  2  0
 10 12  1  0
 13 12  1  1
 13 15  1  0
 13 14  1  0
 14  6  1  0
 15 17  1  0
 16 15  2  0
 17 18  1  0
 18 21  1  0
 19 20  1  0
 18 19  1  1
 21 23  2  0
 21 22  1  0
M  END
$$$$
