DNC.pdb
     RDKit          3D

 23 22  0  0  1  0  0  0  0  0999 V2000
    9.0385  -16.5137   19.9328 N   0  0  0  0  0  0  0  0  0  0  0  0
    8.4046  -15.2166   20.2504 C   0  0  1  0  0  0  0  0  0  0  0  0
    7.3640  -14.9536   19.2072 C   0  0  0  0  0  0  0  0  0  0  0  0
    7.9004  -14.8117   17.8549 C   0  0  0  0  0  0  0  0  0  0  0  0
    8.6662  -15.6068   17.3026 O   0  0  0  0  0  0  0  0  0  0  0  0
    7.8448  -15.2941   21.6241 C   0  0  0  0  0  0  0  0  0  0  0  0
    7.0900  -14.4113   22.0595 O   0  0  0  0  0  0  0  0  0  0  0  0
    7.5299  -13.6872   17.0977 O   0  0  0  0  0  0  0  0  0  0  0  0
    6.0837  -16.8667   26.2564 N   0  0  0  0  0  0  0  0  0  0  0  0
    6.9025  -17.9124   25.7185 C   0  0  0  0  0  0  0  0  0  0  0  0
    7.0723  -18.9410   26.4190 O   0  0  0  0  0  0  0  0  0  0  0  0
    7.5267  -17.7937   24.3918 C   0  0  0  0  0  0  0  0  0  0  0  0
    7.6042  -16.3969   23.8596 C   0  0  2  0  0  0  0  0  0  0  0  0
    8.1524  -16.3847   22.4974 N   0  0  0  0  0  0  0  0  0  0  0  0
    8.3630  -15.4689   24.7277 C   0  0  0  0  0  0  0  0  0  0  0  0
    9.5980  -15.3539   24.6597 O   0  0  0  0  0  0  0  0  0  0  0  0
    7.6561  -14.6568   25.6977 N   0  0  0  0  0  0  0  0  0  0  0  0
    8.2553  -13.6571   26.5092 C   0  0  1  0  0  0  0  0  0  0  0  0
    7.2699  -12.6789   27.1052 C   0  0  0  0  0  0  0  0  0  0  0  0
    6.1664  -12.1129   25.7608 S   0  0  0  0  0  0  0  0  0  0  0  0
    8.9488  -14.3036   27.6482 C   0  0  0  0  0  0  0  0  0  0  0  0
    8.9276  -15.6832   27.7438 O   0  0  0  0  0  0  0  0  0  0  0  0
    9.5550  -13.6544   28.5311 O   0  0  0  0  0  0  0  0  0  0  0  0
  2  1  1  6
  3  2  1  0
  3  4  1  0
  4  5  2  0
  6  7  2  0
  6  2  1  0
  8  4  1  0
  9 10  1  0
 10 11  2  0
 10 12  1  0
 13 12  1  1
 13 15  1  0
 13 14  1  0
 14  6  1  0
 15 17  1  0
 16 15  2  0
 17 18  1  0
 18 21  1  0
 19 20  1  0
 18 19  1  1
 21 23  2  0
 21 22  1  0
M  END
$$$$
