DNC.pdb
     RDKit          3D

 23 22  0  0  1  0  0  0  0  0999 V2000
   12.9013  -16.1553   17.9885 N   0  0  0  0  0  0  0  0  0  0  0  0
   13.3757  -15.2059   19.0175 C   0  0  1  0  0  0  0  0  0  0  0  0
   14.1317  -14.1201   18.3177 C   0  0  0  0  0  0  0  0  0  0  0  0
   15.4485  -14.5297   17.8329 C   0  0  0  0  0  0  0  0  0  0  0  0
   16.0676  -15.5307   18.2052 O   0  0  0  0  0  0  0  0  0  0  0  0
   12.1968  -14.7031   19.7683 C   0  0  0  0  0  0  0  0  0  0  0  0
   12.3273  -13.8952   20.7005 O   0  0  0  0  0  0  0  0  0  0  0  0
   16.0854  -13.7376   16.8624 O   0  0  0  0  0  0  0  0  0  0  0  0
    8.5376  -12.5253   18.4194 N   0  0  0  0  0  0  0  0  0  0  0  0
    8.4535  -13.9550   18.3746 C   0  0  0  0  0  0  0  0  0  0  0  0
    8.3749  -14.5010   17.2461 O   0  0  0  0  0  0  0  0  0  0  0  0
    8.4587  -14.7636   19.6034 C   0  0  0  0  0  0  0  0  0  0  0  0
    9.7601  -14.7699   20.3426 C   0  0  2  0  0  0  0  0  0  0  0  0
   10.8687  -15.1286   19.4490 N   0  0  0  0  0  0  0  0  0  0  0  0
    9.7621  -15.6404   21.5397 C   0  0  0  0  0  0  0  0  0  0  0  0
   10.3442  -16.7375   21.5637 O   0  0  0  0  0  0  0  0  0  0  0  0
    9.0652  -15.2132   22.7363 N   0  0  0  0  0  0  0  0  0  0  0  0
    8.8568  -16.0211   23.8856 C   0  0  1  0  0  0  0  0  0  0  0  0
    8.0510  -15.3468   24.9715 C   0  0  0  0  0  0  0  0  0  0  0  0
    8.9187  -13.8035   25.4305 S   0  0  0  0  0  0  0  0  0  0  0  0
    8.1055  -17.2381   23.4973 C   0  0  0  0  0  0  0  0  0  0  0  0
    7.8863  -18.2168   24.4496 O   0  0  0  0  0  0  0  0  0  0  0  0
    7.6589  -17.4205   22.3416 O   0  0  0  0  0  0  0  0  0  0  0  0
  2  1  1  6
  3  2  1  0
  3  4  1  0
  4  5  2  0
  6  7  2  0
  6  2  1  0
  8  4  1  0
  9 10  1  0
 10 11  2  0
 10 12  1  0
 13 12  1  6
 13 15  1  0
 13 14  1  0
 14  6  1  0
 15 17  1  0
 16 15  2  0
 17 18  1  0
 18 21  1  0
 19 20  1  0
 18 19  1  1
 21 23  2  0
 21 22  1  0
M  END
$$$$
