LGT.pdb
     RDKit          3D

 20 19  0  0  1  0  0  0  0  0999 V2000
   19.4401   -7.8194  -20.9478 C   0  0  0  0  0  0  0  0  0  0  0  0
   19.6674   -9.1416  -20.2875 C   0  0  1  0  0  0  0  0  0  0  0  0
   19.3394  -10.2380  -21.2955 C   0  0  0  0  0  0  0  0  0  0  0  0
   21.0705   -9.3727  -19.8264 C   0  0  0  0  0  0  0  0  0  0  0  0
   21.1732  -10.1305  -18.5322 C   0  0  2  0  0  0  0  0  0  0  0  0
   19.8527  -10.3113  -17.9886 N   0  0  0  0  0  0  0  0  0  0  0  0
   22.0530   -9.3506  -17.6276 C   0  0  0  0  0  0  0  0  0  0  0  0
   23.2361   -9.0968  -17.9553 O   0  0  0  0  0  0  0  0  0  0  0  0
   21.5748   -8.8662  -16.3547 N   0  0  0  0  0  0  0  0  0  0  0  0
   22.4464   -8.0269  -15.6126 C   0  0  0  0  0  0  0  0  0  0  0  0
   22.1748   -6.5833  -15.6670 C   0  0  0  0  0  0  0  0  0  0  0  0
   22.4920   -5.9647  -16.7469 O   0  0  0  0  0  0  0  0  0  0  0  0
   18.8552   -4.8824  -13.9840 C   0  0  0  0  0  0  0  0  0  0  0  0
   19.7747   -4.1501  -14.9514 C   0  0  1  0  0  0  0  0  0  0  0  0
   19.4673   -2.7932  -15.0077 O   0  0  0  0  0  0  0  0  0  0  0  0
   21.2081   -4.4305  -14.7127 C   0  0  2  0  0  0  0  0  0  0  0  0
   21.5950   -5.7974  -14.6436 N   0  0  0  0  0  0  0  0  0  0  0  0
   21.7217   -3.5540  -13.6298 C   0  0  0  0  0  0  0  0  0  0  0  0
   22.2322   -4.1012  -12.6233 O   0  0  0  0  0  0  0  0  0  0  0  0
   21.6541   -2.1906  -13.6915 O   0  0  0  0  0  0  0  0  0  0  0  0
  2  4  1  0
  2  1  1  6
  3  2  1  0
  4  5  1  0
  5  7  1  0
  5  6  1  1
  7  9  1  0
  8  7  2  0
  9 10  1  0
 10 11  1  0
 11 17  1  0
 11 12  2  0
 14 13  1  1
 14 16  1  0
 15 14  1  0
 16 18  1  0
 16 17  1  1
 18 19  2  0
 18 20  1  0
M  END
$$$$
