LGT.pdb
     RDKit          3D

 20 19  0  0  1  0  0  0  0  0999 V2000
   19.7986  -15.6397  -17.1703 C   0  0  0  0  0  0  0  0  0  0  0  0
   18.9542  -14.6562  -16.4250 C   0  0  1  0  0  0  0  0  0  0  0  0
   19.3185  -14.7423  -14.9466 C   0  0  0  0  0  0  0  0  0  0  0  0
   19.1427  -13.2332  -16.8428 C   0  0  0  0  0  0  0  0  0  0  0  0
   18.2713  -12.2569  -16.1031 C   0  0  2  0  0  0  0  0  0  0  0  0
   16.8908  -12.5628  -16.3728 N   0  0  0  0  0  0  0  0  0  0  0  0
   18.6452  -10.8943  -16.5552 C   0  0  0  0  0  0  0  0  0  0  0  0
   18.7430  -10.6352  -17.7778 O   0  0  0  0  0  0  0  0  0  0  0  0
   18.9046   -9.8374  -15.6070 N   0  0  0  0  0  0  0  0  0  0  0  0
   19.3003   -8.5795  -16.1321 C   0  0  0  0  0  0  0  0  0  0  0  0
   19.4521   -7.4813  -15.1668 C   0  0  0  0  0  0  0  0  0  0  0  0
   18.8536   -7.6034  -14.0371 O   0  0  0  0  0  0  0  0  0  0  0  0
   22.7123   -5.7915  -13.7240 C   0  0  0  0  0  0  0  0  0  0  0  0
   21.7577   -4.7267  -14.2461 C   0  0  1  0  0  0  0  0  0  0  0  0
   22.2812   -4.0884  -15.3675 O   0  0  0  0  0  0  0  0  0  0  0  0
   20.3772   -5.2268  -14.4311 C   0  0  2  0  0  0  0  0  0  0  0  0
   20.1960   -6.2929  -15.3550 N   0  0  0  0  0  0  0  0  0  0  0  0
   19.4385   -4.0841  -14.5647 C   0  0  0  0  0  0  0  0  0  0  0  0
   19.3396   -3.2890  -13.5997 O   0  0  0  0  0  0  0  0  0  0  0  0
   18.6872   -3.8756  -15.6868 O   0  0  0  0  0  0  0  0  0  0  0  0
  2  4  1  0
  2  1  1  6
  3  2  1  0
  4  5  1  0
  5  7  1  0
  5  6  1  6
  7  9  1  0
  8  7  2  0
  9 10  1  0
 10 11  1  0
 11 17  1  0
 11 12  2  0
 14 13  1  6
 14 16  1  0
 15 14  1  0
 16 18  1  0
 16 17  1  6
 18 19  2  0
 18 20  1  0
M  END
$$$$
