LGT.pdb
     RDKit          3D

 20 19  0  0  1  0  0  0  0  0999 V2000
   21.2671  -14.6825  -21.1118 C   0  0  0  0  0  0  0  0  0  0  0  0
   20.9135  -14.4802  -19.6732 C   0  0  1  0  0  0  0  0  0  0  0  0
   22.0904  -14.9503  -18.8246 C   0  0  0  0  0  0  0  0  0  0  0  0
   20.6373  -13.0606  -19.2950 C   0  0  0  0  0  0  0  0  0  0  0  0
   20.2696  -12.8718  -17.8497 C   0  0  2  0  0  0  0  0  0  0  0  0
   19.1462  -13.7161  -17.5377 N   0  0  0  0  0  0  0  0  0  0  0  0
   19.9657  -11.4335  -17.6511 C   0  0  0  0  0  0  0  0  0  0  0  0
   18.9772  -10.9091  -18.2163 O   0  0  0  0  0  0  0  0  0  0  0  0
   20.7935  -10.6043  -16.8080 N   0  0  0  0  0  0  0  0  0  0  0  0
   20.4850   -9.2197  -16.7586 C   0  0  0  0  0  0  0  0  0  0  0  0
   21.2972   -8.3962  -15.8515 C   0  0  0  0  0  0  0  0  0  0  0  0
   22.0449   -9.0117  -15.0079 O   0  0  0  0  0  0  0  0  0  0  0  0
   24.1819   -6.2753  -16.6037 C   0  0  0  0  0  0  0  0  0  0  0  0
   23.2361   -5.3920  -15.8018 C   0  0  1  0  0  0  0  0  0  0  0  0
   22.7028   -4.3780  -16.5931 O   0  0  0  0  0  0  0  0  0  0  0  0
   22.2204   -6.1631  -15.0508 C   0  0  2  0  0  0  0  0  0  0  0  0
   21.3411   -6.9828  -15.8110 N   0  0  0  0  0  0  0  0  0  0  0  0
   21.5806   -5.2965  -14.0289 C   0  0  0  0  0  0  0  0  0  0  0  0
   20.3566   -5.0511  -14.1495 O   0  0  0  0  0  0  0  0  0  0  0  0
   22.2726   -4.7623  -12.9787 O   0  0  0  0  0  0  0  0  0  0  0  0
  2  4  1  0
  2  1  1  6
  3  2  1  0
  4  5  1  0
  5  7  1  0
  5  6  1  6
  7  9  1  0
  8  7  2  0
  9 10  1  0
 10 11  1  0
 11 17  1  0
 11 12  2  0
 14 13  1  6
 14 16  1  0
 15 14  1  0
 16 18  1  0
 16 17  1  6
 18 19  2  0
 18 20  1  0
M  END
$$$$
