LGT.pdb
     RDKit          3D

 20 19  0  0  1  0  0  0  0  0999 V2000
   18.3250  -14.6213  -17.5564 C   0  0  0  0  0  0  0  0  0  0  0  0
   18.0302  -13.6981  -16.4177 C   0  0  1  0  0  0  0  0  0  0  0  0
   18.6406  -14.2940  -15.1535 C   0  0  0  0  0  0  0  0  0  0  0  0
   18.5929  -12.3218  -16.5719 C   0  0  0  0  0  0  0  0  0  0  0  0
   18.1582  -11.3587  -15.5028 C   0  0  2  0  0  0  0  0  0  0  0  0
   16.7202  -11.3458  -15.4398 N   0  0  0  0  0  0  0  0  0  0  0  0
   18.7191  -10.0288  -15.8459 C   0  0  0  0  0  0  0  0  0  0  0  0
   19.9597   -9.8522  -15.8796 O   0  0  0  0  0  0  0  0  0  0  0  0
   17.8583   -8.9102  -16.1480 N   0  0  0  0  0  0  0  0  0  0  0  0
   18.4846   -7.7025  -16.5529 C   0  0  0  0  0  0  0  0  0  0  0  0
   18.9999   -6.8369  -15.4823 C   0  0  0  0  0  0  0  0  0  0  0  0
   18.5267   -7.0153  -14.3018 O   0  0  0  0  0  0  0  0  0  0  0  0
   22.2506   -6.8052  -13.8593 C   0  0  0  0  0  0  0  0  0  0  0  0
   22.0189   -5.3677  -14.3040 C   0  0  1  0  0  0  0  0  0  0  0  0
   22.8822   -5.0161  -15.3384 O   0  0  0  0  0  0  0  0  0  0  0  0
   20.5964   -5.0699  -14.5831 C   0  0  2  0  0  0  0  0  0  0  0  0
   19.9721   -5.8184  -15.6189 N   0  0  0  0  0  0  0  0  0  0  0  0
   20.3857   -3.6007  -14.6252 C   0  0  0  0  0  0  0  0  0  0  0  0
   20.6736   -2.9363  -13.6011 O   0  0  0  0  0  0  0  0  0  0  0  0
   19.8921   -2.9588  -15.7258 O   0  0  0  0  0  0  0  0  0  0  0  0
  2  4  1  0
  2  1  1  6
  3  2  1  0
  4  5  1  0
  5  7  1  0
  5  6  1  6
  7  9  1  0
  8  7  2  0
  9 10  1  0
 10 11  1  0
 11 17  1  0
 11 12  2  0
 14 13  1  6
 14 16  1  0
 15 14  1  0
 16 18  1  0
 16 17  1  6
 18 19  2  0
 18 20  1  0
M  END
$$$$
