LGT.pdb
     RDKit          3D

 20 19  0  0  1  0  0  0  0  0999 V2000
   18.1720  -15.0239  -16.1286 C   0  0  0  0  0  0  0  0  0  0  0  0
   18.3370  -13.6759  -16.7544 C   0  0  1  0  0  0  0  0  0  0  0  0
   17.1215  -13.4103  -17.6365 C   0  0  0  0  0  0  0  0  0  0  0  0
   18.4295  -12.5458  -15.7803 C   0  0  0  0  0  0  0  0  0  0  0  0
   18.5172  -11.1893  -16.4220 C   0  0  2  0  0  0  0  0  0  0  0  0
   19.8090  -11.0460  -17.0408 N   0  0  0  0  0  0  0  0  0  0  0  0
   18.2853  -10.1784  -15.3612 C   0  0  0  0  0  0  0  0  0  0  0  0
   17.1712  -10.0990  -14.7921 O   0  0  0  0  0  0  0  0  0  0  0  0
   19.3282   -9.2654  -14.9583 N   0  0  0  0  0  0  0  0  0  0  0  0
   18.9916   -8.2860  -13.9876 C   0  0  0  0  0  0  0  0  0  0  0  0
   20.0119   -7.2683  -13.6979 C   0  0  0  0  0  0  0  0  0  0  0  0
   20.4125   -7.1656  -12.4820 O   0  0  0  0  0  0  0  0  0  0  0  0
   23.3908   -7.2832  -15.5210 C   0  0  0  0  0  0  0  0  0  0  0  0
   22.8589   -5.8568  -15.5002 C   0  0  1  0  0  0  0  0  0  0  0  0
   22.4943   -5.4375  -16.7770 O   0  0  0  0  0  0  0  0  0  0  0  0
   21.8105   -5.6444  -14.4774 C   0  0  2  0  0  0  0  0  0  0  0  0
   20.6038   -6.3821  -14.6281 N   0  0  0  0  0  0  0  0  0  0  0  0
   21.6555   -4.1930  -14.2054 C   0  0  0  0  0  0  0  0  0  0  0  0
   20.5255   -3.6791  -14.3839 O   0  0  0  0  0  0  0  0  0  0  0  0
   22.6898   -3.4096  -13.7766 O   0  0  0  0  0  0  0  0  0  0  0  0
  2  4  1  0
  2  1  1  1
  3  2  1  0
  4  5  1  0
  5  7  1  0
  5  6  1  1
  7  9  1  0
  8  7  2  0
  9 10  1  0
 10 11  1  0
 11 17  1  0
 11 12  2  0
 14 13  1  6
 14 16  1  0
 15 14  1  0
 16 18  1  0
 16 17  1  6
 18 19  2  0
 18 20  1  0
M  END
$$$$
