LGT.pdb
     RDKit          3D

 20 19  0  0  1  0  0  0  0  0999 V2000
   11.4967   -9.1630   -8.0541 C   0  0  0  0  0  0  0  0  0  0  0  0
   12.4068   -9.9143   -8.9722 C   0  0  1  0  0  0  0  0  0  0  0  0
   11.8043   -9.8771  -10.3728 C   0  0  0  0  0  0  0  0  0  0  0  0
   13.7890   -9.3538   -9.0725 C   0  0  0  0  0  0  0  0  0  0  0  0
   14.7139  -10.1563   -9.9446 C   0  0  2  0  0  0  0  0  0  0  0  0
   14.9352  -11.4415   -9.3353 N   0  0  0  0  0  0  0  0  0  0  0  0
   15.9693   -9.3805  -10.0954 C   0  0  0  0  0  0  0  0  0  0  0  0
   16.8385   -9.3968   -9.1922 O   0  0  0  0  0  0  0  0  0  0  0  0
   16.2228   -8.5917  -11.2773 N   0  0  0  0  0  0  0  0  0  0  0  0
   17.4615   -7.9015  -11.3415 C   0  0  0  0  0  0  0  0  0  0  0  0
   18.3007   -8.1632  -12.5197 C   0  0  0  0  0  0  0  0  0  0  0  0
   18.1458   -9.2910  -13.1142 O   0  0  0  0  0  0  0  0  0  0  0  0
   18.0547   -7.2259  -15.9038 C   0  0  0  0  0  0  0  0  0  0  0  0
   19.4233   -6.7172  -15.4729 C   0  0  1  0  0  0  0  0  0  0  0  0
   19.4226   -5.3321  -15.3296 O   0  0  0  0  0  0  0  0  0  0  0  0
   19.9680   -7.4405  -14.3023 C   0  0  2  0  0  0  0  0  0  0  0  0
   19.2703   -7.2935  -13.0716 N   0  0  0  0  0  0  0  0  0  0  0  0
   21.4411   -7.2651  -14.2394 C   0  0  0  0  0  0  0  0  0  0  0  0
   21.9220   -6.6902  -13.2338 O   0  0  0  0  0  0  0  0  0  0  0  0
   22.2773   -7.6999  -15.2287 O   0  0  0  0  0  0  0  0  0  0  0  0
  2  4  1  0
  2  1  1  1
  3  2  1  0
  4  5  1  0
  5  7  1  0
  5  6  1  1
  7  9  1  0
  8  7  2  0
  9 10  1  0
 10 11  1  0
 11 17  1  0
 11 12  2  0
 14 13  1  1
 14 16  1  0
 15 14  1  0
 16 18  1  0
 16 17  1  1
 18 19  2  0
 18 20  1  0
M  END
$$$$
