LGT.pdb
     RDKit          3D

 20 19  0  0  1  0  0  0  0  0999 V2000
   28.1048  -15.3916  -16.3380 C   0  0  0  0  0  0  0  0  0  0  0  0
   26.6505  -15.0470  -16.2947 C   0  0  1  0  0  0  0  0  0  0  0  0
   25.9512  -16.0532  -15.3867 C   0  0  0  0  0  0  0  0  0  0  0  0
   26.3505  -13.6851  -15.7561 C   0  0  0  0  0  0  0  0  0  0  0  0
   24.8964  -13.3089  -15.8165 C   0  0  2  0  0  0  0  0  0  0  0  0
   24.3455  -13.7654  -17.0655 N   0  0  0  0  0  0  0  0  0  0  0  0
   24.8106  -11.8354  -15.6679 C   0  0  0  0  0  0  0  0  0  0  0  0
   25.2023  -11.2793  -14.6149 O   0  0  0  0  0  0  0  0  0  0  0  0
   24.2777  -11.0076  -16.7235 N   0  0  0  0  0  0  0  0  0  0  0  0
   24.1854   -9.6142  -16.4694 C   0  0  0  0  0  0  0  0  0  0  0  0
   22.8364   -9.0304  -16.4830 C   0  0  0  0  0  0  0  0  0  0  0  0
   22.3537   -8.6898  -17.6233 O   0  0  0  0  0  0  0  0  0  0  0  0
   19.5525  -10.6457  -15.3087 C   0  0  0  0  0  0  0  0  0  0  0  0
   19.6814   -9.2746  -14.6597 C   0  0  1  0  0  0  0  0  0  0  0  0
   19.9058   -9.3858  -13.2900 O   0  0  0  0  0  0  0  0  0  0  0  0
   20.6452   -8.3929  -15.3553 C   0  0  2  0  0  0  0  0  0  0  0  0
   22.0071   -8.8028  -15.3599 N   0  0  0  0  0  0  0  0  0  0  0  0
   20.3937   -6.9769  -14.9857 C   0  0  0  0  0  0  0  0  0  0  0  0
   21.3396   -6.3236  -14.4842 O   0  0  0  0  0  0  0  0  0  0  0  0
   19.1819   -6.3723  -15.1680 O   0  0  0  0  0  0  0  0  0  0  0  0
  2  4  1  0
  2  1  1  1
  3  2  1  0
  4  5  1  0
  5  7  1  0
  5  6  1  6
  7  9  1  0
  8  7  2  0
  9 10  1  0
 10 11  1  0
 11 17  1  0
 11 12  2  0
 14 13  1  6
 14 16  1  0
 15 14  1  0
 16 18  1  0
 16 17  1  1
 18 19  2  0
 18 20  1  0
M  END
$$$$
