LGT.pdb
     RDKit          3D

 20 19  0  0  1  0  0  0  0  0999 V2000
   24.2975  -18.7076  -14.6836 C   0  0  0  0  0  0  0  0  0  0  0  0
   24.8409  -17.4845  -15.3502 C   0  0  1  0  0  0  0  0  0  0  0  0
   25.3819  -17.8899  -16.7173 C   0  0  0  0  0  0  0  0  0  0  0  0
   23.8350  -16.4023  -15.5780 C   0  0  0  0  0  0  0  0  0  0  0  0
   24.4077  -15.1509  -16.1828 C   0  0  2  0  0  0  0  0  0  0  0  0
   25.4741  -14.6703  -15.3439 N   0  0  0  0  0  0  0  0  0  0  0  0
   23.3022  -14.1694  -16.3066 C   0  0  0  0  0  0  0  0  0  0  0  0
   22.1094  -14.5545  -16.3198 O   0  0  0  0  0  0  0  0  0  0  0  0
   23.5677  -12.7547  -16.4144 N   0  0  0  0  0  0  0  0  0  0  0  0
   22.4461  -11.8929  -16.5331 C   0  0  0  0  0  0  0  0  0  0  0  0
   22.5277  -10.6053  -15.8286 C   0  0  0  0  0  0  0  0  0  0  0  0
   23.5690  -10.3936  -15.1073 O   0  0  0  0  0  0  0  0  0  0  0  0
   22.6581   -7.3671  -17.6051 C   0  0  0  0  0  0  0  0  0  0  0  0
   21.6504   -7.1710  -16.4809 C   0  0  1  0  0  0  0  0  0  0  0  0
   20.3665   -6.9784  -16.9844 O   0  0  0  0  0  0  0  0  0  0  0  0
   21.7345   -8.2181  -15.4385 C   0  0  2  0  0  0  0  0  0  0  0  0
   21.5693   -9.5655  -15.8631 N   0  0  0  0  0  0  0  0  0  0  0  0
   20.9474   -7.8108  -14.2472 C   0  0  0  0  0  0  0  0  0  0  0  0
   19.9642   -8.5185  -13.9224 O   0  0  0  0  0  0  0  0  0  0  0  0
   21.2527   -6.7040  -13.5062 O   0  0  0  0  0  0  0  0  0  0  0  0
  2  4  1  0
  2  1  1  6
  3  2  1  0
  4  5  1  0
  5  7  1  0
  5  6  1  1
  7  9  1  0
  8  7  2  0
  9 10  1  0
 10 11  1  0
 11 17  1  0
 11 12  2  0
 14 13  1  6
 14 16  1  0
 15 14  1  0
 16 18  1  0
 16 17  1  6
 18 19  2  0
 18 20  1  0
M  END
$$$$
