LGT.pdb
     RDKit          3D

 20 19  0  0  1  0  0  0  0  0999 V2000
   20.7765  -13.7649  -17.1154 C   0  0  0  0  0  0  0  0  0  0  0  0
   22.0140  -12.9257  -17.1228 C   0  0  1  0  0  0  0  0  0  0  0  0
   22.1316  -12.2658  -18.4927 C   0  0  0  0  0  0  0  0  0  0  0  0
   22.0288  -11.8315  -16.1043 C   0  0  0  0  0  0  0  0  0  0  0  0
   23.2844  -11.0050  -16.1111 C   0  0  2  0  0  0  0  0  0  0  0  0
   24.4024  -11.8481  -15.7772 N   0  0  0  0  0  0  0  0  0  0  0  0
   23.0983   -9.9034  -15.1351 C   0  0  0  0  0  0  0  0  0  0  0  0
   23.3543  -10.0805  -13.9208 O   0  0  0  0  0  0  0  0  0  0  0  0
   22.6208   -8.6071  -15.5536 N   0  0  0  0  0  0  0  0  0  0  0  0
   22.4334   -7.6289  -14.5423 C   0  0  0  0  0  0  0  0  0  0  0  0
   21.9980   -6.2972  -14.9870 C   0  0  0  0  0  0  0  0  0  0  0  0
   21.9541   -6.0842  -16.2527 O   0  0  0  0  0  0  0  0  0  0  0  0
   18.8434   -4.8525  -15.3834 C   0  0  0  0  0  0  0  0  0  0  0  0
   19.5656   -3.8711  -14.4708 C   0  0  1  0  0  0  0  0  0  0  0  0
   19.0686   -3.9335  -13.1715 O   0  0  0  0  0  0  0  0  0  0  0  0
   21.0392   -3.9791  -14.5545 C   0  0  2  0  0  0  0  0  0  0  0  0
   21.6187   -5.2159  -14.1576 N   0  0  0  0  0  0  0  0  0  0  0  0
   21.6690   -2.7567  -13.9944 C   0  0  0  0  0  0  0  0  0  0  0  0
   22.4331   -2.8882  -13.0086 O   0  0  0  0  0  0  0  0  0  0  0  0
   21.4436   -1.5107  -14.5082 O   0  0  0  0  0  0  0  0  0  0  0  0
  2  4  1  0
  2  1  1  6
  3  2  1  0
  4  5  1  0
  5  7  1  0
  5  6  1  1
  7  9  1  0
  8  7  2  0
  9 10  1  0
 10 11  1  0
 11 17  1  0
 11 12  2  0
 14 13  1  6
 14 16  1  0
 15 14  1  0
 16 18  1  0
 16 17  1  1
 18 19  2  0
 18 20  1  0
M  END
$$$$
