LGT.pdb
     RDKit          3D

 20 19  0  0  1  0  0  0  0  0999 V2000
   29.2494  -21.0062  -14.6272 C   0  0  0  0  0  0  0  0  0  0  0  0
   28.1286  -20.8992  -13.6432 C   0  0  1  0  0  0  0  0  0  0  0  0
   28.6001  -20.0336  -12.4794 C   0  0  0  0  0  0  0  0  0  0  0  0
   26.8850  -20.2703  -14.1841 C   0  0  0  0  0  0  0  0  0  0  0  0
   25.7652  -20.1699  -13.1862 C   0  0  2  0  0  0  0  0  0  0  0  0
   25.5773  -21.4531  -12.5616 N   0  0  0  0  0  0  0  0  0  0  0  0
   24.5563  -19.7164  -13.9168 C   0  0  0  0  0  0  0  0  0  0  0  0
   24.5262  -18.5841  -14.4538 O   0  0  0  0  0  0  0  0  0  0  0  0
   23.3904  -20.5600  -14.0285 N   0  0  0  0  0  0  0  0  0  0  0  0
   22.3077  -20.0684  -14.8035 C   0  0  0  0  0  0  0  0  0  0  0  0
   21.1241  -20.9342  -14.9050 C   0  0  0  0  0  0  0  0  0  0  0  0
   20.2415  -20.6243  -15.7850 O   0  0  0  0  0  0  0  0  0  0  0  0
   20.5136  -24.5422  -12.4437 C   0  0  0  0  0  0  0  0  0  0  0  0
   20.0674  -24.4183  -13.8939 C   0  0  1  0  0  0  0  0  0  0  0  0
   19.0260  -25.2984  -14.1765 O   0  0  0  0  0  0  0  0  0  0  0  0
   19.7978  -23.0209  -14.2996 C   0  0  2  0  0  0  0  0  0  0  0  0
   20.8539  -22.0841  -14.1266 N   0  0  0  0  0  0  0  0  0  0  0  0
   18.4649  -22.5973  -13.8010 C   0  0  0  0  0  0  0  0  0  0  0  0
   18.4117  -21.6037  -13.0375 O   0  0  0  0  0  0  0  0  0  0  0  0
   17.3115  -23.2474  -14.1390 O   0  0  0  0  0  0  0  0  0  0  0  0
  2  4  1  0
  2  1  1  6
  3  2  1  0
  4  5  1  0
  5  7  1  0
  5  6  1  6
  7  9  1  0
  8  7  2  0
  9 10  1  0
 10 11  1  0
 11 17  1  0
 11 12  2  0
 14 13  1  1
 14 16  1  0
 15 14  1  0
 16 18  1  0
 16 17  1  1
 18 19  2  0
 18 20  1  0
M  END
$$$$
