LGT.pdb
     RDKit          3D

 20 19  0  0  1  0  0  0  0  0999 V2000
   29.8562  -15.2995  -18.0219 C   0  0  0  0  0  0  0  0  0  0  0  0
   28.3888  -15.5711  -17.9290 C   0  0  1  0  0  0  0  0  0  0  0  0
   27.6885  -14.7746  -19.0250 C   0  0  0  0  0  0  0  0  0  0  0  0
   28.0093  -17.0049  -18.1159 C   0  0  0  0  0  0  0  0  0  0  0  0
   26.6612  -17.3602  -17.5538 C   0  0  2  0  0  0  0  0  0  0  0  0
   26.1347  -16.2239  -16.8442 N   0  0  0  0  0  0  0  0  0  0  0  0
   26.8423  -18.5401  -16.6729 C   0  0  0  0  0  0  0  0  0  0  0  0
   27.4169  -19.5692  -17.0998 O   0  0  0  0  0  0  0  0  0  0  0  0
   26.3657  -18.5356  -15.3105 N   0  0  0  0  0  0  0  0  0  0  0  0
   26.5340  -19.7298  -14.5619 C   0  0  0  0  0  0  0  0  0  0  0  0
   26.3058  -19.6362  -13.1128 C   0  0  0  0  0  0  0  0  0  0  0  0
   26.6741  -18.5541  -12.5273 O   0  0  0  0  0  0  0  0  0  0  0  0
   23.8117  -20.6786   -8.9983 C   0  0  0  0  0  0  0  0  0  0  0  0
   24.1256  -21.0464  -10.4419 C   0  0  1  0  0  0  0  0  0  0  0  0
   23.0700  -20.7130  -11.2865 O   0  0  0  0  0  0  0  0  0  0  0  0
   25.4397  -20.5396  -10.8961 C   0  0  2  0  0  0  0  0  0  0  0  0
   25.7170  -20.6237  -12.2886 N   0  0  0  0  0  0  0  0  0  0  0  0
   26.5105  -21.0257   -9.9895 C   0  0  0  0  0  0  0  0  0  0  0  0
   27.3737  -21.8027  -10.4632 O   0  0  0  0  0  0  0  0  0  0  0  0
   26.5830  -20.6625   -8.6743 O   0  0  0  0  0  0  0  0  0  0  0  0
  2  4  1  0
  2  1  1  6
  3  2  1  0
  4  5  1  0
  5  7  1  0
  5  6  1  1
  7  9  1  0
  8  7  2  0
  9 10  1  0
 10 11  1  0
 11 17  1  0
 11 12  2  0
 14 13  1  1
 14 16  1  0
 15 14  1  0
 16 18  1  0
 16 17  1  6
 18 19  2  0
 18 20  1  0
M  END
$$$$
