LGT.pdb
     RDKit          3D

 20 19  0  0  1  0  0  0  0  0999 V2000
   26.5557  -20.1972   -5.6090 C   0  0  0  0  0  0  0  0  0  0  0  0
   27.0905  -19.6496   -6.8934 C   0  0  1  0  0  0  0  0  0  0  0  0
   28.5864  -19.4084   -6.7201 C   0  0  0  0  0  0  0  0  0  0  0  0
   26.9240  -20.5543   -8.0718 C   0  0  0  0  0  0  0  0  0  0  0  0
   27.5208  -20.0199   -9.3438 C   0  0  2  0  0  0  0  0  0  0  0  0
   27.1395  -18.6403   -9.4972 N   0  0  0  0  0  0  0  0  0  0  0  0
   27.0290  -20.8675  -10.4575 C   0  0  0  0  0  0  0  0  0  0  0  0
   27.1015  -22.1169  -10.3848 O   0  0  0  0  0  0  0  0  0  0  0  0
   26.4578  -20.2815  -11.6466 N   0  0  0  0  0  0  0  0  0  0  0  0
   26.0586  -21.1705  -12.6787 C   0  0  0  0  0  0  0  0  0  0  0  0
   24.6513  -21.5951  -12.6741 C   0  0  0  0  0  0  0  0  0  0  0  0
   24.4086  -22.8262  -12.4006 O   0  0  0  0  0  0  0  0  0  0  0  0
   21.4183  -19.5959  -11.0634 C   0  0  0  0  0  0  0  0  0  0  0  0
   21.1927  -20.0987  -12.4826 C   0  0  1  0  0  0  0  0  0  0  0  0
   21.1056  -19.0402  -13.3831 O   0  0  0  0  0  0  0  0  0  0  0  0
   22.1539  -21.1498  -12.8844 C   0  0  2  0  0  0  0  0  0  0  0  0
   23.5262  -20.7807  -12.9423 N   0  0  0  0  0  0  0  0  0  0  0  0
   21.6302  -21.8922  -14.0589 C   0  0  0  0  0  0  0  0  0  0  0  0
   22.3263  -21.9080  -15.1021 O   0  0  0  0  0  0  0  0  0  0  0  0
   20.4306  -22.5462  -14.0416 O   0  0  0  0  0  0  0  0  0  0  0  0
  2  4  1  0
  2  1  1  1
  3  2  1  0
  4  5  1  0
  5  7  1  0
  5  6  1  6
  7  9  1  0
  8  7  2  0
  9 10  1  0
 10 11  1  0
 11 17  1  0
 11 12  2  0
 14 13  1  1
 14 16  1  0
 15 14  1  0
 16 18  1  0
 16 17  1  6
 18 19  2  0
 18 20  1  0
M  END
$$$$
