CGN.pdb
     RDKit          3D

 19 18  0  0  1  0  0  0  0  0999 V2000
   19.0390  -12.2262  -16.0981 N   0  0  0  0  0  0  0  0  0  0  0  0
   17.7626  -12.0442  -15.4814 C   0  0  1  0  0  0  0  0  0  0  0  0
   17.6141  -12.9879  -14.3072 C   0  0  0  0  0  0  0  0  0  0  0  0
   17.5281  -14.6689  -14.9768 S   0  0  0  0  0  0  0  0  0  0  0  0
   17.5297  -10.6368  -15.0530 C   0  0  0  0  0  0  0  0  0  0  0  0
   16.4106  -10.2887  -14.5995 O   0  0  0  0  0  0  0  0  0  0  0  0
   18.5429   -9.6487  -15.1374 N   0  0  0  0  0  0  0  0  0  0  0  0
   18.4042   -8.3160  -14.6333 C   0  0  0  0  0  0  0  0  0  0  0  0
   19.6537   -7.5250  -14.7654 C   0  0  0  0  0  0  0  0  0  0  0  0
   20.6899   -8.1258  -15.1419 O   0  0  0  0  0  0  0  0  0  0  0  0
   21.5180   -1.6346  -15.1345 N   0  0  0  0  0  0  0  0  0  0  0  0
   21.6913   -3.0601  -15.0598 C   0  0  0  0  0  0  0  0  0  0  0  0
   22.8240   -3.5213  -15.2827 O   0  0  0  0  0  0  0  0  0  0  0  0
   20.5398   -3.9038  -14.7279 C   0  0  0  0  0  0  0  0  0  0  0  0
   20.9405   -5.3628  -14.6987 C   0  0  2  0  0  0  0  0  0  0  0  0
   19.7418   -6.1455  -14.4935 N   0  0  0  0  0  0  0  0  0  0  0  0
   21.9895   -5.5836  -13.6916 C   0  0  0  0  0  0  0  0  0  0  0  0
   21.6697   -5.7028  -12.4906 O   0  0  0  0  0  0  0  0  0  0  0  0
   23.3029   -5.6571  -14.0699 O   0  0  0  0  0  0  0  0  0  0  0  0
  2  1  1  1
  2  3  1  0
  4  3  1  0
  5  2  1  0
  6  5  2  0
  7  5  1  0
  8  7  1  0
  9 16  1  0
  9  8  1  0
 10  9  2  0
 11 12  1  0
 12 13  2  0
 12 14  1  0
 15 14  1  1
 15 17  1  0
 15 16  1  0
 17 19  1  0
 18 17  2  0
M  END
$$$$
