CGN.pdb
     RDKit          3D

 19 18  0  0  1  0  0  0  0  0999 V2000
   18.8857  -11.4250  -17.1516 N   0  0  0  0  0  0  0  0  0  0  0  0
   17.7589  -11.2979  -16.2818 C   0  0  1  0  0  0  0  0  0  0  0  0
   17.3502  -12.6586  -15.7595 C   0  0  0  0  0  0  0  0  0  0  0  0
   16.3676  -13.4580  -17.0546 S   0  0  0  0  0  0  0  0  0  0  0  0
   18.0105  -10.3591  -15.1531 C   0  0  0  0  0  0  0  0  0  0  0  0
   17.5445  -10.6006  -14.0113 O   0  0  0  0  0  0  0  0  0  0  0  0
   18.7729   -9.1751  -15.3169 N   0  0  0  0  0  0  0  0  0  0  0  0
   19.1826   -8.3317  -14.2350 C   0  0  0  0  0  0  0  0  0  0  0  0
   20.0233   -7.1946  -14.6871 C   0  0  0  0  0  0  0  0  0  0  0  0
   20.6928   -7.3434  -15.7389 O   0  0  0  0  0  0  0  0  0  0  0  0
   18.9247   -3.4091  -15.4608 N   0  0  0  0  0  0  0  0  0  0  0  0
   19.4718   -2.9335  -14.2190 C   0  0  0  0  0  0  0  0  0  0  0  0
   18.9663   -1.9176  -13.7113 O   0  0  0  0  0  0  0  0  0  0  0  0
   20.5906   -3.6561  -13.6074 C   0  0  0  0  0  0  0  0  0  0  0  0
   20.9550   -4.8701  -14.4340 C   0  0  2  0  0  0  0  0  0  0  0  0
   20.1119   -5.9645  -14.0061 N   0  0  0  0  0  0  0  0  0  0  0  0
   22.3975   -5.1403  -14.3350 C   0  0  0  0  0  0  0  0  0  0  0  0
   23.1894   -4.5135  -15.0691 O   0  0  0  0  0  0  0  0  0  0  0  0
   22.8646   -6.0703  -13.4459 O   0  0  0  0  0  0  0  0  0  0  0  0
  2  1  1  1
  2  3  1  0
  4  3  1  0
  5  2  1  0
  6  5  2  0
  7  5  1  0
  8  7  1  0
  9 16  1  0
  9  8  1  0
 10  9  2  0
 11 12  1  0
 12 13  2  0
 12 14  1  0
 15 14  1  1
 15 17  1  0
 15 16  1  0
 17 19  1  0
 18 17  2  0
M  END
$$$$
