CGN.pdb
     RDKit          3D

 19 18  0  0  1  0  0  0  0  0999 V2000
   26.9832  -21.9249  -10.9150 N   0  0  0  0  0  0  0  0  0  0  0  0
   25.6876  -21.3358  -11.0453 C   0  0  1  0  0  0  0  0  0  0  0  0
   25.5095  -20.2405  -10.0159 C   0  0  0  0  0  0  0  0  0  0  0  0
   25.3912  -21.0410   -8.3951 S   0  0  0  0  0  0  0  0  0  0  0  0
   25.4332  -20.8108  -12.4159 C   0  0  0  0  0  0  0  0  0  0  0  0
   26.3372  -20.1992  -13.0388 O   0  0  0  0  0  0  0  0  0  0  0  0
   24.1829  -20.9764  -13.0633 N   0  0  0  0  0  0  0  0  0  0  0  0
   23.1674  -19.9685  -13.1111 C   0  0  0  0  0  0  0  0  0  0  0  0
   23.2624  -19.1224  -14.3273 C   0  0  0  0  0  0  0  0  0  0  0  0
   22.2787  -18.3966  -14.6139 O   0  0  0  0  0  0  0  0  0  0  0  0
   27.1172  -17.3625  -14.5325 N   0  0  0  0  0  0  0  0  0  0  0  0
   26.3589  -16.9485  -15.6821 C   0  0  0  0  0  0  0  0  0  0  0  0
   26.1198  -15.7360  -15.8159 O   0  0  0  0  0  0  0  0  0  0  0  0
   25.9030  -17.9598  -16.6397 C   0  0  0  0  0  0  0  0  0  0  0  0
   24.4521  -18.3112  -16.3918 C   0  0  2  0  0  0  0  0  0  0  0  0
   24.3882  -19.0880  -15.1735 N   0  0  0  0  0  0  0  0  0  0  0  0
   23.8811  -18.9815  -17.5700 C   0  0  0  0  0  0  0  0  0  0  0  0
   23.2725  -18.3043  -18.4243 O   0  0  0  0  0  0  0  0  0  0  0  0
   24.0169  -20.3345  -17.7259 O   0  0  0  0  0  0  0  0  0  0  0  0
  2  1  1  6
  2  3  1  0
  4  3  1  0
  5  2  1  0
  6  5  2  0
  7  5  1  0
  8  7  1  0
  9 16  1  0
  9  8  1  0
 10  9  2  0
 11 12  1  0
 12 13  2  0
 12 14  1  0
 15 14  1  6
 15 17  1  0
 15 16  1  0
 17 19  1  0
 18 17  2  0
M  END
$$$$
