CGN.pdb
     RDKit          3D

 19 18  0  0  1  0  0  0  0  0999 V2000
   28.1404  -12.8948  -17.7051 N   0  0  0  0  0  0  0  0  0  0  0  0
   27.5682  -12.4090  -16.4889 C   0  0  1  0  0  0  0  0  0  0  0  0
   28.5095  -12.6687  -15.3322 C   0  0  0  0  0  0  0  0  0  0  0  0
   28.3599  -14.4219  -14.9015 S   0  0  0  0  0  0  0  0  0  0  0  0
   27.2148  -10.9638  -16.5603 C   0  0  0  0  0  0  0  0  0  0  0  0
   27.9163  -10.1719  -17.2386 O   0  0  0  0  0  0  0  0  0  0  0  0
   26.0922  -10.4307  -15.8781 N   0  0  0  0  0  0  0  0  0  0  0  0
   25.7135   -9.0506  -15.9178 C   0  0  0  0  0  0  0  0  0  0  0  0
   24.2408   -8.8656  -15.9515 C   0  0  0  0  0  0  0  0  0  0  0  0
   23.5195   -9.8659  -15.7155 O   0  0  0  0  0  0  0  0  0  0  0  0
   19.3166   -8.7794  -14.9517 N   0  0  0  0  0  0  0  0  0  0  0  0
   20.1563   -7.6126  -14.9179 C   0  0  0  0  0  0  0  0  0  0  0  0
   19.6046   -6.4992  -14.8827 O   0  0  0  0  0  0  0  0  0  0  0  0
   21.6123   -7.7792  -14.9262 C   0  0  0  0  0  0  0  0  0  0  0  0
   22.1753   -7.4691  -16.2963 C   0  0  2  0  0  0  0  0  0  0  0  0
   23.6103   -7.6374  -16.2321 N   0  0  0  0  0  0  0  0  0  0  0  0
   21.7395   -6.1351  -16.7368 C   0  0  0  0  0  0  0  0  0  0  0  0
   20.5776   -5.9820  -17.1671 O   0  0  0  0  0  0  0  0  0  0  0  0
   22.6014   -5.0736  -16.6746 O   0  0  0  0  0  0  0  0  0  0  0  0
  2  1  1  6
  2  3  1  0
  4  3  1  0
  5  2  1  0
  6  5  2  0
  7  5  1  0
  8  7  1  0
  9 16  1  0
  9  8  1  0
 10  9  2  0
 11 12  1  0
 12 13  2  0
 12 14  1  0
 15 14  1  1
 15 17  1  0
 15 16  1  0
 17 19  1  0
 18 17  2  0
M  END
$$$$
