CGN.pdb
     RDKit          3D

 19 18  0  0  1  0  0  0  0  0999 V2000
   25.8435  -14.9028  -14.7037 N   0  0  0  0  0  0  0  0  0  0  0  0
   25.5937  -15.2492  -16.0675 C   0  0  1  0  0  0  0  0  0  0  0  0
   25.2877  -16.7274  -16.1801 C   0  0  0  0  0  0  0  0  0  0  0  0
   26.7814  -17.6243  -15.6841 S   0  0  0  0  0  0  0  0  0  0  0  0
   24.4976  -14.4415  -16.6714 C   0  0  0  0  0  0  0  0  0  0  0  0
   24.3046  -14.4618  -17.9130 O   0  0  0  0  0  0  0  0  0  0  0  0
   23.6414  -13.6305  -15.8845 N   0  0  0  0  0  0  0  0  0  0  0  0
   22.5901  -12.8209  -16.4220 C   0  0  0  0  0  0  0  0  0  0  0  0
   22.5411  -11.4705  -15.8070 C   0  0  0  0  0  0  0  0  0  0  0  0
   23.1641  -11.2940  -14.7313 O   0  0  0  0  0  0  0  0  0  0  0  0
   20.8058   -5.6535  -16.9942 N   0  0  0  0  0  0  0  0  0  0  0  0
   21.5255   -6.7035  -16.3255 C   0  0  0  0  0  0  0  0  0  0  0  0
   22.2098   -6.3996  -15.3332 O   0  0  0  0  0  0  0  0  0  0  0  0
   21.4257   -8.0745  -16.8336 C   0  0  0  0  0  0  0  0  0  0  0  0
   21.7861   -9.0700  -15.7522 C   0  0  2  0  0  0  0  0  0  0  0  0
   21.8385  -10.3814  -16.3595 N   0  0  0  0  0  0  0  0  0  0  0  0
   20.8482   -8.9600  -14.6246 C   0  0  0  0  0  0  0  0  0  0  0  0
   19.7816   -9.6085  -14.6502 O   0  0  0  0  0  0  0  0  0  0  0  0
   21.1440   -8.1538  -13.5588 O   0  0  0  0  0  0  0  0  0  0  0  0
  2  1  1  1
  2  3  1  0
  4  3  1  0
  5  2  1  0
  6  5  2  0
  7  5  1  0
  8  7  1  0
  9 16  1  0
  9  8  1  0
 10  9  2  0
 11 12  1  0
 12 13  2  0
 12 14  1  0
 15 14  1  6
 15 17  1  0
 15 16  1  0
 17 19  1  0
 18 17  2  0
M  END
$$$$
