CGN.pdb
     RDKit          3D

 19 18  0  0  1  0  0  0  0  0999 V2000
   26.4984  -14.6752  -17.0849 N   0  0  0  0  0  0  0  0  0  0  0  0
   25.8825  -14.4113  -15.8225 C   0  0  1  0  0  0  0  0  0  0  0  0
   26.5604  -15.2175  -14.7355 C   0  0  0  0  0  0  0  0  0  0  0  0
   26.0749  -16.9473  -14.9679 S   0  0  0  0  0  0  0  0  0  0  0  0
   25.8848  -12.9625  -15.4767 C   0  0  0  0  0  0  0  0  0  0  0  0
   26.9135  -12.2664  -15.6679 O   0  0  0  0  0  0  0  0  0  0  0  0
   24.7469  -12.3198  -14.9272 N   0  0  0  0  0  0  0  0  0  0  0  0
   24.6972  -10.9283  -14.5943 C   0  0  0  0  0  0  0  0  0  0  0  0
   23.5525  -10.2311  -15.2328 C   0  0  0  0  0  0  0  0  0  0  0  0
   22.9374  -10.8322  -16.1477 O   0  0  0  0  0  0  0  0  0  0  0  0
   18.7024   -7.4884  -14.2903 N   0  0  0  0  0  0  0  0  0  0  0  0
   19.9455   -7.0542  -14.8681 C   0  0  0  0  0  0  0  0  0  0  0  0
   19.8997   -6.2189  -15.7876 O   0  0  0  0  0  0  0  0  0  0  0  0
   21.2029   -7.6065  -14.3567 C   0  0  0  0  0  0  0  0  0  0  0  0
   21.9779   -8.2815  -15.4675 C   0  0  2  0  0  0  0  0  0  0  0  0
   23.1196   -8.9399  -14.8720 N   0  0  0  0  0  0  0  0  0  0  0  0
   22.3174   -7.3083  -16.5168 C   0  0  0  0  0  0  0  0  0  0  0  0
   23.3818   -6.6615  -16.4305 O   0  0  0  0  0  0  0  0  0  0  0  0
   21.4729   -7.1154  -17.5766 O   0  0  0  0  0  0  0  0  0  0  0  0
  2  1  1  6
  2  3  1  0
  4  3  1  0
  5  2  1  0
  6  5  2  0
  7  5  1  0
  8  7  1  0
  9 16  1  0
  9  8  1  0
 10  9  2  0
 11 12  1  0
 12 13  2  0
 12 14  1  0
 15 14  1  1
 15 17  1  0
 15 16  1  0
 17 19  1  0
 18 17  2  0
M  END
$$$$
