CGN.pdb
     RDKit          3D

 19 18  0  0  1  0  0  0  0  0999 V2000
   13.6516  -13.1096  -13.9521 N   0  0  0  0  0  0  0  0  0  0  0  0
   14.5952  -13.8546  -14.7248 C   0  0  1  0  0  0  0  0  0  0  0  0
   13.8700  -14.7777  -15.6804 C   0  0  0  0  0  0  0  0  0  0  0  0
   13.0782  -16.0672  -14.6845 S   0  0  0  0  0  0  0  0  0  0  0  0
   15.5465  -12.9794  -15.4648 C   0  0  0  0  0  0  0  0  0  0  0  0
   16.5778  -13.4668  -15.9923 O   0  0  0  0  0  0  0  0  0  0  0  0
   15.3321  -11.5848  -15.6026 N   0  0  0  0  0  0  0  0  0  0  0  0
   16.2147  -10.7058  -16.3082 C   0  0  0  0  0  0  0  0  0  0  0  0
   17.1515   -9.9935  -15.4032 C   0  0  0  0  0  0  0  0  0  0  0  0
   16.8368   -9.8991  -14.1913 O   0  0  0  0  0  0  0  0  0  0  0  0
   21.1617   -7.4682  -13.4720 N   0  0  0  0  0  0  0  0  0  0  0  0
   21.5387   -7.8177  -14.8149 C   0  0  0  0  0  0  0  0  0  0  0  0
   22.6940   -7.5461  -15.1847 O   0  0  0  0  0  0  0  0  0  0  0  0
   20.5581   -8.4727  -15.6851 C   0  0  0  0  0  0  0  0  0  0  0  0
   19.2511   -8.6810  -14.9512 C   0  0  2  0  0  0  0  0  0  0  0  0
   18.3673   -9.4203  -15.8252 N   0  0  0  0  0  0  0  0  0  0  0  0
   18.7125   -7.3913  -14.4927 C   0  0  0  0  0  0  0  0  0  0  0  0
   18.0701   -6.6778  -15.2908 O   0  0  0  0  0  0  0  0  0  0  0  0
   18.9152   -6.9796  -13.2031 O   0  0  0  0  0  0  0  0  0  0  0  0
  2  1  1  6
  2  3  1  0
  4  3  1  0
  5  2  1  0
  6  5  2  0
  7  5  1  0
  8  7  1  0
  9 16  1  0
  9  8  1  0
 10  9  2  0
 11 12  1  0
 12 13  2  0
 12 14  1  0
 15 14  1  6
 15 17  1  0
 15 16  1  0
 17 19  1  0
 18 17  2  0
M  END
$$$$
