CGN.pdb
     RDKit          3D

 19 18  0  0  1  0  0  0  0  0999 V2000
   18.0246  -13.3486  -14.5416 N   0  0  0  0  0  0  0  0  0  0  0  0
   17.2665  -12.6437  -15.5269 C   0  0  1  0  0  0  0  0  0  0  0  0
   15.8689  -13.2184  -15.6158 C   0  0  0  0  0  0  0  0  0  0  0  0
   16.0362  -15.0152  -15.7738 S   0  0  0  0  0  0  0  0  0  0  0  0
   17.2130  -11.1780  -15.2670 C   0  0  0  0  0  0  0  0  0  0  0  0
   16.1062  -10.5892  -15.1800 O   0  0  0  0  0  0  0  0  0  0  0  0
   18.3876  -10.4000  -15.1095 N   0  0  0  0  0  0  0  0  0  0  0  0
   18.3897   -9.0303  -14.6927 C   0  0  0  0  0  0  0  0  0  0  0  0
   19.7489   -8.4333  -14.7078 C   0  0  0  0  0  0  0  0  0  0  0  0
   20.6931   -9.1379  -15.1420 O   0  0  0  0  0  0  0  0  0  0  0  0
   23.3643   -5.4983  -17.4421 N   0  0  0  0  0  0  0  0  0  0  0  0
   22.9946   -5.9048  -16.1133 C   0  0  0  0  0  0  0  0  0  0  0  0
   23.8181   -5.7257  -15.1995 O   0  0  0  0  0  0  0  0  0  0  0  0
   21.6773   -6.5073  -15.8905 C   0  0  0  0  0  0  0  0  0  0  0  0
   21.3296   -6.4961  -14.4177 C   0  0  2  0  0  0  0  0  0  0  0  0
   20.0375   -7.1275  -14.2646 N   0  0  0  0  0  0  0  0  0  0  0  0
   21.4029   -5.1264  -13.8867 C   0  0  0  0  0  0  0  0  0  0  0  0
   20.4307   -4.3580  -14.0394 O   0  0  0  0  0  0  0  0  0  0  0  0
   22.5271   -4.7006  -13.2322 O   0  0  0  0  0  0  0  0  0  0  0  0
  2  1  1  1
  2  3  1  0
  4  3  1  0
  5  2  1  0
  6  5  2  0
  7  5  1  0
  8  7  1  0
  9 16  1  0
  9  8  1  0
 10  9  2  0
 11 12  1  0
 12 13  2  0
 12 14  1  0
 15 14  1  6
 15 17  1  0
 15 16  1  0
 17 19  1  0
 18 17  2  0
M  END
$$$$
