CGN.pdb
     RDKit          3D

 19 18  0  0  1  0  0  0  0  0999 V2000
   25.8108  -22.3593  -11.8031 N   0  0  0  0  0  0  0  0  0  0  0  0
   25.3190  -21.0263  -11.9576 C   0  0  1  0  0  0  0  0  0  0  0  0
   25.9412  -20.1195  -10.9175 C   0  0  0  0  0  0  0  0  0  0  0  0
   25.4308  -20.7368   -9.2926 S   0  0  0  0  0  0  0  0  0  0  0  0
   25.5500  -20.4864  -13.3265 C   0  0  0  0  0  0  0  0  0  0  0  0
   26.5661  -20.8306  -13.9809 O   0  0  0  0  0  0  0  0  0  0  0  0
   24.6492  -19.5780  -13.9374 N   0  0  0  0  0  0  0  0  0  0  0  0
   24.2965  -19.6124  -15.3244 C   0  0  0  0  0  0  0  0  0  0  0  0
   22.9372  -20.1643  -15.5523 C   0  0  0  0  0  0  0  0  0  0  0  0
   22.5315  -20.2505  -16.7374 O   0  0  0  0  0  0  0  0  0  0  0  0
   20.3211  -21.7484  -11.0402 N   0  0  0  0  0  0  0  0  0  0  0  0
   20.3030  -21.1504  -12.3477 C   0  0  0  0  0  0  0  0  0  0  0  0
   20.1805  -19.9156  -12.4215 O   0  0  0  0  0  0  0  0  0  0  0  0
   20.4282  -22.0095  -13.5285 C   0  0  0  0  0  0  0  0  0  0  0  0
   20.7827  -21.1878  -14.7488 C   0  0  2  0  0  0  0  0  0  0  0  0
   22.0814  -20.5944  -14.5192 N   0  0  0  0  0  0  0  0  0  0  0  0
   19.7150  -20.2185  -15.0388 C   0  0  0  0  0  0  0  0  0  0  0  0
   18.5979  -20.6321  -15.4128 O   0  0  0  0  0  0  0  0  0  0  0  0
   19.9464  -18.8767  -14.8992 O   0  0  0  0  0  0  0  0  0  0  0  0
  2  1  1  6
  2  3  1  0
  4  3  1  0
  5  2  1  0
  6  5  2  0
  7  5  1  0
  8  7  1  0
  9 16  1  0
  9  8  1  0
 10  9  2  0
 11 12  1  0
 12 13  2  0
 12 14  1  0
 15 14  1  1
 15 17  1  0
 15 16  1  0
 17 19  1  0
 18 17  2  0
M  END
$$$$
