CGN.pdb
     RDKit          3D

 19 18  0  0  1  0  0  0  0  0999 V2000
   22.5004  -11.5308  -16.4612 N   0  0  0  0  0  0  0  0  0  0  0  0
   23.5156  -11.0566  -15.5740 C   0  0  1  0  0  0  0  0  0  0  0  0
   24.7962  -10.8011  -16.3396 C   0  0  0  0  0  0  0  0  0  0  0  0
   25.3325  -12.3863  -17.0332 S   0  0  0  0  0  0  0  0  0  0  0  0
   23.0998   -9.8354  -14.8294 C   0  0  0  0  0  0  0  0  0  0  0  0
   23.8579   -9.3320  -13.9628 O   0  0  0  0  0  0  0  0  0  0  0  0
   21.8535   -9.2013  -15.0632 N   0  0  0  0  0  0  0  0  0  0  0  0
   21.3375   -8.1324  -14.2628 C   0  0  0  0  0  0  0  0  0  0  0  0
   21.5328   -6.8032  -14.8946 C   0  0  0  0  0  0  0  0  0  0  0  0
   22.2262   -6.7479  -15.9399 O   0  0  0  0  0  0  0  0  0  0  0  0
   18.8155   -4.6169  -16.2544 N   0  0  0  0  0  0  0  0  0  0  0  0
   18.8401   -3.6606  -15.1807 C   0  0  0  0  0  0  0  0  0  0  0  0
   17.7729   -3.1013  -14.8748 O   0  0  0  0  0  0  0  0  0  0  0  0
   20.1069   -3.3858  -14.4971 C   0  0  0  0  0  0  0  0  0  0  0  0
   21.1939   -4.3113  -14.9992 C   0  0  2  0  0  0  0  0  0  0  0  0
   20.9868   -5.6065  -14.3900 N   0  0  0  0  0  0  0  0  0  0  0  0
   22.5193   -3.7260  -14.7459 C   0  0  0  0  0  0  0  0  0  0  0  0
   22.9951   -3.7647  -13.5923 O   0  0  0  0  0  0  0  0  0  0  0  0
   23.2221   -3.1450  -15.7667 O   0  0  0  0  0  0  0  0  0  0  0  0
  2  1  1  6
  2  3  1  0
  4  3  1  0
  5  2  1  0
  6  5  2  0
  7  5  1  0
  8  7  1  0
  9 16  1  0
  9  8  1  0
 10  9  2  0
 11 12  1  0
 12 13  2  0
 12 14  1  0
 15 14  1  1
 15 17  1  0
 15 16  1  0
 17 19  1  0
 18 17  2  0
M  END
$$$$
