CGN.pdb
     RDKit          3D

 19 18  0  0  1  0  0  0  0  0999 V2000
   27.4582  -21.8959  -12.6465 N   0  0  0  0  0  0  0  0  0  0  0  0
   27.7314  -20.6138  -12.0772 C   0  0  1  0  0  0  0  0  0  0  0  0
   29.2085  -20.4851  -11.7726 C   0  0  0  0  0  0  0  0  0  0  0  0
   29.5851  -21.6507  -10.4379 S   0  0  0  0  0  0  0  0  0  0  0  0
   27.2780  -19.4932  -12.9474 C   0  0  0  0  0  0  0  0  0  0  0  0
   27.8756  -18.3880  -12.9212 O   0  0  0  0  0  0  0  0  0  0  0  0
   26.1730  -19.6243  -13.8259 N   0  0  0  0  0  0  0  0  0  0  0  0
   25.9315  -18.7604  -14.9417 C   0  0  0  0  0  0  0  0  0  0  0  0
   24.7573  -19.1840  -15.7453 C   0  0  0  0  0  0  0  0  0  0  0  0
   24.2976  -18.3705  -16.5840 O   0  0  0  0  0  0  0  0  0  0  0  0
   21.2213  -23.1035  -13.3146 N   0  0  0  0  0  0  0  0  0  0  0  0
   21.7005  -21.7551  -13.1732 C   0  0  0  0  0  0  0  0  0  0  0  0
   20.9816  -20.9424  -12.5666 O   0  0  0  0  0  0  0  0  0  0  0  0
   23.0021  -21.3956  -13.7427 C   0  0  0  0  0  0  0  0  0  0  0  0
   22.8237  -20.6311  -15.0364 C   0  0  2  0  0  0  0  0  0  0  0  0
   24.1329  -20.4407  -15.6206 N   0  0  0  0  0  0  0  0  0  0  0  0
   22.0799  -19.3854  -14.7942 C   0  0  0  0  0  0  0  0  0  0  0  0
   22.6160  -18.4708  -14.1348 O   0  0  0  0  0  0  0  0  0  0  0  0
   20.8124  -19.2329  -15.2880 O   0  0  0  0  0  0  0  0  0  0  0  0
  2  1  1  6
  2  3  1  0
  4  3  1  0
  5  2  1  0
  6  5  2  0
  7  5  1  0
  8  7  1  0
  9 16  1  0
  9  8  1  0
 10  9  2  0
 11 12  1  0
 12 13  2  0
 12 14  1  0
 15 14  1  1
 15 17  1  0
 15 16  1  0
 17 19  1  0
 18 17  2  0
M  END
$$$$
