CGN.pdb
     RDKit          3D

 19 18  0  0  1  0  0  0  0  0999 V2000
   25.4192  -16.5315  -16.5596 N   0  0  0  0  0  0  0  0  0  0  0  0
   26.8364  -16.4834  -16.3816 C   0  0  1  0  0  0  0  0  0  0  0  0
   27.1779  -15.6673  -15.1533 C   0  0  0  0  0  0  0  0  0  0  0  0
   26.1532  -14.1741  -15.1987 S   0  0  0  0  0  0  0  0  0  0  0  0
   27.4484  -17.8386  -16.2949 C   0  0  0  0  0  0  0  0  0  0  0  0
   28.6825  -17.9657  -16.0946 O   0  0  0  0  0  0  0  0  0  0  0  0
   26.6778  -19.0207  -16.4324 N   0  0  0  0  0  0  0  0  0  0  0  0
   27.2151  -20.3430  -16.3213 C   0  0  0  0  0  0  0  0  0  0  0  0
   26.7705  -21.0358  -15.0857 C   0  0  0  0  0  0  0  0  0  0  0  0
   27.0285  -22.2597  -14.9756 O   0  0  0  0  0  0  0  0  0  0  0  0
   26.0861  -21.9162   -9.6436 N   0  0  0  0  0  0  0  0  0  0  0  0
   25.2856  -21.0726  -10.4893 C   0  0  0  0  0  0  0  0  0  0  0  0
   24.0870  -20.9232  -10.1956 O   0  0  0  0  0  0  0  0  0  0  0  0
   25.9064  -20.4295  -11.6507 C   0  0  0  0  0  0  0  0  0  0  0  0
   25.4721  -21.1100  -12.9307 C   0  0  2  0  0  0  0  0  0  0  0  0
   26.0790  -20.4007  -14.0354 N   0  0  0  0  0  0  0  0  0  0  0  0
   24.0047  -21.1900  -12.9934 C   0  0  0  0  0  0  0  0  0  0  0  0
   23.3650  -20.2733  -13.5494 O   0  0  0  0  0  0  0  0  0  0  0  0
   23.3493  -22.2599  -12.4464 O   0  0  0  0  0  0  0  0  0  0  0  0
  2  1  1  1
  2  3  1  0
  4  3  1  0
  5  2  1  0
  6  5  2  0
  7  5  1  0
  8  7  1  0
  9 16  1  0
  9  8  1  0
 10  9  2  0
 11 12  1  0
 12 13  2  0
 12 14  1  0
 15 14  1  1
 15 17  1  0
 15 16  1  0
 17 19  1  0
 18 17  2  0
M  END
$$$$
