CGN.pdb
     RDKit          3D

 19 18  0  0  1  0  0  0  0  0999 V2000
   20.8235  -12.1851  -17.3740 N   0  0  0  0  0  0  0  0  0  0  0  0
   19.4871  -12.4888  -17.7794 C   0  0  1  0  0  0  0  0  0  0  0  0
   19.0062  -13.7442  -17.0838 C   0  0  0  0  0  0  0  0  0  0  0  0
   19.7989  -15.1506  -17.9056 S   0  0  0  0  0  0  0  0  0  0  0  0
   18.5446  -11.3619  -17.5335 C   0  0  0  0  0  0  0  0  0  0  0  0
   17.3713  -11.4070  -17.9813 O   0  0  0  0  0  0  0  0  0  0  0  0
   18.9252  -10.2118  -16.7970 N   0  0  0  0  0  0  0  0  0  0  0  0
   18.0805   -9.0729  -16.5996 C   0  0  0  0  0  0  0  0  0  0  0  0
   18.6932   -8.0585  -15.7052 C   0  0  0  0  0  0  0  0  0  0  0  0
   18.0536   -6.9980  -15.4980 O   0  0  0  0  0  0  0  0  0  0  0  0
   21.8159   -5.6356  -12.4376 N   0  0  0  0  0  0  0  0  0  0  0  0
   21.1426   -6.7835  -11.8928 C   0  0  0  0  0  0  0  0  0  0  0  0
   21.1799   -6.9501  -10.6615 O   0  0  0  0  0  0  0  0  0  0  0  0
   20.4470   -7.7012  -12.7992 C   0  0  0  0  0  0  0  0  0  0  0  0
   20.5497   -7.2162  -14.2290 C   0  0  2  0  0  0  0  0  0  0  0  0
   19.9452   -8.2178  -15.0792 N   0  0  0  0  0  0  0  0  0  0  0  0
   21.9473   -6.9008  -14.5615 C   0  0  0  0  0  0  0  0  0  0  0  0
   22.5616   -7.6238  -15.3730 O   0  0  0  0  0  0  0  0  0  0  0  0
   22.5664   -5.8245  -13.9852 O   0  0  0  0  0  0  0  0  0  0  0  0
  2  1  1  1
  2  3  1  0
  4  3  1  0
  5  2  1  0
  6  5  2  0
  7  5  1  0
  8  7  1  0
  9 16  1  0
  9  8  1  0
 10  9  2  0
 11 12  1  0
 12 13  2  0
 12 14  1  0
 15 14  1  1
 15 17  1  0
 15 16  1  0
 17 19  1  0
 18 17  2  0
M  END
$$$$
