FNL.pdb
     RDKit          3D

 28 28  0  0  1  0  0  0  0  0999 V2000
    7.1469  -15.9401   22.2355 N   0  0  0  0  0  0  0  0  0  0  0  0
    7.7724  -16.8523   21.2724 C   0  0  1  0  0  0  0  0  0  0  0  0
    7.7439  -16.1144   19.9446 C   0  0  0  0  0  0  0  0  0  0  0  0
    7.8260  -14.6370   20.1279 C   0  0  0  0  0  0  0  0  0  0  0  0
    7.7620  -13.8039   19.0139 C   0  0  0  0  0  0  0  0  0  0  0  0
    7.8330  -12.4219   19.1415 C   0  0  0  0  0  0  0  0  0  0  0  0
    7.9691  -11.8353   20.3746 C   0  0  0  0  0  0  0  0  0  0  0  0
    8.0324  -12.6647   21.4798 C   0  0  0  0  0  0  0  0  0  0  0  0
    7.9622  -14.0455   21.3677 C   0  0  0  0  0  0  0  0  0  0  0  0
    9.1483  -17.1731   21.6936 C   0  0  0  0  0  0  0  0  0  0  0  0
    9.5738  -18.3164   21.4847 O   0  0  0  0  0  0  0  0  0  0  0  0
   12.2445  -15.2178   19.8123 N   0  0  0  0  0  0  0  0  0  0  0  0
   12.3480  -16.2086   20.8141 C   0  0  0  0  0  0  0  0  0  0  0  0
   12.4590  -17.4313   20.5059 O   0  0  0  0  0  0  0  0  0  0  0  0
   12.3283  -15.8315   22.2329 C   0  0  0  0  0  0  0  0  0  0  0  0
   11.2046  -16.5850   22.9874 C   0  0  2  0  0  0  0  0  0  0  0  0
    9.9754  -16.2260   22.3155 N   0  0  0  0  0  0  0  0  0  0  0  0
   11.2444  -16.1587   24.4057 C   0  0  0  0  0  0  0  0  0  0  0  0
   11.7495  -14.9867   24.5824 O   0  0  0  0  0  0  0  0  0  0  0  0
   10.9127  -13.6882   28.4780 C   0  0  0  0  0  0  0  0  0  0  0  0
    9.6704  -14.2639   27.8550 C   0  0  1  0  0  0  0  0  0  0  0  0
    8.6408  -13.1861   27.5685 C   0  0  0  0  0  0  0  0  0  0  0  0
    9.9436  -15.1484   26.7293 C   0  0  0  0  0  0  0  0  0  0  0  0
   10.7407  -16.3738   26.8479 C   0  0  2  0  0  0  0  0  0  0  0  0
   10.7858  -16.9312   25.4746 N   0  0  0  0  0  0  0  0  0  0  0  0
   10.3493  -17.4494   27.7275 C   0  0  0  0  0  0  0  0  0  0  0  0
   11.0055  -17.5756   28.9735 O   0  0  0  0  0  0  0  0  0  0  0  0
    9.4701  -18.3317   27.5434 O   0  0  0  0  0  0  0  0  0  0  0  0
  2  1  1  1
  2  3  1  0
  3  4  1  0
  4  5  2  0
  5  6  1  0
  7  6  2  0
  8  7  1  0
  9  4  1  0
  9  8  2  0
 10 11  2  0
 10  2  1  0
 13 12  1  0
 14 13  2  0
 15 13  1  0
 16 15  1  6
 16 17  1  0
 17 10  1  0
 18 16  1  0
 18 25  1  0
 19 18  2  0
 21 20  1  6
 21 22  1  0
 23 21  1  0
 24 25  1  0
 24 23  1  6
 26 24  1  0
 27 26  1  0
 28 26  2  0
M  END
$$$$
