FNL.pdb
     RDKit          3D

 28 28  0  0  1  0  0  0  0  0999 V2000
    6.7759  -18.0857   22.0667 N   0  0  0  0  0  0  0  0  0  0  0  0
    7.4412  -16.9748   22.7554 C   0  0  1  0  0  0  0  0  0  0  0  0
    6.5415  -16.6361   23.9318 C   0  0  0  0  0  0  0  0  0  0  0  0
    6.9160  -15.3379   24.5622 C   0  0  0  0  0  0  0  0  0  0  0  0
    6.5865  -15.1031   25.8947 C   0  0  0  0  0  0  0  0  0  0  0  0
    6.9189  -13.9075   26.5203 C   0  0  0  0  0  0  0  0  0  0  0  0
    7.5841  -12.9187   25.8398 C   0  0  0  0  0  0  0  0  0  0  0  0
    7.9104  -13.1540   24.5164 C   0  0  0  0  0  0  0  0  0  0  0  0
    7.5857  -14.3426   23.8793 C   0  0  0  0  0  0  0  0  0  0  0  0
    8.7892  -17.3806   23.1933 C   0  0  0  0  0  0  0  0  0  0  0  0
    8.9310  -18.5067   23.6869 O   0  0  0  0  0  0  0  0  0  0  0  0
   11.9169  -17.2540   20.9785 N   0  0  0  0  0  0  0  0  0  0  0  0
   12.5106  -16.1402   21.6134 C   0  0  0  0  0  0  0  0  0  0  0  0
   13.3363  -15.4070   20.9949 O   0  0  0  0  0  0  0  0  0  0  0  0
   12.1759  -15.8167   23.0059 C   0  0  0  0  0  0  0  0  0  0  0  0
   11.2020  -16.8668   23.5964 C   0  0  2  0  0  0  0  0  0  0  0  0
    9.8994  -16.5329   23.0644 N   0  0  0  0  0  0  0  0  0  0  0  0
   11.2744  -16.7742   25.0732 C   0  0  0  0  0  0  0  0  0  0  0  0
   12.4474  -17.0087   25.5520 O   0  0  0  0  0  0  0  0  0  0  0  0
    8.1579  -13.2462   27.7274 C   0  0  0  0  0  0  0  0  0  0  0  0
    9.4406  -13.9914   27.4780 C   0  0  1  0  0  0  0  0  0  0  0  0
   10.6301  -13.2712   28.0865 C   0  0  0  0  0  0  0  0  0  0  0  0
    9.3615  -15.4081   27.8108 C   0  0  0  0  0  0  0  0  0  0  0  0
   10.3560  -16.3918   27.3699 C   0  0  2  0  0  0  0  0  0  0  0  0
   10.1914  -16.4639   25.8980 N   0  0  0  0  0  0  0  0  0  0  0  0
   10.3488  -17.7487   27.8625 C   0  0  0  0  0  0  0  0  0  0  0  0
    9.6856  -18.7395   27.1026 O   0  0  0  0  0  0  0  0  0  0  0  0
   10.8694  -18.2030   28.9151 O   0  0  0  0  0  0  0  0  0  0  0  0
  2  1  1  1
  2  3  1  0
  3  4  1  0
  4  5  2  0
  5  6  1  0
  7  6  2  0
  8  7  1  0
  9  4  1  0
  9  8  2  0
 10 11  2  0
 10  2  1  0
 13 12  1  0
 14 13  2  0
 15 13  1  0
 16 15  1  6
 16 17  1  0
 17 10  1  0
 18 16  1  0
 18 25  1  0
 19 18  2  0
 21 20  1  1
 21 22  1  0
 23 21  1  0
 24 25  1  0
 24 23  1  1
 26 24  1  0
 27 26  1  0
 28 26  2  0
M  END
$$$$
