FNL.pdb
     RDKit          3D

 28 28  0  0  1  0  0  0  0  0999 V2000
    6.7477  -18.0964   20.5623 N   0  0  0  0  0  0  0  0  0  0  0  0
    7.5142  -16.8802   20.8530 C   0  0  1  0  0  0  0  0  0  0  0  0
    6.4742  -15.8010   21.1020 C   0  0  0  0  0  0  0  0  0  0  0  0
    7.0899  -14.4460   21.1919 C   0  0  0  0  0  0  0  0  0  0  0  0
    7.0603  -13.7590   22.4028 C   0  0  0  0  0  0  0  0  0  0  0  0
    7.6241  -12.4951   22.5293 C   0  0  0  0  0  0  0  0  0  0  0  0
    8.2290  -11.8844   21.4595 C   0  0  0  0  0  0  0  0  0  0  0  0
    8.2573  -12.5686   20.2577 C   0  0  0  0  0  0  0  0  0  0  0  0
    7.6993  -13.8306   20.1169 C   0  0  0  0  0  0  0  0  0  0  0  0
    8.3792  -17.0915   22.0279 C   0  0  0  0  0  0  0  0  0  0  0  0
    7.9389  -17.7683   22.9659 O   0  0  0  0  0  0  0  0  0  0  0  0
   12.8838  -16.8426   20.3691 N   0  0  0  0  0  0  0  0  0  0  0  0
   12.4292  -17.3670   21.5997 C   0  0  0  0  0  0  0  0  0  0  0  0
   12.3941  -18.6168   21.7970 O   0  0  0  0  0  0  0  0  0  0  0  0
   11.9895  -16.4649   22.6714 C   0  0  0  0  0  0  0  0  0  0  0  0
   10.5834  -16.8638   23.1847 C   0  0  2  0  0  0  0  0  0  0  0  0
    9.6719  -16.5522   22.1061 N   0  0  0  0  0  0  0  0  0  0  0  0
   10.3152  -16.0929   24.4211 C   0  0  0  0  0  0  0  0  0  0  0  0
   11.0511  -15.0432   24.5492 O   0  0  0  0  0  0  0  0  0  0  0  0
    6.1772  -13.4873   26.5493 C   0  0  0  0  0  0  0  0  0  0  0  0
    7.6156  -13.8554   26.3073 C   0  0  1  0  0  0  0  0  0  0  0  0
    8.5575  -12.7695   26.7944 C   0  0  0  0  0  0  0  0  0  0  0  0
    7.9554  -15.1961   26.7669 C   0  0  0  0  0  0  0  0  0  0  0  0
    9.3109  -15.7509   26.6880 C   0  0  2  0  0  0  0  0  0  0  0  0
    9.3611  -16.4442   25.3782 N   0  0  0  0  0  0  0  0  0  0  0  0
    9.8079  -16.6786   27.6760 C   0  0  0  0  0  0  0  0  0  0  0  0
    9.7375  -18.0631   27.3982 O   0  0  0  0  0  0  0  0  0  0  0  0
   10.3192  -16.4279   28.7990 O   0  0  0  0  0  0  0  0  0  0  0  0
  2  1  1  1
  2  3  1  0
  3  4  1  0
  4  5  2  0
  5  6  1  0
  7  6  2  0
  8  7  1  0
  9  4  1  0
  9  8  2  0
 10 11  2  0
 10  2  1  0
 13 12  1  0
 14 13  2  0
 15 13  1  0
 16 15  1  6
 16 17  1  0
 17 10  1  0
 18 16  1  0
 18 25  1  0
 19 18  2  0
 21 20  1  1
 21 22  1  0
 23 21  1  0
 24 25  1  0
 24 23  1  1
 26 24  1  0
 27 26  1  0
 28 26  2  0
M  END
$$$$
