FNL.pdb
     RDKit          3D

 28 28  0  0  1  0  0  0  0  0999 V2000
    6.9191  -18.4125   21.9227 N   0  0  0  0  0  0  0  0  0  0  0  0
    7.4370  -17.2162   22.5949 C   0  0  1  0  0  0  0  0  0  0  0  0
    6.4440  -16.9190   23.7056 C   0  0  0  0  0  0  0  0  0  0  0  0
    6.7414  -15.6259   24.3857 C   0  0  0  0  0  0  0  0  0  0  0  0
    6.4314  -15.4742   25.7348 C   0  0  0  0  0  0  0  0  0  0  0  0
    6.6941  -14.2861   26.4063 C   0  0  0  0  0  0  0  0  0  0  0  0
    7.2688  -13.2229   25.7564 C   0  0  0  0  0  0  0  0  0  0  0  0
    7.5759  -13.3758   24.4164 C   0  0  0  0  0  0  0  0  0  0  0  0
    7.3202  -14.5557   23.7335 C   0  0  0  0  0  0  0  0  0  0  0  0
    8.7900  -17.4727   23.1212 C   0  0  0  0  0  0  0  0  0  0  0  0
    9.0023  -18.5501   23.6923 O   0  0  0  0  0  0  0  0  0  0  0  0
   11.8037  -17.3218   20.8600 N   0  0  0  0  0  0  0  0  0  0  0  0
   12.3265  -16.1165   21.3796 C   0  0  0  0  0  0  0  0  0  0  0  0
   13.0239  -15.3480   20.6548 O   0  0  0  0  0  0  0  0  0  0  0  0
   12.0663  -15.7372   22.7739 C   0  0  0  0  0  0  0  0  0  0  0  0
   11.1685  -16.7888   23.4723 C   0  0  2  0  0  0  0  0  0  0  0  0
    9.8281  -16.5383   22.9907 N   0  0  0  0  0  0  0  0  0  0  0  0
   11.3100  -16.6073   24.9358 C   0  0  0  0  0  0  0  0  0  0  0  0
   12.4762  -16.9165   25.3877 O   0  0  0  0  0  0  0  0  0  0  0  0
   11.2730  -13.0960   27.4580 C   0  0  0  0  0  0  0  0  0  0  0  0
   10.2634  -13.7947   28.3271 C   0  0  1  0  0  0  0  0  0  0  0  0
    9.2464  -12.8202   28.8925 C   0  0  0  0  0  0  0  0  0  0  0  0
    9.6811  -14.9762   27.7033 C   0  0  0  0  0  0  0  0  0  0  0  0
   10.4807  -16.1176   27.2459 C   0  0  2  0  0  0  0  0  0  0  0  0
   10.2939  -16.1464   25.7752 N   0  0  0  0  0  0  0  0  0  0  0  0
   10.2356  -17.4557   27.7290 C   0  0  0  0  0  0  0  0  0  0  0  0
    9.2990  -18.2610   27.0410 O   0  0  0  0  0  0  0  0  0  0  0  0
   10.7556  -18.0401   28.7155 O   0  0  0  0  0  0  0  0  0  0  0  0
  2  1  1  1
  2  3  1  0
  3  4  1  0
  4  5  2  0
  5  6  1  0
  7  6  2  0
  8  7  1  0
  9  4  1  0
  9  8  2  0
 10 11  2  0
 10  2  1  0
 13 12  1  0
 14 13  2  0
 15 13  1  0
 16 15  1  6
 16 17  1  0
 17 10  1  0
 18 16  1  0
 18 25  1  0
 19 18  2  0
 21 20  1  6
 21 22  1  0
 23 21  1  0
 24 25  1  0
 24 23  1  1
 26 24  1  0
 27 26  1  0
 28 26  2  0
M  END
$$$$
