FNL.pdb
     RDKit          3D

 28 28  0  0  1  0  0  0  0  0999 V2000
    5.7852  -18.0355   23.9682 N   0  0  0  0  0  0  0  0  0  0  0  0
    6.6647  -16.8721   24.1237 C   0  0  1  0  0  0  0  0  0  0  0  0
    6.3136  -16.2826   25.4792 C   0  0  0  0  0  0  0  0  0  0  0  0
    6.6161  -14.8241   25.5463 C   0  0  0  0  0  0  0  0  0  0  0  0
    5.8700  -14.0079   26.3926 C   0  0  0  0  0  0  0  0  0  0  0  0
    6.1210  -12.6443   26.4859 C   0  0  0  0  0  0  0  0  0  0  0  0
    7.1157  -12.0596   25.7429 C   0  0  0  0  0  0  0  0  0  0  0  0
    7.8555  -12.8722   24.9029 C   0  0  0  0  0  0  0  0  0  0  0  0
    7.6167  -14.2347   24.8000 C   0  0  0  0  0  0  0  0  0  0  0  0
    8.0773  -17.2881   24.0544 C   0  0  0  0  0  0  0  0  0  0  0  0
    8.4022  -18.3525   24.5959 O   0  0  0  0  0  0  0  0  0  0  0  0
   13.1364  -17.2453   22.9658 N   0  0  0  0  0  0  0  0  0  0  0  0
   12.5300  -16.2439   22.1750 C   0  0  0  0  0  0  0  0  0  0  0  0
   13.1976  -15.6164   21.3017 O   0  0  0  0  0  0  0  0  0  0  0  0
   11.1103  -15.9163   22.3562 C   0  0  0  0  0  0  0  0  0  0  0  0
   10.4465  -16.8843   23.3672 C   0  0  2  0  0  0  0  0  0  0  0  0
    9.0480  -16.5174   23.3973 N   0  0  0  0  0  0  0  0  0  0  0  0
   11.1262  -16.7145   24.6726 C   0  0  0  0  0  0  0  0  0  0  0  0
   12.3681  -17.0572   24.6606 O   0  0  0  0  0  0  0  0  0  0  0  0
    8.6702  -13.8048   28.7163 C   0  0  0  0  0  0  0  0  0  0  0  0
    9.6819  -14.2549   27.6981 C   0  0  1  0  0  0  0  0  0  0  0  0
   10.6398  -13.1357   27.3327 C   0  0  0  0  0  0  0  0  0  0  0  0
   10.3316  -15.5128   28.0441 C   0  0  0  0  0  0  0  0  0  0  0  0
   11.2201  -16.2349   27.1273 C   0  0  2  0  0  0  0  0  0  0  0  0
   10.5072  -16.2310   25.8270 N   0  0  0  0  0  0  0  0  0  0  0  0
   11.6262  -17.5965   27.3821 C   0  0  0  0  0  0  0  0  0  0  0  0
   10.8389  -18.6459   26.8550 O   0  0  0  0  0  0  0  0  0  0  0  0
   12.6228  -18.0083   28.0321 O   0  0  0  0  0  0  0  0  0  0  0  0
  2  1  1  1
  2  3  1  0
  3  4  1  0
  4  5  2  0
  5  6  1  0
  7  6  2  0
  8  7  1  0
  9  4  1  0
  9  8  2  0
 10 11  2  0
 10  2  1  0
 13 12  1  0
 14 13  2  0
 15 13  1  0
 16 15  1  6
 16 17  1  0
 17 10  1  0
 18 16  1  0
 18 25  1  0
 19 18  2  0
 21 20  1  1
 21 22  1  0
 23 21  1  0
 24 25  1  0
 24 23  1  1
 26 24  1  0
 27 26  1  0
 28 26  2  0
M  END
$$$$
