FNL.pdb
     RDKit          3D

 28 28  0  0  1  0  0  0  0  0999 V2000
    7.4746  -16.2536   20.3988 N   0  0  0  0  0  0  0  0  0  0  0  0
    7.9483  -15.6486   21.6480 C   0  0  1  0  0  0  0  0  0  0  0  0
    6.7052  -15.0901   22.3195 C   0  0  0  0  0  0  0  0  0  0  0  0
    7.0164  -14.4747   23.6414 C   0  0  0  0  0  0  0  0  0  0  0  0
    7.6954  -13.2598   23.6888 C   0  0  0  0  0  0  0  0  0  0  0  0
    8.0031  -12.6520   24.9000 C   0  0  0  0  0  0  0  0  0  0  0  0
    7.6455  -13.2342   26.0902 C   0  0  0  0  0  0  0  0  0  0  0  0
    6.9712  -14.4409   26.0408 C   0  0  0  0  0  0  0  0  0  0  0  0
    6.6569  -15.0588   24.8394 C   0  0  0  0  0  0  0  0  0  0  0  0
    8.6163  -16.6625   22.4842 C   0  0  0  0  0  0  0  0  0  0  0  0
    7.9479  -17.6232   22.8867 O   0  0  0  0  0  0  0  0  0  0  0  0
   11.8963  -15.4469   22.4371 N   0  0  0  0  0  0  0  0  0  0  0  0
   12.5525  -16.6980   22.4451 C   0  0  0  0  0  0  0  0  0  0  0  0
   13.6516  -16.8561   21.8374 O   0  0  0  0  0  0  0  0  0  0  0  0
   11.9657  -17.8371   23.1620 C   0  0  0  0  0  0  0  0  0  0  0  0
   10.6002  -17.4519   23.7839 C   0  0  2  0  0  0  0  0  0  0  0  0
    9.9728  -16.5660   22.8285 N   0  0  0  0  0  0  0  0  0  0  0  0
   10.8617  -16.8120   25.0942 C   0  0  0  0  0  0  0  0  0  0  0  0
   11.9908  -16.1943   25.1550 O   0  0  0  0  0  0  0  0  0  0  0  0
    8.6375  -13.1890   27.9576 C   0  0  0  0  0  0  0  0  0  0  0  0
    9.8165  -14.0718   27.6519 C   0  0  1  0  0  0  0  0  0  0  0  0
   11.1101  -13.4731   28.1733 C   0  0  0  0  0  0  0  0  0  0  0  0
    9.6075  -15.4659   28.0221 C   0  0  0  0  0  0  0  0  0  0  0  0
   10.4674  -16.5575   27.5526 C   0  0  2  0  0  0  0  0  0  0  0  0
    9.9872  -16.8555   26.1817 N   0  0  0  0  0  0  0  0  0  0  0  0
   10.5451  -17.8158   28.2557 C   0  0  0  0  0  0  0  0  0  0  0  0
    9.7031  -18.8736   27.8419 O   0  0  0  0  0  0  0  0  0  0  0  0
   11.2850  -18.1271   29.2257 O   0  0  0  0  0  0  0  0  0  0  0  0
  2  1  1  6
  2  3  1  0
  3  4  1  0
  4  5  2  0
  5  6  1  0
  7  6  2  0
  8  7  1  0
  9  4  1  0
  9  8  2  0
 10 11  2  0
 10  2  1  0
 13 12  1  0
 14 13  2  0
 15 13  1  0
 16 15  1  6
 16 17  1  0
 17 10  1  0
 18 16  1  0
 18 25  1  0
 19 18  2  0
 21 20  1  1
 21 22  1  0
 23 21  1  0
 24 25  1  0
 24 23  1  1
 26 24  1  0
 27 26  1  0
 28 26  2  0
M  END
$$$$
