FNL.pdb
     RDKit          3D

 28 28  0  0  1  0  0  0  0  0999 V2000
    6.7985  -16.1946   24.1263 N   0  0  0  0  0  0  0  0  0  0  0  0
    6.9560  -17.0702   22.9603 C   0  0  1  0  0  0  0  0  0  0  0  0
    6.1985  -16.3823   21.8373 C   0  0  0  0  0  0  0  0  0  0  0  0
    6.7933  -15.0586   21.4950 C   0  0  0  0  0  0  0  0  0  0  0  0
    6.7706  -14.0332   22.4369 C   0  0  0  0  0  0  0  0  0  0  0  0
    7.3156  -12.7855   22.1584 C   0  0  0  0  0  0  0  0  0  0  0  0
    7.8944  -12.5264   20.9414 C   0  0  0  0  0  0  0  0  0  0  0  0
    7.9158  -13.5464   20.0073 C   0  0  0  0  0  0  0  0  0  0  0  0
    7.3764  -14.7967   20.2715 C   0  0  0  0  0  0  0  0  0  0  0  0
    8.3847  -17.2377   22.6378 C   0  0  0  0  0  0  0  0  0  0  0  0
    8.7252  -18.2307   21.9822 O   0  0  0  0  0  0  0  0  0  0  0  0
   11.3153  -16.7526   20.4784 N   0  0  0  0  0  0  0  0  0  0  0  0
   12.1817  -16.4461   21.5514 C   0  0  0  0  0  0  0  0  0  0  0  0
   13.4126  -16.7351   21.4921 O   0  0  0  0  0  0  0  0  0  0  0  0
   11.6634  -15.7847   22.7554 C   0  0  0  0  0  0  0  0  0  0  0  0
   10.6682  -16.7056   23.5044 C   0  0  2  0  0  0  0  0  0  0  0  0
    9.3536  -16.3105   23.0495 N   0  0  0  0  0  0  0  0  0  0  0  0
   10.8706  -16.5066   24.9584 C   0  0  0  0  0  0  0  0  0  0  0  0
   12.1007  -16.6013   25.3299 O   0  0  0  0  0  0  0  0  0  0  0  0
    7.9383  -13.0710   27.2312 C   0  0  0  0  0  0  0  0  0  0  0  0
    9.2903  -13.7295   27.2689 C   0  0  1  0  0  0  0  0  0  0  0  0
   10.3329  -12.8244   27.8992 C   0  0  0  0  0  0  0  0  0  0  0  0
    9.2609  -15.0816   27.8122 C   0  0  0  0  0  0  0  0  0  0  0  0
   10.1246  -16.1611   27.3224 C   0  0  2  0  0  0  0  0  0  0  0  0
    9.8456  -16.2398   25.8682 N   0  0  0  0  0  0  0  0  0  0  0  0
   10.0280  -17.5036   27.8441 C   0  0  0  0  0  0  0  0  0  0  0  0
    9.2772  -18.4574   27.1191 O   0  0  0  0  0  0  0  0  0  0  0  0
   10.5362  -17.9742   28.8955 O   0  0  0  0  0  0  0  0  0  0  0  0
  2  1  1  1
  2  3  1  0
  3  4  1  0
  4  5  2  0
  5  6  1  0
  7  6  2  0
  8  7  1  0
  9  4  1  0
  9  8  2  0
 10 11  2  0
 10  2  1  0
 13 12  1  0
 14 13  2  0
 15 13  1  0
 16 15  1  6
 16 17  1  0
 17 10  1  0
 18 16  1  0
 18 25  1  0
 19 18  2  0
 21 20  1  1
 21 22  1  0
 23 21  1  0
 24 25  1  0
 24 23  1  1
 26 24  1  0
 27 26  1  0
 28 26  2  0
M  END
$$$$
