FNL.pdb
     RDKit          3D

 28 28  0  0  1  0  0  0  0  0999 V2000
    9.7000  -16.1560   20.9398 N   0  0  0  0  0  0  0  0  0  0  0  0
    9.4239  -15.7460   22.3206 C   0  0  1  0  0  0  0  0  0  0  0  0
    7.9205  -15.5360   22.3834 C   0  0  0  0  0  0  0  0  0  0  0  0
    7.4726  -14.4475   21.4682 C   0  0  0  0  0  0  0  0  0  0  0  0
    7.8979  -13.1414   21.6973 C   0  0  0  0  0  0  0  0  0  0  0  0
    7.5049  -12.0985   20.8672 C   0  0  0  0  0  0  0  0  0  0  0  0
    6.6821  -12.3264   19.7928 C   0  0  0  0  0  0  0  0  0  0  0  0
    6.2609  -13.6244   19.5670 C   0  0  0  0  0  0  0  0  0  0  0  0
    6.6455  -14.6752   20.3867 C   0  0  0  0  0  0  0  0  0  0  0  0
    9.8731  -16.7883   23.2614 C   0  0  0  0  0  0  0  0  0  0  0  0
    9.0164  -17.3947   23.9172 O   0  0  0  0  0  0  0  0  0  0  0  0
   12.7173  -20.0877   22.1595 N   0  0  0  0  0  0  0  0  0  0  0  0
   13.1849  -18.8178   22.5653 C   0  0  0  0  0  0  0  0  0  0  0  0
   13.6496  -17.9988   21.7195 O   0  0  0  0  0  0  0  0  0  0  0  0
   13.1375  -18.4292   23.9804 C   0  0  0  0  0  0  0  0  0  0  0  0
   11.6921  -18.0667   24.4038 C   0  0  2  0  0  0  0  0  0  0  0  0
   11.2295  -17.1055   23.4275 N   0  0  0  0  0  0  0  0  0  0  0  0
   11.7443  -17.5252   25.7817 C   0  0  0  0  0  0  0  0  0  0  0  0
   12.3725  -18.2817   26.6142 O   0  0  0  0  0  0  0  0  0  0  0  0
    8.7556  -13.6239   28.7612 C   0  0  0  0  0  0  0  0  0  0  0  0
    9.3219  -14.1756   27.4815 C   0  0  1  0  0  0  0  0  0  0  0  0
    8.9316  -13.3238   26.2873 C   0  0  0  0  0  0  0  0  0  0  0  0
   10.7446  -14.4814   27.5621 C   0  0  0  0  0  0  0  0  0  0  0  0
   11.2704  -15.8505   27.5804 C   0  0  2  0  0  0  0  0  0  0  0  0
   11.1759  -16.3118   26.1743 N   0  0  0  0  0  0  0  0  0  0  0  0
   10.6775  -16.8782   28.4027 C   0  0  0  0  0  0  0  0  0  0  0  0
    9.7932  -17.8007   27.7976 O   0  0  0  0  0  0  0  0  0  0  0  0
   10.8381  -17.0863   29.6340 O   0  0  0  0  0  0  0  0  0  0  0  0
  2  1  1  6
  2  3  1  0
  3  4  1  0
  4  5  2  0
  5  6  1  0
  7  6  2  0
  8  7  1  0
  9  4  1  0
  9  8  2  0
 10 11  2  0
 10  2  1  0
 13 12  1  0
 14 13  2  0
 15 13  1  0
 16 15  1  6
 16 17  1  0
 17 10  1  0
 18 16  1  0
 18 25  1  0
 19 18  2  0
 21 20  1  1
 21 22  1  0
 23 21  1  0
 24 25  1  0
 24 23  1  6
 26 24  1  0
 27 26  1  0
 28 26  2  0
M  END
$$$$
