FNL.pdb
     RDKit          3D

 28 28  0  0  1  0  0  0  0  0999 V2000
    7.2750  -18.0158   20.8919 N   0  0  0  0  0  0  0  0  0  0  0  0
    8.1228  -16.9706   21.4749 C   0  0  1  0  0  0  0  0  0  0  0  0
    7.1587  -15.9433   22.0436 C   0  0  0  0  0  0  0  0  0  0  0  0
    7.2565  -14.6362   21.3330 C   0  0  0  0  0  0  0  0  0  0  0  0
    7.1247  -14.5981   19.9472 C   0  0  0  0  0  0  0  0  0  0  0  0
    7.2077  -13.4005   19.2472 C   0  0  0  0  0  0  0  0  0  0  0  0
    7.4232  -12.2151   19.9041 C   0  0  0  0  0  0  0  0  0  0  0  0
    7.5537  -12.2552   21.2806 C   0  0  0  0  0  0  0  0  0  0  0  0
    7.4726  -13.4429   21.9925 C   0  0  0  0  0  0  0  0  0  0  0  0
    8.9938  -17.5433   22.5175 C   0  0  0  0  0  0  0  0  0  0  0  0
    9.3776  -18.7122   22.3835 O   0  0  0  0  0  0  0  0  0  0  0  0
   13.7945  -17.9208   23.4380 N   0  0  0  0  0  0  0  0  0  0  0  0
   13.0923  -16.7026   23.5758 C   0  0  0  0  0  0  0  0  0  0  0  0
   13.6429  -15.6951   24.1087 O   0  0  0  0  0  0  0  0  0  0  0  0
   11.7080  -16.5884   23.1002 C   0  0  0  0  0  0  0  0  0  0  0  0
   10.7070  -16.9312   24.2317 C   0  0  2  0  0  0  0  0  0  0  0  0
    9.3930  -16.8045   23.6411 N   0  0  0  0  0  0  0  0  0  0  0  0
   10.9423  -15.9867   25.3485 C   0  0  0  0  0  0  0  0  0  0  0  0
   12.1106  -16.0922   25.8813 O   0  0  0  0  0  0  0  0  0  0  0  0
    6.5479  -12.7484   26.5119 C   0  0  0  0  0  0  0  0  0  0  0  0
    7.9853  -13.1864   26.4416 C   0  0  1  0  0  0  0  0  0  0  0  0
    8.9326  -12.0342   26.7224 C   0  0  0  0  0  0  0  0  0  0  0  0
    8.2615  -14.3927   27.2115 C   0  0  0  0  0  0  0  0  0  0  0  0
    9.5706  -15.0541   27.2228 C   0  0  2  0  0  0  0  0  0  0  0  0
   10.0063  -15.0568   25.8055 N   0  0  0  0  0  0  0  0  0  0  0  0
    9.7342  -16.4004   27.7175 C   0  0  0  0  0  0  0  0  0  0  0  0
    9.1684  -17.4647   26.9785 O   0  0  0  0  0  0  0  0  0  0  0  0
   10.3338  -16.7865   28.7551 O   0  0  0  0  0  0  0  0  0  0  0  0
  2  1  1  1
  2  3  1  0
  3  4  1  0
  4  5  2  0
  5  6  1  0
  7  6  2  0
  8  7  1  0
  9  4  1  0
  9  8  2  0
 10 11  2  0
 10  2  1  0
 13 12  1  0
 14 13  2  0
 15 13  1  0
 16 15  1  6
 16 17  1  0
 17 10  1  0
 18 16  1  0
 18 25  1  0
 19 18  2  0
 21 20  1  1
 21 22  1  0
 23 21  1  0
 24 25  1  0
 24 23  1  6
 26 24  1  0
 27 26  1  0
 28 26  2  0
M  END
$$$$
