FNL.pdb
     RDKit          3D

 28 28  0  0  1  0  0  0  0  0999 V2000
    6.2127  -18.1995   21.1281 N   0  0  0  0  0  0  0  0  0  0  0  0
    7.0676  -17.0099   21.2001 C   0  0  1  0  0  0  0  0  0  0  0  0
    6.1174  -15.8469   21.4299 C   0  0  0  0  0  0  0  0  0  0  0  0
    6.8158  -14.5326   21.3403 C   0  0  0  0  0  0  0  0  0  0  0  0
    6.9366  -13.7419   22.4802 C   0  0  0  0  0  0  0  0  0  0  0  0
    7.5816  -12.5116   22.4399 C   0  0  0  0  0  0  0  0  0  0  0  0
    8.1202  -12.0377   21.2700 C   0  0  0  0  0  0  0  0  0  0  0  0
    7.9990  -12.8247   20.1390 C   0  0  0  0  0  0  0  0  0  0  0  0
    7.3586  -14.0549   20.1645 C   0  0  0  0  0  0  0  0  0  0  0  0
    8.0424  -17.1484   22.2973 C   0  0  0  0  0  0  0  0  0  0  0  0
    7.6569  -17.6408   23.3653 O   0  0  0  0  0  0  0  0  0  0  0  0
   11.5730  -18.8272   21.6233 N   0  0  0  0  0  0  0  0  0  0  0  0
   12.1577  -17.5410   21.6181 C   0  0  0  0  0  0  0  0  0  0  0  0
   13.0656  -17.2463   20.7868 O   0  0  0  0  0  0  0  0  0  0  0  0
   11.7178  -16.5241   22.5814 C   0  0  0  0  0  0  0  0  0  0  0  0
   10.3572  -16.9141   23.2111 C   0  0  2  0  0  0  0  0  0  0  0  0
    9.3782  -16.7421   22.1608 N   0  0  0  0  0  0  0  0  0  0  0  0
   10.1269  -16.0315   24.3785 C   0  0  0  0  0  0  0  0  0  0  0  0
   10.2514  -14.7767   24.1142 O   0  0  0  0  0  0  0  0  0  0  0  0
    6.9494  -12.9193   25.8115 C   0  0  0  0  0  0  0  0  0  0  0  0
    8.3417  -13.4767   25.9274 C   0  0  1  0  0  0  0  0  0  0  0  0
    9.2805  -12.4933   26.6024 C   0  0  0  0  0  0  0  0  0  0  0  0
    8.3820  -14.8236   26.4827 C   0  0  0  0  0  0  0  0  0  0  0  0
    9.6320  -15.5308   26.7803 C   0  0  2  0  0  0  0  0  0  0  0  0
    9.8038  -16.4855   25.6588 N   0  0  0  0  0  0  0  0  0  0  0  0
    9.8058  -16.2794   28.0023 C   0  0  0  0  0  0  0  0  0  0  0  0
   10.2460  -15.5934   29.1576 O   0  0  0  0  0  0  0  0  0  0  0  0
    9.6143  -17.5075   28.2029 O   0  0  0  0  0  0  0  0  0  0  0  0
  2  1  1  1
  2  3  1  0
  3  4  1  0
  4  5  2  0
  5  6  1  0
  7  6  2  0
  8  7  1  0
  9  4  1  0
  9  8  2  0
 10 11  2  0
 10  2  1  0
 13 12  1  0
 14 13  2  0
 15 13  1  0
 16 15  1  6
 16 17  1  0
 17 10  1  0
 18 16  1  0
 18 25  1  0
 19 18  2  0
 21 20  1  1
 21 22  1  0
 23 21  1  0
 24 25  1  0
 24 23  1  1
 26 24  1  0
 27 26  1  0
 28 26  2  0
M  END
$$$$
