FNL.pdb
     RDKit          3D

 28 28  0  0  1  0  0  0  0  0999 V2000
    6.7558  -15.7081   23.8917 N   0  0  0  0  0  0  0  0  0  0  0  0
    6.7531  -16.7877   22.8990 C   0  0  1  0  0  0  0  0  0  0  0  0
    6.1940  -16.1650   21.6311 C   0  0  0  0  0  0  0  0  0  0  0  0
    6.9330  -14.9284   21.2465 C   0  0  0  0  0  0  0  0  0  0  0  0
    7.4922  -14.8320   19.9749 C   0  0  0  0  0  0  0  0  0  0  0  0
    8.1871  -13.6964   19.5764 C   0  0  0  0  0  0  0  0  0  0  0  0
    8.3434  -12.6321   20.4286 C   0  0  0  0  0  0  0  0  0  0  0  0
    7.7871  -12.7300   21.6912 C   0  0  0  0  0  0  0  0  0  0  0  0
    7.0905  -13.8569   22.1024 C   0  0  0  0  0  0  0  0  0  0  0  0
    8.1204  -17.3024   22.7019 C   0  0  0  0  0  0  0  0  0  0  0  0
    8.2608  -18.4976   22.4128 O   0  0  0  0  0  0  0  0  0  0  0  0
   11.4377  -18.0406   20.6937 N   0  0  0  0  0  0  0  0  0  0  0  0
   11.5222  -16.6671   21.0137 C   0  0  0  0  0  0  0  0  0  0  0  0
   11.5420  -15.7902   20.1011 O   0  0  0  0  0  0  0  0  0  0  0  0
   11.5880  -16.2365   22.4157 C   0  0  0  0  0  0  0  0  0  0  0  0
   10.5333  -16.9821   23.2709 C   0  0  2  0  0  0  0  0  0  0  0  0
    9.2501  -16.4808   22.8313 N   0  0  0  0  0  0  0  0  0  0  0  0
   10.8185  -16.6955   24.6961 C   0  0  0  0  0  0  0  0  0  0  0  0
   11.9121  -16.0412   24.8861 O   0  0  0  0  0  0  0  0  0  0  0  0
    7.9273  -13.2518   27.3822 C   0  0  0  0  0  0  0  0  0  0  0  0
    9.2097  -14.0251   27.2400 C   0  0  1  0  0  0  0  0  0  0  0  0
   10.2230  -13.6215   28.2955 C   0  0  0  0  0  0  0  0  0  0  0  0
    9.0083  -15.4635   27.1194 C   0  0  0  0  0  0  0  0  0  0  0  0
   10.1133  -16.4273   27.0826 C   0  0  2  0  0  0  0  0  0  0  0  0
    9.9995  -17.0842   25.7581 N   0  0  0  0  0  0  0  0  0  0  0  0
   10.2349  -17.4774   28.0656 C   0  0  0  0  0  0  0  0  0  0  0  0
   11.0394  -17.2459   29.2050 O   0  0  0  0  0  0  0  0  0  0  0  0
    9.7068  -18.6204   28.0606 O   0  0  0  0  0  0  0  0  0  0  0  0
  2  1  1  1
  2  3  1  0
  3  4  1  0
  4  5  2  0
  5  6  1  0
  7  6  2  0
  8  7  1  0
  9  4  1  0
  9  8  2  0
 10 11  2  0
 10  2  1  0
 13 12  1  0
 14 13  2  0
 15 13  1  0
 16 15  1  6
 16 17  1  0
 17 10  1  0
 18 16  1  0
 18 25  1  0
 19 18  2  0
 21 20  1  1
 21 22  1  0
 23 21  1  0
 24 25  1  0
 24 23  1  1
 26 24  1  0
 27 26  1  0
 28 26  2  0
M  END
$$$$
