CEQ.pdb
     RDKit          3D

 25 24  0  0  1  0  0  0  0  0999 V2000
    9.4606  -14.5443   18.4357 N   0  0  0  0  0  0  0  0  0  0  0  0
    8.8535  -13.6584   19.4058 C   0  0  1  0  0  0  0  0  0  0  0  0
    7.4426  -13.3878   18.9278 C   0  0  0  0  0  0  0  0  0  0  0  0
    7.4484  -13.0743   17.1230 S   0  0  0  0  0  0  0  0  0  0  0  0
    8.8394  -14.3568   20.7329 C   0  0  0  0  0  0  0  0  0  0  0  0
    8.2005  -13.8614   21.6648 O   0  0  0  0  0  0  0  0  0  0  0  0
    9.5344  -15.5604   20.9440 N   0  0  0  0  0  0  0  0  0  0  0  0
    9.6717  -16.3965   22.0570 C   0  0  1  0  0  0  0  0  0  0  0  0
   10.3541  -17.7132   21.9662 C   0  0  0  0  0  0  0  0  0  0  0  0
   11.5238  -17.8492   21.0639 C   0  0  0  0  0  0  0  0  0  0  0  0
   12.0097  -19.2853   21.1638 C   0  0  0  0  0  0  0  0  0  0  0  0
   11.9286  -20.0231   20.1332 O   0  0  0  0  0  0  0  0  0  0  0  0
    9.9847  -15.7539   23.3442 C   0  0  0  0  0  0  0  0  0  0  0  0
   11.1010  -15.2165   23.5912 O   0  0  0  0  0  0  0  0  0  0  0  0
   12.5233  -19.7742   22.3268 O   0  0  0  0  0  0  0  0  0  0  0  0
    6.5079  -11.3161   27.8635 N   0  0  0  0  0  0  0  0  0  0  0  0
    6.5914  -12.5620   27.1890 C   0  0  0  0  0  0  0  0  0  0  0  0
    5.5281  -13.1023   26.8132 O   0  0  0  0  0  0  0  0  0  0  0  0
    7.8827  -13.2019   26.9379 C   0  0  0  0  0  0  0  0  0  0  0  0
    7.9380  -14.0871   25.7351 C   0  0  0  0  0  0  0  0  0  0  0  0
    9.2093  -14.8703   25.5771 C   0  0  2  0  0  0  0  0  0  0  0  0
    9.0168  -15.7102   24.3891 N   0  0  0  0  0  0  0  0  0  0  0  0
    9.4754  -15.7601   26.7176 C   0  0  0  0  0  0  0  0  0  0  0  0
    9.2521  -16.9871   26.6250 O   0  0  0  0  0  0  0  0  0  0  0  0
    9.9756  -15.2810   27.9179 O   0  0  0  0  0  0  0  0  0  0  0  0
  2  1  1  6
  3  2  1  0
  4  3  1  0
  5  7  1  0
  5  2  1  0
  6  5  2  0
  8  7  1  0
  8  9  1  6
  9 10  1  0
 10 11  1  0
 11 15  1  0
 11 12  2  0
 13  8  1  0
 14 13  2  0
 16 17  1  0
 17 19  1  0
 18 17  2  0
 19 20  1  0
 21 20  1  1
 21 23  1  0
 21 22  1  0
 22 13  1  0
 23 25  1  0
 24 23  2  0
M  END
$$$$
