CEQ.pdb
     RDKit          3D

 25 24  0  0  1  0  0  0  0  0999 V2000
    5.3989  -13.1500   26.5987 N   0  0  0  0  0  0  0  0  0  0  0  0
    6.0685  -12.7776   25.3710 C   0  0  1  0  0  0  0  0  0  0  0  0
    6.8259  -11.4982   25.6569 C   0  0  0  0  0  0  0  0  0  0  0  0
    8.1298  -11.8145   26.9040 S   0  0  0  0  0  0  0  0  0  0  0  0
    7.0130  -13.8817   24.9994 C   0  0  0  0  0  0  0  0  0  0  0  0
    7.4609  -14.6122   25.8871 O   0  0  0  0  0  0  0  0  0  0  0  0
    7.4018  -14.1071   23.6675 N   0  0  0  0  0  0  0  0  0  0  0  0
    8.2911  -15.0107   23.0764 C   0  0  1  0  0  0  0  0  0  0  0  0
    8.3644  -15.1849   21.6026 C   0  0  0  0  0  0  0  0  0  0  0  0
    7.1009  -15.3262   20.8379 C   0  0  0  0  0  0  0  0  0  0  0  0
    7.3749  -16.2699   19.6791 C   0  0  0  0  0  0  0  0  0  0  0  0
    8.0256  -17.3360   19.9096 O   0  0  0  0  0  0  0  0  0  0  0  0
    9.6379  -15.1075   23.6633 C   0  0  0  0  0  0  0  0  0  0  0  0
   10.3689  -14.0996   23.8777 O   0  0  0  0  0  0  0  0  0  0  0  0
    6.9335  -15.9862   18.4221 O   0  0  0  0  0  0  0  0  0  0  0  0
    9.4515  -16.6390   29.1289 N   0  0  0  0  0  0  0  0  0  0  0  0
   10.4188  -15.6617   28.7776 C   0  0  0  0  0  0  0  0  0  0  0  0
   10.6365  -14.7303   29.5830 O   0  0  0  0  0  0  0  0  0  0  0  0
   11.1441  -15.7361   27.5093 C   0  0  0  0  0  0  0  0  0  0  0  0
   10.4020  -16.3771   26.3814 C   0  0  0  0  0  0  0  0  0  0  0  0
   11.1738  -16.5026   25.0996 C   0  0  2  0  0  0  0  0  0  0  0  0
   10.1848  -16.3733   24.0229 N   0  0  0  0  0  0  0  0  0  0  0  0
   11.8270  -17.8123   24.9541 C   0  0  0  0  0  0  0  0  0  0  0  0
   11.2492  -18.7407   24.3472 O   0  0  0  0  0  0  0  0  0  0  0  0
   13.0865  -18.0633   25.4748 O   0  0  0  0  0  0  0  0  0  0  0  0
  2  1  1  1
  3  2  1  0
  4  3  1  0
  5  7  1  0
  5  2  1  0
  6  5  2  0
  8  7  1  0
  8  9  1  6
  9 10  1  0
 10 11  1  0
 11 15  1  0
 11 12  2  0
 13  8  1  0
 14 13  2  0
 16 17  1  0
 17 19  1  0
 18 17  2  0
 19 20  1  0
 21 20  1  1
 21 23  1  0
 21 22  1  0
 22 13  1  0
 23 25  1  0
 24 23  2  0
M  END
$$$$
