CEQ.pdb
     RDKit          3D

 25 24  0  0  1  0  0  0  0  0999 V2000
    5.4963  -13.9771   26.3529 N   0  0  0  0  0  0  0  0  0  0  0  0
    6.4648  -13.3431   25.4843 C   0  0  1  0  0  0  0  0  0  0  0  0
    7.3440  -12.4812   26.3654 C   0  0  0  0  0  0  0  0  0  0  0  0
    6.3545  -11.1184   27.0858 S   0  0  0  0  0  0  0  0  0  0  0  0
    7.2715  -14.4184   24.8191 C   0  0  0  0  0  0  0  0  0  0  0  0
    7.4051  -15.5058   25.3863 O   0  0  0  0  0  0  0  0  0  0  0  0
    7.8793  -14.2210   23.5671 N   0  0  0  0  0  0  0  0  0  0  0  0
    8.7279  -15.0132   22.7865 C   0  0  1  0  0  0  0  0  0  0  0  0
    8.9651  -14.7230   21.3488 C   0  0  0  0  0  0  0  0  0  0  0  0
    7.7982  -14.6411   20.4362 C   0  0  0  0  0  0  0  0  0  0  0  0
    7.2063  -16.0363   20.3298 C   0  0  0  0  0  0  0  0  0  0  0  0
    6.0089  -16.2151   20.7136 O   0  0  0  0  0  0  0  0  0  0  0  0
    9.9709  -15.4873   23.4172 C   0  0  0  0  0  0  0  0  0  0  0  0
   11.1046  -14.9920   23.1610 O   0  0  0  0  0  0  0  0  0  0  0  0
    7.9363  -17.0734   19.8329 O   0  0  0  0  0  0  0  0  0  0  0  0
    9.7466  -14.1924   28.7820 N   0  0  0  0  0  0  0  0  0  0  0  0
   10.7378  -15.1904   28.9714 C   0  0  0  0  0  0  0  0  0  0  0  0
   11.2110  -15.3422   30.1190 O   0  0  0  0  0  0  0  0  0  0  0  0
   11.1979  -16.0212   27.8588 C   0  0  0  0  0  0  0  0  0  0  0  0
   10.4054  -15.9022   26.5973 C   0  0  0  0  0  0  0  0  0  0  0  0
   10.9573  -16.6581   25.4233 C   0  0  2  0  0  0  0  0  0  0  0  0
    9.9450  -16.5500   24.3662 N   0  0  0  0  0  0  0  0  0  0  0  0
   11.1573  -18.0870   25.7090 C   0  0  0  0  0  0  0  0  0  0  0  0
   10.2522  -18.9125   25.4573 O   0  0  0  0  0  0  0  0  0  0  0  0
   12.3364  -18.5650   26.2582 O   0  0  0  0  0  0  0  0  0  0  0  0
  2  1  1  1
  3  2  1  0
  4  3  1  0
  5  7  1  0
  5  2  1  0
  6  5  2  0
  8  7  1  0
  8  9  1  6
  9 10  1  0
 10 11  1  0
 11 15  1  0
 11 12  2  0
 13  8  1  0
 14 13  2  0
 16 17  1  0
 17 19  1  0
 18 17  2  0
 19 20  1  0
 21 20  1  1
 21 23  1  0
 21 22  1  0
 22 13  1  0
 23 25  1  0
 24 23  2  0
M  END
$$$$
