CEQ.pdb
     RDKit          3D

 25 24  0  0  1  0  0  0  0  0999 V2000
    5.4178  -13.9174   26.0810 N   0  0  0  0  0  0  0  0  0  0  0  0
    6.6123  -13.4824   25.3893 C   0  0  1  0  0  0  0  0  0  0  0  0
    7.3872  -12.6149   26.3584 C   0  0  0  0  0  0  0  0  0  0  0  0
    6.4958  -11.0376   26.6287 S   0  0  0  0  0  0  0  0  0  0  0  0
    7.4055  -14.6989   25.0147 C   0  0  0  0  0  0  0  0  0  0  0  0
    7.5088  -15.6214   25.8273 O   0  0  0  0  0  0  0  0  0  0  0  0
    8.0343  -14.8166   23.7630 N   0  0  0  0  0  0  0  0  0  0  0  0
    8.9297  -15.7515   23.2328 C   0  0  1  0  0  0  0  0  0  0  0  0
    9.2490  -15.7929   21.7823 C   0  0  0  0  0  0  0  0  0  0  0  0
   10.1218  -16.8803   21.2754 C   0  0  0  0  0  0  0  0  0  0  0  0
   10.2559  -16.6918   19.7737 C   0  0  0  0  0  0  0  0  0  0  0  0
    9.2421  -16.2897   19.1229 O   0  0  0  0  0  0  0  0  0  0  0  0
   10.1357  -16.0483   24.0235 C   0  0  0  0  0  0  0  0  0  0  0  0
   10.9831  -15.1673   24.3427 O   0  0  0  0  0  0  0  0  0  0  0  0
   11.4329  -16.9436   19.1361 O   0  0  0  0  0  0  0  0  0  0  0  0
    9.5428  -19.4263   28.9446 N   0  0  0  0  0  0  0  0  0  0  0  0
   10.9594  -19.3783   28.8720 C   0  0  0  0  0  0  0  0  0  0  0  0
   11.6157  -19.8441   29.8291 O   0  0  0  0  0  0  0  0  0  0  0  0
   11.6389  -18.8005   27.7125 C   0  0  0  0  0  0  0  0  0  0  0  0
   10.7431  -18.3076   26.6226 C   0  0  0  0  0  0  0  0  0  0  0  0
   11.4441  -17.6508   25.4686 C   0  0  2  0  0  0  0  0  0  0  0  0
   10.4022  -17.3742   24.4726 N   0  0  0  0  0  0  0  0  0  0  0  0
   12.4462  -18.5242   24.8393 C   0  0  0  0  0  0  0  0  0  0  0  0
   12.1237  -19.2706   23.8891 O   0  0  0  0  0  0  0  0  0  0  0  0
   13.7638  -18.5528   25.2677 O   0  0  0  0  0  0  0  0  0  0  0  0
  2  1  1  1
  3  2  1  0
  4  3  1  0
  5  7  1  0
  5  2  1  0
  6  5  2  0
  8  7  1  0
  8  9  1  6
  9 10  1  0
 10 11  1  0
 11 15  1  0
 11 12  2  0
 13  8  1  0
 14 13  2  0
 16 17  1  0
 17 19  1  0
 18 17  2  0
 19 20  1  0
 21 20  1  1
 21 23  1  0
 21 22  1  0
 22 13  1  0
 23 25  1  0
 24 23  2  0
M  END
$$$$
