CEQ.pdb
     RDKit          3D

 25 24  0  0  1  0  0  0  0  0999 V2000
    5.0772  -13.3003   26.3805 N   0  0  0  0  0  0  0  0  0  0  0  0
    6.1936  -12.8153   25.5977 C   0  0  1  0  0  0  0  0  0  0  0  0
    7.0150  -11.9291   26.5099 C   0  0  0  0  0  0  0  0  0  0  0  0
    6.0961  -10.3853   26.8674 S   0  0  0  0  0  0  0  0  0  0  0  0
    6.9959  -13.9983   25.1436 C   0  0  0  0  0  0  0  0  0  0  0  0
    7.2776  -14.8806   25.9587 O   0  0  0  0  0  0  0  0  0  0  0  0
    7.4354  -14.1293   23.8149 N   0  0  0  0  0  0  0  0  0  0  0  0
    8.2165  -15.0886   23.1618 C   0  0  1  0  0  0  0  0  0  0  0  0
    8.3286  -15.1292   21.6808 C   0  0  0  0  0  0  0  0  0  0  0  0
    7.7842  -13.9957   20.8934 C   0  0  0  0  0  0  0  0  0  0  0  0
    8.0295  -14.3034   19.4259 C   0  0  0  0  0  0  0  0  0  0  0  0
    8.3013  -13.3399   18.6443 O   0  0  0  0  0  0  0  0  0  0  0  0
    9.5106  -15.4305   23.7752 C   0  0  0  0  0  0  0  0  0  0  0  0
   10.3646  -14.5614   24.1089 O   0  0  0  0  0  0  0  0  0  0  0  0
    7.9639  -15.5797   18.9548 O   0  0  0  0  0  0  0  0  0  0  0  0
    9.1836  -19.2710   28.3041 N   0  0  0  0  0  0  0  0  0  0  0  0
   10.5946  -19.1435   28.2199 C   0  0  0  0  0  0  0  0  0  0  0  0
   11.2873  -19.6300   29.1404 O   0  0  0  0  0  0  0  0  0  0  0  0
   11.2271  -18.4623   27.0903 C   0  0  0  0  0  0  0  0  0  0  0  0
   10.2891  -17.9057   26.0686 C   0  0  0  0  0  0  0  0  0  0  0  0
   10.9416  -17.1445   24.9510 C   0  0  2  0  0  0  0  0  0  0  0  0
    9.8605  -16.7892   24.0242 N   0  0  0  0  0  0  0  0  0  0  0  0
   11.9221  -17.9514   24.2087 C   0  0  0  0  0  0  0  0  0  0  0  0
   11.5739  -18.5832   23.1871 O   0  0  0  0  0  0  0  0  0  0  0  0
   13.2467  -18.0406   24.6061 O   0  0  0  0  0  0  0  0  0  0  0  0
  2  1  1  1
  3  2  1  0
  4  3  1  0
  5  7  1  0
  5  2  1  0
  6  5  2  0
  8  7  1  0
  8  9  1  6
  9 10  1  0
 10 11  1  0
 11 15  1  0
 11 12  2  0
 13  8  1  0
 14 13  2  0
 16 17  1  0
 17 19  1  0
 18 17  2  0
 19 20  1  0
 21 20  1  1
 21 23  1  0
 21 22  1  0
 22 13  1  0
 23 25  1  0
 24 23  2  0
M  END
$$$$
