CEQ.pdb
     RDKit          3D

 25 24  0  0  1  0  0  0  0  0999 V2000
    6.6365  -15.0944   20.8131 N   0  0  0  0  0  0  0  0  0  0  0  0
    8.0130  -14.7122   21.0448 C   0  0  1  0  0  0  0  0  0  0  0  0
    7.9910  -13.2869   21.5549 C   0  0  0  0  0  0  0  0  0  0  0  0
    7.5977  -12.1419   20.1802 S   0  0  0  0  0  0  0  0  0  0  0  0
    8.5880  -15.6364   22.0766 C   0  0  0  0  0  0  0  0  0  0  0  0
    7.8480  -16.0937   22.9514 O   0  0  0  0  0  0  0  0  0  0  0  0
    9.9470  -15.9957   22.0741 N   0  0  0  0  0  0  0  0  0  0  0  0
   10.7021  -16.8653   22.8681 C   0  0  1  0  0  0  0  0  0  0  0  0
   11.8791  -17.5939   22.3282 C   0  0  0  0  0  0  0  0  0  0  0  0
   11.7653  -18.2481   21.0014 C   0  0  0  0  0  0  0  0  0  0  0  0
   13.1345  -18.8059   20.6515 C   0  0  0  0  0  0  0  0  0  0  0  0
   13.4374  -19.9673   21.0669 O   0  0  0  0  0  0  0  0  0  0  0  0
   10.9585  -16.4526   24.2579 C   0  0  0  0  0  0  0  0  0  0  0  0
   11.6961  -15.4722   24.5594 O   0  0  0  0  0  0  0  0  0  0  0  0
   14.0186  -18.0840   19.9083 O   0  0  0  0  0  0  0  0  0  0  0  0
    9.6633  -12.5834   27.3016 N   0  0  0  0  0  0  0  0  0  0  0  0
    9.5488  -13.9074   27.7998 C   0  0  0  0  0  0  0  0  0  0  0  0
    9.9556  -14.1391   28.9594 O   0  0  0  0  0  0  0  0  0  0  0  0
    8.9723  -14.9761   26.9839 C   0  0  0  0  0  0  0  0  0  0  0  0
    9.3923  -16.3626   27.3512 C   0  0  0  0  0  0  0  0  0  0  0  0
   10.6845  -16.8209   26.7394 C   0  0  2  0  0  0  0  0  0  0  0  0
   10.3698  -17.1593   25.3463 N   0  0  0  0  0  0  0  0  0  0  0  0
   11.2231  -18.0284   27.3839 C   0  0  0  0  0  0  0  0  0  0  0  0
   11.1784  -19.1305   26.7944 O   0  0  0  0  0  0  0  0  0  0  0  0
   11.7913  -17.9915   28.6473 O   0  0  0  0  0  0  0  0  0  0  0  0
  2  1  1  1
  3  2  1  0
  4  3  1  0
  5  7  1  0
  5  2  1  0
  6  5  2  0
  8  7  1  0
  8  9  1  6
  9 10  1  0
 10 11  1  0
 11 15  1  0
 11 12  2  0
 13  8  1  0
 14 13  2  0
 16 17  1  0
 17 19  1  0
 18 17  2  0
 19 20  1  0
 21 20  1  1
 21 23  1  0
 21 22  1  0
 22 13  1  0
 23 25  1  0
 24 23  2  0
M  END
$$$$
