CEQ.pdb
     RDKit          3D

 25 24  0  0  1  0  0  0  0  0999 V2000
    6.1563  -15.9438   19.5951 N   0  0  0  0  0  0  0  0  0  0  0  0
    7.4385  -15.3196   19.8417 C   0  0  1  0  0  0  0  0  0  0  0  0
    7.2006  -13.8246   19.8603 C   0  0  0  0  0  0  0  0  0  0  0  0
    8.7928  -12.9455   20.0786 S   0  0  0  0  0  0  0  0  0  0  0  0
    7.9416  -15.7936   21.1727 C   0  0  0  0  0  0  0  0  0  0  0  0
    7.1597  -15.8460   22.1256 O   0  0  0  0  0  0  0  0  0  0  0  0
    9.2796  -16.1799   21.3641 N   0  0  0  0  0  0  0  0  0  0  0  0
    9.9951  -16.6050   22.4884 C   0  0  1  0  0  0  0  0  0  0  0  0
   11.2272  -17.4263   22.3665 C   0  0  0  0  0  0  0  0  0  0  0  0
   11.8699  -17.9354   23.6031 C   0  0  0  0  0  0  0  0  0  0  0  0
   13.0635  -18.7756   23.1815 C   0  0  0  0  0  0  0  0  0  0  0  0
   13.3580  -18.8295   21.9472 O   0  0  0  0  0  0  0  0  0  0  0  0
   10.1362  -15.6452   23.5959 C   0  0  0  0  0  0  0  0  0  0  0  0
   10.8504  -14.6059   23.5187 O   0  0  0  0  0  0  0  0  0  0  0  0
   13.8050  -19.4542   24.1006 O   0  0  0  0  0  0  0  0  0  0  0  0
    5.6023  -12.9057   26.0154 N   0  0  0  0  0  0  0  0  0  0  0  0
    6.6353  -12.4593   26.8802 C   0  0  0  0  0  0  0  0  0  0  0  0
    6.4014  -11.4814   27.6237 O   0  0  0  0  0  0  0  0  0  0  0  0
    7.9401  -13.1203   26.9053 C   0  0  0  0  0  0  0  0  0  0  0  0
    8.1496  -14.1684   25.8608 C   0  0  0  0  0  0  0  0  0  0  0  0
    9.4860  -14.8517   25.9015 C   0  0  2  0  0  0  0  0  0  0  0  0
    9.4555  -15.8544   24.8302 N   0  0  0  0  0  0  0  0  0  0  0  0
    9.7266  -15.5568   27.1697 C   0  0  0  0  0  0  0  0  0  0  0  0
    9.4530  -16.7725   27.2764 O   0  0  0  0  0  0  0  0  0  0  0  0
   10.2572  -14.9122   28.2758 O   0  0  0  0  0  0  0  0  0  0  0  0
  2  1  1  1
  3  2  1  0
  4  3  1  0
  5  7  1  0
  5  2  1  0
  6  5  2  0
  8  7  1  0
  8  9  1  6
  9 10  1  0
 10 11  1  0
 11 15  1  0
 11 12  2  0
 13  8  1  0
 14 13  2  0
 16 17  1  0
 17 19  1  0
 18 17  2  0
 19 20  1  0
 21 20  1  1
 21 23  1  0
 21 22  1  0
 22 13  1  0
 23 25  1  0
 24 23  2  0
M  END
$$$$
