CEQ.pdb
     RDKit          3D

 25 24  0  0  1  0  0  0  0  0999 V2000
    6.6411  -15.6350   18.8366 N   0  0  0  0  0  0  0  0  0  0  0  0
    7.7318  -14.8918   19.4303 C   0  0  1  0  0  0  0  0  0  0  0  0
    7.2408  -13.4724   19.6211 C   0  0  0  0  0  0  0  0  0  0  0  0
    8.5557  -12.4599   20.3965 S   0  0  0  0  0  0  0  0  0  0  0  0
    8.0627  -15.5210   20.7509 C   0  0  0  0  0  0  0  0  0  0  0  0
    7.1468  -15.9507   21.4570 O   0  0  0  0  0  0  0  0  0  0  0  0
    9.3879  -15.6346   21.2059 N   0  0  0  0  0  0  0  0  0  0  0  0
    9.9518  -16.1753   22.3663 C   0  0  1  0  0  0  0  0  0  0  0  0
   11.3211  -16.7520   22.3746 C   0  0  0  0  0  0  0  0  0  0  0  0
   11.8696  -17.2678   23.6530 C   0  0  0  0  0  0  0  0  0  0  0  0
   13.3695  -17.4278   23.4716 C   0  0  0  0  0  0  0  0  0  0  0  0
   13.8037  -18.5027   22.9529 O   0  0  0  0  0  0  0  0  0  0  0  0
    9.6960  -15.4648   23.6302 C   0  0  0  0  0  0  0  0  0  0  0  0
   10.3803  -14.4743   24.0132 O   0  0  0  0  0  0  0  0  0  0  0  0
   14.2322  -16.4445   23.8514 O   0  0  0  0  0  0  0  0  0  0  0  0
    7.0637  -11.9117   25.4758 N   0  0  0  0  0  0  0  0  0  0  0  0
    6.4441  -12.5162   26.6005 C   0  0  0  0  0  0  0  0  0  0  0  0
    6.0611  -11.7756   27.5325 O   0  0  0  0  0  0  0  0  0  0  0  0
    6.2566  -13.9652   26.6737 C   0  0  0  0  0  0  0  0  0  0  0  0
    6.8398  -14.7466   25.5411 C   0  0  0  0  0  0  0  0  0  0  0  0
    8.2891  -15.1075   25.6945 C   0  0  2  0  0  0  0  0  0  0  0  0
    8.6395  -15.8754   24.4938 N   0  0  0  0  0  0  0  0  0  0  0  0
    8.5423  -15.9628   26.8640 C   0  0  0  0  0  0  0  0  0  0  0  0
    8.4284  -17.2048   26.7728 O   0  0  0  0  0  0  0  0  0  0  0  0
    8.9108  -15.4339   28.0908 O   0  0  0  0  0  0  0  0  0  0  0  0
  2  1  1  1
  3  2  1  0
  4  3  1  0
  5  7  1  0
  5  2  1  0
  6  5  2  0
  8  7  1  0
  8  9  1  6
  9 10  1  0
 10 11  1  0
 11 15  1  0
 11 12  2  0
 13  8  1  0
 14 13  2  0
 16 17  1  0
 17 19  1  0
 18 17  2  0
 19 20  1  0
 21 20  1  6
 21 23  1  0
 21 22  1  0
 22 13  1  0
 23 25  1  0
 24 23  2  0
M  END
$$$$
