CEQ.pdb
     RDKit          3D

 25 24  0  0  1  0  0  0  0  0999 V2000
    7.2012  -15.2827   18.1873 N   0  0  0  0  0  0  0  0  0  0  0  0
    8.1756  -14.6170   19.0250 C   0  0  1  0  0  0  0  0  0  0  0  0
    7.6559  -13.2165   19.2717 C   0  0  0  0  0  0  0  0  0  0  0  0
    8.8257  -12.3003   20.3430 S   0  0  0  0  0  0  0  0  0  0  0  0
    8.2831  -15.3777   20.3131 C   0  0  0  0  0  0  0  0  0  0  0  0
    7.2509  -15.7131   20.8997 O   0  0  0  0  0  0  0  0  0  0  0  0
    9.5278  -15.7190   20.8701 N   0  0  0  0  0  0  0  0  0  0  0  0
    9.8932  -16.4066   22.0322 C   0  0  1  0  0  0  0  0  0  0  0  0
   10.8902  -17.5080   22.0082 C   0  0  0  0  0  0  0  0  0  0  0  0
   10.8776  -18.4562   20.8673 C   0  0  0  0  0  0  0  0  0  0  0  0
   12.0473  -19.4076   21.0549 C   0  0  0  0  0  0  0  0  0  0  0  0
   12.9767  -19.0718   21.8526 O   0  0  0  0  0  0  0  0  0  0  0  0
   10.0500  -15.6109   23.2610 C   0  0  0  0  0  0  0  0  0  0  0  0
   10.6860  -14.5198   23.2975 O   0  0  0  0  0  0  0  0  0  0  0  0
   12.1017  -20.5945   20.3887 O   0  0  0  0  0  0  0  0  0  0  0  0
    5.7820  -12.8449   25.5234 N   0  0  0  0  0  0  0  0  0  0  0  0
    6.7494  -12.5705   26.5250 C   0  0  0  0  0  0  0  0  0  0  0  0
    6.5358  -11.6182   27.3068 O   0  0  0  0  0  0  0  0  0  0  0  0
    7.9651  -13.3754   26.6441 C   0  0  0  0  0  0  0  0  0  0  0  0
    8.1885  -14.3678   25.5493 C   0  0  0  0  0  0  0  0  0  0  0  0
    9.4438  -15.1823   25.6728 C   0  0  2  0  0  0  0  0  0  0  0  0
    9.4760  -16.0496   24.4892 N   0  0  0  0  0  0  0  0  0  0  0  0
    9.4469  -16.0467   26.8629 C   0  0  0  0  0  0  0  0  0  0  0  0
    9.0566  -17.2321   26.7817 O   0  0  0  0  0  0  0  0  0  0  0  0
    9.8756  -15.5885   28.0985 O   0  0  0  0  0  0  0  0  0  0  0  0
  2  1  1  6
  3  2  1  0
  4  3  1  0
  5  7  1  0
  5  2  1  0
  6  5  2  0
  8  7  1  0
  8  9  1  6
  9 10  1  0
 10 11  1  0
 11 15  1  0
 11 12  2  0
 13  8  1  0
 14 13  2  0
 16 17  1  0
 17 19  1  0
 18 17  2  0
 19 20  1  0
 21 20  1  6
 21 23  1  0
 21 22  1  0
 22 13  1  0
 23 25  1  0
 24 23  2  0
M  END
$$$$
