CEQ.pdb
     RDKit          3D

 25 24  0  0  1  0  0  0  0  0999 V2000
   -0.5864  -19.7192   18.6469 N   0  0  0  0  0  0  0  0  0  0  0  0
    0.3683  -20.8061   18.6850 C   0  0  1  0  0  0  0  0  0  0  0  0
    1.4256  -20.4958   17.6466 C   0  0  0  0  0  0  0  0  0  0  0  0
    0.7854  -20.8826   15.9745 S   0  0  0  0  0  0  0  0  0  0  0  0
    0.9702  -20.8525   20.0579 C   0  0  0  0  0  0  0  0  0  0  0  0
    1.5036  -19.8378   20.5137 O   0  0  0  0  0  0  0  0  0  0  0  0
    0.9431  -22.0206   20.8394 N   0  0  0  0  0  0  0  0  0  0  0  0
    1.4070  -22.3150   22.1258 C   0  0  1  0  0  0  0  0  0  0  0  0
    0.6423  -23.1902   23.0515 C   0  0  0  0  0  0  0  0  0  0  0  0
   -0.8324  -23.0418   23.1177 C   0  0  0  0  0  0  0  0  0  0  0  0
   -1.3586  -24.1394   24.0270 C   0  0  0  0  0  0  0  0  0  0  0  0
   -1.3283  -23.9495   25.2825 O   0  0  0  0  0  0  0  0  0  0  0  0
    2.8510  -22.5588   22.2786 C   0  0  0  0  0  0  0  0  0  0  0  0
    3.5111  -23.2954   21.4925 O   0  0  0  0  0  0  0  0  0  0  0  0
   -1.8547  -25.2995   23.5140 O   0  0  0  0  0  0  0  0  0  0  0  0
    7.8623  -19.2877   24.1929 N   0  0  0  0  0  0  0  0  0  0  0  0
    7.7746  -20.3326   25.1494 C   0  0  0  0  0  0  0  0  0  0  0  0
    8.7374  -20.5014   25.9293 O   0  0  0  0  0  0  0  0  0  0  0  0
    6.5934  -21.1923   25.2253 C   0  0  0  0  0  0  0  0  0  0  0  0
    5.5516  -20.9463   24.1823 C   0  0  0  0  0  0  0  0  0  0  0  0
    5.0228  -22.1780   23.5058 C   0  0  2  0  0  0  0  0  0  0  0  0
    3.5806  -21.9584   23.3452 N   0  0  0  0  0  0  0  0  0  0  0  0
    5.2045  -23.3938   24.3134 C   0  0  0  0  0  0  0  0  0  0  0  0
    4.2907  -23.7904   25.0694 O   0  0  0  0  0  0  0  0  0  0  0  0
    6.3752  -24.1339   24.2679 O   0  0  0  0  0  0  0  0  0  0  0  0
  2  1  1  1
  3  2  1  0
  4  3  1  0
  5  7  1  0
  5  2  1  0
  6  5  2  0
  8  7  1  0
  8  9  1  6
  9 10  1  0
 10 11  1  0
 11 15  1  0
 11 12  2  0
 13  8  1  0
 14 13  2  0
 16 17  1  0
 17 19  1  0
 18 17  2  0
 19 20  1  0
 21 20  1  1
 21 23  1  0
 21 22  1  0
 22 13  1  0
 23 25  1  0
 24 23  2  0
M  END
$$$$
