INC.pdb
     RDKit          3D

 23 22  0  0  1  0  0  0  0  0999 V2000
    7.0576  -12.2481   19.9720 C   0  0  0  0  0  0  0  0  0  0  0  0
    7.6373  -13.6113   19.8133 C   0  0  0  0  0  0  0  0  0  0  0  0
    7.9839  -14.2752   21.1348 C   0  0  2  0  0  0  0  0  0  0  0  0
    8.8445  -13.3515   21.9188 C   0  0  0  0  0  0  0  0  0  0  0  0
    8.5785  -15.6119   20.8489 C   0  0  2  0  0  0  0  0  0  0  0  0
    7.5344  -16.4113   20.1877 N   0  0  0  0  0  0  0  0  0  0  0  0
    9.0100  -16.3476   22.0448 C   0  0  0  0  0  0  0  0  0  0  0  0
    8.1290  -16.9023   22.7514 O   0  0  0  0  0  0  0  0  0  0  0  0
   11.9352  -20.1737   23.1925 N   0  0  0  0  0  0  0  0  0  0  0  0
   12.1767  -18.8885   22.6451 C   0  0  0  0  0  0  0  0  0  0  0  0
   12.4066  -18.7516   21.4206 O   0  0  0  0  0  0  0  0  0  0  0  0
   12.1598  -17.7047   23.5082 C   0  0  0  0  0  0  0  0  0  0  0  0
   10.7670  -17.1253   23.7023 C   0  0  2  0  0  0  0  0  0  0  0  0
   10.3598  -16.4825   22.4697 N   0  0  0  0  0  0  0  0  0  0  0  0
   10.9145  -16.0751   24.7378 C   0  0  0  0  0  0  0  0  0  0  0  0
   11.1650  -14.9028   24.3800 O   0  0  0  0  0  0  0  0  0  0  0  0
   10.7853  -16.3299   26.1331 N   0  0  0  0  0  0  0  0  0  0  0  0
   10.6778  -15.2593   27.1089 C   0  0  1  0  0  0  0  0  0  0  0  0
    9.4071  -14.4676   26.8216 C   0  0  0  0  0  0  0  0  0  0  0  0
    9.1447  -13.1807   28.0622 S   0  0  0  0  0  0  0  0  0  0  0  0
   10.6635  -15.8328   28.4652 C   0  0  0  0  0  0  0  0  0  0  0  0
   10.5804  -17.2201   28.6884 O   0  0  0  0  0  0  0  0  0  0  0  0
   10.7241  -15.1256   29.5034 O   0  0  0  0  0  0  0  0  0  0  0  0
  2  1  1  0
  3  2  1  0
  3  4  1  6
  5  3  1  0
  5  6  1  1
  7  5  1  0
  7  8  2  0
 10 12  1  0
 10  9  1  0
 11 10  2  0
 13 12  1  6
 13 14  1  0
 13 15  1  0
 14  7  1  0
 15 17  1  0
 16 15  2  0
 17 18  1  0
 18 21  1  0
 19 20  1  0
 18 19  1  6
 21 23  2  0
 21 22  1  0
M  END
$$$$
