INC.pdb
     RDKit          3D

 23 22  0  0  1  0  0  0  0  0999 V2000
    8.6518  -11.6679   19.7204 C   0  0  0  0  0  0  0  0  0  0  0  0
    8.5617  -13.0333   20.3096 C   0  0  0  0  0  0  0  0  0  0  0  0
    7.8331  -14.0255   19.4197 C   0  0  2  0  0  0  0  0  0  0  0  0
    6.4461  -13.5384   19.2017 C   0  0  0  0  0  0  0  0  0  0  0  0
    7.9440  -15.3792   20.0340 C   0  0  2  0  0  0  0  0  0  0  0  0
    7.2810  -15.3083   21.3462 N   0  0  0  0  0  0  0  0  0  0  0  0
    9.3246  -15.8279   20.2581 C   0  0  0  0  0  0  0  0  0  0  0  0
   10.0530  -16.0339   19.2531 O   0  0  0  0  0  0  0  0  0  0  0  0
   13.9611  -17.1954   21.7803 N   0  0  0  0  0  0  0  0  0  0  0  0
   13.6115  -16.0077   21.0898 C   0  0  0  0  0  0  0  0  0  0  0  0
   14.4879  -15.3340   20.4992 O   0  0  0  0  0  0  0  0  0  0  0  0
   12.2183  -15.5554   21.0600 C   0  0  0  0  0  0  0  0  0  0  0  0
   11.2613  -16.5191   21.7448 C   0  0  2  0  0  0  0  0  0  0  0  0
    9.9071  -16.0494   21.5357 N   0  0  0  0  0  0  0  0  0  0  0  0
   11.5620  -16.4156   23.1925 C   0  0  0  0  0  0  0  0  0  0  0  0
   12.6439  -15.8999   23.5511 O   0  0  0  0  0  0  0  0  0  0  0  0
   10.6771  -16.8760   24.2091 N   0  0  0  0  0  0  0  0  0  0  0  0
   10.9778  -16.7280   25.6225 C   0  0  1  0  0  0  0  0  0  0  0  0
    9.7137  -16.2706   26.3415 C   0  0  0  0  0  0  0  0  0  0  0  0
    8.5931  -15.4146   25.2121 S   0  0  0  0  0  0  0  0  0  0  0  0
   11.4699  -18.0096   26.1551 C   0  0  0  0  0  0  0  0  0  0  0  0
   11.8918  -18.1505   27.4907 O   0  0  0  0  0  0  0  0  0  0  0  0
   11.5446  -19.0528   25.4567 O   0  0  0  0  0  0  0  0  0  0  0  0
  2  1  1  0
  3  2  1  0
  3  4  1  1
  5  3  1  0
  5  6  1  1
  7  5  1  0
  7  8  2  0
 10 12  1  0
 10  9  1  0
 11 10  2  0
 13 12  1  6
 13 14  1  0
 13 15  1  0
 14  7  1  0
 15 17  1  0
 16 15  2  0
 17 18  1  0
 18 21  1  0
 19 20  1  0
 18 19  1  1
 21 23  2  0
 21 22  1  0
M  END
$$$$
