INC.pdb
     RDKit          3D

 23 22  0  0  1  0  0  0  0  0999 V2000
    7.3364  -11.9894   18.9597 C   0  0  0  0  0  0  0  0  0  0  0  0
    8.1190  -13.2102   18.6178 C   0  0  0  0  0  0  0  0  0  0  0  0
    8.1339  -14.2459   19.7289 C   0  0  2  0  0  0  0  0  0  0  0  0
    8.6214  -13.5986   20.9747 C   0  0  0  0  0  0  0  0  0  0  0  0
    8.9282  -15.4201   19.2679 C   0  0  2  0  0  0  0  0  0  0  0  0
    8.2431  -15.9602   18.0824 N   0  0  0  0  0  0  0  0  0  0  0  0
    9.0292  -16.5038   20.2542 C   0  0  0  0  0  0  0  0  0  0  0  0
    8.0160  -17.2229   20.4529 O   0  0  0  0  0  0  0  0  0  0  0  0
   13.6479  -17.7262   20.7400 N   0  0  0  0  0  0  0  0  0  0  0  0
   12.3168  -18.2065   20.6552 C   0  0  0  0  0  0  0  0  0  0  0  0
   11.7513  -18.3204   19.5425 O   0  0  0  0  0  0  0  0  0  0  0  0
   11.5875  -18.5752   21.8712 C   0  0  0  0  0  0  0  0  0  0  0  0
   10.2660  -17.8376   22.0235 C   0  0  2  0  0  0  0  0  0  0  0  0
   10.1952  -16.8058   21.0092 N   0  0  0  0  0  0  0  0  0  0  0  0
   10.3324  -17.1730   23.3467 C   0  0  0  0  0  0  0  0  0  0  0  0
   11.1199  -16.2138   23.5039 O   0  0  0  0  0  0  0  0  0  0  0  0
    9.5401  -17.5709   24.4614 N   0  0  0  0  0  0  0  0  0  0  0  0
    9.6550  -16.9312   25.7605 C   0  0  1  0  0  0  0  0  0  0  0  0
    8.2627  -16.5123   26.2192 C   0  0  0  0  0  0  0  0  0  0  0  0
    7.3071  -15.8157   24.8534 S   0  0  0  0  0  0  0  0  0  0  0  0
   10.2805  -17.8648   26.7122 C   0  0  0  0  0  0  0  0  0  0  0  0
   10.6186  -17.4795   28.0232 O   0  0  0  0  0  0  0  0  0  0  0  0
   10.5509  -19.0571   26.4175 O   0  0  0  0  0  0  0  0  0  0  0  0
  2  1  1  0
  3  2  1  0
  3  4  1  1
  5  3  1  0
  5  6  1  6
  7  5  1  0
  7  8  2  0
 10 12  1  0
 10  9  1  0
 11 10  2  0
 13 12  1  6
 13 14  1  0
 13 15  1  0
 14  7  1  0
 15 17  1  0
 16 15  2  0
 17 18  1  0
 18 21  1  0
 19 20  1  0
 18 19  1  1
 21 23  2  0
 21 22  1  0
M  END
$$$$
