INC.pdb
     RDKit          3D

 23 22  0  0  1  0  0  0  0  0999 V2000
    8.0987  -12.2385   19.5962 C   0  0  0  0  0  0  0  0  0  0  0  0
    7.2427  -13.4410   19.7984 C   0  0  0  0  0  0  0  0  0  0  0  0
    7.5842  -14.2174   21.0585 C   0  0  2  0  0  0  0  0  0  0  0  0
    8.1620  -13.2768   22.0537 C   0  0  0  0  0  0  0  0  0  0  0  0
    8.4592  -15.3643   20.6828 C   0  0  2  0  0  0  0  0  0  0  0  0
    7.6596  -16.2455   19.8164 N   0  0  0  0  0  0  0  0  0  0  0  0
    8.9244  -16.1658   21.8225 C   0  0  0  0  0  0  0  0  0  0  0  0
    8.0728  -16.8271   22.4710 O   0  0  0  0  0  0  0  0  0  0  0  0
   13.1646  -18.4977   21.2663 N   0  0  0  0  0  0  0  0  0  0  0  0
   12.2277  -18.5357   22.3295 C   0  0  0  0  0  0  0  0  0  0  0  0
   11.4750  -19.5266   22.4790 O   0  0  0  0  0  0  0  0  0  0  0  0
   12.1304  -17.4136   23.2665 C   0  0  0  0  0  0  0  0  0  0  0  0
   10.7051  -16.9213   23.4649 C   0  0  2  0  0  0  0  0  0  0  0  0
   10.2762  -16.2527   22.2535 N   0  0  0  0  0  0  0  0  0  0  0  0
   10.7815  -15.9074   24.5433 C   0  0  0  0  0  0  0  0  0  0  0  0
   11.7355  -15.0981   24.5472 O   0  0  0  0  0  0  0  0  0  0  0  0
    9.8180  -15.8027   25.5870 N   0  0  0  0  0  0  0  0  0  0  0  0
    9.8981  -14.7793   26.6147 C   0  0  1  0  0  0  0  0  0  0  0  0
    8.5341  -14.1099   26.7393 C   0  0  0  0  0  0  0  0  0  0  0  0
    8.5363  -12.8606   28.0443 S   0  0  0  0  0  0  0  0  0  0  0  0
   10.3179  -15.3936   27.8856 C   0  0  0  0  0  0  0  0  0  0  0  0
   10.9827  -14.6596   28.8859 O   0  0  0  0  0  0  0  0  0  0  0  0
   10.1111  -16.6040   28.1570 O   0  0  0  0  0  0  0  0  0  0  0  0
  2  1  1  0
  3  2  1  0
  3  4  1  1
  5  3  1  0
  5  6  1  6
  7  5  1  0
  7  8  2  0
 10 12  1  0
 10  9  1  0
 11 10  2  0
 13 12  1  6
 13 14  1  0
 13 15  1  0
 14  7  1  0
 15 17  1  0
 16 15  2  0
 17 18  1  0
 18 21  1  0
 19 20  1  0
 18 19  1  1
 21 23  2  0
 21 22  1  0
M  END
$$$$
