INC.pdb
     RDKit          3D

 23 22  0  0  1  0  0  0  0  0999 V2000
    5.5618  -11.5810   26.6280 C   0  0  0  0  0  0  0  0  0  0  0  0
    5.5141  -12.8637   25.8718 C   0  0  0  0  0  0  0  0  0  0  0  0
    6.8670  -13.5448   25.7569 C   0  0  2  0  0  0  0  0  0  0  0  0
    7.8444  -12.5695   25.2073 C   0  0  0  0  0  0  0  0  0  0  0  0
    6.6991  -14.7952   24.9628 C   0  0  2  0  0  0  0  0  0  0  0  0
    5.6363  -15.5765   25.6160 N   0  0  0  0  0  0  0  0  0  0  0  0
    7.8999  -15.6392   24.9070 C   0  0  0  0  0  0  0  0  0  0  0  0
    8.0561  -16.5105   25.8012 O   0  0  0  0  0  0  0  0  0  0  0  0
   12.0401  -18.2184   23.0247 N   0  0  0  0  0  0  0  0  0  0  0  0
   11.7947  -17.1090   22.1769 C   0  0  0  0  0  0  0  0  0  0  0  0
   12.3734  -17.0148   21.0692 O   0  0  0  0  0  0  0  0  0  0  0  0
   10.8597  -16.0591   22.5890 C   0  0  0  0  0  0  0  0  0  0  0  0
   10.0598  -16.4234   23.8303 C   0  0  2  0  0  0  0  0  0  0  0  0
    8.9094  -15.5467   23.9105 N   0  0  0  0  0  0  0  0  0  0  0  0
   10.9469  -16.1185   24.9780 C   0  0  0  0  0  0  0  0  0  0  0  0
   11.7895  -15.2008   24.8651 O   0  0  0  0  0  0  0  0  0  0  0  0
   10.8921  -16.8207   26.2159 N   0  0  0  0  0  0  0  0  0  0  0  0
   11.7364  -16.4680   27.3440 C   0  0  1  0  0  0  0  0  0  0  0  0
   11.4804  -15.0087   27.7032 C   0  0  0  0  0  0  0  0  0  0  0  0
    9.9080  -14.8158   28.5716 S   0  0  0  0  0  0  0  0  0  0  0  0
   11.4416  -17.3638   28.4751 C   0  0  0  0  0  0  0  0  0  0  0  0
   12.2112  -17.3563   29.6537 O   0  0  0  0  0  0  0  0  0  0  0  0
   10.4907  -18.1867   28.4611 O   0  0  0  0  0  0  0  0  0  0  0  0
  2  1  1  0
  3  2  1  0
  3  4  1  6
  5  3  1  0
  5  6  1  1
  7  5  1  0
  7  8  2  0
 10 12  1  0
 10  9  1  0
 11 10  2  0
 13 12  1  6
 13 14  1  0
 13 15  1  0
 14  7  1  0
 15 17  1  0
 16 15  2  0
 17 18  1  0
 18 21  1  0
 19 20  1  0
 18 19  1  1
 21 23  2  0
 21 22  1  0
M  END
$$$$
