INC.pdb
     RDKit          3D

 23 22  0  0  1  0  0  0  0  0999 V2000
    7.7986  -13.4798   21.5906 C   0  0  0  0  0  0  0  0  0  0  0  0
    8.2620  -14.2450   20.3992 C   0  0  0  0  0  0  0  0  0  0  0  0
    8.5958  -13.3615   19.2095 C   0  0  2  0  0  0  0  0  0  0  0  0
    7.3866  -12.5775   18.8463 C   0  0  0  0  0  0  0  0  0  0  0  0
    9.1474  -14.2216   18.1241 C   0  0  2  0  0  0  0  0  0  0  0  0
    8.1077  -15.2090   17.7916 N   0  0  0  0  0  0  0  0  0  0  0  0
   10.3591  -14.9623   18.4993 C   0  0  0  0  0  0  0  0  0  0  0  0
   10.2568  -16.1970   18.7188 O   0  0  0  0  0  0  0  0  0  0  0  0
   16.4981  -14.4201   18.8838 N   0  0  0  0  0  0  0  0  0  0  0  0
   15.3075  -15.1397   18.6116 C   0  0  0  0  0  0  0  0  0  0  0  0
   15.3185  -16.3920   18.5610 O   0  0  0  0  0  0  0  0  0  0  0  0
   14.0490  -14.4241   18.3862 C   0  0  0  0  0  0  0  0  0  0  0  0
   12.8434  -15.1289   18.9888 C   0  0  2  0  0  0  0  0  0  0  0  0
   11.6514  -14.3858   18.6350 N   0  0  0  0  0  0  0  0  0  0  0  0
   13.0212  -15.0346   20.4572 C   0  0  0  0  0  0  0  0  0  0  0  0
   13.3884  -13.9468   20.9542 O   0  0  0  0  0  0  0  0  0  0  0  0
   12.7944  -16.1262   21.3435 N   0  0  0  0  0  0  0  0  0  0  0  0
   13.0172  -16.0204   22.7749 C   0  0  1  0  0  0  0  0  0  0  0  0
   11.9914  -16.8920   23.4907 C   0  0  0  0  0  0  0  0  0  0  0  0
   10.3135  -16.2761   23.2273 S   0  0  0  0  0  0  0  0  0  0  0  0
   14.3945  -16.4372   23.0881 C   0  0  0  0  0  0  0  0  0  0  0  0
   14.9472  -16.2828   24.3735 O   0  0  0  0  0  0  0  0  0  0  0  0
   15.1596  -16.9538   22.2342 O   0  0  0  0  0  0  0  0  0  0  0  0
  2  1  1  0
  3  2  1  0
  3  4  1  6
  5  3  1  0
  5  6  1  1
  7  5  1  0
  7  8  2  0
 10 12  1  0
 10  9  1  0
 11 10  2  0
 13 12  1  6
 13 14  1  0
 13 15  1  0
 14  7  1  0
 15 17  1  0
 16 15  2  0
 17 18  1  0
 18 21  1  0
 19 20  1  0
 18 19  1  1
 21 23  2  0
 21 22  1  0
M  END
$$$$
