INC.pdb
     RDKit          3D

 23 22  0  0  1  0  0  0  0  0999 V2000
    7.3821  -12.3319   19.2416 C   0  0  0  0  0  0  0  0  0  0  0  0
    7.9802  -13.6893   19.3804 C   0  0  0  0  0  0  0  0  0  0  0  0
    7.9343  -14.2244   20.8013 C   0  0  2  0  0  0  0  0  0  0  0  0
    8.4626  -13.1813   21.7187 C   0  0  0  0  0  0  0  0  0  0  0  0
    8.6550  -15.5288   20.8370 C   0  0  2  0  0  0  0  0  0  0  0  0
    7.8914  -16.4619   19.9927 N   0  0  0  0  0  0  0  0  0  0  0  0
    8.7573  -16.1241   22.1760 C   0  0  0  0  0  0  0  0  0  0  0  0
    7.7377  -16.6822   22.6577 O   0  0  0  0  0  0  0  0  0  0  0  0
   11.8267  -19.0102   22.3813 N   0  0  0  0  0  0  0  0  0  0  0  0
   11.0403  -18.8223   23.5457 C   0  0  0  0  0  0  0  0  0  0  0  0
   10.1932  -19.6808   23.8867 O   0  0  0  0  0  0  0  0  0  0  0  0
   11.2109  -17.6190   24.3640 C   0  0  0  0  0  0  0  0  0  0  0  0
   10.0133  -16.6829   24.3089 C   0  0  2  0  0  0  0  0  0  0  0  0
    9.9313  -16.1181   22.9775 N   0  0  0  0  0  0  0  0  0  0  0  0
   10.3248  -15.5834   25.2528 C   0  0  0  0  0  0  0  0  0  0  0  0
   11.3869  -14.9395   25.1032 O   0  0  0  0  0  0  0  0  0  0  0  0
    9.4721  -15.2156   26.3327 N   0  0  0  0  0  0  0  0  0  0  0  0
    9.8459  -14.2019   27.3036 C   0  0  1  0  0  0  0  0  0  0  0  0
    8.6287  -13.3281   27.5848 C   0  0  0  0  0  0  0  0  0  0  0  0
    7.7848  -12.8714   26.0541 S   0  0  0  0  0  0  0  0  0  0  0  0
   10.3382  -14.8549   28.5283 C   0  0  0  0  0  0  0  0  0  0  0  0
   10.9147  -14.1239   29.5841 O   0  0  0  0  0  0  0  0  0  0  0  0
   10.2758  -16.0979   28.7085 O   0  0  0  0  0  0  0  0  0  0  0  0
  2  1  1  0
  3  2  1  0
  3  4  1  1
  5  3  1  0
  5  6  1  6
  7  5  1  0
  7  8  2  0
 10 12  1  0
 10  9  1  0
 11 10  2  0
 13 12  1  6
 13 14  1  0
 13 15  1  0
 14  7  1  0
 15 17  1  0
 16 15  2  0
 17 18  1  0
 18 21  1  0
 19 20  1  0
 18 19  1  1
 21 23  2  0
 21 22  1  0
M  END
$$$$
