INC.pdb
     RDKit          3D

 23 22  0  0  1  0  0  0  0  0999 V2000
    8.2182  -11.9797   26.7752 C   0  0  0  0  0  0  0  0  0  0  0  0
    7.7235  -13.3632   27.0217 C   0  0  0  0  0  0  0  0  0  0  0  0
    7.8799  -14.2807   25.8212 C   0  0  2  0  0  0  0  0  0  0  0  0
    7.2501  -13.6313   24.6421 C   0  0  0  0  0  0  0  0  0  0  0  0
    7.3334  -15.6209   26.1782 C   0  0  2  0  0  0  0  0  0  0  0  0
    8.0829  -16.0879   27.3557 N   0  0  0  0  0  0  0  0  0  0  0  0
    7.4855  -16.6335   25.1251 C   0  0  0  0  0  0  0  0  0  0  0  0
    8.5500  -17.3036   25.0943 O   0  0  0  0  0  0  0  0  0  0  0  0
    6.6336  -19.8528   21.1013 N   0  0  0  0  0  0  0  0  0  0  0  0
    5.3933  -19.2596   21.4468 C   0  0  0  0  0  0  0  0  0  0  0  0
    4.3337  -19.6305   20.8897 O   0  0  0  0  0  0  0  0  0  0  0  0
    5.3383  -18.2043   22.4616 C   0  0  0  0  0  0  0  0  0  0  0  0
    6.6989  -17.8736   23.0557 C   0  0  2  0  0  0  0  0  0  0  0  0
    6.5130  -16.9176   24.1280 N   0  0  0  0  0  0  0  0  0  0  0  0
    7.4532  -17.2019   21.9709 C   0  0  0  0  0  0  0  0  0  0  0  0
    7.8847  -17.8885   21.0183 O   0  0  0  0  0  0  0  0  0  0  0  0
    7.7169  -15.8024   21.9533 N   0  0  0  0  0  0  0  0  0  0  0  0
    8.4451  -15.1654   20.8699 C   0  0  1  0  0  0  0  0  0  0  0  0
    7.8301  -13.7943   20.6130 C   0  0  0  0  0  0  0  0  0  0  0  0
    7.6305  -12.8692   22.1518 S   0  0  0  0  0  0  0  0  0  0  0  0
    9.8688  -15.0610   21.2319 C   0  0  0  0  0  0  0  0  0  0  0  0
   10.8289  -14.5413   20.3433 O   0  0  0  0  0  0  0  0  0  0  0  0
   10.3151  -15.4265   22.3494 O   0  0  0  0  0  0  0  0  0  0  0  0
  2  1  1  0
  3  2  1  0
  3  4  1  6
  5  3  1  0
  5  6  1  1
  7  5  1  0
  7  8  2  0
 10 12  1  0
 10  9  1  0
 11 10  2  0
 13 12  1  6
 13 14  1  0
 13 15  1  0
 14  7  1  0
 15 17  1  0
 16 15  2  0
 17 18  1  0
 18 21  1  0
 19 20  1  0
 18 19  1  1
 21 23  2  0
 21 22  1  0
M  END
$$$$
