INC.pdb
     RDKit          3D

 23 22  0  0  1  0  0  0  0  0999 V2000
    9.1746  -12.4047   19.4732 C   0  0  0  0  0  0  0  0  0  0  0  0
    9.0177  -13.3978   20.5725 C   0  0  0  0  0  0  0  0  0  0  0  0
    7.7891  -14.2774   20.4177 C   0  0  2  0  0  0  0  0  0  0  0  0
    6.5797  -13.4143   20.4536 C   0  0  0  0  0  0  0  0  0  0  0  0
    7.8406  -15.3459   21.4559 C   0  0  2  0  0  0  0  0  0  0  0  0
    7.8580  -14.6703   22.7635 N   0  0  0  0  0  0  0  0  0  0  0  0
    9.0329  -16.2006   21.3821 C   0  0  0  0  0  0  0  0  0  0  0  0
    9.0320  -17.1522   20.5590 O   0  0  0  0  0  0  0  0  0  0  0  0
   13.6332  -17.9901   20.1676 N   0  0  0  0  0  0  0  0  0  0  0  0
   13.6633  -16.9754   21.1571 C   0  0  0  0  0  0  0  0  0  0  0  0
   14.7001  -16.7760   21.8324 O   0  0  0  0  0  0  0  0  0  0  0  0
   12.4790  -16.1478   21.4003 C   0  0  0  0  0  0  0  0  0  0  0  0
   11.3618  -16.8959   22.1115 C   0  0  2  0  0  0  0  0  0  0  0  0
   10.1995  -16.0338   22.1771 N   0  0  0  0  0  0  0  0  0  0  0  0
   11.8474  -17.1135   23.4948 C   0  0  0  0  0  0  0  0  0  0  0  0
   12.3893  -16.1640   24.1029 O   0  0  0  0  0  0  0  0  0  0  0  0
   11.7297  -18.3580   24.1775 N   0  0  0  0  0  0  0  0  0  0  0  0
   11.8637  -18.4654   25.6199 C   0  0  1  0  0  0  0  0  0  0  0  0
   10.7599  -17.6402   26.2719 C   0  0  0  0  0  0  0  0  0  0  0  0
   10.8826  -17.6928   28.0735 S   0  0  0  0  0  0  0  0  0  0  0  0
   11.7856  -19.8820   26.0146 C   0  0  0  0  0  0  0  0  0  0  0  0
   12.3912  -20.3639   27.1904 O   0  0  0  0  0  0  0  0  0  0  0  0
   11.1778  -20.7458   25.3321 O   0  0  0  0  0  0  0  0  0  0  0  0
  2  1  1  0
  3  2  1  0
  3  4  1  1
  5  3  1  0
  5  6  1  1
  7  5  1  0
  7  8  2  0
 10 12  1  0
 10  9  1  0
 11 10  2  0
 13 12  1  6
 13 14  1  0
 13 15  1  0
 14  7  1  0
 15 17  1  0
 16 15  2  0
 17 18  1  0
 18 21  1  0
 19 20  1  0
 18 19  1  1
 21 23  2  0
 21 22  1  0
M  END
$$$$
