INC.pdb
     RDKit          3D

 23 22  0  0  1  0  0  0  0  0999 V2000
    7.5806  -12.1486   18.9858 C   0  0  0  0  0  0  0  0  0  0  0  0
    7.9762  -13.5732   19.1685 C   0  0  0  0  0  0  0  0  0  0  0  0
    7.9454  -14.0248   20.6184 C   0  0  2  0  0  0  0  0  0  0  0  0
    8.7209  -13.0546   21.4344 C   0  0  0  0  0  0  0  0  0  0  0  0
    8.4219  -15.4359   20.6827 C   0  0  2  0  0  0  0  0  0  0  0  0
    7.4614  -16.2463   19.9165 N   0  0  0  0  0  0  0  0  0  0  0  0
    8.4847  -15.9893   22.0419 C   0  0  0  0  0  0  0  0  0  0  0  0
    7.4128  -16.3737   22.5771 O   0  0  0  0  0  0  0  0  0  0  0  0
   12.3597  -18.4043   26.0946 N   0  0  0  0  0  0  0  0  0  0  0  0
   11.0847  -18.3174   25.4810 C   0  0  0  0  0  0  0  0  0  0  0  0
   10.0755  -18.8084   26.0390 O   0  0  0  0  0  0  0  0  0  0  0  0
   10.9343  -17.6509   24.1850 C   0  0  0  0  0  0  0  0  0  0  0  0
    9.7334  -16.7193   24.1268 C   0  0  2  0  0  0  0  0  0  0  0  0
    9.6751  -16.1254   22.8068 N   0  0  0  0  0  0  0  0  0  0  0  0
   10.0206  -15.6397   25.1008 C   0  0  0  0  0  0  0  0  0  0  0  0
   11.0607  -14.9587   24.9609 O   0  0  0  0  0  0  0  0  0  0  0  0
    9.1683  -15.3316   26.1996 N   0  0  0  0  0  0  0  0  0  0  0  0
    9.5227  -14.3397   27.1998 C   0  0  1  0  0  0  0  0  0  0  0  0
    8.2471  -13.6524   27.6739 C   0  0  0  0  0  0  0  0  0  0  0  0
    7.2389  -13.1105   26.2762 S   0  0  0  0  0  0  0  0  0  0  0  0
   10.2291  -14.9970   28.3122 C   0  0  0  0  0  0  0  0  0  0  0  0
   10.8341  -14.2632   29.3500 O   0  0  0  0  0  0  0  0  0  0  0  0
   10.3366  -16.2465   28.4062 O   0  0  0  0  0  0  0  0  0  0  0  0
  2  1  1  0
  3  2  1  0
  3  4  1  1
  5  3  1  0
  5  6  1  6
  7  5  1  0
  7  8  2  0
 10 12  1  0
 10  9  1  0
 11 10  2  0
 13 12  1  6
 13 14  1  0
 13 15  1  0
 14  7  1  0
 15 17  1  0
 16 15  2  0
 17 18  1  0
 18 21  1  0
 19 20  1  0
 18 19  1  1
 21 23  2  0
 21 22  1  0
M  END
$$$$
