INC.pdb
     RDKit          3D

 23 22  0  0  1  0  0  0  0  0999 V2000
    7.2473  -12.0125   19.3477 C   0  0  0  0  0  0  0  0  0  0  0  0
    7.9642  -13.2621   18.9681 C   0  0  0  0  0  0  0  0  0  0  0  0
    8.0272  -14.2840   20.0902 C   0  0  2  0  0  0  0  0  0  0  0  0
    8.6594  -13.6488   21.2758 C   0  0  0  0  0  0  0  0  0  0  0  0
    8.7142  -15.5039   19.5785 C   0  0  2  0  0  0  0  0  0  0  0  0
    7.8421  -16.0830   18.5439 N   0  0  0  0  0  0  0  0  0  0  0  0
    8.9427  -16.5383   20.5962 C   0  0  0  0  0  0  0  0  0  0  0  0
    7.9794  -17.2830   20.9132 O   0  0  0  0  0  0  0  0  0  0  0  0
   12.1608  -20.5496   23.1132 N   0  0  0  0  0  0  0  0  0  0  0  0
   12.1583  -19.1501   23.3386 C   0  0  0  0  0  0  0  0  0  0  0  0
   12.4464  -18.6869   24.4670 O   0  0  0  0  0  0  0  0  0  0  0  0
   11.8178  -18.2291   22.2512 C   0  0  0  0  0  0  0  0  0  0  0  0
   10.3778  -17.7425   22.3077 C   0  0  2  0  0  0  0  0  0  0  0  0
   10.1807  -16.7650   21.2570 N   0  0  0  0  0  0  0  0  0  0  0  0
   10.2445  -17.0467   23.6095 C   0  0  0  0  0  0  0  0  0  0  0  0
   10.8710  -15.9794   23.7928 O   0  0  0  0  0  0  0  0  0  0  0  0
    9.4334  -17.5315   24.6752 N   0  0  0  0  0  0  0  0  0  0  0  0
    9.4225  -16.9061   25.9861 C   0  0  1  0  0  0  0  0  0  0  0  0
    8.0910  -16.1863   26.1686 C   0  0  0  0  0  0  0  0  0  0  0  0
    6.9482  -16.5760   24.8247 S   0  0  0  0  0  0  0  0  0  0  0  0
    9.6287  -17.9338   27.0205 C   0  0  0  0  0  0  0  0  0  0  0  0
    9.7371  -17.6079   28.3856 O   0  0  0  0  0  0  0  0  0  0  0  0
    9.7205  -19.1592   26.7531 O   0  0  0  0  0  0  0  0  0  0  0  0
  2  1  1  0
  3  2  1  0
  3  4  1  1
  5  3  1  0
  5  6  1  6
  7  5  1  0
  7  8  2  0
 10 12  1  0
 10  9  1  0
 11 10  2  0
 13 12  1  6
 13 14  1  0
 13 15  1  0
 14  7  1  0
 15 17  1  0
 16 15  2  0
 17 18  1  0
 18 21  1  0
 19 20  1  0
 18 19  1  1
 21 23  2  0
 21 22  1  0
M  END
$$$$
