INC.pdb
     RDKit          3D

 23 22  0  0  1  0  0  0  0  0999 V2000
    7.5777  -12.1671   19.1709 C   0  0  0  0  0  0  0  0  0  0  0  0
    7.9646  -13.5961   19.3374 C   0  0  0  0  0  0  0  0  0  0  0  0
    7.7587  -14.1142   20.7504 C   0  0  2  0  0  0  0  0  0  0  0  0
    8.4729  -13.2156   21.6944 C   0  0  0  0  0  0  0  0  0  0  0  0
    8.1760  -15.5447   20.7932 C   0  0  2  0  0  0  0  0  0  0  0  0
    7.2713  -16.2805   19.8951 N   0  0  0  0  0  0  0  0  0  0  0  0
    8.0790  -16.1610   22.1230 C   0  0  0  0  0  0  0  0  0  0  0  0
    6.9541  -16.1856   22.6861 O   0  0  0  0  0  0  0  0  0  0  0  0
    8.5381  -19.3918   22.5620 N   0  0  0  0  0  0  0  0  0  0  0  0
    9.6468  -19.5202   23.4360 C   0  0  0  0  0  0  0  0  0  0  0  0
   10.3303  -20.5706   23.4464 O   0  0  0  0  0  0  0  0  0  0  0  0
   10.0051  -18.4226   24.3380 C   0  0  0  0  0  0  0  0  0  0  0  0
    9.0964  -17.2111   24.1970 C   0  0  2  0  0  0  0  0  0  0  0  0
    9.1693  -16.7376   22.8299 N   0  0  0  0  0  0  0  0  0  0  0  0
    9.6843  -16.1697   25.0726 C   0  0  0  0  0  0  0  0  0  0  0  0
   10.6922  -15.5433   24.6763 O   0  0  0  0  0  0  0  0  0  0  0  0
    9.1592  -15.8391   26.3546 N   0  0  0  0  0  0  0  0  0  0  0  0
    9.7165  -14.7723   27.1679 C   0  0  1  0  0  0  0  0  0  0  0  0
    8.5767  -13.8760   27.6386 C   0  0  0  0  0  0  0  0  0  0  0  0
    8.9322  -12.1367   27.3032 S   0  0  0  0  0  0  0  0  0  0  0  0
   10.4512  -15.3552   28.3033 C   0  0  0  0  0  0  0  0  0  0  0  0
   11.3797  -14.6094   29.0536 O   0  0  0  0  0  0  0  0  0  0  0  0
   10.2977  -16.5474   28.6729 O   0  0  0  0  0  0  0  0  0  0  0  0
  2  1  1  0
  3  2  1  0
  3  4  1  1
  5  3  1  0
  5  6  1  6
  7  5  1  0
  7  8  2  0
 10 12  1  0
 10  9  1  0
 11 10  2  0
 13 12  1  6
 13 14  1  0
 13 15  1  0
 14  7  1  0
 15 17  1  0
 16 15  2  0
 17 18  1  0
 18 21  1  0
 19 20  1  0
 18 19  1  1
 21 23  2  0
 21 22  1  0
M  END
$$$$
