INC.pdb
     RDKit          3D

 23 22  0  0  1  0  0  0  0  0999 V2000
    7.3216  -10.8379   25.5347 C   0  0  0  0  0  0  0  0  0  0  0  0
    7.5091  -12.3159   25.5343 C   0  0  0  0  0  0  0  0  0  0  0  0
    6.2015  -13.0881   25.5017 C   0  0  2  0  0  0  0  0  0  0  0  0
    5.3685  -12.6601   26.6556 C   0  0  0  0  0  0  0  0  0  0  0  0
    6.5155  -14.5443   25.4477 C   0  0  2  0  0  0  0  0  0  0  0  0
    7.5808  -14.7883   26.4336 N   0  0  0  0  0  0  0  0  0  0  0  0
    7.0044  -15.0072   24.1422 C   0  0  0  0  0  0  0  0  0  0  0  0
    6.2497  -15.7382   23.4501 O   0  0  0  0  0  0  0  0  0  0  0  0
    7.8877  -12.2465   20.4188 N   0  0  0  0  0  0  0  0  0  0  0  0
    8.1224  -13.6347   20.5848 C   0  0  0  0  0  0  0  0  0  0  0  0
    7.4055  -14.4761   19.9942 O   0  0  0  0  0  0  0  0  0  0  0  0
    9.2086  -14.1001   21.4509 C   0  0  0  0  0  0  0  0  0  0  0  0
    8.7978  -15.2459   22.3629 C   0  0  2  0  0  0  0  0  0  0  0  0
    8.2774  -14.6897   23.5951 N   0  0  0  0  0  0  0  0  0  0  0  0
   10.0518  -15.9687   22.6821 C   0  0  0  0  0  0  0  0  0  0  0  0
   10.8900  -16.1579   21.7728 O   0  0  0  0  0  0  0  0  0  0  0  0
   10.3585  -16.4652   23.9813 N   0  0  0  0  0  0  0  0  0  0  0  0
   11.5689  -17.2198   24.2559 C   0  0  1  0  0  0  0  0  0  0  0  0
   11.9150  -17.0601   25.7320 C   0  0  0  0  0  0  0  0  0  0  0  0
   10.4855  -17.4102   26.7797 S   0  0  0  0  0  0  0  0  0  0  0  0
   11.3565  -18.6327   23.8993 C   0  0  0  0  0  0  0  0  0  0  0  0
   12.4104  -19.5657   23.8849 O   0  0  0  0  0  0  0  0  0  0  0  0
   10.2286  -19.0933   23.5871 O   0  0  0  0  0  0  0  0  0  0  0  0
  2  1  1  0
  3  2  1  0
  3  4  1  1
  5  3  1  0
  5  6  1  1
  7  5  1  0
  7  8  2  0
 10 12  1  0
 10  9  1  0
 11 10  2  0
 13 12  1  6
 13 14  1  0
 13 15  1  0
 14  7  1  0
 15 17  1  0
 16 15  2  0
 17 18  1  0
 18 21  1  0
 19 20  1  0
 18 19  1  1
 21 23  2  0
 21 22  1  0
M  END
$$$$
