LTA.pdb
     RDKit          3D

 21 20  0  0  1  0  0  0  0  0999 V2000
   16.4261  -14.8547  -16.3845 C   0  0  0  0  0  0  0  0  0  0  0  0
   17.8549  -15.3266  -16.1541 C   0  0  2  0  0  0  0  0  0  0  0  0
   17.8810  -15.9993  -14.8031 C   0  0  0  0  0  0  0  0  0  0  0  0
   18.8331  -14.1850  -16.2693 C   0  0  0  0  0  0  0  0  0  0  0  0
   18.8343  -13.6169  -17.6707 C   0  0  2  0  0  0  0  0  0  0  0  0
   19.3674  -14.5528  -18.6112 N   0  0  0  0  0  0  0  0  0  0  0  0
   19.5379  -12.3155  -17.6764 C   0  0  0  0  0  0  0  0  0  0  0  0
   20.7901  -12.3254  -17.7964 O   0  0  0  0  0  0  0  0  0  0  0  0
   19.1840   -9.5935  -20.1561 C   0  0  0  0  0  0  0  0  0  0  0  0
   18.9932   -8.9543  -18.8193 C   0  0  1  0  0  0  0  0  0  0  0  0
   17.6781   -8.6227  -18.5473 O   0  0  0  0  0  0  0  0  0  0  0  0
   19.5958   -9.8140  -17.7007 C   0  0  2  0  0  0  0  0  0  0  0  0
   18.9032  -11.0534  -17.5562 N   0  0  0  0  0  0  0  0  0  0  0  0
   19.6568   -9.0360  -16.4330 C   0  0  0  0  0  0  0  0  0  0  0  0
   18.6952   -9.0672  -15.6155 O   0  0  0  0  0  0  0  0  0  0  0  0
   22.1439   -6.8009  -14.6226 C   0  0  0  0  0  0  0  0  0  0  0  0
   20.7949   -7.3783  -14.9202 C   0  0  2  0  0  0  0  0  0  0  0  0
   20.7767   -8.2340  -16.0827 N   0  0  0  0  0  0  0  0  0  0  0  0
   19.7395   -6.3213  -15.0035 C   0  0  0  0  0  0  0  0  0  0  0  0
   19.0911   -5.8144  -13.8861 O   0  0  0  0  0  0  0  0  0  0  0  0
   19.4017   -5.8504  -16.1185 O   0  0  0  0  0  0  0  0  0  0  0  0
  2  1  1  1
  3  2  1  0
  4  2  1  0
  5  7  1  0
  5  4  1  0
  5  6  1  6
  7 13  1  0
  8  7  2  0
 10  9  1  6
 10 11  1  0
 12 10  1  0
 12 13  1  1
 14 15  2  0
 14 12  1  0
 17 16  1  6
 17 19  1  0
 17 18  1  0
 18 14  1  0
 19 20  1  0
 21 19  2  0
M  END
$$$$
