LTA.pdb
     RDKit          3D

 21 20  0  0  1  0  0  0  0  0999 V2000
   12.5054  -11.2537  -10.7876 C   0  0  0  0  0  0  0  0  0  0  0  0
   12.8827  -10.4313   -9.5635 C   0  0  2  0  0  0  0  0  0  0  0  0
   11.5964  -10.0963   -8.8480 C   0  0  0  0  0  0  0  0  0  0  0  0
   13.6838   -9.2134   -9.9487 C   0  0  0  0  0  0  0  0  0  0  0  0
   15.0041   -9.6119  -10.5686 C   0  0  2  0  0  0  0  0  0  0  0  0
   15.7784  -10.4142   -9.6734 N   0  0  0  0  0  0  0  0  0  0  0  0
   15.7163   -8.4024  -11.0362 C   0  0  0  0  0  0  0  0  0  0  0  0
   15.1769   -7.7168  -11.9424 O   0  0  0  0  0  0  0  0  0  0  0  0
   16.2415   -5.1749   -9.5136 C   0  0  0  0  0  0  0  0  0  0  0  0
   17.6074   -5.7092   -9.7982 C   0  0  1  0  0  0  0  0  0  0  0  0
   18.2456   -6.2189   -8.6818 O   0  0  0  0  0  0  0  0  0  0  0  0
   17.5773   -6.7324  -10.9408 C   0  0  2  0  0  0  0  0  0  0  0  0
   16.9663   -7.9572  -10.5368 N   0  0  0  0  0  0  0  0  0  0  0  0
   18.9467   -6.9252  -11.4921 C   0  0  0  0  0  0  0  0  0  0  0  0
   19.7621   -7.7035  -10.9238 O   0  0  0  0  0  0  0  0  0  0  0  0
   20.6969   -6.6342  -14.7190 C   0  0  0  0  0  0  0  0  0  0  0  0
   20.7088   -6.4730  -13.2305 C   0  0  2  0  0  0  0  0  0  0  0  0
   19.3993   -6.2578  -12.6625 N   0  0  0  0  0  0  0  0  0  0  0  0
   21.6754   -5.4200  -12.7891 C   0  0  0  0  0  0  0  0  0  0  0  0
   23.0464   -5.6294  -12.7385 O   0  0  0  0  0  0  0  0  0  0  0  0
   21.2610   -4.2856  -12.4425 O   0  0  0  0  0  0  0  0  0  0  0  0
  2  1  1  6
  3  2  1  0
  4  2  1  0
  5  7  1  0
  5  4  1  0
  5  6  1  1
  7 13  1  0
  8  7  2  0
 10  9  1  1
 10 11  1  0
 12 10  1  0
 12 13  1  1
 14 15  2  0
 14 12  1  0
 17 16  1  6
 17 19  1  0
 17 18  1  0
 18 14  1  0
 19 20  1  0
 21 19  2  0
M  END
$$$$
