LTA.pdb
     RDKit          3D

 21 20  0  0  1  0  0  0  0  0999 V2000
   27.2728  -18.6968   -4.8041 C   0  0  0  0  0  0  0  0  0  0  0  0
   27.6784  -20.0705   -5.3195 C   0  0  2  0  0  0  0  0  0  0  0  0
   29.0246  -20.3852   -4.7133 C   0  0  0  0  0  0  0  0  0  0  0  0
   27.6807  -20.1102   -6.8268 C   0  0  0  0  0  0  0  0  0  0  0  0
   26.2825  -19.9246   -7.3719 C   0  0  2  0  0  0  0  0  0  0  0  0
   25.4347  -21.0190   -7.0139 N   0  0  0  0  0  0  0  0  0  0  0  0
   26.3477  -19.6870   -8.8306 C   0  0  0  0  0  0  0  0  0  0  0  0
   26.9620  -18.6653   -9.2324 O   0  0  0  0  0  0  0  0  0  0  0  0
   28.1993  -21.3882  -11.2283 C   0  0  0  0  0  0  0  0  0  0  0  0
   26.8361  -21.3999  -11.8397 C   0  0  1  0  0  0  0  0  0  0  0  0
   26.2286  -22.6423  -11.8132 O   0  0  0  0  0  0  0  0  0  0  0  0
   25.9374  -20.3247  -11.2153 C   0  0  2  0  0  0  0  0  0  0  0  0
   25.7670  -20.5283   -9.8130 N   0  0  0  0  0  0  0  0  0  0  0  0
   24.6441  -20.2488  -11.9485 C   0  0  0  0  0  0  0  0  0  0  0  0
   23.6208  -20.8402  -11.5049 O   0  0  0  0  0  0  0  0  0  0  0  0
   23.2715  -18.4826  -15.0253 C   0  0  0  0  0  0  0  0  0  0  0  0
   23.2490  -19.4535  -13.8858 C   0  0  2  0  0  0  0  0  0  0  0  0
   24.4955  -19.5222  -13.1609 N   0  0  0  0  0  0  0  0  0  0  0  0
   22.7921  -20.8115  -14.3163 C   0  0  0  0  0  0  0  0  0  0  0  0
   21.4531  -21.1423  -14.4694 O   0  0  0  0  0  0  0  0  0  0  0  0
   23.6315  -21.7147  -14.5578 O   0  0  0  0  0  0  0  0  0  0  0  0
  2  1  1  6
  3  2  1  0
  4  2  1  0
  5  7  1  0
  5  4  1  0
  5  6  1  6
  7 13  1  0
  8  7  2  0
 10  9  1  1
 10 11  1  0
 12 10  1  0
 12 13  1  1
 14 15  2  0
 14 12  1  0
 17 16  1  6
 17 19  1  0
 17 18  1  0
 18 14  1  0
 19 20  1  0
 21 19  2  0
M  END
$$$$
