LTA.pdb
     RDKit          3D

 21 20  0  0  1  0  0  0  0  0999 V2000
   36.8761  -11.4489   -6.6159 C   0  0  0  0  0  0  0  0  0  0  0  0
   36.8556  -11.4835   -8.1376 C   0  0  2  0  0  0  0  0  0  0  0  0
   36.4311  -12.8757   -8.5379 C   0  0  0  0  0  0  0  0  0  0  0  0
   38.1902  -11.0802   -8.7117 C   0  0  0  0  0  0  0  0  0  0  0  0
   38.5931   -9.7070   -8.2235 C   0  0  2  0  0  0  0  0  0  0  0  0
   37.7445   -8.6920   -8.7662 N   0  0  0  0  0  0  0  0  0  0  0  0
   40.0280   -9.4830   -8.5051 C   0  0  0  0  0  0  0  0  0  0  0  0
   40.4001   -9.4984   -9.7067 O   0  0  0  0  0  0  0  0  0  0  0  0
   44.3660   -7.5983   -7.9977 C   0  0  0  0  0  0  0  0  0  0  0  0
   42.9089   -7.6992   -7.6831 C   0  0  1  0  0  0  0  0  0  0  0  0
   42.1237   -6.8249   -8.4127 O   0  0  0  0  0  0  0  0  0  0  0  0
   42.4099   -9.1437   -7.8171 C   0  0  2  0  0  0  0  0  0  0  0  0
   41.0187   -9.2515   -7.5176 N   0  0  0  0  0  0  0  0  0  0  0  0
   43.2498  -10.0545   -6.9919 C   0  0  0  0  0  0  0  0  0  0  0  0
   43.1704  -10.0333   -5.7322 O   0  0  0  0  0  0  0  0  0  0  0  0
   45.7208  -12.8843   -7.5787 C   0  0  0  0  0  0  0  0  0  0  0  0
   45.0043  -11.8450   -6.7735 C   0  0  2  0  0  0  0  0  0  0  0  0
   44.1663  -10.9769   -7.5659 N   0  0  0  0  0  0  0  0  0  0  0  0
   45.9416  -11.0607   -5.9107 C   0  0  0  0  0  0  0  0  0  0  0  0
   46.2508  -11.4263   -4.6081 O   0  0  0  0  0  0  0  0  0  0  0  0
   46.4898  -10.0206   -6.3540 O   0  0  0  0  0  0  0  0  0  0  0  0
  2  1  1  1
  3  2  1  0
  4  2  1  0
  5  7  1  0
  5  4  1  0
  5  6  1  6
  7 13  1  0
  8  7  2  0
 10  9  1  6
 10 11  1  0
 12 10  1  0
 12 13  1  1
 14 15  2  0
 14 12  1  0
 17 16  1  6
 17 19  1  0
 17 18  1  0
 18 14  1  0
 19 20  1  0
 21 19  2  0
M  END
$$$$
