LTA.pdb
     RDKit          3D

 21 20  0  0  1  0  0  0  0  0999 V2000
   21.6499  -26.3642  -17.6459 C   0  0  0  0  0  0  0  0  0  0  0  0
   21.7137  -25.2671  -16.5926 C   0  0  2  0  0  0  0  0  0  0  0  0
   22.6032  -24.1803  -17.1462 C   0  0  0  0  0  0  0  0  0  0  0  0
   22.1893  -25.8079  -15.2680 C   0  0  0  0  0  0  0  0  0  0  0  0
   21.3260  -26.9650  -14.8180 C   0  0  2  0  0  0  0  0  0  0  0  0
   19.9452  -26.5962  -14.7699 N   0  0  0  0  0  0  0  0  0  0  0  0
   21.8363  -27.4930  -13.5338 C   0  0  0  0  0  0  0  0  0  0  0  0
   23.0428  -27.2791  -13.2487 O   0  0  0  0  0  0  0  0  0  0  0  0
   21.2410  -28.7477   -8.8753 C   0  0  0  0  0  0  0  0  0  0  0  0
   20.7609  -28.1658  -10.1650 C   0  0  1  0  0  0  0  0  0  0  0  0
   20.7053  -26.7837  -10.1615 O   0  0  0  0  0  0  0  0  0  0  0  0
   21.5815  -28.6893  -11.3508 C   0  0  2  0  0  0  0  0  0  0  0  0
   21.0638  -28.2249  -12.5970 N   0  0  0  0  0  0  0  0  0  0  0  0
   21.6859  -30.1729  -11.2864 C   0  0  0  0  0  0  0  0  0  0  0  0
   20.7352  -30.8999  -11.6883 O   0  0  0  0  0  0  0  0  0  0  0  0
   24.2984  -32.7604  -10.3175 C   0  0  0  0  0  0  0  0  0  0  0  0
   22.9260  -32.2719  -10.6636 C   0  0  2  0  0  0  0  0  0  0  0  0
   22.8366  -30.8358  -10.7799 N   0  0  0  0  0  0  0  0  0  0  0  0
   21.8883  -32.8099   -9.7299 C   0  0  0  0  0  0  0  0  0  0  0  0
   21.2129  -34.0003   -9.9594 O   0  0  0  0  0  0  0  0  0  0  0  0
   21.5914  -32.1811   -8.6833 O   0  0  0  0  0  0  0  0  0  0  0  0
  2  1  1  6
  3  2  1  0
  4  2  1  0
  5  7  1  0
  5  4  1  0
  5  6  1  1
  7 13  1  0
  8  7  2  0
 10  9  1  1
 10 11  1  0
 12 10  1  0
 12 13  1  6
 14 15  2  0
 14 12  1  0
 17 16  1  1
 17 19  1  0
 17 18  1  0
 18 14  1  0
 19 20  1  0
 21 19  2  0
M  END
$$$$
