LTA.pdb
     RDKit          3D

 21 20  0  0  1  0  0  0  0  0999 V2000
   16.3929  -13.4028  -19.3439 C   0  0  0  0  0  0  0  0  0  0  0  0
   16.9781  -14.4218  -18.3763 C   0  0  2  0  0  0  0  0  0  0  0  0
   15.8393  -14.9116  -17.5150 C   0  0  0  0  0  0  0  0  0  0  0  0
   18.1143  -13.8307  -17.5807 C   0  0  0  0  0  0  0  0  0  0  0  0
   19.1970  -13.3064  -18.4968 C   0  0  2  0  0  0  0  0  0  0  0  0
   19.8804  -14.3738  -19.1591 N   0  0  0  0  0  0  0  0  0  0  0  0
   20.1003  -12.4155  -17.7360 C   0  0  0  0  0  0  0  0  0  0  0  0
   21.0188  -12.9479  -17.0611 O   0  0  0  0  0  0  0  0  0  0  0  0
   22.6347  -10.1555  -18.8981 C   0  0  0  0  0  0  0  0  0  0  0  0
   21.7520   -9.3102  -18.0387 C   0  0  1  0  0  0  0  0  0  0  0  0
   20.9216   -8.4691  -18.7573 O   0  0  0  0  0  0  0  0  0  0  0  0
   20.9561  -10.1675  -17.0462 C   0  0  2  0  0  0  0  0  0  0  0  0
   20.0073  -11.0010  -17.7110 N   0  0  0  0  0  0  0  0  0  0  0  0
   20.3351   -9.3030  -16.0055 C   0  0  0  0  0  0  0  0  0  0  0  0
   19.1879   -8.8077  -16.1854 O   0  0  0  0  0  0  0  0  0  0  0  0
   20.9737   -8.3654  -12.4017 C   0  0  0  0  0  0  0  0  0  0  0  0
   20.3933   -8.1570  -13.7661 C   0  0  2  0  0  0  0  0  0  0  0  0
   20.9865   -8.9958  -14.7802 N   0  0  0  0  0  0  0  0  0  0  0  0
   20.4130   -6.7164  -14.1688 C   0  0  0  0  0  0  0  0  0  0  0  0
   19.5271   -5.7788  -13.6567 O   0  0  0  0  0  0  0  0  0  0  0  0
   21.2555   -6.3042  -15.0049 O   0  0  0  0  0  0  0  0  0  0  0  0
  2  1  1  6
  3  2  1  0
  4  2  1  0
  5  7  1  0
  5  4  1  0
  5  6  1  1
  7 13  1  0
  8  7  2  0
 10  9  1  6
 10 11  1  0
 12 10  1  0
 12 13  1  6
 14 15  2  0
 14 12  1  0
 17 16  1  1
 17 19  1  0
 17 18  1  0
 18 14  1  0
 19 20  1  0
 21 19  2  0
M  END
$$$$
