LTA.pdb
     RDKit          3D

 21 20  0  0  1  0  0  0  0  0999 V2000
   38.1190  -13.0639   -8.5971 C   0  0  0  0  0  0  0  0  0  0  0  0
   37.7428  -12.3844   -7.2879 C   0  0  2  0  0  0  0  0  0  0  0  0
   36.2803  -12.6728   -7.0499 C   0  0  0  0  0  0  0  0  0  0  0  0
   38.0602  -10.9110   -7.3256 C   0  0  0  0  0  0  0  0  0  0  0  0
   39.5343  -10.6844   -7.5755 C   0  0  2  0  0  0  0  0  0  0  0  0
   40.3260  -11.1556   -6.4819 N   0  0  0  0  0  0  0  0  0  0  0  0
   39.7683   -9.2595   -7.8969 C   0  0  0  0  0  0  0  0  0  0  0  0
   39.8017   -8.4401   -6.9430 O   0  0  0  0  0  0  0  0  0  0  0  0
   42.6608   -7.6875   -9.8998 C   0  0  0  0  0  0  0  0  0  0  0  0
   41.3713   -7.1940  -10.4709 C   0  0  1  0  0  0  0  0  0  0  0  0
   41.0633   -7.7472  -11.7007 O   0  0  0  0  0  0  0  0  0  0  0  0
   40.2184   -7.3697   -9.4742 C   0  0  2  0  0  0  0  0  0  0  0  0
   39.9586   -8.7470   -9.2051 N   0  0  0  0  0  0  0  0  0  0  0  0
   39.0130   -6.6378   -9.9510 C   0  0  0  0  0  0  0  0  0  0  0  0
   38.1309   -7.2312  -10.6317 O   0  0  0  0  0  0  0  0  0  0  0  0
   37.1241   -3.5749   -9.0255 C   0  0  0  0  0  0  0  0  0  0  0  0
   37.5873   -4.5665  -10.0472 C   0  0  2  0  0  0  0  0  0  0  0  0
   38.7956   -5.2613   -9.6712 N   0  0  0  0  0  0  0  0  0  0  0  0
   37.7100   -3.9540  -11.4065 C   0  0  0  0  0  0  0  0  0  0  0  0
   38.9018   -3.9300  -12.1172 O   0  0  0  0  0  0  0  0  0  0  0  0
   36.7097   -3.4298  -11.9573 O   0  0  0  0  0  0  0  0  0  0  0  0
  2  1  1  6
  3  2  1  0
  4  2  1  0
  5  7  1  0
  5  4  1  0
  5  6  1  1
  7 13  1  0
  8  7  2  0
 10  9  1  1
 10 11  1  0
 12 10  1  0
 12 13  1  6
 14 15  2  0
 14 12  1  0
 17 16  1  1
 17 19  1  0
 17 18  1  0
 18 14  1  0
 19 20  1  0
 21 19  2  0
M  END
$$$$
