LTA.pdb
     RDKit          3D

 21 20  0  0  1  0  0  0  0  0999 V2000
   25.6911  -12.3609  -16.4310 C   0  0  0  0  0  0  0  0  0  0  0  0
   24.2897  -12.7967  -16.0267 C   0  0  2  0  0  0  0  0  0  0  0  0
   24.1278  -14.2267  -16.4823 C   0  0  0  0  0  0  0  0  0  0  0  0
   23.2441  -11.8698  -16.5931 C   0  0  0  0  0  0  0  0  0  0  0  0
   23.4470  -10.4584  -16.0900 C   0  0  2  0  0  0  0  0  0  0  0  0
   23.5326  -10.4217  -14.6631 N   0  0  0  0  0  0  0  0  0  0  0  0
   22.3880   -9.5814  -16.6360 C   0  0  0  0  0  0  0  0  0  0  0  0
   22.2306   -9.5577  -17.8838 O   0  0  0  0  0  0  0  0  0  0  0  0
   18.7404   -9.8876  -16.2598 C   0  0  0  0  0  0  0  0  0  0  0  0
   19.0962   -8.5141  -15.7917 C   0  0  1  0  0  0  0  0  0  0  0  0
   19.0960   -8.3817  -14.4148 O   0  0  0  0  0  0  0  0  0  0  0  0
   20.4257   -8.0470  -16.3980 C   0  0  2  0  0  0  0  0  0  0  0  0
   21.5343   -8.7628  -15.8543 N   0  0  0  0  0  0  0  0  0  0  0  0
   20.5646   -6.5719  -16.2535 C   0  0  0  0  0  0  0  0  0  0  0  0
   21.1959   -6.0808  -15.2768 O   0  0  0  0  0  0  0  0  0  0  0  0
   19.8366   -3.4823  -18.3249 C   0  0  0  0  0  0  0  0  0  0  0  0
   20.1480   -4.2263  -17.0635 C   0  0  2  0  0  0  0  0  0  0  0  0
   20.0060   -5.6576  -17.1872 N   0  0  0  0  0  0  0  0  0  0  0  0
   19.3733   -3.6995  -15.8971 C   0  0  0  0  0  0  0  0  0  0  0  0
   19.6918   -2.5103  -15.2565 O   0  0  0  0  0  0  0  0  0  0  0  0
   18.3857   -4.3369  -15.4531 O   0  0  0  0  0  0  0  0  0  0  0  0
  2  1  1  6
  3  2  1  0
  4  2  1  0
  5  7  1  0
  5  4  1  0
  5  6  1  1
  7 13  1  0
  8  7  2  0
 10  9  1  1
 10 11  1  0
 12 10  1  0
 12 13  1  1
 14 15  2  0
 14 12  1  0
 17 16  1  6
 17 19  1  0
 17 18  1  0
 18 14  1  0
 19 20  1  0
 21 19  2  0
M  END
$$$$
