LTA.pdb
     RDKit          3D

 21 20  0  0  1  0  0  0  0  0999 V2000
   27.9586  -12.0652  -21.2759 C   0  0  0  0  0  0  0  0  0  0  0  0
   27.4857  -12.6399  -19.9480 C   0  0  2  0  0  0  0  0  0  0  0  0
   26.2582  -11.8588  -19.5456 C   0  0  0  0  0  0  0  0  0  0  0  0
   28.5818  -12.6001  -18.9136 C   0  0  0  0  0  0  0  0  0  0  0  0
   29.7886  -13.3839  -19.3780 C   0  0  2  0  0  0  0  0  0  0  0  0
   29.4824  -14.7731  -19.5238 N   0  0  0  0  0  0  0  0  0  0  0  0
   30.9258  -13.1273  -18.4673 C   0  0  0  0  0  0  0  0  0  0  0  0
   30.8954  -13.6561  -17.3263 O   0  0  0  0  0  0  0  0  0  0  0  0
   34.3689  -14.2182  -18.7269 C   0  0  0  0  0  0  0  0  0  0  0  0
   34.4566  -12.7375  -18.5474 C   0  0  1  0  0  0  0  0  0  0  0  0
   34.7883  -12.0585  -19.7059 O   0  0  0  0  0  0  0  0  0  0  0  0
   33.1746  -12.1768  -17.9184 C   0  0  2  0  0  0  0  0  0  0  0  0
   32.0516  -12.3266  -18.7862 N   0  0  0  0  0  0  0  0  0  0  0  0
   33.3883  -10.7674  -17.4895 C   0  0  0  0  0  0  0  0  0  0  0  0
   33.0395   -9.8109  -18.2359 O   0  0  0  0  0  0  0  0  0  0  0  0
   34.6425   -8.9408  -14.3994 C   0  0  0  0  0  0  0  0  0  0  0  0
   34.2157   -9.0675  -15.8289 C   0  0  2  0  0  0  0  0  0  0  0  0
   33.9837  -10.4306  -16.2436 N   0  0  0  0  0  0  0  0  0  0  0  0
   35.1556   -8.3665  -16.7580 C   0  0  0  0  0  0  0  0  0  0  0  0
   35.0396   -7.0197  -17.0720 O   0  0  0  0  0  0  0  0  0  0  0  0
   36.1020   -8.9953  -17.2944 O   0  0  0  0  0  0  0  0  0  0  0  0
  2  1  1  6
  3  2  1  0
  4  2  1  0
  5  7  1  0
  5  4  1  0
  5  6  1  1
  7 13  1  0
  8  7  2  0
 10  9  1  6
 10 11  1  0
 12 10  1  0
 12 13  1  6
 14 15  2  0
 14 12  1  0
 17 16  1  1
 17 19  1  0
 17 18  1  0
 18 14  1  0
 19 20  1  0
 21 19  2  0
M  END
$$$$
