LTA.pdb
     RDKit          3D

 21 20  0  0  1  0  0  0  0  0999 V2000
   37.0643   -8.0137   -8.7333 C   0  0  0  0  0  0  0  0  0  0  0  0
   38.5620   -7.7813   -8.8752 C   0  0  2  0  0  0  0  0  0  0  0  0
   38.8898   -7.9239  -10.3418 C   0  0  0  0  0  0  0  0  0  0  0  0
   39.3469   -8.7216   -7.9960 C   0  0  0  0  0  0  0  0  0  0  0  0
   40.8272   -8.4238   -8.0764 C   0  0  2  0  0  0  0  0  0  0  0  0
   41.6055   -9.6172   -7.9555 N   0  0  0  0  0  0  0  0  0  0  0  0
   41.1792   -7.3912   -7.0772 C   0  0  0  0  0  0  0  0  0  0  0  0
   41.1087   -7.7031   -5.8606 O   0  0  0  0  0  0  0  0  0  0  0  0
   44.3679   -6.0453   -6.2612 C   0  0  0  0  0  0  0  0  0  0  0  0
   43.5392   -4.8377   -6.5568 C   0  0  1  0  0  0  0  0  0  0  0  0
   43.8172   -4.2629   -7.7838 O   0  0  0  0  0  0  0  0  0  0  0  0
   42.0426   -5.1402   -6.4073 C   0  0  2  0  0  0  0  0  0  0  0  0
   41.5915   -6.0713   -7.3903 N   0  0  0  0  0  0  0  0  0  0  0  0
   41.2610   -3.8732   -6.4112 C   0  0  0  0  0  0  0  0  0  0  0  0
   40.6912   -3.4755   -7.4652 O   0  0  0  0  0  0  0  0  0  0  0  0
   40.1049   -1.2602   -3.9172 C   0  0  0  0  0  0  0  0  0  0  0  0
   40.4702   -1.7712   -5.2764 C   0  0  2  0  0  0  0  0  0  0  0  0
   41.1176   -3.0613   -5.2535 N   0  0  0  0  0  0  0  0  0  0  0  0
   41.2688   -0.7731   -6.0537 C   0  0  0  0  0  0  0  0  0  0  0  0
   40.6896    0.2841   -6.7411 O   0  0  0  0  0  0  0  0  0  0  0  0
   42.5207   -0.8674   -6.1069 O   0  0  0  0  0  0  0  0  0  0  0  0
  2  1  1  6
  3  2  1  0
  4  2  1  0
  5  7  1  0
  5  4  1  0
  5  6  1  1
  7 13  1  0
  8  7  2  0
 10  9  1  6
 10 11  1  0
 12 10  1  0
 12 13  1  6
 14 15  2  0
 14 12  1  0
 17 16  1  1
 17 19  1  0
 17 18  1  0
 18 14  1  0
 19 20  1  0
 21 19  2  0
M  END
$$$$
