LTA.pdb
     RDKit          3D

 21 20  0  0  1  0  0  0  0  0999 V2000
   24.3692  -21.1238   -9.2717 C   0  0  0  0  0  0  0  0  0  0  0  0
   25.8611  -20.9623   -9.5273 C   0  0  2  0  0  0  0  0  0  0  0  0
   26.4208  -20.1742   -8.3678 C   0  0  0  0  0  0  0  0  0  0  0  0
   26.1200  -20.3172  -10.8653 C   0  0  0  0  0  0  0  0  0  0  0  0
   25.5521  -21.1578  -11.9867 C   0  0  2  0  0  0  0  0  0  0  0  0
   26.3579  -22.3138  -12.2300 N   0  0  0  0  0  0  0  0  0  0  0  0
   25.3586  -20.3154  -13.1873 C   0  0  0  0  0  0  0  0  0  0  0  0
   26.3561  -19.6938  -13.6356 O   0  0  0  0  0  0  0  0  0  0  0  0
   25.9475  -20.5953  -16.1832 C   0  0  0  0  0  0  0  0  0  0  0  0
   24.4893  -20.2891  -16.2937 C   0  0  1  0  0  0  0  0  0  0  0  0
   23.7002  -21.4114  -16.4704 O   0  0  0  0  0  0  0  0  0  0  0  0
   24.0062  -19.4475  -15.1055 C   0  0  2  0  0  0  0  0  0  0  0  0
   24.1277  -20.1561  -13.8726 N   0  0  0  0  0  0  0  0  0  0  0  0
   22.6233  -18.9559  -15.3544 C   0  0  0  0  0  0  0  0  0  0  0  0
   21.6498  -19.4248  -14.7017 O   0  0  0  0  0  0  0  0  0  0  0  0
   20.9350  -16.3144  -17.5094 C   0  0  0  0  0  0  0  0  0  0  0  0
   20.9896  -17.4997  -16.5963 C   0  0  2  0  0  0  0  0  0  0  0  0
   22.3316  -17.9538  -16.3192 N   0  0  0  0  0  0  0  0  0  0  0  0
   20.1230  -18.6193  -17.0797 C   0  0  0  0  0  0  0  0  0  0  0  0
   18.7530  -18.6593  -16.8623 O   0  0  0  0  0  0  0  0  0  0  0  0
   20.6259  -19.5808  -17.7134 O   0  0  0  0  0  0  0  0  0  0  0  0
  2  1  1  1
  3  2  1  0
  4  2  1  0
  5  7  1  0
  5  4  1  0
  5  6  1  6
  7 13  1  0
  8  7  2  0
 10  9  1  1
 10 11  1  0
 12 10  1  0
 12 13  1  1
 14 15  2  0
 14 12  1  0
 17 16  1  6
 17 19  1  0
 17 18  1  0
 18 14  1  0
 19 20  1  0
 21 19  2  0
M  END
$$$$
