SLE.pdb
     RDKit          3D

 24 23  0  0  1  0  0  0  0  0999 V2000
    7.6513  -17.1569   21.0048 O   0  0  0  0  0  0  0  0  0  0  0  0
    6.7421  -16.0946   20.9540 C   0  0  0  0  0  0  0  0  0  0  0  0
    7.4893  -14.7529   20.9824 C   0  0  2  0  0  0  0  0  0  0  0  0
    8.4293  -14.6690   19.9098 N   0  0  0  0  0  0  0  0  0  0  0  0
    8.1946  -14.6633   22.2950 C   0  0  0  0  0  0  0  0  0  0  0  0
    9.4155  -14.8109   22.4659 O   0  0  0  0  0  0  0  0  0  0  0  0
    5.6265  -11.5939   26.3075 C   0  0  0  0  0  0  0  0  0  0  0  0
    6.7006  -12.1814   25.4017 C   0  0  1  0  0  0  0  0  0  0  0  0
    8.0065  -11.4624   25.8712 C   0  0  0  0  0  0  0  0  0  0  0  0
    6.9253  -13.6336   25.6824 C   0  0  0  0  0  0  0  0  0  0  0  0
    7.9599  -14.2448   24.7761 C   0  0  2  0  0  0  0  0  0  0  0  0
    7.3831  -14.3838   23.4252 N   0  0  0  0  0  0  0  0  0  0  0  0
    8.2468  -15.6175   25.2025 C   0  0  0  0  0  0  0  0  0  0  0  0
    7.7049  -16.5881   24.5766 O   0  0  0  0  0  0  0  0  0  0  0  0
    9.0923  -16.0232   26.2655 N   0  0  0  0  0  0  0  0  0  0  0  0
    9.8904  -17.2404   26.2042 C   0  0  1  0  0  0  0  0  0  0  0  0
   10.7617  -17.2775   24.9882 C   0  0  0  0  0  0  0  0  0  0  0  0
   11.6718  -18.4676   24.8995 C   0  0  0  0  0  0  0  0  0  0  0  0
   12.2125  -18.5234   23.5112 C   0  0  0  0  0  0  0  0  0  0  0  0
   12.7057  -19.6196   23.1114 O   0  0  0  0  0  0  0  0  0  0  0  0
   10.6380  -17.5112   27.4263 C   0  0  0  0  0  0  0  0  0  0  0  0
   11.1792  -18.6200   27.6126 O   0  0  0  0  0  0  0  0  0  0  0  0
   12.1809  -17.4042   22.6753 O   0  0  0  0  0  0  0  0  0  0  0  0
   10.7617  -16.5446   28.4030 O   0  0  0  0  0  0  0  0  0  0  0  0
  2  3  1  0
  2  1  1  0
  3  4  1  6
  5  3  1  0
  5  6  2  0
  8  7  1  1
  8 10  1  0
  8  9  1  0
 11 10  1  1
 11 12  1  0
 11 13  1  0
 12  5  1  0
 13 15  1  0
 14 13  2  0
 15 16  1  0
 16 21  1  0
 17 18  1  0
 16 17  1  6
 19 23  1  0
 19 18  1  0
 20 19  2  0
 21 22  2  0
 21 24  1  0
M  END
$$$$
