SLE.pdb
     RDKit          3D

 24 23  0  0  1  0  0  0  0  0999 V2000
    8.3803  -14.8561   19.2261 O   0  0  0  0  0  0  0  0  0  0  0  0
    8.7800  -14.5268   20.5259 C   0  0  0  0  0  0  0  0  0  0  0  0
    8.4983  -15.6958   21.4815 C   0  0  2  0  0  0  0  0  0  0  0  0
    7.0948  -15.9385   21.5919 N   0  0  0  0  0  0  0  0  0  0  0  0
    9.0649  -15.3293   22.8131 C   0  0  0  0  0  0  0  0  0  0  0  0
   10.2571  -15.0655   23.0385 O   0  0  0  0  0  0  0  0  0  0  0  0
    5.6796  -12.5187   26.3343 C   0  0  0  0  0  0  0  0  0  0  0  0
    6.9064  -12.9837   25.5608 C   0  0  1  0  0  0  0  0  0  0  0  0
    8.0365  -12.0263   26.0600 C   0  0  0  0  0  0  0  0  0  0  0  0
    7.3354  -14.3545   25.9791 C   0  0  0  0  0  0  0  0  0  0  0  0
    8.5557  -14.8304   25.2376 C   0  0  2  0  0  0  0  0  0  0  0  0
    8.1467  -15.2830   23.8942 N   0  0  0  0  0  0  0  0  0  0  0  0
    9.0970  -16.0281   25.8863 C   0  0  0  0  0  0  0  0  0  0  0  0
    8.3712  -17.0745   25.9625 O   0  0  0  0  0  0  0  0  0  0  0  0
   10.3840  -16.1815   26.4603 N   0  0  0  0  0  0  0  0  0  0  0  0
   10.7793  -17.3887   27.1736 C   0  0  1  0  0  0  0  0  0  0  0  0
   11.9591  -18.0536   26.5371 C   0  0  0  0  0  0  0  0  0  0  0  0
   11.8471  -18.2536   25.0539 C   0  0  0  0  0  0  0  0  0  0  0  0
   13.1384  -18.8234   24.5737 C   0  0  0  0  0  0  0  0  0  0  0  0
   14.1700  -18.0913   24.6404 O   0  0  0  0  0  0  0  0  0  0  0  0
   10.9666  -17.1865   28.6053 C   0  0  0  0  0  0  0  0  0  0  0  0
   10.8858  -16.0466   29.1062 O   0  0  0  0  0  0  0  0  0  0  0  0
   13.2126  -20.1218   24.0628 O   0  0  0  0  0  0  0  0  0  0  0  0
   11.2377  -18.2542   29.4361 O   0  0  0  0  0  0  0  0  0  0  0  0
  2  3  1  0
  2  1  1  0
  3  4  1  1
  5  3  1  0
  5  6  2  0
  8  7  1  1
  8 10  1  0
  8  9  1  0
 11 10  1  1
 11 12  1  0
 11 13  1  0
 12  5  1  0
 13 15  1  0
 14 13  2  0
 15 16  1  0
 16 21  1  0
 17 18  1  0
 16 17  1  6
 19 23  1  0
 19 18  1  0
 20 19  2  0
 21 22  2  0
 21 24  1  0
M  END
$$$$
