SLE.pdb
     RDKit          3D

 24 23  0  0  1  0  0  0  0  0999 V2000
    9.0220  -15.7580   18.7397 O   0  0  0  0  0  0  0  0  0  0  0  0
    9.7003  -15.4259   19.9176 C   0  0  0  0  0  0  0  0  0  0  0  0
    9.0795  -16.1614   21.1146 C   0  0  2  0  0  0  0  0  0  0  0  0
    7.6675  -16.3039   20.9501 N   0  0  0  0  0  0  0  0  0  0  0  0
    9.3781  -15.3564   22.3358 C   0  0  0  0  0  0  0  0  0  0  0  0
   10.4641  -14.8099   22.5881 O   0  0  0  0  0  0  0  0  0  0  0  0
    8.0142  -11.6862   26.0055 C   0  0  0  0  0  0  0  0  0  0  0  0
    7.2178  -12.9808   26.1007 C   0  0  1  0  0  0  0  0  0  0  0  0
    5.7516  -12.4907   26.3307 C   0  0  0  0  0  0  0  0  0  0  0  0
    7.1914  -13.7095   24.7944 C   0  0  0  0  0  0  0  0  0  0  0  0
    8.4792  -14.4351   24.5105 C   0  0  2  0  0  0  0  0  0  0  0  0
    8.3185  -15.2166   23.2694 N   0  0  0  0  0  0  0  0  0  0  0  0
    8.7270  -15.4358   25.5524 C   0  0  0  0  0  0  0  0  0  0  0  0
    8.9955  -15.0455   26.7369 O   0  0  0  0  0  0  0  0  0  0  0  0
    8.6991  -16.8456   25.4071 N   0  0  0  0  0  0  0  0  0  0  0  0
    9.6021  -17.7218   26.1415 C   0  0  1  0  0  0  0  0  0  0  0  0
   10.7643  -18.1556   25.3046 C   0  0  0  0  0  0  0  0  0  0  0  0
   11.7345  -19.0685   25.9959 C   0  0  0  0  0  0  0  0  0  0  0  0
   12.6619  -19.6120   24.9627 C   0  0  0  0  0  0  0  0  0  0  0  0
   13.0730  -20.8019   25.1031 O   0  0  0  0  0  0  0  0  0  0  0  0
   10.0214  -17.1820   27.4293 C   0  0  0  0  0  0  0  0  0  0  0  0
   10.0438  -17.9023   28.4479 O   0  0  0  0  0  0  0  0  0  0  0  0
   13.0695  -18.8363   23.8743 O   0  0  0  0  0  0  0  0  0  0  0  0
   10.4021  -15.8612   27.5471 O   0  0  0  0  0  0  0  0  0  0  0  0
  2  3  1  0
  2  1  1  0
  3  4  1  6
  5  3  1  0
  5  6  2  0
  8  7  1  6
  8 10  1  0
  8  9  1  0
 11 10  1  1
 11 12  1  0
 11 13  1  0
 12  5  1  0
 13 15  1  0
 14 13  2  0
 15 16  1  0
 16 21  1  0
 17 18  1  0
 16 17  1  6
 19 23  1  0
 19 18  1  0
 20 19  2  0
 21 22  2  0
 21 24  1  0
M  END
$$$$
