SLE.pdb
     RDKit          3D

 24 23  0  0  1  0  0  0  0  0999 V2000
    7.4801  -17.2788   21.5537 O   0  0  0  0  0  0  0  0  0  0  0  0
    6.3580  -16.4430   21.5500 C   0  0  0  0  0  0  0  0  0  0  0  0
    6.7903  -14.9721   21.4561 C   0  0  2  0  0  0  0  0  0  0  0  0
    7.3681  -14.6900   20.1803 N   0  0  0  0  0  0  0  0  0  0  0  0
    7.7888  -14.7311   22.5394 C   0  0  0  0  0  0  0  0  0  0  0  0
    9.0174  -14.6511   22.3790 O   0  0  0  0  0  0  0  0  0  0  0  0
    5.7916  -11.9117   26.9107 C   0  0  0  0  0  0  0  0  0  0  0  0
    6.7149  -12.4009   25.8027 C   0  0  1  0  0  0  0  0  0  0  0  0
    7.9158  -11.4024   25.8617 C   0  0  0  0  0  0  0  0  0  0  0  0
    7.2981  -13.7411   26.1222 C   0  0  0  0  0  0  0  0  0  0  0  0
    8.1423  -14.2867   25.0019 C   0  0  2  0  0  0  0  0  0  0  0  0
    7.2676  -14.5826   23.8510 N   0  0  0  0  0  0  0  0  0  0  0  0
    8.7032  -15.5847   25.3878 C   0  0  0  0  0  0  0  0  0  0  0  0
    7.9169  -16.5747   25.5589 O   0  0  0  0  0  0  0  0  0  0  0  0
   10.0698  -15.8964   25.5988 N   0  0  0  0  0  0  0  0  0  0  0  0
   10.5122  -17.2253   25.9998 C   0  0  1  0  0  0  0  0  0  0  0  0
   11.8195  -17.5931   25.3714 C   0  0  0  0  0  0  0  0  0  0  0  0
   11.9011  -17.3464   23.8932 C   0  0  0  0  0  0  0  0  0  0  0  0
   13.2610  -16.8122   23.5963 C   0  0  0  0  0  0  0  0  0  0  0  0
   13.3561  -15.8677   22.7575 O   0  0  0  0  0  0  0  0  0  0  0  0
   10.5182  -17.4283   27.4435 C   0  0  0  0  0  0  0  0  0  0  0  0
   10.2427  -16.4929   28.2220 O   0  0  0  0  0  0  0  0  0  0  0  0
   14.3973  -17.3354   24.2187 O   0  0  0  0  0  0  0  0  0  0  0  0
   10.8296  -18.6614   27.9784 O   0  0  0  0  0  0  0  0  0  0  0  0
  2  3  1  0
  2  1  1  0
  3  4  1  6
  5  3  1  0
  5  6  2  0
  8  7  1  1
  8 10  1  0
  8  9  1  0
 11 10  1  1
 11 12  1  0
 11 13  1  0
 12  5  1  0
 13 15  1  0
 14 13  2  0
 15 16  1  0
 16 21  1  0
 17 18  1  0
 16 17  1  1
 19 23  1  0
 19 18  1  0
 20 19  2  0
 21 22  2  0
 21 24  1  0
M  END
$$$$
