SLE.pdb
     RDKit          3D

 24 23  0  0  1  0  0  0  0  0999 V2000
   10.4333  -18.9015   16.9575 O   0  0  0  0  0  0  0  0  0  0  0  0
    9.4310  -18.2080   16.2704 C   0  0  0  0  0  0  0  0  0  0  0  0
    9.8848  -16.7704   15.9759 C   0  0  2  0  0  0  0  0  0  0  0  0
   10.9582  -16.7566   15.0332 N   0  0  0  0  0  0  0  0  0  0  0  0
   10.3259  -16.1687   17.2690 C   0  0  0  0  0  0  0  0  0  0  0  0
   11.5051  -15.9745   17.6056 O   0  0  0  0  0  0  0  0  0  0  0  0
    6.8284  -12.4582   19.4114 C   0  0  0  0  0  0  0  0  0  0  0  0
    8.1628  -13.1155   19.0849 C   0  0  1  0  0  0  0  0  0  0  0  0
    9.2145  -12.0893   19.6174 C   0  0  0  0  0  0  0  0  0  0  0  0
    8.3779  -14.3573   19.8909 C   0  0  0  0  0  0  0  0  0  0  0  0
    9.5941  -15.1282   19.4525 C   0  0  2  0  0  0  0  0  0  0  0  0
    9.2956  -15.7941   18.1702 N   0  0  0  0  0  0  0  0  0  0  0  0
    9.8537  -16.2241   20.3906 C   0  0  0  0  0  0  0  0  0  0  0  0
    9.5837  -17.4201   20.0381 O   0  0  0  0  0  0  0  0  0  0  0  0
   10.3966  -16.1211   21.6960 N   0  0  0  0  0  0  0  0  0  0  0  0
   11.3294  -17.1042   22.2309 C   0  0  1  0  0  0  0  0  0  0  0  0
   12.5066  -17.3066   21.3296 C   0  0  0  0  0  0  0  0  0  0  0  0
   13.4686  -18.3686   21.7762 C   0  0  0  0  0  0  0  0  0  0  0  0
   14.5914  -18.4055   20.7960 C   0  0  0  0  0  0  0  0  0  0  0  0
   15.5065  -17.5370   20.9109 O   0  0  0  0  0  0  0  0  0  0  0  0
   11.7285  -16.8419   23.6084 C   0  0  0  0  0  0  0  0  0  0  0  0
   11.7356  -15.6795   24.0620 O   0  0  0  0  0  0  0  0  0  0  0  0
   14.6357  -19.3635   19.7799 O   0  0  0  0  0  0  0  0  0  0  0  0
   12.1072  -17.8763   24.4392 O   0  0  0  0  0  0  0  0  0  0  0  0
  2  3  1  0
  2  1  1  0
  3  4  1  6
  5  3  1  0
  5  6  2  0
  8  7  1  1
  8 10  1  0
  8  9  1  0
 11 10  1  1
 11 12  1  0
 11 13  1  0
 12  5  1  0
 13 15  1  0
 14 13  2  0
 15 16  1  0
 16 21  1  0
 17 18  1  0
 16 17  1  6
 19 23  1  0
 19 18  1  0
 20 19  2  0
 21 22  2  0
 21 24  1  0
M  END
$$$$
