SLE.pdb
     RDKit          3D

 24 23  0  0  1  0  0  0  0  0999 V2000
   10.1636  -16.7610   14.2506 O   0  0  0  0  0  0  0  0  0  0  0  0
   10.4532  -16.0044   15.3914 C   0  0  0  0  0  0  0  0  0  0  0  0
   10.2304  -16.8445   16.6578 C   0  0  2  0  0  0  0  0  0  0  0  0
    8.8676  -17.2606   16.7615 N   0  0  0  0  0  0  0  0  0  0  0  0
   10.6008  -15.9941   17.8275 C   0  0  0  0  0  0  0  0  0  0  0  0
   11.7307  -15.5291   18.0484 O   0  0  0  0  0  0  0  0  0  0  0  0
    6.4552  -13.0183   20.0958 C   0  0  0  0  0  0  0  0  0  0  0  0
    7.8284  -13.4325   19.5836 C   0  0  1  0  0  0  0  0  0  0  0  0
    8.6755  -12.1256   19.7144 C   0  0  0  0  0  0  0  0  0  0  0  0
    8.4822  -14.4213   20.4962 C   0  0  0  0  0  0  0  0  0  0  0  0
    9.8034  -14.9114   19.9671 C   0  0  2  0  0  0  0  0  0  0  0  0
    9.5596  -15.7054   18.7476 N   0  0  0  0  0  0  0  0  0  0  0  0
   10.3995  -15.8569   20.9151 C   0  0  0  0  0  0  0  0  0  0  0  0
   10.2434  -17.1087   20.7247 O   0  0  0  0  0  0  0  0  0  0  0  0
   11.1672  -15.5446   22.0651 N   0  0  0  0  0  0  0  0  0  0  0  0
   11.8566  -16.5663   22.8419 C   0  0  1  0  0  0  0  0  0  0  0  0
   13.2734  -16.7471   22.3959 C   0  0  0  0  0  0  0  0  0  0  0  0
   14.1349  -15.5242   22.5180 C   0  0  0  0  0  0  0  0  0  0  0  0
   15.5217  -15.9044   22.1242 C   0  0  0  0  0  0  0  0  0  0  0  0
   15.7488  -17.1217   21.8571 O   0  0  0  0  0  0  0  0  0  0  0  0
   11.7529  -16.3736   24.2833 C   0  0  0  0  0  0  0  0  0  0  0  0
   12.2559  -17.1954   25.0763 O   0  0  0  0  0  0  0  0  0  0  0  0
   16.5421  -14.9524   22.0536 O   0  0  0  0  0  0  0  0  0  0  0  0
   11.0949  -15.2765   24.8000 O   0  0  0  0  0  0  0  0  0  0  0  0
  2  3  1  0
  2  1  1  0
  3  4  1  1
  5  3  1  0
  5  6  2  0
  8  7  1  1
  8 10  1  0
  8  9  1  0
 11 10  1  1
 11 12  1  0
 11 13  1  0
 12  5  1  0
 13 15  1  0
 14 13  2  0
 15 16  1  0
 16 21  1  0
 17 18  1  0
 16 17  1  6
 19 23  1  0
 19 18  1  0
 20 19  2  0
 21 22  2  0
 21 24  1  0
M  END
$$$$
