SLE.pdb
     RDKit          3D

 24 23  0  0  1  0  0  0  0  0999 V2000
    9.0784  -18.0038   21.1558 O   0  0  0  0  0  0  0  0  0  0  0  0
    7.9097  -17.3505   21.5618 C   0  0  0  0  0  0  0  0  0  0  0  0
    8.1274  -15.8301   21.5760 C   0  0  2  0  0  0  0  0  0  0  0  0
    9.0012  -15.4294   20.5191 N   0  0  0  0  0  0  0  0  0  0  0  0
    8.7223  -15.4775   22.8990 C   0  0  0  0  0  0  0  0  0  0  0  0
    9.9343  -15.4915   23.1683 O   0  0  0  0  0  0  0  0  0  0  0  0
    5.6850  -12.0773   26.2128 C   0  0  0  0  0  0  0  0  0  0  0  0
    6.9227  -12.6891   25.5701 C   0  0  1  0  0  0  0  0  0  0  0  0
    8.0995  -11.8724   26.1952 C   0  0  0  0  0  0  0  0  0  0  0  0
    7.1373  -14.0999   26.0191 C   0  0  0  0  0  0  0  0  0  0  0  0
    8.2623  -14.7767   25.2830 C   0  0  2  0  0  0  0  0  0  0  0  0
    7.8087  -15.0965   23.9159 N   0  0  0  0  0  0  0  0  0  0  0  0
    8.5469  -16.0774   25.8957 C   0  0  0  0  0  0  0  0  0  0  0  0
    8.0418  -17.1299   25.3811 O   0  0  0  0  0  0  0  0  0  0  0  0
    9.3528  -16.3276   27.0347 N   0  0  0  0  0  0  0  0  0  0  0  0
   10.0954  -17.5694   27.2052 C   0  0  1  0  0  0  0  0  0  0  0  0
   10.9696  -17.8647   26.0273 C   0  0  0  0  0  0  0  0  0  0  0  0
   11.8185  -19.0949   26.1636 C   0  0  0  0  0  0  0  0  0  0  0  0
   12.5363  -19.2968   24.8725 C   0  0  0  0  0  0  0  0  0  0  0  0
   11.8693  -19.1881   23.8010 O   0  0  0  0  0  0  0  0  0  0  0  0
   10.8243  -17.6459   28.4655 C   0  0  0  0  0  0  0  0  0  0  0  0
   10.9335  -16.6454   29.2030 O   0  0  0  0  0  0  0  0  0  0  0  0
   13.9000  -19.5992   24.8406 O   0  0  0  0  0  0  0  0  0  0  0  0
   11.4092  -18.8289   28.8682 O   0  0  0  0  0  0  0  0  0  0  0  0
  2  3  1  0
  2  1  1  0
  3  4  1  6
  5  3  1  0
  5  6  2  0
  8  7  1  1
  8 10  1  0
  8  9  1  0
 11 10  1  1
 11 12  1  0
 11 13  1  0
 12  5  1  0
 13 15  1  0
 14 13  2  0
 15 16  1  0
 16 21  1  0
 17 18  1  0
 16 17  1  6
 19 23  1  0
 19 18  1  0
 20 19  2  0
 21 22  2  0
 21 24  1  0
M  END
$$$$
