SLE.pdb
     RDKit          3D

 24 23  0  0  1  0  0  0  0  0999 V2000
    7.8107  -17.2022   21.1964 O   0  0  0  0  0  0  0  0  0  0  0  0
    6.6858  -16.3723   21.1378 C   0  0  0  0  0  0  0  0  0  0  0  0
    7.1137  -14.8976   21.1039 C   0  0  2  0  0  0  0  0  0  0  0  0
    7.8841  -14.6160   19.9341 N   0  0  0  0  0  0  0  0  0  0  0  0
    7.9252  -14.6408   22.3304 C   0  0  0  0  0  0  0  0  0  0  0  0
    9.1578  -14.4940   22.3584 O   0  0  0  0  0  0  0  0  0  0  0  0
    5.2775  -12.0430   26.6363 C   0  0  0  0  0  0  0  0  0  0  0  0
    6.3268  -12.4319   25.6032 C   0  0  1  0  0  0  0  0  0  0  0  0
    7.5312  -11.4929   25.9356 C   0  0  0  0  0  0  0  0  0  0  0  0
    6.8340  -13.8212   25.8283 C   0  0  0  0  0  0  0  0  0  0  0  0
    7.8784  -14.2259   24.8227 C   0  0  2  0  0  0  0  0  0  0  0  0
    7.2074  -14.5602   23.5519 N   0  0  0  0  0  0  0  0  0  0  0  0
    8.5196  -15.4741   25.2458 C   0  0  0  0  0  0  0  0  0  0  0  0
    7.8131  -16.5314   25.3482 O   0  0  0  0  0  0  0  0  0  0  0  0
    9.8874  -15.6670   25.5642 N   0  0  0  0  0  0  0  0  0  0  0  0
   10.4094  -16.9526   26.0085 C   0  0  1  0  0  0  0  0  0  0  0  0
   11.7156  -17.2813   25.3568 C   0  0  0  0  0  0  0  0  0  0  0  0
   11.7260  -17.1508   23.8616 C   0  0  0  0  0  0  0  0  0  0  0  0
   13.1099  -16.7818   23.4475 C   0  0  0  0  0  0  0  0  0  0  0  0
   13.9868  -16.6612   24.3536 O   0  0  0  0  0  0  0  0  0  0  0  0
   10.4670  -17.0902   27.4587 C   0  0  0  0  0  0  0  0  0  0  0  0
   10.1426  -16.1438   28.2044 O   0  0  0  0  0  0  0  0  0  0  0  0
   13.4330  -16.5718   22.1044 O   0  0  0  0  0  0  0  0  0  0  0  0
   10.8824  -18.2724   28.0363 O   0  0  0  0  0  0  0  0  0  0  0  0
  2  3  1  0
  2  1  1  0
  3  4  1  6
  5  3  1  0
  5  6  2  0
  8  7  1  1
  8 10  1  0
  8  9  1  0
 11 10  1  1
 11 12  1  0
 11 13  1  0
 12  5  1  0
 13 15  1  0
 14 13  2  0
 15 16  1  0
 16 21  1  0
 17 18  1  0
 16 17  1  6
 19 23  1  0
 19 18  1  0
 20 19  2  0
 21 22  2  0
 21 24  1  0
M  END
$$$$
