SLE.pdb
     RDKit          3D

 24 23  0  0  1  0  0  0  0  0999 V2000
    7.5722  -17.3670   21.2620 O   0  0  0  0  0  0  0  0  0  0  0  0
    6.4893  -16.4816   21.2945 C   0  0  0  0  0  0  0  0  0  0  0  0
    6.9871  -15.0297   21.2372 C   0  0  2  0  0  0  0  0  0  0  0  0
    7.7324  -14.7921   20.0417 N   0  0  0  0  0  0  0  0  0  0  0  0
    7.8489  -14.8065   22.4355 C   0  0  0  0  0  0  0  0  0  0  0  0
    9.0904  -14.7880   22.4341 O   0  0  0  0  0  0  0  0  0  0  0  0
    5.4253  -11.9108   26.6410 C   0  0  0  0  0  0  0  0  0  0  0  0
    6.4160  -12.4099   25.5976 C   0  0  1  0  0  0  0  0  0  0  0  0
    7.6420  -11.4567   25.7737 C   0  0  0  0  0  0  0  0  0  0  0  0
    6.9259  -13.7764   25.9303 C   0  0  0  0  0  0  0  0  0  0  0  0
    7.9035  -14.2936   24.9094 C   0  0  2  0  0  0  0  0  0  0  0  0
    7.1716  -14.5988   23.6652 N   0  0  0  0  0  0  0  0  0  0  0  0
    8.4468  -15.5822   25.3485 C   0  0  0  0  0  0  0  0  0  0  0  0
    7.6562  -16.5733   25.4906 O   0  0  0  0  0  0  0  0  0  0  0  0
    9.8004  -15.8833   25.6428 N   0  0  0  0  0  0  0  0  0  0  0  0
   10.2181  -17.1896   26.1344 C   0  0  1  0  0  0  0  0  0  0  0  0
   11.2968  -17.7874   25.2871 C   0  0  0  0  0  0  0  0  0  0  0  0
   12.1503  -16.7924   24.5563 C   0  0  0  0  0  0  0  0  0  0  0  0
   13.1379  -17.5542   23.7395 C   0  0  0  0  0  0  0  0  0  0  0  0
   13.8595  -18.4113   24.3305 O   0  0  0  0  0  0  0  0  0  0  0  0
   10.5618  -17.1982   27.5512 C   0  0  0  0  0  0  0  0  0  0  0  0
   10.5019  -16.1530   28.2302 O   0  0  0  0  0  0  0  0  0  0  0  0
   13.2687  -17.3312   22.3664 O   0  0  0  0  0  0  0  0  0  0  0  0
   10.9611  -18.3648   28.1703 O   0  0  0  0  0  0  0  0  0  0  0  0
  2  3  1  0
  2  1  1  0
  3  4  1  6
  5  3  1  0
  5  6  2  0
  8  7  1  1
  8 10  1  0
  8  9  1  0
 11 10  1  1
 11 12  1  0
 11 13  1  0
 12  5  1  0
 13 15  1  0
 14 13  2  0
 15 16  1  0
 16 21  1  0
 17 18  1  0
 16 17  1  6
 19 23  1  0
 19 18  1  0
 20 19  2  0
 21 22  2  0
 21 24  1  0
M  END
$$$$
