SLE.pdb
     RDKit          3D

 24 23  0  0  1  0  0  0  0  0999 V2000
   10.7489  -18.9377   15.3489 O   0  0  0  0  0  0  0  0  0  0  0  0
   11.2907  -17.9725   16.2047 C   0  0  0  0  0  0  0  0  0  0  0  0
   10.7651  -16.5776   15.8343 C   0  0  2  0  0  0  0  0  0  0  0  0
   11.4297  -16.0727   14.6748 N   0  0  0  0  0  0  0  0  0  0  0  0
   11.0145  -15.6827   17.0029 C   0  0  0  0  0  0  0  0  0  0  0  0
   12.0618  -15.0494   17.2119 O   0  0  0  0  0  0  0  0  0  0  0  0
    6.4662  -13.3576   19.3949 C   0  0  0  0  0  0  0  0  0  0  0  0
    7.8733  -13.5342   18.8397 C   0  0  1  0  0  0  0  0  0  0  0  0
    8.5199  -12.1241   19.0301 C   0  0  0  0  0  0  0  0  0  0  0  0
    8.6879  -14.4609   19.6857 C   0  0  0  0  0  0  0  0  0  0  0  0
   10.0656  -14.6946   19.1264 C   0  0  2  0  0  0  0  0  0  0  0  0
    9.9529  -15.5599   17.9366 N   0  0  0  0  0  0  0  0  0  0  0  0
   10.8643  -15.4714   20.0787 C   0  0  0  0  0  0  0  0  0  0  0  0
   10.6284  -16.7177   20.2155 O   0  0  0  0  0  0  0  0  0  0  0  0
   11.9171  -14.9950   20.8997 N   0  0  0  0  0  0  0  0  0  0  0  0
   12.6864  -15.8759   21.7684 C   0  0  1  0  0  0  0  0  0  0  0  0
   14.1215  -15.4614   21.8560 C   0  0  0  0  0  0  0  0  0  0  0  0
   14.8286  -15.3507   20.5367 C   0  0  0  0  0  0  0  0  0  0  0  0
   16.1877  -14.7949   20.7951 C   0  0  0  0  0  0  0  0  0  0  0  0
   16.4992  -14.5251   21.9929 O   0  0  0  0  0  0  0  0  0  0  0  0
   12.0872  -16.0689   23.0834 C   0  0  0  0  0  0  0  0  0  0  0  0
   12.6212  -16.8186   23.9258 O   0  0  0  0  0  0  0  0  0  0  0  0
   17.0910  -14.5741   19.7521 O   0  0  0  0  0  0  0  0  0  0  0  0
   10.9151  -15.4249   23.4228 O   0  0  0  0  0  0  0  0  0  0  0  0
  2  3  1  0
  2  1  1  0
  3  4  1  6
  5  3  1  0
  5  6  2  0
  8  7  1  1
  8 10  1  0
  8  9  1  0
 11 10  1  1
 11 12  1  0
 11 13  1  0
 12  5  1  0
 13 15  1  0
 14 13  2  0
 15 16  1  0
 16 21  1  0
 17 18  1  0
 16 17  1  1
 19 23  1  0
 19 18  1  0
 20 19  2  0
 21 22  2  0
 21 24  1  0
M  END
$$$$
