SLE.pdb
     RDKit          3D

 24 23  0  0  1  0  0  0  0  0999 V2000
    7.1093  -17.5902   21.7658 O   0  0  0  0  0  0  0  0  0  0  0  0
    7.6211  -16.7946   20.7349 C   0  0  0  0  0  0  0  0  0  0  0  0
    7.4316  -15.3069   21.0667 C   0  0  2  0  0  0  0  0  0  0  0  0
    7.8918  -14.4819   19.9950 N   0  0  0  0  0  0  0  0  0  0  0  0
    8.2122  -15.0241   22.3074 C   0  0  0  0  0  0  0  0  0  0  0  0
    9.4480  -14.9234   22.3712 O   0  0  0  0  0  0  0  0  0  0  0  0
    5.6776  -12.2005   26.6504 C   0  0  0  0  0  0  0  0  0  0  0  0
    6.7418  -12.6284   25.6484 C   0  0  1  0  0  0  0  0  0  0  0  0
    8.0292  -11.8977   26.1497 C   0  0  0  0  0  0  0  0  0  0  0  0
    7.0472  -14.0887   25.7580 C   0  0  0  0  0  0  0  0  0  0  0  0
    8.1053  -14.5333   24.7841 C   0  0  2  0  0  0  0  0  0  0  0  0
    7.4585  -14.8588   23.4985 N   0  0  0  0  0  0  0  0  0  0  0  0
    8.6974  -15.7962   25.2343 C   0  0  0  0  0  0  0  0  0  0  0  0
    7.9864  -16.8553   25.2198 O   0  0  0  0  0  0  0  0  0  0  0  0
   10.0207  -16.0019   25.6991 N   0  0  0  0  0  0  0  0  0  0  0  0
   10.5213  -17.3203   26.0646 C   0  0  1  0  0  0  0  0  0  0  0  0
   11.7714  -17.6701   25.3204 C   0  0  0  0  0  0  0  0  0  0  0  0
   11.5954  -18.6919   24.2352 C   0  0  0  0  0  0  0  0  0  0  0  0
   12.8592  -18.7380   23.4456 C   0  0  0  0  0  0  0  0  0  0  0  0
   12.8406  -19.3442   22.3334 O   0  0  0  0  0  0  0  0  0  0  0  0
   10.6636  -17.5132   27.5027 C   0  0  0  0  0  0  0  0  0  0  0  0
   11.0885  -18.5918   27.9643 O   0  0  0  0  0  0  0  0  0  0  0  0
   14.0296  -18.1360   23.9146 O   0  0  0  0  0  0  0  0  0  0  0  0
   10.3305  -16.5047   28.3833 O   0  0  0  0  0  0  0  0  0  0  0  0
  2  3  1  0
  2  1  1  0
  3  4  1  6
  5  3  1  0
  5  6  2  0
  8  7  1  1
  8 10  1  0
  8  9  1  0
 11 10  1  1
 11 12  1  0
 11 13  1  0
 12  5  1  0
 13 15  1  0
 14 13  2  0
 15 16  1  0
 16 21  1  0
 17 18  1  0
 16 17  1  6
 19 23  1  0
 19 18  1  0
 20 19  2  0
 21 22  2  0
 21 24  1  0
M  END
$$$$
