SLE.pdb
     RDKit          3D

 24 23  0  0  1  0  0  0  0  0999 V2000
    7.9028  -17.0697   21.0908 O   0  0  0  0  0  0  0  0  0  0  0  0
    6.6486  -16.4696   21.2466 C   0  0  0  0  0  0  0  0  0  0  0  0
    6.7730  -14.9422   21.1437 C   0  0  2  0  0  0  0  0  0  0  0  0
    7.3215  -14.5584   19.8815 N   0  0  0  0  0  0  0  0  0  0  0  0
    7.6654  -14.4920   22.2525 C   0  0  0  0  0  0  0  0  0  0  0  0
    8.8425  -14.1196   22.1210 O   0  0  0  0  0  0  0  0  0  0  0  0
    5.3768  -12.2230   26.9484 C   0  0  0  0  0  0  0  0  0  0  0  0
    6.3115  -12.4945   25.7771 C   0  0  1  0  0  0  0  0  0  0  0  0
    7.4722  -11.4701   25.9920 C   0  0  0  0  0  0  0  0  0  0  0  0
    6.9495  -13.8436   25.8817 C   0  0  0  0  0  0  0  0  0  0  0  0
    7.8918  -14.1279   24.7429 C   0  0  2  0  0  0  0  0  0  0  0  0
    7.0998  -14.4969   23.5541 N   0  0  0  0  0  0  0  0  0  0  0  0
    8.6910  -15.3192   25.0436 C   0  0  0  0  0  0  0  0  0  0  0  0
    8.1298  -16.4647   25.0227 O   0  0  0  0  0  0  0  0  0  0  0  0
   10.0714  -15.3641   25.3629 N   0  0  0  0  0  0  0  0  0  0  0  0
   10.7825  -16.6190   25.5675 C   0  0  1  0  0  0  0  0  0  0  0  0
   12.1443  -16.5978   24.9477 C   0  0  0  0  0  0  0  0  0  0  0  0
   12.9360  -17.8613   25.1192 C   0  0  0  0  0  0  0  0  0  0  0  0
   14.2443  -17.6747   24.4289 C   0  0  0  0  0  0  0  0  0  0  0  0
   14.4027  -16.6281   23.7330 O   0  0  0  0  0  0  0  0  0  0  0  0
   10.8173  -17.0507   26.9596 C   0  0  0  0  0  0  0  0  0  0  0  0
   10.4264  -16.2961   27.8732 O   0  0  0  0  0  0  0  0  0  0  0  0
   15.2647  -18.6226   24.5408 O   0  0  0  0  0  0  0  0  0  0  0  0
   11.2844  -18.3050   27.2949 O   0  0  0  0  0  0  0  0  0  0  0  0
  2  3  1  0
  2  1  1  0
  3  4  1  6
  5  3  1  0
  5  6  2  0
  8  7  1  1
  8 10  1  0
  8  9  1  0
 11 10  1  1
 11 12  1  0
 11 13  1  0
 12  5  1  0
 13 15  1  0
 14 13  2  0
 15 16  1  0
 16 21  1  0
 17 18  1  0
 16 17  1  1
 19 23  1  0
 19 18  1  0
 20 19  2  0
 21 22  2  0
 21 24  1  0
M  END
$$$$
