SLE.pdb
     RDKit          3D

 24 23  0  0  1  0  0  0  0  0999 V2000
    8.7505  -18.1839   21.7373 O   0  0  0  0  0  0  0  0  0  0  0  0
    7.6390  -17.3957   21.4196 C   0  0  0  0  0  0  0  0  0  0  0  0
    8.0825  -15.9687   21.0644 C   0  0  2  0  0  0  0  0  0  0  0  0
    9.0510  -15.9814   20.0141 N   0  0  0  0  0  0  0  0  0  0  0  0
    8.6667  -15.3637   22.2977 C   0  0  0  0  0  0  0  0  0  0  0  0
    9.8797  -15.2428   22.5333 O   0  0  0  0  0  0  0  0  0  0  0  0
    8.2517  -11.7906   26.3671 C   0  0  0  0  0  0  0  0  0  0  0  0
    7.3318  -12.9971   26.4995 C   0  0  1  0  0  0  0  0  0  0  0  0
    5.9947  -12.3802   27.0232 C   0  0  0  0  0  0  0  0  0  0  0  0
    7.0000  -13.5868   25.1652 C   0  0  0  0  0  0  0  0  0  0  0  0
    8.1873  -14.2398   24.5098 C   0  0  2  0  0  0  0  0  0  0  0  0
    7.7405  -14.8936   23.2648 N   0  0  0  0  0  0  0  0  0  0  0  0
    8.6802  -15.3348   25.3503 C   0  0  0  0  0  0  0  0  0  0  0  0
    7.9473  -16.3651   25.5205 O   0  0  0  0  0  0  0  0  0  0  0  0
    9.9259  -15.4013   26.0236 N   0  0  0  0  0  0  0  0  0  0  0  0
   10.3165  -16.5527   26.8260 C   0  0  1  0  0  0  0  0  0  0  0  0
   11.5981  -17.1591   26.3476 C   0  0  0  0  0  0  0  0  0  0  0  0
   11.6579  -17.4270   24.8720 C   0  0  0  0  0  0  0  0  0  0  0  0
   12.9992  -18.0030   24.5689 C   0  0  0  0  0  0  0  0  0  0  0  0
   13.8020  -18.1740   25.5338 O   0  0  0  0  0  0  0  0  0  0  0  0
   10.3338  -16.2873   28.2595 C   0  0  0  0  0  0  0  0  0  0  0  0
   10.1634  -15.1316   28.6980 O   0  0  0  0  0  0  0  0  0  0  0  0
   13.3645  -18.3422   23.2636 O   0  0  0  0  0  0  0  0  0  0  0  0
   10.5395  -17.3111   29.1612 O   0  0  0  0  0  0  0  0  0  0  0  0
  2  3  1  0
  2  1  1  0
  3  4  1  6
  5  3  1  0
  5  6  2  0
  8  7  1  6
  8 10  1  0
  8  9  1  0
 11 10  1  1
 11 12  1  0
 11 13  1  0
 12  5  1  0
 13 15  1  0
 14 13  2  0
 15 16  1  0
 16 21  1  0
 17 18  1  0
 16 17  1  6
 19 23  1  0
 19 18  1  0
 20 19  2  0
 21 22  2  0
 21 24  1  0
M  END
$$$$
