CWG.pdb
     RDKit          3D

 25 26  0  0  1  0  0  0  0  0999 V2000
    7.0966  -14.3692   20.4115 N   0  0  0  0  0  0  0  0  0  0  0  0
    7.6418  -15.5236   21.0804 C   0  0  1  0  0  0  0  0  0  0  0  0
    8.2527  -16.5306   20.1525 C   0  0  0  0  0  0  0  0  0  0  0  0
    6.9458  -17.6766   19.6561 S   0  0  0  0  0  0  0  0  0  0  0  0
    8.5845  -15.0732   22.1540 C   0  0  0  0  0  0  0  0  0  0  0  0
    9.2315  -14.0019   22.0536 O   0  0  0  0  0  0  0  0  0  0  0  0
    8.7758  -15.8495   23.3252 N   0  0  0  0  0  0  0  0  0  0  0  0
    9.6608  -15.5622   24.4036 C   0  0  1  0  0  0  0  0  0  0  0  0
    8.9957  -15.8197   25.7138 C   0  0  0  0  0  0  0  0  0  0  0  0
    7.6694  -15.1749   25.8178 C   0  0  0  0  0  0  0  0  0  0  0  0
    6.4340  -15.7684   25.6652 C   0  0  0  0  0  0  0  0  0  0  0  0
    5.5259  -14.7875   25.8459 N   0  0  0  0  0  0  0  0  0  0  0  0
    6.1360  -13.6189   26.1020 C   0  0  0  0  0  0  0  0  0  0  0  0
    5.6353  -12.3488   26.3493 C   0  0  0  0  0  0  0  0  0  0  0  0
    6.5152  -11.3212   26.5798 C   0  0  0  0  0  0  0  0  0  0  0  0
    7.8908  -11.5082   26.5741 C   0  0  0  0  0  0  0  0  0  0  0  0
    8.3883  -12.7712   26.3285 C   0  0  0  0  0  0  0  0  0  0  0  0
    7.4990  -13.8033   26.0969 C   0  0  0  0  0  0  0  0  0  0  0  0
   10.9569  -16.2911   24.2741 C   0  0  0  0  0  0  0  0  0  0  0  0
   11.7373  -16.2551   25.2523 O   0  0  0  0  0  0  0  0  0  0  0  0
   11.3553  -17.0119   23.1278 N   0  0  0  0  0  0  0  0  0  0  0  0
   12.6516  -17.6694   23.0481 C   0  0  0  0  0  0  0  0  0  0  0  0
   13.7600  -16.7144   22.9977 C   0  0  0  0  0  0  0  0  0  0  0  0
   14.0651  -16.0597   21.9408 O   0  0  0  0  0  0  0  0  0  0  0  0
   14.5591  -16.4535   24.0971 O   0  0  0  0  0  0  0  0  0  0  0  0
  2  1  1  6
  3  2  1  0
  4  3  1  0
  5  7  1  0
  5  2  1  0
  6  5  2  0
  8  7  1  0
  8  9  1  1
  9 10  1  0
 10 11  2  0
 10 18  1  0
 11 12  1  0
 12 13  1  0
 13 14  2  0
 14 15  1  0
 16 15  2  0
 17 16  1  0
 18 17  2  0
 18 13  1  0
 19  8  1  0
 20 19  2  0
 21 19  1  0
 22 23  1  0
 22 21  1  0
 23 25  1  0
 24 23  2  0
M  END
$$$$
