CWG.pdb
     RDKit          3D

 25 26  0  0  1  0  0  0  0  0999 V2000
    5.9046  -15.3172   20.6313 N   0  0  0  0  0  0  0  0  0  0  0  0
    7.1266  -16.0624   20.8001 C   0  0  1  0  0  0  0  0  0  0  0  0
    7.8447  -16.3496   19.5155 C   0  0  0  0  0  0  0  0  0  0  0  0
    9.2091  -17.4735   19.8939 S   0  0  0  0  0  0  0  0  0  0  0  0
    7.9915  -15.3713   21.8093 C   0  0  0  0  0  0  0  0  0  0  0  0
    8.2123  -14.1368   21.7502 O   0  0  0  0  0  0  0  0  0  0  0  0
    8.5913  -16.0965   22.8701 N   0  0  0  0  0  0  0  0  0  0  0  0
    9.5328  -15.6006   23.8167 C   0  0  1  0  0  0  0  0  0  0  0  0
    9.0747  -15.8762   25.2094 C   0  0  0  0  0  0  0  0  0  0  0  0
    7.8038  -15.1960   25.5378 C   0  0  0  0  0  0  0  0  0  0  0  0
    6.5362  -15.7392   25.5328 C   0  0  0  0  0  0  0  0  0  0  0  0
    5.7035  -14.7419   25.8951 N   0  0  0  0  0  0  0  0  0  0  0  0
    6.3905  -13.6108   26.1234 C   0  0  0  0  0  0  0  0  0  0  0  0
    5.9818  -12.3421   26.5085 C   0  0  0  0  0  0  0  0  0  0  0  0
    6.9264  -11.3590   26.6650 C   0  0  0  0  0  0  0  0  0  0  0  0
    8.2787  -11.5897   26.4513 C   0  0  0  0  0  0  0  0  0  0  0  0
    8.6847  -12.8513   26.0688 C   0  0  0  0  0  0  0  0  0  0  0  0
    7.7304  -13.8386   25.9122 C   0  0  0  0  0  0  0  0  0  0  0  0
   10.9096  -16.1176   23.5613 C   0  0  0  0  0  0  0  0  0  0  0  0
   11.0322  -17.3443   23.3436 O   0  0  0  0  0  0  0  0  0  0  0  0
   12.0725  -15.3176   23.5504 N   0  0  0  0  0  0  0  0  0  0  0  0
   13.3302  -15.8011   22.9993 C   0  0  0  0  0  0  0  0  0  0  0  0
   14.1451  -16.4981   23.9958 C   0  0  0  0  0  0  0  0  0  0  0  0
   15.3832  -16.7686   23.8145 O   0  0  0  0  0  0  0  0  0  0  0  0
   13.6281  -16.9156   25.2099 O   0  0  0  0  0  0  0  0  0  0  0  0
  2  1  1  6
  3  2  1  0
  4  3  1  0
  5  7  1  0
  5  2  1  0
  6  5  2  0
  8  7  1  0
  8  9  1  1
  9 10  1  0
 10 11  2  0
 10 18  1  0
 11 12  1  0
 12 13  1  0
 13 14  2  0
 14 15  1  0
 16 15  2  0
 17 16  1  0
 18 17  2  0
 18 13  1  0
 19  8  1  0
 20 19  2  0
 21 19  1  0
 22 23  1  0
 22 21  1  0
 23 25  1  0
 24 23  2  0
M  END
$$$$
