CWG.pdb
     RDKit          3D

 25 26  0  0  1  0  0  0  0  0999 V2000
    5.8391  -15.3760   21.3301 N   0  0  0  0  0  0  0  0  0  0  0  0
    7.0029  -16.2098   21.4963 C   0  0  1  0  0  0  0  0  0  0  0  0
    7.6483  -16.6157   20.2052 C   0  0  0  0  0  0  0  0  0  0  0  0
    8.9746  -17.7783   20.6013 S   0  0  0  0  0  0  0  0  0  0  0  0
    7.9567  -15.5443   22.4407 C   0  0  0  0  0  0  0  0  0  0  0  0
    8.2374  -14.3247   22.3403 O   0  0  0  0  0  0  0  0  0  0  0  0
    8.5758  -16.2779   23.4845 N   0  0  0  0  0  0  0  0  0  0  0  0
    9.5573  -15.7978   24.3982 C   0  0  1  0  0  0  0  0  0  0  0  0
    9.0410  -15.8417   25.7970 C   0  0  0  0  0  0  0  0  0  0  0  0
    7.7196  -15.1940   25.9390 C   0  0  0  0  0  0  0  0  0  0  0  0
    6.4791  -15.7847   25.8215 C   0  0  0  0  0  0  0  0  0  0  0  0
    5.5787  -14.8019   26.0284 N   0  0  0  0  0  0  0  0  0  0  0  0
    6.1984  -13.6347   26.2673 C   0  0  0  0  0  0  0  0  0  0  0  0
    5.7079  -12.3636   26.5292 C   0  0  0  0  0  0  0  0  0  0  0  0
    6.5963  -11.3381   26.7348 C   0  0  0  0  0  0  0  0  0  0  0  0
    7.9708  -11.5281   26.6899 C   0  0  0  0  0  0  0  0  0  0  0  0
    8.4582  -12.7921   26.4298 C   0  0  0  0  0  0  0  0  0  0  0  0
    7.5604  -13.8222   26.2232 C   0  0  0  0  0  0  0  0  0  0  0  0
   10.8576  -16.5160   24.2522 C   0  0  0  0  0  0  0  0  0  0  0  0
   11.3506  -17.0282   25.2826 O   0  0  0  0  0  0  0  0  0  0  0  0
   11.5610  -16.6525   23.0361 N   0  0  0  0  0  0  0  0  0  0  0  0
   12.9019  -16.1133   22.8617 C   0  0  0  0  0  0  0  0  0  0  0  0
   13.4882  -16.4811   21.5717 C   0  0  0  0  0  0  0  0  0  0  0  0
   14.6781  -16.1544   21.2311 O   0  0  0  0  0  0  0  0  0  0  0  0
   12.7901  -17.2118   20.6260 O   0  0  0  0  0  0  0  0  0  0  0  0
  2  1  1  6
  3  2  1  0
  4  3  1  0
  5  7  1  0
  5  2  1  0
  6  5  2  0
  8  7  1  0
  8  9  1  1
  9 10  1  0
 10 11  2  0
 10 18  1  0
 11 12  1  0
 12 13  1  0
 13 14  2  0
 14 15  1  0
 16 15  2  0
 17 16  1  0
 18 17  2  0
 18 13  1  0
 19  8  1  0
 20 19  2  0
 21 19  1  0
 22 23  1  0
 22 21  1  0
 23 25  1  0
 24 23  2  0
M  END
$$$$
