CWG.pdb
     RDKit          3D

 25 26  0  0  1  0  0  0  0  0999 V2000
    7.3408  -13.9503   20.1983 N   0  0  0  0  0  0  0  0  0  0  0  0
    7.6345  -15.2141   20.8258 C   0  0  1  0  0  0  0  0  0  0  0  0
    8.1026  -16.2715   19.8712 C   0  0  0  0  0  0  0  0  0  0  0  0
    8.1260  -17.8416   20.7667 S   0  0  0  0  0  0  0  0  0  0  0  0
    8.5854  -14.9925   21.9620 C   0  0  0  0  0  0  0  0  0  0  0  0
    9.3920  -14.0304   21.9658 O   0  0  0  0  0  0  0  0  0  0  0  0
    8.6029  -15.8697   23.0761 N   0  0  0  0  0  0  0  0  0  0  0  0
    9.4931  -15.8197   24.1868 C   0  0  1  0  0  0  0  0  0  0  0  0
    8.7940  -16.2247   25.4409 C   0  0  0  0  0  0  0  0  0  0  0  0
    7.6010  -15.3981   25.7224 C   0  0  0  0  0  0  0  0  0  0  0  0
    6.2795  -15.7896   25.6766 C   0  0  0  0  0  0  0  0  0  0  0  0
    5.5574  -14.6989   26.0055 N   0  0  0  0  0  0  0  0  0  0  0  0
    6.3640  -13.6537   26.2518 C   0  0  0  0  0  0  0  0  0  0  0  0
    6.0938  -12.3427   26.6166 C   0  0  0  0  0  0  0  0  0  0  0  0
    7.1411  -11.4752   26.8007 C   0  0  0  0  0  0  0  0  0  0  0  0
    8.4635  -11.8640   26.6344 C   0  0  0  0  0  0  0  0  0  0  0  0
    8.7318  -13.1677   26.2721 C   0  0  0  0  0  0  0  0  0  0  0  0
    7.6744  -14.0382   26.0876 C   0  0  0  0  0  0  0  0  0  0  0  0
   10.7327  -16.6160   23.9477 C   0  0  0  0  0  0  0  0  0  0  0  0
   11.5507  -16.7043   24.8913 O   0  0  0  0  0  0  0  0  0  0  0  0
   11.0387  -17.2700   22.7348 N   0  0  0  0  0  0  0  0  0  0  0  0
   12.2429  -18.0731   22.5798 C   0  0  0  0  0  0  0  0  0  0  0  0
   13.4284  -17.2565   22.3137 C   0  0  0  0  0  0  0  0  0  0  0  0
   13.4014  -15.9767   22.3000 O   0  0  0  0  0  0  0  0  0  0  0  0
   14.6673  -17.8171   22.0561 O   0  0  0  0  0  0  0  0  0  0  0  0
  2  1  1  6
  3  2  1  0
  4  3  1  0
  5  7  1  0
  5  2  1  0
  6  5  2  0
  8  7  1  0
  8  9  1  1
  9 10  1  0
 10 11  2  0
 10 18  1  0
 11 12  1  0
 12 13  1  0
 13 14  2  0
 14 15  1  0
 16 15  2  0
 17 16  1  0
 18 17  2  0
 18 13  1  0
 19  8  1  0
 20 19  2  0
 21 19  1  0
 22 23  1  0
 22 21  1  0
 23 25  1  0
 24 23  2  0
M  END
$$$$
