CWG.pdb
     RDKit          3D

 25 26  0  0  1  0  0  0  0  0999 V2000
    6.9920  -14.9324   19.9500 N   0  0  0  0  0  0  0  0  0  0  0  0
    7.2012  -15.8470   21.0440 C   0  0  1  0  0  0  0  0  0  0  0  0
    7.4658  -17.2586   20.6130 C   0  0  0  0  0  0  0  0  0  0  0  0
    9.0496  -17.2740   19.7419 S   0  0  0  0  0  0  0  0  0  0  0  0
    8.2670  -15.3035   21.9456 C   0  0  0  0  0  0  0  0  0  0  0  0
    8.9819  -14.3292   21.6051 O   0  0  0  0  0  0  0  0  0  0  0  0
    8.5020  -15.8776   23.2208 N   0  0  0  0  0  0  0  0  0  0  0  0
    9.4852  -15.4747   24.1692 C   0  0  1  0  0  0  0  0  0  0  0  0
    8.9890  -15.6784   25.5612 C   0  0  0  0  0  0  0  0  0  0  0  0
    7.7188  -14.9692   25.8244 C   0  0  0  0  0  0  0  0  0  0  0  0
    6.4496  -15.5073   25.8606 C   0  0  0  0  0  0  0  0  0  0  0  0
    5.6184  -14.4804   26.1322 N   0  0  0  0  0  0  0  0  0  0  0  0
    6.3079  -13.3357   26.2655 C   0  0  0  0  0  0  0  0  0  0  0  0
    5.9015  -12.0375   26.5383 C   0  0  0  0  0  0  0  0  0  0  0  0
    6.8484  -11.0471   26.6140 C   0  0  0  0  0  0  0  0  0  0  0  0
    8.2008  -11.2989   26.4268 C   0  0  0  0  0  0  0  0  0  0  0  0
    8.6046  -12.5899   26.1559 C   0  0  0  0  0  0  0  0  0  0  0  0
    7.6480  -13.5844   26.0805 C   0  0  0  0  0  0  0  0  0  0  0  0
   10.7986  -16.1436   23.9332 C   0  0  0  0  0  0  0  0  0  0  0  0
   11.7683  -15.7693   24.6309 O   0  0  0  0  0  0  0  0  0  0  0  0
   11.0147  -17.1625   22.9807 N   0  0  0  0  0  0  0  0  0  0  0  0
   12.3280  -17.7573   22.7793 C   0  0  0  0  0  0  0  0  0  0  0  0
   12.7651  -18.5487   23.9307 C   0  0  0  0  0  0  0  0  0  0  0  0
   12.0132  -18.7793   24.9407 O   0  0  0  0  0  0  0  0  0  0  0  0
   14.0305  -19.1043   24.0059 O   0  0  0  0  0  0  0  0  0  0  0  0
  2  1  1  6
  3  2  1  0
  4  3  1  0
  5  7  1  0
  5  2  1  0
  6  5  2  0
  8  7  1  0
  8  9  1  1
  9 10  1  0
 10 11  2  0
 10 18  1  0
 11 12  1  0
 12 13  1  0
 13 14  2  0
 14 15  1  0
 16 15  2  0
 17 16  1  0
 18 17  2  0
 18 13  1  0
 19  8  1  0
 20 19  2  0
 21 19  1  0
 22 23  1  0
 22 21  1  0
 23 25  1  0
 24 23  2  0
M  END
$$$$
