CWG.pdb
     RDKit          3D

 25 26  0  0  1  0  0  0  0  0999 V2000
    6.0349  -17.8429   21.8970 N   0  0  0  0  0  0  0  0  0  0  0  0
    7.1253  -17.1829   21.2242 C   0  0  1  0  0  0  0  0  0  0  0  0
    6.7520  -16.5938   19.8969 C   0  0  0  0  0  0  0  0  0  0  0  0
    8.2860  -16.2039   19.0235 S   0  0  0  0  0  0  0  0  0  0  0  0
    7.7457  -16.1834   22.1518 C   0  0  0  0  0  0  0  0  0  0  0  0
    7.4803  -14.9589   22.0712 O   0  0  0  0  0  0  0  0  0  0  0  0
    8.6583  -16.5937   23.1566 N   0  0  0  0  0  0  0  0  0  0  0  0
    9.4105  -15.7486   24.0219 C   0  0  1  0  0  0  0  0  0  0  0  0
    9.0008  -15.9502   25.4420 C   0  0  0  0  0  0  0  0  0  0  0  0
    7.7129  -15.2989   25.7630 C   0  0  0  0  0  0  0  0  0  0  0  0
    6.4597  -15.8745   25.7656 C   0  0  0  0  0  0  0  0  0  0  0  0
    5.6018  -14.8946   26.1161 N   0  0  0  0  0  0  0  0  0  0  0  0
    6.2595  -13.7434   26.3300 C   0  0  0  0  0  0  0  0  0  0  0  0
    5.8185  -12.4810   26.6997 C   0  0  0  0  0  0  0  0  0  0  0  0
    6.7376  -11.4721   26.8434 C   0  0  0  0  0  0  0  0  0  0  0  0
    8.0952  -11.6705   26.6316 C   0  0  0  0  0  0  0  0  0  0  0  0
    8.5334  -12.9260   26.2644 C   0  0  0  0  0  0  0  0  0  0  0  0
    7.6048  -13.9394   26.1206 C   0  0  0  0  0  0  0  0  0  0  0  0
   10.8812  -15.9151   23.8283 C   0  0  0  0  0  0  0  0  0  0  0  0
   11.6380  -15.2327   24.5554 O   0  0  0  0  0  0  0  0  0  0  0  0
   11.4677  -16.7857   22.8846 N   0  0  0  0  0  0  0  0  0  0  0  0
   12.9111  -16.8748   22.7176 C   0  0  0  0  0  0  0  0  0  0  0  0
   13.2901  -17.6862   21.5595 C   0  0  0  0  0  0  0  0  0  0  0  0
   12.8142  -17.4891   20.3876 O   0  0  0  0  0  0  0  0  0  0  0  0
   14.1948  -18.7293   21.6545 O   0  0  0  0  0  0  0  0  0  0  0  0
  2  1  1  1
  3  2  1  0
  4  3  1  0
  5  7  1  0
  5  2  1  0
  6  5  2  0
  8  7  1  0
  8  9  1  1
  9 10  1  0
 10 11  2  0
 10 18  1  0
 11 12  1  0
 12 13  1  0
 13 14  2  0
 14 15  1  0
 16 15  2  0
 17 16  1  0
 18 17  2  0
 18 13  1  0
 19  8  1  0
 20 19  2  0
 21 19  1  0
 22 23  1  0
 22 21  1  0
 23 25  1  0
 24 23  2  0
M  END
$$$$
