CWG.pdb
     RDKit          3D

 25 26  0  0  1  0  0  0  0  0999 V2000
    8.8078  -17.9186   19.6236 N   0  0  0  0  0  0  0  0  0  0  0  0
    9.3806  -16.6284   19.3329 C   0  0  1  0  0  0  0  0  0  0  0  0
    8.7355  -15.9245   18.1768 C   0  0  0  0  0  0  0  0  0  0  0  0
    6.9791  -15.7403   18.5630 S   0  0  0  0  0  0  0  0  0  0  0  0
    9.3973  -15.8023   20.5825 C   0  0  0  0  0  0  0  0  0  0  0  0
   10.0510  -14.7329   20.6546 O   0  0  0  0  0  0  0  0  0  0  0  0
    8.6694  -16.2068   21.7303 N   0  0  0  0  0  0  0  0  0  0  0  0
    8.5554  -15.4989   22.9609 C   0  0  1  0  0  0  0  0  0  0  0  0
    7.2354  -15.7665   23.6023 C   0  0  0  0  0  0  0  0  0  0  0  0
    7.1539  -15.2419   24.9822 C   0  0  0  0  0  0  0  0  0  0  0  0
    7.1680  -15.9648   26.1564 C   0  0  0  0  0  0  0  0  0  0  0  0
    7.0686  -15.0593   27.1512 N   0  0  0  0  0  0  0  0  0  0  0  0
    6.9937  -13.8146   26.6526 C   0  0  0  0  0  0  0  0  0  0  0  0
    6.8795  -12.5767   27.2687 C   0  0  0  0  0  0  0  0  0  0  0  0
    6.8196  -11.4494   26.4884 C   0  0  0  0  0  0  0  0  0  0  0  0
    6.8692  -11.5042   25.1021 C   0  0  0  0  0  0  0  0  0  0  0  0
    6.9831  -12.7351   24.4898 C   0  0  0  0  0  0  0  0  0  0  0  0
    7.0431  -13.8680   25.2791 C   0  0  0  0  0  0  0  0  0  0  0  0
    9.6981  -15.7825   23.8784 C   0  0  0  0  0  0  0  0  0  0  0  0
    9.6746  -15.2461   25.0093 O   0  0  0  0  0  0  0  0  0  0  0  0
   10.7946  -16.6100   23.5540 N   0  0  0  0  0  0  0  0  0  0  0  0
   11.8116  -16.9550   24.5369 C   0  0  0  0  0  0  0  0  0  0  0  0
   12.9283  -17.6962   23.9484 C   0  0  0  0  0  0  0  0  0  0  0  0
   12.8025  -18.8762   23.4682 O   0  0  0  0  0  0  0  0  0  0  0  0
   14.2051  -17.1677   23.8715 O   0  0  0  0  0  0  0  0  0  0  0  0
  2  1  1  1
  3  2  1  0
  4  3  1  0
  5  7  1  0
  5  2  1  0
  6  5  2  0
  8  7  1  0
  8  9  1  1
  9 10  1  0
 10 11  2  0
 10 18  1  0
 11 12  1  0
 12 13  1  0
 13 14  2  0
 14 15  1  0
 16 15  2  0
 17 16  1  0
 18 17  2  0
 18 13  1  0
 19  8  1  0
 20 19  2  0
 21 19  1  0
 22 23  1  0
 22 21  1  0
 23 25  1  0
 24 23  2  0
M  END
$$$$
