CWG.pdb
     RDKit          3D

 25 26  0  0  1  0  0  0  0  0999 V2000
    7.1471  -13.8264   20.4394 N   0  0  0  0  0  0  0  0  0  0  0  0
    7.5467  -15.0706   21.0473 C   0  0  1  0  0  0  0  0  0  0  0  0
    8.0076  -16.1055   20.0650 C   0  0  0  0  0  0  0  0  0  0  0  0
    8.0783  -17.6885   20.9350 S   0  0  0  0  0  0  0  0  0  0  0  0
    8.5556  -14.7949   22.1198 C   0  0  0  0  0  0  0  0  0  0  0  0
    9.3232  -13.8031   22.0609 O   0  0  0  0  0  0  0  0  0  0  0  0
    8.6747  -15.6527   23.2428 N   0  0  0  0  0  0  0  0  0  0  0  0
    9.5829  -15.5119   24.3309 C   0  0  1  0  0  0  0  0  0  0  0  0
    8.9080  -15.8244   25.6241 C   0  0  0  0  0  0  0  0  0  0  0  0
    7.6460  -15.0759   25.8054 C   0  0  0  0  0  0  0  0  0  0  0  0
    6.3627  -15.5806   25.7951 C   0  0  0  0  0  0  0  0  0  0  0  0
    5.5471  -14.5255   25.9971 N   0  0  0  0  0  0  0  0  0  0  0  0
    6.2596  -13.3952   26.1314 C   0  0  0  0  0  0  0  0  0  0  0  0
    5.8753  -12.0797   26.3475 C   0  0  0  0  0  0  0  0  0  0  0  0
    6.8435  -11.1117   26.4410 C   0  0  0  0  0  0  0  0  0  0  0  0
    8.1961  -11.4029   26.3268 C   0  0  0  0  0  0  0  0  0  0  0  0
    8.5779  -12.7110   26.1122 C   0  0  0  0  0  0  0  0  0  0  0  0
    7.5999  -13.6829   26.0186 C   0  0  0  0  0  0  0  0  0  0  0  0
   10.8246  -16.3160   24.1320 C   0  0  0  0  0  0  0  0  0  0  0  0
   11.6159  -16.4007   25.0983 O   0  0  0  0  0  0  0  0  0  0  0  0
   11.1605  -16.9808   22.9330 N   0  0  0  0  0  0  0  0  0  0  0  0
   12.3842  -17.7590   22.8052 C   0  0  0  0  0  0  0  0  0  0  0  0
   13.5524  -16.9212   22.5287 C   0  0  0  0  0  0  0  0  0  0  0  0
   13.7902  -16.4198   21.3751 O   0  0  0  0  0  0  0  0  0  0  0  0
   14.4859  -16.6130   23.5030 O   0  0  0  0  0  0  0  0  0  0  0  0
  2  1  1  6
  3  2  1  0
  4  3  1  0
  5  7  1  0
  5  2  1  0
  6  5  2  0
  8  7  1  0
  8  9  1  1
  9 10  1  0
 10 11  2  0
 10 18  1  0
 11 12  1  0
 12 13  1  0
 13 14  2  0
 14 15  1  0
 16 15  2  0
 17 16  1  0
 18 17  2  0
 18 13  1  0
 19  8  1  0
 20 19  2  0
 21 19  1  0
 22 23  1  0
 22 21  1  0
 23 25  1  0
 24 23  2  0
M  END
$$$$
