CWG.pdb
     RDKit          3D

 25 26  0  0  1  0  0  0  0  0999 V2000
    6.8623  -15.3551   20.0958 N   0  0  0  0  0  0  0  0  0  0  0  0
    7.3526  -16.3154   21.0522 C   0  0  1  0  0  0  0  0  0  0  0  0
    7.9236  -17.5544   20.4300 C   0  0  0  0  0  0  0  0  0  0  0  0
    9.4842  -17.0976   19.6404 S   0  0  0  0  0  0  0  0  0  0  0  0
    8.3085  -15.6386   21.9862 C   0  0  0  0  0  0  0  0  0  0  0  0
    8.7548  -14.4889   21.7506 O   0  0  0  0  0  0  0  0  0  0  0  0
    8.7412  -16.2812   23.1740 N   0  0  0  0  0  0  0  0  0  0  0  0
    9.6272  -15.7521   24.1556 C   0  0  1  0  0  0  0  0  0  0  0  0
    9.0752  -15.9533   25.5267 C   0  0  0  0  0  0  0  0  0  0  0  0
    7.7722  -15.2826   25.7222 C   0  0  0  0  0  0  0  0  0  0  0  0
    6.5160  -15.8363   25.5915 C   0  0  0  0  0  0  0  0  0  0  0  0
    5.6430  -14.8447   25.8635 N   0  0  0  0  0  0  0  0  0  0  0  0
    6.2945  -13.7072   26.1552 C   0  0  0  0  0  0  0  0  0  0  0  0
    5.8390  -12.4406   26.4916 C   0  0  0  0  0  0  0  0  0  0  0  0
    6.7551  -11.4491   26.7385 C   0  0  0  0  0  0  0  0  0  0  0  0
    8.1238  -11.6693   26.6635 C   0  0  0  0  0  0  0  0  0  0  0  0
    8.5764  -12.9289   26.3294 C   0  0  0  0  0  0  0  0  0  0  0  0
    7.6507  -13.9246   26.0814 C   0  0  0  0  0  0  0  0  0  0  0  0
   11.0090  -16.2990   24.0161 C   0  0  0  0  0  0  0  0  0  0  0  0
   11.8618  -15.9279   24.8541 O   0  0  0  0  0  0  0  0  0  0  0  0
   11.4118  -17.2002   23.0072 N   0  0  0  0  0  0  0  0  0  0  0  0
   12.7535  -17.7643   22.9744 C   0  0  0  0  0  0  0  0  0  0  0  0
   12.9577  -18.6530   21.8293 C   0  0  0  0  0  0  0  0  0  0  0  0
   11.9907  -19.2008   21.1940 O   0  0  0  0  0  0  0  0  0  0  0  0
   14.2195  -18.9641   21.3532 O   0  0  0  0  0  0  0  0  0  0  0  0
  2  1  1  6
  3  2  1  0
  4  3  1  0
  5  7  1  0
  5  2  1  0
  6  5  2  0
  8  7  1  0
  8  9  1  1
  9 10  1  0
 10 11  2  0
 10 18  1  0
 11 12  1  0
 12 13  1  0
 13 14  2  0
 14 15  1  0
 16 15  2  0
 17 16  1  0
 18 17  2  0
 18 13  1  0
 19  8  1  0
 20 19  2  0
 21 19  1  0
 22 23  1  0
 22 21  1  0
 23 25  1  0
 24 23  2  0
M  END
$$$$
