CWG.pdb
     RDKit          3D

 25 26  0  0  1  0  0  0  0  0999 V2000
    6.1839  -14.8014   20.8031 N   0  0  0  0  0  0  0  0  0  0  0  0
    7.2761  -15.7059   21.0604 C   0  0  1  0  0  0  0  0  0  0  0  0
    8.0197  -16.1258   19.8279 C   0  0  0  0  0  0  0  0  0  0  0  0
    9.1443  -17.4604   20.2988 S   0  0  0  0  0  0  0  0  0  0  0  0
    8.1700  -15.1159   22.1078 C   0  0  0  0  0  0  0  0  0  0  0  0
    8.4526  -13.8926   22.1175 O   0  0  0  0  0  0  0  0  0  0  0  0
    8.7281  -15.9278   23.1278 N   0  0  0  0  0  0  0  0  0  0  0  0
    9.7345  -15.5511   24.0625 C   0  0  1  0  0  0  0  0  0  0  0  0
    9.2399  -15.7081   25.4611 C   0  0  0  0  0  0  0  0  0  0  0  0
    7.8968  -15.1235   25.6611 C   0  0  0  0  0  0  0  0  0  0  0  0
    6.6835  -15.7782   25.6265 C   0  0  0  0  0  0  0  0  0  0  0  0
    5.7466  -14.8364   25.8602 N   0  0  0  0  0  0  0  0  0  0  0  0
    6.3178  -13.6339   26.0371 C   0  0  0  0  0  0  0  0  0  0  0  0
    5.7778  -12.3825   26.2962 C   0  0  0  0  0  0  0  0  0  0  0  0
    6.6224  -11.3089   26.4281 C   0  0  0  0  0  0  0  0  0  0  0  0
    8.0004  -11.4313   26.3113 C   0  0  0  0  0  0  0  0  0  0  0  0
    8.5370  -12.6758   26.0540 C   0  0  0  0  0  0  0  0  0  0  0  0
    7.6832  -13.7544   25.9217 C   0  0  0  0  0  0  0  0  0  0  0  0
   11.0160  -16.2804   23.8304 C   0  0  0  0  0  0  0  0  0  0  0  0
   11.2220  -17.3117   24.5093 O   0  0  0  0  0  0  0  0  0  0  0  0
   12.0023  -15.8837   22.9019 N   0  0  0  0  0  0  0  0  0  0  0  0
   13.2405  -16.6305   22.7330 C   0  0  0  0  0  0  0  0  0  0  0  0
   14.2557  -16.2589   23.7200 C   0  0  0  0  0  0  0  0  0  0  0  0
   15.2334  -15.4777   23.4504 O   0  0  0  0  0  0  0  0  0  0  0  0
   14.2274  -16.7313   25.0206 O   0  0  0  0  0  0  0  0  0  0  0  0
  2  1  1  6
  3  2  1  0
  4  3  1  0
  5  7  1  0
  5  2  1  0
  6  5  2  0
  8  7  1  0
  8  9  1  1
  9 10  1  0
 10 11  2  0
 10 18  1  0
 11 12  1  0
 12 13  1  0
 13 14  2  0
 14 15  1  0
 16 15  2  0
 17 16  1  0
 18 17  2  0
 18 13  1  0
 19  8  1  0
 20 19  2  0
 21 19  1  0
 22 23  1  0
 22 21  1  0
 23 25  1  0
 24 23  2  0
M  END
$$$$
