CWG.pdb
     RDKit          3D

 25 26  0  0  1  0  0  0  0  0999 V2000
    6.1837  -18.3924   21.4810 N   0  0  0  0  0  0  0  0  0  0  0  0
    6.9063  -18.6169   22.7077 C   0  0  1  0  0  0  0  0  0  0  0  0
    7.6729  -19.9053   22.7333 C   0  0  0  0  0  0  0  0  0  0  0  0
    8.9809  -19.7854   21.4913 S   0  0  0  0  0  0  0  0  0  0  0  0
    7.7623  -17.4234   23.0024 C   0  0  0  0  0  0  0  0  0  0  0  0
    7.9953  -16.5503   22.1308 O   0  0  0  0  0  0  0  0  0  0  0  0
    8.3396  -17.2425   24.2850 N   0  0  0  0  0  0  0  0  0  0  0  0
    9.3189  -16.2752   24.6506 C   0  0  1  0  0  0  0  0  0  0  0  0
    9.0120  -15.6950   25.9902 C   0  0  0  0  0  0  0  0  0  0  0  0
    7.6694  -15.0790   26.0519 C   0  0  0  0  0  0  0  0  0  0  0  0
    6.4495  -15.7209   26.0124 C   0  0  0  0  0  0  0  0  0  0  0  0
    5.5164  -14.7505   26.0955 N   0  0  0  0  0  0  0  0  0  0  0  0
    6.0962  -13.5424   26.1840 C   0  0  0  0  0  0  0  0  0  0  0  0
    5.5629  -12.2655   26.2844 C   0  0  0  0  0  0  0  0  0  0  0  0
    6.4162  -11.1932   26.3571 C   0  0  0  0  0  0  0  0  0  0  0  0
    7.7963  -11.3413   26.3337 C   0  0  0  0  0  0  0  0  0  0  0  0
    8.3263  -12.6111   26.2343 C   0  0  0  0  0  0  0  0  0  0  0  0
    7.4638  -13.6884   26.1611 C   0  0  0  0  0  0  0  0  0  0  0  0
   10.7046  -16.8251   24.5763 C   0  0  0  0  0  0  0  0  0  0  0  0
   11.0426  -17.6530   25.4524 O   0  0  0  0  0  0  0  0  0  0  0  0
   11.6503  -16.4731   23.5893 N   0  0  0  0  0  0  0  0  0  0  0  0
   13.0524  -16.8478   23.7031 C   0  0  0  0  0  0  0  0  0  0  0  0
   13.8376  -16.4322   22.5396 C   0  0  0  0  0  0  0  0  0  0  0  0
   15.1137  -16.5233   22.4943 O   0  0  0  0  0  0  0  0  0  0  0  0
   13.2490  -15.9080   21.4019 O   0  0  0  0  0  0  0  0  0  0  0  0
  2  1  1  6
  3  2  1  0
  4  3  1  0
  5  7  1  0
  5  2  1  0
  6  5  2  0
  8  7  1  0
  8  9  1  1
  9 10  1  0
 10 11  2  0
 10 18  1  0
 11 12  1  0
 12 13  1  0
 13 14  2  0
 14 15  1  0
 16 15  2  0
 17 16  1  0
 18 17  2  0
 18 13  1  0
 19  8  1  0
 20 19  2  0
 21 19  1  0
 22 23  1  0
 22 21  1  0
 23 25  1  0
 24 23  2  0
M  END
$$$$
