CWG.pdb
     RDKit          3D

 25 26  0  0  1  0  0  0  0  0999 V2000
    6.7646  -14.5295   20.2940 N   0  0  0  0  0  0  0  0  0  0  0  0
    7.3910  -15.6357   20.9731 C   0  0  1  0  0  0  0  0  0  0  0  0
    7.9877  -16.6554   20.0498 C   0  0  0  0  0  0  0  0  0  0  0  0
    8.4108  -18.1063   21.0415 S   0  0  0  0  0  0  0  0  0  0  0  0
    8.3742  -15.1088   21.9731 C   0  0  0  0  0  0  0  0  0  0  0  0
    8.9800  -14.0244   21.7907 O   0  0  0  0  0  0  0  0  0  0  0  0
    8.6520  -15.8248   23.1652 N   0  0  0  0  0  0  0  0  0  0  0  0
    9.5138  -15.4174   24.2234 C   0  0  1  0  0  0  0  0  0  0  0  0
    8.9444  -15.8066   25.5461 C   0  0  0  0  0  0  0  0  0  0  0  0
    7.6758  -15.1105   25.8492 C   0  0  0  0  0  0  0  0  0  0  0  0
    6.4084  -15.6530   25.8815 C   0  0  0  0  0  0  0  0  0  0  0  0
    5.5782  -14.6385   26.1988 N   0  0  0  0  0  0  0  0  0  0  0  0
    6.2666  -13.4973   26.3640 C   0  0  0  0  0  0  0  0  0  0  0  0
    5.8605  -12.2106   26.6871 C   0  0  0  0  0  0  0  0  0  0  0  0
    6.8060  -11.2209   26.7862 C   0  0  0  0  0  0  0  0  0  0  0  0
    8.1566  -11.4624   26.5742 C   0  0  0  0  0  0  0  0  0  0  0  0
    8.5601  -12.7419   26.2534 C   0  0  0  0  0  0  0  0  0  0  0  0
    7.6049  -13.7358   26.1545 C   0  0  0  0  0  0  0  0  0  0  0  0
   10.9067  -15.9206   24.0369 C   0  0  0  0  0  0  0  0  0  0  0  0
   11.7038  -15.7739   24.9909 O   0  0  0  0  0  0  0  0  0  0  0  0
   11.3781  -16.5456   22.8624 N   0  0  0  0  0  0  0  0  0  0  0  0
   12.7305  -17.0757   22.7663 C   0  0  0  0  0  0  0  0  0  0  0  0
   12.9753  -17.7535   21.4920 C   0  0  0  0  0  0  0  0  0  0  0  0
   12.0326  -18.2063   20.7538 O   0  0  0  0  0  0  0  0  0  0  0  0
   14.2521  -17.9526   20.9962 O   0  0  0  0  0  0  0  0  0  0  0  0
  2  1  1  6
  3  2  1  0
  4  3  1  0
  5  7  1  0
  5  2  1  0
  6  5  2  0
  8  7  1  0
  8  9  1  1
  9 10  1  0
 10 11  2  0
 10 18  1  0
 11 12  1  0
 12 13  1  0
 13 14  2  0
 14 15  1  0
 16 15  2  0
 17 16  1  0
 18 17  2  0
 18 13  1  0
 19  8  1  0
 20 19  2  0
 21 19  1  0
 22 23  1  0
 22 21  1  0
 23 25  1  0
 24 23  2  0
M  END
$$$$
