CWG.pdb
     RDKit          3D

 25 26  0  0  1  0  0  0  0  0999 V2000
    6.6289  -14.8203   20.0759 N   0  0  0  0  0  0  0  0  0  0  0  0
    7.2898  -15.8779   20.7984 C   0  0  1  0  0  0  0  0  0  0  0  0
    7.9223  -16.9124   19.9164 C   0  0  0  0  0  0  0  0  0  0  0  0
    7.0040  -16.9355   18.3595 S   0  0  0  0  0  0  0  0  0  0  0  0
    8.2525  -15.2802   21.7784 C   0  0  0  0  0  0  0  0  0  0  0  0
    8.7452  -14.1389   21.6029 O   0  0  0  0  0  0  0  0  0  0  0  0
    8.6389  -15.9914   22.9429 N   0  0  0  0  0  0  0  0  0  0  0  0
    9.6214  -15.5975   23.8958 C   0  0  1  0  0  0  0  0  0  0  0  0
    9.1351  -15.8403   25.2850 C   0  0  0  0  0  0  0  0  0  0  0  0
    7.8452  -15.1737   25.5634 C   0  0  0  0  0  0  0  0  0  0  0  0
    6.5858  -15.7342   25.5247 C   0  0  0  0  0  0  0  0  0  0  0  0
    5.7286  -14.7440   25.8470 N   0  0  0  0  0  0  0  0  0  0  0  0
    6.3927  -13.6007   26.0826 C   0  0  0  0  0  0  0  0  0  0  0  0
    5.9549  -12.3330   26.4377 C   0  0  0  0  0  0  0  0  0  0  0  0
    6.8808  -11.3351   26.6118 C   0  0  0  0  0  0  0  0  0  0  0  0
    8.2421  -11.5499   26.4447 C   0  0  0  0  0  0  0  0  0  0  0  0
    8.6771  -12.8106   26.0920 C   0  0  0  0  0  0  0  0  0  0  0  0
    7.7417  -13.8128   25.9175 C   0  0  0  0  0  0  0  0  0  0  0  0
   10.9424  -16.2428   23.6379 C   0  0  0  0  0  0  0  0  0  0  0  0
   11.0016  -17.4897   23.7320 O   0  0  0  0  0  0  0  0  0  0  0  0
   12.1195  -15.5418   23.2981 N   0  0  0  0  0  0  0  0  0  0  0  0
   13.3571  -16.2352   22.9714 C   0  0  0  0  0  0  0  0  0  0  0  0
   14.1104  -16.6251   24.1645 C   0  0  0  0  0  0  0  0  0  0  0  0
   13.6099  -16.5960   25.3423 O   0  0  0  0  0  0  0  0  0  0  0  0
   15.4248  -17.0539   24.0991 O   0  0  0  0  0  0  0  0  0  0  0  0
  2  1  1  6
  3  2  1  0
  4  3  1  0
  5  7  1  0
  5  2  1  0
  6  5  2  0
  8  7  1  0
  8  9  1  1
  9 10  1  0
 10 11  2  0
 10 18  1  0
 11 12  1  0
 12 13  1  0
 13 14  2  0
 14 15  1  0
 16 15  2  0
 17 16  1  0
 18 17  2  0
 18 13  1  0
 19  8  1  0
 20 19  2  0
 21 19  1  0
 22 23  1  0
 22 21  1  0
 23 25  1  0
 24 23  2  0
M  END
$$$$
