CWG.pdb
     RDKit          3D

 25 26  0  0  1  0  0  0  0  0999 V2000
    7.0463  -14.6653   20.0710 N   0  0  0  0  0  0  0  0  0  0  0  0
    7.1978  -15.6558   21.1070 C   0  0  1  0  0  0  0  0  0  0  0  0
    7.3379  -17.0568   20.5915 C   0  0  0  0  0  0  0  0  0  0  0  0
    9.0221  -17.2388   19.9605 S   0  0  0  0  0  0  0  0  0  0  0  0
    8.3197  -15.2538   22.0147 C   0  0  0  0  0  0  0  0  0  0  0  0
    9.0963  -14.3117   21.7222 O   0  0  0  0  0  0  0  0  0  0  0  0
    8.5397  -15.9307   23.2412 N   0  0  0  0  0  0  0  0  0  0  0  0
    9.4942  -15.5921   24.2427 C   0  0  1  0  0  0  0  0  0  0  0  0
    8.9085  -15.7548   25.6051 C   0  0  0  0  0  0  0  0  0  0  0  0
    7.6182  -15.0499   25.7602 C   0  0  0  0  0  0  0  0  0  0  0  0
    6.3521  -15.5893   25.6727 C   0  0  0  0  0  0  0  0  0  0  0  0
    5.4976  -14.5666   25.8806 N   0  0  0  0  0  0  0  0  0  0  0  0
    6.1699  -13.4234   26.0917 C   0  0  0  0  0  0  0  0  0  0  0  0
    5.7378  -12.1292   26.3433 C   0  0  0  0  0  0  0  0  0  0  0  0
    6.6720  -11.1393   26.5185 C   0  0  0  0  0  0  0  0  0  0  0  0
    8.0363  -11.3878   26.4527 C   0  0  0  0  0  0  0  0  0  0  0  0
    8.4656  -12.6747   26.2029 C   0  0  0  0  0  0  0  0  0  0  0  0
    7.5217  -13.6688   26.0269 C   0  0  0  0  0  0  0  0  0  0  0  0
   10.7694  -16.3508   24.0808 C   0  0  0  0  0  0  0  0  0  0  0  0
   11.6197  -16.2482   24.9938 O   0  0  0  0  0  0  0  0  0  0  0  0
   11.0748  -17.1695   22.9723 N   0  0  0  0  0  0  0  0  0  0  0  0
   12.3805  -17.7945   22.8179 C   0  0  0  0  0  0  0  0  0  0  0  0
   13.3901  -16.8618   22.3142 C   0  0  0  0  0  0  0  0  0  0  0  0
   13.3954  -16.4277   21.1099 O   0  0  0  0  0  0  0  0  0  0  0  0
   14.4150  -16.3833   23.1118 O   0  0  0  0  0  0  0  0  0  0  0  0
  2  1  1  6
  3  2  1  0
  4  3  1  0
  5  7  1  0
  5  2  1  0
  6  5  2  0
  8  7  1  0
  8  9  1  1
  9 10  1  0
 10 11  2  0
 10 18  1  0
 11 12  1  0
 12 13  1  0
 13 14  2  0
 14 15  1  0
 16 15  2  0
 17 16  1  0
 18 17  2  0
 18 13  1  0
 19  8  1  0
 20 19  2  0
 21 19  1  0
 22 23  1  0
 22 21  1  0
 23 25  1  0
 24 23  2  0
M  END
$$$$
