CWG.pdb
     RDKit          3D

 25 26  0  0  1  0  0  0  0  0999 V2000
    6.3642  -15.5259   20.8223 N   0  0  0  0  0  0  0  0  0  0  0  0
    7.3719  -16.4329   21.3113 C   0  0  1  0  0  0  0  0  0  0  0  0
    8.1545  -17.1122   20.2276 C   0  0  0  0  0  0  0  0  0  0  0  0
    9.1030  -18.4459   20.9954 S   0  0  0  0  0  0  0  0  0  0  0  0
    8.2428  -15.7182   22.2987 C   0  0  0  0  0  0  0  0  0  0  0  0
    8.6143  -14.5338   22.1107 O   0  0  0  0  0  0  0  0  0  0  0  0
    8.6770  -16.3632   23.4846 N   0  0  0  0  0  0  0  0  0  0  0  0
    9.6503  -15.8850   24.4080 C   0  0  1  0  0  0  0  0  0  0  0  0
    9.1090  -15.8984   25.7980 C   0  0  0  0  0  0  0  0  0  0  0  0
    7.7861  -15.2467   25.9023 C   0  0  0  0  0  0  0  0  0  0  0  0
    6.5484  -15.8275   25.7214 C   0  0  0  0  0  0  0  0  0  0  0  0
    5.6452  -14.8447   25.9153 N   0  0  0  0  0  0  0  0  0  0  0  0
    6.2603  -13.6869   26.2063 C   0  0  0  0  0  0  0  0  0  0  0  0
    5.7656  -12.4196   26.4784 C   0  0  0  0  0  0  0  0  0  0  0  0
    6.6499  -11.4042   26.7434 C   0  0  0  0  0  0  0  0  0  0  0  0
    8.0242  -11.6009   26.7490 C   0  0  0  0  0  0  0  0  0  0  0  0
    8.5157  -12.8612   26.4788 C   0  0  0  0  0  0  0  0  0  0  0  0
    7.6220  -13.8810   26.2123 C   0  0  0  0  0  0  0  0  0  0  0  0
   10.9407  -16.6269   24.2962 C   0  0  0  0  0  0  0  0  0  0  0  0
   11.0754  -17.6556   24.9967 O   0  0  0  0  0  0  0  0  0  0  0  0
   12.0101  -16.2446   23.4580 N   0  0  0  0  0  0  0  0  0  0  0  0
   13.3547  -16.7711   23.6428 C   0  0  0  0  0  0  0  0  0  0  0  0
   14.2957  -16.2627   22.6433 C   0  0  0  0  0  0  0  0  0  0  0  0
   14.4276  -15.0160   22.3843 O   0  0  0  0  0  0  0  0  0  0  0  0
   15.1117  -17.1019   21.9048 O   0  0  0  0  0  0  0  0  0  0  0  0
  2  1  1  6
  3  2  1  0
  4  3  1  0
  5  7  1  0
  5  2  1  0
  6  5  2  0
  8  7  1  0
  8  9  1  1
  9 10  1  0
 10 11  2  0
 10 18  1  0
 11 12  1  0
 12 13  1  0
 13 14  2  0
 14 15  1  0
 16 15  2  0
 17 16  1  0
 18 17  2  0
 18 13  1  0
 19  8  1  0
 20 19  2  0
 21 19  1  0
 22 23  1  0
 22 21  1  0
 23 25  1  0
 24 23  2  0
M  END
$$$$
