MPD.pdb
     RDKit          3D

 24 24  0  0  1  0  0  0  0  0999 V2000
    8.7909  -12.4401   28.0142 C   0  0  0  0  0  0  0  0  0  0  0  0
    7.2869  -12.8265   27.0727 S   0  0  0  0  0  0  0  0  0  0  0  0
    7.2865  -14.5509   26.5203 C   0  0  0  0  0  0  0  0  0  0  0  0
    6.0847  -14.8639   25.6584 C   0  0  0  0  0  0  0  0  0  0  0  0
    6.2176  -16.3004   25.1927 C   0  0  2  0  0  0  0  0  0  0  0  0
    6.3517  -17.1293   26.3405 N   0  0  0  0  0  0  0  0  0  0  0  0
    7.2160  -16.4672   24.1422 C   0  0  0  0  0  0  0  0  0  0  0  0
    7.8486  -17.5832   24.1596 O   0  0  0  0  0  0  0  0  0  0  0  0
    7.5625  -15.5582   23.1242 N   0  0  0  0  0  0  0  0  0  0  0  0
    7.1114  -14.2219   22.8122 C   0  0  0  0  0  0  0  0  0  0  0  0
    6.8816  -14.3413   21.2978 C   0  0  0  0  0  0  0  0  0  0  0  0
    8.1776  -15.0066   20.8838 C   0  0  0  0  0  0  0  0  0  0  0  0
    8.5585  -15.8269   22.0704 C   0  0  1  0  0  0  0  0  0  0  0  0
    9.9264  -15.6329   22.5540 C   0  0  0  0  0  0  0  0  0  0  0  0
   10.1053  -15.0139   23.6473 O   0  0  0  0  0  0  0  0  0  0  0  0
   11.1053  -16.0836   21.8988 N   0  0  0  0  0  0  0  0  0  0  0  0
   12.3661  -16.2407   22.6343 C   0  0  1  0  0  0  0  0  0  0  0  0
   12.1247  -17.1923   23.7842 C   0  0  0  0  0  0  0  0  0  0  0  0
   13.4195  -17.4814   24.4549 C   0  0  0  0  0  0  0  0  0  0  0  0
   14.0515  -16.6331   25.1283 O   0  0  0  0  0  0  0  0  0  0  0  0
   13.4187  -16.8030   21.7650 C   0  0  0  0  0  0  0  0  0  0  0  0
   14.6337  -16.7922   22.0796 O   0  0  0  0  0  0  0  0  0  0  0  0
   14.0040  -18.7531   24.3588 O   0  0  0  0  0  0  0  0  0  0  0  0
   13.0574  -17.3630   20.5603 O   0  0  0  0  0  0  0  0  0  0  0  0
  1  2  1  0
  3  2  1  0
  4  3  1  0
  5  7  1  0
  5  4  1  0
  5  6  1  1
  7  8  2  0
  9 13  1  0
  9  7  1  0
 10 11  1  0
 10  9  1  0
 11 12  1  0
 12 13  1  0
 13 14  1  1
 14 15  2  0
 16 14  1  0
 17 16  1  0
 17 21  1  0
 17 18  1  1
 19 20  2  0
 19 18  1  0
 21 24  1  0
 22 21  2  0
 23 19  1  0
M  END
$$$$
