MPD.pdb
     RDKit          3D

 24 24  0  0  1  0  0  0  0  0999 V2000
    5.1630  -11.9906   26.9787 C   0  0  0  0  0  0  0  0  0  0  0  0
    6.9069  -12.4944   26.9305 S   0  0  0  0  0  0  0  0  0  0  0  0
    7.0647  -14.2799   26.6741 C   0  0  0  0  0  0  0  0  0  0  0  0
    6.2091  -14.7596   25.5237 C   0  0  0  0  0  0  0  0  0  0  0  0
    6.5314  -16.2227   25.2932 C   0  0  2  0  0  0  0  0  0  0  0  0
    6.9466  -16.7870   26.5308 N   0  0  0  0  0  0  0  0  0  0  0  0
    7.4077  -16.4379   24.1468 C   0  0  0  0  0  0  0  0  0  0  0  0
    7.7798  -17.6516   23.9617 O   0  0  0  0  0  0  0  0  0  0  0  0
    7.8870  -15.4815   23.2313 N   0  0  0  0  0  0  0  0  0  0  0  0
    7.8026  -14.0400   23.1900 C   0  0  0  0  0  0  0  0  0  0  0  0
    7.3881  -13.8172   21.7275 C   0  0  0  0  0  0  0  0  0  0  0  0
    8.3905  -14.7113   21.0279 C   0  0  0  0  0  0  0  0  0  0  0  0
    8.6475  -15.8047   22.0099 C   0  0  1  0  0  0  0  0  0  0  0  0
   10.0578  -16.0667   22.3019 C   0  0  0  0  0  0  0  0  0  0  0  0
   10.6692  -15.2944   23.1021 O   0  0  0  0  0  0  0  0  0  0  0  0
   10.8287  -17.1320   21.7606 N   0  0  0  0  0  0  0  0  0  0  0  0
   12.2324  -17.3216   22.1466 C   0  0  1  0  0  0  0  0  0  0  0  0
   12.3386  -18.6216   22.9113 C   0  0  0  0  0  0  0  0  0  0  0  0
   12.2710  -18.3344   24.3684 C   0  0  0  0  0  0  0  0  0  0  0  0
   12.3417  -17.1774   24.8468 O   0  0  0  0  0  0  0  0  0  0  0  0
   13.1023  -17.3981   20.9561 C   0  0  0  0  0  0  0  0  0  0  0  0
   14.3537  -17.4538   21.0346 O   0  0  0  0  0  0  0  0  0  0  0  0
   12.1206  -19.3773   25.2945 O   0  0  0  0  0  0  0  0  0  0  0  0
   12.5217  -17.4095   19.7078 O   0  0  0  0  0  0  0  0  0  0  0  0
  1  2  1  0
  3  2  1  0
  4  3  1  0
  5  7  1  0
  5  4  1  0
  5  6  1  1
  7  8  2  0
  9 13  1  0
  9  7  1  0
 10 11  1  0
 10  9  1  0
 11 12  1  0
 12 13  1  0
 13 14  1  1
 14 15  2  0
 16 14  1  0
 17 16  1  0
 17 21  1  0
 17 18  1  6
 19 20  2  0
 19 18  1  0
 21 24  1  0
 22 21  2  0
 23 19  1  0
M  END
$$$$
