MPD.pdb
     RDKit          3D

 24 24  0  0  1  0  0  0  0  0999 V2000
    8.2377  -12.3183   27.8341 C   0  0  0  0  0  0  0  0  0  0  0  0
    6.8151  -12.9315   26.8867 S   0  0  0  0  0  0  0  0  0  0  0  0
    7.0482  -14.6607   26.4028 C   0  0  0  0  0  0  0  0  0  0  0  0
    5.9523  -15.1372   25.4770 C   0  0  0  0  0  0  0  0  0  0  0  0
    6.2931  -16.5528   25.0554 C   0  0  2  0  0  0  0  0  0  0  0  0
    6.4932  -17.3304   26.2293 N   0  0  0  0  0  0  0  0  0  0  0  0
    7.3438  -16.6076   24.0449 C   0  0  0  0  0  0  0  0  0  0  0  0
    8.0496  -17.6789   24.0456 O   0  0  0  0  0  0  0  0  0  0  0  0
    7.6701  -15.6344   23.0809 N   0  0  0  0  0  0  0  0  0  0  0  0
    7.1345  -14.3235   22.7955 C   0  0  0  0  0  0  0  0  0  0  0  0
    6.9897  -14.3975   21.2678 C   0  0  0  0  0  0  0  0  0  0  0  0
    8.3515  -14.9474   20.8979 C   0  0  0  0  0  0  0  0  0  0  0  0
    8.7345  -15.7852   22.0714 C   0  0  1  0  0  0  0  0  0  0  0  0
   10.0581  -15.5102   22.6330 C   0  0  0  0  0  0  0  0  0  0  0  0
   10.1360  -14.8869   23.7356 O   0  0  0  0  0  0  0  0  0  0  0  0
   11.2979  -15.8849   22.0458 N   0  0  0  0  0  0  0  0  0  0  0  0
   12.4796  -16.1466   22.8767 C   0  0  1  0  0  0  0  0  0  0  0  0
   12.1335  -17.2474   23.8536 C   0  0  0  0  0  0  0  0  0  0  0  0
   13.2778  -17.4512   24.7805 C   0  0  0  0  0  0  0  0  0  0  0  0
   14.3307  -16.7717   24.7354 O   0  0  0  0  0  0  0  0  0  0  0  0
   13.6205  -16.5867   22.0494 C   0  0  0  0  0  0  0  0  0  0  0  0
   13.5732  -17.6059   21.3184 O   0  0  0  0  0  0  0  0  0  0  0  0
   13.2241  -18.4414   25.7728 O   0  0  0  0  0  0  0  0  0  0  0  0
   14.7848  -15.8525   22.0775 O   0  0  0  0  0  0  0  0  0  0  0  0
  1  2  1  0
  3  2  1  0
  4  3  1  0
  5  7  1  0
  5  4  1  0
  5  6  1  1
  7  8  2  0
  9 13  1  0
  9  7  1  0
 10 11  1  0
 10  9  1  0
 11 12  1  0
 12 13  1  0
 13 14  1  1
 14 15  2  0
 16 14  1  0
 17 16  1  0
 17 21  1  0
 17 18  1  1
 19 20  2  0
 19 18  1  0
 21 24  1  0
 22 21  2  0
 23 19  1  0
M  END
$$$$
