MPD.pdb
     RDKit          3D

 24 24  0  0  1  0  0  0  0  0999 V2000
    7.4639  -12.1182   27.9289 C   0  0  0  0  0  0  0  0  0  0  0  0
    6.3030  -12.9175   26.7839 S   0  0  0  0  0  0  0  0  0  0  0  0
    6.8124  -14.6156   26.4161 C   0  0  0  0  0  0  0  0  0  0  0  0
    5.8936  -15.2722   25.4111 C   0  0  0  0  0  0  0  0  0  0  0  0
    6.4507  -16.6504   25.1142 C   0  0  2  0  0  0  0  0  0  0  0  0
    6.7481  -17.2857   26.3514 N   0  0  0  0  0  0  0  0  0  0  0  0
    7.5126  -16.6309   24.1142 C   0  0  0  0  0  0  0  0  0  0  0  0
    8.2525  -17.6785   24.0800 O   0  0  0  0  0  0  0  0  0  0  0  0
    7.8171  -15.6097   23.1937 N   0  0  0  0  0  0  0  0  0  0  0  0
    7.2834  -14.2822   22.9951 C   0  0  0  0  0  0  0  0  0  0  0  0
    7.0916  -14.2737   21.4708 C   0  0  0  0  0  0  0  0  0  0  0  0
    8.4371  -14.8115   21.0304 C   0  0  0  0  0  0  0  0  0  0  0  0
    8.8491  -15.7131   22.1454 C   0  0  1  0  0  0  0  0  0  0  0  0
   10.1913  -15.4768   22.6797 C   0  0  0  0  0  0  0  0  0  0  0  0
   10.3079  -14.8999   23.8040 O   0  0  0  0  0  0  0  0  0  0  0  0
   11.4092  -15.8417   22.0429 N   0  0  0  0  0  0  0  0  0  0  0  0
   12.6158  -16.1309   22.8276 C   0  0  1  0  0  0  0  0  0  0  0  0
   12.2796  -17.2168   23.8246 C   0  0  0  0  0  0  0  0  0  0  0  0
   13.4623  -17.4632   24.6910 C   0  0  0  0  0  0  0  0  0  0  0  0
   14.5360  -16.8233   24.5899 O   0  0  0  0  0  0  0  0  0  0  0  0
   13.7105  -16.6060   21.9583 C   0  0  0  0  0  0  0  0  0  0  0  0
   14.8130  -16.0123   21.8726 O   0  0  0  0  0  0  0  0  0  0  0  0
   13.4236  -18.4509   25.6864 O   0  0  0  0  0  0  0  0  0  0  0  0
   13.5187  -17.7459   21.2104 O   0  0  0  0  0  0  0  0  0  0  0  0
  1  2  1  0
  3  2  1  0
  4  3  1  0
  5  7  1  0
  5  4  1  0
  5  6  1  1
  7  8  2  0
  9 13  1  0
  9  7  1  0
 10 11  1  0
 10  9  1  0
 11 12  1  0
 12 13  1  0
 13 14  1  1
 14 15  2  0
 16 14  1  0
 17 16  1  0
 17 21  1  0
 17 18  1  1
 19 20  2  0
 19 18  1  0
 21 24  1  0
 22 21  2  0
 23 19  1  0
M  END
$$$$
