MPD.pdb
     RDKit          3D

 24 24  0  0  1  0  0  0  0  0999 V2000
    7.1328  -11.7976   28.1688 C   0  0  0  0  0  0  0  0  0  0  0  0
    5.9885  -11.7550   26.7595 S   0  0  0  0  0  0  0  0  0  0  0  0
    5.6132  -13.4259   26.1715 C   0  0  0  0  0  0  0  0  0  0  0  0
    6.7489  -14.0029   25.3575 C   0  0  0  0  0  0  0  0  0  0  0  0
    6.3320  -15.3898   24.9097 C   0  0  2  0  0  0  0  0  0  0  0  0
    6.0163  -16.1545   26.0664 N   0  0  0  0  0  0  0  0  0  0  0  0
    7.2681  -15.9869   23.9634 C   0  0  0  0  0  0  0  0  0  0  0  0
    7.6761  -17.1651   24.2656 O   0  0  0  0  0  0  0  0  0  0  0  0
    7.7700  -15.4285   22.7722 N   0  0  0  0  0  0  0  0  0  0  0  0
    7.5767  -14.1457   22.1369 C   0  0  0  0  0  0  0  0  0  0  0  0
    7.3132  -14.5788   20.6867 C   0  0  0  0  0  0  0  0  0  0  0  0
    8.4557  -15.5530   20.4883 C   0  0  0  0  0  0  0  0  0  0  0  0
    8.6865  -16.1220   21.8481 C   0  0  1  0  0  0  0  0  0  0  0  0
   10.0712  -16.0759   22.3204 C   0  0  0  0  0  0  0  0  0  0  0  0
   10.5645  -14.9562   22.6569 O   0  0  0  0  0  0  0  0  0  0  0  0
   10.9396  -17.1955   22.4418 N   0  0  0  0  0  0  0  0  0  0  0  0
   12.3373  -17.0267   22.8581 C   0  0  1  0  0  0  0  0  0  0  0  0
   12.5168  -17.7131   24.1932 C   0  0  0  0  0  0  0  0  0  0  0  0
   11.9527  -19.0863   24.1127 C   0  0  0  0  0  0  0  0  0  0  0  0
   11.3549  -19.5276   23.1025 O   0  0  0  0  0  0  0  0  0  0  0  0
   13.2577  -17.6406   21.8805 C   0  0  0  0  0  0  0  0  0  0  0  0
   12.8533  -18.2645   20.8692 O   0  0  0  0  0  0  0  0  0  0  0  0
   12.0703  -19.9701   25.1957 O   0  0  0  0  0  0  0  0  0  0  0  0
   14.6148  -17.5262   22.0820 O   0  0  0  0  0  0  0  0  0  0  0  0
  1  2  1  0
  3  2  1  0
  4  3  1  0
  5  7  1  0
  5  4  1  0
  5  6  1  1
  7  8  2  0
  9 13  1  0
  9  7  1  0
 10 11  1  0
 10  9  1  0
 11 12  1  0
 12 13  1  0
 13 14  1  1
 14 15  2  0
 16 14  1  0
 17 16  1  0
 17 21  1  0
 17 18  1  1
 19 20  2  0
 19 18  1  0
 21 24  1  0
 22 21  2  0
 23 19  1  0
M  END
$$$$
