MPD.pdb
     RDKit          3D

 24 24  0  0  1  0  0  0  0  0999 V2000
    7.7339  -11.3339   26.5381 C   0  0  0  0  0  0  0  0  0  0  0  0
    6.3336  -12.1365   27.3704 S   0  0  0  0  0  0  0  0  0  0  0  0
    5.8474  -13.6557   26.5137 C   0  0  0  0  0  0  0  0  0  0  0  0
    7.0451  -14.4034   25.9734 C   0  0  0  0  0  0  0  0  0  0  0  0
    6.5301  -15.6393   25.2625 C   0  0  2  0  0  0  0  0  0  0  0  0
    6.1960  -16.6110   26.2457 N   0  0  0  0  0  0  0  0  0  0  0  0
    7.4023  -16.0760   24.1777 C   0  0  0  0  0  0  0  0  0  0  0  0
    7.8444  -17.2760   24.2792 O   0  0  0  0  0  0  0  0  0  0  0  0
    7.8108  -15.3437   23.0465 N   0  0  0  0  0  0  0  0  0  0  0  0
    7.4406  -14.0433   22.5382 C   0  0  0  0  0  0  0  0  0  0  0  0
    7.2195  -14.3666   21.0526 C   0  0  0  0  0  0  0  0  0  0  0  0
    8.4791  -15.1556   20.7618 C   0  0  0  0  0  0  0  0  0  0  0  0
    8.8002  -15.8164   22.0604 C   0  0  1  0  0  0  0  0  0  0  0  0
   10.1721  -15.6311   22.5360 C   0  0  0  0  0  0  0  0  0  0  0  0
   10.3645  -14.9703   23.6023 O   0  0  0  0  0  0  0  0  0  0  0  0
   11.3409  -16.1340   21.9011 N   0  0  0  0  0  0  0  0  0  0  0  0
   12.5798  -16.3493   22.6588 C   0  0  1  0  0  0  0  0  0  0  0  0
   12.3103  -17.3992   23.7129 C   0  0  0  0  0  0  0  0  0  0  0  0
   13.5551  -17.6376   24.4898 C   0  0  0  0  0  0  0  0  0  0  0  0
   14.6352  -17.0431   24.2604 O   0  0  0  0  0  0  0  0  0  0  0  0
   13.6624  -16.8285   21.7766 C   0  0  0  0  0  0  0  0  0  0  0  0
   14.6670  -16.1298   21.4972 O   0  0  0  0  0  0  0  0  0  0  0  0
   13.5722  -18.5648   25.5424 O   0  0  0  0  0  0  0  0  0  0  0  0
   13.5706  -18.0917   21.2370 O   0  0  0  0  0  0  0  0  0  0  0  0
  1  2  1  0
  3  2  1  0
  4  3  1  0
  5  7  1  0
  5  4  1  0
  5  6  1  1
  7  8  2  0
  9 13  1  0
  9  7  1  0
 10 11  1  0
 10  9  1  0
 11 12  1  0
 12 13  1  0
 13 14  1  1
 14 15  2  0
 16 14  1  0
 17 16  1  0
 17 21  1  0
 17 18  1  1
 19 20  2  0
 19 18  1  0
 21 24  1  0
 22 21  2  0
 23 19  1  0
M  END
$$$$
