MPD.pdb
     RDKit          3D

 24 24  0  0  1  0  0  0  0  0999 V2000
    8.4618  -19.9088   15.5230 C   0  0  0  0  0  0  0  0  0  0  0  0
    7.0043  -19.0645   14.8445 S   0  0  0  0  0  0  0  0  0  0  0  0
    7.2649  -17.2745   14.7627 C   0  0  0  0  0  0  0  0  0  0  0  0
    8.2257  -16.7978   15.8280 C   0  0  0  0  0  0  0  0  0  0  0  0
    8.4130  -15.3054   15.6402 C   0  0  2  0  0  0  0  0  0  0  0  0
    8.8802  -15.0790   14.3162 N   0  0  0  0  0  0  0  0  0  0  0  0
    9.1753  -14.6878   16.7199 C   0  0  0  0  0  0  0  0  0  0  0  0
   10.4097  -14.4574   16.4571 O   0  0  0  0  0  0  0  0  0  0  0  0
    8.7207  -14.3197   18.0007 N   0  0  0  0  0  0  0  0  0  0  0  0
    7.4338  -14.4243   18.6483 C   0  0  0  0  0  0  0  0  0  0  0  0
    7.3004  -13.0186   19.2536 C   0  0  0  0  0  0  0  0  0  0  0  0
    8.6611  -12.8789   19.9039 C   0  0  0  0  0  0  0  0  0  0  0  0
    9.5626  -13.6899   19.0348 C   0  0  1  0  0  0  0  0  0  0  0  0
   10.3901  -14.6739   19.7347 C   0  0  0  0  0  0  0  0  0  0  0  0
    9.9686  -15.8668   19.8325 O   0  0  0  0  0  0  0  0  0  0  0  0
   11.6546  -14.4142   20.3311 N   0  0  0  0  0  0  0  0  0  0  0  0
   12.3895  -15.4715   21.0362 C   0  0  1  0  0  0  0  0  0  0  0  0
   13.8595  -15.1183   21.0135 C   0  0  0  0  0  0  0  0  0  0  0  0
   14.3295  -15.0880   19.6034 C   0  0  0  0  0  0  0  0  0  0  0  0
   13.9990  -15.9436   18.7482 O   0  0  0  0  0  0  0  0  0  0  0  0
   11.9474  -15.5759   22.4411 C   0  0  0  0  0  0  0  0  0  0  0  0
   11.1660  -14.7470   22.9681 O   0  0  0  0  0  0  0  0  0  0  0  0
   15.1871  -14.0706   19.1593 O   0  0  0  0  0  0  0  0  0  0  0  0
   12.4081  -16.6229   23.2072 O   0  0  0  0  0  0  0  0  0  0  0  0
  1  2  1  0
  3  2  1  0
  4  3  1  0
  5  7  1  0
  5  4  1  0
  5  6  1  6
  7  8  2  0
  9 13  1  0
  9  7  1  0
 10 11  1  0
 10  9  1  0
 11 12  1  0
 12 13  1  0
 13 14  1  1
 14 15  2  0
 16 14  1  0
 17 16  1  0
 17 21  1  0
 17 18  1  1
 19 20  2  0
 19 18  1  0
 21 24  1  0
 22 21  2  0
 23 19  1  0
M  END
$$$$
