MPD.pdb
     RDKit          3D

 24 24  0  0  1  0  0  0  0  0999 V2000
    7.1736  -11.4324   26.6968 C   0  0  0  0  0  0  0  0  0  0  0  0
    7.3293  -13.1645   27.2194 S   0  0  0  0  0  0  0  0  0  0  0  0
    7.0006  -14.2946   25.8433 C   0  0  0  0  0  0  0  0  0  0  0  0
    6.6966  -15.6943   26.3268 C   0  0  0  0  0  0  0  0  0  0  0  0
    6.3947  -16.5435   25.1080 C   0  0  2  0  0  0  0  0  0  0  0  0
    5.9314  -17.8121   25.5536 N   0  0  0  0  0  0  0  0  0  0  0  0
    7.4808  -16.5464   24.1340 C   0  0  0  0  0  0  0  0  0  0  0  0
    8.2867  -17.5414   24.2147 O   0  0  0  0  0  0  0  0  0  0  0  0
    7.7450  -15.5969   23.1283 N   0  0  0  0  0  0  0  0  0  0  0  0
    7.1399  -14.3270   22.8001 C   0  0  0  0  0  0  0  0  0  0  0  0
    6.9798  -14.4685   21.2787 C   0  0  0  0  0  0  0  0  0  0  0  0
    8.3630  -14.9633   20.9106 C   0  0  0  0  0  0  0  0  0  0  0  0
    8.8029  -15.7337   22.1101 C   0  0  1  0  0  0  0  0  0  0  0  0
   10.1178  -15.3706   22.6412 C   0  0  0  0  0  0  0  0  0  0  0  0
   10.1771  -14.6522   23.6856 O   0  0  0  0  0  0  0  0  0  0  0  0
   11.3681  -15.7560   22.0842 N   0  0  0  0  0  0  0  0  0  0  0  0
   12.5214  -16.0475   22.9446 C   0  0  1  0  0  0  0  0  0  0  0  0
   12.1449  -17.1847   23.8671 C   0  0  0  0  0  0  0  0  0  0  0  0
   13.3167  -17.5311   24.7138 C   0  0  0  0  0  0  0  0  0  0  0  0
   14.4406  -16.9888   24.5903 O   0  0  0  0  0  0  0  0  0  0  0  0
   13.6909  -16.4549   22.1408 C   0  0  0  0  0  0  0  0  0  0  0  0
   13.6729  -17.4496   21.3754 O   0  0  0  0  0  0  0  0  0  0  0  0
   13.2091  -18.5076   25.7152 O   0  0  0  0  0  0  0  0  0  0  0  0
   14.8496  -15.7169   22.2310 O   0  0  0  0  0  0  0  0  0  0  0  0
  1  2  1  0
  3  2  1  0
  4  3  1  0
  5  7  1  0
  5  4  1  0
  5  6  1  1
  7  8  2  0
  9 13  1  0
  9  7  1  0
 10 11  1  0
 10  9  1  0
 11 12  1  0
 12 13  1  0
 13 14  1  1
 14 15  2  0
 16 14  1  0
 17 16  1  0
 17 21  1  0
 17 18  1  1
 19 20  2  0
 19 18  1  0
 21 24  1  0
 22 21  2  0
 23 19  1  0
M  END
$$$$
