MPD.pdb
     RDKit          3D

 24 24  0  0  1  0  0  0  0  0999 V2000
    6.2602  -11.0500   27.9266 C   0  0  0  0  0  0  0  0  0  0  0  0
    7.4470  -12.1857   27.1525 S   0  0  0  0  0  0  0  0  0  0  0  0
    6.5996  -13.5734   26.3558 C   0  0  0  0  0  0  0  0  0  0  0  0
    7.5577  -14.4405   25.5712 C   0  0  0  0  0  0  0  0  0  0  0  0
    6.7544  -15.5701   24.9576 C   0  0  2  0  0  0  0  0  0  0  0  0
    6.3304  -16.4341   26.0047 N   0  0  0  0  0  0  0  0  0  0  0  0
    7.4263  -16.1943   23.8230 C   0  0  0  0  0  0  0  0  0  0  0  0
    7.6706  -17.4471   23.9522 O   0  0  0  0  0  0  0  0  0  0  0  0
    7.8330  -15.5903   22.6178 N   0  0  0  0  0  0  0  0  0  0  0  0
    7.6925  -14.2487   22.1010 C   0  0  0  0  0  0  0  0  0  0  0  0
    7.2132  -14.5394   20.6706 C   0  0  0  0  0  0  0  0  0  0  0  0
    8.2206  -15.5938   20.2617 C   0  0  0  0  0  0  0  0  0  0  0  0
    8.5570  -16.2877   21.5388 C   0  0  1  0  0  0  0  0  0  0  0  0
    9.9865  -16.4045   21.8315 C   0  0  0  0  0  0  0  0  0  0  0  0
   10.5178  -15.5672   22.6233 O   0  0  0  0  0  0  0  0  0  0  0  0
   10.8598  -17.3926   21.2997 N   0  0  0  0  0  0  0  0  0  0  0  0
   12.2472  -17.5057   21.7663 C   0  0  1  0  0  0  0  0  0  0  0  0
   12.2863  -18.5238   22.8835 C   0  0  0  0  0  0  0  0  0  0  0  0
   12.4037  -17.8130   24.1839 C   0  0  0  0  0  0  0  0  0  0  0  0
   12.4926  -16.5661   24.2822 O   0  0  0  0  0  0  0  0  0  0  0  0
   13.1356  -17.9599   20.6781 C   0  0  0  0  0  0  0  0  0  0  0  0
   12.7036  -18.5179   19.6400 O   0  0  0  0  0  0  0  0  0  0  0  0
   12.4199  -18.5301   25.3895 O   0  0  0  0  0  0  0  0  0  0  0  0
   14.4928  -17.7651   20.8025 O   0  0  0  0  0  0  0  0  0  0  0  0
  1  2  1  0
  3  2  1  0
  4  3  1  0
  5  7  1  0
  5  4  1  0
  5  6  1  1
  7  8  2  0
  9 13  1  0
  9  7  1  0
 10 11  1  0
 10  9  1  0
 11 12  1  0
 12 13  1  0
 13 14  1  1
 14 15  2  0
 16 14  1  0
 17 16  1  0
 17 21  1  0
 17 18  1  1
 19 20  2  0
 19 18  1  0
 21 24  1  0
 22 21  2  0
 23 19  1  0
M  END
$$$$
