MPD.pdb
     RDKit          3D

 24 24  0  0  1  0  0  0  0  0999 V2000
    6.9363  -10.9877   26.4077 C   0  0  0  0  0  0  0  0  0  0  0  0
    6.8450  -12.3671   27.5852 S   0  0  0  0  0  0  0  0  0  0  0  0
    6.2923  -13.8866   26.7703 C   0  0  0  0  0  0  0  0  0  0  0  0
    7.3603  -14.4593   25.8665 C   0  0  0  0  0  0  0  0  0  0  0  0
    6.7635  -15.6579   25.1559 C   0  0  2  0  0  0  0  0  0  0  0  0
    6.4513  -16.6437   26.1322 N   0  0  0  0  0  0  0  0  0  0  0  0
    7.5579  -16.0946   24.0128 C   0  0  0  0  0  0  0  0  0  0  0  0
    8.0185  -17.2895   24.0899 O   0  0  0  0  0  0  0  0  0  0  0  0
    7.8745  -15.3673   22.8494 N   0  0  0  0  0  0  0  0  0  0  0  0
    7.4812  -14.0601   22.3769 C   0  0  0  0  0  0  0  0  0  0  0  0
    7.1214  -14.3773   20.9173 C   0  0  0  0  0  0  0  0  0  0  0  0
    8.3364  -15.1863   20.5137 C   0  0  0  0  0  0  0  0  0  0  0  0
    8.7627  -15.8544   21.7777 C   0  0  1  0  0  0  0  0  0  0  0  0
   10.1749  -15.6924   22.1274 C   0  0  0  0  0  0  0  0  0  0  0  0
   10.4859  -14.8771   23.0488 O   0  0  0  0  0  0  0  0  0  0  0  0
   11.2603  -16.3794   21.5176 N   0  0  0  0  0  0  0  0  0  0  0  0
   12.5307  -16.5687   22.2287 C   0  0  1  0  0  0  0  0  0  0  0  0
   12.2366  -17.2583   23.5418 C   0  0  0  0  0  0  0  0  0  0  0  0
   13.5155  -17.4995   24.2603 C   0  0  0  0  0  0  0  0  0  0  0  0
   14.3906  -16.6166   24.4252 O   0  0  0  0  0  0  0  0  0  0  0  0
   13.4544  -17.4127   21.4451 C   0  0  0  0  0  0  0  0  0  0  0  0
   14.6009  -17.0288   21.1078 O   0  0  0  0  0  0  0  0  0  0  0  0
   13.8034  -18.7623   24.7992 O   0  0  0  0  0  0  0  0  0  0  0  0
   13.0463  -18.6722   21.0674 O   0  0  0  0  0  0  0  0  0  0  0  0
  1  2  1  0
  3  2  1  0
  4  3  1  0
  5  7  1  0
  5  4  1  0
  5  6  1  1
  7  8  2  0
  9 13  1  0
  9  7  1  0
 10 11  1  0
 10  9  1  0
 11 12  1  0
 12 13  1  0
 13 14  1  1
 14 15  2  0
 16 14  1  0
 17 16  1  0
 17 21  1  0
 17 18  1  1
 19 20  2  0
 19 18  1  0
 21 24  1  0
 22 21  2  0
 23 19  1  0
M  END
$$$$
