MPD.pdb
     RDKit          3D

 24 24  0  0  1  0  0  0  0  0999 V2000
    7.6651  -11.8080   27.3223 C   0  0  0  0  0  0  0  0  0  0  0  0
    6.0827  -12.1627   26.5050 S   0  0  0  0  0  0  0  0  0  0  0  0
    5.7853  -13.9458   26.4024 C   0  0  0  0  0  0  0  0  0  0  0  0
    7.0395  -14.7037   26.0310 C   0  0  0  0  0  0  0  0  0  0  0  0
    6.6168  -15.9341   25.2531 C   0  0  2  0  0  0  0  0  0  0  0  0
    6.3983  -16.9919   26.1783 N   0  0  0  0  0  0  0  0  0  0  0  0
    7.4935  -16.2211   24.1229 C   0  0  0  0  0  0  0  0  0  0  0  0
    8.0873  -17.3576   24.1647 O   0  0  0  0  0  0  0  0  0  0  0  0
    7.7612  -15.4069   23.0057 N   0  0  0  0  0  0  0  0  0  0  0  0
    7.2918  -14.0976   22.6158 C   0  0  0  0  0  0  0  0  0  0  0  0
    6.9412  -14.3445   21.1405 C   0  0  0  0  0  0  0  0  0  0  0  0
    8.1973  -15.0571   20.6842 C   0  0  0  0  0  0  0  0  0  0  0  0
    8.6686  -15.7763   21.9035 C   0  0  1  0  0  0  0  0  0  0  0  0
   10.0716  -15.5562   22.2584 C   0  0  0  0  0  0  0  0  0  0  0  0
   10.3528  -14.6528   23.1041 O   0  0  0  0  0  0  0  0  0  0  0  0
   11.1788  -16.2770   21.7326 N   0  0  0  0  0  0  0  0  0  0  0  0
   12.3336  -16.6100   22.5758 C   0  0  1  0  0  0  0  0  0  0  0  0
   11.8294  -17.3542   23.7915 C   0  0  0  0  0  0  0  0  0  0  0  0
   12.9881  -17.7409   24.6389 C   0  0  0  0  0  0  0  0  0  0  0  0
   14.1700  -17.4093   24.3831 O   0  0  0  0  0  0  0  0  0  0  0  0
   13.2859  -17.4743   21.8506 C   0  0  0  0  0  0  0  0  0  0  0  0
   12.9407  -18.5468   21.2975 O   0  0  0  0  0  0  0  0  0  0  0  0
   12.8002  -18.5155   25.7933 O   0  0  0  0  0  0  0  0  0  0  0  0
   14.6064  -17.0921   21.7752 O   0  0  0  0  0  0  0  0  0  0  0  0
  1  2  1  0
  3  2  1  0
  4  3  1  0
  5  7  1  0
  5  4  1  0
  5  6  1  1
  7  8  2  0
  9 13  1  0
  9  7  1  0
 10 11  1  0
 10  9  1  0
 11 12  1  0
 12 13  1  0
 13 14  1  1
 14 15  2  0
 16 14  1  0
 17 16  1  0
 17 21  1  0
 17 18  1  1
 19 20  2  0
 19 18  1  0
 21 24  1  0
 22 21  2  0
 23 19  1  0
M  END
$$$$
