MPD.pdb
     RDKit          3D

 24 24  0  0  1  0  0  0  0  0999 V2000
    6.6181  -11.8794   26.2405 C   0  0  0  0  0  0  0  0  0  0  0  0
    7.5177  -13.0281   27.3216 S   0  0  0  0  0  0  0  0  0  0  0  0
    7.7750  -14.6253   26.5085 C   0  0  0  0  0  0  0  0  0  0  0  0
    6.5088  -15.1346   25.8581 C   0  0  0  0  0  0  0  0  0  0  0  0
    6.7706  -16.5550   25.3979 C   0  0  2  0  0  0  0  0  0  0  0  0
    7.1926  -17.3163   26.5226 N   0  0  0  0  0  0  0  0  0  0  0  0
    7.6115  -16.6210   24.2076 C   0  0  0  0  0  0  0  0  0  0  0  0
    8.3053  -17.6931   24.0855 O   0  0  0  0  0  0  0  0  0  0  0  0
    7.7493  -15.6576   23.1898 N   0  0  0  0  0  0  0  0  0  0  0  0
    7.1292  -14.3714   22.9713 C   0  0  0  0  0  0  0  0  0  0  0  0
    6.7521  -14.4817   21.4861 C   0  0  0  0  0  0  0  0  0  0  0  0
    8.0590  -14.9937   20.9172 C   0  0  0  0  0  0  0  0  0  0  0  0
    8.6492  -15.7939   22.0295 C   0  0  1  0  0  0  0  0  0  0  0  0
   10.0330  -15.4637   22.3741 C   0  0  0  0  0  0  0  0  0  0  0  0
   10.2481  -14.6475   23.3217 O   0  0  0  0  0  0  0  0  0  0  0  0
   11.1901  -15.9840   21.7317 N   0  0  0  0  0  0  0  0  0  0  0  0
   12.3490  -16.4361   22.5115 C   0  0  1  0  0  0  0  0  0  0  0  0
   11.9013  -17.5711   23.4045 C   0  0  0  0  0  0  0  0  0  0  0  0
   13.0476  -18.0097   24.2434 C   0  0  0  0  0  0  0  0  0  0  0  0
   14.2233  -18.0924   23.8149 O   0  0  0  0  0  0  0  0  0  0  0  0
   13.4244  -16.9243   21.6255 C   0  0  0  0  0  0  0  0  0  0  0  0
   13.2763  -17.9078   20.8598 O   0  0  0  0  0  0  0  0  0  0  0  0
   12.8546  -18.3589   25.5883 O   0  0  0  0  0  0  0  0  0  0  0  0
   14.6397  -16.2775   21.6360 O   0  0  0  0  0  0  0  0  0  0  0  0
  1  2  1  0
  3  2  1  0
  4  3  1  0
  5  7  1  0
  5  4  1  0
  5  6  1  1
  7  8  2  0
  9 13  1  0
  9  7  1  0
 10 11  1  0
 10  9  1  0
 11 12  1  0
 12 13  1  0
 13 14  1  1
 14 15  2  0
 16 14  1  0
 17 16  1  0
 17 21  1  0
 17 18  1  1
 19 20  2  0
 19 18  1  0
 21 24  1  0
 22 21  2  0
 23 19  1  0
M  END
$$$$
