MPD.pdb
     RDKit          3D

 24 24  0  0  1  0  0  0  0  0999 V2000
    7.6464  -11.1668   26.5577 C   0  0  0  0  0  0  0  0  0  0  0  0
    7.0155  -12.4000   27.7319 S   0  0  0  0  0  0  0  0  0  0  0  0
    6.3199  -13.8304   26.8668 C   0  0  0  0  0  0  0  0  0  0  0  0
    7.3364  -14.4876   25.9611 C   0  0  0  0  0  0  0  0  0  0  0  0
    6.6494  -15.6479   25.2685 C   0  0  2  0  0  0  0  0  0  0  0  0
    6.2555  -16.5877   26.2606 N   0  0  0  0  0  0  0  0  0  0  0  0
    7.4116  -16.1671   24.1382 C   0  0  0  0  0  0  0  0  0  0  0  0
    7.6679  -17.4235   24.1809 O   0  0  0  0  0  0  0  0  0  0  0  0
    7.8930  -15.4597   23.0199 N   0  0  0  0  0  0  0  0  0  0  0  0
    7.7983  -14.0733   22.6257 C   0  0  0  0  0  0  0  0  0  0  0  0
    7.3969  -14.2198   21.1500 C   0  0  0  0  0  0  0  0  0  0  0  0
    8.4128  -15.2485   20.6989 C   0  0  0  0  0  0  0  0  0  0  0  0
    8.6680  -16.0652   21.9211 C   0  0  1  0  0  0  0  0  0  0  0  0
   10.0772  -16.2341   22.2795 C   0  0  0  0  0  0  0  0  0  0  0  0
   10.6651  -15.2977   22.9024 O   0  0  0  0  0  0  0  0  0  0  0  0
   10.8715  -17.3773   21.9892 N   0  0  0  0  0  0  0  0  0  0  0  0
   12.2602  -17.4717   22.4561 C   0  0  1  0  0  0  0  0  0  0  0  0
   12.4938  -18.8793   22.9561 C   0  0  0  0  0  0  0  0  0  0  0  0
   12.2827  -18.9130   24.4273 C   0  0  0  0  0  0  0  0  0  0  0  0
   12.0615  -17.8884   25.1155 O   0  0  0  0  0  0  0  0  0  0  0  0
   13.2072  -17.1940   21.3580 C   0  0  0  0  0  0  0  0  0  0  0  0
   12.8591  -17.1767   20.1522 O   0  0  0  0  0  0  0  0  0  0  0  0
   12.3235  -20.1289   25.1258 O   0  0  0  0  0  0  0  0  0  0  0  0
   14.5257  -16.9431   21.6643 O   0  0  0  0  0  0  0  0  0  0  0  0
  1  2  1  0
  3  2  1  0
  4  3  1  0
  5  7  1  0
  5  4  1  0
  5  6  1  1
  7  8  2  0
  9 13  1  0
  9  7  1  0
 10 11  1  0
 10  9  1  0
 11 12  1  0
 12 13  1  0
 13 14  1  1
 14 15  2  0
 16 14  1  0
 17 16  1  0
 17 21  1  0
 17 18  1  6
 19 20  2  0
 19 18  1  0
 21 24  1  0
 22 21  2  0
 23 19  1  0
M  END
$$$$
