IHQ.pdb
     RDKit          3D

 28 28  0  0  1  0  0  0  0  0999 V2000
   22.4809  -16.1369  -18.1808 C   0  0  0  0  0  0  0  0  0  0  0  0
   23.6321  -17.0329  -17.7752 C   0  0  0  0  0  0  0  0  0  0  0  0
   23.0772  -18.3746  -17.3648 C   0  0  2  0  0  0  0  0  0  0  0  0
   22.1974  -18.2261  -16.1423 C   0  0  0  0  0  0  0  0  0  0  0  0
   24.1560  -19.3685  -17.0327 C   0  0  2  0  0  0  0  0  0  0  0  0
   25.0979  -19.5534  -18.0878 N   0  0  0  0  0  0  0  0  0  0  0  0
   23.5990  -20.6860  -16.6150 C   0  0  0  0  0  0  0  0  0  0  0  0
   22.9674  -21.4050  -17.4505 O   0  0  0  0  0  0  0  0  0  0  0  0
   23.7430  -21.1857  -15.3037 N   0  0  0  0  0  0  0  0  0  0  0  0
   23.1059  -22.3882  -14.8187 C   0  0  1  0  0  0  0  0  0  0  0  0
   24.0965  -23.3346  -14.1890 C   0  0  0  0  0  0  0  0  0  0  0  0
   25.0267  -23.9491  -15.1591 C   0  0  0  0  0  0  0  0  0  0  0  0
   24.9444  -23.7862  -16.5252 C   0  0  0  0  0  0  0  0  0  0  0  0
   25.9472  -24.4912  -17.0845 N   0  0  0  0  0  0  0  0  0  0  0  0
   26.6547  -25.0906  -16.1101 C   0  0  0  0  0  0  0  0  0  0  0  0
   26.0664  -24.7397  -14.9394 N   0  0  0  0  0  0  0  0  0  0  0  0
   21.9729  -22.0556  -13.9503 C   0  0  0  0  0  0  0  0  0  0  0  0
   21.9194  -21.0499  -13.2060 O   0  0  0  0  0  0  0  0  0  0  0  0
   17.9572  -19.1939  -15.4816 N   0  0  0  0  0  0  0  0  0  0  0  0
   17.1731  -19.7385  -14.3982 C   0  0  0  0  0  0  0  0  0  0  0  0
   16.0651  -19.1993  -14.2237 O   0  0  0  0  0  0  0  0  0  0  0  0
   17.6934  -20.8602  -13.5791 C   0  0  0  0  0  0  0  0  0  0  0  0
   19.0480  -21.3179  -14.0095 C   0  0  0  0  0  0  0  0  0  0  0  0
   19.5951  -22.4983  -13.2754 C   0  0  2  0  0  0  0  0  0  0  0  0
   20.8422  -22.9145  -13.9299 N   0  0  0  0  0  0  0  0  0  0  0  0
   18.6279  -23.6134  -13.3047 C   0  0  0  0  0  0  0  0  0  0  0  0
   17.7627  -23.7592  -12.2123 O   0  0  0  0  0  0  0  0  0  0  0  0
   18.5321  -24.4331  -14.2388 O   0  0  0  0  0  0  0  0  0  0  0  0
  1  2  1  0
  3  2  1  0
  3  4  1  1
  5  3  1  0
  5  6  1  6
  7  5  1  0
  8  7  2  0
  9  7  1  0
 10  9  1  0
 10 11  1  1
 11 12  1  0
 12 13  2  0
 12 16  1  0
 13 14  1  0
 14 15  1  0
 16 15  2  0
 17 18  2  0
 17 10  1  0
 20 19  1  0
 21 20  2  0
 22 20  1  0
 24 23  1  6
 23 22  1  0
 24 25  1  0
 25 17  1  0
 26 24  1  0
 27 26  1  0
 28 26  2  0
M  END
$$$$
