IHQ.pdb
     RDKit          3D

 28 28  0  0  1  0  0  0  0  0999 V2000
   22.6478  -18.0509  -15.0731 C   0  0  0  0  0  0  0  0  0  0  0  0
   21.3872  -17.6077  -15.7853 C   0  0  0  0  0  0  0  0  0  0  0  0
   21.4527  -16.1152  -15.9970 C   0  0  2  0  0  0  0  0  0  0  0  0
   21.4761  -15.3976  -14.6647 C   0  0  0  0  0  0  0  0  0  0  0  0
   20.2787  -15.5908  -16.7773 C   0  0  2  0  0  0  0  0  0  0  0  0
   20.1164  -16.2220  -18.0460 N   0  0  0  0  0  0  0  0  0  0  0  0
   20.3334  -14.1118  -16.9513 C   0  0  0  0  0  0  0  0  0  0  0  0
   21.2371  -13.5879  -17.6743 O   0  0  0  0  0  0  0  0  0  0  0  0
   19.4067  -13.2439  -16.3363 N   0  0  0  0  0  0  0  0  0  0  0  0
   19.4577  -11.8032  -16.4306 C   0  0  1  0  0  0  0  0  0  0  0  0
   18.1096  -11.1753  -16.1824 C   0  0  0  0  0  0  0  0  0  0  0  0
   18.1025   -9.7064  -16.3433 C   0  0  0  0  0  0  0  0  0  0  0  0
   18.4898   -9.0483  -17.4906 C   0  0  0  0  0  0  0  0  0  0  0  0
   18.3564   -7.7256  -17.2710 N   0  0  0  0  0  0  0  0  0  0  0  0
   17.8974   -7.5357  -16.0209 C   0  0  0  0  0  0  0  0  0  0  0  0
   17.7511   -8.7691  -15.4759 N   0  0  0  0  0  0  0  0  0  0  0  0
   20.5238  -11.2696  -15.5777 C   0  0  0  0  0  0  0  0  0  0  0  0
   20.7699  -11.6665  -14.4158 O   0  0  0  0  0  0  0  0  0  0  0  0
   26.0766  -11.5026  -16.9094 N   0  0  0  0  0  0  0  0  0  0  0  0
   26.2016  -10.6665  -15.7386 C   0  0  0  0  0  0  0  0  0  0  0  0
   27.3581  -10.5470  -15.2947 O   0  0  0  0  0  0  0  0  0  0  0  0
   25.0082  -10.0180  -15.1430 C   0  0  0  0  0  0  0  0  0  0  0  0
   23.7412  -10.3608  -15.8550 C   0  0  0  0  0  0  0  0  0  0  0  0
   22.4994   -9.7452  -15.2976 C   0  0  2  0  0  0  0  0  0  0  0  0
   21.3520  -10.2293  -16.0760 N   0  0  0  0  0  0  0  0  0  0  0  0
   22.5711   -8.2734  -15.3897 C   0  0  0  0  0  0  0  0  0  0  0  0
   22.3843   -7.6857  -16.6478 O   0  0  0  0  0  0  0  0  0  0  0  0
   22.7871   -7.5207  -14.4200 O   0  0  0  0  0  0  0  0  0  0  0  0
  1  2  1  0
  3  2  1  0
  3  4  1  1
  5  3  1  0
  5  6  1  6
  7  5  1  0
  8  7  2  0
  9  7  1  0
 10  9  1  0
 10 11  1  1
 11 12  1  0
 12 13  2  0
 12 16  1  0
 13 14  1  0
 14 15  1  0
 16 15  2  0
 17 18  2  0
 17 10  1  0
 20 19  1  0
 21 20  2  0
 22 20  1  0
 24 23  1  6
 23 22  1  0
 24 25  1  0
 25 17  1  0
 26 24  1  0
 27 26  1  0
 28 26  2  0
M  END
$$$$
