IHQ.pdb
     RDKit          3D

 28 28  0  0  1  0  0  0  0  0999 V2000
   25.4235  -18.8825  -22.9362 C   0  0  0  0  0  0  0  0  0  0  0  0
   26.1312  -18.8660  -21.5976 C   0  0  0  0  0  0  0  0  0  0  0  0
   25.8053  -17.5705  -20.8961 C   0  0  2  0  0  0  0  0  0  0  0  0
   26.3368  -16.3967  -21.6899 C   0  0  0  0  0  0  0  0  0  0  0  0
   26.4000  -17.4955  -19.5167 C   0  0  2  0  0  0  0  0  0  0  0  0
   25.9882  -18.5630  -18.6652 N   0  0  0  0  0  0  0  0  0  0  0  0
   26.1278  -16.1877  -18.8563 C   0  0  0  0  0  0  0  0  0  0  0  0
   24.9407  -15.8722  -18.5317 O   0  0  0  0  0  0  0  0  0  0  0  0
   27.1504  -15.2600  -18.5670 N   0  0  0  0  0  0  0  0  0  0  0  0
   26.9158  -13.9084  -18.1139 C   0  0  1  0  0  0  0  0  0  0  0  0
   28.0988  -13.3544  -17.3608 C   0  0  0  0  0  0  0  0  0  0  0  0
   27.9032  -11.9677  -16.8892 C   0  0  0  0  0  0  0  0  0  0  0  0
   26.7965  -11.1980  -17.1760 C   0  0  0  0  0  0  0  0  0  0  0  0
   26.9665   -9.9978  -16.5875 N   0  0  0  0  0  0  0  0  0  0  0  0
   28.1462   -9.9928  -15.9412 C   0  0  0  0  0  0  0  0  0  0  0  0
   28.6985  -11.2149  -16.1441 N   0  0  0  0  0  0  0  0  0  0  0  0
   26.4753  -13.0621  -19.2268 C   0  0  0  0  0  0  0  0  0  0  0  0
   27.0528  -12.9889  -20.3355 O   0  0  0  0  0  0  0  0  0  0  0  0
   22.3072  -13.1456  -22.6986 N   0  0  0  0  0  0  0  0  0  0  0  0
   22.2506  -11.7027  -22.7057 C   0  0  0  0  0  0  0  0  0  0  0  0
   21.6715  -11.2005  -23.6861 O   0  0  0  0  0  0  0  0  0  0  0  0
   22.8544  -10.9180  -21.6014 C   0  0  0  0  0  0  0  0  0  0  0  0
   23.4971  -11.7742  -20.5604 C   0  0  0  0  0  0  0  0  0  0  0  0
   24.8701  -11.3614  -20.1410 C   0  0  2  0  0  0  0  0  0  0  0  0
   25.3162  -12.2577  -19.0666 N   0  0  0  0  0  0  0  0  0  0  0  0
   24.8587   -9.9697  -19.6482 C   0  0  0  0  0  0  0  0  0  0  0  0
   24.9314   -8.9389  -20.5945 O   0  0  0  0  0  0  0  0  0  0  0  0
   24.7886   -9.6534  -18.4446 O   0  0  0  0  0  0  0  0  0  0  0  0
  1  2  1  0
  3  2  1  0
  3  4  1  6
  5  3  1  0
  5  6  1  1
  7  5  1  0
  8  7  2  0
  9  7  1  0
 10  9  1  0
 10 11  1  6
 11 12  1  0
 12 13  2  0
 12 16  1  0
 13 14  1  0
 14 15  1  0
 16 15  2  0
 17 18  2  0
 17 10  1  0
 20 19  1  0
 21 20  2  0
 22 20  1  0
 24 23  1  1
 23 22  1  0
 24 25  1  0
 25 17  1  0
 26 24  1  0
 27 26  1  0
 28 26  2  0
M  END
$$$$
