IHQ.pdb
     RDKit          3D

 28 28  0  0  1  0  0  0  0  0999 V2000
   27.4676  -19.2191   -3.9254 C   0  0  0  0  0  0  0  0  0  0  0  0
   27.9110  -20.3880   -4.7797 C   0  0  0  0  0  0  0  0  0  0  0  0
   27.8167  -19.9872   -6.2313 C   0  0  2  0  0  0  0  0  0  0  0  0
   28.3541  -18.5856   -6.4238 C   0  0  0  0  0  0  0  0  0  0  0  0
   26.4035  -20.0089   -6.7455 C   0  0  2  0  0  0  0  0  0  0  0  0
   25.6871  -21.1866   -6.3793 N   0  0  0  0  0  0  0  0  0  0  0  0
   26.3381  -19.8154   -8.2216 C   0  0  0  0  0  0  0  0  0  0  0  0
   26.5898  -18.6773   -8.7272 O   0  0  0  0  0  0  0  0  0  0  0  0
   26.0018  -20.8612   -9.1066 N   0  0  0  0  0  0  0  0  0  0  0  0
   25.9055  -20.7118  -10.5403 C   0  0  1  0  0  0  0  0  0  0  0  0
   26.7914  -21.6909  -11.2684 C   0  0  0  0  0  0  0  0  0  0  0  0
   26.8396  -21.4721  -12.7290 C   0  0  0  0  0  0  0  0  0  0  0  0
   27.4271  -20.3813  -13.3326 C   0  0  0  0  0  0  0  0  0  0  0  0
   27.2752  -20.5168  -14.6646 N   0  0  0  0  0  0  0  0  0  0  0  0
   26.6104  -21.6594  -14.9131 C   0  0  0  0  0  0  0  0  0  0  0  0
   26.3564  -22.2242  -13.7064 N   0  0  0  0  0  0  0  0  0  0  0  0
   24.5042  -20.7519  -10.9686 C   0  0  0  0  0  0  0  0  0  0  0  0
   23.6122  -21.4370  -10.4179 O   0  0  0  0  0  0  0  0  0  0  0  0
   22.1676  -18.5925  -16.2584 N   0  0  0  0  0  0  0  0  0  0  0  0
   20.9971  -18.4876  -15.4192 C   0  0  0  0  0  0  0  0  0  0  0  0
   19.9260  -18.3036  -16.0256 O   0  0  0  0  0  0  0  0  0  0  0  0
   21.1130  -18.5972  -13.9446 C   0  0  0  0  0  0  0  0  0  0  0  0
   22.5142  -18.8322  -13.4851 C   0  0  0  0  0  0  0  0  0  0  0  0
   22.6987  -19.9609  -12.5241 C   0  0  2  0  0  0  0  0  0  0  0  0
   24.0994  -19.9700  -12.0827 N   0  0  0  0  0  0  0  0  0  0  0  0
   22.3797  -21.2465  -13.1762 C   0  0  0  0  0  0  0  0  0  0  0  0
   21.0961  -21.7758  -12.9881 O   0  0  0  0  0  0  0  0  0  0  0  0
   23.1791  -21.8908  -13.8829 O   0  0  0  0  0  0  0  0  0  0  0  0
  1  2  1  0
  3  2  1  0
  3  4  1  1
  5  3  1  0
  5  6  1  6
  7  5  1  0
  8  7  2  0
  9  7  1  0
 10  9  1  0
 10 11  1  6
 11 12  1  0
 12 13  2  0
 12 16  1  0
 13 14  1  0
 14 15  1  0
 16 15  2  0
 17 18  2  0
 17 10  1  0
 20 19  1  0
 21 20  2  0
 22 20  1  0
 24 23  1  6
 23 22  1  0
 24 25  1  0
 25 17  1  0
 26 24  1  0
 27 26  1  0
 28 26  2  0
M  END
$$$$
