IHQ.pdb
     RDKit          3D

 28 28  0  0  1  0  0  0  0  0999 V2000
   17.2686  -20.8036  -11.5310 C   0  0  0  0  0  0  0  0  0  0  0  0
   18.4514  -21.7330  -11.7041 C   0  0  0  0  0  0  0  0  0  0  0  0
   18.0437  -23.1184  -11.2669 C   0  0  2  0  0  0  0  0  0  0  0  0
   16.6525  -23.4383  -11.7694 C   0  0  0  0  0  0  0  0  0  0  0  0
   18.0353  -23.2726   -9.7708 C   0  0  2  0  0  0  0  0  0  0  0  0
   19.2648  -22.8910   -9.1567 N   0  0  0  0  0  0  0  0  0  0  0  0
   17.6661  -24.6532   -9.3488 C   0  0  0  0  0  0  0  0  0  0  0  0
   16.6187  -25.2030   -9.8123 O   0  0  0  0  0  0  0  0  0  0  0  0
   18.4431  -25.3978   -8.4367 N   0  0  0  0  0  0  0  0  0  0  0  0
   18.0886  -26.7117   -7.9518 C   0  0  1  0  0  0  0  0  0  0  0  0
   19.0550  -27.7665   -8.4279 C   0  0  0  0  0  0  0  0  0  0  0  0
   18.8157  -28.2033   -9.8192 C   0  0  0  0  0  0  0  0  0  0  0  0
   19.1541  -27.4672  -10.9341 C   0  0  0  0  0  0  0  0  0  0  0  0
   18.7838  -28.1727  -12.0207 N   0  0  0  0  0  0  0  0  0  0  0  0
   18.2238  -29.3281  -11.6199 C   0  0  0  0  0  0  0  0  0  0  0  0
   18.2573  -29.3190  -10.2640 N   0  0  0  0  0  0  0  0  0  0  0  0
   17.9063  -26.6911   -6.4974 C   0  0  0  0  0  0  0  0  0  0  0  0
   17.6369  -27.6962   -5.8008 O   0  0  0  0  0  0  0  0  0  0  0  0
   13.4921  -24.8127   -4.0149 N   0  0  0  0  0  0  0  0  0  0  0  0
   14.3021  -23.6610   -4.3351 C   0  0  0  0  0  0  0  0  0  0  0  0
   13.6714  -22.6024   -4.5093 O   0  0  0  0  0  0  0  0  0  0  0  0
   15.7768  -23.7803   -4.4386 C   0  0  0  0  0  0  0  0  0  0  0  0
   16.2679  -25.1706   -4.2028 C   0  0  0  0  0  0  0  0  0  0  0  0
   17.7389  -25.3732   -4.3666 C   0  0  2  0  0  0  0  0  0  0  0  0
   18.0382  -25.4602   -5.8018 N   0  0  0  0  0  0  0  0  0  0  0  0
   18.1619  -26.6203   -3.6990 C   0  0  0  0  0  0  0  0  0  0  0  0
   18.5688  -26.5415   -2.3606 O   0  0  0  0  0  0  0  0  0  0  0  0
   18.1803  -27.7382   -4.2500 O   0  0  0  0  0  0  0  0  0  0  0  0
  1  2  1  0
  3  2  1  0
  3  4  1  1
  5  3  1  0
  5  6  1  6
  7  5  1  0
  8  7  2  0
  9  7  1  0
 10  9  1  0
 10 11  1  1
 11 12  1  0
 12 13  2  0
 12 16  1  0
 13 14  1  0
 14 15  1  0
 16 15  2  0
 17 18  2  0
 17 10  1  0
 20 19  1  0
 21 20  2  0
 22 20  1  0
 24 23  1  6
 23 22  1  0
 24 25  1  0
 25 17  1  0
 26 24  1  0
 27 26  1  0
 28 26  2  0
M  END
$$$$
