IHQ.pdb
     RDKit          3D

 28 28  0  0  1  0  0  0  0  0999 V2000
   47.5243  -12.4571   -7.9333 C   0  0  0  0  0  0  0  0  0  0  0  0
   46.5365  -13.1922   -7.0520 C   0  0  0  0  0  0  0  0  0  0  0  0
   45.1412  -12.7521   -7.4208 C   0  0  2  0  0  0  0  0  0  0  0  0
   44.8981  -12.9655   -8.8993 C   0  0  0  0  0  0  0  0  0  0  0  0
   44.8968  -11.2982   -7.1233 C   0  0  2  0  0  0  0  0  0  0  0  0
   45.0879  -10.9627   -5.7502 N   0  0  0  0  0  0  0  0  0  0  0  0
   43.5476  -10.8507   -7.5704 C   0  0  0  0  0  0  0  0  0  0  0  0
   43.2240  -10.9283   -8.7965 O   0  0  0  0  0  0  0  0  0  0  0  0
   42.5884  -10.3322   -6.6753 N   0  0  0  0  0  0  0  0  0  0  0  0
   41.3025   -9.8100   -7.0765 C   0  0  1  0  0  0  0  0  0  0  0  0
   40.2526  -10.0247   -6.0157 C   0  0  0  0  0  0  0  0  0  0  0  0
   38.9134   -9.5330   -6.4008 C   0  0  0  0  0  0  0  0  0  0  0  0
   38.6384   -8.8656   -7.5749 C   0  0  0  0  0  0  0  0  0  0  0  0
   37.3239   -8.5694   -7.5814 N   0  0  0  0  0  0  0  0  0  0  0  0
   36.7677   -9.0311   -6.4471 C   0  0  0  0  0  0  0  0  0  0  0  0
   37.7672   -9.6176   -5.7424 N   0  0  0  0  0  0  0  0  0  0  0  0
   41.4265   -8.4155   -7.5109 C   0  0  0  0  0  0  0  0  0  0  0  0
   42.0434   -7.5270   -6.8800 O   0  0  0  0  0  0  0  0  0  0  0  0
   40.4208   -6.4654  -13.4250 N   0  0  0  0  0  0  0  0  0  0  0  0
   41.5336   -7.2043  -12.8765 C   0  0  0  0  0  0  0  0  0  0  0  0
   42.2748   -7.7459  -13.7169 O   0  0  0  0  0  0  0  0  0  0  0  0
   41.7375   -7.2841  -11.4096 C   0  0  0  0  0  0  0  0  0  0  0  0
   40.6893   -6.5562  -10.6342 C   0  0  0  0  0  0  0  0  0  0  0  0
   40.8326   -6.6067   -9.1481 C   0  0  2  0  0  0  0  0  0  0  0  0
   40.8152   -8.0138   -8.7280 N   0  0  0  0  0  0  0  0  0  0  0  0
   39.7183   -5.8859   -8.5010 C   0  0  0  0  0  0  0  0  0  0  0  0
   40.0339   -4.9368   -7.5198 O   0  0  0  0  0  0  0  0  0  0  0  0
   38.5153   -6.0678   -8.7718 O   0  0  0  0  0  0  0  0  0  0  0  0
  1  2  1  0
  3  2  1  0
  3  4  1  6
  5  3  1  0
  5  6  1  1
  7  5  1  0
  8  7  2  0
  9  7  1  0
 10  9  1  0
 10 11  1  1
 11 12  1  0
 12 13  2  0
 12 16  1  0
 13 14  1  0
 14 15  1  0
 16 15  2  0
 17 18  2  0
 17 10  1  0
 20 19  1  0
 21 20  2  0
 22 20  1  0
 24 23  1  6
 23 22  1  0
 24 25  1  0
 25 17  1  0
 26 24  1  0
 27 26  1  0
 28 26  2  0
M  END
$$$$
