IHQ.pdb
     RDKit          3D

 28 28  0  0  1  0  0  0  0  0999 V2000
   16.8439  -15.0245  -17.0984 C   0  0  0  0  0  0  0  0  0  0  0  0
   18.2675  -15.5384  -17.0541 C   0  0  0  0  0  0  0  0  0  0  0  0
   19.1732  -14.4121  -16.6208 C   0  0  2  0  0  0  0  0  0  0  0  0
   19.1272  -13.2850  -17.6298 C   0  0  0  0  0  0  0  0  0  0  0  0
   20.6073  -14.8443  -16.4844 C   0  0  2  0  0  0  0  0  0  0  0  0
   20.7843  -15.9395  -15.5878 N   0  0  0  0  0  0  0  0  0  0  0  0
   21.5000  -13.7182  -16.0901 C   0  0  0  0  0  0  0  0  0  0  0  0
   21.4683  -13.2647  -14.9037 O   0  0  0  0  0  0  0  0  0  0  0  0
   22.4012  -13.1165  -16.9934 N   0  0  0  0  0  0  0  0  0  0  0  0
   23.2605  -12.0034  -16.6622 C   0  0  1  0  0  0  0  0  0  0  0  0
   24.6416  -12.1665  -17.2449 C   0  0  0  0  0  0  0  0  0  0  0  0
   25.4396  -13.2229  -16.5884 C   0  0  0  0  0  0  0  0  0  0  0  0
   25.0672  -13.8726  -15.4314 C   0  0  0  0  0  0  0  0  0  0  0  0
   26.0343  -14.7606  -15.1288 N   0  0  0  0  0  0  0  0  0  0  0  0
   27.0009  -14.6866  -16.0613 C   0  0  0  0  0  0  0  0  0  0  0  0
   26.6085  -13.7345  -16.9440 N   0  0  0  0  0  0  0  0  0  0  0  0
   22.6170  -10.7343  -17.0146 C   0  0  0  0  0  0  0  0  0  0  0  0
   21.9702  -10.5341  -18.0680 O   0  0  0  0  0  0  0  0  0  0  0  0
   22.5379   -5.7828  -13.0064 N   0  0  0  0  0  0  0  0  0  0  0  0
   21.8546   -5.2581  -14.1653 C   0  0  0  0  0  0  0  0  0  0  0  0
   21.5586   -4.0508  -14.1035 O   0  0  0  0  0  0  0  0  0  0  0  0
   21.5484   -6.1341  -15.3222 C   0  0  0  0  0  0  0  0  0  0  0  0
   22.1152   -7.5082  -15.1801 C   0  0  0  0  0  0  0  0  0  0  0  0
   21.9997   -8.3831  -16.3854 C   0  0  2  0  0  0  0  0  0  0  0  0
   22.7164   -9.6370  -16.1188 N   0  0  0  0  0  0  0  0  0  0  0  0
   22.5940   -7.7168  -17.5612 C   0  0  0  0  0  0  0  0  0  0  0  0
   23.9762   -7.8395  -17.7549 O   0  0  0  0  0  0  0  0  0  0  0  0
   21.9447   -7.0524  -18.3923 O   0  0  0  0  0  0  0  0  0  0  0  0
  1  2  1  0
  3  2  1  0
  3  4  1  6
  5  3  1  0
  5  6  1  1
  7  5  1  0
  8  7  2  0
  9  7  1  0
 10  9  1  0
 10 11  1  6
 11 12  1  0
 12 13  2  0
 12 16  1  0
 13 14  1  0
 14 15  1  0
 16 15  2  0
 17 18  2  0
 17 10  1  0
 20 19  1  0
 21 20  2  0
 22 20  1  0
 24 23  1  1
 23 22  1  0
 24 25  1  0
 25 17  1  0
 26 24  1  0
 27 26  1  0
 28 26  2  0
M  END
$$$$
