IHQ.pdb
     RDKit          3D

 28 28  0  0  1  0  0  0  0  0999 V2000
   12.8140  -13.2897  -11.9892 C   0  0  0  0  0  0  0  0  0  0  0  0
   14.1854  -12.8137  -11.5586 C   0  0  0  0  0  0  0  0  0  0  0  0
   14.1440  -11.3150  -11.3889 C   0  0  2  0  0  0  0  0  0  0  0  0
   13.7464  -10.6512  -12.6896 C   0  0  0  0  0  0  0  0  0  0  0  0
   15.4717  -10.7442  -10.9724 C   0  0  2  0  0  0  0  0  0  0  0  0
   16.0060  -11.3547   -9.7992 N   0  0  0  0  0  0  0  0  0  0  0  0
   15.4183   -9.2658  -10.7939 C   0  0  0  0  0  0  0  0  0  0  0  0
   15.0370   -8.5214  -11.7503 O   0  0  0  0  0  0  0  0  0  0  0  0
   15.7797   -8.6372   -9.5837 N   0  0  0  0  0  0  0  0  0  0  0  0
   15.7391   -7.2095   -9.3669 C   0  0  1  0  0  0  0  0  0  0  0  0
   15.1950   -6.8630   -8.0040 C   0  0  0  0  0  0  0  0  0  0  0  0
   13.7444   -7.1092   -7.8661 C   0  0  0  0  0  0  0  0  0  0  0  0
   12.9176   -7.4843   -8.9030 C   0  0  0  0  0  0  0  0  0  0  0  0
   11.6705   -7.6118   -8.4091 N   0  0  0  0  0  0  0  0  0  0  0  0
   11.6915   -7.3279   -7.0944 C   0  0  0  0  0  0  0  0  0  0  0  0
   12.9775   -7.0230   -6.7896 N   0  0  0  0  0  0  0  0  0  0  0  0
   17.0456   -6.6087   -9.6513 C   0  0  0  0  0  0  0  0  0  0  0  0
   18.1133   -6.9260   -9.0790 O   0  0  0  0  0  0  0  0  0  0  0  0
   20.2538   -8.5276  -13.1424 N   0  0  0  0  0  0  0  0  0  0  0  0
   20.9409   -7.2587  -13.1975 C   0  0  0  0  0  0  0  0  0  0  0  0
   22.0261   -7.2705  -13.8066 O   0  0  0  0  0  0  0  0  0  0  0  0
   20.3559   -6.0550  -12.5583 C   0  0  0  0  0  0  0  0  0  0  0  0
   19.1060   -6.3481  -11.7957 C   0  0  0  0  0  0  0  0  0  0  0  0
   18.4456   -5.1692  -11.1589 C   0  0  2  0  0  0  0  0  0  0  0  0
   17.1390   -5.5936  -10.6399 N   0  0  0  0  0  0  0  0  0  0  0  0
   18.2553   -4.0912  -12.1496 C   0  0  0  0  0  0  0  0  0  0  0  0
   16.9591   -3.8655  -12.6314 O   0  0  0  0  0  0  0  0  0  0  0  0
   19.1737   -3.3695  -12.5846 O   0  0  0  0  0  0  0  0  0  0  0  0
  1  2  1  0
  3  2  1  0
  3  4  1  6
  5  3  1  0
  5  6  1  1
  7  5  1  0
  8  7  2  0
  9  7  1  0
 10  9  1  0
 10 11  1  1
 11 12  1  0
 12 13  2  0
 12 16  1  0
 13 14  1  0
 14 15  1  0
 16 15  2  0
 17 18  2  0
 17 10  1  0
 20 19  1  0
 21 20  2  0
 22 20  1  0
 24 23  1  6
 23 22  1  0
 24 25  1  0
 25 17  1  0
 26 24  1  0
 27 26  1  0
 28 26  2  0
M  END
$$$$
