IHQ.pdb
     RDKit          3D

 28 28  0  0  1  0  0  0  0  0999 V2000
   23.0902  -21.1911   -8.0620 C   0  0  0  0  0  0  0  0  0  0  0  0
   24.5558  -21.2454   -8.4388 C   0  0  0  0  0  0  0  0  0  0  0  0
   24.7127  -20.7121   -9.8415 C   0  0  2  0  0  0  0  0  0  0  0  0
   23.9048  -21.5458  -10.8125 C   0  0  0  0  0  0  0  0  0  0  0  0
   26.1426  -20.7260  -10.3078 C   0  0  2  0  0  0  0  0  0  0  0  0
   27.0511  -20.1680   -9.3604 N   0  0  0  0  0  0  0  0  0  0  0  0
   26.3114  -20.0542  -11.6272 C   0  0  0  0  0  0  0  0  0  0  0  0
   25.9428  -18.8480  -11.7803 O   0  0  0  0  0  0  0  0  0  0  0  0
   26.8749  -20.7094  -12.7422 N   0  0  0  0  0  0  0  0  0  0  0  0
   26.8840  -20.1692  -14.0820 C   0  0  1  0  0  0  0  0  0  0  0  0
   28.1304  -20.5577  -14.8364 C   0  0  0  0  0  0  0  0  0  0  0  0
   28.2290  -19.9385  -16.1746 C   0  0  0  0  0  0  0  0  0  0  0  0
   27.2654  -19.1219  -16.7261 C   0  0  0  0  0  0  0  0  0  0  0  0
   27.6920  -18.7505  -17.9491 N   0  0  0  0  0  0  0  0  0  0  0  0
   28.8933  -19.3097  -18.1799 C   0  0  0  0  0  0  0  0  0  0  0  0
   29.1972  -20.0331  -17.0735 N   0  0  0  0  0  0  0  0  0  0  0  0
   25.6409  -20.5075  -14.7813 C   0  0  0  0  0  0  0  0  0  0  0  0
   24.9472  -21.5232  -14.5462 O   0  0  0  0  0  0  0  0  0  0  0  0
   21.4471  -17.1492  -14.6369 N   0  0  0  0  0  0  0  0  0  0  0  0
   20.7065  -18.2715  -15.1633 C   0  0  0  0  0  0  0  0  0  0  0  0
   19.4830  -18.0843  -15.2925 O   0  0  0  0  0  0  0  0  0  0  0  0
   21.3982  -19.5368  -15.5102 C   0  0  0  0  0  0  0  0  0  0  0  0
   22.8508  -19.5217  -15.1643 C   0  0  0  0  0  0  0  0  0  0  0  0
   23.7889  -19.7584  -16.3025 C   0  0  2  0  0  0  0  0  0  0  0  0
   25.1646  -19.6423  -15.8016 N   0  0  0  0  0  0  0  0  0  0  0  0
   23.5664  -18.7592  -17.3664 C   0  0  0  0  0  0  0  0  0  0  0  0
   24.1211  -17.4841  -17.1942 O   0  0  0  0  0  0  0  0  0  0  0  0
   22.9168  -18.9775  -18.4075 O   0  0  0  0  0  0  0  0  0  0  0  0
  1  2  1  0
  3  2  1  0
  3  4  1  6
  5  3  1  0
  5  6  1  1
  7  5  1  0
  8  7  2  0
  9  7  1  0
 10  9  1  0
 10 11  1  6
 11 12  1  0
 12 13  2  0
 12 16  1  0
 13 14  1  0
 14 15  1  0
 16 15  2  0
 17 18  2  0
 17 10  1  0
 20 19  1  0
 21 20  2  0
 22 20  1  0
 24 23  1  1
 23 22  1  0
 24 25  1  0
 25 17  1  0
 26 24  1  0
 27 26  1  0
 28 26  2  0
M  END
$$$$
