IHQ.pdb
     RDKit          3D

 28 28  0  0  1  0  0  0  0  0999 V2000
   27.3627  -19.8016   -6.8687 C   0  0  0  0  0  0  0  0  0  0  0  0
   27.4207  -20.7969   -8.0084 C   0  0  0  0  0  0  0  0  0  0  0  0
   26.5094  -20.3194   -9.1120 C   0  0  2  0  0  0  0  0  0  0  0  0
   25.0782  -20.2648   -8.6230 C   0  0  0  0  0  0  0  0  0  0  0  0
   26.5454  -21.2161  -10.3190 C   0  0  2  0  0  0  0  0  0  0  0  0
   27.8591  -21.6582  -10.6552 N   0  0  0  0  0  0  0  0  0  0  0  0
   25.9037  -20.5868  -11.5076 C   0  0  0  0  0  0  0  0  0  0  0  0
   25.8872  -19.3222  -11.6286 O   0  0  0  0  0  0  0  0  0  0  0  0
   25.2985  -21.3468  -12.5305 N   0  0  0  0  0  0  0  0  0  0  0  0
   24.6738  -20.7784  -13.7026 C   0  0  1  0  0  0  0  0  0  0  0  0
   25.1562  -21.4350  -14.9713 C   0  0  0  0  0  0  0  0  0  0  0  0
   26.5402  -21.0687  -15.3377 C   0  0  0  0  0  0  0  0  0  0  0  0
   27.3232  -20.1829  -14.6293 C   0  0  0  0  0  0  0  0  0  0  0  0
   28.5124  -20.0928  -15.2563 N   0  0  0  0  0  0  0  0  0  0  0  0
   28.4976  -20.8952  -16.3357 C   0  0  0  0  0  0  0  0  0  0  0  0
   27.2745  -21.4810  -16.3599 N   0  0  0  0  0  0  0  0  0  0  0  0
   23.2151  -20.7750  -13.5573 C   0  0  0  0  0  0  0  0  0  0  0  0
   22.5717  -21.5655  -12.8298 O   0  0  0  0  0  0  0  0  0  0  0  0
   19.4980  -17.7697  -11.4562 N   0  0  0  0  0  0  0  0  0  0  0  0
   18.6062  -17.8341  -12.5901 C   0  0  0  0  0  0  0  0  0  0  0  0
   17.3974  -17.7116  -12.3203 O   0  0  0  0  0  0  0  0  0  0  0  0
   19.1393  -18.0339  -13.9596 C   0  0  0  0  0  0  0  0  0  0  0  0
   20.6068  -18.3089  -13.9804 C   0  0  0  0  0  0  0  0  0  0  0  0
   20.9935  -19.7456  -14.1141 C   0  0  2  0  0  0  0  0  0  0  0  0
   22.4509  -19.8203  -14.2791 N   0  0  0  0  0  0  0  0  0  0  0  0
   20.3335  -20.3467  -15.2901 C   0  0  0  0  0  0  0  0  0  0  0  0
   19.1087  -20.9979  -15.0924 O   0  0  0  0  0  0  0  0  0  0  0  0
   20.7961  -20.3118  -16.4470 O   0  0  0  0  0  0  0  0  0  0  0  0
  1  2  1  0
  3  2  1  0
  3  4  1  1
  5  3  1  0
  5  6  1  6
  7  5  1  0
  8  7  2  0
  9  7  1  0
 10  9  1  0
 10 11  1  6
 11 12  1  0
 12 13  2  0
 12 16  1  0
 13 14  1  0
 14 15  1  0
 16 15  2  0
 17 18  2  0
 17 10  1  0
 20 19  1  0
 21 20  2  0
 22 20  1  0
 24 23  1  6
 23 22  1  0
 24 25  1  0
 25 17  1  0
 26 24  1  0
 27 26  1  0
 28 26  2  0
M  END
$$$$
