IHQ.pdb
     RDKit          3D

 28 28  0  0  1  0  0  0  0  0999 V2000
   23.5756  -22.6352  -22.3214 C   0  0  0  0  0  0  0  0  0  0  0  0
   24.5180  -21.6550  -21.6552 C   0  0  0  0  0  0  0  0  0  0  0  0
   23.9841  -21.3307  -20.2818 C   0  0  2  0  0  0  0  0  0  0  0  0
   22.5744  -20.7892  -20.3820 C   0  0  0  0  0  0  0  0  0  0  0  0
   24.8177  -20.3036  -19.5660 C   0  0  2  0  0  0  0  0  0  0  0  0
   26.1859  -20.6826  -19.4286 N   0  0  0  0  0  0  0  0  0  0  0  0
   24.2541  -19.9505  -18.2325 C   0  0  0  0  0  0  0  0  0  0  0  0
   24.3904  -20.7464  -17.2517 O   0  0  0  0  0  0  0  0  0  0  0  0
   23.5592  -18.7448  -18.0011 N   0  0  0  0  0  0  0  0  0  0  0  0
   22.9742  -18.3757  -16.7327 C   0  0  1  0  0  0  0  0  0  0  0  0
   23.2258  -16.9272  -16.3978 C   0  0  0  0  0  0  0  0  0  0  0  0
   24.6466  -16.6194  -16.1330 C   0  0  0  0  0  0  0  0  0  0  0  0
   25.6562  -17.5576  -16.1222 C   0  0  0  0  0  0  0  0  0  0  0  0
   26.8088  -16.9182  -15.8425 N   0  0  0  0  0  0  0  0  0  0  0  0
   26.5514  -15.6082  -15.6778 C   0  0  0  0  0  0  0  0  0  0  0  0
   25.2164  -15.4549  -15.8620 N   0  0  0  0  0  0  0  0  0  0  0  0
   21.5588  -18.7546  -16.6895 C   0  0  0  0  0  0  0  0  0  0  0  0
   20.7619  -18.6362  -17.6482 O   0  0  0  0  0  0  0  0  0  0  0  0
   19.3412  -23.4811  -13.4225 N   0  0  0  0  0  0  0  0  0  0  0  0
   18.1193  -22.8851  -13.9091 C   0  0  0  0  0  0  0  0  0  0  0  0
   17.0884  -23.5529  -13.7087 O   0  0  0  0  0  0  0  0  0  0  0  0
   18.1412  -21.5694  -14.5933 C   0  0  0  0  0  0  0  0  0  0  0  0
   19.5217  -21.0321  -14.7810 C   0  0  0  0  0  0  0  0  0  0  0  0
   19.6090  -19.6772  -15.4042 C   0  0  2  0  0  0  0  0  0  0  0  0
   21.0248  -19.2966  -15.4906 N   0  0  0  0  0  0  0  0  0  0  0  0
   18.8825  -18.6879  -14.5837 C   0  0  0  0  0  0  0  0  0  0  0  0
   17.4918  -18.6070  -14.7337 O   0  0  0  0  0  0  0  0  0  0  0  0
   19.4272  -17.9205  -13.7664 O   0  0  0  0  0  0  0  0  0  0  0  0
  1  2  1  0
  3  2  1  0
  3  4  1  6
  5  3  1  0
  5  6  1  1
  7  5  1  0
  8  7  2  0
  9  7  1  0
 10  9  1  0
 10 11  1  6
 11 12  1  0
 12 13  2  0
 12 16  1  0
 13 14  1  0
 14 15  1  0
 16 15  2  0
 17 18  2  0
 17 10  1  0
 20 19  1  0
 21 20  2  0
 22 20  1  0
 24 23  1  1
 23 22  1  0
 24 25  1  0
 25 17  1  0
 26 24  1  0
 27 26  1  0
 28 26  2  0
M  END
$$$$
