WTK.pdb
     RDKit          3D

 31 32  0  0  1  0  0  0  0  0999 V2000
    6.2407  -17.5389   24.1447 N   0  0  0  0  0  0  0  0  0  0  0  0
    7.2162  -16.5378   23.6378 C   0  0  1  0  0  0  0  0  0  0  0  0
    7.8654  -15.9683   24.8425 C   0  0  0  0  0  0  0  0  0  0  0  0
    7.0916  -15.0281   25.6372 C   0  0  0  0  0  0  0  0  0  0  0  0
    6.2756  -15.3400   26.7062 C   0  0  0  0  0  0  0  0  0  0  0  0
    5.7478  -14.1790   27.1265 N   0  0  0  0  0  0  0  0  0  0  0  0
    6.1896  -13.1651   26.3806 C   0  0  0  0  0  0  0  0  0  0  0  0
    5.9758  -11.7979   26.4022 C   0  0  0  0  0  0  0  0  0  0  0  0
    6.6161  -10.9864   25.4808 C   0  0  0  0  0  0  0  0  0  0  0  0
    7.4774  -11.5028   24.5213 C   0  0  0  0  0  0  0  0  0  0  0  0
    7.6855  -12.8595   24.5033 C   0  0  0  0  0  0  0  0  0  0  0  0
    7.0439  -13.6634   25.4251 C   0  0  0  0  0  0  0  0  0  0  0  0
    8.0635  -17.2297   22.6654 C   0  0  0  0  0  0  0  0  0  0  0  0
    8.1871  -18.5025   22.7064 O   0  0  0  0  0  0  0  0  0  0  0  0
    9.0120  -16.4052   18.8022 C   0  0  0  0  0  0  0  0  0  0  0  0
   10.2240  -16.5781   19.6508 C   0  0  1  0  0  0  0  0  0  0  0  0
   10.8125  -15.3361   19.9531 O   0  0  0  0  0  0  0  0  0  0  0  0
    9.9576  -17.2765   20.9854 C   0  0  2  0  0  0  0  0  0  0  0  0
    8.8002  -16.5972   21.6139 N   0  0  0  0  0  0  0  0  0  0  0  0
   11.0996  -17.1353   21.8781 C   0  0  0  0  0  0  0  0  0  0  0  0
   11.1513  -16.1090   22.6527 O   0  0  0  0  0  0  0  0  0  0  0  0
   12.1795  -18.0443   21.9771 N   0  0  0  0  0  0  0  0  0  0  0  0
   13.1245  -17.9424   23.0954 C   0  0  1  0  0  0  0  0  0  0  0  0
   12.8572  -19.0254   24.0920 C   0  0  0  0  0  0  0  0  0  0  0  0
   13.9247  -19.0884   25.1353 C   0  0  0  0  0  0  0  0  0  0  0  0
   13.7420  -20.2667   26.0779 C   0  0  0  0  0  0  0  0  0  0  0  0
   14.7938  -20.2347   27.1742 C   0  0  0  0  0  0  0  0  0  0  0  0
   14.5926  -21.3535   28.0682 N   0  0  0  0  0  0  0  0  0  0  0  0
   14.4990  -18.0572   22.5672 C   0  0  0  0  0  0  0  0  0  0  0  0
   14.7035  -18.4534   21.3782 O   0  0  0  0  0  0  0  0  0  0  0  0
   15.6311  -17.7521   23.2946 O   0  0  0  0  0  0  0  0  0  0  0  0
  2  1  1  1
  3  2  1  0
  4  5  2  0
  4  3  1  0
  6  5  1  0
  7 12  2  0
  7  6  1  0
  8  7  1  0
  9 10  1  0
  9  8  2  0
 10 11  2  0
 11 12  1  0
 12  4  1  0
 13 14  2  0
 13  2  1  0
 16 15  1  1
 16 18  1  0
 17 16  1  0
 18 19  1  1
 19 13  1  0
 20 18  1  0
 21 20  2  0
 22 20  1  0
 23 29  1  0
 23 22  1  0
 23 24  1  1
 25 24  1  0
 26 27  1  0
 26 25  1  0
 27 28  1  0
 29 31  1  0
 30 29  2  0
M  END
$$$$
