WTK.pdb
     RDKit          3D

 31 32  0  0  1  0  0  0  0  0999 V2000
    6.2054  -17.3568   24.6242 N   0  0  0  0  0  0  0  0  0  0  0  0
    7.0277  -16.2430   24.0819 C   0  0  1  0  0  0  0  0  0  0  0  0
    7.6735  -15.6145   25.2587 C   0  0  0  0  0  0  0  0  0  0  0  0
    6.8541  -14.7413   26.0836 C   0  0  0  0  0  0  0  0  0  0  0  0
    5.8207  -15.1325   26.9112 C   0  0  0  0  0  0  0  0  0  0  0  0
    5.3352  -14.0083   27.4621 N   0  0  0  0  0  0  0  0  0  0  0  0
    6.0078  -12.9426   27.0247 C   0  0  0  0  0  0  0  0  0  0  0  0
    5.9256  -11.5862   27.2869 C   0  0  0  0  0  0  0  0  0  0  0  0
    6.8068  -10.7118   26.6731 C   0  0  0  0  0  0  0  0  0  0  0  0
    7.7840  -11.1536   25.7905 C   0  0  0  0  0  0  0  0  0  0  0  0
    7.8608  -12.4997   25.5329 C   0  0  0  0  0  0  0  0  0  0  0  0
    6.9792  -13.3666   26.1484 C   0  0  0  0  0  0  0  0  0  0  0  0
    7.8932  -16.8204   23.0524 C   0  0  0  0  0  0  0  0  0  0  0  0
    8.3639  -18.0019   23.1924 O   0  0  0  0  0  0  0  0  0  0  0  0
    7.8393  -15.5296   19.1268 C   0  0  0  0  0  0  0  0  0  0  0  0
    9.1779  -15.9878   19.5927 C   0  0  1  0  0  0  0  0  0  0  0  0
   10.0137  -14.8947   19.8869 O   0  0  0  0  0  0  0  0  0  0  0  0
    9.1371  -16.8621   20.8471 C   0  0  2  0  0  0  0  0  0  0  0  0
    8.2811  -16.1689   21.8386 N   0  0  0  0  0  0  0  0  0  0  0  0
   10.4678  -17.0008   21.4225 C   0  0  0  0  0  0  0  0  0  0  0  0
   10.7995  -16.2295   22.3976 O   0  0  0  0  0  0  0  0  0  0  0  0
   11.4499  -17.9284   21.0013 N   0  0  0  0  0  0  0  0  0  0  0  0
   12.7150  -18.0424   21.7365 C   0  0  1  0  0  0  0  0  0  0  0  0
   13.2054  -19.4550   21.6956 C   0  0  0  0  0  0  0  0  0  0  0  0
   14.5151  -19.6030   22.3990 C   0  0  0  0  0  0  0  0  0  0  0  0
   14.9809  -21.0488   22.4539 C   0  0  0  0  0  0  0  0  0  0  0  0
   16.3502  -21.1878   21.8098 C   0  0  0  0  0  0  0  0  0  0  0  0
   17.3575  -21.3093   22.8404 N   0  0  0  0  0  0  0  0  0  0  0  0
   13.7052  -17.1360   21.1207 C   0  0  0  0  0  0  0  0  0  0  0  0
   13.6221  -16.8270   19.8918 O   0  0  0  0  0  0  0  0  0  0  0  0
   14.7608  -16.5697   21.8055 O   0  0  0  0  0  0  0  0  0  0  0  0
  2  1  1  1
  3  2  1  0
  4  5  2  0
  4  3  1  0
  6  5  1  0
  7 12  2  0
  7  6  1  0
  8  7  1  0
  9 10  1  0
  9  8  2  0
 10 11  2  0
 11 12  1  0
 12  4  1  0
 13 14  2  0
 13  2  1  0
 16 15  1  1
 16 18  1  0
 17 16  1  0
 18 19  1  1
 19 13  1  0
 20 18  1  0
 21 20  2  0
 22 20  1  0
 23 29  1  0
 23 22  1  0
 23 24  1  6
 25 24  1  0
 26 27  1  0
 26 25  1  0
 27 28  1  0
 29 31  1  0
 30 29  2  0
M  END
$$$$
