WTK.pdb
     RDKit          3D

 31 32  0  0  1  0  0  0  0  0999 V2000
    6.4804  -16.7563   22.9856 N   0  0  0  0  0  0  0  0  0  0  0  0
    7.7788  -16.1194   23.3311 C   0  0  1  0  0  0  0  0  0  0  0  0
    7.8119  -16.0593   24.8118 C   0  0  0  0  0  0  0  0  0  0  0  0
    6.9277  -15.1053   25.4617 C   0  0  0  0  0  0  0  0  0  0  0  0
    5.7775  -15.4047   26.1640 C   0  0  0  0  0  0  0  0  0  0  0  0
    5.2710  -14.2302   26.5728 N   0  0  0  0  0  0  0  0  0  0  0  0
    6.0406  -13.2197   26.1652 C   0  0  0  0  0  0  0  0  0  0  0  0
    5.9819  -11.8467   26.3288 C   0  0  0  0  0  0  0  0  0  0  0  0
    6.9733  -11.0459   25.7870 C   0  0  0  0  0  0  0  0  0  0  0  0
    8.0398  -11.5789   25.0746 C   0  0  0  0  0  0  0  0  0  0  0  0
    8.0931  -12.9411   24.9142 C   0  0  0  0  0  0  0  0  0  0  0  0
    7.1012  -13.7344   25.4571 C   0  0  0  0  0  0  0  0  0  0  0  0
    8.8210  -16.8920   22.6534 C   0  0  0  0  0  0  0  0  0  0  0  0
    8.5166  -17.6922   21.7027 O   0  0  0  0  0  0  0  0  0  0  0  0
    9.6470  -17.0882   20.1068 C   0  0  0  0  0  0  0  0  0  0  0  0
   11.0131  -16.8838   20.6642 C   0  0  1  0  0  0  0  0  0  0  0  0
   11.3239  -15.5144   20.7552 O   0  0  0  0  0  0  0  0  0  0  0  0
   11.2128  -17.4751   22.0607 C   0  0  2  0  0  0  0  0  0  0  0  0
   10.2189  -16.8360   22.9551 N   0  0  0  0  0  0  0  0  0  0  0  0
   12.5410  -17.1606   22.5687 C   0  0  0  0  0  0  0  0  0  0  0  0
   12.9152  -15.9297   22.5910 O   0  0  0  0  0  0  0  0  0  0  0  0
   13.4771  -18.1042   23.0542 N   0  0  0  0  0  0  0  0  0  0  0  0
   14.4425  -17.7149   24.0887 C   0  0  1  0  0  0  0  0  0  0  0  0
   14.5543  -18.7952   25.1173 C   0  0  0  0  0  0  0  0  0  0  0  0
   13.2951  -18.9329   25.9093 C   0  0  0  0  0  0  0  0  0  0  0  0
   13.3900  -20.0280   26.9591 C   0  0  0  0  0  0  0  0  0  0  0  0
   12.0442  -20.2301   27.6354 C   0  0  0  0  0  0  0  0  0  0  0  0
   12.1657  -21.2472   28.6562 N   0  0  0  0  0  0  0  0  0  0  0  0
   15.7524  -17.4754   23.4497 C   0  0  0  0  0  0  0  0  0  0  0  0
   15.9418  -17.7778   22.2310 O   0  0  0  0  0  0  0  0  0  0  0  0
   16.8362  -16.9217   24.0998 O   0  0  0  0  0  0  0  0  0  0  0  0
  2  1  1  1
  3  2  1  0
  4  5  2  0
  4  3  1  0
  6  5  1  0
  7 12  2  0
  7  6  1  0
  8  7  1  0
  9 10  1  0
  9  8  2  0
 10 11  2  0
 11 12  1  0
 12  4  1  0
 13 14  2  0
 13  2  1  0
 16 15  1  1
 16 18  1  0
 17 16  1  0
 18 19  1  1
 19 13  1  0
 20 18  1  0
 21 20  2  0
 22 20  1  0
 23 29  1  0
 23 22  1  0
 23 24  1  1
 25 24  1  0
 26 27  1  0
 26 25  1  0
 27 28  1  0
 29 31  1  0
 30 29  2  0
M  END
$$$$
