WTK.pdb
     RDKit          3D

 31 32  0  0  1  0  0  0  0  0999 V2000
    6.4377  -17.4970   23.8229 N   0  0  0  0  0  0  0  0  0  0  0  0
    6.9200  -16.1234   23.5206 C   0  0  1  0  0  0  0  0  0  0  0  0
    7.6157  -15.6661   24.7469 C   0  0  0  0  0  0  0  0  0  0  0  0
    6.8468  -14.8785   25.6970 C   0  0  0  0  0  0  0  0  0  0  0  0
    5.8466  -15.3464   26.5257 C   0  0  0  0  0  0  0  0  0  0  0  0
    5.4022  -14.2830   27.2147 N   0  0  0  0  0  0  0  0  0  0  0  0
    6.0691  -13.1828   26.8620 C   0  0  0  0  0  0  0  0  0  0  0  0
    6.0177  -11.8614   27.2700 C   0  0  0  0  0  0  0  0  0  0  0  0
    6.8822  -10.9345   26.7120 C   0  0  0  0  0  0  0  0  0  0  0  0
    7.8121  -11.2885   25.7430 C   0  0  0  0  0  0  0  0  0  0  0  0
    7.8585  -12.6001   25.3408 C   0  0  0  0  0  0  0  0  0  0  0  0
    6.9937  -13.5197   25.9013 C   0  0  0  0  0  0  0  0  0  0  0  0
    7.6983  -16.2124   22.2842 C   0  0  0  0  0  0  0  0  0  0  0  0
    7.9779  -17.3536   21.7777 O   0  0  0  0  0  0  0  0  0  0  0  0
    9.0153  -12.7704   20.0855 C   0  0  0  0  0  0  0  0  0  0  0  0
    8.6156  -14.0321   19.4019 C   0  0  1  0  0  0  0  0  0  0  0  0
    9.3162  -14.1975   18.1928 O   0  0  0  0  0  0  0  0  0  0  0  0
    8.8596  -15.2952   20.2294 C   0  0  2  0  0  0  0  0  0  0  0  0
    8.1982  -15.0965   21.5406 N   0  0  0  0  0  0  0  0  0  0  0  0
   10.2831  -15.4873   20.4695 C   0  0  0  0  0  0  0  0  0  0  0  0
   10.8491  -14.7965   21.3960 O   0  0  0  0  0  0  0  0  0  0  0  0
   11.1189  -16.3859   19.7650 N   0  0  0  0  0  0  0  0  0  0  0  0
   12.5505  -16.4573   20.0803 C   0  0  1  0  0  0  0  0  0  0  0  0
   13.2213  -15.1727   19.7092 C   0  0  0  0  0  0  0  0  0  0  0  0
   13.6398  -15.1652   18.2751 C   0  0  0  0  0  0  0  0  0  0  0  0
   14.7591  -14.1727   18.0055 C   0  0  0  0  0  0  0  0  0  0  0  0
   15.0379  -14.0827   16.5144 C   0  0  0  0  0  0  0  0  0  0  0  0
   16.0923  -13.1214   16.2784 N   0  0  0  0  0  0  0  0  0  0  0  0
   12.7058  -16.7200   21.5254 C   0  0  0  0  0  0  0  0  0  0  0  0
   13.8560  -16.9158   22.0267 O   0  0  0  0  0  0  0  0  0  0  0  0
   11.6532  -16.7697   22.4162 O   0  0  0  0  0  0  0  0  0  0  0  0
  2  1  1  1
  3  2  1  0
  4  5  2  0
  4  3  1  0
  6  5  1  0
  7 12  2  0
  7  6  1  0
  8  7  1  0
  9 10  1  0
  9  8  2  0
 10 11  2  0
 11 12  1  0
 12  4  1  0
 13 14  2  0
 13  2  1  0
 16 15  1  1
 16 18  1  0
 17 16  1  0
 18 19  1  1
 19 13  1  0
 20 18  1  0
 21 20  2  0
 22 20  1  0
 23 29  1  0
 23 22  1  0
 23 24  1  1
 25 24  1  0
 26 27  1  0
 26 25  1  0
 27 28  1  0
 29 31  1  0
 30 29  2  0
M  END
$$$$
