WTK.pdb
     RDKit          3D

 31 32  0  0  1  0  0  0  0  0999 V2000
    9.5336  -17.4917   18.8770 N   0  0  0  0  0  0  0  0  0  0  0  0
   10.3566  -16.3674   19.3961 C   0  0  1  0  0  0  0  0  0  0  0  0
    9.7471  -15.9935   20.6944 C   0  0  0  0  0  0  0  0  0  0  0  0
    8.5830  -15.1229   20.6600 C   0  0  0  0  0  0  0  0  0  0  0  0
    7.3417  -15.3969   21.1987 C   0  0  0  0  0  0  0  0  0  0  0  0
    6.5696  -14.3338   20.9220 N   0  0  0  0  0  0  0  0  0  0  0  0
    7.2601  -13.4159   20.2435 C   0  0  0  0  0  0  0  0  0  0  0  0
    6.9509  -12.1628   19.7440 C   0  0  0  0  0  0  0  0  0  0  0  0
    7.9209  -11.4257   19.0856 C   0  0  0  0  0  0  0  0  0  0  0  0
    9.2116  -11.9060   18.9055 C   0  0  0  0  0  0  0  0  0  0  0  0
    9.5131  -13.1498   19.4018 C   0  0  0  0  0  0  0  0  0  0  0  0
    8.5412  -13.8799   20.0576 C   0  0  0  0  0  0  0  0  0  0  0  0
   11.7458  -16.8282   19.3989 C   0  0  0  0  0  0  0  0  0  0  0  0
   12.1915  -17.5424   18.4355 O   0  0  0  0  0  0  0  0  0  0  0  0
   13.8385  -16.4004   17.7317 C   0  0  0  0  0  0  0  0  0  0  0  0
   14.5957  -16.0640   18.9696 C   0  0  1  0  0  0  0  0  0  0  0  0
   14.4748  -14.6973   19.2822 O   0  0  0  0  0  0  0  0  0  0  0  0
   14.1454  -16.8412   20.2077 C   0  0  2  0  0  0  0  0  0  0  0  0
   12.7095  -16.5407   20.4173 N   0  0  0  0  0  0  0  0  0  0  0  0
   14.8736  -16.3971   21.3882 C   0  0  0  0  0  0  0  0  0  0  0  0
   14.6504  -15.2127   21.8389 O   0  0  0  0  0  0  0  0  0  0  0  0
   15.8220  -17.1663   22.1033 N   0  0  0  0  0  0  0  0  0  0  0  0
   16.2183  -16.7676   23.4590 C   0  0  1  0  0  0  0  0  0  0  0  0
   16.1349  -17.9412   24.3827 C   0  0  0  0  0  0  0  0  0  0  0  0
   14.7548  -18.5117   24.4238 C   0  0  0  0  0  0  0  0  0  0  0  0
   14.6709  -19.7585   25.2892 C   0  0  0  0  0  0  0  0  0  0  0  0
   13.2807  -20.3665   25.2068 C   0  0  0  0  0  0  0  0  0  0  0  0
   13.2190  -21.5438   26.0445 N   0  0  0  0  0  0  0  0  0  0  0  0
   17.5988  -16.2443   23.4154 C   0  0  0  0  0  0  0  0  0  0  0  0
   18.1508  -15.7894   24.4646 O   0  0  0  0  0  0  0  0  0  0  0  0
   18.3736  -16.2106   22.2742 O   0  0  0  0  0  0  0  0  0  0  0  0
  2  1  1  1
  3  2  1  0
  4  5  2  0
  4  3  1  0
  6  5  1  0
  7 12  2  0
  7  6  1  0
  8  7  1  0
  9 10  1  0
  9  8  2  0
 10 11  2  0
 11 12  1  0
 12  4  1  0
 13 14  2  0
 13  2  1  0
 16 15  1  6
 16 18  1  0
 17 16  1  0
 18 19  1  1
 19 13  1  0
 20 18  1  0
 21 20  2  0
 22 20  1  0
 23 29  1  0
 23 22  1  0
 23 24  1  1
 25 24  1  0
 26 27  1  0
 26 25  1  0
 27 28  1  0
 29 31  1  0
 30 29  2  0
M  END
$$$$
