WTK.pdb
     RDKit          3D

 31 32  0  0  1  0  0  0  0  0999 V2000
    8.8788  -15.8260   21.5093 N   0  0  0  0  0  0  0  0  0  0  0  0
    8.7246  -15.9300   22.9845 C   0  0  1  0  0  0  0  0  0  0  0  0
    7.3654  -15.4182   23.2804 C   0  0  0  0  0  0  0  0  0  0  0  0
    7.2144  -13.9819   23.4495 C   0  0  0  0  0  0  0  0  0  0  0  0
    7.2087  -13.0370   22.4429 C   0  0  0  0  0  0  0  0  0  0  0  0
    7.0633  -11.8465   23.0467 N   0  0  0  0  0  0  0  0  0  0  0  0
    6.9780  -11.9982   24.3693 C   0  0  0  0  0  0  0  0  0  0  0  0
    6.8070  -11.1182   25.4237 C   0  0  0  0  0  0  0  0  0  0  0  0
    6.7334  -11.6020   26.7191 C   0  0  0  0  0  0  0  0  0  0  0  0
    6.8269  -12.9585   27.0025 C   0  0  0  0  0  0  0  0  0  0  0  0
    6.9975  -13.8272   25.9535 C   0  0  0  0  0  0  0  0  0  0  0  0
    7.0700  -13.3384   24.6638 C   0  0  0  0  0  0  0  0  0  0  0  0
    9.0278  -17.3163   23.3433 C   0  0  0  0  0  0  0  0  0  0  0  0
    8.2531  -18.2641   22.9711 O   0  0  0  0  0  0  0  0  0  0  0  0
    9.4517  -19.9854   22.1309 C   0  0  0  0  0  0  0  0  0  0  0  0
   10.6764  -19.8240   22.9634 C   0  0  1  0  0  0  0  0  0  0  0  0
   11.6308  -19.0219   22.3109 O   0  0  0  0  0  0  0  0  0  0  0  0
   10.4231  -19.1850   24.3298 C   0  0  2  0  0  0  0  0  0  0  0  0
   10.1647  -17.7440   24.1002 N   0  0  0  0  0  0  0  0  0  0  0  0
   11.6007  -19.2998   25.1790 C   0  0  0  0  0  0  0  0  0  0  0  0
   12.3528  -18.2668   25.3302 O   0  0  0  0  0  0  0  0  0  0  0  0
   12.0009  -20.4673   25.8713 N   0  0  0  0  0  0  0  0  0  0  0  0
   12.9810  -20.3755   26.9598 C   0  0  1  0  0  0  0  0  0  0  0  0
   12.2875  -20.4647   28.2822 C   0  0  0  0  0  0  0  0  0  0  0  0
   13.2608  -20.4523   29.4155 C   0  0  0  0  0  0  0  0  0  0  0  0
   12.5702  -20.4329   30.7695 C   0  0  0  0  0  0  0  0  0  0  0  0
   13.5982  -20.3563   31.8860 C   0  0  0  0  0  0  0  0  0  0  0  0
   12.9202  -20.2936   33.1620 N   0  0  0  0  0  0  0  0  0  0  0  0
   13.9558  -21.4755   26.8149 C   0  0  0  0  0  0  0  0  0  0  0  0
   13.5715  -22.6404   26.4864 O   0  0  0  0  0  0  0  0  0  0  0  0
   15.3135  -21.3322   27.0145 O   0  0  0  0  0  0  0  0  0  0  0  0
  2  1  1  6
  3  2  1  0
  4  5  2  0
  4  3  1  0
  6  5  1  0
  7 12  2  0
  7  6  1  0
  8  7  1  0
  9 10  1  0
  9  8  2  0
 10 11  2  0
 11 12  1  0
 12  4  1  0
 13 14  2  0
 13  2  1  0
 16 15  1  6
 16 18  1  0
 17 16  1  0
 18 19  1  6
 19 13  1  0
 20 18  1  0
 21 20  2  0
 22 20  1  0
 23 29  1  0
 23 22  1  0
 23 24  1  1
 25 24  1  0
 26 27  1  0
 26 25  1  0
 27 28  1  0
 29 31  1  0
 30 29  2  0
M  END
$$$$
