WTK.pdb
     RDKit          3D

 31 32  0  0  1  0  0  0  0  0999 V2000
    6.4618  -17.4327   23.8075 N   0  0  0  0  0  0  0  0  0  0  0  0
    7.3619  -16.3424   23.3473 C   0  0  1  0  0  0  0  0  0  0  0  0
    7.9027  -15.7242   24.5812 C   0  0  0  0  0  0  0  0  0  0  0  0
    6.9695  -15.0023   25.4311 C   0  0  0  0  0  0  0  0  0  0  0  0
    5.9915  -15.5609   26.2294 C   0  0  0  0  0  0  0  0  0  0  0  0
    5.3578  -14.5349   26.8199 N   0  0  0  0  0  0  0  0  0  0  0  0
    5.8864  -13.3723   26.4347 C   0  0  0  0  0  0  0  0  0  0  0  0
    5.6238  -12.0508   26.7512 C   0  0  0  0  0  0  0  0  0  0  0  0
    6.3855  -11.0427   26.1844 C   0  0  0  0  0  0  0  0  0  0  0  0
    7.4184  -11.3141   25.2964 C   0  0  0  0  0  0  0  0  0  0  0  0
    7.6744  -12.6262   24.9849 C   0  0  0  0  0  0  0  0  0  0  0  0
    6.9111  -13.6271   25.5536 C   0  0  0  0  0  0  0  0  0  0  0  0
    8.3111  -16.9463   22.4110 C   0  0  0  0  0  0  0  0  0  0  0  0
    7.9776  -17.9743   21.7262 O   0  0  0  0  0  0  0  0  0  0  0  0
    8.1267  -16.8865   19.7636 C   0  0  0  0  0  0  0  0  0  0  0  0
    9.5404  -16.4176   19.7414 C   0  0  1  0  0  0  0  0  0  0  0  0
    9.6080  -15.0122   19.7196 O   0  0  0  0  0  0  0  0  0  0  0  0
   10.3709  -16.8807   20.9395 C   0  0  2  0  0  0  0  0  0  0  0  0
    9.6401  -16.4763   22.1637 N   0  0  0  0  0  0  0  0  0  0  0  0
   11.6689  -16.2203   20.9532 C   0  0  0  0  0  0  0  0  0  0  0  0
   11.7076  -14.9382   20.8517 O   0  0  0  0  0  0  0  0  0  0  0  0
   12.9187  -16.8727   21.0742 N   0  0  0  0  0  0  0  0  0  0  0  0
   13.5457  -17.0191   22.3931 C   0  0  1  0  0  0  0  0  0  0  0  0
   12.5833  -17.6475   23.3505 C   0  0  0  0  0  0  0  0  0  0  0  0
   13.2212  -17.9163   24.6745 C   0  0  0  0  0  0  0  0  0  0  0  0
   12.2975  -18.6688   25.6183 C   0  0  0  0  0  0  0  0  0  0  0  0
   12.9608  -18.8511   26.9733 C   0  0  0  0  0  0  0  0  0  0  0  0
   12.0768  -19.5904   27.8471 N   0  0  0  0  0  0  0  0  0  0  0  0
   14.7540  -17.8569   22.2539 C   0  0  0  0  0  0  0  0  0  0  0  0
   14.7085  -18.9566   21.6206 O   0  0  0  0  0  0  0  0  0  0  0  0
   15.9859  -17.5243   22.7789 O   0  0  0  0  0  0  0  0  0  0  0  0
  2  1  1  1
  3  2  1  0
  4  5  2  0
  4  3  1  0
  6  5  1  0
  7 12  2  0
  7  6  1  0
  8  7  1  0
  9 10  1  0
  9  8  2  0
 10 11  2  0
 11 12  1  0
 12  4  1  0
 13 14  2  0
 13  2  1  0
 16 15  1  1
 16 18  1  0
 17 16  1  0
 18 19  1  1
 19 13  1  0
 20 18  1  0
 21 20  2  0
 22 20  1  0
 23 29  1  0
 23 22  1  0
 23 24  1  1
 25 24  1  0
 26 27  1  0
 26 25  1  0
 27 28  1  0
 29 31  1  0
 30 29  2  0
M  END
$$$$
