WTK.pdb
     RDKit          3D

 31 32  0  0  1  0  0  0  0  0999 V2000
    6.6273  -17.4011   23.4895 N   0  0  0  0  0  0  0  0  0  0  0  0
    7.8184  -16.5262   23.3265 C   0  0  1  0  0  0  0  0  0  0  0  0
    8.1761  -16.0809   24.6943 C   0  0  0  0  0  0  0  0  0  0  0  0
    7.2333  -15.2140   25.3828 C   0  0  0  0  0  0  0  0  0  0  0  0
    5.9779  -15.5684   25.8350 C   0  0  0  0  0  0  0  0  0  0  0  0
    5.4530  -14.4635   26.3889 N   0  0  0  0  0  0  0  0  0  0  0  0
    6.3101  -13.4447   26.3070 C   0  0  0  0  0  0  0  0  0  0  0  0
    6.2722  -12.1269   26.7284 C   0  0  0  0  0  0  0  0  0  0  0  0
    7.3624  -11.3020   26.5076 C   0  0  0  0  0  0  0  0  0  0  0  0
    8.5090  -11.7560   25.8686 C   0  0  0  0  0  0  0  0  0  0  0  0
    8.5414  -13.0633   25.4516 C   0  0  0  0  0  0  0  0  0  0  0  0
    7.4509  -13.8811   25.6750 C   0  0  0  0  0  0  0  0  0  0  0  0
    8.8096  -17.2989   22.5765 C   0  0  0  0  0  0  0  0  0  0  0  0
    8.8872  -18.5673   22.7252 O   0  0  0  0  0  0  0  0  0  0  0  0
   10.5530  -16.6419   18.9182 C   0  0  0  0  0  0  0  0  0  0  0  0
   11.5424  -16.8398   20.0141 C   0  0  1  0  0  0  0  0  0  0  0  0
   12.0939  -15.6127   20.4268 O   0  0  0  0  0  0  0  0  0  0  0  0
   10.9651  -17.5066   21.2638 C   0  0  2  0  0  0  0  0  0  0  0  0
    9.7445  -16.7547   21.6393 N   0  0  0  0  0  0  0  0  0  0  0  0
   11.9038  -17.4212   22.3740 C   0  0  0  0  0  0  0  0  0  0  0  0
   11.8601  -16.3867   23.1380 O   0  0  0  0  0  0  0  0  0  0  0  0
   12.8785  -18.3941   22.6995 N   0  0  0  0  0  0  0  0  0  0  0  0
   13.5787  -18.3291   23.9876 C   0  0  1  0  0  0  0  0  0  0  0  0
   13.1014  -19.4261   24.8857 C   0  0  0  0  0  0  0  0  0  0  0  0
   13.9334  -19.5254   26.1226 C   0  0  0  0  0  0  0  0  0  0  0  0
   13.4970  -20.6707   27.0216 C   0  0  0  0  0  0  0  0  0  0  0  0
   14.3155  -20.6791   28.3019 C   0  0  0  0  0  0  0  0  0  0  0  0
   15.4566  -21.5525   28.1388 N   0  0  0  0  0  0  0  0  0  0  0  0
   15.0301  -18.4571   23.7459 C   0  0  0  0  0  0  0  0  0  0  0  0
   15.4663  -18.8272   22.6122 O   0  0  0  0  0  0  0  0  0  0  0  0
   15.9950  -18.1923   24.6960 O   0  0  0  0  0  0  0  0  0  0  0  0
  2  1  1  1
  3  2  1  0
  4  5  2  0
  4  3  1  0
  6  5  1  0
  7 12  2  0
  7  6  1  0
  8  7  1  0
  9 10  1  0
  9  8  2  0
 10 11  2  0
 11 12  1  0
 12  4  1  0
 13 14  2  0
 13  2  1  0
 16 15  1  6
 16 18  1  0
 17 16  1  0
 18 19  1  1
 19 13  1  0
 20 18  1  0
 21 20  2  0
 22 20  1  0
 23 29  1  0
 23 22  1  0
 23 24  1  1
 25 24  1  0
 26 27  1  0
 26 25  1  0
 27 28  1  0
 29 31  1  0
 30 29  2  0
M  END
$$$$
