WTK.pdb
     RDKit          3D

 31 32  0  0  1  0  0  0  0  0999 V2000
    6.2861  -18.7718   24.5308 N   0  0  0  0  0  0  0  0  0  0  0  0
    6.3163  -17.7088   23.4915 C   0  0  1  0  0  0  0  0  0  0  0  0
    5.7833  -16.4924   24.1498 C   0  0  0  0  0  0  0  0  0  0  0  0
    6.5672  -15.9209   25.2330 C   0  0  0  0  0  0  0  0  0  0  0  0
    7.0475  -16.5952   26.3377 C   0  0  0  0  0  0  0  0  0  0  0  0
    7.6954  -15.6839   27.0812 N   0  0  0  0  0  0  0  0  0  0  0  0
    7.6452  -14.4835   26.5014 C   0  0  0  0  0  0  0  0  0  0  0  0
    8.1545  -13.2398   26.8320 C   0  0  0  0  0  0  0  0  0  0  0  0
    7.9431  -12.1628   25.9876 C   0  0  0  0  0  0  0  0  0  0  0  0
    7.2274  -12.2875   24.8038 C   0  0  0  0  0  0  0  0  0  0  0  0
    6.7235  -13.5228   24.4808 C   0  0  0  0  0  0  0  0  0  0  0  0
    6.9378  -14.5930   25.3271 C   0  0  0  0  0  0  0  0  0  0  0  0
    7.6846  -17.6639   22.9740 C   0  0  0  0  0  0  0  0  0  0  0  0
    8.4254  -18.7063   23.0153 O   0  0  0  0  0  0  0  0  0  0  0  0
    8.7332  -15.7570   19.4606 C   0  0  0  0  0  0  0  0  0  0  0  0
    9.6425  -15.5318   20.6187 C   0  0  1  0  0  0  0  0  0  0  0  0
    9.3304  -14.3307   21.2822 O   0  0  0  0  0  0  0  0  0  0  0  0
    9.5999  -16.6409   21.6712 C   0  0  2  0  0  0  0  0  0  0  0  0
    8.3093  -16.5169   22.3888 N   0  0  0  0  0  0  0  0  0  0  0  0
   10.6716  -16.4713   22.6427 C   0  0  0  0  0  0  0  0  0  0  0  0
   11.8863  -16.4406   22.2192 O   0  0  0  0  0  0  0  0  0  0  0  0
   10.4962  -16.3303   24.0397 N   0  0  0  0  0  0  0  0  0  0  0  0
   11.6636  -16.3258   24.9292 C   0  0  1  0  0  0  0  0  0  0  0  0
   11.5341  -17.4122   25.9493 C   0  0  0  0  0  0  0  0  0  0  0  0
   12.7118  -17.4472   26.8679 C   0  0  0  0  0  0  0  0  0  0  0  0
   12.6357  -18.5954   27.8610 C   0  0  0  0  0  0  0  0  0  0  0  0
   13.8621  -18.6006   28.7581 C   0  0  0  0  0  0  0  0  0  0  0  0
   13.4463  -18.6361   30.1428 N   0  0  0  0  0  0  0  0  0  0  0  0
   12.8804  -16.5255   24.1165 C   0  0  0  0  0  0  0  0  0  0  0  0
   13.7362  -15.5953   23.9947 O   0  0  0  0  0  0  0  0  0  0  0  0
   13.1773  -17.6967   23.4500 O   0  0  0  0  0  0  0  0  0  0  0  0
  2  1  1  1
  3  2  1  0
  4  5  2  0
  4  3  1  0
  6  5  1  0
  7 12  2  0
  7  6  1  0
  8  7  1  0
  9 10  1  0
  9  8  2  0
 10 11  2  0
 11 12  1  0
 12  4  1  0
 13 14  2  0
 13  2  1  0
 16 15  1  6
 16 18  1  0
 17 16  1  0
 18 19  1  1
 19 13  1  0
 20 18  1  0
 21 20  2  0
 22 20  1  0
 23 29  1  0
 23 22  1  0
 23 24  1  1
 25 24  1  0
 26 27  1  0
 26 25  1  0
 27 28  1  0
 29 31  1  0
 30 29  2  0
M  END
$$$$
