WTK.pdb
     RDKit          3D

 31 32  0  0  1  0  0  0  0  0999 V2000
    6.2513  -17.3207   24.8327 N   0  0  0  0  0  0  0  0  0  0  0  0
    7.0919  -16.2530   24.2293 C   0  0  1  0  0  0  0  0  0  0  0  0
    7.6756  -15.5113   25.3722 C   0  0  0  0  0  0  0  0  0  0  0  0
    6.8523  -14.4868   25.9943 C   0  0  0  0  0  0  0  0  0  0  0  0
    5.7681  -14.7010   26.8217 C   0  0  0  0  0  0  0  0  0  0  0  0
    5.3000  -13.4858   27.1490 N   0  0  0  0  0  0  0  0  0  0  0  0
    6.0314  -12.5303   26.5732 C   0  0  0  0  0  0  0  0  0  0  0  0
    5.9879  -11.1472   26.5978 C   0  0  0  0  0  0  0  0  0  0  0  0
    6.9284  -10.4162   25.8914 C   0  0  0  0  0  0  0  0  0  0  0  0
    7.9279  -11.0302   25.1478 C   0  0  0  0  0  0  0  0  0  0  0  0
    7.9662  -12.4021   25.1256 C   0  0  0  0  0  0  0  0  0  0  0  0
    7.0255  -13.1254   25.8324 C   0  0  0  0  0  0  0  0  0  0  0  0
    8.0103  -16.9137   23.3007 C   0  0  0  0  0  0  0  0  0  0  0  0
    8.4052  -18.1100   23.5244 O   0  0  0  0  0  0  0  0  0  0  0  0
    8.0568  -16.2680   19.3183 C   0  0  0  0  0  0  0  0  0  0  0  0
    9.4342  -16.4550   19.8539 C   0  0  1  0  0  0  0  0  0  0  0  0
   10.1161  -15.2270   19.9389 O   0  0  0  0  0  0  0  0  0  0  0  0
    9.4824  -17.0838   21.2474 C   0  0  2  0  0  0  0  0  0  0  0  0
    8.5332  -16.3324   22.1020 N   0  0  0  0  0  0  0  0  0  0  0  0
   10.8114  -16.9497   21.8278 C   0  0  0  0  0  0  0  0  0  0  0  0
   11.1663  -15.8038   22.2933 O   0  0  0  0  0  0  0  0  0  0  0  0
   11.7681  -17.9871   21.9328 N   0  0  0  0  0  0  0  0  0  0  0  0
   13.0665  -17.7268   22.5654 C   0  0  1  0  0  0  0  0  0  0  0  0
   13.4570  -18.8849   23.4281 C   0  0  0  0  0  0  0  0  0  0  0  0
   12.6266  -18.9515   24.6682 C   0  0  0  0  0  0  0  0  0  0  0  0
   12.8781  -20.2219   25.4640 C   0  0  0  0  0  0  0  0  0  0  0  0
   11.9962  -20.2540   26.7010 C   0  0  0  0  0  0  0  0  0  0  0  0
   12.1816  -21.5104   27.3928 N   0  0  0  0  0  0  0  0  0  0  0  0
   14.0747  -17.5098   21.5082 C   0  0  0  0  0  0  0  0  0  0  0  0
   13.8947  -17.9714   20.3390 O   0  0  0  0  0  0  0  0  0  0  0  0
   15.2497  -16.8115   21.6967 O   0  0  0  0  0  0  0  0  0  0  0  0
  2  1  1  1
  3  2  1  0
  4  5  2  0
  4  3  1  0
  6  5  1  0
  7 12  2  0
  7  6  1  0
  8  7  1  0
  9 10  1  0
  9  8  2  0
 10 11  2  0
 11 12  1  0
 12  4  1  0
 13 14  2  0
 13  2  1  0
 16 15  1  1
 16 18  1  0
 17 16  1  0
 18 19  1  1
 19 13  1  0
 20 18  1  0
 21 20  2  0
 22 20  1  0
 23 29  1  0
 23 22  1  0
 23 24  1  6
 25 24  1  0
 26 27  1  0
 26 25  1  0
 27 28  1  0
 29 31  1  0
 30 29  2  0
M  END
$$$$
