WTK.pdb
     RDKit          3D

 31 32  0  0  1  0  0  0  0  0999 V2000
    6.2966  -17.0907   24.9838 N   0  0  0  0  0  0  0  0  0  0  0  0
    6.9311  -15.9391   24.2896 C   0  0  1  0  0  0  0  0  0  0  0  0
    8.0322  -15.4958   25.1774 C   0  0  0  0  0  0  0  0  0  0  0  0
    7.6657  -14.7947   26.3974 C   0  0  0  0  0  0  0  0  0  0  0  0
    7.4942  -15.3610   27.6448 C   0  0  0  0  0  0  0  0  0  0  0  0
    7.1443  -14.3586   28.4669 N   0  0  0  0  0  0  0  0  0  0  0  0
    7.0893  -13.2035   27.8020 C   0  0  0  0  0  0  0  0  0  0  0  0
    6.8046  -11.9003   28.1709 C   0  0  0  0  0  0  0  0  0  0  0  0
    6.8543  -10.8905   27.2246 C   0  0  0  0  0  0  0  0  0  0  0  0
    7.1840  -11.1422   25.8991 C   0  0  0  0  0  0  0  0  0  0  0  0
    7.4646  -12.4364   25.5378 C   0  0  0  0  0  0  0  0  0  0  0  0
    7.4134  -13.4390   26.4864 C   0  0  0  0  0  0  0  0  0  0  0  0
    7.2786  -16.3975   22.9437 C   0  0  0  0  0  0  0  0  0  0  0  0
    7.3288  -17.6486   22.6803 O   0  0  0  0  0  0  0  0  0  0  0  0
    6.9997  -14.2922   19.4542 C   0  0  0  0  0  0  0  0  0  0  0  0
    8.3184  -14.9703   19.5966 C   0  0  1  0  0  0  0  0  0  0  0  0
    9.3307  -14.0475   19.9191 O   0  0  0  0  0  0  0  0  0  0  0  0
    8.3500  -16.0545   20.6751 C   0  0  2  0  0  0  0  0  0  0  0  0
    7.5759  -15.5464   21.8321 N   0  0  0  0  0  0  0  0  0  0  0  0
    9.7148  -16.2988   21.1208 C   0  0  0  0  0  0  0  0  0  0  0  0
   10.1492  -15.6598   22.1497 O   0  0  0  0  0  0  0  0  0  0  0  0
   10.6260  -17.1965   20.5157 N   0  0  0  0  0  0  0  0  0  0  0  0
   11.9056  -17.4952   21.1694 C   0  0  1  0  0  0  0  0  0  0  0  0
   11.7994  -18.7704   21.9442 C   0  0  0  0  0  0  0  0  0  0  0  0
   13.1114  -19.1613   22.5423 C   0  0  0  0  0  0  0  0  0  0  0  0
   12.9955  -20.3813   23.4415 C   0  0  0  0  0  0  0  0  0  0  0  0
   14.3289  -20.6749   24.1086 C   0  0  0  0  0  0  0  0  0  0  0  0
   14.1965  -21.8362   24.9602 N   0  0  0  0  0  0  0  0  0  0  0  0
   12.9527  -17.6080   20.1339 C   0  0  0  0  0  0  0  0  0  0  0  0
   14.1615  -17.8229   20.4579 O   0  0  0  0  0  0  0  0  0  0  0  0
   12.7115  -17.4961   18.7799 O   0  0  0  0  0  0  0  0  0  0  0  0
  2  1  1  1
  3  2  1  0
  4  5  2  0
  4  3  1  0
  6  5  1  0
  7 12  2  0
  7  6  1  0
  8  7  1  0
  9 10  1  0
  9  8  2  0
 10 11  2  0
 11 12  1  0
 12  4  1  0
 13 14  2  0
 13  2  1  0
 16 15  1  1
 16 18  1  0
 17 16  1  0
 18 19  1  1
 19 13  1  0
 20 18  1  0
 21 20  2  0
 22 20  1  0
 23 29  1  0
 23 22  1  0
 23 24  1  6
 25 24  1  0
 26 27  1  0
 26 25  1  0
 27 28  1  0
 29 31  1  0
 30 29  2  0
M  END
$$$$
