WTK.pdb
     RDKit          3D

 31 32  0  0  1  0  0  0  0  0999 V2000
    6.5546  -16.4970   25.3276 N   0  0  0  0  0  0  0  0  0  0  0  0
    7.2121  -15.4261   24.5328 C   0  0  1  0  0  0  0  0  0  0  0  0
    8.3832  -14.9972   25.3336 C   0  0  0  0  0  0  0  0  0  0  0  0
    8.1235  -14.2117   26.5294 C   0  0  0  0  0  0  0  0  0  0  0  0
    8.5904  -14.4802   27.8006 C   0  0  0  0  0  0  0  0  0  0  0  0
    8.0966  -13.5154   28.5932 N   0  0  0  0  0  0  0  0  0  0  0  0
    7.3509  -12.6638   27.8874 C   0  0  0  0  0  0  0  0  0  0  0  0
    6.6483  -11.5153   28.2081 C   0  0  0  0  0  0  0  0  0  0  0  0
    5.9725  -10.8226   27.2176 C   0  0  0  0  0  0  0  0  0  0  0  0
    5.9740  -11.2455   25.8946 C   0  0  0  0  0  0  0  0  0  0  0  0
    6.6713  -12.3856   25.5817 C   0  0  0  0  0  0  0  0  0  0  0  0
    7.3434  -13.0719   26.5742 C   0  0  0  0  0  0  0  0  0  0  0  0
    7.4590  -15.9809   23.2010 C   0  0  0  0  0  0  0  0  0  0  0  0
    7.3932  -17.2435   23.0048 O   0  0  0  0  0  0  0  0  0  0  0  0
    6.7141  -14.1430   19.7192 C   0  0  0  0  0  0  0  0  0  0  0  0
    7.9974  -14.8951   19.6398 C   0  0  1  0  0  0  0  0  0  0  0  0
    9.0992  -14.0199   19.6472 O   0  0  0  0  0  0  0  0  0  0  0  0
    8.2130  -15.8854   20.7855 C   0  0  2  0  0  0  0  0  0  0  0  0
    7.7752  -15.2163   22.0332 N   0  0  0  0  0  0  0  0  0  0  0  0
    9.6250  -16.2139   20.9242 C   0  0  0  0  0  0  0  0  0  0  0  0
   10.2604  -15.7739   21.9530 O   0  0  0  0  0  0  0  0  0  0  0  0
   10.3783  -16.9925   20.0139 N   0  0  0  0  0  0  0  0  0  0  0  0
   11.6052  -17.6623   20.4612 C   0  0  1  0  0  0  0  0  0  0  0  0
   11.2726  -18.9888   21.0673 C   0  0  0  0  0  0  0  0  0  0  0  0
   12.5044  -19.7666   21.3983 C   0  0  0  0  0  0  0  0  0  0  0  0
   12.1868  -21.0945   22.0663 C   0  0  0  0  0  0  0  0  0  0  0  0
   13.4055  -22.0020   22.0444 C   0  0  0  0  0  0  0  0  0  0  0  0
   14.1596  -21.8259   23.2658 N   0  0  0  0  0  0  0  0  0  0  0  0
   12.5009  -17.8372   19.3000 C   0  0  0  0  0  0  0  0  0  0  0  0
   12.0248  -17.9556   18.1287 O   0  0  0  0  0  0  0  0  0  0  0  0
   13.8771  -17.8820   19.3892 O   0  0  0  0  0  0  0  0  0  0  0  0
  2  1  1  1
  3  2  1  0
  4  5  2  0
  4  3  1  0
  6  5  1  0
  7 12  2  0
  7  6  1  0
  8  7  1  0
  9 10  1  0
  9  8  2  0
 10 11  2  0
 11 12  1  0
 12  4  1  0
 13 14  2  0
 13  2  1  0
 16 15  1  1
 16 18  1  0
 17 16  1  0
 18 19  1  1
 19 13  1  0
 20 18  1  0
 21 20  2  0
 22 20  1  0
 23 29  1  0
 23 22  1  0
 23 24  1  6
 25 24  1  0
 26 27  1  0
 26 25  1  0
 27 28  1  0
 29 31  1  0
 30 29  2  0
M  END
$$$$
