YKF.pdb
     RDKit          3D

 33 34  0  0  1  0  0  0  0  0999 V2000
    8.6594  -12.8157   15.9105 O   0  0  0  0  0  0  0  0  0  0  0  0
    8.1639  -13.2855   17.1217 C   0  0  0  0  0  0  0  0  0  0  0  0
    7.4483  -14.4699   17.2349 C   0  0  0  0  0  0  0  0  0  0  0  0
    6.9666  -14.9245   18.4419 C   0  0  0  0  0  0  0  0  0  0  0  0
    7.2127  -14.1675   19.5459 C   0  0  0  0  0  0  0  0  0  0  0  0
    6.7162  -14.6186   20.8731 C   0  0  0  0  0  0  0  0  0  0  0  0
    7.8528  -15.1103   21.7421 C   0  0  2  0  0  0  0  0  0  0  0  0
    8.6189  -16.0715   20.9570 N   0  0  0  0  0  0  0  0  0  0  0  0
    7.2594  -15.7598   22.9469 C   0  0  0  0  0  0  0  0  0  0  0  0
    6.4595  -15.1587   23.6962 O   0  0  0  0  0  0  0  0  0  0  0  0
    7.9216  -12.9829   19.4723 C   0  0  0  0  0  0  0  0  0  0  0  0
    8.4001  -12.5428   18.2409 C   0  0  0  0  0  0  0  0  0  0  0  0
    7.5961  -17.1023   23.2825 N   0  0  0  0  0  0  0  0  0  0  0  0
    7.0658  -17.8211   24.4307 C   0  0  1  0  0  0  0  0  0  0  0  0
    7.2095  -19.2819   24.1717 C   0  0  0  0  0  0  0  0  0  0  0  0
    6.7087  -20.1701   25.2612 C   0  0  0  0  0  0  0  0  0  0  0  0
    6.3442  -21.5186   24.6181 C   0  0  0  0  0  0  0  0  0  0  0  0
    5.8258  -22.4725   25.6849 C   0  0  0  0  0  0  0  0  0  0  0  0
    5.3629  -23.6627   24.9966 N   0  0  0  0  0  0  0  0  0  0  0  0
    7.7854  -17.3426   25.6386 C   0  0  0  0  0  0  0  0  0  0  0  0
    7.3529  -17.6204   26.7699 O   0  0  0  0  0  0  0  0  0  0  0  0
    8.9440  -16.5804   25.4913 N   0  0  0  0  0  0  0  0  0  0  0  0
    9.5571  -15.8684   26.5889 C   0  0  1  0  0  0  0  0  0  0  0  0
    8.4808  -15.1136   27.2865 C   0  0  0  0  0  0  0  0  0  0  0  0
    7.9249  -13.9585   26.5672 C   0  0  0  0  0  0  0  0  0  0  0  0
    8.6590  -12.7981   26.4098 C   0  0  0  0  0  0  0  0  0  0  0  0
    8.0960  -11.7324   25.7113 C   0  0  0  0  0  0  0  0  0  0  0  0
    6.8363  -11.7659   25.1645 C   0  0  0  0  0  0  0  0  0  0  0  0
    6.1055  -12.9309   25.3267 C   0  0  0  0  0  0  0  0  0  0  0  0
    6.6465  -13.9855   26.0087 C   0  0  0  0  0  0  0  0  0  0  0  0
   10.2840  -16.8233   27.4968 C   0  0  0  0  0  0  0  0  0  0  0  0
   10.8852  -16.4543   28.5164 O   0  0  0  0  0  0  0  0  0  0  0  0
   10.2685  -18.1595   27.1718 O   0  0  0  0  0  0  0  0  0  0  0  0
  2  1  1  0
  3  2  2  0
  4  3  1  0
  5 11  1  0
  5  4  2  0
  6  5  1  0
  7  9  1  0
  7  6  1  0
  7  8  1  6
  9 10  2  0
 11 12  2  0
 12  2  1  0
 13 14  1  0
 13  9  1  0
 15 16  1  0
 14 15  1  6
 17 16  1  0
 18 17  1  0
 19 18  1  0
 20 22  1  0
 20 14  1  0
 21 20  2  0
 23 22  1  0
 23 24  1  1
 24 25  1  0
 25 30  1  0
 26 25  2  0
 26 27  1  0
 27 28  2  0
 28 29  1  0
 30 29  2  0
 31 23  1  0
 32 31  2  0
 33 31  1  0
M  END
$$$$
