YKF.pdb
     RDKit          3D

 33 34  0  0  1  0  0  0  0  0999 V2000
   16.5528  -14.6571   17.4592 O   0  0  0  0  0  0  0  0  0  0  0  0
   15.3685  -14.5595   18.1811 C   0  0  0  0  0  0  0  0  0  0  0  0
   14.1185  -14.7511   17.6081 C   0  0  0  0  0  0  0  0  0  0  0  0
   12.9540  -14.6546   18.3365 C   0  0  0  0  0  0  0  0  0  0  0  0
   13.0599  -14.3587   19.6607 C   0  0  0  0  0  0  0  0  0  0  0  0
   11.8306  -14.2475   20.4904 C   0  0  0  0  0  0  0  0  0  0  0  0
   10.5958  -14.5824   19.6830 C   0  0  2  0  0  0  0  0  0  0  0  0
   10.5238  -13.6313   18.5797 N   0  0  0  0  0  0  0  0  0  0  0  0
    9.4120  -14.4470   20.5806 C   0  0  0  0  0  0  0  0  0  0  0  0
    8.6493  -13.4581   20.5252 O   0  0  0  0  0  0  0  0  0  0  0  0
   14.2869  -14.1614   20.2661 C   0  0  0  0  0  0  0  0  0  0  0  0
   15.4517  -14.2649   19.5101 C   0  0  0  0  0  0  0  0  0  0  0  0
    9.1163  -15.4552   21.5421 N   0  0  0  0  0  0  0  0  0  0  0  0
    7.7752  -15.7958   21.9913 C   0  0  1  0  0  0  0  0  0  0  0  0
    7.2632  -16.9001   21.1311 C   0  0  0  0  0  0  0  0  0  0  0  0
    5.8767  -17.3548   21.4437 C   0  0  0  0  0  0  0  0  0  0  0  0
    5.4937  -18.4064   20.3890 C   0  0  0  0  0  0  0  0  0  0  0  0
    6.4247  -19.6056   20.4982 C   0  0  0  0  0  0  0  0  0  0  0  0
    6.0322  -20.5395   19.4599 N   0  0  0  0  0  0  0  0  0  0  0  0
    7.8516  -16.1335   23.4355 C   0  0  0  0  0  0  0  0  0  0  0  0
    6.8106  -16.3484   24.0790 O   0  0  0  0  0  0  0  0  0  0  0  0
    9.0968  -16.2043   24.0597 N   0  0  0  0  0  0  0  0  0  0  0  0
    9.3387  -15.6820   25.3849 C   0  0  1  0  0  0  0  0  0  0  0  0
    8.0223  -15.5847   26.0723 C   0  0  0  0  0  0  0  0  0  0  0  0
    7.4812  -14.2299   26.2530 C   0  0  0  0  0  0  0  0  0  0  0  0
    8.0043  -13.3764   27.2059 C   0  0  0  0  0  0  0  0  0  0  0  0
    7.4673  -12.0975   27.3345 C   0  0  0  0  0  0  0  0  0  0  0  0
    6.4327  -11.6289   26.5619 C   0  0  0  0  0  0  0  0  0  0  0  0
    5.9122  -12.4894   25.6099 C   0  0  0  0  0  0  0  0  0  0  0  0
    6.4310  -13.7471   25.4716 C   0  0  0  0  0  0  0  0  0  0  0  0
   10.3207  -16.5508   26.1233 C   0  0  0  0  0  0  0  0  0  0  0  0
   10.6581  -16.3351   27.2967 O   0  0  0  0  0  0  0  0  0  0  0  0
   10.8551  -17.6288   25.4572 O   0  0  0  0  0  0  0  0  0  0  0  0
  2  1  1  0
  3  2  2  0
  4  3  1  0
  5 11  1  0
  5  4  2  0
  6  5  1  0
  7  9  1  0
  7  6  1  0
  7  8  1  6
  9 10  2  0
 11 12  2  0
 12  2  1  0
 13 14  1  0
 13  9  1  0
 15 16  1  0
 14 15  1  6
 17 16  1  0
 18 17  1  0
 19 18  1  0
 20 22  1  0
 20 14  1  0
 21 20  2  0
 23 22  1  0
 23 24  1  1
 24 25  1  0
 25 30  1  0
 26 25  2  0
 26 27  1  0
 27 28  2  0
 28 29  1  0
 30 29  2  0
 31 23  1  0
 32 31  2  0
 33 31  1  0
M  END
$$$$
