YKF.pdb
     RDKit          3D

 33 34  0  0  1  0  0  0  0  0999 V2000
    1.8140  -22.7136   23.8325 O   0  0  0  0  0  0  0  0  0  0  0  0
    2.9053  -21.8551   23.7594 C   0  0  0  0  0  0  0  0  0  0  0  0
    2.9220  -20.7242   22.9542 C   0  0  0  0  0  0  0  0  0  0  0  0
    4.0089  -19.8810   22.8945 C   0  0  0  0  0  0  0  0  0  0  0  0
    5.0912  -20.1904   23.6595 C   0  0  0  0  0  0  0  0  0  0  0  0
    6.2880  -19.3080   23.6322 C   0  0  0  0  0  0  0  0  0  0  0  0
    6.7145  -19.0116   22.2112 C   0  0  2  0  0  0  0  0  0  0  0  0
    6.9997  -20.2878   21.5654 N   0  0  0  0  0  0  0  0  0  0  0  0
    7.9375  -18.1594   22.2693 C   0  0  0  0  0  0  0  0  0  0  0  0
    9.0819  -18.6508   22.3771 O   0  0  0  0  0  0  0  0  0  0  0  0
    5.1111  -21.3076   24.4736 C   0  0  0  0  0  0  0  0  0  0  0  0
    4.0002  -22.1458   24.5188 C   0  0  0  0  0  0  0  0  0  0  0  0
    7.8320  -16.7406   22.2055 N   0  0  0  0  0  0  0  0  0  0  0  0
    8.9412  -15.8453   21.9147 C   0  0  1  0  0  0  0  0  0  0  0  0
    8.3956  -14.6327   21.2412 C   0  0  0  0  0  0  0  0  0  0  0  0
    7.9923  -14.8268   19.8177 C   0  0  0  0  0  0  0  0  0  0  0  0
    8.2905  -13.5128   19.0765 C   0  0  0  0  0  0  0  0  0  0  0  0
    7.8038  -13.6132   17.6378 C   0  0  0  0  0  0  0  0  0  0  0  0
    8.2342  -12.4038   16.9622 N   0  0  0  0  0  0  0  0  0  0  0  0
    9.6480  -15.5676   23.1910 C   0  0  0  0  0  0  0  0  0  0  0  0
   10.6818  -14.8781   23.1912 O   0  0  0  0  0  0  0  0  0  0  0  0
    9.1439  -16.0876   24.3828 N   0  0  0  0  0  0  0  0  0  0  0  0
    9.7979  -15.8991   25.6574 C   0  0  1  0  0  0  0  0  0  0  0  0
    9.8078  -14.4381   25.9408 C   0  0  0  0  0  0  0  0  0  0  0  0
    8.4969  -13.8071   26.1509 C   0  0  0  0  0  0  0  0  0  0  0  0
    8.2235  -13.1035   27.3086 C   0  0  0  0  0  0  0  0  0  0  0  0
    6.9711  -12.5128   27.4599 C   0  0  0  0  0  0  0  0  0  0  0  0
    5.9770  -12.5916   26.5152 C   0  0  0  0  0  0  0  0  0  0  0  0
    6.2568  -13.2991   25.3581 C   0  0  0  0  0  0  0  0  0  0  0  0
    7.4828  -13.8826   25.1955 C   0  0  0  0  0  0  0  0  0  0  0  0
    9.1057  -16.6976   26.7286 C   0  0  0  0  0  0  0  0  0  0  0  0
    8.0736  -17.3513   26.5176 O   0  0  0  0  0  0  0  0  0  0  0  0
    9.6551  -16.6966   27.9894 O   0  0  0  0  0  0  0  0  0  0  0  0
  2  1  1  0
  3  2  2  0
  4  3  1  0
  5 11  1  0
  5  4  2  0
  6  5  1  0
  7  9  1  0
  7  6  1  0
  7  8  1  1
  9 10  2  0
 11 12  2  0
 12  2  1  0
 13 14  1  0
 13  9  1  0
 15 16  1  0
 14 15  1  1
 17 16  1  0
 18 17  1  0
 19 18  1  0
 20 22  1  0
 20 14  1  0
 21 20  2  0
 23 22  1  0
 23 24  1  1
 24 25  1  0
 25 30  1  0
 26 25  2  0
 26 27  1  0
 27 28  2  0
 28 29  1  0
 30 29  2  0
 31 23  1  0
 32 31  2  0
 33 31  1  0
M  END
$$$$
