YKF.pdb
     RDKit          3D

 33 34  0  0  1  0  0  0  0  0999 V2000
    8.4053  -13.7401   14.8839 O   0  0  0  0  0  0  0  0  0  0  0  0
    8.0256  -13.9558   16.2039 C   0  0  0  0  0  0  0  0  0  0  0  0
    7.3832  -15.1128   16.6239 C   0  0  0  0  0  0  0  0  0  0  0  0
    7.0160  -15.3142   17.9355 C   0  0  0  0  0  0  0  0  0  0  0  0
    7.3028  -14.3294   18.8302 C   0  0  0  0  0  0  0  0  0  0  0  0
    6.9296  -14.5021   20.2594 C   0  0  0  0  0  0  0  0  0  0  0  0
    8.1146  -14.9602   21.0808 C   0  0  2  0  0  0  0  0  0  0  0  0
    8.7693  -16.0340   20.3423 N   0  0  0  0  0  0  0  0  0  0  0  0
    7.5996  -15.4526   22.3914 C   0  0  0  0  0  0  0  0  0  0  0  0
    6.8757  -14.7457   23.1256 O   0  0  0  0  0  0  0  0  0  0  0  0
    7.9414  -13.1640   18.4492 C   0  0  0  0  0  0  0  0  0  0  0  0
    8.3044  -12.9822   17.1172 C   0  0  0  0  0  0  0  0  0  0  0  0
    7.9265  -16.7608   22.8497 N   0  0  0  0  0  0  0  0  0  0  0  0
    7.5256  -17.3055   24.1377 C   0  0  1  0  0  0  0  0  0  0  0  0
    7.4099  -18.7852   24.0011 C   0  0  0  0  0  0  0  0  0  0  0  0
    7.0050  -19.5057   25.2435 C   0  0  0  0  0  0  0  0  0  0  0  0
    7.0219  -21.0098   24.9238 C   0  0  0  0  0  0  0  0  0  0  0  0
    6.4481  -21.7905   26.0977 C   0  0  0  0  0  0  0  0  0  0  0  0
    6.5162  -23.1954   25.7428 N   0  0  0  0  0  0  0  0  0  0  0  0
    8.5199  -16.8625   25.1481 C   0  0  0  0  0  0  0  0  0  0  0  0
    9.7240  -16.7982   24.8479 O   0  0  0  0  0  0  0  0  0  0  0  0
    8.0913  -16.5233   26.4311 N   0  0  0  0  0  0  0  0  0  0  0  0
    8.9802  -15.9901   27.4377 C   0  0  1  0  0  0  0  0  0  0  0  0
    8.2357  -14.9323   28.1737 C   0  0  0  0  0  0  0  0  0  0  0  0
    7.6882  -13.8367   27.3610 C   0  0  0  0  0  0  0  0  0  0  0  0
    6.3240  -13.6813   27.2031 C   0  0  0  0  0  0  0  0  0  0  0  0
    5.8497  -12.6220   26.4328 C   0  0  0  0  0  0  0  0  0  0  0  0
    6.6686  -11.7119   25.8099 C   0  0  0  0  0  0  0  0  0  0  0  0
    8.0345  -11.8738   25.9710 C   0  0  0  0  0  0  0  0  0  0  0  0
    8.5138  -12.9083   26.7259 C   0  0  0  0  0  0  0  0  0  0  0  0
    9.4776  -17.0886   28.3377 C   0  0  0  0  0  0  0  0  0  0  0  0
   10.3076  -16.8948   29.2381 O   0  0  0  0  0  0  0  0  0  0  0  0
    8.9782  -18.3554   28.1449 O   0  0  0  0  0  0  0  0  0  0  0  0
  2  1  1  0
  3  2  2  0
  4  3  1  0
  5 11  1  0
  5  4  2  0
  6  5  1  0
  7  9  1  0
  7  6  1  0
  7  8  1  6
  9 10  2  0
 11 12  2  0
 12  2  1  0
 13 14  1  0
 13  9  1  0
 15 16  1  0
 14 15  1  6
 17 16  1  0
 18 17  1  0
 19 18  1  0
 20 22  1  0
 20 14  1  0
 21 20  2  0
 23 22  1  0
 23 24  1  1
 24 25  1  0
 25 30  1  0
 26 25  2  0
 26 27  1  0
 27 28  2  0
 28 29  1  0
 30 29  2  0
 31 23  1  0
 32 31  2  0
 33 31  1  0
M  END
$$$$
