YKF.pdb
     RDKit          3D

 33 34  0  0  1  0  0  0  0  0999 V2000
    7.8277  -11.7965   16.8716 O   0  0  0  0  0  0  0  0  0  0  0  0
    7.8817  -12.7348   17.8962 C   0  0  0  0  0  0  0  0  0  0  0  0
    8.9536  -13.6000   18.0701 C   0  0  0  0  0  0  0  0  0  0  0  0
    8.9949  -14.5221   19.0918 C   0  0  0  0  0  0  0  0  0  0  0  0
    7.9356  -14.5674   19.9451 C   0  0  0  0  0  0  0  0  0  0  0  0
    7.9355  -15.5439   21.0668 C   0  0  0  0  0  0  0  0  0  0  0  0
    8.1168  -16.9575   20.5591 C   0  0  2  0  0  0  0  0  0  0  0  0
    6.9262  -17.3018   19.7905 N   0  0  0  0  0  0  0  0  0  0  0  0
    8.2636  -17.8532   21.7430 C   0  0  0  0  0  0  0  0  0  0  0  0
    7.3604  -17.9716   22.5991 O   0  0  0  0  0  0  0  0  0  0  0  0
    6.8510  -13.7220   19.8037 C   0  0  0  0  0  0  0  0  0  0  0  0
    6.8311  -12.7965   18.7635 C   0  0  0  0  0  0  0  0  0  0  0  0
    9.4568  -18.6069   21.9340 N   0  0  0  0  0  0  0  0  0  0  0  0
    9.7981  -19.3103   23.1609 C   0  0  1  0  0  0  0  0  0  0  0  0
   10.6720  -20.4647   22.8072 C   0  0  0  0  0  0  0  0  0  0  0  0
    9.9839  -21.5879   22.1059 C   0  0  0  0  0  0  0  0  0  0  0  0
   11.0454  -22.6619   21.8152 C   0  0  0  0  0  0  0  0  0  0  0  0
   10.4169  -23.8062   21.0327 C   0  0  0  0  0  0  0  0  0  0  0  0
   11.4805  -24.7463   20.7339 N   0  0  0  0  0  0  0  0  0  0  0  0
   10.4250  -18.3323   24.0862 C   0  0  0  0  0  0  0  0  0  0  0  0
   11.2186  -17.4828   23.6476 O   0  0  0  0  0  0  0  0  0  0  0  0
   10.1174  -18.3782   25.4458 N   0  0  0  0  0  0  0  0  0  0  0  0
   10.6507  -17.4344   26.4010 C   0  0  1  0  0  0  0  0  0  0  0  0
    9.5183  -16.5932   26.8755 C   0  0  0  0  0  0  0  0  0  0  0  0
    9.8239  -15.6356   27.9480 C   0  0  0  0  0  0  0  0  0  0  0  0
    9.7139  -14.2740   27.7384 C   0  0  0  0  0  0  0  0  0  0  0  0
   10.0032  -13.4038   28.7870 C   0  0  0  0  0  0  0  0  0  0  0  0
   10.3995  -13.8244   30.0332 C   0  0  0  0  0  0  0  0  0  0  0  0
   10.5090  -15.1898   30.2364 C   0  0  0  0  0  0  0  0  0  0  0  0
   10.2264  -16.0555   29.2163 C   0  0  0  0  0  0  0  0  0  0  0  0
   11.3519  -18.1556   27.5201 C   0  0  0  0  0  0  0  0  0  0  0  0
   10.9529  -19.2375   27.9757 O   0  0  0  0  0  0  0  0  0  0  0  0
   12.4847  -17.5808   28.0471 O   0  0  0  0  0  0  0  0  0  0  0  0
  2  1  1  0
  3  2  2  0
  4  3  1  0
  5 11  1  0
  5  4  2  0
  6  5  1  0
  7  9  1  0
  7  6  1  0
  7  8  1  1
  9 10  2  0
 11 12  2  0
 12  2  1  0
 13 14  1  0
 13  9  1  0
 15 16  1  0
 14 15  1  6
 17 16  1  0
 18 17  1  0
 19 18  1  0
 20 22  1  0
 20 14  1  0
 21 20  2  0
 23 22  1  0
 23 24  1  1
 24 25  1  0
 25 30  1  0
 26 25  2  0
 26 27  1  0
 27 28  2  0
 28 29  1  0
 30 29  2  0
 31 23  1  0
 32 31  2  0
 33 31  1  0
M  END
$$$$
