YKF.pdb
     RDKit          3D

 33 34  0  0  1  0  0  0  0  0999 V2000
    3.3467  -23.6938   26.3598 O   0  0  0  0  0  0  0  0  0  0  0  0
    4.1927  -22.6713   25.9450 C   0  0  0  0  0  0  0  0  0  0  0  0
    5.4975  -22.5409   26.4014 C   0  0  0  0  0  0  0  0  0  0  0  0
    6.3252  -21.5249   25.9791 C   0  0  0  0  0  0  0  0  0  0  0  0
    5.8222  -20.6307   25.0848 C   0  0  0  0  0  0  0  0  0  0  0  0
    6.6789  -19.5178   24.5958 C   0  0  0  0  0  0  0  0  0  0  0  0
    6.6604  -19.4388   23.0851 C   0  0  2  0  0  0  0  0  0  0  0  0
    7.1484  -20.7149   22.5747 N   0  0  0  0  0  0  0  0  0  0  0  0
    7.5603  -18.3221   22.6745 C   0  0  0  0  0  0  0  0  0  0  0  0
    8.7850  -18.4927   22.4908 O   0  0  0  0  0  0  0  0  0  0  0  0
    4.5283  -20.7285   24.6079 C   0  0  0  0  0  0  0  0  0  0  0  0
    3.7092  -21.7648   25.0482 C   0  0  0  0  0  0  0  0  0  0  0  0
    7.0404  -17.0104   22.4808 N   0  0  0  0  0  0  0  0  0  0  0  0
    7.8499  -15.8420   22.1711 C   0  0  1  0  0  0  0  0  0  0  0  0
    7.0403  -14.9292   21.3150 C   0  0  0  0  0  0  0  0  0  0  0  0
    7.7556  -13.7101   20.8366 C   0  0  0  0  0  0  0  0  0  0  0  0
    7.8071  -13.7853   19.3014 C   0  0  0  0  0  0  0  0  0  0  0  0
    8.5247  -12.5608   18.7514 C   0  0  0  0  0  0  0  0  0  0  0  0
    8.5109  -12.6787   17.3056 N   0  0  0  0  0  0  0  0  0  0  0  0
    8.2912  -15.2412   23.4556 C   0  0  0  0  0  0  0  0  0  0  0  0
    8.0646  -14.0423   23.6908 O   0  0  0  0  0  0  0  0  0  0  0  0
    8.9612  -16.0313   24.3893 N   0  0  0  0  0  0  0  0  0  0  0  0
    9.2145  -15.5969   25.7439 C   0  0  1  0  0  0  0  0  0  0  0  0
    7.8959  -15.4474   26.4175 C   0  0  0  0  0  0  0  0  0  0  0  0
    7.2949  -14.1065   26.3808 C   0  0  0  0  0  0  0  0  0  0  0  0
    5.9290  -13.9426   26.2484 C   0  0  0  0  0  0  0  0  0  0  0  0
    5.4023  -12.6531   26.2293 C   0  0  0  0  0  0  0  0  0  0  0  0
    6.1707  -11.5192   26.3328 C   0  0  0  0  0  0  0  0  0  0  0  0
    7.5386  -11.6902   26.4639 C   0  0  0  0  0  0  0  0  0  0  0  0
    8.0690  -12.9504   26.4859 C   0  0  0  0  0  0  0  0  0  0  0  0
   10.1237  -16.5676   26.4479 C   0  0  0  0  0  0  0  0  0  0  0  0
   10.5033  -16.4051   27.6169 O   0  0  0  0  0  0  0  0  0  0  0  0
   10.5396  -17.6799   25.7543 O   0  0  0  0  0  0  0  0  0  0  0  0
  2  1  1  0
  3  2  2  0
  4  3  1  0
  5 11  1  0
  5  4  2  0
  6  5  1  0
  7  9  1  0
  7  6  1  0
  7  8  1  6
  9 10  2  0
 11 12  2  0
 12  2  1  0
 13 14  1  0
 13  9  1  0
 15 16  1  0
 14 15  1  1
 17 16  1  0
 18 17  1  0
 19 18  1  0
 20 22  1  0
 20 14  1  0
 21 20  2  0
 23 22  1  0
 23 24  1  1
 24 25  1  0
 25 30  1  0
 26 25  2  0
 26 27  1  0
 27 28  2  0
 28 29  1  0
 30 29  2  0
 31 23  1  0
 32 31  2  0
 33 31  1  0
M  END
$$$$
