YKF.pdb
     RDKit          3D

 33 34  0  0  1  0  0  0  0  0999 V2000
    9.5883  -20.2577   28.5934 O   0  0  0  0  0  0  0  0  0  0  0  0
    8.6460  -19.7937   27.6824 C   0  0  0  0  0  0  0  0  0  0  0  0
    8.6763  -18.5100   27.1545 C   0  0  0  0  0  0  0  0  0  0  0  0
    7.7381  -18.0653   26.2502 C   0  0  0  0  0  0  0  0  0  0  0  0
    6.7573  -18.9330   25.8792 C   0  0  0  0  0  0  0  0  0  0  0  0
    5.7231  -18.5004   24.9021 C   0  0  0  0  0  0  0  0  0  0  0  0
    6.1752  -18.7553   23.4809 C   0  0  2  0  0  0  0  0  0  0  0  0
    6.8151  -20.0655   23.4543 N   0  0  0  0  0  0  0  0  0  0  0  0
    7.1430  -17.6825   23.1096 C   0  0  0  0  0  0  0  0  0  0  0  0
    8.3349  -17.9348   22.8294 O   0  0  0  0  0  0  0  0  0  0  0  0
    6.6948  -20.2188   26.3833 C   0  0  0  0  0  0  0  0  0  0  0  0
    7.6550  -20.6474   27.2961 C   0  0  0  0  0  0  0  0  0  0  0  0
    6.7291  -16.3205   23.0668 N   0  0  0  0  0  0  0  0  0  0  0  0
    7.6045  -15.2043   22.7441 C   0  0  1  0  0  0  0  0  0  0  0  0
    6.7747  -14.1208   22.1449 C   0  0  0  0  0  0  0  0  0  0  0  0
    6.5886  -14.2100   20.6670 C   0  0  0  0  0  0  0  0  0  0  0  0
    7.8530  -13.6285   20.0127 C   0  0  0  0  0  0  0  0  0  0  0  0
    7.7079  -13.6598   18.4979 C   0  0  0  0  0  0  0  0  0  0  0  0
    8.8728  -12.9917   17.9492 N   0  0  0  0  0  0  0  0  0  0  0  0
    8.3162  -14.8105   23.9867 C   0  0  0  0  0  0  0  0  0  0  0  0
    8.1248  -13.6875   24.4827 O   0  0  0  0  0  0  0  0  0  0  0  0
    9.1986  -15.7083   24.5870 N   0  0  0  0  0  0  0  0  0  0  0  0
    9.9811  -15.3740   25.7547 C   0  0  1  0  0  0  0  0  0  0  0  0
    9.0297  -14.9970   26.8352 C   0  0  0  0  0  0  0  0  0  0  0  0
    8.2970  -13.7367   26.6465 C   0  0  0  0  0  0  0  0  0  0  0  0
    6.9650  -13.7366   26.2778 C   0  0  0  0  0  0  0  0  0  0  0  0
    6.3078  -12.5185   26.1210 C   0  0  0  0  0  0  0  0  0  0  0  0
    6.9140  -11.3005   26.3108 C   0  0  0  0  0  0  0  0  0  0  0  0
    8.2490  -11.3074   26.6788 C   0  0  0  0  0  0  0  0  0  0  0  0
    8.9060  -12.4960   26.8380 C   0  0  0  0  0  0  0  0  0  0  0  0
   10.8748  -16.5225   26.1374 C   0  0  0  0  0  0  0  0  0  0  0  0
   11.6612  -16.4713   27.0946 O   0  0  0  0  0  0  0  0  0  0  0  0
   10.8023  -17.6730   25.3875 O   0  0  0  0  0  0  0  0  0  0  0  0
  2  1  1  0
  3  2  2  0
  4  3  1  0
  5 11  1  0
  5  4  2  0
  6  5  1  0
  7  9  1  0
  7  6  1  0
  7  8  1  1
  9 10  2  0
 11 12  2  0
 12  2  1  0
 13 14  1  0
 13  9  1  0
 15 16  1  0
 14 15  1  1
 17 16  1  0
 18 17  1  0
 19 18  1  0
 20 22  1  0
 20 14  1  0
 21 20  2  0
 23 22  1  0
 23 24  1  1
 24 25  1  0
 25 30  1  0
 26 25  2  0
 26 27  1  0
 27 28  2  0
 28 29  1  0
 30 29  2  0
 31 23  1  0
 32 31  2  0
 33 31  1  0
M  END
$$$$
