YKF.pdb
     RDKit          3D

 33 34  0  0  1  0  0  0  0  0999 V2000
    8.7850  -12.3445   17.1533 O   0  0  0  0  0  0  0  0  0  0  0  0
    8.2851  -12.9193   18.3165 C   0  0  0  0  0  0  0  0  0  0  0  0
    6.9700  -12.7589   18.7316 C   0  0  0  0  0  0  0  0  0  0  0  0
    6.4879  -13.3371   19.8844 C   0  0  0  0  0  0  0  0  0  0  0  0
    7.3509  -14.0851   20.6247 C   0  0  0  0  0  0  0  0  0  0  0  0
    6.8762  -14.7332   21.8761 C   0  0  0  0  0  0  0  0  0  0  0  0
    6.8780  -16.2404   21.7442 C   0  0  2  0  0  0  0  0  0  0  0  0
    5.7440  -16.6068   20.9035 N   0  0  0  0  0  0  0  0  0  0  0  0
    6.7359  -16.8193   23.1117 C   0  0  0  0  0  0  0  0  0  0  0  0
    5.6774  -16.7134   23.7682 O   0  0  0  0  0  0  0  0  0  0  0  0
    8.6671  -14.2674   20.2432 C   0  0  0  0  0  0  0  0  0  0  0  0
    9.1328  -13.6739   19.0728 C   0  0  0  0  0  0  0  0  0  0  0  0
    7.8205  -17.5164   23.7164 N   0  0  0  0  0  0  0  0  0  0  0  0
    7.8646  -17.9157   25.1147 C   0  0  1  0  0  0  0  0  0  0  0  0
    8.1613  -19.3752   25.1723 C   0  0  0  0  0  0  0  0  0  0  0  0
    8.2221  -19.9549   26.5459 C   0  0  0  0  0  0  0  0  0  0  0  0
    8.5013  -21.4595   26.3934 C   0  0  0  0  0  0  0  0  0  0  0  0
    8.4687  -22.1287   27.7601 C   0  0  0  0  0  0  0  0  0  0  0  0
    8.6702  -23.5481   27.5390 N   0  0  0  0  0  0  0  0  0  0  0  0
    8.8685  -17.0622   25.7998 C   0  0  0  0  0  0  0  0  0  0  0  0
    9.9164  -16.7430   25.2132 O   0  0  0  0  0  0  0  0  0  0  0  0
    8.6257  -16.6266   27.1022 N   0  0  0  0  0  0  0  0  0  0  0  0
    9.6244  -15.9551   27.9018 C   0  0  1  0  0  0  0  0  0  0  0  0
    8.9486  -14.8328   28.6079 C   0  0  0  0  0  0  0  0  0  0  0  0
    8.3351  -13.8036   27.7563 C   0  0  0  0  0  0  0  0  0  0  0  0
    7.0075  -13.8890   27.3818 C   0  0  0  0  0  0  0  0  0  0  0  0
    6.4654  -12.8849   26.5828 C   0  0  0  0  0  0  0  0  0  0  0  0
    7.1826  -11.8016   26.1366 C   0  0  0  0  0  0  0  0  0  0  0  0
    8.5125  -11.7226   26.5143 C   0  0  0  0  0  0  0  0  0  0  0  0
    9.0572  -12.7004   27.2999 C   0  0  0  0  0  0  0  0  0  0  0  0
   10.2855  -16.9247   28.8437 C   0  0  0  0  0  0  0  0  0  0  0  0
   11.2151  -16.6007   29.5974 O   0  0  0  0  0  0  0  0  0  0  0  0
    9.8256  -18.2206   28.8618 O   0  0  0  0  0  0  0  0  0  0  0  0
  2  1  1  0
  3  2  2  0
  4  3  1  0
  5 11  1  0
  5  4  2  0
  6  5  1  0
  7  9  1  0
  7  6  1  0
  7  8  1  6
  9 10  2  0
 11 12  2  0
 12  2  1  0
 13 14  1  0
 13  9  1  0
 15 16  1  0
 14 15  1  6
 17 16  1  0
 18 17  1  0
 19 18  1  0
 20 22  1  0
 20 14  1  0
 21 20  2  0
 23 22  1  0
 23 24  1  1
 24 25  1  0
 25 30  1  0
 26 25  2  0
 26 27  1  0
 27 28  2  0
 28 29  1  0
 30 29  2  0
 31 23  1  0
 32 31  2  0
 33 31  1  0
M  END
$$$$
