YKF.pdb
     RDKit          3D

 33 34  0  0  1  0  0  0  0  0999 V2000
   15.3552  -16.4866   11.0854 O   0  0  0  0  0  0  0  0  0  0  0  0
   14.5237  -16.4139   12.1974 C   0  0  0  0  0  0  0  0  0  0  0  0
   14.5465  -17.3544   13.2184 C   0  0  0  0  0  0  0  0  0  0  0  0
   13.7193  -17.2676   14.3156 C   0  0  0  0  0  0  0  0  0  0  0  0
   12.8583  -16.2152   14.3760 C   0  0  0  0  0  0  0  0  0  0  0  0
   11.9473  -16.0758   15.5432 C   0  0  0  0  0  0  0  0  0  0  0  0
   10.7633  -17.0102   15.4254 C   0  0  2  0  0  0  0  0  0  0  0  0
    9.8662  -16.4540   14.4190 N   0  0  0  0  0  0  0  0  0  0  0  0
   10.0954  -17.0721   16.7579 C   0  0  0  0  0  0  0  0  0  0  0  0
    9.2149  -16.2514   17.0955 O   0  0  0  0  0  0  0  0  0  0  0  0
   12.8072  -15.2591   13.3788 C   0  0  0  0  0  0  0  0  0  0  0  0
   13.6539  -15.3666   12.2786 C   0  0  0  0  0  0  0  0  0  0  0  0
   10.4509  -18.0821   17.6969 N   0  0  0  0  0  0  0  0  0  0  0  0
    9.7901  -18.2846   18.9771 C   0  0  1  0  0  0  0  0  0  0  0  0
    9.8155  -19.7421   19.2880 C   0  0  0  0  0  0  0  0  0  0  0  0
    9.1401  -20.1295   20.5610 C   0  0  0  0  0  0  0  0  0  0  0  0
    9.2270  -21.6606   20.6751 C   0  0  0  0  0  0  0  0  0  0  0  0
    8.5008  -22.1238   21.9300 C   0  0  0  0  0  0  0  0  0  0  0  0
    7.0800  -22.0041   21.6628 N   0  0  0  0  0  0  0  0  0  0  0  0
   10.4772  -17.4348   19.9828 C   0  0  0  0  0  0  0  0  0  0  0  0
   11.7059  -17.2627   19.9151 O   0  0  0  0  0  0  0  0  0  0  0  0
    9.7338  -16.8368   21.0000 N   0  0  0  0  0  0  0  0  0  0  0  0
   10.3022  -15.8899   21.9317 C   0  0  1  0  0  0  0  0  0  0  0  0
    9.1919  -15.0317   22.4272 C   0  0  0  0  0  0  0  0  0  0  0  0
    8.3945  -14.3432   21.4021 C   0  0  0  0  0  0  0  0  0  0  0  0
    7.0532  -14.6302   21.2327 C   0  0  0  0  0  0  0  0  0  0  0  0
    6.3342  -13.9451   20.2559 C   0  0  0  0  0  0  0  0  0  0  0  0
    6.8873  -12.9901   19.4380 C   0  0  0  0  0  0  0  0  0  0  0  0
    8.2319  -12.7081   19.6119 C   0  0  0  0  0  0  0  0  0  0  0  0
    8.9495  -13.3718   20.5682 C   0  0  0  0  0  0  0  0  0  0  0  0
   11.0245  -16.6083   23.0392 C   0  0  0  0  0  0  0  0  0  0  0  0
   10.9460  -17.8342   23.2074 O   0  0  0  0  0  0  0  0  0  0  0  0
   11.8046  -15.8613   23.8904 O   0  0  0  0  0  0  0  0  0  0  0  0
  2  1  1  0
  3  2  2  0
  4  3  1  0
  5 11  1  0
  5  4  2  0
  6  5  1  0
  7  9  1  0
  7  6  1  0
  7  8  1  6
  9 10  2  0
 11 12  2  0
 12  2  1  0
 13 14  1  0
 13  9  1  0
 15 16  1  0
 14 15  1  1
 17 16  1  0
 18 17  1  0
 19 18  1  0
 20 22  1  0
 20 14  1  0
 21 20  2  0
 23 22  1  0
 23 24  1  1
 24 25  1  0
 25 30  1  0
 26 25  2  0
 26 27  1  0
 27 28  2  0
 28 29  1  0
 30 29  2  0
 31 23  1  0
 32 31  2  0
 33 31  1  0
M  END
$$$$
