YKF.pdb
     RDKit          3D

 33 34  0  0  1  0  0  0  0  0999 V2000
    8.5039  -12.2355   17.1580 O   0  0  0  0  0  0  0  0  0  0  0  0
    8.2204  -12.8725   18.3610 C   0  0  0  0  0  0  0  0  0  0  0  0
    6.9786  -12.8004   18.9777 C   0  0  0  0  0  0  0  0  0  0  0  0
    6.7113  -13.4395   20.1676 C   0  0  0  0  0  0  0  0  0  0  0  0
    7.7163  -14.1583   20.7383 C   0  0  0  0  0  0  0  0  0  0  0  0
    7.4751  -14.8697   22.0218 C   0  0  0  0  0  0  0  0  0  0  0  0
    7.6109  -16.3666   21.8494 C   0  0  2  0  0  0  0  0  0  0  0  0
    6.3110  -16.8779   21.4301 N   0  0  0  0  0  0  0  0  0  0  0  0
    8.0107  -16.9441   23.1655 C   0  0  0  0  0  0  0  0  0  0  0  0
    7.1833  -17.1357   24.0828 O   0  0  0  0  0  0  0  0  0  0  0  0
    8.9655  -14.2532   20.1538 C   0  0  0  0  0  0  0  0  0  0  0  0
    9.2130  -13.5992   18.9496 C   0  0  0  0  0  0  0  0  0  0  0  0
    9.3678  -17.2952   23.4170 N   0  0  0  0  0  0  0  0  0  0  0  0
    9.8472  -17.8942   24.6531 C   0  0  1  0  0  0  0  0  0  0  0  0
   10.9292  -18.8609   24.3122 C   0  0  0  0  0  0  0  0  0  0  0  0
   11.4938  -19.6132   25.4707 C   0  0  0  0  0  0  0  0  0  0  0  0
   12.5799  -20.5516   24.9187 C   0  0  0  0  0  0  0  0  0  0  0  0
   13.1807  -21.3661   26.0556 C   0  0  0  0  0  0  0  0  0  0  0  0
   14.1168  -22.2986   25.4568 N   0  0  0  0  0  0  0  0  0  0  0  0
   10.2743  -16.7946   25.5554 C   0  0  0  0  0  0  0  0  0  0  0  0
   11.0532  -15.9191   25.1421 O   0  0  0  0  0  0  0  0  0  0  0  0
    9.7967  -16.7558   26.8651 N   0  0  0  0  0  0  0  0  0  0  0  0
   10.2790  -15.8112   27.8463 C   0  0  1  0  0  0  0  0  0  0  0  0
    9.0913  -15.1315   28.4314 C   0  0  0  0  0  0  0  0  0  0  0  0
    8.3254  -14.2646   27.5244 C   0  0  0  0  0  0  0  0  0  0  0  0
    7.1786  -14.7217   26.9032 C   0  0  0  0  0  0  0  0  0  0  0  0
    6.4786  -13.8615   26.0602 C   0  0  0  0  0  0  0  0  0  0  0  0
    6.8674  -12.5692   25.8040 C   0  0  0  0  0  0  0  0  0  0  0  0
    8.0180  -12.1177   26.4285 C   0  0  0  0  0  0  0  0  0  0  0  0
    8.7140  -12.9509   27.2599 C   0  0  0  0  0  0  0  0  0  0  0  0
   11.1217  -16.5082   28.8800 C   0  0  0  0  0  0  0  0  0  0  0  0
   11.1895  -17.7429   28.9696 O   0  0  0  0  0  0  0  0  0  0  0  0
   11.8454  -15.7299   29.7527 O   0  0  0  0  0  0  0  0  0  0  0  0
  2  1  1  0
  3  2  2  0
  4  3  1  0
  5 11  1  0
  5  4  2  0
  6  5  1  0
  7  9  1  0
  7  6  1  0
  7  8  1  1
  9 10  2  0
 11 12  2  0
 12  2  1  0
 13 14  1  0
 13  9  1  0
 15 16  1  0
 14 15  1  6
 17 16  1  0
 18 17  1  0
 19 18  1  0
 20 22  1  0
 20 14  1  0
 21 20  2  0
 23 22  1  0
 23 24  1  1
 24 25  1  0
 25 30  1  0
 26 25  2  0
 26 27  1  0
 27 28  2  0
 28 29  1  0
 30 29  2  0
 31 23  1  0
 32 31  2  0
 33 31  1  0
M  END
$$$$
