YKF.pdb
     RDKit          3D

 33 34  0  0  1  0  0  0  0  0999 V2000
   12.8616  -16.8825   13.3567 O   0  0  0  0  0  0  0  0  0  0  0  0
   12.1389  -16.7475   14.5368 C   0  0  0  0  0  0  0  0  0  0  0  0
   12.7220  -16.8444   15.7931 C   0  0  0  0  0  0  0  0  0  0  0  0
   11.9940  -16.7050   16.9535 C   0  0  0  0  0  0  0  0  0  0  0  0
   10.6592  -16.4663   16.8370 C   0  0  0  0  0  0  0  0  0  0  0  0
    9.8310  -16.3044   18.0616 C   0  0  0  0  0  0  0  0  0  0  0  0
   10.5784  -16.7724   19.2910 C   0  0  2  0  0  0  0  0  0  0  0  0
   10.7525  -18.2156   19.1736 N   0  0  0  0  0  0  0  0  0  0  0  0
    9.7526  -16.4313   20.4856 C   0  0  0  0  0  0  0  0  0  0  0  0
    9.3582  -15.2658   20.7064 O   0  0  0  0  0  0  0  0  0  0  0  0
   10.0436  -16.3631   15.6035 C   0  0  0  0  0  0  0  0  0  0  0  0
   10.7998  -16.5066   14.4431 C   0  0  0  0  0  0  0  0  0  0  0  0
    9.3883  -17.4398   21.4228 N   0  0  0  0  0  0  0  0  0  0  0  0
    8.6401  -17.1946   22.6461 C   0  0  1  0  0  0  0  0  0  0  0  0
    7.5158  -18.1713   22.7071 C   0  0  0  0  0  0  0  0  0  0  0  0
    7.0730  -18.7098   21.3877 C   0  0  0  0  0  0  0  0  0  0  0  0
    6.0117  -19.7868   21.6683 C   0  0  0  0  0  0  0  0  0  0  0  0
    5.5387  -20.3955   20.3559 C   0  0  0  0  0  0  0  0  0  0  0  0
    4.6441  -21.4858   20.6956 N   0  0  0  0  0  0  0  0  0  0  0  0
    9.5887  -17.2853   23.7852 C   0  0  0  0  0  0  0  0  0  0  0  0
    9.7783  -18.3755   24.3503 O   0  0  0  0  0  0  0  0  0  0  0  0
   10.2594  -16.1400   24.2135 N   0  0  0  0  0  0  0  0  0  0  0  0
    9.7297  -15.2554   25.2257 C   0  0  1  0  0  0  0  0  0  0  0  0
    8.5052  -14.6212   24.6661 C   0  0  0  0  0  0  0  0  0  0  0  0
    7.7768  -13.7108   25.5613 C   0  0  0  0  0  0  0  0  0  0  0  0
    8.4304  -13.0362   26.5751 C   0  0  0  0  0  0  0  0  0  0  0  0
    7.7018  -12.1751   27.3924 C   0  0  0  0  0  0  0  0  0  0  0  0
    6.3532  -11.9559   27.2506 C   0  0  0  0  0  0  0  0  0  0  0  0
    5.7039  -12.6358   26.2338 C   0  0  0  0  0  0  0  0  0  0  0  0
    6.4072  -13.4829   25.4228 C   0  0  0  0  0  0  0  0  0  0  0  0
    9.4664  -16.0102   26.5006 C   0  0  0  0  0  0  0  0  0  0  0  0
   10.0631  -15.7677   27.5600 O   0  0  0  0  0  0  0  0  0  0  0  0
    8.5177  -17.0056   26.4759 O   0  0  0  0  0  0  0  0  0  0  0  0
  2  1  1  0
  3  2  2  0
  4  3  1  0
  5 11  1  0
  5  4  2  0
  6  5  1  0
  7  9  1  0
  7  6  1  0
  7  8  1  6
  9 10  2  0
 11 12  2  0
 12  2  1  0
 13 14  1  0
 13  9  1  0
 15 16  1  0
 14 15  1  1
 17 16  1  0
 18 17  1  0
 19 18  1  0
 20 22  1  0
 20 14  1  0
 21 20  2  0
 23 22  1  0
 23 24  1  6
 24 25  1  0
 25 30  1  0
 26 25  2  0
 26 27  1  0
 27 28  2  0
 28 29  1  0
 30 29  2  0
 31 23  1  0
 32 31  2  0
 33 31  1  0
M  END
$$$$
