FQF.pdb
     RDKit          3D

 32 33  0  0  1  0  0  0  0  0999 V2000
   25.6757   -9.8685  -18.9827 N   0  0  0  0  0  0  0  0  0  0  0  0
   24.9601   -9.6432  -17.7695 C   0  0  1  0  0  0  0  0  0  0  0  0
   25.7218   -8.7319  -16.8342 C   0  0  0  0  0  0  0  0  0  0  0  0
   27.0295   -9.2910  -16.4383 C   0  0  0  0  0  0  0  0  0  0  0  0
   27.0676  -10.2411  -15.4532 C   0  0  0  0  0  0  0  0  0  0  0  0
   28.2439  -10.8181  -15.0198 C   0  0  0  0  0  0  0  0  0  0  0  0
   29.4390  -10.4197  -15.6060 C   0  0  0  0  0  0  0  0  0  0  0  0
   29.3947   -9.4672  -16.5928 C   0  0  0  0  0  0  0  0  0  0  0  0
   28.2126   -8.8921  -17.0233 C   0  0  0  0  0  0  0  0  0  0  0  0
   23.6038   -9.0916  -17.9558 C   0  0  0  0  0  0  0  0  0  0  0  0
   23.4154   -8.3318  -18.9343 O   0  0  0  0  0  0  0  0  0  0  0  0
   18.1216  -11.2148  -15.2803 N   0  0  0  0  0  0  0  0  0  0  0  0
   17.7221  -10.1707  -16.1496 C   0  0  0  0  0  0  0  0  0  0  0  0
   16.5033   -9.9377  -16.2683 O   0  0  0  0  0  0  0  0  0  0  0  0
   18.7352   -9.4029  -16.8777 C   0  0  0  0  0  0  0  0  0  0  0  0
   20.1582   -9.7734  -16.5912 C   0  0  0  0  0  0  0  0  0  0  0  0
   21.1280   -8.9965  -17.3877 C   0  0  2  0  0  0  0  0  0  0  0  0
   22.5115   -9.3620  -17.1095 N   0  0  0  0  0  0  0  0  0  0  0  0
   21.0037   -7.5666  -17.0373 C   0  0  0  0  0  0  0  0  0  0  0  0
   21.6022   -7.1154  -16.0445 O   0  0  0  0  0  0  0  0  0  0  0  0
   20.2205   -6.6909  -17.8012 N   0  0  0  0  0  0  0  0  0  0  0  0
   19.9637   -5.3007  -17.4050 C   0  0  1  0  0  0  0  0  0  0  0  0
   20.1819   -4.4385  -18.6319 C   0  0  0  0  0  0  0  0  0  0  0  0
   19.8647   -3.0086  -18.4005 C   0  0  0  0  0  0  0  0  0  0  0  0
   18.5992   -2.5246  -18.7245 C   0  0  0  0  0  0  0  0  0  0  0  0
   18.2544   -1.2073  -18.5246 C   0  0  0  0  0  0  0  0  0  0  0  0
   19.1530   -0.3073  -17.9923 C   0  0  0  0  0  0  0  0  0  0  0  0
   20.4077   -0.7710  -17.6672 C   0  0  0  0  0  0  0  0  0  0  0  0
   20.7533   -2.0977  -17.8689 C   0  0  0  0  0  0  0  0  0  0  0  0
   18.6355   -5.1433  -16.8151 C   0  0  0  0  0  0  0  0  0  0  0  0
   17.7096   -5.8920  -17.2066 O   0  0  0  0  0  0  0  0  0  0  0  0
   18.3679   -4.2037  -15.8466 O   0  0  0  0  0  0  0  0  0  0  0  0
  2  1  1  6
  2  3  1  0
  4  3  1  0
  4  5  2  0
  6  5  1  0
  7  6  2  0
  8  9  2  0
  8  7  1  0
  9  4  1  0
 10  2  1  0
 10 11  2  0
 13 12  1  0
 13 14  2  0
 15 16  1  0
 15 13  1  0
 17 18  1  0
 17 16  1  1
 18 10  1  0
 19 17  1  0
 20 19  2  0
 21 19  1  0
 22 21  1  0
 23 24  1  0
 22 23  1  6
 24 29  2  0
 25 26  2  0
 25 24  1  0
 26 27  1  0
 27 28  2  0
 29 28  1  0
 30 22  1  0
 30 32  1  0
 31 30  2  0
M  END
$$$$
