FQF.pdb
     RDKit          3D

 32 33  0  0  1  0  0  0  0  0999 V2000
   24.3072  -10.7117  -19.8429 N   0  0  0  0  0  0  0  0  0  0  0  0
   23.5603  -11.0879  -18.6874 C   0  0  1  0  0  0  0  0  0  0  0  0
   24.3422  -10.8487  -17.4160 C   0  0  0  0  0  0  0  0  0  0  0  0
   25.7194  -11.3751  -17.4901 C   0  0  0  0  0  0  0  0  0  0  0  0
   26.7654  -10.5028  -17.3500 C   0  0  0  0  0  0  0  0  0  0  0  0
   28.0841  -10.9059  -17.4054 C   0  0  0  0  0  0  0  0  0  0  0  0
   28.3633  -12.2513  -17.6115 C   0  0  0  0  0  0  0  0  0  0  0  0
   27.3110  -13.1209  -17.7512 C   0  0  0  0  0  0  0  0  0  0  0  0
   25.9909  -12.7113  -17.6948 C   0  0  0  0  0  0  0  0  0  0  0  0
   22.2515  -10.4168  -18.5631 C   0  0  0  0  0  0  0  0  0  0  0  0
   22.0318   -9.4310  -19.3050 O   0  0  0  0  0  0  0  0  0  0  0  0
   17.4611  -10.9683  -14.8614 N   0  0  0  0  0  0  0  0  0  0  0  0
   16.8049  -10.4459  -16.0023 C   0  0  0  0  0  0  0  0  0  0  0  0
   15.6461  -10.0074  -15.8655 O   0  0  0  0  0  0  0  0  0  0  0  0
   17.4928  -10.4352  -17.2956 C   0  0  0  0  0  0  0  0  0  0  0  0
   18.8351  -11.0997  -17.3206 C   0  0  0  0  0  0  0  0  0  0  0  0
   19.9454  -10.1495  -17.5280 C   0  0  2  0  0  0  0  0  0  0  0  0
   21.2374  -10.8098  -17.6690 N   0  0  0  0  0  0  0  0  0  0  0  0
   20.0594   -9.2755  -16.3423 C   0  0  0  0  0  0  0  0  0  0  0  0
   20.4276   -9.7501  -15.2530 O   0  0  0  0  0  0  0  0  0  0  0  0
   19.7607   -7.9079  -16.4092 N   0  0  0  0  0  0  0  0  0  0  0  0
   20.6247   -6.8746  -15.8249 C   0  0  1  0  0  0  0  0  0  0  0  0
   22.0092   -7.0661  -16.4103 C   0  0  0  0  0  0  0  0  0  0  0  0
   22.9419   -7.7512  -15.4832 C   0  0  0  0  0  0  0  0  0  0  0  0
   22.9083   -9.1399  -15.3771 C   0  0  0  0  0  0  0  0  0  0  0  0
   23.7559   -9.8227  -14.5348 C   0  0  0  0  0  0  0  0  0  0  0  0
   24.6785   -9.1561  -13.7568 C   0  0  0  0  0  0  0  0  0  0  0  0
   24.7235   -7.7834  -13.8510 C   0  0  0  0  0  0  0  0  0  0  0  0
   23.8694   -7.0974  -14.6996 C   0  0  0  0  0  0  0  0  0  0  0  0
   20.0850   -5.5334  -16.0405 C   0  0  0  0  0  0  0  0  0  0  0  0
   19.3297   -5.3381  -17.0216 O   0  0  0  0  0  0  0  0  0  0  0  0
   20.3768   -4.4804  -15.2048 O   0  0  0  0  0  0  0  0  0  0  0  0
  2  1  1  6
  2  3  1  0
  4  3  1  0
  4  5  2  0
  6  5  1  0
  7  6  2  0
  8  9  2  0
  8  7  1  0
  9  4  1  0
 10  2  1  0
 10 11  2  0
 13 12  1  0
 13 14  2  0
 15 16  1  0
 15 13  1  0
 17 18  1  0
 17 16  1  1
 18 10  1  0
 19 17  1  0
 20 19  2  0
 21 19  1  0
 22 21  1  0
 23 24  1  0
 22 23  1  6
 24 29  2  0
 25 26  2  0
 25 24  1  0
 26 27  1  0
 27 28  2  0
 29 28  1  0
 30 22  1  0
 30 32  1  0
 31 30  2  0
M  END
$$$$
