FQF.pdb
     RDKit          3D

 32 33  0  0  1  0  0  0  0  0999 V2000
   22.1630  -10.8971  -19.4520 N   0  0  0  0  0  0  0  0  0  0  0  0
   22.3814  -10.3167  -18.1674 C   0  0  1  0  0  0  0  0  0  0  0  0
   23.8407   -9.9921  -17.9433 C   0  0  0  0  0  0  0  0  0  0  0  0
   24.7103  -11.1789  -18.0641 C   0  0  0  0  0  0  0  0  0  0  0  0
   25.4943  -11.3091  -19.1790 C   0  0  0  0  0  0  0  0  0  0  0  0
   26.3367  -12.3842  -19.3759 C   0  0  0  0  0  0  0  0  0  0  0  0
   26.3928  -13.3758  -18.4042 C   0  0  0  0  0  0  0  0  0  0  0  0
   25.6049  -13.2400  -17.2889 C   0  0  0  0  0  0  0  0  0  0  0  0
   24.7621  -12.1600  -17.0967 C   0  0  0  0  0  0  0  0  0  0  0  0
   21.5877   -9.1000  -17.9060 C   0  0  0  0  0  0  0  0  0  0  0  0
   21.6097   -8.1951  -18.7727 O   0  0  0  0  0  0  0  0  0  0  0  0
   17.6786  -10.5600  -16.8351 N   0  0  0  0  0  0  0  0  0  0  0  0
   17.3222   -9.5057  -17.7105 C   0  0  0  0  0  0  0  0  0  0  0  0
   16.6110   -9.7755  -18.6981 O   0  0  0  0  0  0  0  0  0  0  0  0
   17.7918   -8.1448  -17.4391 C   0  0  0  0  0  0  0  0  0  0  0  0
   18.6109   -7.9784  -16.1959 C   0  0  0  0  0  0  0  0  0  0  0  0
   20.0310   -7.6890  -16.4752 C   0  0  2  0  0  0  0  0  0  0  0  0
   20.8103   -8.8897  -16.7511 N   0  0  0  0  0  0  0  0  0  0  0  0
   20.6408   -7.0706  -15.2800 C   0  0  0  0  0  0  0  0  0  0  0  0
   20.9499   -7.7767  -14.3037 O   0  0  0  0  0  0  0  0  0  0  0  0
   20.8850   -5.6923  -15.2126 N   0  0  0  0  0  0  0  0  0  0  0  0
   21.6363   -5.0694  -14.1157 C   0  0  1  0  0  0  0  0  0  0  0  0
   23.0130   -5.7024  -14.1008 C   0  0  0  0  0  0  0  0  0  0  0  0
   23.7846   -5.4432  -15.3402 C   0  0  0  0  0  0  0  0  0  0  0  0
   24.0877   -6.5011  -16.1945 C   0  0  0  0  0  0  0  0  0  0  0  0
   24.7970   -6.3118  -17.3587 C   0  0  0  0  0  0  0  0  0  0  0  0
   25.2394   -5.0597  -17.7291 C   0  0  0  0  0  0  0  0  0  0  0  0
   24.9474   -4.0043  -16.8948 C   0  0  0  0  0  0  0  0  0  0  0  0
   24.2331   -4.1966  -15.7231 C   0  0  0  0  0  0  0  0  0  0  0  0
   21.6695   -3.6135  -14.2417 C   0  0  0  0  0  0  0  0  0  0  0  0
   22.2032   -2.9414  -13.3280 O   0  0  0  0  0  0  0  0  0  0  0  0
   21.1365   -2.9571  -15.3268 O   0  0  0  0  0  0  0  0  0  0  0  0
  2  1  1  6
  2  3  1  0
  4  3  1  0
  4  5  2  0
  6  5  1  0
  7  6  2  0
  8  9  2  0
  8  7  1  0
  9  4  1  0
 10  2  1  0
 10 11  2  0
 13 12  1  0
 13 14  2  0
 15 16  1  0
 15 13  1  0
 17 18  1  0
 17 16  1  1
 18 10  1  0
 19 17  1  0
 20 19  2  0
 21 19  1  0
 22 21  1  0
 23 24  1  0
 22 23  1  6
 24 29  2  0
 25 26  2  0
 25 24  1  0
 26 27  1  0
 27 28  2  0
 29 28  1  0
 30 22  1  0
 30 32  1  0
 31 30  2  0
M  END
$$$$
