FQF.pdb
     RDKit          3D

 32 33  0  0  1  0  0  0  0  0999 V2000
   25.7207  -13.2797  -22.4574 N   0  0  0  0  0  0  0  0  0  0  0  0
   25.3844  -13.2678  -21.0712 C   0  0  1  0  0  0  0  0  0  0  0  0
   26.6183  -13.2307  -20.1986 C   0  0  0  0  0  0  0  0  0  0  0  0
   27.4021  -14.4795  -20.2719 C   0  0  0  0  0  0  0  0  0  0  0  0
   28.5093  -14.5149  -21.0765 C   0  0  0  0  0  0  0  0  0  0  0  0
   29.3004  -15.6382  -21.2062 C   0  0  0  0  0  0  0  0  0  0  0  0
   28.9608  -16.7806  -20.4918 C   0  0  0  0  0  0  0  0  0  0  0  0
   27.8500  -16.7393  -19.6871 C   0  0  0  0  0  0  0  0  0  0  0  0
   27.0606  -15.6104  -19.5609 C   0  0  0  0  0  0  0  0  0  0  0  0
   24.4959  -12.1596  -20.6695 C   0  0  0  0  0  0  0  0  0  0  0  0
   24.6838  -11.0419  -21.2042 O   0  0  0  0  0  0  0  0  0  0  0  0
   18.4695  -12.6288  -18.6614 N   0  0  0  0  0  0  0  0  0  0  0  0
   18.7101  -11.2374  -18.7675 C   0  0  0  0  0  0  0  0  0  0  0  0
   17.7369  -10.4634  -18.6794 O   0  0  0  0  0  0  0  0  0  0  0  0
   20.0754  -10.7493  -18.9765 C   0  0  0  0  0  0  0  0  0  0  0  0
   21.1074  -11.8037  -19.2362 C   0  0  0  0  0  0  0  0  0  0  0  0
   22.4571  -11.2482  -19.4556 C   0  0  2  0  0  0  0  0  0  0  0  0
   23.4550  -12.2752  -19.7286 N   0  0  0  0  0  0  0  0  0  0  0  0
   22.9017  -10.5619  -18.2251 C   0  0  0  0  0  0  0  0  0  0  0  0
   23.3153  -11.2256  -17.2578 O   0  0  0  0  0  0  0  0  0  0  0  0
   22.8709   -9.1653  -18.1137 N   0  0  0  0  0  0  0  0  0  0  0  0
   23.2544   -8.4557  -16.8869 C   0  0  1  0  0  0  0  0  0  0  0  0
   24.4784   -7.6248  -17.2151 C   0  0  0  0  0  0  0  0  0  0  0  0
   24.2148   -6.5800  -18.2337 C   0  0  0  0  0  0  0  0  0  0  0  0
   23.8842   -5.2899  -17.8249 C   0  0  0  0  0  0  0  0  0  0  0  0
   23.6350   -4.2844  -18.7309 C   0  0  0  0  0  0  0  0  0  0  0  0
   23.7028   -4.5142  -20.0886 C   0  0  0  0  0  0  0  0  0  0  0  0
   24.0285   -5.7843  -20.5079 C   0  0  0  0  0  0  0  0  0  0  0  0
   24.2791   -6.7957  -19.5943 C   0  0  0  0  0  0  0  0  0  0  0  0
   22.1466   -7.6679  -16.3494 C   0  0  0  0  0  0  0  0  0  0  0  0
   22.2975   -7.0887  -15.2480 O   0  0  0  0  0  0  0  0  0  0  0  0
   20.9467   -7.5403  -17.0101 O   0  0  0  0  0  0  0  0  0  0  0  0
  2  1  1  6
  2  3  1  0
  4  3  1  0
  4  5  2  0
  6  5  1  0
  7  6  2  0
  8  9  2  0
  8  7  1  0
  9  4  1  0
 10  2  1  0
 10 11  2  0
 13 12  1  0
 13 14  2  0
 15 16  1  0
 15 13  1  0
 17 18  1  0
 17 16  1  1
 18 10  1  0
 19 17  1  0
 20 19  2  0
 21 19  1  0
 22 21  1  0
 23 24  1  0
 22 23  1  6
 24 29  2  0
 25 26  2  0
 25 24  1  0
 26 27  1  0
 27 28  2  0
 29 28  1  0
 30 22  1  0
 30 32  1  0
 31 30  2  0
M  END
$$$$
