FQF.pdb
     RDKit          3D

 32 33  0  0  1  0  0  0  0  0999 V2000
   30.3129  -21.3146  -14.3368 N   0  0  0  0  0  0  0  0  0  0  0  0
   29.9151  -21.3589  -12.9677 C   0  0  1  0  0  0  0  0  0  0  0  0
   30.9418  -20.7098  -12.0676 C   0  0  0  0  0  0  0  0  0  0  0  0
   31.8942  -21.6842  -11.4994 C   0  0  0  0  0  0  0  0  0  0  0  0
   31.8247  -21.9686  -10.1619 C   0  0  0  0  0  0  0  0  0  0  0  0
   32.6737  -22.8654   -9.5459 C   0  0  0  0  0  0  0  0  0  0  0  0
   33.6388  -23.5065  -10.3128 C   0  0  0  0  0  0  0  0  0  0  0  0
   33.7037  -23.2176  -11.6527 C   0  0  0  0  0  0  0  0  0  0  0  0
   32.8500  -22.3177  -12.2650 C   0  0  0  0  0  0  0  0  0  0  0  0
   28.6011  -20.7444  -12.6950 C   0  0  0  0  0  0  0  0  0  0  0  0
   28.2790  -19.7391  -13.3703 O   0  0  0  0  0  0  0  0  0  0  0  0
   24.5761  -18.8340  -13.9569 N   0  0  0  0  0  0  0  0  0  0  0  0
   23.6786  -19.3363  -12.9836 C   0  0  0  0  0  0  0  0  0  0  0  0
   22.6314  -18.6972  -12.7631 O   0  0  0  0  0  0  0  0  0  0  0  0
   23.9986  -20.5749  -12.2697 C   0  0  0  0  0  0  0  0  0  0  0  0
   25.3729  -21.1222  -12.5065 C   0  0  0  0  0  0  0  0  0  0  0  0
   26.3562  -20.6651  -11.5053 C   0  0  2  0  0  0  0  0  0  0  0  0
   27.6890  -21.2115  -11.7296 N   0  0  0  0  0  0  0  0  0  0  0  0
   25.9391  -21.1382  -10.1693 C   0  0  0  0  0  0  0  0  0  0  0  0
   25.9080  -22.3571   -9.9230 O   0  0  0  0  0  0  0  0  0  0  0  0
   25.5721  -20.2417   -9.1566 N   0  0  0  0  0  0  0  0  0  0  0  0
   25.1948  -20.6769   -7.8061 C   0  0  1  0  0  0  0  0  0  0  0  0
   25.4394  -19.5069   -6.8747 C   0  0  0  0  0  0  0  0  0  0  0  0
   26.7642  -19.5605   -6.2107 C   0  0  0  0  0  0  0  0  0  0  0  0
   27.8011  -18.7576   -6.6807 C   0  0  0  0  0  0  0  0  0  0  0  0
   29.0471  -18.7676   -6.0963 C   0  0  0  0  0  0  0  0  0  0  0  0
   29.3216  -19.5777   -5.0150 C   0  0  0  0  0  0  0  0  0  0  0  0
   28.3066  -20.3768   -4.5392 C   0  0  0  0  0  0  0  0  0  0  0  0
   27.0526  -20.3655   -5.1288 C   0  0  0  0  0  0  0  0  0  0  0  0
   23.8212  -21.1746   -7.7626 C   0  0  0  0  0  0  0  0  0  0  0  0
   23.4300  -21.7754   -6.7343 O   0  0  0  0  0  0  0  0  0  0  0  0
   22.9447  -21.0061   -8.8094 O   0  0  0  0  0  0  0  0  0  0  0  0
  2  1  1  6
  2  3  1  0
  4  3  1  0
  4  5  2  0
  6  5  1  0
  7  6  2  0
  8  9  2  0
  8  7  1  0
  9  4  1  0
 10  2  1  0
 10 11  2  0
 13 12  1  0
 13 14  2  0
 15 16  1  0
 15 13  1  0
 17 18  1  0
 17 16  1  6
 18 10  1  0
 19 17  1  0
 20 19  2  0
 21 19  1  0
 22 21  1  0
 23 24  1  0
 22 23  1  1
 24 29  2  0
 25 26  2  0
 25 24  1  0
 26 27  1  0
 27 28  2  0
 29 28  1  0
 30 22  1  0
 30 32  1  0
 31 30  2  0
M  END
$$$$
