FQF.pdb
     RDKit          3D

 32 33  0  0  1  0  0  0  0  0999 V2000
   25.4962  -19.6801  -19.4514 N   0  0  0  0  0  0  0  0  0  0  0  0
   26.2956  -19.3398  -18.3201 C   0  0  1  0  0  0  0  0  0  0  0  0
   25.7781  -18.1016  -17.6241 C   0  0  0  0  0  0  0  0  0  0  0  0
   25.8164  -16.9068  -18.4902 C   0  0  0  0  0  0  0  0  0  0  0  0
   24.6557  -16.2135  -18.7062 C   0  0  0  0  0  0  0  0  0  0  0  0
   24.5979  -15.0864  -19.5004 C   0  0  0  0  0  0  0  0  0  0  0  0
   25.7643  -14.6355  -20.1062 C   0  0  0  0  0  0  0  0  0  0  0  0
   26.9246  -15.3344  -19.8861 C   0  0  0  0  0  0  0  0  0  0  0  0
   26.9767  -16.4637  -19.0890 C   0  0  0  0  0  0  0  0  0  0  0  0
   26.4251  -20.4172  -17.3196 C   0  0  0  0  0  0  0  0  0  0  0  0
   25.4070  -21.1044  -17.0713 O   0  0  0  0  0  0  0  0  0  0  0  0
   28.1126  -25.0142  -15.9127 N   0  0  0  0  0  0  0  0  0  0  0  0
   28.8357  -24.4854  -17.0094 C   0  0  0  0  0  0  0  0  0  0  0  0
   28.9510  -25.1883  -18.0323 O   0  0  0  0  0  0  0  0  0  0  0  0
   29.4227  -23.1464  -16.9158 C   0  0  0  0  0  0  0  0  0  0  0  0
   29.1147  -22.3908  -15.6595 C   0  0  0  0  0  0  0  0  0  0  0  0
   27.7619  -21.8006  -15.6582 C   0  0  2  0  0  0  0  0  0  0  0  0
   27.6130  -20.7228  -16.6283 N   0  0  0  0  0  0  0  0  0  0  0  0
   27.4997  -21.1993  -14.3344 C   0  0  0  0  0  0  0  0  0  0  0  0
   28.0964  -20.1625  -13.9932 O   0  0  0  0  0  0  0  0  0  0  0  0
   26.5856  -21.7704  -13.4387 N   0  0  0  0  0  0  0  0  0  0  0  0
   26.3471  -21.2328  -12.0935 C   0  0  1  0  0  0  0  0  0  0  0  0
   25.9267  -19.7862  -12.2582 C   0  0  0  0  0  0  0  0  0  0  0  0
   24.5966  -19.6372  -12.8963 C   0  0  0  0  0  0  0  0  0  0  0  0
   24.5156  -19.3661  -14.2604 C   0  0  0  0  0  0  0  0  0  0  0  0
   23.3053  -19.2235  -14.9001 C   0  0  0  0  0  0  0  0  0  0  0  0
   22.1163  -19.3439  -14.2127 C   0  0  0  0  0  0  0  0  0  0  0  0
   22.1804  -19.6118  -12.8639 C   0  0  0  0  0  0  0  0  0  0  0  0
   23.3998  -19.7552  -12.2213 C   0  0  0  0  0  0  0  0  0  0  0  0
   25.3763  -22.0374  -11.3541 C   0  0  0  0  0  0  0  0  0  0  0  0
   25.1040  -21.7186  -10.1728 O   0  0  0  0  0  0  0  0  0  0  0  0
   24.7522  -23.1303  -11.9096 O   0  0  0  0  0  0  0  0  0  0  0  0
  2  1  1  6
  2  3  1  0
  4  3  1  0
  4  5  2  0
  6  5  1  0
  7  6  2  0
  8  9  2  0
  8  7  1  0
  9  4  1  0
 10  2  1  0
 10 11  2  0
 13 12  1  0
 13 14  2  0
 15 16  1  0
 15 13  1  0
 17 18  1  0
 17 16  1  1
 18 10  1  0
 19 17  1  0
 20 19  2  0
 21 19  1  0
 22 21  1  0
 23 24  1  0
 22 23  1  6
 24 29  2  0
 25 26  2  0
 25 24  1  0
 26 27  1  0
 27 28  2  0
 29 28  1  0
 30 22  1  0
 30 32  1  0
 31 30  2  0
M  END
$$$$
