FQF.pdb
     RDKit          3D

 32 33  0  0  1  0  0  0  0  0999 V2000
   23.0171  -19.5834  -16.6562 N   0  0  0  0  0  0  0  0  0  0  0  0
   23.9874  -19.1644  -15.6983 C   0  0  1  0  0  0  0  0  0  0  0  0
   23.3426  -18.4818  -14.5137 C   0  0  0  0  0  0  0  0  0  0  0  0
   22.4865  -17.3465  -14.9106 C   0  0  0  0  0  0  0  0  0  0  0  0
   23.0828  -16.1707  -15.2799 C   0  0  0  0  0  0  0  0  0  0  0  0
   22.3620  -15.0587  -15.6654 C   0  0  0  0  0  0  0  0  0  0  0  0
   20.9747  -15.1339  -15.6799 C   0  0  0  0  0  0  0  0  0  0  0  0
   20.3825  -16.3149  -15.3087 C   0  0  0  0  0  0  0  0  0  0  0  0
   21.1100  -17.4265  -14.9232 C   0  0  0  0  0  0  0  0  0  0  0  0
   24.8552  -20.2479  -15.1965 C   0  0  0  0  0  0  0  0  0  0  0  0
   24.3011  -21.3029  -14.8086 O   0  0  0  0  0  0  0  0  0  0  0  0
   26.8839  -22.4607  -17.3333 N   0  0  0  0  0  0  0  0  0  0  0  0
   28.0617  -23.1281  -16.9182 C   0  0  0  0  0  0  0  0  0  0  0  0
   28.3150  -24.2412  -17.4188 O   0  0  0  0  0  0  0  0  0  0  0  0
   28.9395  -22.5042  -15.9250 C   0  0  0  0  0  0  0  0  0  0  0  0
   28.4677  -21.1923  -15.3770 C   0  0  0  0  0  0  0  0  0  0  0  0
   27.1359  -21.2759  -14.7464 C   0  0  2  0  0  0  0  0  0  0  0  0
   26.2594  -20.1744  -15.1251 N   0  0  0  0  0  0  0  0  0  0  0  0
   27.2910  -21.1902  -13.2796 C   0  0  0  0  0  0  0  0  0  0  0  0
   28.4247  -21.0799  -12.7796 O   0  0  0  0  0  0  0  0  0  0  0  0
   26.1830  -21.2300  -12.4225 N   0  0  0  0  0  0  0  0  0  0  0  0
   26.3078  -21.2387  -10.9596 C   0  0  1  0  0  0  0  0  0  0  0  0
   27.1707  -20.0531  -10.5775 C   0  0  0  0  0  0  0  0  0  0  0  0
   27.3336  -19.9021   -9.1114 C   0  0  0  0  0  0  0  0  0  0  0  0
   28.2165  -20.7360   -8.4289 C   0  0  0  0  0  0  0  0  0  0  0  0
   28.4064  -20.6327   -7.0697 C   0  0  0  0  0  0  0  0  0  0  0  0
   27.7263  -19.6939   -6.3234 C   0  0  0  0  0  0  0  0  0  0  0  0
   26.8502  -18.8626   -6.9842 C   0  0  0  0  0  0  0  0  0  0  0  0
   26.6601  -18.9679   -8.3527 C   0  0  0  0  0  0  0  0  0  0  0  0
   25.0006  -21.2384  -10.3056 C   0  0  0  0  0  0  0  0  0  0  0  0
   24.0230  -20.7412  -10.9125 O   0  0  0  0  0  0  0  0  0  0  0  0
   24.8069  -21.7647   -9.0494 O   0  0  0  0  0  0  0  0  0  0  0  0
  2  1  1  6
  2  3  1  0
  4  3  1  0
  4  5  2  0
  6  5  1  0
  7  6  2  0
  8  9  2  0
  8  7  1  0
  9  4  1  0
 10  2  1  0
 10 11  2  0
 13 12  1  0
 13 14  2  0
 15 16  1  0
 15 13  1  0
 17 18  1  0
 17 16  1  6
 18 10  1  0
 19 17  1  0
 20 19  2  0
 21 19  1  0
 22 21  1  0
 23 24  1  0
 22 23  1  1
 24 29  2  0
 25 26  2  0
 25 24  1  0
 26 27  1  0
 27 28  2  0
 29 28  1  0
 30 22  1  0
 30 32  1  0
 31 30  2  0
M  END
$$$$
