FQF.pdb
     RDKit          3D

 32 33  0  0  1  0  0  0  0  0999 V2000
   25.1698  -18.0058  -19.2739 N   0  0  0  0  0  0  0  0  0  0  0  0
   26.2514  -18.2570  -18.3785 C   0  0  1  0  0  0  0  0  0  0  0  0
   26.5917  -17.0336  -17.5583 C   0  0  0  0  0  0  0  0  0  0  0  0
   27.4886  -16.1039  -18.2727 C   0  0  0  0  0  0  0  0  0  0  0  0
   28.7793  -16.4910  -18.5152 C   0  0  0  0  0  0  0  0  0  0  0  0
   29.6865  -15.6875  -19.1754 C   0  0  0  0  0  0  0  0  0  0  0  0
   29.2749  -14.4344  -19.6124 C   0  0  0  0  0  0  0  0  0  0  0  0
   27.9802  -14.0518  -19.3666 C   0  0  0  0  0  0  0  0  0  0  0  0
   27.0750  -14.8614  -18.7043 C   0  0  0  0  0  0  0  0  0  0  0  0
   26.0292  -19.3887  -17.4574 C   0  0  0  0  0  0  0  0  0  0  0  0
   24.8688  -19.5585  -17.0155 O   0  0  0  0  0  0  0  0  0  0  0  0
   29.2421  -24.8801  -17.2717 N   0  0  0  0  0  0  0  0  0  0  0  0
   28.3058  -24.9986  -16.2159 C   0  0  0  0  0  0  0  0  0  0  0  0
   28.2213  -26.0924  -15.6241 O   0  0  0  0  0  0  0  0  0  0  0  0
   27.4714  -23.8508  -15.8517 C   0  0  0  0  0  0  0  0  0  0  0  0
   27.7190  -22.5966  -16.6325 C   0  0  0  0  0  0  0  0  0  0  0  0
   26.7989  -21.5007  -16.2707 C   0  0  2  0  0  0  0  0  0  0  0  0
   27.0314  -20.2870  -17.0439 N   0  0  0  0  0  0  0  0  0  0  0  0
   27.0189  -21.1339  -14.8565 C   0  0  0  0  0  0  0  0  0  0  0  0
   27.9381  -20.3530  -14.5525 O   0  0  0  0  0  0  0  0  0  0  0  0
   26.2111  -21.6470  -13.8327 N   0  0  0  0  0  0  0  0  0  0  0  0
   26.4001  -21.2986  -12.4190 C   0  0  1  0  0  0  0  0  0  0  0  0
   25.7935  -19.9254  -12.2121 C   0  0  0  0  0  0  0  0  0  0  0  0
   24.3135  -19.9248  -12.3032 C   0  0  0  0  0  0  0  0  0  0  0  0
   23.7013  -19.7153  -13.5369 C   0  0  0  0  0  0  0  0  0  0  0  0
   22.3320  -19.7099  -13.6746 C   0  0  0  0  0  0  0  0  0  0  0  0
   21.5050  -19.9130  -12.5903 C   0  0  0  0  0  0  0  0  0  0  0  0
   22.0955  -20.1215  -11.3644 C   0  0  0  0  0  0  0  0  0  0  0  0
   23.4744  -20.1266  -11.2275 C   0  0  0  0  0  0  0  0  0  0  0  0
   25.8425  -22.3178  -11.5319 C   0  0  0  0  0  0  0  0  0  0  0  0
   26.0204  -22.2042  -10.2963 O   0  0  0  0  0  0  0  0  0  0  0  0
   25.1302  -23.3950  -12.0059 O   0  0  0  0  0  0  0  0  0  0  0  0
  2  1  1  1
  2  3  1  0
  4  3  1  0
  4  5  2  0
  6  5  1  0
  7  6  2  0
  8  9  2  0
  8  7  1  0
  9  4  1  0
 10  2  1  0
 10 11  2  0
 13 12  1  0
 13 14  2  0
 15 16  1  0
 15 13  1  0
 17 18  1  0
 17 16  1  6
 18 10  1  0
 19 17  1  0
 20 19  2  0
 21 19  1  0
 22 21  1  0
 23 24  1  0
 22 23  1  6
 24 29  2  0
 25 26  2  0
 25 24  1  0
 26 27  1  0
 27 28  2  0
 29 28  1  0
 30 22  1  0
 30 32  1  0
 31 30  2  0
M  END
$$$$
