FQF.pdb
     RDKit          3D

 32 33  0  0  1  0  0  0  0  0999 V2000
   13.0620  -22.4935    0.1425 N   0  0  0  0  0  0  0  0  0  0  0  0
   14.3949  -22.6881    0.6116 C   0  0  1  0  0  0  0  0  0  0  0  0
   15.4161  -22.2602   -0.4176 C   0  0  0  0  0  0  0  0  0  0  0  0
   15.4201  -23.1322   -1.6087 C   0  0  0  0  0  0  0  0  0  0  0  0
   14.8162  -22.6852   -2.7533 C   0  0  0  0  0  0  0  0  0  0  0  0
   14.7718  -23.4321   -3.9128 C   0  0  0  0  0  0  0  0  0  0  0  0
   15.3637  -24.6892   -3.9207 C   0  0  0  0  0  0  0  0  0  0  0  0
   15.9675  -25.1321   -2.7708 C   0  0  0  0  0  0  0  0  0  0  0  0
   16.0089  -24.3790   -1.6112 C   0  0  0  0  0  0  0  0  0  0  0  0
   14.6993  -22.0031    1.8831 C   0  0  0  0  0  0  0  0  0  0  0  0
   14.0045  -21.0050    2.1856 O   0  0  0  0  0  0  0  0  0  0  0  0
   18.2994  -24.1412    6.8195 N   0  0  0  0  0  0  0  0  0  0  0  0
   17.7893  -22.8901    7.2436 C   0  0  0  0  0  0  0  0  0  0  0  0
   18.0054  -22.5340    8.4184 O   0  0  0  0  0  0  0  0  0  0  0  0
   17.0306  -22.0586    6.3060 C   0  0  0  0  0  0  0  0  0  0  0  0
   16.7203  -22.6914    4.9841 C   0  0  0  0  0  0  0  0  0  0  0  0
   15.9463  -21.8087    4.0895 C   0  0  2  0  0  0  0  0  0  0  0  0
   15.7151  -22.3958    2.7754 N   0  0  0  0  0  0  0  0  0  0  0  0
   16.7137  -20.5681    3.8547 C   0  0  0  0  0  0  0  0  0  0  0  0
   17.5239  -20.5071    2.9128 O   0  0  0  0  0  0  0  0  0  0  0  0
   16.5536  -19.4420    4.6733 N   0  0  0  0  0  0  0  0  0  0  0  0
   17.3066  -18.1978    4.4720 C   0  0  1  0  0  0  0  0  0  0  0  0
   16.6613  -17.4674    3.3117 C   0  0  0  0  0  0  0  0  0  0  0  0
   17.3193  -16.1754    3.0009 C   0  0  0  0  0  0  0  0  0  0  0  0
   16.7272  -14.9852    3.4176 C   0  0  0  0  0  0  0  0  0  0  0  0
   17.3003  -13.7612    3.1579 C   0  0  0  0  0  0  0  0  0  0  0  0
   18.4912  -13.6623    2.4705 C   0  0  0  0  0  0  0  0  0  0  0  0
   19.0883  -14.8301    2.0522 C   0  0  0  0  0  0  0  0  0  0  0  0
   18.5101  -16.0617    2.3145 C   0  0  0  0  0  0  0  0  0  0  0  0
   17.3697  -17.4003    5.6954 C   0  0  0  0  0  0  0  0  0  0  0  0
   16.5199  -17.6061    6.5936 O   0  0  0  0  0  0  0  0  0  0  0  0
   18.3283  -16.4339    5.8943 O   0  0  0  0  0  0  0  0  0  0  0  0
  2  1  1  6
  2  3  1  0
  4  3  1  0
  4  5  2  0
  6  5  1  0
  7  6  2  0
  8  9  2  0
  8  7  1  0
  9  4  1  0
 10  2  1  0
 10 11  2  0
 13 12  1  0
 13 14  2  0
 15 16  1  0
 15 13  1  0
 17 18  1  0
 17 16  1  1
 18 10  1  0
 19 17  1  0
 20 19  2  0
 21 19  1  0
 22 21  1  0
 23 24  1  0
 22 23  1  6
 24 29  2  0
 25 26  2  0
 25 24  1  0
 26 27  1  0
 27 28  2  0
 29 28  1  0
 30 22  1  0
 30 32  1  0
 31 30  2  0
M  END
$$$$
