FQF.pdb
     RDKit          3D

 32 33  0  0  1  0  0  0  0  0999 V2000
   14.5522  -19.6769    2.7813 N   0  0  0  0  0  0  0  0  0  0  0  0
   15.5960  -18.7221    2.9645 C   0  0  1  0  0  0  0  0  0  0  0  0
   15.3816  -17.4916    2.1128 C   0  0  0  0  0  0  0  0  0  0  0  0
   16.4991  -16.5321    2.2118 C   0  0  0  0  0  0  0  0  0  0  0  0
   16.2656  -15.3064    2.7755 C   0  0  0  0  0  0  0  0  0  0  0  0
   17.2497  -14.3482    2.9091 C   0  0  0  0  0  0  0  0  0  0  0  0
   18.5301  -14.6376    2.4535 C   0  0  0  0  0  0  0  0  0  0  0  0
   18.7582  -15.8676    1.8894 C   0  0  0  0  0  0  0  0  0  0  0  0
   17.7679  -16.8244    1.7581 C   0  0  0  0  0  0  0  0  0  0  0  0
   15.7901  -18.2928    4.3633 C   0  0  0  0  0  0  0  0  0  0  0  0
   14.7662  -18.0436    5.0415 O   0  0  0  0  0  0  0  0  0  0  0  0
   16.5163  -21.2272    8.8550 N   0  0  0  0  0  0  0  0  0  0  0  0
   17.5288  -21.2938    7.8674 C   0  0  0  0  0  0  0  0  0  0  0  0
   18.1945  -22.3438    7.7768 O   0  0  0  0  0  0  0  0  0  0  0  0
   17.7665  -20.1444    6.9908 C   0  0  0  0  0  0  0  0  0  0  0  0
   16.9671  -18.9163    7.3021 C   0  0  0  0  0  0  0  0  0  0  0  0
   17.2498  -17.7958    6.3840 C   0  0  2  0  0  0  0  0  0  0  0  0
   17.0454  -18.1453    4.9836 N   0  0  0  0  0  0  0  0  0  0  0  0
   18.6728  -17.4182    6.5084 C   0  0  0  0  0  0  0  0  0  0  0  0
   19.4809  -17.7372    5.6180 O   0  0  0  0  0  0  0  0  0  0  0  0
   19.1461  -16.7011    7.6155 N   0  0  0  0  0  0  0  0  0  0  0  0
   20.5678  -16.3955    7.8177 C   0  0  1  0  0  0  0  0  0  0  0  0
   20.6413  -15.0559    8.5222 C   0  0  0  0  0  0  0  0  0  0  0  0
   20.3538  -13.9112    7.6245 C   0  0  0  0  0  0  0  0  0  0  0  0
   21.4093  -13.2117    7.0438 C   0  0  0  0  0  0  0  0  0  0  0  0
   21.1948  -12.1455    6.2004 C   0  0  0  0  0  0  0  0  0  0  0  0
   19.9186  -11.7235    5.8939 C   0  0  0  0  0  0  0  0  0  0  0  0
   18.8652  -12.4052    6.4604 C   0  0  0  0  0  0  0  0  0  0  0  0
   19.0828  -13.4785    7.3093 C   0  0  0  0  0  0  0  0  0  0  0  0
   21.2540  -17.4669    8.5373 C   0  0  0  0  0  0  0  0  0  0  0  0
   20.5906  -18.1905    9.3168 O   0  0  0  0  0  0  0  0  0  0  0  0
   22.6001  -17.7080    8.3881 O   0  0  0  0  0  0  0  0  0  0  0  0
  2  1  1  1
  2  3  1  0
  4  3  1  0
  4  5  2  0
  6  5  1  0
  7  6  2  0
  8  9  2  0
  8  7  1  0
  9  4  1  0
 10  2  1  0
 10 11  2  0
 13 12  1  0
 13 14  2  0
 15 16  1  0
 15 13  1  0
 17 18  1  0
 17 16  1  1
 18 10  1  0
 19 17  1  0
 20 19  2  0
 21 19  1  0
 22 21  1  0
 23 24  1  0
 22 23  1  1
 24 29  2  0
 25 26  2  0
 25 24  1  0
 26 27  1  0
 27 28  2  0
 29 28  1  0
 30 22  1  0
 30 32  1  0
 31 30  2  0
M  END
$$$$
