FQF.pdb
     RDKit          3D

 32 33  0  0  1  0  0  0  0  0999 V2000
   27.9844   -4.7240  -19.9580 N   0  0  0  0  0  0  0  0  0  0  0  0
   27.1508   -5.8780  -19.8686 C   0  0  1  0  0  0  0  0  0  0  0  0
   27.9144   -7.0790  -19.3588 C   0  0  0  0  0  0  0  0  0  0  0  0
   28.9538   -7.5328  -20.3038 C   0  0  0  0  0  0  0  0  0  0  0  0
   30.2448   -7.1203  -20.1095 C   0  0  0  0  0  0  0  0  0  0  0  0
   31.2798   -7.4948  -20.9420 C   0  0  0  0  0  0  0  0  0  0  0  0
   31.0021   -8.3240  -22.0217 C   0  0  0  0  0  0  0  0  0  0  0  0
   29.7064   -8.7342  -22.2116 C   0  0  0  0  0  0  0  0  0  0  0  0
   28.6727   -8.3557  -21.3738 C   0  0  0  0  0  0  0  0  0  0  0  0
   25.9500   -5.6985  -19.0294 C   0  0  0  0  0  0  0  0  0  0  0  0
   26.0408   -4.9316  -18.0424 O   0  0  0  0  0  0  0  0  0  0  0  0
   21.4388   -3.2131  -18.8928 N   0  0  0  0  0  0  0  0  0  0  0  0
   20.6717   -4.2452  -18.3001 C   0  0  0  0  0  0  0  0  0  0  0  0
   19.6612   -3.9250  -17.6442 O   0  0  0  0  0  0  0  0  0  0  0  0
   21.0789   -5.6423  -18.4685 C   0  0  0  0  0  0  0  0  0  0  0  0
   22.3141   -5.8626  -19.2869 C   0  0  0  0  0  0  0  0  0  0  0  0
   23.5099   -6.1332  -18.4652 C   0  0  2  0  0  0  0  0  0  0  0  0
   24.7135   -6.3298  -19.2638 N   0  0  0  0  0  0  0  0  0  0  0  0
   23.3055   -7.3902  -17.7161 C   0  0  0  0  0  0  0  0  0  0  0  0
   23.2703   -8.4762  -18.3217 O   0  0  0  0  0  0  0  0  0  0  0  0
   23.1479   -7.3954  -16.3236 N   0  0  0  0  0  0  0  0  0  0  0  0
   22.8973   -8.6211  -15.5553 C   0  0  1  0  0  0  0  0  0  0  0  0
   24.0557   -8.7904  -14.5932 C   0  0  0  0  0  0  0  0  0  0  0  0
   25.2672   -9.3533  -15.2367 C   0  0  0  0  0  0  0  0  0  0  0  0
   26.0052   -8.5667  -16.1184 C   0  0  0  0  0  0  0  0  0  0  0  0
   27.1391   -9.0412  -16.7374 C   0  0  0  0  0  0  0  0  0  0  0  0
   27.5938  -10.3225  -16.5087 C   0  0  0  0  0  0  0  0  0  0  0  0
   26.8749  -11.1118  -15.6396 C   0  0  0  0  0  0  0  0  0  0  0  0
   25.7335  -10.6325  -15.0171 C   0  0  0  0  0  0  0  0  0  0  0  0
   21.5946   -8.5871  -14.8931 C   0  0  0  0  0  0  0  0  0  0  0  0
   20.9869   -7.4936  -14.8141 O   0  0  0  0  0  0  0  0  0  0  0  0
   21.0137   -9.7122  -14.3552 O   0  0  0  0  0  0  0  0  0  0  0  0
  2  1  1  1
  2  3  1  0
  4  3  1  0
  4  5  2  0
  6  5  1  0
  7  6  2  0
  8  9  2  0
  8  7  1  0
  9  4  1  0
 10  2  1  0
 10 11  2  0
 13 12  1  0
 13 14  2  0
 15 16  1  0
 15 13  1  0
 17 18  1  0
 17 16  1  6
 18 10  1  0
 19 17  1  0
 20 19  2  0
 21 19  1  0
 22 21  1  0
 23 24  1  0
 22 23  1  1
 24 29  2  0
 25 26  2  0
 25 24  1  0
 26 27  1  0
 27 28  2  0
 29 28  1  0
 30 22  1  0
 30 32  1  0
 31 30  2  0
M  END
$$$$
