FQF.pdb
     RDKit          3D

 32 33  0  0  1  0  0  0  0  0999 V2000
   23.7926  -13.9036  -18.3105 N   0  0  0  0  0  0  0  0  0  0  0  0
   23.7062  -13.2040  -17.0705 C   0  0  1  0  0  0  0  0  0  0  0  0
   25.0737  -12.8344  -16.5425 C   0  0  0  0  0  0  0  0  0  0  0  0
   25.9076  -14.0174  -16.2516 C   0  0  0  0  0  0  0  0  0  0  0  0
   25.7393  -14.6628  -15.0559 C   0  0  0  0  0  0  0  0  0  0  0  0
   26.4742  -15.7754  -14.7000 C   0  0  0  0  0  0  0  0  0  0  0  0
   27.4239  -16.2615  -15.5902 C   0  0  0  0  0  0  0  0  0  0  0  0
   27.5882  -15.6106  -16.7870 C   0  0  0  0  0  0  0  0  0  0  0  0
   26.8487  -14.4956  -17.1386 C   0  0  0  0  0  0  0  0  0  0  0  0
   22.8787  -11.9827  -17.1165 C   0  0  0  0  0  0  0  0  0  0  0  0
   22.9566  -11.2669  -18.1422 O   0  0  0  0  0  0  0  0  0  0  0  0
   17.6983  -10.7744  -17.7865 N   0  0  0  0  0  0  0  0  0  0  0  0
   17.7455   -9.6671  -16.9052 C   0  0  0  0  0  0  0  0  0  0  0  0
   16.8862   -8.7736  -17.0361 O   0  0  0  0  0  0  0  0  0  0  0  0
   18.7877   -9.5991  -15.8779 C   0  0  0  0  0  0  0  0  0  0  0  0
   19.7150  -10.7740  -15.8175 C   0  0  0  0  0  0  0  0  0  0  0  0
   21.1075  -10.4283  -16.1634 C   0  0  2  0  0  0  0  0  0  0  0  0
   22.0105  -11.5703  -16.0877 N   0  0  0  0  0  0  0  0  0  0  0  0
   21.6148   -9.4398  -15.1895 C   0  0  0  0  0  0  0  0  0  0  0  0
   22.0069   -9.8146  -14.0701 O   0  0  0  0  0  0  0  0  0  0  0  0
   21.6681   -8.0729  -15.4938 N   0  0  0  0  0  0  0  0  0  0  0  0
   22.1302   -7.0612  -14.5354 C   0  0  1  0  0  0  0  0  0  0  0  0
   23.2587   -6.2986  -15.1996 C   0  0  0  0  0  0  0  0  0  0  0  0
   22.7862   -5.3461  -16.2332 C   0  0  0  0  0  0  0  0  0  0  0  0
   22.5871   -5.7916  -17.5381 C   0  0  0  0  0  0  0  0  0  0  0  0
   22.1455   -4.9483  -18.5320 C   0  0  0  0  0  0  0  0  0  0  0  0
   21.8805   -3.6199  -18.2753 C   0  0  0  0  0  0  0  0  0  0  0  0
   22.0726   -3.1651  -16.9902 C   0  0  0  0  0  0  0  0  0  0  0  0
   22.5172   -4.0155  -15.9906 C   0  0  0  0  0  0  0  0  0  0  0  0
   21.0360   -6.2022  -14.0866 C   0  0  0  0  0  0  0  0  0  0  0  0
   21.2383   -5.4193  -13.1287 O   0  0  0  0  0  0  0  0  0  0  0  0
   19.7945   -6.2232  -14.6787 O   0  0  0  0  0  0  0  0  0  0  0  0
  2  1  1  6
  2  3  1  0
  4  3  1  0
  4  5  2  0
  6  5  1  0
  7  6  2  0
  8  9  2  0
  8  7  1  0
  9  4  1  0
 10  2  1  0
 10 11  2  0
 13 12  1  0
 13 14  2  0
 15 16  1  0
 15 13  1  0
 17 18  1  0
 17 16  1  1
 18 10  1  0
 19 17  1  0
 20 19  2  0
 21 19  1  0
 22 21  1  0
 23 24  1  0
 22 23  1  6
 24 29  2  0
 25 26  2  0
 25 24  1  0
 26 27  1  0
 27 28  2  0
 29 28  1  0
 30 22  1  0
 30 32  1  0
 31 30  2  0
M  END
$$$$
