FQF.pdb
     RDKit          3D

 32 33  0  0  1  0  0  0  0  0999 V2000
   29.9945  -20.8788  -14.3061 N   0  0  0  0  0  0  0  0  0  0  0  0
   29.6383  -20.9898  -12.9293 C   0  0  1  0  0  0  0  0  0  0  0  0
   30.5954  -20.2261  -12.0427 C   0  0  0  0  0  0  0  0  0  0  0  0
   31.3305  -21.1054  -11.1123 C   0  0  0  0  0  0  0  0  0  0  0  0
   32.2772  -21.9547  -11.6194 C   0  0  0  0  0  0  0  0  0  0  0  0
   33.0119  -22.8112  -10.8249 C   0  0  0  0  0  0  0  0  0  0  0  0
   32.7828  -22.8128   -9.4544 C   0  0  0  0  0  0  0  0  0  0  0  0
   31.8328  -21.9595   -8.9519 C   0  0  0  0  0  0  0  0  0  0  0  0
   31.0992  -21.1031   -9.7530 C   0  0  0  0  0  0  0  0  0  0  0  0
   28.2638  -20.5508  -12.6185 C   0  0  0  0  0  0  0  0  0  0  0  0
   27.9603  -19.3636  -12.8808 O   0  0  0  0  0  0  0  0  0  0  0  0
   23.7475  -19.2608  -14.0013 N   0  0  0  0  0  0  0  0  0  0  0  0
   23.3486  -19.6020  -12.6861 C   0  0  0  0  0  0  0  0  0  0  0  0
   22.8571  -18.7082  -11.9696 O   0  0  0  0  0  0  0  0  0  0  0  0
   23.5219  -20.9754  -12.2068 C   0  0  0  0  0  0  0  0  0  0  0  0
   24.8715  -21.5796  -12.4468 C   0  0  0  0  0  0  0  0  0  0  0  0
   25.9407  -20.9338  -11.6606 C   0  0  2  0  0  0  0  0  0  0  0  0
   27.2748  -21.3751  -12.0487 N   0  0  0  0  0  0  0  0  0  0  0  0
   25.7842  -21.3043  -10.2389 C   0  0  0  0  0  0  0  0  0  0  0  0
   25.9617  -22.4820   -9.8801 O   0  0  0  0  0  0  0  0  0  0  0  0
   25.4367  -20.3546   -9.2688 N   0  0  0  0  0  0  0  0  0  0  0  0
   25.0834  -20.7168   -7.8905 C   0  0  1  0  0  0  0  0  0  0  0  0
   25.5323  -19.5764   -6.9994 C   0  0  0  0  0  0  0  0  0  0  0  0
   26.7789  -19.8775   -6.2550 C   0  0  0  0  0  0  0  0  0  0  0  0
   27.9936  -19.3770   -6.7185 C   0  0  0  0  0  0  0  0  0  0  0  0
   29.1772  -19.6244   -6.0611 C   0  0  0  0  0  0  0  0  0  0  0  0
   29.2092  -20.3823   -4.9099 C   0  0  0  0  0  0  0  0  0  0  0  0
   28.0165  -20.8837   -4.4397 C   0  0  0  0  0  0  0  0  0  0  0  0
   26.8257  -20.6337   -5.1027 C   0  0  0  0  0  0  0  0  0  0  0  0
   23.6609  -21.0276   -7.7611 C   0  0  0  0  0  0  0  0  0  0  0  0
   23.2483  -21.5277   -6.6883 O   0  0  0  0  0  0  0  0  0  0  0  0
   22.7614  -20.7900   -8.7744 O   0  0  0  0  0  0  0  0  0  0  0  0
  2  1  1  6
  2  3  1  0
  4  3  1  0
  4  5  2  0
  6  5  1  0
  7  6  2  0
  8  9  2  0
  8  7  1  0
  9  4  1  0
 10  2  1  0
 10 11  2  0
 13 12  1  0
 13 14  2  0
 15 16  1  0
 15 13  1  0
 17 18  1  0
 17 16  1  6
 18 10  1  0
 19 17  1  0
 20 19  2  0
 21 19  1  0
 22 21  1  0
 23 24  1  0
 22 23  1  1
 24 29  2  0
 25 26  2  0
 25 24  1  0
 26 27  1  0
 27 28  2  0
 29 28  1  0
 30 22  1  0
 30 32  1  0
 31 30  2  0
M  END
$$$$
