FQF.pdb
     RDKit          3D

 32 33  0  0  1  0  0  0  0  0999 V2000
   18.1123  -10.4640  -18.2328 N   0  0  0  0  0  0  0  0  0  0  0  0
   19.2296   -9.8203  -18.8426 C   0  0  1  0  0  0  0  0  0  0  0  0
   18.8018   -8.6393  -19.6838 C   0  0  0  0  0  0  0  0  0  0  0  0
   18.0182   -9.0415  -20.8685 C   0  0  0  0  0  0  0  0  0  0  0  0
   18.6855   -9.4830  -21.9796 C   0  0  0  0  0  0  0  0  0  0  0  0
   18.0354   -9.8789  -23.1307 C   0  0  0  0  0  0  0  0  0  0  0  0
   16.6473   -9.8281  -23.1651 C   0  0  0  0  0  0  0  0  0  0  0  0
   15.9838   -9.3849  -22.0486 C   0  0  0  0  0  0  0  0  0  0  0  0
   16.6407   -8.9892  -20.8973 C   0  0  0  0  0  0  0  0  0  0  0  0
   20.2637   -9.3656  -17.8925 C   0  0  0  0  0  0  0  0  0  0  0  0
   19.8912   -9.0387  -16.7415 O   0  0  0  0  0  0  0  0  0  0  0  0
   24.8317  -11.5028  -15.9111 N   0  0  0  0  0  0  0  0  0  0  0  0
   25.3989  -10.2233  -15.6959 C   0  0  0  0  0  0  0  0  0  0  0  0
   26.1777  -10.0790  -14.7334 O   0  0  0  0  0  0  0  0  0  0  0  0
   25.0607   -9.1173  -16.5951 C   0  0  0  0  0  0  0  0  0  0  0  0
   24.0085   -9.4141  -17.6192 C   0  0  0  0  0  0  0  0  0  0  0  0
   22.6769   -8.8996  -17.2440 C   0  0  2  0  0  0  0  0  0  0  0  0
   21.6362   -9.2753  -18.1932 N   0  0  0  0  0  0  0  0  0  0  0  0
   22.7144   -7.4227  -17.2406 C   0  0  0  0  0  0  0  0  0  0  0  0
   22.7657   -6.7995  -18.3160 O   0  0  0  0  0  0  0  0  0  0  0  0
   22.6934   -6.6924  -16.0447 N   0  0  0  0  0  0  0  0  0  0  0  0
   22.7908   -5.2279  -16.0042 C   0  0  1  0  0  0  0  0  0  0  0  0
   21.5211   -4.7132  -15.3569 C   0  0  0  0  0  0  0  0  0  0  0  0
   20.3651   -4.6882  -16.2852 C   0  0  0  0  0  0  0  0  0  0  0  0
   19.3856   -5.6741  -16.1892 C   0  0  0  0  0  0  0  0  0  0  0  0
   18.2916   -5.6922  -17.0241 C   0  0  0  0  0  0  0  0  0  0  0  0
   18.1194   -4.7293  -17.9956 C   0  0  0  0  0  0  0  0  0  0  0  0
   19.0793   -3.7483  -18.1026 C   0  0  0  0  0  0  0  0  0  0  0  0
   20.1801   -3.7315  -17.2611 C   0  0  0  0  0  0  0  0  0  0  0  0
   24.0075   -4.7857  -15.3254 C   0  0  0  0  0  0  0  0  0  0  0  0
   24.7896   -5.6508  -14.8658 O   0  0  0  0  0  0  0  0  0  0  0  0
   24.3230   -3.4553  -15.1747 O   0  0  0  0  0  0  0  0  0  0  0  0
  2  1  1  1
  2  3  1  0
  4  3  1  0
  4  5  2  0
  6  5  1  0
  7  6  2  0
  8  9  2  0
  8  7  1  0
  9  4  1  0
 10  2  1  0
 10 11  2  0
 13 12  1  0
 13 14  2  0
 15 16  1  0
 15 13  1  0
 17 18  1  0
 17 16  1  6
 18 10  1  0
 19 17  1  0
 20 19  2  0
 21 19  1  0
 22 21  1  0
 23 24  1  0
 22 23  1  1
 24 29  2  0
 25 26  2  0
 25 24  1  0
 26 27  1  0
 27 28  2  0
 29 28  1  0
 30 22  1  0
 30 32  1  0
 31 30  2  0
M  END
$$$$
