IIR.pdb
     RDKit          3D

 28 27  0  0  1  0  0  0  0  0999 V2000
    6.0417  -17.9389   19.3712 C   0  0  0  0  0  0  0  0  0  0  0  0
    6.1345  -16.5432   19.8943 C   0  0  0  0  0  0  0  0  0  0  0  0
    7.0708  -16.4371   21.1068 C   0  0  2  0  0  0  0  0  0  0  0  0
    6.7549  -17.4978   22.1031 C   0  0  0  0  0  0  0  0  0  0  0  0
    6.9682  -15.0288   21.5994 C   0  0  2  0  0  0  0  0  0  0  0  0
    7.3883  -14.1759   20.4673 N   0  0  0  0  0  0  0  0  0  0  0  0
    7.8356  -14.6867   22.7291 C   0  0  0  0  0  0  0  0  0  0  0  0
    9.0930  -14.6330   22.5918 O   0  0  0  0  0  0  0  0  0  0  0  0
    5.9002  -11.3827   26.4133 C   0  0  0  0  0  0  0  0  0  0  0  0
    6.9136  -12.0391   25.5361 C   0  0  0  0  0  0  0  0  0  0  0  0
    7.4578  -13.3303   26.1277 C   0  0  2  0  0  0  0  0  0  0  0  0
    8.1263  -13.0313   27.4280 C   0  0  0  0  0  0  0  0  0  0  0  0
    8.2884  -14.0899   25.1342 C   0  0  2  0  0  0  0  0  0  0  0  0
    7.3566  -14.3959   24.0254 N   0  0  0  0  0  0  0  0  0  0  0  0
    8.6904  -15.3814   25.7188 C   0  0  0  0  0  0  0  0  0  0  0  0
    7.8004  -16.2080   26.1375 O   0  0  0  0  0  0  0  0  0  0  0  0
   11.7309  -21.1423   20.8705 N   0  0  0  0  0  0  0  0  0  0  0  0
   12.4576  -20.6868   22.0036 C   0  0  0  0  0  0  0  0  0  0  0  0
   13.7516  -20.7026   21.9955 N   0  0  0  0  0  0  0  0  0  0  0  0
   11.8166  -20.1996   23.1794 N   0  0  0  0  0  0  0  0  0  0  0  0
   12.6110  -19.6732   24.2946 C   0  0  0  0  0  0  0  0  0  0  0  0
   11.6716  -19.2261   25.4013 C   0  0  0  0  0  0  0  0  0  0  0  0
   11.2477  -17.8113   25.0765 C   0  0  0  0  0  0  0  0  0  0  0  0
   10.3241  -17.2468   26.1474 C   0  0  2  0  0  0  0  0  0  0  0  0
   10.0266  -15.8440   25.8773 N   0  0  0  0  0  0  0  0  0  0  0  0
   10.8895  -17.4330   27.4920 C   0  0  0  0  0  0  0  0  0  0  0  0
   11.1027  -16.3805   28.3556 O   0  0  0  0  0  0  0  0  0  0  0  0
   11.1948  -18.5870   27.8819 O   0  0  0  0  0  0  0  0  0  0  0  0
  2  1  1  0
  3  2  1  0
  3  4  1  1
  5  6  1  6
  5  3  1  0
  7  5  1  0
  8  7  2  0
  9 10  1  0
 11 10  1  0
 11 13  1  0
 11 12  1  1
 13 15  1  0
 13 14  1  6
 14  7  1  0
 15 16  2  0
 17 18  1  0
 18 19  2  0
 18 20  1  0
 20 21  1  0
 21 22  1  0
 23 22  1  0
 24 23  1  6
 25 24  1  0
 25 15  1  0
 26 24  1  0
 27 26  1  0
 28 26  2  0
M  END
$$$$
