IIR.pdb
     RDKit          3D

 28 27  0  0  1  0  0  0  0  0999 V2000
    6.4374  -18.3602   19.4766 C   0  0  0  0  0  0  0  0  0  0  0  0
    6.1844  -16.9805   19.9890 C   0  0  0  0  0  0  0  0  0  0  0  0
    7.1506  -16.5925   21.1177 C   0  0  2  0  0  0  0  0  0  0  0  0
    7.1579  -17.6370   22.1790 C   0  0  0  0  0  0  0  0  0  0  0  0
    6.7576  -15.2184   21.5582 C   0  0  2  0  0  0  0  0  0  0  0  0
    6.9427  -14.3496   20.3764 N   0  0  0  0  0  0  0  0  0  0  0  0
    7.5654  -14.6420   22.6356 C   0  0  0  0  0  0  0  0  0  0  0  0
    8.7583  -14.2718   22.4286 O   0  0  0  0  0  0  0  0  0  0  0  0
    5.6894  -11.3786   26.4735 C   0  0  0  0  0  0  0  0  0  0  0  0
    6.6199  -12.0549   25.5225 C   0  0  0  0  0  0  0  0  0  0  0  0
    7.1451  -13.3799   26.0533 C   0  0  2  0  0  0  0  0  0  0  0  0
    7.7605  -13.1622   27.3953 C   0  0  0  0  0  0  0  0  0  0  0  0
    8.0172  -14.0747   25.0480 C   0  0  2  0  0  0  0  0  0  0  0  0
    7.0953  -14.4553   23.9542 N   0  0  0  0  0  0  0  0  0  0  0  0
    8.5279  -15.3294   25.6280 C   0  0  0  0  0  0  0  0  0  0  0  0
    7.7137  -16.1998   26.1077 O   0  0  0  0  0  0  0  0  0  0  0  0
   15.4477  -20.1823   23.5604 N   0  0  0  0  0  0  0  0  0  0  0  0
   14.0719  -20.3106   23.2277 C   0  0  0  0  0  0  0  0  0  0  0  0
   13.7203  -20.9090   22.1355 N   0  0  0  0  0  0  0  0  0  0  0  0
   13.0323  -19.8010   24.0585 N   0  0  0  0  0  0  0  0  0  0  0  0
   13.3530  -19.1360   25.3260 C   0  0  0  0  0  0  0  0  0  0  0  0
   12.0595  -18.8051   26.0503 C   0  0  0  0  0  0  0  0  0  0  0  0
   11.5694  -17.4852   25.4986 C   0  0  0  0  0  0  0  0  0  0  0  0
   10.2947  -17.0290   26.1955 C   0  0  2  0  0  0  0  0  0  0  0  0
    9.8962  -15.7090   25.7181 N   0  0  0  0  0  0  0  0  0  0  0  0
   10.4475  -17.0545   27.6578 C   0  0  0  0  0  0  0  0  0  0  0  0
   10.6409  -18.2246   28.3597 O   0  0  0  0  0  0  0  0  0  0  0  0
   10.4018  -15.9793   28.3048 O   0  0  0  0  0  0  0  0  0  0  0  0
  2  1  1  0
  3  2  1  0
  3  4  1  1
  5  6  1  6
  5  3  1  0
  7  5  1  0
  8  7  2  0
  9 10  1  0
 11 10  1  0
 11 13  1  0
 11 12  1  1
 13 15  1  0
 13 14  1  6
 14  7  1  0
 15 16  2  0
 17 18  1  0
 18 19  2  0
 18 20  1  0
 20 21  1  0
 21 22  1  0
 23 22  1  0
 24 23  1  6
 25 24  1  0
 25 15  1  0
 26 24  1  0
 27 26  1  0
 28 26  2  0
M  END
$$$$
