IIR.pdb
     RDKit          3D

 28 27  0  0  1  0  0  0  0  0999 V2000
    7.1318  -16.2137   17.8286 C   0  0  0  0  0  0  0  0  0  0  0  0
    7.1114  -15.0007   18.6995 C   0  0  0  0  0  0  0  0  0  0  0  0
    7.6733  -15.2809   20.1009 C   0  0  2  0  0  0  0  0  0  0  0  0
    7.0355  -16.4929   20.6850 C   0  0  0  0  0  0  0  0  0  0  0  0
    7.5098  -14.0169   20.8833 C   0  0  2  0  0  0  0  0  0  0  0  0
    8.1610  -12.9603   20.0801 N   0  0  0  0  0  0  0  0  0  0  0  0
    8.1494  -13.9989   22.2010 C   0  0  0  0  0  0  0  0  0  0  0  0
    9.4096  -14.0460   22.3139 O   0  0  0  0  0  0  0  0  0  0  0  0
    6.2473  -11.0079   26.1473 C   0  0  0  0  0  0  0  0  0  0  0  0
    7.1626  -11.7880   25.2635 C   0  0  0  0  0  0  0  0  0  0  0  0
    7.2721  -13.2493   25.6711 C   0  0  2  0  0  0  0  0  0  0  0  0
    7.6671  -13.3300   27.1079 C   0  0  0  0  0  0  0  0  0  0  0  0
    8.1334  -14.0284   24.7198 C   0  0  2  0  0  0  0  0  0  0  0  0
    7.4362  -13.9283   23.4178 N   0  0  0  0  0  0  0  0  0  0  0  0
    8.1186  -15.4518   25.1004 C   0  0  0  0  0  0  0  0  0  0  0  0
    7.4096  -16.2926   24.4362 O   0  0  0  0  0  0  0  0  0  0  0  0
    9.5951  -19.9763   21.1938 N   0  0  0  0  0  0  0  0  0  0  0  0
   10.7178  -19.1980   20.8019 C   0  0  0  0  0  0  0  0  0  0  0  0
   11.0199  -19.0774   19.5493 N   0  0  0  0  0  0  0  0  0  0  0  0
   11.5492  -18.5248   21.7432 N   0  0  0  0  0  0  0  0  0  0  0  0
   11.3111  -18.6719   23.1832 C   0  0  0  0  0  0  0  0  0  0  0  0
   10.2007  -17.7223   23.5988 C   0  0  0  0  0  0  0  0  0  0  0  0
   10.6546  -17.0413   24.8704 C   0  0  0  0  0  0  0  0  0  0  0  0
    9.6487  -17.2372   25.9967 C   0  0  2  0  0  0  0  0  0  0  0  0
    8.8439  -16.0336   26.1775 N   0  0  0  0  0  0  0  0  0  0  0  0
   10.3160  -17.6370   27.2446 C   0  0  0  0  0  0  0  0  0  0  0  0
   11.0508  -16.7531   28.0049 O   0  0  0  0  0  0  0  0  0  0  0  0
   10.2228  -18.8236   27.6450 O   0  0  0  0  0  0  0  0  0  0  0  0
  2  1  1  0
  3  2  1  0
  3  4  1  1
  5  6  1  6
  5  3  1  0
  7  5  1  0
  8  7  2  0
  9 10  1  0
 11 10  1  0
 11 13  1  0
 11 12  1  1
 13 15  1  0
 13 14  1  6
 14  7  1  0
 15 16  2  0
 17 18  1  0
 18 19  2  0
 18 20  1  0
 20 21  1  0
 21 22  1  0
 23 22  1  0
 24 23  1  6
 25 24  1  0
 25 15  1  0
 26 24  1  0
 27 26  1  0
 28 26  2  0
M  END
$$$$
