IIR.pdb
     RDKit          3D

 28 27  0  0  1  0  0  0  0  0999 V2000
    6.6859  -21.8613   26.3038 C   0  0  0  0  0  0  0  0  0  0  0  0
    5.8617  -20.6659   25.9549 C   0  0  0  0  0  0  0  0  0  0  0  0
    6.7147  -19.5074   25.4178 C   0  0  2  0  0  0  0  0  0  0  0  0
    7.8861  -19.2682   26.3055 C   0  0  0  0  0  0  0  0  0  0  0  0
    5.7878  -18.3480   25.2352 C   0  0  2  0  0  0  0  0  0  0  0  0
    4.8254  -18.7638   24.1927 N   0  0  0  0  0  0  0  0  0  0  0  0
    6.4083  -17.1073   24.7649 C   0  0  0  0  0  0  0  0  0  0  0  0
    6.6829  -16.9399   23.5403 O   0  0  0  0  0  0  0  0  0  0  0  0
    5.6350  -12.2948   27.1614 C   0  0  0  0  0  0  0  0  0  0  0  0
    5.9523  -13.2231   26.0367 C   0  0  0  0  0  0  0  0  0  0  0  0
    7.3525  -13.8090   26.1328 C   0  0  2  0  0  0  0  0  0  0  0  0
    8.3517  -12.7009   26.1031 C   0  0  0  0  0  0  0  0  0  0  0  0
    7.5686  -14.9005   25.1249 C   0  0  2  0  0  0  0  0  0  0  0  0
    6.7406  -16.0269   25.6116 N   0  0  0  0  0  0  0  0  0  0  0  0
    8.9710  -15.3491   25.1828 C   0  0  0  0  0  0  0  0  0  0  0  0
    9.4031  -15.9936   26.2069 O   0  0  0  0  0  0  0  0  0  0  0  0
   11.3274  -20.4367   20.7618 N   0  0  0  0  0  0  0  0  0  0  0  0
   11.5480  -19.8254   19.4979 C   0  0  0  0  0  0  0  0  0  0  0  0
   11.4231  -20.5165   18.4109 N   0  0  0  0  0  0  0  0  0  0  0  0
   11.9084  -18.4533   19.3631 N   0  0  0  0  0  0  0  0  0  0  0  0
   11.1026  -17.4075   20.0025 C   0  0  0  0  0  0  0  0  0  0  0  0
   11.4147  -17.3842   21.4889 C   0  0  0  0  0  0  0  0  0  0  0  0
   10.5735  -16.2861   22.0999 C   0  0  0  0  0  0  0  0  0  0  0  0
   10.7216  -16.2485   23.6149 C   0  0  2  0  0  0  0  0  0  0  0  0
    9.9542  -15.1413   24.1756 N   0  0  0  0  0  0  0  0  0  0  0  0
   12.1363  -16.1846   24.0113 C   0  0  0  0  0  0  0  0  0  0  0  0
   12.6314  -15.1867   24.8227 O   0  0  0  0  0  0  0  0  0  0  0  0
   12.9349  -17.0636   23.6032 O   0  0  0  0  0  0  0  0  0  0  0  0
  2  1  1  0
  3  2  1  0
  3  4  1  1
  5  6  1  6
  5  3  1  0
  7  5  1  0
  8  7  2  0
  9 10  1  0
 11 10  1  0
 11 13  1  0
 11 12  1  6
 13 15  1  0
 13 14  1  1
 14  7  1  0
 15 16  2  0
 17 18  1  0
 18 19  2  0
 18 20  1  0
 20 21  1  0
 21 22  1  0
 23 22  1  0
 24 23  1  6
 25 24  1  0
 25 15  1  0
 26 24  1  0
 27 26  1  0
 28 26  2  0
M  END
$$$$
