IIR.pdb
     RDKit          3D

 28 27  0  0  1  0  0  0  0  0999 V2000
    7.3306  -11.4886   28.1114 C   0  0  0  0  0  0  0  0  0  0  0  0
    6.5186  -12.3279   27.1806 C   0  0  0  0  0  0  0  0  0  0  0  0
    7.3662  -13.3896   26.4646 C   0  0  2  0  0  0  0  0  0  0  0  0
    8.6079  -12.7798   25.9136 C   0  0  0  0  0  0  0  0  0  0  0  0
    6.4664  -14.0491   25.4686 C   0  0  2  0  0  0  0  0  0  0  0  0
    5.5076  -14.8481   26.2610 N   0  0  0  0  0  0  0  0  0  0  0  0
    7.1187  -14.9742   24.5389 C   0  0  0  0  0  0  0  0  0  0  0  0
    7.1692  -16.2154   24.7833 O   0  0  0  0  0  0  0  0  0  0  0  0
    7.5749  -12.6856   20.0302 C   0  0  0  0  0  0  0  0  0  0  0  0
    7.2186  -13.9422   20.7525 C   0  0  0  0  0  0  0  0  0  0  0  0
    8.4332  -14.7934   21.0894 C   0  0  2  0  0  0  0  0  0  0  0  0
    8.8111  -15.6044   19.8951 C   0  0  0  0  0  0  0  0  0  0  0  0
    8.2334  -15.5685   22.3595 C   0  0  2  0  0  0  0  0  0  0  0  0
    7.7258  -14.5717   23.3290 N   0  0  0  0  0  0  0  0  0  0  0  0
    9.5404  -16.0242   22.8649 C   0  0  0  0  0  0  0  0  0  0  0  0
   10.4538  -15.1705   23.1612 O   0  0  0  0  0  0  0  0  0  0  0  0
   14.8332  -19.3591   18.7454 N   0  0  0  0  0  0  0  0  0  0  0  0
   13.7252  -20.0291   18.1596 C   0  0  0  0  0  0  0  0  0  0  0  0
   13.8918  -21.1701   17.5721 N   0  0  0  0  0  0  0  0  0  0  0  0
   12.4046  -19.4944   18.1878 N   0  0  0  0  0  0  0  0  0  0  0  0
   12.1443  -18.1903   18.8071 C   0  0  0  0  0  0  0  0  0  0  0  0
   12.3379  -18.3103   20.3089 C   0  0  0  0  0  0  0  0  0  0  0  0
   11.0344  -17.9005   20.9566 C   0  0  0  0  0  0  0  0  0  0  0  0
   11.1327  -17.9335   22.4758 C   0  0  2  0  0  0  0  0  0  0  0  0
    9.9254  -17.3773   23.0777 N   0  0  0  0  0  0  0  0  0  0  0  0
   12.3424  -17.2431   22.9474 C   0  0  0  0  0  0  0  0  0  0  0  0
   12.9249  -16.2108   22.2444 O   0  0  0  0  0  0  0  0  0  0  0  0
   12.8763  -17.5960   24.0279 O   0  0  0  0  0  0  0  0  0  0  0  0
  2  1  1  0
  3  2  1  0
  3  4  1  6
  5  6  1  1
  5  3  1  0
  7  5  1  0
  8  7  2  0
  9 10  1  0
 11 10  1  0
 11 13  1  0
 11 12  1  6
 13 15  1  0
 13 14  1  1
 14  7  1  0
 15 16  2  0
 17 18  1  0
 18 19  2  0
 18 20  1  0
 20 21  1  0
 21 22  1  0
 23 22  1  0
 24 23  1  6
 25 24  1  0
 25 15  1  0
 26 24  1  0
 27 26  1  0
 28 26  2  0
M  END
$$$$
