IIR.pdb
     RDKit          3D

 28 27  0  0  1  0  0  0  0  0999 V2000
    4.3456  -18.4884   20.2471 C   0  0  0  0  0  0  0  0  0  0  0  0
    4.4116  -17.0785   20.7351 C   0  0  0  0  0  0  0  0  0  0  0  0
    5.7409  -16.7677   21.4383 C   0  0  2  0  0  0  0  0  0  0  0  0
    6.0749  -17.8385   22.4175 C   0  0  0  0  0  0  0  0  0  0  0  0
    5.6102  -15.3880   22.0004 C   0  0  2  0  0  0  0  0  0  0  0  0
    5.4569  -14.4922   20.8343 N   0  0  0  0  0  0  0  0  0  0  0  0
    6.7647  -14.8994   22.7580 C   0  0  0  0  0  0  0  0  0  0  0  0
    7.8702  -14.6704   22.1850 O   0  0  0  0  0  0  0  0  0  0  0  0
    6.1626  -11.5667   26.9234 C   0  0  0  0  0  0  0  0  0  0  0  0
    6.7592  -12.2471   25.7366 C   0  0  0  0  0  0  0  0  0  0  0  0
    7.4751  -13.5400   26.0963 C   0  0  2  0  0  0  0  0  0  0  0  0
    8.5064  -13.2571   27.1371 C   0  0  0  0  0  0  0  0  0  0  0  0
    7.9705  -14.2591   24.8751 C   0  0  2  0  0  0  0  0  0  0  0  0
    6.7416  -14.6492   24.1478 N   0  0  0  0  0  0  0  0  0  0  0  0
    8.6380  -15.5086   25.2805 C   0  0  0  0  0  0  0  0  0  0  0  0
    8.0944  -16.2799   26.1526 O   0  0  0  0  0  0  0  0  0  0  0  0
   16.0776  -20.7536   22.2897 N   0  0  0  0  0  0  0  0  0  0  0  0
   14.6732  -20.5727   22.4111 C   0  0  0  0  0  0  0  0  0  0  0  0
   13.8791  -21.0113   21.4882 N   0  0  0  0  0  0  0  0  0  0  0  0
   14.0793  -19.9163   23.5277 N   0  0  0  0  0  0  0  0  0  0  0  0
   12.6232  -19.7573   23.6076 C   0  0  0  0  0  0  0  0  0  0  0  0
   12.2850  -18.9187   24.8281 C   0  0  0  0  0  0  0  0  0  0  0  0
   11.6128  -17.6602   24.3271 C   0  0  0  0  0  0  0  0  0  0  0  0
   10.4344  -17.2693   25.2087 C   0  0  2  0  0  0  0  0  0  0  0  0
    9.8834  -15.9863   24.7852 N   0  0  0  0  0  0  0  0  0  0  0  0
   10.8125  -17.2556   26.6298 C   0  0  0  0  0  0  0  0  0  0  0  0
   11.2504  -16.1145   27.2663 O   0  0  0  0  0  0  0  0  0  0  0  0
   10.7397  -18.3145   27.3010 O   0  0  0  0  0  0  0  0  0  0  0  0
  2  1  1  0
  3  2  1  0
  3  4  1  1
  5  6  1  6
  5  3  1  0
  7  5  1  0
  8  7  2  0
  9 10  1  0
 11 10  1  0
 11 13  1  0
 11 12  1  1
 13 15  1  0
 13 14  1  6
 14  7  1  0
 15 16  2  0
 17 18  1  0
 18 19  2  0
 18 20  1  0
 20 21  1  0
 21 22  1  0
 23 22  1  0
 24 23  1  6
 25 24  1  0
 25 15  1  0
 26 24  1  0
 27 26  1  0
 28 26  2  0
M  END
$$$$
