IIR.pdb
     RDKit          3D

 28 27  0  0  1  0  0  0  0  0999 V2000
    5.4166  -18.6483   20.0072 C   0  0  0  0  0  0  0  0  0  0  0  0
    5.5657  -17.1994   20.3366 C   0  0  0  0  0  0  0  0  0  0  0  0
    6.5833  -16.9601   21.4615 C   0  0  2  0  0  0  0  0  0  0  0  0
    6.3097  -17.8644   22.6124 C   0  0  0  0  0  0  0  0  0  0  0  0
    6.5473  -15.4952   21.7607 C   0  0  2  0  0  0  0  0  0  0  0  0
    6.9005  -14.8181   20.4948 N   0  0  0  0  0  0  0  0  0  0  0  0
    7.5029  -15.0295   22.7685 C   0  0  0  0  0  0  0  0  0  0  0  0
    8.7404  -14.9612   22.5100 O   0  0  0  0  0  0  0  0  0  0  0  0
    6.0252  -11.4734   26.5369 C   0  0  0  0  0  0  0  0  0  0  0  0
    6.8879  -12.2114   25.5680 C   0  0  0  0  0  0  0  0  0  0  0  0
    7.4245  -13.5178   26.1325 C   0  0  2  0  0  0  0  0  0  0  0  0
    8.1884  -13.2354   27.3830 C   0  0  0  0  0  0  0  0  0  0  0  0
    8.1596  -14.3122   25.0922 C   0  0  2  0  0  0  0  0  0  0  0  0
    7.1351  -14.6290   24.0718 N   0  0  0  0  0  0  0  0  0  0  0  0
    8.5915  -15.5961   25.6722 C   0  0  0  0  0  0  0  0  0  0  0  0
    7.7221  -16.4312   26.1167 O   0  0  0  0  0  0  0  0  0  0  0  0
   11.1746  -20.0675   19.8919 N   0  0  0  0  0  0  0  0  0  0  0  0
   12.2430  -19.2528   20.3550 C   0  0  0  0  0  0  0  0  0  0  0  0
   13.2774  -19.0486   19.6045 N   0  0  0  0  0  0  0  0  0  0  0  0
   12.2325  -18.6318   21.6375 N   0  0  0  0  0  0  0  0  0  0  0  0
   11.1243  -18.8697   22.5688 C   0  0  0  0  0  0  0  0  0  0  0  0
   11.3586  -18.0585   23.8314 C   0  0  0  0  0  0  0  0  0  0  0  0
   10.1288  -18.2216   24.6960 C   0  0  0  0  0  0  0  0  0  0  0  0
   10.2601  -17.4506   26.0025 C   0  0  2  0  0  0  0  0  0  0  0  0
    9.9366  -16.0423   25.7990 N   0  0  0  0  0  0  0  0  0  0  0  0
   11.5969  -17.6213   26.5909 C   0  0  0  0  0  0  0  0  0  0  0  0
   12.0574  -18.8415   27.0360 O   0  0  0  0  0  0  0  0  0  0  0  0
   12.3581  -16.6283   26.6992 O   0  0  0  0  0  0  0  0  0  0  0  0
  2  1  1  0
  3  2  1  0
  3  4  1  1
  5  6  1  6
  5  3  1  0
  7  5  1  0
  8  7  2  0
  9 10  1  0
 11 10  1  0
 11 13  1  0
 11 12  1  1
 13 15  1  0
 13 14  1  6
 14  7  1  0
 15 16  2  0
 17 18  1  0
 18 19  2  0
 18 20  1  0
 20 21  1  0
 21 22  1  0
 23 22  1  0
 24 23  1  6
 25 24  1  0
 25 15  1  0
 26 24  1  0
 27 26  1  0
 28 26  2  0
M  END
$$$$
