IIR.pdb
     RDKit          3D

 28 27  0  0  1  0  0  0  0  0999 V2000
    7.2592  -17.0899   18.0893 C   0  0  0  0  0  0  0  0  0  0  0  0
    6.8388  -15.9048   18.8949 C   0  0  0  0  0  0  0  0  0  0  0  0
    7.7287  -15.6943   20.1285 C   0  0  2  0  0  0  0  0  0  0  0  0
    7.9025  -16.9739   20.8697 C   0  0  0  0  0  0  0  0  0  0  0  0
    7.1192  -14.5697   20.9035 C   0  0  2  0  0  0  0  0  0  0  0  0
    7.1838  -13.3891   20.0160 N   0  0  0  0  0  0  0  0  0  0  0  0
    7.8110  -14.2042   22.1419 C   0  0  0  0  0  0  0  0  0  0  0  0
    8.9147  -13.5847   22.1128 O   0  0  0  0  0  0  0  0  0  0  0  0
    5.1444  -12.1266   26.0710 C   0  0  0  0  0  0  0  0  0  0  0  0
    6.2503  -12.5107   25.1453 C   0  0  0  0  0  0  0  0  0  0  0  0
    7.0406  -13.7133   25.6376 C   0  0  2  0  0  0  0  0  0  0  0  0
    7.5396  -13.4415   27.0176 C   0  0  0  0  0  0  0  0  0  0  0  0
    8.0845  -14.1363   24.6451 C   0  0  2  0  0  0  0  0  0  0  0  0
    7.3193  -14.5019   23.4318 N   0  0  0  0  0  0  0  0  0  0  0  0
    8.7401  -15.3676   25.1199 C   0  0  0  0  0  0  0  0  0  0  0  0
    8.0349  -16.3776   25.4849 O   0  0  0  0  0  0  0  0  0  0  0  0
   14.9926  -14.6559   21.7290 N   0  0  0  0  0  0  0  0  0  0  0  0
   13.9728  -15.4577   21.1486 C   0  0  0  0  0  0  0  0  0  0  0  0
   14.1573  -16.0071   19.9914 N   0  0  0  0  0  0  0  0  0  0  0  0
   12.7246  -15.6947   21.7938 N   0  0  0  0  0  0  0  0  0  0  0  0
   12.6289  -15.6725   23.2574 C   0  0  0  0  0  0  0  0  0  0  0  0
   12.2747  -17.0652   23.7495 C   0  0  0  0  0  0  0  0  0  0  0  0
   12.1499  -16.9836   25.2543 C   0  0  0  0  0  0  0  0  0  0  0  0
   10.6962  -16.8459   25.6861 C   0  0  2  0  0  0  0  0  0  0  0  0
   10.1437  -15.5777   25.2216 N   0  0  0  0  0  0  0  0  0  0  0  0
   10.5551  -16.9992   27.1418 C   0  0  0  0  0  0  0  0  0  0  0  0
   10.7343  -18.2086   27.7777 O   0  0  0  0  0  0  0  0  0  0  0  0
   10.2601  -16.0012   27.8447 O   0  0  0  0  0  0  0  0  0  0  0  0
  2  1  1  0
  3  2  1  0
  3  4  1  1
  5  6  1  6
  5  3  1  0
  7  5  1  0
  8  7  2  0
  9 10  1  0
 11 10  1  0
 11 13  1  0
 11 12  1  1
 13 15  1  0
 13 14  1  6
 14  7  1  0
 15 16  2  0
 17 18  1  0
 18 19  2  0
 18 20  1  0
 20 21  1  0
 21 22  1  0
 23 22  1  0
 24 23  1  1
 25 24  1  0
 25 15  1  0
 26 24  1  0
 27 26  1  0
 28 26  2  0
M  END
$$$$
