IIR.pdb
     RDKit          3D

 28 27  0  0  1  0  0  0  0  0999 V2000
    7.0906  -22.8615   25.5961 C   0  0  0  0  0  0  0  0  0  0  0  0
    6.7608  -21.5519   26.2335 C   0  0  0  0  0  0  0  0  0  0  0  0
    7.0536  -20.3631   25.3065 C   0  0  2  0  0  0  0  0  0  0  0  0
    8.5010  -20.0158   25.3466 C   0  0  0  0  0  0  0  0  0  0  0  0
    6.1104  -19.2730   25.7046 C   0  0  2  0  0  0  0  0  0  0  0  0
    4.7617  -19.7554   25.3384 N   0  0  0  0  0  0  0  0  0  0  0  0
    6.2986  -17.9904   25.0227 C   0  0  0  0  0  0  0  0  0  0  0  0
    5.9986  -17.8525   23.8004 O   0  0  0  0  0  0  0  0  0  0  0  0
    7.1633  -12.0057   26.1292 C   0  0  0  0  0  0  0  0  0  0  0  0
    7.3011  -13.1521   25.1836 C   0  0  0  0  0  0  0  0  0  0  0  0
    7.0624  -14.4982   25.8500 C   0  0  2  0  0  0  0  0  0  0  0  0
    7.9361  -14.6118   27.0545 C   0  0  0  0  0  0  0  0  0  0  0  0
    7.1648  -15.6300   24.8690 C   0  0  2  0  0  0  0  0  0  0  0  0
    6.8132  -16.8358   25.6523 N   0  0  0  0  0  0  0  0  0  0  0  0
    8.5690  -15.7899   24.4518 C   0  0  0  0  0  0  0  0  0  0  0  0
    9.4642  -16.1314   25.3079 O   0  0  0  0  0  0  0  0  0  0  0  0
    8.3911  -14.8336   17.7746 N   0  0  0  0  0  0  0  0  0  0  0  0
    8.7818  -13.5208   18.1537 C   0  0  0  0  0  0  0  0  0  0  0  0
    8.0816  -12.4997   17.7769 N   0  0  0  0  0  0  0  0  0  0  0  0
    9.9356  -13.2649   18.9498 N   0  0  0  0  0  0  0  0  0  0  0  0
   10.7934  -14.3700   19.3912 C   0  0  0  0  0  0  0  0  0  0  0  0
   10.6996  -14.4938   20.9022 C   0  0  0  0  0  0  0  0  0  0  0  0
   10.5540  -15.9658   21.2168 C   0  0  0  0  0  0  0  0  0  0  0  0
   10.3342  -16.1982   22.7055 C   0  0  2  0  0  0  0  0  0  0  0  0
    9.0730  -15.6027   23.1345 N   0  0  0  0  0  0  0  0  0  0  0  0
   11.4681  -15.6977   23.4968 C   0  0  0  0  0  0  0  0  0  0  0  0
   12.6782  -16.3550   23.5507 O   0  0  0  0  0  0  0  0  0  0  0  0
   11.3447  -14.6344   24.1535 O   0  0  0  0  0  0  0  0  0  0  0  0
  2  1  1  0
  3  2  1  0
  3  4  1  1
  5  6  1  6
  5  3  1  0
  7  5  1  0
  8  7  2  0
  9 10  1  0
 11 10  1  0
 11 13  1  0
 11 12  1  1
 13 15  1  0
 13 14  1  1
 14  7  1  0
 15 16  2  0
 17 18  1  0
 18 19  2  0
 18 20  1  0
 20 21  1  0
 21 22  1  0
 23 22  1  0
 24 23  1  6
 25 24  1  0
 25 15  1  0
 26 24  1  0
 27 26  1  0
 28 26  2  0
M  END
$$$$
