IIR.pdb
     RDKit          3D

 28 27  0  0  1  0  0  0  0  0999 V2000
    6.7460  -20.6658   23.7926 C   0  0  0  0  0  0  0  0  0  0  0  0
    6.7464  -19.2988   23.1914 C   0  0  0  0  0  0  0  0  0  0  0  0
    5.4111  -18.5701   23.4018 C   0  0  2  0  0  0  0  0  0  0  0  0
    4.2846  -19.3816   22.8639 C   0  0  0  0  0  0  0  0  0  0  0  0
    5.5743  -17.2071   22.8082 C   0  0  2  0  0  0  0  0  0  0  0  0
    5.6958  -17.4163   21.3497 N   0  0  0  0  0  0  0  0  0  0  0  0
    6.7683  -16.4704   23.2291 C   0  0  0  0  0  0  0  0  0  0  0  0
    7.8125  -16.4588   22.5131 O   0  0  0  0  0  0  0  0  0  0  0  0
    6.1714  -12.0728   26.4435 C   0  0  0  0  0  0  0  0  0  0  0  0
    6.7448  -12.9117   25.3504 C   0  0  0  0  0  0  0  0  0  0  0  0
    7.6296  -14.0341   25.8706 C   0  0  2  0  0  0  0  0  0  0  0  0
    8.7305  -13.4509   26.6922 C   0  0  0  0  0  0  0  0  0  0  0  0
    8.0650  -14.9550   24.7679 C   0  0  2  0  0  0  0  0  0  0  0  0
    6.8517  -15.7330   24.4307 N   0  0  0  0  0  0  0  0  0  0  0  0
    9.0518  -15.9149   25.2934 C   0  0  0  0  0  0  0  0  0  0  0  0
   10.2461  -15.5301   25.5698 O   0  0  0  0  0  0  0  0  0  0  0  0
   15.5373  -18.7854   25.6480 N   0  0  0  0  0  0  0  0  0  0  0  0
   15.2444  -19.9889   24.9511 C   0  0  0  0  0  0  0  0  0  0  0  0
   16.0493  -20.9991   25.0314 N   0  0  0  0  0  0  0  0  0  0  0  0
   14.0777  -20.1442   24.1478 N   0  0  0  0  0  0  0  0  0  0  0  0
   13.1146  -19.0455   24.0165 C   0  0  0  0  0  0  0  0  0  0  0  0
   12.1175  -19.1247   25.1597 C   0  0  0  0  0  0  0  0  0  0  0  0
   10.9684  -18.2066   24.8081 C   0  0  0  0  0  0  0  0  0  0  0  0
    9.9042  -18.2042   25.8971 C   0  0  2  0  0  0  0  0  0  0  0  0
    8.8177  -17.2952   25.5472 N   0  0  0  0  0  0  0  0  0  0  0  0
   10.4836  -17.8787   27.2089 C   0  0  0  0  0  0  0  0  0  0  0  0
   11.3747  -18.7120   27.8498 O   0  0  0  0  0  0  0  0  0  0  0  0
   10.1641  -16.8064   27.7790 O   0  0  0  0  0  0  0  0  0  0  0  0
  2  1  1  0
  3  2  1  0
  3  4  1  6
  5  6  1  6
  5  3  1  0
  7  5  1  0
  8  7  2  0
  9 10  1  0
 11 10  1  0
 11 13  1  0
 11 12  1  6
 13 15  1  0
 13 14  1  1
 14  7  1  0
 15 16  2  0
 17 18  1  0
 18 19  2  0
 18 20  1  0
 20 21  1  0
 21 22  1  0
 23 22  1  0
 24 23  1  6
 25 24  1  0
 25 15  1  0
 26 24  1  0
 27 26  1  0
 28 26  2  0
M  END
$$$$
