IIR.pdb
     RDKit          3D

 28 27  0  0  1  0  0  0  0  0999 V2000
    6.3590  -17.9253   18.9195 C   0  0  0  0  0  0  0  0  0  0  0  0
    6.2009  -16.5848   19.5583 C   0  0  0  0  0  0  0  0  0  0  0  0
    7.1918  -16.3690   20.7114 C   0  0  2  0  0  0  0  0  0  0  0  0
    7.1690  -17.5312   21.6419 C   0  0  0  0  0  0  0  0  0  0  0  0
    6.8559  -15.0431   21.3161 C   0  0  2  0  0  0  0  0  0  0  0  0
    7.0470  -14.0499   20.2378 N   0  0  0  0  0  0  0  0  0  0  0  0
    7.7050  -14.6213   22.4327 C   0  0  0  0  0  0  0  0  0  0  0  0
    8.9328  -14.3669   22.2573 O   0  0  0  0  0  0  0  0  0  0  0  0
    5.6749  -11.4841   26.1833 C   0  0  0  0  0  0  0  0  0  0  0  0
    6.6607  -12.1232   25.2629 C   0  0  0  0  0  0  0  0  0  0  0  0
    7.2872  -13.3788   25.8497 C   0  0  2  0  0  0  0  0  0  0  0  0
    7.9412  -13.0407   27.1477 C   0  0  0  0  0  0  0  0  0  0  0  0
    8.1595  -14.0832   24.8513 C   0  0  2  0  0  0  0  0  0  0  0  0
    7.2393  -14.4667   23.7570 N   0  0  0  0  0  0  0  0  0  0  0  0
    8.6633  -15.3364   25.4404 C   0  0  0  0  0  0  0  0  0  0  0  0
    7.8517  -16.1635   25.9953 O   0  0  0  0  0  0  0  0  0  0  0  0
   15.2229  -18.5777   21.7472 N   0  0  0  0  0  0  0  0  0  0  0  0
   14.2512  -19.6082   21.8640 C   0  0  0  0  0  0  0  0  0  0  0  0
   14.3693  -20.6947   21.1709 N   0  0  0  0  0  0  0  0  0  0  0  0
   13.1239  -19.5035   22.7293 N   0  0  0  0  0  0  0  0  0  0  0  0
   12.8876  -18.2754   23.4960 C   0  0  0  0  0  0  0  0  0  0  0  0
   11.6926  -18.4868   24.4095 C   0  0  0  0  0  0  0  0  0  0  0  0
   11.7899  -17.4546   25.5104 C   0  0  0  0  0  0  0  0  0  0  0  0
   10.4125  -17.0505   26.0185 C   0  0  2  0  0  0  0  0  0  0  0  0
   10.0216  -15.7596   25.4618 N   0  0  0  0  0  0  0  0  0  0  0  0
   10.3664  -17.0447   27.4882 C   0  0  0  0  0  0  0  0  0  0  0  0
   10.2947  -18.2044   28.2293 O   0  0  0  0  0  0  0  0  0  0  0  0
   10.3918  -15.9511   28.1051 O   0  0  0  0  0  0  0  0  0  0  0  0
  2  1  1  0
  3  2  1  0
  3  4  1  1
  5  6  1  6
  5  3  1  0
  7  5  1  0
  8  7  2  0
  9 10  1  0
 11 10  1  0
 11 13  1  0
 11 12  1  1
 13 15  1  0
 13 14  1  6
 14  7  1  0
 15 16  2  0
 17 18  1  0
 18 19  2  0
 18 20  1  0
 20 21  1  0
 21 22  1  0
 23 22  1  0
 24 23  1  1
 25 24  1  0
 25 15  1  0
 26 24  1  0
 27 26  1  0
 28 26  2  0
M  END
$$$$
