IIR.pdb
     RDKit          3D

 28 27  0  0  1  0  0  0  0  0999 V2000
    9.3753  -21.0531   29.2233 C   0  0  0  0  0  0  0  0  0  0  0  0
    8.4790  -19.8589   29.2461 C   0  0  0  0  0  0  0  0  0  0  0  0
    8.2969  -19.2411   27.8521 C   0  0  2  0  0  0  0  0  0  0  0  0
    9.6193  -19.0123   27.2071 C   0  0  0  0  0  0  0  0  0  0  0  0
    7.4421  -18.0277   28.0348 C   0  0  2  0  0  0  0  0  0  0  0  0
    6.1348  -18.5257   28.5130 N   0  0  0  0  0  0  0  0  0  0  0  0
    7.1784  -17.2486   26.8227 C   0  0  0  0  0  0  0  0  0  0  0  0
    6.5479  -17.7541   25.8481 O   0  0  0  0  0  0  0  0  0  0  0  0
    6.8166  -12.1775   27.4711 C   0  0  0  0  0  0  0  0  0  0  0  0
    6.4150  -13.3047   26.5792 C   0  0  0  0  0  0  0  0  0  0  0  0
    7.5412  -13.7644   25.6661 C   0  0  2  0  0  0  0  0  0  0  0  0
    7.6230  -12.8507   24.4890 C   0  0  0  0  0  0  0  0  0  0  0  0
    7.4325  -15.2263   25.3425 C   0  0  2  0  0  0  0  0  0  0  0  0
    7.5913  -15.9098   26.6459 N   0  0  0  0  0  0  0  0  0  0  0  0
    8.5795  -15.6294   24.5098 C   0  0  0  0  0  0  0  0  0  0  0  0
    9.7463  -15.1403   24.7339 O   0  0  0  0  0  0  0  0  0  0  0  0
    6.8677  -14.0000   16.9978 N   0  0  0  0  0  0  0  0  0  0  0  0
    7.9404  -13.2784   17.5880 C   0  0  0  0  0  0  0  0  0  0  0  0
    7.9062  -11.9855   17.6347 N   0  0  0  0  0  0  0  0  0  0  0  0
    9.0816  -13.9234   18.1466 N   0  0  0  0  0  0  0  0  0  0  0  0
    8.9204  -15.0727   19.0437 C   0  0  0  0  0  0  0  0  0  0  0  0
    9.7917  -14.8665   20.2707 C   0  0  0  0  0  0  0  0  0  0  0  0
    8.9187  -15.1170   21.4798 C   0  0  0  0  0  0  0  0  0  0  0  0
    9.3546  -16.3670   22.2322 C   0  0  2  0  0  0  0  0  0  0  0  0
    8.5398  -16.5531   23.4283 N   0  0  0  0  0  0  0  0  0  0  0  0
   10.7889  -16.3236   22.5534 C   0  0  0  0  0  0  0  0  0  0  0  0
   11.3196  -15.4125   23.4408 O   0  0  0  0  0  0  0  0  0  0  0  0
   11.5717  -17.1394   22.0068 O   0  0  0  0  0  0  0  0  0  0  0  0
  2  1  1  0
  3  2  1  0
  3  4  1  1
  5  6  1  6
  5  3  1  0
  7  5  1  0
  8  7  2  0
  9 10  1  0
 11 10  1  0
 11 13  1  0
 11 12  1  6
 13 15  1  0
 13 14  1  1
 14  7  1  0
 15 16  2  0
 17 18  1  0
 18 19  2  0
 18 20  1  0
 20 21  1  0
 21 22  1  0
 23 22  1  0
 24 23  1  1
 25 24  1  0
 25 15  1  0
 26 24  1  0
 27 26  1  0
 28 26  2  0
M  END
$$$$
