VPA.pdb
     RDKit          3D

 20 20  0  0  1  0  0  0  0  0999 V2000
   16.1246  -11.1370  -17.5239 C   0  0  0  0  0  0  0  0  0  0  0  0
   17.1756  -10.2955  -16.9032 C   0  0  1  0  0  0  0  0  0  0  0  0
   16.6377   -9.5454  -15.7017 C   0  0  0  0  0  0  0  0  0  0  0  0
   18.3888  -11.0662  -16.4371 C   0  0  2  0  0  0  0  0  0  0  0  0
   17.9032  -12.1296  -15.6244 N   0  0  0  0  0  0  0  0  0  0  0  0
   19.4481  -10.2336  -15.9048 C   0  0  0  0  0  0  0  0  0  0  0  0
   19.2043   -9.6460  -14.8184 O   0  0  0  0  0  0  0  0  0  0  0  0
   20.7533  -10.0055  -16.4857 N   0  0  0  0  0  0  0  0  0  0  0  0
   21.2918  -10.5514  -17.6833 C   0  0  0  0  0  0  0  0  0  0  0  0
   22.2560   -9.5134  -18.1801 C   0  0  0  0  0  0  0  0  0  0  0  0
   22.9057   -9.1380  -16.8313 C   0  0  0  0  0  0  0  0  0  0  0  0
   21.7417   -9.1578  -15.8821 C   0  0  1  0  0  0  0  0  0  0  0  0
   21.2335   -7.7896  -15.6124 C   0  0  0  0  0  0  0  0  0  0  0  0
   20.3166   -7.3268  -16.3142 O   0  0  0  0  0  0  0  0  0  0  0  0
   21.7794   -5.4454  -12.7673 C   0  0  0  0  0  0  0  0  0  0  0  0
   21.3529   -5.6956  -14.2199 C   0  0  2  0  0  0  0  0  0  0  0  0
   21.8116   -7.0480  -14.5574 N   0  0  0  0  0  0  0  0  0  0  0  0
   22.0583   -4.6895  -15.0409 C   0  0  0  0  0  0  0  0  0  0  0  0
   23.0919   -5.0335  -15.6519 O   0  0  0  0  0  0  0  0  0  0  0  0
   21.6168   -3.3884  -15.1557 O   0  0  0  0  0  0  0  0  0  0  0  0
  2  1  1  1
  3  2  1  0
  4  5  1  1
  4  2  1  0
  6  4  1  0
  7  6  2  0
  8 12  1  0
  8  6  1  0
  9  8  1  0
 10 11  1  0
 10  9  1  0
 11 12  1  0
 12 13  1  6
 13 14  2  0
 13 17  1  0
 16 15  1  1
 17 16  1  0
 18 20  1  0
 18 16  1  0
 19 18  2  0
M  END
$$$$
