VPA.pdb
     RDKit          3D

 20 20  0  0  1  0  0  0  0  0999 V2000
   23.8765  -23.5178  -18.3493 C   0  0  0  0  0  0  0  0  0  0  0  0
   24.7501  -24.4696  -17.6221 C   0  0  1  0  0  0  0  0  0  0  0  0
   25.9807  -24.8144  -18.4356 C   0  0  0  0  0  0  0  0  0  0  0  0
   25.2324  -23.9652  -16.2819 C   0  0  2  0  0  0  0  0  0  0  0  0
   26.0759  -24.9808  -15.7486 N   0  0  0  0  0  0  0  0  0  0  0  0
   24.1800  -23.4421  -15.4348 C   0  0  0  0  0  0  0  0  0  0  0  0
   23.2407  -24.2333  -15.1577 O   0  0  0  0  0  0  0  0  0  0  0  0
   24.0927  -22.1115  -14.8737 N   0  0  0  0  0  0  0  0  0  0  0  0
   25.0189  -21.0400  -15.0001 C   0  0  0  0  0  0  0  0  0  0  0  0
   24.1844  -19.7958  -14.9012 C   0  0  0  0  0  0  0  0  0  0  0  0
   23.2581  -20.2310  -13.7458 C   0  0  0  0  0  0  0  0  0  0  0  0
   22.9984  -21.6784  -14.0520 C   0  0  1  0  0  0  0  0  0  0  0  0
   21.6806  -21.8704  -14.7074 C   0  0  0  0  0  0  0  0  0  0  0  0
   21.5839  -21.7368  -15.9404 O   0  0  0  0  0  0  0  0  0  0  0  0
   18.5307  -23.4527  -13.6489 C   0  0  0  0  0  0  0  0  0  0  0  0
   19.2219  -22.3568  -14.4710 C   0  0  2  0  0  0  0  0  0  0  0  0
   20.5664  -22.2019  -13.9039 N   0  0  0  0  0  0  0  0  0  0  0  0
   18.4307  -21.1245  -14.2720 C   0  0  0  0  0  0  0  0  0  0  0  0
   18.7984  -20.3117  -13.3979 O   0  0  0  0  0  0  0  0  0  0  0  0
   17.3043  -20.8417  -15.0152 O   0  0  0  0  0  0  0  0  0  0  0  0
  2  1  1  6
  3  2  1  0
  4  5  1  1
  4  2  1  0
  6  4  1  0
  7  6  2  0
  8 12  1  0
  8  6  1  0
  9  8  1  0
 10 11  1  0
 10  9  1  0
 11 12  1  0
 12 13  1  6
 13 14  2  0
 13 17  1  0
 16 15  1  1
 17 16  1  0
 18 20  1  0
 18 16  1  0
 19 18  2  0
M  END
$$$$
