VPA.pdb
     RDKit          3D

 20 20  0  0  1  0  0  0  0  0999 V2000
   13.9232  -19.5062    1.6098 C   0  0  0  0  0  0  0  0  0  0  0  0
   14.6195  -18.8055    2.7153 C   0  0  1  0  0  0  0  0  0  0  0  0
   14.4825  -19.5667    4.0181 C   0  0  0  0  0  0  0  0  0  0  0  0
   16.0969  -18.5943    2.4792 C   0  0  2  0  0  0  0  0  0  0  0  0
   16.6286  -19.8579    2.0949 N   0  0  0  0  0  0  0  0  0  0  0  0
   16.7663  -17.8701    3.5404 C   0  0  0  0  0  0  0  0  0  0  0  0
   17.1689  -18.5552    4.5169 O   0  0  0  0  0  0  0  0  0  0  0  0
   17.0220  -16.4473    3.5985 N   0  0  0  0  0  0  0  0  0  0  0  0
   16.6521  -15.4469    2.6580 C   0  0  0  0  0  0  0  0  0  0  0  0
   16.4848  -14.1964    3.4716 C   0  0  0  0  0  0  0  0  0  0  0  0
   17.7184  -14.3498    4.3865 C   0  0  0  0  0  0  0  0  0  0  0  0
   17.7411  -15.8242    4.6731 C   0  0  1  0  0  0  0  0  0  0  0  0
   17.1595  -16.1311    6.0037 C   0  0  0  0  0  0  0  0  0  0  0  0
   15.9344  -16.3200    6.1085 O   0  0  0  0  0  0  0  0  0  0  0  0
   18.7564  -16.9316    9.2886 C   0  0  0  0  0  0  0  0  0  0  0  0
   17.5276  -16.5295    8.4621 C   0  0  2  0  0  0  0  0  0  0  0  0
   18.0226  -16.2000    7.1206 N   0  0  0  0  0  0  0  0  0  0  0  0
   16.9605  -15.3306    9.1140 C   0  0  0  0  0  0  0  0  0  0  0  0
   16.3774  -15.4647   10.2104 O   0  0  0  0  0  0  0  0  0  0  0  0
   17.0524  -14.0731    8.5560 O   0  0  0  0  0  0  0  0  0  0  0  0
  2  1  1  6
  3  2  1  0
  4  5  1  1
  4  2  1  0
  6  4  1  0
  7  6  2  0
  8 12  1  0
  8  6  1  0
  9  8  1  0
 10 11  1  0
 10  9  1  0
 11 12  1  0
 12 13  1  1
 13 14  2  0
 13 17  1  0
 16 15  1  1
 17 16  1  0
 18 20  1  0
 18 16  1  0
 19 18  2  0
M  END
$$$$
