VPA.pdb
     RDKit          3D

 20 20  0  0  1  0  0  0  0  0999 V2000
   19.2679  -13.0712  -19.2894 C   0  0  0  0  0  0  0  0  0  0  0  0
   19.5666  -12.0234  -18.2840 C   0  0  1  0  0  0  0  0  0  0  0  0
   18.3609  -11.1390  -18.0401 C   0  0  0  0  0  0  0  0  0  0  0  0
   19.9995  -12.5621  -16.9403 C   0  0  2  0  0  0  0  0  0  0  0  0
   19.0098  -13.5069  -16.5468 N   0  0  0  0  0  0  0  0  0  0  0  0
   20.3776  -11.5379  -15.9881 C   0  0  0  0  0  0  0  0  0  0  0  0
   19.4657  -10.7505  -15.6229 O   0  0  0  0  0  0  0  0  0  0  0  0
   21.6874  -11.3233  -15.4124 N   0  0  0  0  0  0  0  0  0  0  0  0
   22.8605  -12.1104  -15.5748 C   0  0  0  0  0  0  0  0  0  0  0  0
   23.9979  -11.1420  -15.4250 C   0  0  0  0  0  0  0  0  0  0  0  0
   23.4542  -10.3311  -14.2296 C   0  0  0  0  0  0  0  0  0  0  0  0
   21.9871  -10.2277  -14.5348 C   0  0  1  0  0  0  0  0  0  0  0  0
   21.6436   -8.9108  -15.1268 C   0  0  0  0  0  0  0  0  0  0  0  0
   21.7892   -8.7313  -16.3491 O   0  0  0  0  0  0  0  0  0  0  0  0
   19.5411   -6.1270  -14.0626 C   0  0  0  0  0  0  0  0  0  0  0  0
   20.8276   -6.5543  -14.7816 C   0  0  2  0  0  0  0  0  0  0  0  0
   21.1575   -7.8920  -14.2765 N   0  0  0  0  0  0  0  0  0  0  0  0
   21.8679   -5.5811  -14.3886 C   0  0  0  0  0  0  0  0  0  0  0  0
   22.5512   -5.8142  -13.3693 O   0  0  0  0  0  0  0  0  0  0  0  0
   22.1100   -4.4285  -15.1054 O   0  0  0  0  0  0  0  0  0  0  0  0
  2  1  1  6
  3  2  1  0
  4  5  1  1
  4  2  1  0
  6  4  1  0
  7  6  2  0
  8 12  1  0
  8  6  1  0
  9  8  1  0
 10 11  1  0
 10  9  1  0
 11 12  1  0
 12 13  1  6
 13 14  2  0
 13 17  1  0
 16 15  1  1
 17 16  1  0
 18 20  1  0
 18 16  1  0
 19 18  2  0
M  END
$$$$
