VPA.pdb
     RDKit          3D

 20 20  0  0  1  0  0  0  0  0999 V2000
   17.0914   -9.2191  -17.1072 C   0  0  0  0  0  0  0  0  0  0  0  0
   17.1735  -10.6171  -16.6207 C   0  0  1  0  0  0  0  0  0  0  0  0
   16.2083  -11.5144  -17.3681 C   0  0  0  0  0  0  0  0  0  0  0  0
   18.5453  -11.2370  -16.7508 C   0  0  2  0  0  0  0  0  0  0  0  0
   18.4081  -12.6029  -16.3730 N   0  0  0  0  0  0  0  0  0  0  0  0
   19.6031  -10.4641  -16.1324 C   0  0  0  0  0  0  0  0  0  0  0  0
   19.3977  -10.0813  -14.9507 O   0  0  0  0  0  0  0  0  0  0  0  0
   20.8675  -10.0861  -16.7250 N   0  0  0  0  0  0  0  0  0  0  0  0
   21.3910  -10.4564  -17.9942 C   0  0  0  0  0  0  0  0  0  0  0  0
   22.2685   -9.3074  -18.3990 C   0  0  0  0  0  0  0  0  0  0  0  0
   22.9466   -9.0445  -17.0376 C   0  0  0  0  0  0  0  0  0  0  0  0
   21.8246   -9.2483  -16.0599 C   0  0  1  0  0  0  0  0  0  0  0  0
   21.2435   -7.9560  -15.6181 C   0  0  0  0  0  0  0  0  0  0  0  0
   20.2958   -7.4607  -16.2538 O   0  0  0  0  0  0  0  0  0  0  0  0
   21.5142   -6.0191  -12.4790 C   0  0  0  0  0  0  0  0  0  0  0  0
   21.2861   -6.0309  -13.9963 C   0  0  2  0  0  0  0  0  0  0  0  0
   21.7892   -7.3220  -14.4790 N   0  0  0  0  0  0  0  0  0  0  0  0
   22.0922   -4.9219  -14.5479 C   0  0  0  0  0  0  0  0  0  0  0  0
   23.2042   -5.1837  -15.0529 O   0  0  0  0  0  0  0  0  0  0  0  0
   21.6611   -3.6124  -14.5248 O   0  0  0  0  0  0  0  0  0  0  0  0
  2  1  1  6
  3  2  1  0
  4  5  1  1
  4  2  1  0
  6  4  1  0
  7  6  2  0
  8 12  1  0
  8  6  1  0
  9  8  1  0
 10 11  1  0
 10  9  1  0
 11 12  1  0
 12 13  1  6
 13 14  2  0
 13 17  1  0
 16 15  1  1
 17 16  1  0
 18 20  1  0
 18 16  1  0
 19 18  2  0
M  END
$$$$
