VPA.pdb
     RDKit          3D

 20 20  0  0  1  0  0  0  0  0999 V2000
   18.4734  -10.3203  -18.6037 C   0  0  0  0  0  0  0  0  0  0  0  0
   17.8259  -11.1855  -17.5888 C   0  0  1  0  0  0  0  0  0  0  0  0
   17.8519  -12.6399  -18.0124 C   0  0  0  0  0  0  0  0  0  0  0  0
   18.4597  -11.1119  -16.2192 C   0  0  2  0  0  0  0  0  0  0  0  0
   17.8363  -12.1210  -15.4316 N   0  0  0  0  0  0  0  0  0  0  0  0
   18.5314   -9.7719  -15.6735 C   0  0  0  0  0  0  0  0  0  0  0  0
   17.4820   -9.0806  -15.7499 O   0  0  0  0  0  0  0  0  0  0  0  0
   19.6765   -9.1440  -15.0509 N   0  0  0  0  0  0  0  0  0  0  0  0
   20.9612   -9.7018  -14.8047 C   0  0  0  0  0  0  0  0  0  0  0  0
   21.9033   -8.5338  -14.8503 C   0  0  0  0  0  0  0  0  0  0  0  0
   21.0491   -7.5178  -14.0627 C   0  0  0  0  0  0  0  0  0  0  0  0
   19.6579   -7.7970  -14.5555 C   0  0  1  0  0  0  0  0  0  0  0  0
   19.2358   -6.8151  -15.5853 C   0  0  0  0  0  0  0  0  0  0  0  0
   19.5759   -6.9845  -16.7699 O   0  0  0  0  0  0  0  0  0  0  0  0
   16.7844   -4.0100  -15.5083 C   0  0  0  0  0  0  0  0  0  0  0  0
   18.0033   -4.6920  -16.1437 C   0  0  2  0  0  0  0  0  0  0  0  0
   18.4535   -5.7081  -15.1855 N   0  0  0  0  0  0  0  0  0  0  0  0
   19.0308   -3.6424  -16.3067 C   0  0  0  0  0  0  0  0  0  0  0  0
   18.8634   -2.7726  -17.1872 O   0  0  0  0  0  0  0  0  0  0  0  0
   20.1641   -3.5900  -15.5232 O   0  0  0  0  0  0  0  0  0  0  0  0
  2  1  1  6
  3  2  1  0
  4  5  1  1
  4  2  1  0
  6  4  1  0
  7  6  2  0
  8 12  1  0
  8  6  1  0
  9  8  1  0
 10 11  1  0
 10  9  1  0
 11 12  1  0
 12 13  1  6
 13 14  2  0
 13 17  1  0
 16 15  1  1
 17 16  1  0
 18 20  1  0
 18 16  1  0
 19 18  2  0
M  END
$$$$
