VPA.pdb
     RDKit          3D

 20 20  0  0  1  0  0  0  0  0999 V2000
   25.6027  -22.9754  -14.1557 C   0  0  0  0  0  0  0  0  0  0  0  0
   24.4978  -22.4718  -13.3051 C   0  0  1  0  0  0  0  0  0  0  0  0
   24.3578  -23.2985  -12.0433 C   0  0  0  0  0  0  0  0  0  0  0  0
   24.6559  -21.0318  -12.8756 C   0  0  2  0  0  0  0  0  0  0  0  0
   23.4704  -20.6906  -12.1647 N   0  0  0  0  0  0  0  0  0  0  0  0
   25.0919  -20.1447  -13.9347 C   0  0  0  0  0  0  0  0  0  0  0  0
   24.2102  -19.7788  -14.7555 O   0  0  0  0  0  0  0  0  0  0  0  0
   26.4285  -19.6346  -14.1499 N   0  0  0  0  0  0  0  0  0  0  0  0
   27.5717  -19.7811  -13.3171 C   0  0  0  0  0  0  0  0  0  0  0  0
   28.7409  -19.7449  -14.2582 C   0  0  0  0  0  0  0  0  0  0  0  0
   28.2670  -18.5934  -15.1703 C   0  0  0  0  0  0  0  0  0  0  0  0
   26.7926  -18.8517  -15.2965 C   0  0  1  0  0  0  0  0  0  0  0  0
   26.4638  -19.5263  -16.5770 C   0  0  0  0  0  0  0  0  0  0  0  0
   26.5734  -20.7624  -16.6646 O   0  0  0  0  0  0  0  0  0  0  0  0
   24.2805  -18.7939  -19.3107 C   0  0  0  0  0  0  0  0  0  0  0  0
   25.6738  -19.3325  -18.9596 C   0  0  2  0  0  0  0  0  0  0  0  0
   26.0325  -18.7372  -17.6672 N   0  0  0  0  0  0  0  0  0  0  0  0
   26.5851  -18.8550  -20.0205 C   0  0  0  0  0  0  0  0  0  0  0  0
   27.4035  -17.9525  -19.7451 O   0  0  0  0  0  0  0  0  0  0  0  0
   26.5636  -19.3693  -21.2996 O   0  0  0  0  0  0  0  0  0  0  0  0
  2  1  1  1
  3  2  1  0
  4  5  1  6
  4  2  1  0
  6  4  1  0
  7  6  2  0
  8 12  1  0
  8  6  1  0
  9  8  1  0
 10 11  1  0
 10  9  1  0
 11 12  1  0
 12 13  1  6
 13 14  2  0
 13 17  1  0
 16 15  1  6
 17 16  1  0
 18 20  1  0
 18 16  1  0
 19 18  2  0
M  END
$$$$
