VPA.pdb
     RDKit          3D

 20 20  0  0  1  0  0  0  0  0999 V2000
   23.8442  -13.6420  -15.5330 C   0  0  0  0  0  0  0  0  0  0  0  0
   23.4464  -12.2141  -15.5619 C   0  0  1  0  0  0  0  0  0  0  0  0
   24.6403  -11.3183  -15.8218 C   0  0  0  0  0  0  0  0  0  0  0  0
   22.4083  -11.8832  -16.6088 C   0  0  2  0  0  0  0  0  0  0  0  0
   22.9046  -12.3903  -17.8432 N   0  0  0  0  0  0  0  0  0  0  0  0
   21.9521  -10.5087  -16.5734 C   0  0  0  0  0  0  0  0  0  0  0  0
   22.7916   -9.6325  -16.9086 O   0  0  0  0  0  0  0  0  0  0  0  0
   20.6381  -10.0355  -16.1957 N   0  0  0  0  0  0  0  0  0  0  0  0
   19.4821  -10.8024  -15.8834 C   0  0  0  0  0  0  0  0  0  0  0  0
   18.7078   -9.9553  -14.9155 C   0  0  0  0  0  0  0  0  0  0  0  0
   18.8853   -8.5892  -15.6117 C   0  0  0  0  0  0  0  0  0  0  0  0
   20.3061   -8.6427  -16.0963 C   0  0  1  0  0  0  0  0  0  0  0  0
   21.2199   -7.9003  -15.1926 C   0  0  0  0  0  0  0  0  0  0  0  0
   21.7432   -8.4902  -14.2304 O   0  0  0  0  0  0  0  0  0  0  0  0
   22.9040   -4.6144  -15.6293 C   0  0  0  0  0  0  0  0  0  0  0  0
   22.4911   -5.7793  -14.7199 C   0  0  2  0  0  0  0  0  0  0  0  0
   21.4697   -6.5343  -15.4548 N   0  0  0  0  0  0  0  0  0  0  0  0
   21.9117   -5.1734  -13.5029 C   0  0  0  0  0  0  0  0  0  0  0  0
   20.6687   -5.1057  -13.4016 O   0  0  0  0  0  0  0  0  0  0  0  0
   22.6929   -4.6818  -12.4786 O   0  0  0  0  0  0  0  0  0  0  0  0
  2  1  1  6
  3  2  1  0
  4  5  1  6
  4  2  1  0
  6  4  1  0
  7  6  2  0
  8 12  1  0
  8  6  1  0
  9  8  1  0
 10 11  1  0
 10  9  1  0
 11 12  1  0
 12 13  1  1
 13 14  2  0
 13 17  1  0
 16 15  1  6
 17 16  1  0
 18 20  1  0
 18 16  1  0
 19 18  2  0
M  END
$$$$
