VPA.pdb
     RDKit          3D

 20 20  0  0  1  0  0  0  0  0999 V2000
   19.1897  -12.5739  -19.3489 C   0  0  0  0  0  0  0  0  0  0  0  0
   19.5381  -11.5441  -18.3409 C   0  0  1  0  0  0  0  0  0  0  0  0
   18.4012  -10.5619  -18.1461 C   0  0  0  0  0  0  0  0  0  0  0  0
   19.8784  -12.1031  -16.9789 C   0  0  2  0  0  0  0  0  0  0  0  0
   18.7992  -12.9562  -16.6121 N   0  0  0  0  0  0  0  0  0  0  0  0
   20.3102  -11.1044  -16.0224 C   0  0  0  0  0  0  0  0  0  0  0  0
   19.4456  -10.2617  -15.6657 O   0  0  0  0  0  0  0  0  0  0  0  0
   21.6251  -10.9718  -15.4338 N   0  0  0  0  0  0  0  0  0  0  0  0
   22.7512  -11.8255  -15.5926 C   0  0  0  0  0  0  0  0  0  0  0  0
   23.9423  -10.9270  -15.4251 C   0  0  0  0  0  0  0  0  0  0  0  0
   23.4365  -10.0947  -14.2276 C   0  0  0  0  0  0  0  0  0  0  0  0
   21.9808   -9.9027  -14.5446 C   0  0  1  0  0  0  0  0  0  0  0  0
   21.7208   -8.5632  -15.1285 C   0  0  0  0  0  0  0  0  0  0  0  0
   21.9204   -8.3741  -16.3418 O   0  0  0  0  0  0  0  0  0  0  0  0
   19.7131   -5.6960  -14.1087 C   0  0  0  0  0  0  0  0  0  0  0  0
   21.0097   -6.1741  -14.7757 C   0  0  2  0  0  0  0  0  0  0  0  0
   21.2505   -7.5346  -14.2813 N   0  0  0  0  0  0  0  0  0  0  0  0
   22.0764   -5.2599  -14.3170 C   0  0  0  0  0  0  0  0  0  0  0  0
   22.1341   -4.1131  -14.8085 O   0  0  0  0  0  0  0  0  0  0  0  0
   23.0071   -5.6275  -13.3686 O   0  0  0  0  0  0  0  0  0  0  0  0
  2  1  1  6
  3  2  1  0
  4  5  1  1
  4  2  1  0
  6  4  1  0
  7  6  2  0
  8 12  1  0
  8  6  1  0
  9  8  1  0
 10 11  1  0
 10  9  1  0
 11 12  1  0
 12 13  1  6
 13 14  2  0
 13 17  1  0
 16 15  1  1
 17 16  1  0
 18 20  1  0
 18 16  1  0
 19 18  2  0
M  END
$$$$
