VPA.pdb
     RDKit          3D

 20 20  0  0  1  0  0  0  0  0999 V2000
   22.8186  -15.7323  -17.7969 C   0  0  0  0  0  0  0  0  0  0  0  0
   23.2164  -16.9125  -16.9927 C   0  0  1  0  0  0  0  0  0  0  0  0
   22.0278  -17.8083  -16.7099 C   0  0  0  0  0  0  0  0  0  0  0  0
   24.2753  -17.7735  -17.6413 C   0  0  2  0  0  0  0  0  0  0  0  0
   23.7432  -18.1919  -18.8938 N   0  0  0  0  0  0  0  0  0  0  0  0
   24.8296  -18.7862  -16.7663 C   0  0  0  0  0  0  0  0  0  0  0  0
   24.0871  -19.7699  -16.5093 O   0  0  0  0  0  0  0  0  0  0  0  0
   26.1421  -18.7893  -16.1576 N   0  0  0  0  0  0  0  0  0  0  0  0
   27.2059  -17.8664  -16.3538 C   0  0  0  0  0  0  0  0  0  0  0  0
   27.9642  -17.8715  -15.0580 C   0  0  0  0  0  0  0  0  0  0  0  0
   27.9503  -19.3913  -14.7890 C   0  0  0  0  0  0  0  0  0  0  0  0
   26.5730  -19.7968  -15.2306 C   0  0  1  0  0  0  0  0  0  0  0  0
   25.6507  -19.9441  -14.0771 C   0  0  0  0  0  0  0  0  0  0  0  0
   25.1098  -18.9344  -13.5917 O   0  0  0  0  0  0  0  0  0  0  0  0
   24.0507  -22.9110  -12.5029 C   0  0  0  0  0  0  0  0  0  0  0  0
   24.5413  -21.4606  -12.4015 C   0  0  2  0  0  0  0  0  0  0  0  0
   25.4129  -21.2380  -13.5608 N   0  0  0  0  0  0  0  0  0  0  0  0
   25.3157  -21.3691  -11.1461 C   0  0  0  0  0  0  0  0  0  0  0  0
   26.5628  -21.3976  -11.2087 O   0  0  0  0  0  0  0  0  0  0  0  0
   24.7116  -21.2536   -9.9121 O   0  0  0  0  0  0  0  0  0  0  0  0
  2  1  1  6
  3  2  1  0
  4  5  1  6
  4  2  1  0
  6  4  1  0
  7  6  2  0
  8 12  1  0
  8  6  1  0
  9  8  1  0
 10 11  1  0
 10  9  1  0
 11 12  1  0
 12 13  1  1
 13 14  2  0
 13 17  1  0
 16 15  1  6
 17 16  1  0
 18 20  1  0
 18 16  1  0
 19 18  2  0
M  END
$$$$
