VPA.pdb
     RDKit          3D

 20 20  0  0  1  0  0  0  0  0999 V2000
   20.0737  -12.6294  -18.9723 C   0  0  0  0  0  0  0  0  0  0  0  0
   19.4765  -13.7593  -18.2208 C   0  0  1  0  0  0  0  0  0  0  0  0
   19.3949  -15.0052  -19.0789 C   0  0  0  0  0  0  0  0  0  0  0  0
   20.2309  -14.1343  -16.9665 C   0  0  2  0  0  0  0  0  0  0  0  0
   19.5957  -15.2977  -16.4466 N   0  0  0  0  0  0  0  0  0  0  0  0
   20.4621  -13.0256  -16.0632 C   0  0  0  0  0  0  0  0  0  0  0  0
   19.4527  -12.3429  -15.7468 O   0  0  0  0  0  0  0  0  0  0  0  0
   21.7252  -12.6195  -15.4864 N   0  0  0  0  0  0  0  0  0  0  0  0
   22.9902  -13.2593  -15.5974 C   0  0  0  0  0  0  0  0  0  0  0  0
   23.9945  -12.1490  -15.4857 C   0  0  0  0  0  0  0  0  0  0  0  0
   23.3343  -11.3556  -14.3382 C   0  0  0  0  0  0  0  0  0  0  0  0
   21.8708  -11.4533  -14.6625 C   0  0  1  0  0  0  0  0  0  0  0  0
   21.3743  -10.2207  -15.3236 C   0  0  0  0  0  0  0  0  0  0  0  0
   21.6456  -10.0150  -16.5201 O   0  0  0  0  0  0  0  0  0  0  0  0
   18.8560   -7.6819  -14.2968 C   0  0  0  0  0  0  0  0  0  0  0  0
   20.0667   -8.0762  -15.1531 C   0  0  2  0  0  0  0  0  0  0  0  0
   20.6019   -9.3105  -14.5673 N   0  0  0  0  0  0  0  0  0  0  0  0
   21.0445   -6.9756  -15.0249 C   0  0  0  0  0  0  0  0  0  0  0  0
   20.7775   -5.8736  -15.5489 O   0  0  0  0  0  0  0  0  0  0  0  0
   22.2373   -7.1220  -14.3492 O   0  0  0  0  0  0  0  0  0  0  0  0
  2  1  1  6
  3  2  1  0
  4  5  1  1
  4  2  1  0
  6  4  1  0
  7  6  2  0
  8 12  1  0
  8  6  1  0
  9  8  1  0
 10 11  1  0
 10  9  1  0
 11 12  1  0
 12 13  1  6
 13 14  2  0
 13 17  1  0
 16 15  1  1
 17 16  1  0
 18 20  1  0
 18 16  1  0
 19 18  2  0
M  END
$$$$
