VPA.pdb
     RDKit          3D

 20 20  0  0  1  0  0  0  0  0999 V2000
   19.2691  -12.4785  -19.5363 C   0  0  0  0  0  0  0  0  0  0  0  0
   19.7592  -11.5201  -18.5169 C   0  0  1  0  0  0  0  0  0  0  0  0
   18.8424  -10.3188  -18.4094 C   0  0  0  0  0  0  0  0  0  0  0  0
   19.8867  -12.1053  -17.1297 C   0  0  2  0  0  0  0  0  0  0  0  0
   18.6294  -12.7005  -16.8260 N   0  0  0  0  0  0  0  0  0  0  0  0
   20.4613  -11.1982  -16.1573 C   0  0  0  0  0  0  0  0  0  0  0  0
   19.7135  -10.2725  -15.7464 O   0  0  0  0  0  0  0  0  0  0  0  0
   21.7991  -11.2417  -15.6081 N   0  0  0  0  0  0  0  0  0  0  0  0
   22.8265  -12.1904  -15.8661 C   0  0  0  0  0  0  0  0  0  0  0  0
   24.1079  -11.4308  -15.6791 C   0  0  0  0  0  0  0  0  0  0  0  0
   23.7247  -10.6413  -14.4094 C   0  0  0  0  0  0  0  0  0  0  0  0
   22.2880  -10.2814  -14.6600 C   0  0  1  0  0  0  0  0  0  0  0  0
   22.1506   -8.8836  -15.1397 C   0  0  0  0  0  0  0  0  0  0  0  0
   22.2341   -8.6422  -16.3572 O   0  0  0  0  0  0  0  0  0  0  0  0
   20.4290   -6.1119  -14.8770 C   0  0  0  0  0  0  0  0  0  0  0  0
   21.8958   -6.4441  -14.5724 C   0  0  2  0  0  0  0  0  0  0  0  0
   21.9272   -7.8606  -14.1906 N   0  0  0  0  0  0  0  0  0  0  0  0
   22.2883   -5.5912  -13.4311 C   0  0  0  0  0  0  0  0  0  0  0  0
   22.5457   -4.3876  -13.6440 O   0  0  0  0  0  0  0  0  0  0  0  0
   22.3799   -6.0760  -12.1436 O   0  0  0  0  0  0  0  0  0  0  0  0
  2  1  1  6
  3  2  1  0
  4  5  1  1
  4  2  1  0
  6  4  1  0
  7  6  2  0
  8 12  1  0
  8  6  1  0
  9  8  1  0
 10 11  1  0
 10  9  1  0
 11 12  1  0
 12 13  1  6
 13 14  2  0
 13 17  1  0
 16 15  1  1
 17 16  1  0
 18 20  1  0
 18 16  1  0
 19 18  2  0
M  END
$$$$
