VPA.pdb
     RDKit          3D

 20 20  0  0  1  0  0  0  0  0999 V2000
   25.7229  -19.0036  -12.4803 C   0  0  0  0  0  0  0  0  0  0  0  0
   24.9113  -20.2370  -12.6146 C   0  0  1  0  0  0  0  0  0  0  0  0
   24.2530  -20.3134  -13.9770 C   0  0  0  0  0  0  0  0  0  0  0  0
   25.6951  -21.5154  -12.4293 C   0  0  2  0  0  0  0  0  0  0  0  0
   24.8205  -22.5801  -12.7883 N   0  0  0  0  0  0  0  0  0  0  0  0
   26.3880  -21.6040  -11.1602 C   0  0  0  0  0  0  0  0  0  0  0  0
   25.6647  -21.7036  -10.1345 O   0  0  0  0  0  0  0  0  0  0  0  0
   27.8185  -21.5910  -10.9449 N   0  0  0  0  0  0  0  0  0  0  0  0
   28.8553  -21.5709  -11.9180 C   0  0  0  0  0  0  0  0  0  0  0  0
   29.9954  -20.8570  -11.2512 C   0  0  0  0  0  0  0  0  0  0  0  0
   29.8969  -21.5157   -9.8588 C   0  0  0  0  0  0  0  0  0  0  0  0
   28.4142  -21.6141   -9.6393 C   0  0  1  0  0  0  0  0  0  0  0  0
   27.9176  -20.5223   -8.7651 C   0  0  0  0  0  0  0  0  0  0  0  0
   27.0056  -19.7794   -9.1701 O   0  0  0  0  0  0  0  0  0  0  0  0
   26.6034  -20.4780   -6.0191 C   0  0  0  0  0  0  0  0  0  0  0  0
   27.8187  -19.6283   -6.4137 C   0  0  2  0  0  0  0  0  0  0  0  0
   28.5009  -20.3584   -7.4884 N   0  0  0  0  0  0  0  0  0  0  0  0
   28.6789  -19.5485   -5.2146 C   0  0  0  0  0  0  0  0  0  0  0  0
   28.6148  -18.5269   -4.4989 O   0  0  0  0  0  0  0  0  0  0  0  0
   29.5469  -20.5591   -4.8595 O   0  0  0  0  0  0  0  0  0  0  0  0
  2  1  1  6
  3  2  1  0
  4  5  1  1
  4  2  1  0
  6  4  1  0
  7  6  2  0
  8 12  1  0
  8  6  1  0
  9  8  1  0
 10 11  1  0
 10  9  1  0
 11 12  1  0
 12 13  1  1
 13 14  2  0
 13 17  1  0
 16 15  1  1
 17 16  1  0
 18 20  1  0
 18 16  1  0
 19 18  2  0
M  END
$$$$
