VPA.pdb
     RDKit          3D

 20 20  0  0  1  0  0  0  0  0999 V2000
   18.4681  -10.1313  -18.2830 C   0  0  0  0  0  0  0  0  0  0  0  0
   18.5074   -8.8975  -17.4619 C   0  0  1  0  0  0  0  0  0  0  0  0
   17.1255   -8.2944  -17.3137 C   0  0  0  0  0  0  0  0  0  0  0  0
   19.0538   -9.1003  -16.0678 C   0  0  2  0  0  0  0  0  0  0  0  0
   18.3018  -10.1626  -15.4906 N   0  0  0  0  0  0  0  0  0  0  0  0
   19.1958   -7.8764  -15.3060 C   0  0  0  0  0  0  0  0  0  0  0  0
   18.1282   -7.2945  -14.9794 O   0  0  0  0  0  0  0  0  0  0  0  0
   20.4297   -7.2523  -14.8804 N   0  0  0  0  0  0  0  0  0  0  0  0
   21.7581   -7.7387  -15.0250 C   0  0  0  0  0  0  0  0  0  0  0  0
   22.6116   -6.5069  -15.1145 C   0  0  0  0  0  0  0  0  0  0  0  0
   21.9304   -5.6736  -14.0082 C   0  0  0  0  0  0  0  0  0  0  0  0
   20.4744   -5.9892  -14.2002 C   0  0  1  0  0  0  0  0  0  0  0  0
   19.7758   -4.9131  -14.9464 C   0  0  0  0  0  0  0  0  0  0  0  0
   19.7952   -4.9175  -16.1903 O   0  0  0  0  0  0  0  0  0  0  0  0
   17.1993   -2.4635  -13.9710 C   0  0  0  0  0  0  0  0  0  0  0  0
   18.3831   -2.8169  -14.8811 C   0  0  2  0  0  0  0  0  0  0  0  0
   19.1041   -3.9077  -14.2149 N   0  0  0  0  0  0  0  0  0  0  0  0
   19.2281   -1.6068  -14.9552 C   0  0  0  0  0  0  0  0  0  0  0  0
   20.1115   -1.4396  -14.0882 O   0  0  0  0  0  0  0  0  0  0  0  0
   19.0759   -0.6589  -15.9448 O   0  0  0  0  0  0  0  0  0  0  0  0
  2  1  1  1
  3  2  1  0
  4  5  1  1
  4  2  1  0
  6  4  1  0
  7  6  2  0
  8 12  1  0
  8  6  1  0
  9  8  1  0
 10 11  1  0
 10  9  1  0
 11 12  1  0
 12 13  1  6
 13 14  2  0
 13 17  1  0
 16 15  1  1
 17 16  1  0
 18 20  1  0
 18 16  1  0
 19 18  2  0
M  END
$$$$
