VPA.pdb
     RDKit          3D

 20 20  0  0  1  0  0  0  0  0999 V2000
   18.0683   -8.7273  -18.4844 C   0  0  0  0  0  0  0  0  0  0  0  0
   17.3097   -9.6492  -17.6055 C   0  0  1  0  0  0  0  0  0  0  0  0
   16.5247  -10.6584  -18.4183 C   0  0  0  0  0  0  0  0  0  0  0  0
   18.1704  -10.4312  -16.6407 C   0  0  2  0  0  0  0  0  0  0  0  0
   17.3025  -11.3403  -15.9718 N   0  0  0  0  0  0  0  0  0  0  0  0
   19.0467   -9.6088  -15.8319 C   0  0  0  0  0  0  0  0  0  0  0  0
   18.4989   -8.6797  -15.1824 O   0  0  0  0  0  0  0  0  0  0  0  0
   20.4804   -9.7400  -15.6899 N   0  0  0  0  0  0  0  0  0  0  0  0
   21.3403  -10.7017  -16.2883 C   0  0  0  0  0  0  0  0  0  0  0  0
   22.6620  -10.0033  -16.4266 C   0  0  0  0  0  0  0  0  0  0  0  0
   22.6953   -9.2990  -15.0536 C   0  0  0  0  0  0  0  0  0  0  0  0
   21.2681   -8.8715  -14.8621 C   0  0  1  0  0  0  0  0  0  0  0  0
   21.0780   -7.4376  -15.1946 C   0  0  0  0  0  0  0  0  0  0  0  0
   21.0139   -7.0879  -16.3867 O   0  0  0  0  0  0  0  0  0  0  0  0
   19.6614   -4.5635  -13.6092 C   0  0  0  0  0  0  0  0  0  0  0  0
   20.8880   -5.0612  -14.3853 C   0  0  2  0  0  0  0  0  0  0  0  0
   20.9747   -6.5050  -14.1378 N   0  0  0  0  0  0  0  0  0  0  0  0
   22.0572   -4.3656  -13.8082 C   0  0  0  0  0  0  0  0  0  0  0  0
   22.2471   -3.1672  -14.1047 O   0  0  0  0  0  0  0  0  0  0  0  0
   22.9429   -4.9911  -12.9566 O   0  0  0  0  0  0  0  0  0  0  0  0
  2  1  1  6
  3  2  1  0
  4  5  1  1
  4  2  1  0
  6  4  1  0
  7  6  2  0
  8 12  1  0
  8  6  1  0
  9  8  1  0
 10 11  1  0
 10  9  1  0
 11 12  1  0
 12 13  1  6
 13 14  2  0
 13 17  1  0
 16 15  1  1
 17 16  1  0
 18 20  1  0
 18 16  1  0
 19 18  2  0
M  END
$$$$
