NRW.pdb
     RDKit          3D

 34 35  0  0  1  0  0  0  0  0999 V2000
    9.3568  -14.8696   16.8025 N   0  0  0  0  0  0  0  0  0  0  0  0
    7.9416  -14.7922   16.8727 C   0  0  0  0  0  0  0  0  0  0  0  0
    7.2489  -15.3615   16.0037 O   0  0  0  0  0  0  0  0  0  0  0  0
    7.2771  -14.0516   17.9541 C   0  0  0  0  0  0  0  0  0  0  0  0
    8.2915  -13.5426   18.9598 C   0  0  2  0  0  0  0  0  0  0  0  0
    9.2944  -12.7202   18.3228 N   0  0  0  0  0  0  0  0  0  0  0  0
    8.8839  -14.6421   19.7441 C   0  0  0  0  0  0  0  0  0  0  0  0
    8.2033  -15.4594   20.4250 O   0  0  0  0  0  0  0  0  0  0  0  0
   12.7074  -16.4141   14.4327 N   0  0  0  0  0  0  0  0  0  0  0  0
   12.8703  -16.4880   15.8370 C   0  0  0  0  0  0  0  0  0  0  0  0
   12.2846  -17.4367   16.5288 N   0  0  0  0  0  0  0  0  0  0  0  0
   13.6577  -15.5639   16.5712 N   0  0  0  0  0  0  0  0  0  0  0  0
   13.7873  -15.6494   18.0093 C   0  0  0  0  0  0  0  0  0  0  0  0
   12.3959  -15.7718   18.5832 C   0  0  0  0  0  0  0  0  0  0  0  0
   12.4122  -15.8061   20.1020 C   0  0  0  0  0  0  0  0  0  0  0  0
   11.0086  -15.7374   20.5784 C   0  0  2  0  0  0  0  0  0  0  0  0
   10.2811  -14.7931   19.7370 N   0  0  0  0  0  0  0  0  0  0  0  0
   10.8214  -15.4892   21.9965 C   0  0  0  0  0  0  0  0  0  0  0  0
   11.3447  -14.4777   22.5073 O   0  0  0  0  0  0  0  0  0  0  0  0
   12.4275  -17.5899   17.5268 N   0  0  0  0  0  0  0  0  0  0  0  0
   10.0673  -16.3598   22.8008 C   0  0  1  0  0  0  0  0  0  0  0  0
    9.5804  -16.0488   24.1174 C   0  0  0  0  0  0  0  0  0  0  0  0
    8.5632  -14.9370   23.9949 C   0  0  0  0  0  0  0  0  0  0  0  0
    8.0270  -14.5334   25.3176 C   0  0  0  0  0  0  0  0  0  0  0  0
    7.8413  -15.3738   26.3937 N   0  0  0  0  0  0  0  0  0  0  0  0
    7.3418  -14.6151   27.3886 C   0  0  0  0  0  0  0  0  0  0  0  0
    7.2146  -13.3365   26.9585 C   0  0  0  0  0  0  0  0  0  0  0  0
    6.7595  -12.1930   27.5793 C   0  0  0  0  0  0  0  0  0  0  0  0
    6.7348  -10.9971   26.8983 C   0  0  0  0  0  0  0  0  0  0  0  0
    7.1636  -10.9223   25.5872 C   0  0  0  0  0  0  0  0  0  0  0  0
    7.6202  -12.0514   24.9530 C   0  0  0  0  0  0  0  0  0  0  0  0
    7.6441  -13.2467   25.6357 C   0  0  0  0  0  0  0  0  0  0  0  0
    9.0302  -17.2329   24.8429 O   0  0  0  0  0  0  0  0  0  0  0  0
    8.4471  -18.1166   24.1730 O   0  0  0  0  0  0  0  0  0  0  0  0
  2  1  1  0
  2  4  1  0
  3  2  2  0
  5  4  1  0
  5  6  1  6
  7  8  2  0
  7  5  1  0
  9 10  1  0
 10 12  1  0
 11 10  2  0
 12 13  1  0
 13 14  1  0
 14 15  1  0
 16 15  1  6
 16 17  1  0
 17  7  1  0
 18 16  1  0
 19 18  2  0
 20 18  1  0
 21 22  1  1
 21 20  1  0
 22 23  1  0
 23 31  1  0
 24 23  2  0
 24 25  1  0
 25 26  1  0
 26 27  1  0
 27 28  2  0
 29 28  1  0
 30 29  2  0
 31 26  2  0
 31 30  1  0
 32 34  1  0
 32 21  1  0
 33 32  2  0
M  END
$$$$
