NRW.pdb
     RDKit          3D

 34 35  0  0  1  0  0  0  0  0999 V2000
   14.5016  -18.5029   17.3936 N   0  0  0  0  0  0  0  0  0  0  0  0
   13.1096  -18.2326   17.4473 C   0  0  0  0  0  0  0  0  0  0  0  0
   12.3220  -18.9138   16.7583 O   0  0  0  0  0  0  0  0  0  0  0  0
   12.5793  -17.1616   18.3025 C   0  0  0  0  0  0  0  0  0  0  0  0
   11.8961  -17.7395   19.5268 C   0  0  2  0  0  0  0  0  0  0  0  0
   10.6588  -18.3978   19.1752 N   0  0  0  0  0  0  0  0  0  0  0  0
   11.7111  -16.7244   20.5806 C   0  0  0  0  0  0  0  0  0  0  0  0
   12.6675  -16.1453   21.1676 O   0  0  0  0  0  0  0  0  0  0  0  0
    7.9950  -12.0946   18.0164 N   0  0  0  0  0  0  0  0  0  0  0  0
    7.8672  -13.4609   17.6687 C   0  0  0  0  0  0  0  0  0  0  0  0
    8.2071  -13.8810   16.4730 N   0  0  0  0  0  0  0  0  0  0  0  0
    7.3750  -14.4422   18.5675 N   0  0  0  0  0  0  0  0  0  0  0  0
    7.0880  -14.1308   19.9506 C   0  0  0  0  0  0  0  0  0  0  0  0
    7.9434  -15.0350   20.8056 C   0  0  0  0  0  0  0  0  0  0  0  0
    9.2075  -14.3368   21.2773 C   0  0  0  0  0  0  0  0  0  0  0  0
   10.0732  -15.3473   21.9338 C   0  0  2  0  0  0  0  0  0  0  0  0
   10.4015  -16.3792   20.9559 N   0  0  0  0  0  0  0  0  0  0  0  0
    9.5879  -15.8935   23.1883 C   0  0  0  0  0  0  0  0  0  0  0  0
    8.3835  -16.2060   23.2859 O   0  0  0  0  0  0  0  0  0  0  0  0
    8.0977  -14.8422   16.1505 N   0  0  0  0  0  0  0  0  0  0  0  0
   10.4421  -16.0764   24.2885 C   0  0  2  0  0  0  0  0  0  0  0  0
   10.0151  -16.4625   25.6060 C   0  0  0  0  0  0  0  0  0  0  0  0
    8.5957  -15.9805   25.8032 C   0  0  0  0  0  0  0  0  0  0  0  0
    8.5372  -14.7833   26.6768 C   0  0  0  0  0  0  0  0  0  0  0  0
    9.2557  -14.6079   27.8395 N   0  0  0  0  0  0  0  0  0  0  0  0
    8.9145  -13.3964   28.3198 C   0  0  0  0  0  0  0  0  0  0  0  0
    8.0099  -12.8223   27.4901 C   0  0  0  0  0  0  0  0  0  0  0  0
    7.3581  -11.6085   27.5306 C   0  0  0  0  0  0  0  0  0  0  0  0
    6.4682  -11.2657   26.5379 C   0  0  0  0  0  0  0  0  0  0  0  0
    6.2143  -12.1280   25.4890 C   0  0  0  0  0  0  0  0  0  0  0  0
    6.8547  -13.3413   25.4325 C   0  0  0  0  0  0  0  0  0  0  0  0
    7.7443  -13.6825   26.4262 C   0  0  0  0  0  0  0  0  0  0  0  0
   10.1505  -17.9264   25.8698 O   0  0  0  0  0  0  0  0  0  0  0  0
   10.0543  -18.7122   24.8987 O   0  0  0  0  0  0  0  0  0  0  0  0
  2  1  1  0
  2  4  1  0
  3  2  2  0
  5  4  1  0
  5  6  1  6
  7  8  2  0
  7  5  1  0
  9 10  1  0
 10 12  1  0
 11 10  2  0
 12 13  1  0
 13 14  1  0
 14 15  1  0
 16 15  1  6
 16 17  1  0
 17  7  1  0
 18 16  1  0
 19 18  2  0
 20 18  1  0
 21 22  1  6
 21 20  1  0
 22 23  1  0
 23 31  1  0
 24 23  2  0
 24 25  1  0
 25 26  1  0
 26 27  1  0
 27 28  2  0
 29 28  1  0
 30 29  2  0
 31 26  2  0
 31 30  1  0
 32 34  1  0
 32 21  1  0
 33 32  2  0
M  END
$$$$
