NRW.pdb
     RDKit          3D

 34 35  0  0  1  0  0  0  0  0999 V2000
   11.8827  -20.4783   19.2534 N   0  0  0  0  0  0  0  0  0  0  0  0
   11.2858  -19.5969   18.3151 C   0  0  0  0  0  0  0  0  0  0  0  0
   11.5202  -19.7417   17.0972 O   0  0  0  0  0  0  0  0  0  0  0  0
   10.3944  -18.5145   18.7546 C   0  0  0  0  0  0  0  0  0  0  0  0
   10.2858  -18.4878   20.2669 C   0  0  2  0  0  0  0  0  0  0  0  0
    9.0441  -19.0762   20.7140 N   0  0  0  0  0  0  0  0  0  0  0  0
   10.4888  -17.1303   20.8064 C   0  0  0  0  0  0  0  0  0  0  0  0
   11.6076  -16.5447   20.8200 O   0  0  0  0  0  0  0  0  0  0  0  0
    7.8277  -15.2024   17.1954 N   0  0  0  0  0  0  0  0  0  0  0  0
    7.8562  -13.8043   16.9754 C   0  0  0  0  0  0  0  0  0  0  0  0
    8.1431  -13.3198   15.7902 N   0  0  0  0  0  0  0  0  0  0  0  0
    7.5836  -12.8577   17.9966 N   0  0  0  0  0  0  0  0  0  0  0  0
    7.2388  -13.2669   19.3404 C   0  0  0  0  0  0  0  0  0  0  0  0
    8.4717  -13.8835   19.9568 C   0  0  0  0  0  0  0  0  0  0  0  0
    8.2145  -14.3637   21.3750 C   0  0  0  0  0  0  0  0  0  0  0  0
    9.4260  -15.0802   21.8446 C   0  0  2  0  0  0  0  0  0  0  0  0
    9.3806  -16.4467   21.3354 N   0  0  0  0  0  0  0  0  0  0  0  0
    9.6992  -15.0182   23.2691 C   0  0  0  0  0  0  0  0  0  0  0  0
    9.9392  -13.9100   23.7908 O   0  0  0  0  0  0  0  0  0  0  0  0
    8.2663  -12.3273   15.5911 N   0  0  0  0  0  0  0  0  0  0  0  0
    9.6988  -16.1739   24.0675 C   0  0  1  0  0  0  0  0  0  0  0  0
   10.0347  -16.2082   25.4651 C   0  0  0  0  0  0  0  0  0  0  0  0
    8.7889  -16.5688   26.2421 C   0  0  0  0  0  0  0  0  0  0  0  0
    7.6797  -15.6211   25.9748 C   0  0  0  0  0  0  0  0  0  0  0  0
    6.4647  -15.9520   25.4152 N   0  0  0  0  0  0  0  0  0  0  0  0
    5.7519  -14.8108   25.3485 C   0  0  0  0  0  0  0  0  0  0  0  0
    6.4896  -13.7901   25.8487 C   0  0  0  0  0  0  0  0  0  0  0  0
    6.2240  -12.4464   26.0034 C   0  0  0  0  0  0  0  0  0  0  0  0
    7.1705  -11.6110   26.5520 C   0  0  0  0  0  0  0  0  0  0  0  0
    8.3970  -12.1023   26.9551 C   0  0  0  0  0  0  0  0  0  0  0  0
    8.6788  -13.4382   26.8086 C   0  0  0  0  0  0  0  0  0  0  0  0
    7.7309  -14.2722   26.2596 C   0  0  0  0  0  0  0  0  0  0  0  0
   11.1744  -17.1207   25.7806 O   0  0  0  0  0  0  0  0  0  0  0  0
   11.6680  -17.7931   24.8457 O   0  0  0  0  0  0  0  0  0  0  0  0
  2  1  1  0
  2  4  1  0
  3  2  2  0
  5  4  1  0
  5  6  1  6
  7  8  2  0
  7  5  1  0
  9 10  1  0
 10 12  1  0
 11 10  2  0
 12 13  1  0
 13 14  1  0
 14 15  1  0
 16 15  1  1
 16 17  1  0
 17  7  1  0
 18 16  1  0
 19 18  2  0
 20 18  1  0
 21 22  1  1
 21 20  1  0
 22 23  1  0
 23 31  1  0
 24 23  2  0
 24 25  1  0
 25 26  1  0
 26 27  1  0
 27 28  2  0
 29 28  1  0
 30 29  2  0
 31 26  2  0
 31 30  1  0
 32 34  1  0
 32 21  1  0
 33 32  2  0
M  END
$$$$
