NRW.pdb
     RDKit          3D

 34 35  0  0  1  0  0  0  0  0999 V2000
   15.8580  -14.0121   19.5542 N   0  0  0  0  0  0  0  0  0  0  0  0
   14.7744  -14.6241   18.8724 C   0  0  0  0  0  0  0  0  0  0  0  0
   14.9901  -15.2701   17.8258 O   0  0  0  0  0  0  0  0  0  0  0  0
   13.3998  -14.5096   19.3794 C   0  0  0  0  0  0  0  0  0  0  0  0
   13.1113  -15.5925   20.4010 C   0  0  2  0  0  0  0  0  0  0  0  0
   12.8241  -16.8552   19.7598 N   0  0  0  0  0  0  0  0  0  0  0  0
   12.0508  -15.1881   21.3427 C   0  0  0  0  0  0  0  0  0  0  0  0
   12.1014  -14.1376   22.0417 O   0  0  0  0  0  0  0  0  0  0  0  0
    7.0222  -12.8343   18.8274 N   0  0  0  0  0  0  0  0  0  0  0  0
    7.5822  -13.7112   17.8675 C   0  0  0  0  0  0  0  0  0  0  0  0
    8.0151  -13.2537   16.7164 N   0  0  0  0  0  0  0  0  0  0  0  0
    7.7091  -15.1081   18.0810 N   0  0  0  0  0  0  0  0  0  0  0  0
    7.4566  -15.7058   19.3737 C   0  0  0  0  0  0  0  0  0  0  0  0
    8.5654  -15.2671   20.3002 C   0  0  0  0  0  0  0  0  0  0  0  0
    8.5370  -16.0274   21.6151 C   0  0  0  0  0  0  0  0  0  0  0  0
    9.7901  -15.7232   22.3492 C   0  0  2  0  0  0  0  0  0  0  0  0
   10.9204  -16.0128   21.4731 N   0  0  0  0  0  0  0  0  0  0  0  0
    9.9279  -16.3230   23.6641 C   0  0  0  0  0  0  0  0  0  0  0  0
   10.2870  -17.5153   23.7499 O   0  0  0  0  0  0  0  0  0  0  0  0
    8.5062  -13.8180   16.0234 N   0  0  0  0  0  0  0  0  0  0  0  0
    9.6666  -15.5925   24.8352 C   0  0  2  0  0  0  0  0  0  0  0  0
    9.8508  -16.0883   26.1722 C   0  0  0  0  0  0  0  0  0  0  0  0
    8.4901  -16.2294   26.8158 C   0  0  0  0  0  0  0  0  0  0  0  0
    7.5209  -15.2452   26.2757 C   0  0  0  0  0  0  0  0  0  0  0  0
    6.4281  -15.5482   25.4928 N   0  0  0  0  0  0  0  0  0  0  0  0
    5.8170  -14.3786   25.2215 C   0  0  0  0  0  0  0  0  0  0  0  0
    6.4990  -13.3675   25.8120 C   0  0  0  0  0  0  0  0  0  0  0  0
    6.2919  -12.0050   25.8398 C   0  0  0  0  0  0  0  0  0  0  0  0
    7.1562  -11.1861   26.5305 C   0  0  0  0  0  0  0  0  0  0  0  0
    8.2408  -11.7130   27.2046 C   0  0  0  0  0  0  0  0  0  0  0  0
    8.4624  -13.0680   27.1878 C   0  0  0  0  0  0  0  0  0  0  0  0
    7.5969  -13.8854   26.4964 C   0  0  0  0  0  0  0  0  0  0  0  0
   10.6327  -17.3596   26.2324 O   0  0  0  0  0  0  0  0  0  0  0  0
   10.9539  -17.9065   25.1519 O   0  0  0  0  0  0  0  0  0  0  0  0
  2  1  1  0
  2  4  1  0
  3  2  2  0
  5  4  1  0
  5  6  1  6
  7  8  2  0
  7  5  1  0
  9 10  1  0
 10 12  1  0
 11 10  2  0
 12 13  1  0
 13 14  1  0
 14 15  1  0
 16 15  1  6
 16 17  1  0
 17  7  1  0
 18 16  1  0
 19 18  2  0
 20 18  1  0
 21 22  1  1
 21 20  1  0
 22 23  1  0
 23 31  1  0
 24 23  2  0
 24 25  1  0
 25 26  1  0
 26 27  1  0
 27 28  2  0
 29 28  1  0
 30 29  2  0
 31 26  2  0
 31 30  1  0
 32 34  1  0
 32 21  1  0
 33 32  2  0
M  END
$$$$
