NRW.pdb
     RDKit          3D

 34 35  0  0  1  0  0  0  0  0999 V2000
    6.1241  -12.8538   18.1336 N   0  0  0  0  0  0  0  0  0  0  0  0
    6.9763  -13.9884   18.1175 C   0  0  0  0  0  0  0  0  0  0  0  0
    7.6650  -14.2281   17.1039 O   0  0  0  0  0  0  0  0  0  0  0  0
    7.0614  -14.8872   19.2770 C   0  0  0  0  0  0  0  0  0  0  0  0
    8.0761  -14.3755   20.2810 C   0  0  2  0  0  0  0  0  0  0  0  0
    9.1632  -13.6872   19.6235 N   0  0  0  0  0  0  0  0  0  0  0  0
    8.5510  -15.4485   21.1745 C   0  0  0  0  0  0  0  0  0  0  0  0
    7.7824  -16.1641   21.8759 O   0  0  0  0  0  0  0  0  0  0  0  0
   14.8656  -13.7498   18.9725 N   0  0  0  0  0  0  0  0  0  0  0  0
   15.3777  -14.9659   19.4850 C   0  0  0  0  0  0  0  0  0  0  0  0
   16.6595  -15.1002   19.7316 N   0  0  0  0  0  0  0  0  0  0  0  0
   14.5595  -16.0923   19.7588 N   0  0  0  0  0  0  0  0  0  0  0  0
   13.1224  -16.0442   19.6023 C   0  0  0  0  0  0  0  0  0  0  0  0
   12.5226  -15.8667   20.9767 C   0  0  0  0  0  0  0  0  0  0  0  0
   11.8283  -17.1295   21.4576 C   0  0  0  0  0  0  0  0  0  0  0  0
   10.5362  -16.7378   22.0729 C   0  0  2  0  0  0  0  0  0  0  0  0
    9.9329  -15.6920   21.2536 N   0  0  0  0  0  0  0  0  0  0  0  0
   10.5716  -16.3984   23.4840 C   0  0  0  0  0  0  0  0  0  0  0  0
   11.5689  -15.8001   23.9369 O   0  0  0  0  0  0  0  0  0  0  0  0
   17.1046  -15.9811   19.9879 N   0  0  0  0  0  0  0  0  0  0  0  0
    9.5117  -16.7281   24.3451 C   0  0  1  0  0  0  0  0  0  0  0  0
    9.5584  -16.6369   25.7792 C   0  0  0  0  0  0  0  0  0  0  0  0
    8.1424  -16.4967   26.2904 C   0  0  0  0  0  0  0  0  0  0  0  0
    7.4553  -15.3253   25.6939 C   0  0  0  0  0  0  0  0  0  0  0  0
    6.5073  -15.3794   24.6953 N   0  0  0  0  0  0  0  0  0  0  0  0
    6.1411  -14.1068   24.4476 C   0  0  0  0  0  0  0  0  0  0  0  0
    6.8334  -13.2732   25.2613 C   0  0  0  0  0  0  0  0  0  0  0  0
    6.8277  -11.9020   25.4012 C   0  0  0  0  0  0  0  0  0  0  0  0
    7.6486  -11.2957   26.3249 C   0  0  0  0  0  0  0  0  0  0  0  0
    8.4882  -12.0473   27.1240 C   0  0  0  0  0  0  0  0  0  0  0  0
    8.5069  -13.4145   26.9984 C   0  0  0  0  0  0  0  0  0  0  0  0
    7.6853  -14.0192   26.0738 C   0  0  0  0  0  0  0  0  0  0  0  0
   10.2757  -17.7771   26.4245 O   0  0  0  0  0  0  0  0  0  0  0  0
   10.5695  -18.7669   25.7146 O   0  0  0  0  0  0  0  0  0  0  0  0
  2  1  1  0
  2  4  1  0
  3  2  2  0
  5  4  1  0
  5  6  1  6
  7  8  2  0
  7  5  1  0
  9 10  1  0
 10 12  1  0
 11 10  2  0
 12 13  1  0
 13 14  1  0
 14 15  1  0
 16 15  1  6
 16 17  1  0
 17  7  1  0
 18 16  1  0
 19 18  2  0
 20 18  1  0
 21 22  1  1
 21 20  1  0
 22 23  1  0
 23 31  1  0
 24 23  2  0
 24 25  1  0
 25 26  1  0
 26 27  1  0
 27 28  2  0
 29 28  1  0
 30 29  2  0
 31 26  2  0
 31 30  1  0
 32 34  1  0
 32 21  1  0
 33 32  2  0
M  END
$$$$
