NRW.pdb
     RDKit          3D

 34 35  0  0  1  0  0  0  0  0999 V2000
    8.1264  -13.3834   16.0111 N   0  0  0  0  0  0  0  0  0  0  0  0
    7.4380  -14.6012   16.2495 C   0  0  0  0  0  0  0  0  0  0  0  0
    6.5686  -14.9868   15.4404 O   0  0  0  0  0  0  0  0  0  0  0  0
    7.7326  -15.4172   17.4356 C   0  0  0  0  0  0  0  0  0  0  0  0
    8.5497  -14.6293   18.4412 C   0  0  2  0  0  0  0  0  0  0  0  0
    9.7298  -14.0629   17.8293 N   0  0  0  0  0  0  0  0  0  0  0  0
    8.8686  -15.4322   19.6365 C   0  0  0  0  0  0  0  0  0  0  0  0
    7.9923  -15.9537   20.3814 O   0  0  0  0  0  0  0  0  0  0  0  0
    9.3170  -20.7693   20.0956 N   0  0  0  0  0  0  0  0  0  0  0  0
   10.3525  -21.1566   19.2114 C   0  0  0  0  0  0  0  0  0  0  0  0
   10.1390  -22.0656   18.2895 N   0  0  0  0  0  0  0  0  0  0  0  0
   11.6574  -20.6018   19.2625 N   0  0  0  0  0  0  0  0  0  0  0  0
   12.0218  -19.6048   20.2450 C   0  0  0  0  0  0  0  0  0  0  0  0
   11.5941  -18.2604   19.7065 C   0  0  0  0  0  0  0  0  0  0  0  0
   11.9417  -17.1322   20.6627 C   0  0  0  0  0  0  0  0  0  0  0  0
   10.6782  -16.4701   21.0712 C   0  0  2  0  0  0  0  0  0  0  0  0
   10.2195  -15.6309   19.9693 N   0  0  0  0  0  0  0  0  0  0  0  0
   10.7003  -15.7691   22.3423 C   0  0  0  0  0  0  0  0  0  0  0  0
   10.9427  -14.5448   22.3532 O   0  0  0  0  0  0  0  0  0  0  0  0
   10.8578  -22.4253   17.6620 N   0  0  0  0  0  0  0  0  0  0  0  0
   10.4558  -16.4374   23.5535 C   0  0  2  0  0  0  0  0  0  0  0  0
    9.6439  -15.9274   24.6249 C   0  0  0  0  0  0  0  0  0  0  0  0
    8.3000  -15.5350   24.0543 C   0  0  0  0  0  0  0  0  0  0  0  0
    7.4148  -14.9439   25.0872 C   0  0  0  0  0  0  0  0  0  0  0  0
    6.3634  -15.5891   25.7014 N   0  0  0  0  0  0  0  0  0  0  0  0
    5.8275  -14.7068   26.5670 C   0  0  0  0  0  0  0  0  0  0  0  0
    6.5153  -13.5410   26.5042 C   0  0  0  0  0  0  0  0  0  0  0  0
    6.3709  -12.3451   27.1741 C   0  0  0  0  0  0  0  0  0  0  0  0
    7.2245  -11.2970   26.9141 C   0  0  0  0  0  0  0  0  0  0  0  0
    8.2357  -11.4249   25.9817 C   0  0  0  0  0  0  0  0  0  0  0  0
    8.3944  -12.6091   25.3050 C   0  0  0  0  0  0  0  0  0  0  0  0
    7.5397  -13.6562   25.5664 C   0  0  0  0  0  0  0  0  0  0  0  0
    9.5096  -16.8746   25.7720 O   0  0  0  0  0  0  0  0  0  0  0  0
    9.5266  -18.1034   25.5275 O   0  0  0  0  0  0  0  0  0  0  0  0
  2  1  1  0
  2  4  1  0
  3  2  2  0
  5  4  1  0
  5  6  1  6
  7  8  2  0
  7  5  1  0
  9 10  1  0
 10 12  1  0
 11 10  2  0
 12 13  1  0
 13 14  1  0
 14 15  1  0
 16 15  1  6
 16 17  1  0
 17  7  1  0
 18 16  1  0
 19 18  2  0
 20 18  1  0
 21 22  1  6
 21 20  1  0
 22 23  1  0
 23 31  1  0
 24 23  2  0
 24 25  1  0
 25 26  1  0
 26 27  1  0
 27 28  2  0
 29 28  1  0
 30 29  2  0
 31 26  2  0
 31 30  1  0
 32 34  1  0
 32 21  1  0
 33 32  2  0
M  END
$$$$
