NRW.pdb
     RDKit          3D

 34 35  0  0  1  0  0  0  0  0999 V2000
    6.5642  -13.8955   17.4626 N   0  0  0  0  0  0  0  0  0  0  0  0
    7.5285  -13.4505   18.4038 C   0  0  0  0  0  0  0  0  0  0  0  0
    8.4960  -12.7623   18.0170 O   0  0  0  0  0  0  0  0  0  0  0  0
    7.4064  -13.7872   19.8290 C   0  0  0  0  0  0  0  0  0  0  0  0
    8.7448  -14.2190   20.3963 C   0  0  2  0  0  0  0  0  0  0  0  0
    9.6267  -14.6947   19.3553 N   0  0  0  0  0  0  0  0  0  0  0  0
    8.5864  -15.1983   21.4876 C   0  0  0  0  0  0  0  0  0  0  0  0
    7.6539  -15.1513   22.3379 O   0  0  0  0  0  0  0  0  0  0  0  0
   10.9303  -18.5054   17.8560 N   0  0  0  0  0  0  0  0  0  0  0  0
   10.0411  -19.6050   17.9211 C   0  0  0  0  0  0  0  0  0  0  0  0
    9.3282  -19.9508   16.8752 N   0  0  0  0  0  0  0  0  0  0  0  0
    9.8659  -20.3862   19.0924 N   0  0  0  0  0  0  0  0  0  0  0  0
   10.4960  -20.0307   20.3449 C   0  0  0  0  0  0  0  0  0  0  0  0
    9.7076  -18.8890   20.9409 C   0  0  0  0  0  0  0  0  0  0  0  0
   10.3210  -18.3966   22.2406 C   0  0  0  0  0  0  0  0  0  0  0  0
    9.5571  -17.2055   22.6872 C   0  0  2  0  0  0  0  0  0  0  0  0
    9.5211  -16.2426   21.5916 N   0  0  0  0  0  0  0  0  0  0  0  0
    9.9686  -16.6116   23.9464 C   0  0  0  0  0  0  0  0  0  0  0  0
   10.9814  -15.8825   23.9684 O   0  0  0  0  0  0  0  0  0  0  0  0
    8.6735  -20.7326   16.8608 N   0  0  0  0  0  0  0  0  0  0  0  0
    9.2537  -16.8398   25.1339 C   0  0  1  0  0  0  0  0  0  0  0  0
    9.6908  -16.4458   26.4458 C   0  0  0  0  0  0  0  0  0  0  0  0
    8.4763  -16.0271   27.2430 C   0  0  0  0  0  0  0  0  0  0  0  0
    7.6202  -15.0815   26.4861 C   0  0  0  0  0  0  0  0  0  0  0  0
    6.5987  -15.4377   25.6327 N   0  0  0  0  0  0  0  0  0  0  0  0
    6.0806  -14.2887   25.1571 C   0  0  0  0  0  0  0  0  0  0  0  0
    6.7508  -13.2387   25.6905 C   0  0  0  0  0  0  0  0  0  0  0  0
    6.6138  -11.8765   25.5301 C   0  0  0  0  0  0  0  0  0  0  0  0
    7.4449  -11.0117   26.2054 C   0  0  0  0  0  0  0  0  0  0  0  0
    8.4260  -11.4914   27.0513 C   0  0  0  0  0  0  0  0  0  0  0  0
    8.5767  -12.8454   27.2232 C   0  0  0  0  0  0  0  0  0  0  0  0
    7.7446  -13.7089   26.5469 C   0  0  0  0  0  0  0  0  0  0  0  0
   10.4858  -17.4973   27.1483 O   0  0  0  0  0  0  0  0  0  0  0  0
   10.8972  -17.2509   28.3059 O   0  0  0  0  0  0  0  0  0  0  0  0
  2  1  1  0
  2  4  1  0
  3  2  2  0
  5  4  1  0
  5  6  1  6
  7  8  2  0
  7  5  1  0
  9 10  1  0
 10 12  1  0
 11 10  2  0
 12 13  1  0
 13 14  1  0
 14 15  1  0
 16 15  1  6
 16 17  1  0
 17  7  1  0
 18 16  1  0
 19 18  2  0
 20 18  1  0
 21 22  1  6
 21 20  1  0
 22 23  1  0
 23 31  1  0
 24 23  2  0
 24 25  1  0
 25 26  1  0
 26 27  1  0
 27 28  2  0
 29 28  1  0
 30 29  2  0
 31 26  2  0
 31 30  1  0
 32 34  1  0
 32 21  1  0
 33 32  2  0
M  END
$$$$
