NRW.pdb
     RDKit          3D

 34 35  0  0  1  0  0  0  0  0999 V2000
   15.5292  -14.3941   18.5876 N   0  0  0  0  0  0  0  0  0  0  0  0
   14.2270  -14.7633   18.1613 C   0  0  0  0  0  0  0  0  0  0  0  0
   14.0829  -15.3892   17.0905 O   0  0  0  0  0  0  0  0  0  0  0  0
   13.0432  -14.4202   18.9616 C   0  0  0  0  0  0  0  0  0  0  0  0
   12.6585  -15.5695   19.8731 C   0  0  2  0  0  0  0  0  0  0  0  0
   11.9896  -16.6194   19.1395 N   0  0  0  0  0  0  0  0  0  0  0  0
   11.8734  -15.1087   21.0334 C   0  0  0  0  0  0  0  0  0  0  0  0
   12.3799  -14.5220   22.0304 O   0  0  0  0  0  0  0  0  0  0  0  0
    8.2282  -12.3084   17.7725 N   0  0  0  0  0  0  0  0  0  0  0  0
    7.9041  -13.5587   17.1933 C   0  0  0  0  0  0  0  0  0  0  0  0
    8.2055  -13.8140   15.9420 N   0  0  0  0  0  0  0  0  0  0  0  0
    7.2477  -14.5929   17.9094 N   0  0  0  0  0  0  0  0  0  0  0  0
    7.0230  -14.5061   19.3356 C   0  0  0  0  0  0  0  0  0  0  0  0
    8.3661  -14.6310   20.0144 C   0  0  0  0  0  0  0  0  0  0  0  0
    8.2294  -14.7243   21.5246 C   0  0  0  0  0  0  0  0  0  0  0  0
    9.5863  -14.8994   22.0990 C   0  0  2  0  0  0  0  0  0  0  0  0
   10.4859  -15.3321   21.0349 N   0  0  0  0  0  0  0  0  0  0  0  0
    9.6802  -15.7272   23.2880 C   0  0  0  0  0  0  0  0  0  0  0  0
    9.8569  -16.9558   23.1566 O   0  0  0  0  0  0  0  0  0  0  0  0
    8.0350  -14.7080   15.4823 N   0  0  0  0  0  0  0  0  0  0  0  0
    9.5769  -15.1762   24.5760 C   0  0  2  0  0  0  0  0  0  0  0  0
    9.7520  -15.9091   25.8006 C   0  0  0  0  0  0  0  0  0  0  0  0
    8.4030  -16.4378   26.2323 C   0  0  0  0  0  0  0  0  0  0  0  0
    7.3494  -15.3979   26.1412 C   0  0  0  0  0  0  0  0  0  0  0  0
    6.0532  -15.6095   25.7240 N   0  0  0  0  0  0  0  0  0  0  0  0
    5.4314  -14.4161   25.7903 C   0  0  0  0  0  0  0  0  0  0  0  0
    6.3035  -13.4789   26.2344 C   0  0  0  0  0  0  0  0  0  0  0  0
    6.1671  -12.1281   26.4728 C   0  0  0  0  0  0  0  0  0  0  0  0
    7.2368  -11.3934   26.9319 C   0  0  0  0  0  0  0  0  0  0  0  0
    8.4595  -11.9941   27.1608 C   0  0  0  0  0  0  0  0  0  0  0  0
    8.6135  -13.3387   26.9289 C   0  0  0  0  0  0  0  0  0  0  0  0
    7.5426  -14.0719   26.4696 C   0  0  0  0  0  0  0  0  0  0  0  0
   10.7731  -16.9949   25.7028 O   0  0  0  0  0  0  0  0  0  0  0  0
   11.0173  -17.6694   26.7301 O   0  0  0  0  0  0  0  0  0  0  0  0
  2  1  1  0
  2  4  1  0
  3  2  2  0
  5  4  1  0
  5  6  1  6
  7  8  2  0
  7  5  1  0
  9 10  1  0
 10 12  1  0
 11 10  2  0
 12 13  1  0
 13 14  1  0
 14 15  1  0
 16 15  1  6
 16 17  1  0
 17  7  1  0
 18 16  1  0
 19 18  2  0
 20 18  1  0
 21 22  1  6
 21 20  1  0
 22 23  1  0
 23 31  1  0
 24 23  2  0
 24 25  1  0
 25 26  1  0
 26 27  1  0
 27 28  2  0
 29 28  1  0
 30 29  2  0
 31 26  2  0
 31 30  1  0
 32 34  1  0
 32 21  1  0
 33 32  2  0
M  END
$$$$
