NRW.pdb
     RDKit          3D

 34 35  0  0  1  0  0  0  0  0999 V2000
    9.1327  -13.4813   17.2172 N   0  0  0  0  0  0  0  0  0  0  0  0
    7.7395  -13.6005   17.4589 C   0  0  0  0  0  0  0  0  0  0  0  0
    6.9334  -13.4179   16.5229 O   0  0  0  0  0  0  0  0  0  0  0  0
    7.2294  -13.9361   18.7955 C   0  0  0  0  0  0  0  0  0  0  0  0
    8.3582  -13.9775   19.8073 C   0  0  2  0  0  0  0  0  0  0  0  0
    9.6352  -14.1746   19.1605 N   0  0  0  0  0  0  0  0  0  0  0  0
    8.1073  -14.9721   20.8670 C   0  0  0  0  0  0  0  0  0  0  0  0
    7.0704  -14.9776   21.5878 O   0  0  0  0  0  0  0  0  0  0  0  0
   13.4497  -20.0832   20.6404 N   0  0  0  0  0  0  0  0  0  0  0  0
   13.0206  -19.6175   19.3743 C   0  0  0  0  0  0  0  0  0  0  0  0
   13.8914  -19.3530   18.4291 N   0  0  0  0  0  0  0  0  0  0  0  0
   11.6545  -19.4106   19.0516 N   0  0  0  0  0  0  0  0  0  0  0  0
   10.6073  -19.5760   20.0355 C   0  0  0  0  0  0  0  0  0  0  0  0
   10.3960  -18.2375   20.7019 C   0  0  0  0  0  0  0  0  0  0  0  0
    9.2437  -18.2745   21.6913 C   0  0  0  0  0  0  0  0  0  0  0  0
    9.0427  -16.9007   22.2145 C   0  0  2  0  0  0  0  0  0  0  0  0
    9.0711  -15.9701   21.0911 N   0  0  0  0  0  0  0  0  0  0  0  0
    9.9098  -16.4939   23.3055 C   0  0  0  0  0  0  0  0  0  0  0  0
   11.1315  -16.7377   23.2297 O   0  0  0  0  0  0  0  0  0  0  0  0
   13.6441  -19.0057   17.5028 N   0  0  0  0  0  0  0  0  0  0  0  0
    9.4041  -15.8350   24.4384 C   0  0  1  0  0  0  0  0  0  0  0  0
    9.9575  -15.9324   25.7619 C   0  0  0  0  0  0  0  0  0  0  0  0
    8.8163  -15.9201   26.7536 C   0  0  0  0  0  0  0  0  0  0  0  0
    7.6699  -15.1167   26.2637 C   0  0  0  0  0  0  0  0  0  0  0  0
    6.5046  -15.6284   25.7353 N   0  0  0  0  0  0  0  0  0  0  0  0
    5.7325  -14.5708   25.4186 C   0  0  0  0  0  0  0  0  0  0  0  0
    6.3857  -13.4265   25.7352 C   0  0  0  0  0  0  0  0  0  0  0  0
    6.0372  -12.0987   25.6122 C   0  0  0  0  0  0  0  0  0  0  0  0
    6.9067  -11.1127   26.0205 C   0  0  0  0  0  0  0  0  0  0  0  0
    8.1376  -11.4354   26.5580 C   0  0  0  0  0  0  0  0  0  0  0  0
    8.5014  -12.7530   26.6881 C   0  0  0  0  0  0  0  0  0  0  0  0
    7.6305  -13.7378   26.2791 C   0  0  0  0  0  0  0  0  0  0  0  0
   10.8479  -17.1171   25.9484 O   0  0  0  0  0  0  0  0  0  0  0  0
   12.0828  -16.9204   26.0272 O   0  0  0  0  0  0  0  0  0  0  0  0
  2  1  1  0
  2  4  1  0
  3  2  2  0
  5  4  1  0
  5  6  1  6
  7  8  2  0
  7  5  1  0
  9 10  1  0
 10 12  1  0
 11 10  2  0
 12 13  1  0
 13 14  1  0
 14 15  1  0
 16 15  1  6
 16 17  1  0
 17  7  1  0
 18 16  1  0
 19 18  2  0
 20 18  1  0
 21 22  1  1
 21 20  1  0
 22 23  1  0
 23 31  1  0
 24 23  2  0
 24 25  1  0
 25 26  1  0
 26 27  1  0
 27 28  2  0
 29 28  1  0
 30 29  2  0
 31 26  2  0
 31 30  1  0
 32 34  1  0
 32 21  1  0
 33 32  2  0
M  END
$$$$
