NRW.pdb
     RDKit          3D

 34 35  0  0  1  0  0  0  0  0999 V2000
    8.0563  -12.1976   17.1897 N   0  0  0  0  0  0  0  0  0  0  0  0
    7.8587  -13.5954   17.0466 C   0  0  0  0  0  0  0  0  0  0  0  0
    7.8790  -14.1078   15.9081 O   0  0  0  0  0  0  0  0  0  0  0  0
    7.6300  -14.4512   18.2191 C   0  0  0  0  0  0  0  0  0  0  0  0
    8.9348  -14.7430   18.9347 C   0  0  2  0  0  0  0  0  0  0  0  0
    9.8782  -15.3988   18.0585 N   0  0  0  0  0  0  0  0  0  0  0  0
    8.7170  -15.4930   20.1858 C   0  0  0  0  0  0  0  0  0  0  0  0
    7.9540  -15.0993   21.1119 O   0  0  0  0  0  0  0  0  0  0  0  0
    6.9519  -21.1979   19.1774 N   0  0  0  0  0  0  0  0  0  0  0  0
    7.9384  -21.1773   18.1624 C   0  0  0  0  0  0  0  0  0  0  0  0
    7.5996  -21.2789   16.8988 N   0  0  0  0  0  0  0  0  0  0  0  0
    9.3244  -21.0491   18.4372 N   0  0  0  0  0  0  0  0  0  0  0  0
    9.8129  -20.7716   19.7700 C   0  0  0  0  0  0  0  0  0  0  0  0
    9.1809  -19.4774   20.2240 C   0  0  0  0  0  0  0  0  0  0  0  0
    9.9841  -18.8138   21.3296 C   0  0  0  0  0  0  0  0  0  0  0  0
    9.3827  -17.4846   21.6003 C   0  0  2  0  0  0  0  0  0  0  0  0
    9.3927  -16.7126   20.3622 N   0  0  0  0  0  0  0  0  0  0  0  0
    9.9268  -16.7491   22.7276 C   0  0  0  0  0  0  0  0  0  0  0  0
   10.6800  -15.7782   22.5090 O   0  0  0  0  0  0  0  0  0  0  0  0
    8.2619  -21.2524   16.1239 N   0  0  0  0  0  0  0  0  0  0  0  0
    9.6242  -17.1064   24.0520 C   0  0  1  0  0  0  0  0  0  0  0  0
   10.1480  -16.4525   25.2205 C   0  0  0  0  0  0  0  0  0  0  0  0
    9.7279  -15.0008   25.1781 C   0  0  0  0  0  0  0  0  0  0  0  0
    8.3208  -14.8220   25.6120 C   0  0  0  0  0  0  0  0  0  0  0  0
    7.3273  -15.7712   25.5092 N   0  0  0  0  0  0  0  0  0  0  0  0
    6.2108  -15.2112   26.0139 C   0  0  0  0  0  0  0  0  0  0  0  0
    6.4864  -13.9491   26.4231 C   0  0  0  0  0  0  0  0  0  0  0  0
    5.7032  -12.9723   26.9996 C   0  0  0  0  0  0  0  0  0  0  0  0
    6.2462  -11.7497   27.3238 C   0  0  0  0  0  0  0  0  0  0  0  0
    7.5790  -11.4817   27.0783 C   0  0  0  0  0  0  0  0  0  0  0  0
    8.3740  -12.4432   26.5047 C   0  0  0  0  0  0  0  0  0  0  0  0
    7.8292  -13.6654   26.1811 C   0  0  0  0  0  0  0  0  0  0  0  0
    9.7503  -17.1128   26.4999 O   0  0  0  0  0  0  0  0  0  0  0  0
   10.2338  -16.6698   27.5676 O   0  0  0  0  0  0  0  0  0  0  0  0
  2  1  1  0
  2  4  1  0
  3  2  2  0
  5  4  1  0
  5  6  1  6
  7  8  2  0
  7  5  1  0
  9 10  1  0
 10 12  1  0
 11 10  2  0
 12 13  1  0
 13 14  1  0
 14 15  1  0
 16 15  1  6
 16 17  1  0
 17  7  1  0
 18 16  1  0
 19 18  2  0
 20 18  1  0
 21 22  1  6
 21 20  1  0
 22 23  1  0
 23 31  1  0
 24 23  2  0
 24 25  1  0
 25 26  1  0
 26 27  1  0
 27 28  2  0
 29 28  1  0
 30 29  2  0
 31 26  2  0
 31 30  1  0
 32 34  1  0
 32 21  1  0
 33 32  2  0
M  END
$$$$
