NRW.pdb
     RDKit          3D

 34 35  0  0  1  0  0  0  0  0999 V2000
    6.5864  -21.8555   25.9538 N   0  0  0  0  0  0  0  0  0  0  0  0
    6.2005  -20.6664   25.2825 C   0  0  0  0  0  0  0  0  0  0  0  0
    4.9911  -20.3641   25.2095 O   0  0  0  0  0  0  0  0  0  0  0  0
    7.2032  -19.7833   24.6708 C   0  0  0  0  0  0  0  0  0  0  0  0
    6.9336  -19.6086   23.1888 C   0  0  2  0  0  0  0  0  0  0  0  0
    6.8711  -20.8843   22.5132 N   0  0  0  0  0  0  0  0  0  0  0  0
    7.9008  -18.6888   22.5613 C   0  0  0  0  0  0  0  0  0  0  0  0
    8.9931  -19.0657   22.0519 O   0  0  0  0  0  0  0  0  0  0  0  0
    8.3934  -14.7899   16.8840 N   0  0  0  0  0  0  0  0  0  0  0  0
    7.9797  -13.6564   17.6243 C   0  0  0  0  0  0  0  0  0  0  0  0
    8.1400  -12.4473   17.1406 N   0  0  0  0  0  0  0  0  0  0  0  0
    7.3798  -13.7503   18.9066 N   0  0  0  0  0  0  0  0  0  0  0  0
    7.9567  -13.1045   20.0652 C   0  0  0  0  0  0  0  0  0  0  0  0
    8.6708  -14.1662   20.8672 C   0  0  0  0  0  0  0  0  0  0  0  0
    7.7095  -15.2178   21.3947 C   0  0  0  0  0  0  0  0  0  0  0  0
    8.5083  -16.2858   22.0452 C   0  0  2  0  0  0  0  0  0  0  0  0
    7.5953  -17.3175   22.5256 N   0  0  0  0  0  0  0  0  0  0  0  0
    9.4555  -15.8553   23.0577 C   0  0  0  0  0  0  0  0  0  0  0  0
   10.4076  -15.1215   22.7217 O   0  0  0  0  0  0  0  0  0  0  0  0
    7.9792  -11.5916   17.6714 N   0  0  0  0  0  0  0  0  0  0  0  0
    9.3226  -16.2458   24.4005 C   0  0  1  0  0  0  0  0  0  0  0  0
   10.3374  -16.0891   25.4070 C   0  0  0  0  0  0  0  0  0  0  0  0
    9.7508  -15.2916   26.5497 C   0  0  0  0  0  0  0  0  0  0  0  0
    8.3062  -15.0220   26.3483 C   0  0  0  0  0  0  0  0  0  0  0  0
    7.3307  -15.9813   26.1843 N   0  0  0  0  0  0  0  0  0  0  0  0
    6.1666  -15.3200   26.0343 C   0  0  0  0  0  0  0  0  0  0  0  0
    6.3956  -13.9860   26.1008 C   0  0  0  0  0  0  0  0  0  0  0  0
    5.5548  -12.8978   26.0077 C   0  0  0  0  0  0  0  0  0  0  0  0
    6.0587  -11.6211   26.1119 C   0  0  0  0  0  0  0  0  0  0  0  0
    7.4092  -11.4093   26.3106 C   0  0  0  0  0  0  0  0  0  0  0  0
    8.2615  -12.4817   26.4059 C   0  0  0  0  0  0  0  0  0  0  0  0
    7.7557  -13.7579   26.3014 C   0  0  0  0  0  0  0  0  0  0  0  0
   10.9207  -17.3838   25.8700 O   0  0  0  0  0  0  0  0  0  0  0  0
   10.3595  -18.4453   25.5119 O   0  0  0  0  0  0  0  0  0  0  0  0
  2  1  1  0
  2  4  1  0
  3  2  2  0
  5  4  1  0
  5  6  1  6
  7  8  2  0
  7  5  1  0
  9 10  1  0
 10 12  1  0
 11 10  2  0
 12 13  1  0
 13 14  1  0
 14 15  1  0
 16 15  1  1
 16 17  1  0
 17  7  1  0
 18 16  1  0
 19 18  2  0
 20 18  1  0
 21 22  1  1
 21 20  1  0
 22 23  1  0
 23 31  1  0
 24 23  2  0
 24 25  1  0
 25 26  1  0
 26 27  1  0
 27 28  2  0
 29 28  1  0
 30 29  2  0
 31 26  2  0
 31 30  1  0
 32 34  1  0
 32 21  1  0
 33 32  2  0
M  END
$$$$
