NRW.pdb
     RDKit          3D

 34 35  0  0  1  0  0  0  0  0999 V2000
    8.3911  -11.8884   17.7059 N   0  0  0  0  0  0  0  0  0  0  0  0
    7.8300  -13.1774   17.5127 C   0  0  0  0  0  0  0  0  0  0  0  0
    7.4818  -13.5331   16.3676 O   0  0  0  0  0  0  0  0  0  0  0  0
    7.6520  -14.1020   18.6409 C   0  0  0  0  0  0  0  0  0  0  0  0
    8.8274  -15.0543   18.7465 C   0  0  2  0  0  0  0  0  0  0  0  0
    8.9944  -15.8180   17.5313 N   0  0  0  0  0  0  0  0  0  0  0  0
    8.7290  -15.9149   19.9402 C   0  0  0  0  0  0  0  0  0  0  0  0
    7.6462  -16.1439   20.5484 O   0  0  0  0  0  0  0  0  0  0  0  0
   14.3523  -19.9314   22.9318 N   0  0  0  0  0  0  0  0  0  0  0  0
   13.6782  -21.0998   22.5024 C   0  0  0  0  0  0  0  0  0  0  0  0
   14.3136  -22.0277   21.8264 N   0  0  0  0  0  0  0  0  0  0  0  0
   12.3050  -21.3388   22.7675 N   0  0  0  0  0  0  0  0  0  0  0  0
   11.2745  -20.9888   21.8148 C   0  0  0  0  0  0  0  0  0  0  0  0
   10.6911  -19.6639   22.2445 C   0  0  0  0  0  0  0  0  0  0  0  0
   10.7594  -18.6296   21.1339 C   0  0  0  0  0  0  0  0  0  0  0  0
    9.9338  -17.4651   21.5388 C   0  0  2  0  0  0  0  0  0  0  0  0
    9.9008  -16.5152   20.4318 N   0  0  0  0  0  0  0  0  0  0  0  0
   10.2752  -16.8430   22.8054 C   0  0  0  0  0  0  0  0  0  0  0  0
   11.3200  -16.1646   22.8834 O   0  0  0  0  0  0  0  0  0  0  0  0
   13.8629  -22.8391   21.4040 N   0  0  0  0  0  0  0  0  0  0  0  0
    9.4577  -16.9884   23.9385 C   0  0  2  0  0  0  0  0  0  0  0  0
    9.7779  -16.4988   25.2519 C   0  0  0  0  0  0  0  0  0  0  0  0
    8.4869  -16.3237   26.0190 C   0  0  0  0  0  0  0  0  0  0  0  0
    7.6480  -15.2433   25.4454 C   0  0  0  0  0  0  0  0  0  0  0  0
    6.9886  -15.3013   24.2369 N   0  0  0  0  0  0  0  0  0  0  0  0
    6.3478  -14.1248   24.0950 C   0  0  0  0  0  0  0  0  0  0  0  0
    6.5924  -13.3463   25.1768 C   0  0  0  0  0  0  0  0  0  0  0  0
    6.1792  -12.0752   25.5138 C   0  0  0  0  0  0  0  0  0  0  0  0
    6.5833  -11.5063   26.7002 C   0  0  0  0  0  0  0  0  0  0  0  0
    7.4059  -12.1959   27.5697 C   0  0  0  0  0  0  0  0  0  0  0  0
    7.8271  -13.4632   27.2504 C   0  0  0  0  0  0  0  0  0  0  0  0
    7.4221  -14.0306   26.0632 C   0  0  0  0  0  0  0  0  0  0  0  0
   10.7524  -17.3603   25.9864 O   0  0  0  0  0  0  0  0  0  0  0  0
   11.0148  -18.4902   25.5128 O   0  0  0  0  0  0  0  0  0  0  0  0
  2  1  1  0
  2  4  1  0
  3  2  2  0
  5  4  1  0
  5  6  1  6
  7  8  2  0
  7  5  1  0
  9 10  1  0
 10 12  1  0
 11 10  2  0
 12 13  1  0
 13 14  1  0
 14 15  1  0
 16 15  1  6
 16 17  1  0
 17  7  1  0
 18 16  1  0
 19 18  2  0
 20 18  1  0
 21 22  1  1
 21 20  1  0
 22 23  1  0
 23 31  1  0
 24 23  2  0
 24 25  1  0
 25 26  1  0
 26 27  1  0
 27 28  2  0
 29 28  1  0
 30 29  2  0
 31 26  2  0
 31 30  1  0
 32 34  1  0
 32 21  1  0
 33 32  2  0
M  END
$$$$
