NRW.pdb
     RDKit          3D

 34 35  0  0  1  0  0  0  0  0999 V2000
    8.2487  -14.8884   15.8791 N   0  0  0  0  0  0  0  0  0  0  0  0
    7.7580  -14.2442   17.0444 C   0  0  0  0  0  0  0  0  0  0  0  0
    7.6238  -13.0028   17.0527 O   0  0  0  0  0  0  0  0  0  0  0  0
    7.4046  -15.0163   18.2437 C   0  0  0  0  0  0  0  0  0  0  0  0
    8.3197  -14.6628   19.4001 C   0  0  2  0  0  0  0  0  0  0  0  0
    9.2508  -13.6208   19.0324 N   0  0  0  0  0  0  0  0  0  0  0  0
    8.9979  -15.8537   19.9451 C   0  0  0  0  0  0  0  0  0  0  0  0
    8.3919  -16.9089   20.2826 O   0  0  0  0  0  0  0  0  0  0  0  0
   13.8523  -13.5799   19.0098 N   0  0  0  0  0  0  0  0  0  0  0  0
   14.5106  -14.2031   17.9225 C   0  0  0  0  0  0  0  0  0  0  0  0
   15.6209  -13.7004   17.4365 N   0  0  0  0  0  0  0  0  0  0  0  0
   14.0254  -15.3828   17.3014 N   0  0  0  0  0  0  0  0  0  0  0  0
   13.7540  -16.5846   18.0591 C   0  0  0  0  0  0  0  0  0  0  0  0
   12.4561  -16.3697   18.8004 C   0  0  0  0  0  0  0  0  0  0  0  0
   12.5355  -16.8654   20.2342 C   0  0  0  0  0  0  0  0  0  0  0  0
   11.1679  -16.8310   20.8089 C   0  0  2  0  0  0  0  0  0  0  0  0
   10.3943  -15.8175   20.0995 N   0  0  0  0  0  0  0  0  0  0  0  0
   11.0790  -16.7003   22.2521 C   0  0  0  0  0  0  0  0  0  0  0  0
   11.9347  -16.0169   22.8509 O   0  0  0  0  0  0  0  0  0  0  0  0
   16.1480  -14.1125   16.6669 N   0  0  0  0  0  0  0  0  0  0  0  0
   10.0549  -17.3241   22.9839 C   0  0  1  0  0  0  0  0  0  0  0  0
    9.5688  -16.8790   24.2617 C   0  0  0  0  0  0  0  0  0  0  0  0
    9.3550  -15.3840   24.1917 C   0  0  0  0  0  0  0  0  0  0  0  0
    8.5582  -14.8875   25.3400 C   0  0  0  0  0  0  0  0  0  0  0  0
    8.2355  -15.6182   26.4628 N   0  0  0  0  0  0  0  0  0  0  0  0
    7.5108  -14.8028   27.2534 C   0  0  0  0  0  0  0  0  0  0  0  0
    7.3780  -13.5955   26.6526 C   0  0  0  0  0  0  0  0  0  0  0  0
    6.7394  -12.4363   27.0379 C   0  0  0  0  0  0  0  0  0  0  0  0
    6.7589  -11.3292   26.2202 C   0  0  0  0  0  0  0  0  0  0  0  0
    7.4155  -11.3605   25.0052 C   0  0  0  0  0  0  0  0  0  0  0  0
    8.0571  -12.5068   24.6054 C   0  0  0  0  0  0  0  0  0  0  0  0
    8.0365  -13.6131   25.4245 C   0  0  0  0  0  0  0  0  0  0  0  0
    8.3410  -17.5991   24.7144 O   0  0  0  0  0  0  0  0  0  0  0  0
    8.0055  -17.4949   25.9171 O   0  0  0  0  0  0  0  0  0  0  0  0
  2  1  1  0
  2  4  1  0
  3  2  2  0
  5  4  1  0
  5  6  1  6
  7  8  2  0
  7  5  1  0
  9 10  1  0
 10 12  1  0
 11 10  2  0
 12 13  1  0
 13 14  1  0
 14 15  1  0
 16 15  1  6
 16 17  1  0
 17  7  1  0
 18 16  1  0
 19 18  2  0
 20 18  1  0
 21 22  1  1
 21 20  1  0
 22 23  1  0
 23 31  1  0
 24 23  2  0
 24 25  1  0
 25 26  1  0
 26 27  1  0
 27 28  2  0
 29 28  1  0
 30 29  2  0
 31 26  2  0
 31 30  1  0
 32 34  1  0
 32 21  1  0
 33 32  2  0
M  END
$$$$
