TRF.pdb
     RDKit          3D

 30 30  0  0  1  0  0  0  0  0999 V2000
   27.6808  -16.2148  -16.4390 C   0  0  0  0  0  0  0  0  0  0  0  0
   27.0808  -17.3778  -15.6792 C   0  0  1  0  0  0  0  0  0  0  0  0
   25.8276  -17.6130  -16.2434 O   0  0  0  0  0  0  0  0  0  0  0  0
   27.9413  -18.6007  -15.7559 C   0  0  2  0  0  0  0  0  0  0  0  0
   28.0963  -18.9411  -17.1493 N   0  0  0  0  0  0  0  0  0  0  0  0
   27.3768  -19.7378  -14.9686 C   0  0  0  0  0  0  0  0  0  0  0  0
   26.5643  -20.5032  -15.5405 O   0  0  0  0  0  0  0  0  0  0  0  0
   32.1979  -23.1199   -9.7764 N   0  0  0  0  0  0  0  0  0  0  0  0
   31.3432  -22.3159   -8.9747 C   0  0  0  0  0  0  0  0  0  0  0  0
   31.6294  -22.1101   -7.7256 N   0  0  0  0  0  0  0  0  0  0  0  0
   30.1885  -21.7590   -9.5846 N   0  0  0  0  0  0  0  0  0  0  0  0
   29.8899  -22.0497  -10.9621 C   0  0  0  0  0  0  0  0  0  0  0  0
   28.3690  -22.1538  -11.0710 C   0  0  0  0  0  0  0  0  0  0  0  0
   27.7614  -20.8029  -11.2766 C   0  0  0  0  0  0  0  0  0  0  0  0
   27.0211  -20.6860  -12.6241 C   0  0  2  0  0  0  0  0  0  0  0  0
   27.7227  -19.9758  -13.6222 N   0  0  0  0  0  0  0  0  0  0  0  0
   25.6365  -20.3652  -12.3751 C   0  0  0  0  0  0  0  0  0  0  0  0
   25.4096  -19.2337  -11.8225 O   0  0  0  0  0  0  0  0  0  0  0  0
   31.0684  -21.4853   -7.1188 N   0  0  0  0  0  0  0  0  0  0  0  0
   24.5146  -21.1536  -12.6704 C   0  0  1  0  0  0  0  0  0  0  0  0
   23.1656  -20.6133  -12.6267 C   0  0  0  0  0  0  0  0  0  0  0  0
   23.1614  -19.4000  -13.5034 C   0  0  0  0  0  0  0  0  0  0  0  0
   21.8500  -18.7424  -13.6467 C   0  0  0  0  0  0  0  0  0  0  0  0
   20.9679  -18.5482  -12.6254 C   0  0  0  0  0  0  0  0  0  0  0  0
   19.7747  -17.9138  -12.8865 C   0  0  0  0  0  0  0  0  0  0  0  0
   19.4066  -17.4540  -14.1334 C   0  0  0  0  0  0  0  0  0  0  0  0
   20.3065  -17.6557  -15.1587 C   0  0  0  0  0  0  0  0  0  0  0  0
   21.5030  -18.2892  -14.9091 C   0  0  0  0  0  0  0  0  0  0  0  0
   22.1703  -21.6003  -13.0459 O   0  0  0  0  0  0  0  0  0  0  0  0
   22.4786  -22.5087  -13.8829 O   0  0  0  0  0  0  0  0  0  0  0  0
  2  1  1  6
  2  3  1  0
  4  2  1  0
  4  5  1  6
  6  7  2  0
  6  4  1  0
  9  8  1  0
 10  9  2  0
 11  9  1  0
 12 11  1  0
 13 12  1  0
 13 14  1  0
 15 14  1  1
 15 16  1  0
 16  6  1  0
 17 19  1  0
 17 15  1  0
 18 17  2  0
 20 19  1  0
 20 28  1  0
 21 22  1  0
 20 21  1  1
 22 23  2  0
 23 24  1  0
 25 24  2  0
 26 25  1  0
 27 22  1  0
 27 26  2  0
 28 30  1  0
 29 28  2  0
M  END
$$$$
