TRF.pdb
     RDKit          3D

 30 30  0  0  1  0  0  0  0  0999 V2000
   29.1115  -21.7022  -17.1295 C   0  0  0  0  0  0  0  0  0  0  0  0
   27.8060  -21.4093  -16.4226 C   0  0  1  0  0  0  0  0  0  0  0  0
   26.9681  -20.8215  -17.3693 O   0  0  0  0  0  0  0  0  0  0  0  0
   27.1867  -22.6483  -15.8541 C   0  0  2  0  0  0  0  0  0  0  0  0
   26.9205  -23.5480  -16.9501 N   0  0  0  0  0  0  0  0  0  0  0  0
   25.9504  -22.3520  -15.0697 C   0  0  0  0  0  0  0  0  0  0  0  0
   24.8451  -22.6645  -15.5733 O   0  0  0  0  0  0  0  0  0  0  0  0
   22.6932  -22.2995   -8.3577 N   0  0  0  0  0  0  0  0  0  0  0  0
   22.3823  -20.9334   -8.1199 C   0  0  0  0  0  0  0  0  0  0  0  0
   21.2792  -20.6146   -7.5150 N   0  0  0  0  0  0  0  0  0  0  0  0
   23.3094  -19.9533   -8.5619 N   0  0  0  0  0  0  0  0  0  0  0  0
   24.5005  -20.3527   -9.2640 C   0  0  0  0  0  0  0  0  0  0  0  0
   24.1073  -20.5377  -10.7293 C   0  0  0  0  0  0  0  0  0  0  0  0
   25.2906  -20.9520  -11.5445 C   0  0  0  0  0  0  0  0  0  0  0  0
   24.9270  -21.2289  -13.0170 C   0  0  2  0  0  0  0  0  0  0  0  0
   25.9848  -21.7411  -13.7990 N   0  0  0  0  0  0  0  0  0  0  0  0
   24.1470  -20.1265  -13.5254 C   0  0  0  0  0  0  0  0  0  0  0  0
   24.7905  -19.0512  -13.7837 O   0  0  0  0  0  0  0  0  0  0  0  0
   21.0297  -19.6357   -7.2857 N   0  0  0  0  0  0  0  0  0  0  0  0
   22.7655  -20.1024  -13.7669 C   0  0  2  0  0  0  0  0  0  0  0  0
   22.1499  -19.0759  -14.5921 C   0  0  0  0  0  0  0  0  0  0  0  0
   22.8649  -19.0973  -15.9070 C   0  0  0  0  0  0  0  0  0  0  0  0
   22.3295  -18.1698  -16.9199 C   0  0  0  0  0  0  0  0  0  0  0  0
   23.0370  -17.6981  -17.9856 C   0  0  0  0  0  0  0  0  0  0  0  0
   22.4211  -16.8392  -18.8673 C   0  0  0  0  0  0  0  0  0  0  0  0
   21.1142  -16.4174  -18.7417 C   0  0  0  0  0  0  0  0  0  0  0  0
   20.4083  -16.9008  -17.6602 C   0  0  0  0  0  0  0  0  0  0  0  0
   21.0142  -17.7605  -16.7719 C   0  0  0  0  0  0  0  0  0  0  0  0
   20.7105  -19.2901  -14.7434 O   0  0  0  0  0  0  0  0  0  0  0  0
   20.0127  -18.4930  -15.4496 O   0  0  0  0  0  0  0  0  0  0  0  0
  2  1  1  6
  2  3  1  0
  4  2  1  0
  4  5  1  6
  6  7  2  0
  6  4  1  0
  9  8  1  0
 10  9  2  0
 11  9  1  0
 12 11  1  0
 13 12  1  0
 13 14  1  0
 15 14  1  1
 15 16  1  0
 16  6  1  0
 17 19  1  0
 17 15  1  0
 18 17  2  0
 20 19  1  0
 20 28  1  0
 21 22  1  0
 20 21  1  6
 22 23  2  0
 23 24  1  0
 25 24  2  0
 26 25  1  0
 27 22  1  0
 27 26  2  0
 28 30  1  0
 29 28  2  0
M  END
$$$$
