TRF.pdb
     RDKit          3D

 30 30  0  0  1  0  0  0  0  0999 V2000
   23.5372  -31.0819  -16.8509 C   0  0  0  0  0  0  0  0  0  0  0  0
   23.1071  -32.0815  -15.7994 C   0  0  1  0  0  0  0  0  0  0  0  0
   22.3230  -33.0302  -16.4545 O   0  0  0  0  0  0  0  0  0  0  0  0
   24.2792  -32.7266  -15.1272 C   0  0  2  0  0  0  0  0  0  0  0  0
   25.0862  -33.3449  -16.1509 N   0  0  0  0  0  0  0  0  0  0  0  0
   23.8601  -33.7107  -14.0844 C   0  0  0  0  0  0  0  0  0  0  0  0
   23.5679  -34.8725  -14.4556 O   0  0  0  0  0  0  0  0  0  0  0  0
   25.7130  -33.3766   -7.0444 N   0  0  0  0  0  0  0  0  0  0  0  0
   26.2725  -32.4464   -7.9617 C   0  0  0  0  0  0  0  0  0  0  0  0
   27.5594  -32.2899   -8.0235 N   0  0  0  0  0  0  0  0  0  0  0  0
   25.3837  -31.7119   -8.7899 N   0  0  0  0  0  0  0  0  0  0  0  0
   23.9618  -31.8214   -8.5963 C   0  0  0  0  0  0  0  0  0  0  0  0
   23.3705  -32.2881   -9.9261 C   0  0  0  0  0  0  0  0  0  0  0  0
   23.8229  -33.6771  -10.2459 C   0  0  0  0  0  0  0  0  0  0  0  0
   23.3307  -34.1567  -11.6262 C   0  0  2  0  0  0  0  0  0  0  0  0
   23.7832  -33.3810  -12.7153 N   0  0  0  0  0  0  0  0  0  0  0  0
   21.9304  -34.4931  -11.5366 C   0  0  0  0  0  0  0  0  0  0  0  0
   21.1563  -33.9169  -12.3768 O   0  0  0  0  0  0  0  0  0  0  0  0
   28.0216  -31.7499   -8.7772 N   0  0  0  0  0  0  0  0  0  0  0  0
   21.3248  -35.3788  -10.6331 C   0  0  1  0  0  0  0  0  0  0  0  0
   19.8955  -35.6428  -10.6606 C   0  0  0  0  0  0  0  0  0  0  0  0
   19.5769  -36.1334  -12.0385 C   0  0  0  0  0  0  0  0  0  0  0  0
   18.1783  -36.5531  -12.2400 C   0  0  0  0  0  0  0  0  0  0  0  0
   17.1602  -35.7109  -12.5759 C   0  0  0  0  0  0  0  0  0  0  0  0
   15.8951  -36.2271  -12.7421 C   0  0  0  0  0  0  0  0  0  0  0  0
   15.5845  -37.5619  -12.5887 C   0  0  0  0  0  0  0  0  0  0  0  0
   16.6221  -38.4045  -12.2490 C   0  0  0  0  0  0  0  0  0  0  0  0
   17.8915  -37.8991  -12.0803 C   0  0  0  0  0  0  0  0  0  0  0  0
   19.4991  -36.6012   -9.6286 O   0  0  0  0  0  0  0  0  0  0  0  0
   20.3708  -37.3433   -9.0716 O   0  0  0  0  0  0  0  0  0  0  0  0
  2  1  1  6
  2  3  1  0
  4  2  1  0
  4  5  1  6
  6  7  2  0
  6  4  1  0
  9  8  1  0
 10  9  2  0
 11  9  1  0
 12 11  1  0
 13 12  1  0
 13 14  1  0
 15 14  1  1
 15 16  1  0
 16  6  1  0
 17 19  1  0
 17 15  1  0
 18 17  2  0
 20 19  1  0
 20 28  1  0
 21 22  1  0
 20 21  1  6
 22 23  2  0
 23 24  1  0
 25 24  2  0
 26 25  1  0
 27 22  1  0
 27 26  2  0
 28 30  1  0
 29 28  2  0
M  END
$$$$
