TRF.pdb
     RDKit          3D

 30 30  0  0  1  0  0  0  0  0999 V2000
   28.1139  -19.7084  -17.3103 C   0  0  0  0  0  0  0  0  0  0  0  0
   27.1230  -20.1425  -16.2521 C   0  0  1  0  0  0  0  0  0  0  0  0
   25.8595  -20.0530  -16.8347 O   0  0  0  0  0  0  0  0  0  0  0  0
   27.3933  -21.5337  -15.7690 C   0  0  2  0  0  0  0  0  0  0  0  0
   27.2538  -22.4241  -16.8956 N   0  0  0  0  0  0  0  0  0  0  0  0
   26.4941  -21.9238  -14.6417 C   0  0  0  0  0  0  0  0  0  0  0  0
   25.4222  -22.5121  -14.9207 O   0  0  0  0  0  0  0  0  0  0  0  0
   28.6283  -19.9104   -6.9875 N   0  0  0  0  0  0  0  0  0  0  0  0
   27.4244  -19.1930   -7.2232 C   0  0  0  0  0  0  0  0  0  0  0  0
   27.2794  -17.9944   -6.7470 N   0  0  0  0  0  0  0  0  0  0  0  0
   26.4093  -19.8288   -7.9852 N   0  0  0  0  0  0  0  0  0  0  0  0
   26.5436  -21.2143   -8.3506 C   0  0  0  0  0  0  0  0  0  0  0  0
   25.7648  -21.4045   -9.6518 C   0  0  0  0  0  0  0  0  0  0  0  0
   26.6800  -21.3193  -10.8314 C   0  0  0  0  0  0  0  0  0  0  0  0
   25.9653  -21.6410  -12.1593 C   0  0  2  0  0  0  0  0  0  0  0  0
   26.8066  -21.6562  -13.2927 N   0  0  0  0  0  0  0  0  0  0  0  0
   24.7233  -20.9086  -12.2156 C   0  0  0  0  0  0  0  0  0  0  0  0
   24.8181  -19.6329  -12.1855 O   0  0  0  0  0  0  0  0  0  0  0  0
   26.4172  -17.4374   -6.8872 N   0  0  0  0  0  0  0  0  0  0  0  0
   23.4270  -21.4379  -12.2993 C   0  0  1  0  0  0  0  0  0  0  0  0
   22.3096  -20.6528  -12.7979 C   0  0  0  0  0  0  0  0  0  0  0  0
   22.6800  -20.2094  -14.1789 C   0  0  0  0  0  0  0  0  0  0  0  0
   21.6565  -19.4020  -14.8669 C   0  0  0  0  0  0  0  0  0  0  0  0
   21.5196  -18.0522  -14.7334 C   0  0  0  0  0  0  0  0  0  0  0  0
   20.5252  -17.4101  -15.4358 C   0  0  0  0  0  0  0  0  0  0  0  0
   19.6439  -18.0528  -16.2795 C   0  0  0  0  0  0  0  0  0  0  0  0
   19.7916  -19.4179  -16.4069 C   0  0  0  0  0  0  0  0  0  0  0  0
   20.7828  -20.0705  -15.7091 C   0  0  0  0  0  0  0  0  0  0  0  0
   21.0595  -21.4126  -12.7793 O   0  0  0  0  0  0  0  0  0  0  0  0
   21.0656  -22.6660  -13.0024 O   0  0  0  0  0  0  0  0  0  0  0  0
  2  1  1  6
  2  3  1  0
  4  2  1  0
  4  5  1  6
  6  7  2  0
  6  4  1  0
  9  8  1  0
 10  9  2  0
 11  9  1  0
 12 11  1  0
 13 12  1  0
 13 14  1  0
 15 14  1  1
 15 16  1  0
 16  6  1  0
 17 19  1  0
 17 15  1  0
 18 17  2  0
 20 19  1  0
 20 28  1  0
 21 22  1  0
 20 21  1  1
 22 23  2  0
 23 24  1  0
 25 24  2  0
 26 25  1  0
 27 22  1  0
 27 26  2  0
 28 30  1  0
 29 28  2  0
M  END
$$$$
