TRF.pdb
     RDKit          3D

 30 30  0  0  1  0  0  0  0  0999 V2000
   29.2543  -18.7773  -13.4889 C   0  0  0  0  0  0  0  0  0  0  0  0
   28.4665  -18.5037  -14.7516 C   0  0  1  0  0  0  0  0  0  0  0  0
   29.3961  -18.4295  -15.7880 O   0  0  0  0  0  0  0  0  0  0  0  0
   27.4493  -19.5694  -15.0190 C   0  0  2  0  0  0  0  0  0  0  0  0
   26.8405  -19.2841  -16.2955 N   0  0  0  0  0  0  0  0  0  0  0  0
   26.4313  -19.6634  -13.9299 C   0  0  0  0  0  0  0  0  0  0  0  0
   25.4927  -18.8315  -13.9285 O   0  0  0  0  0  0  0  0  0  0  0  0
   24.6443  -24.6906  -14.2096 N   0  0  0  0  0  0  0  0  0  0  0  0
   23.8943  -24.2156  -15.3193 C   0  0  0  0  0  0  0  0  0  0  0  0
   24.1241  -24.6856  -16.5070 N   0  0  0  0  0  0  0  0  0  0  0  0
   22.9043  -23.2268  -15.0790 N   0  0  0  0  0  0  0  0  0  0  0  0
   22.7364  -22.6813  -13.7578 C   0  0  0  0  0  0  0  0  0  0  0  0
   23.8986  -21.7156  -13.5286 C   0  0  0  0  0  0  0  0  0  0  0  0
   24.4850  -21.9099  -12.1668 C   0  0  0  0  0  0  0  0  0  0  0  0
   25.5985  -20.8911  -11.8511 C   0  0  2  0  0  0  0  0  0  0  0  0
   26.4899  -20.6433  -12.9172 N   0  0  0  0  0  0  0  0  0  0  0  0
   26.1314  -21.1667  -10.5389 C   0  0  0  0  0  0  0  0  0  0  0  0
   27.3290  -21.6153  -10.4985 O   0  0  0  0  0  0  0  0  0  0  0  0
   23.5262  -24.4612  -17.3227 N   0  0  0  0  0  0  0  0  0  0  0  0
   25.4845  -20.9982   -9.3057 C   0  0  1  0  0  0  0  0  0  0  0  0
   26.1947  -21.1283   -8.0439 C   0  0  0  0  0  0  0  0  0  0  0  0
   27.2338  -20.0509   -8.0241 C   0  0  0  0  0  0  0  0  0  0  0  0
   27.9433  -19.8965   -6.7413 C   0  0  0  0  0  0  0  0  0  0  0  0
   28.9873  -20.6749   -6.3378 C   0  0  0  0  0  0  0  0  0  0  0  0
   29.5715  -20.4261   -5.1166 C   0  0  0  0  0  0  0  0  0  0  0  0
   29.1637  -19.4251   -4.2603 C   0  0  0  0  0  0  0  0  0  0  0  0
   28.1070  -18.6441   -4.6787 C   0  0  0  0  0  0  0  0  0  0  0  0
   27.5150  -18.8838   -5.8983 C   0  0  0  0  0  0  0  0  0  0  0  0
   25.2888  -21.0421   -6.8982 O   0  0  0  0  0  0  0  0  0  0  0  0
   24.1333  -20.5241   -7.0299 O   0  0  0  0  0  0  0  0  0  0  0  0
  2  1  1  1
  2  3  1  0
  4  2  1  0
  4  5  1  6
  6  7  2  0
  6  4  1  0
  9  8  1  0
 10  9  2  0
 11  9  1  0
 12 11  1  0
 13 12  1  0
 13 14  1  0
 15 14  1  6
 15 16  1  0
 16  6  1  0
 17 19  1  0
 17 15  1  0
 18 17  2  0
 20 19  1  0
 20 28  1  0
 21 22  1  0
 20 21  1  1
 22 23  2  0
 23 24  1  0
 25 24  2  0
 26 25  1  0
 27 22  1  0
 27 26  2  0
 28 30  1  0
 29 28  2  0
M  END
$$$$
