TRF.pdb
     RDKit          3D

 30 30  0  0  1  0  0  0  0  0999 V2000
   28.9139  -16.6255  -16.9383 C   0  0  0  0  0  0  0  0  0  0  0  0
   28.2053  -17.6148  -16.0388 C   0  0  1  0  0  0  0  0  0  0  0  0
   28.6553  -17.3625  -14.7435 O   0  0  0  0  0  0  0  0  0  0  0  0
   26.7163  -17.4828  -16.1244 C   0  0  2  0  0  0  0  0  0  0  0  0
   26.3880  -16.0906  -15.9362 N   0  0  0  0  0  0  0  0  0  0  0  0
   26.0151  -18.3547  -15.1347 C   0  0  0  0  0  0  0  0  0  0  0  0
   25.5850  -17.8232  -14.0832 O   0  0  0  0  0  0  0  0  0  0  0  0
   22.9999  -26.1797  -13.1005 N   0  0  0  0  0  0  0  0  0  0  0  0
   22.0238  -25.4486  -13.8301 C   0  0  0  0  0  0  0  0  0  0  0  0
   20.7657  -25.5744  -13.5372 N   0  0  0  0  0  0  0  0  0  0  0  0
   22.4732  -24.5932  -14.8702 N   0  0  0  0  0  0  0  0  0  0  0  0
   23.8756  -24.3008  -15.0074 C   0  0  0  0  0  0  0  0  0  0  0  0
   24.1179  -22.9643  -14.3068 C   0  0  0  0  0  0  0  0  0  0  0  0
   24.8839  -22.0352  -15.1936 C   0  0  0  0  0  0  0  0  0  0  0  0
   25.2129  -20.6959  -14.5041 C   0  0  2  0  0  0  0  0  0  0  0  0
   25.8232  -19.7367  -15.3409 N   0  0  0  0  0  0  0  0  0  0  0  0
   25.7845  -20.9618  -13.2062 C   0  0  0  0  0  0  0  0  0  0  0  0
   27.0384  -21.2154  -13.1825 O   0  0  0  0  0  0  0  0  0  0  0  0
   20.0280  -24.9967  -13.9791 N   0  0  0  0  0  0  0  0  0  0  0  0
   25.1203  -20.9734  -11.9708 C   0  0  2  0  0  0  0  0  0  0  0  0
   25.8348  -21.1602  -10.7186 C   0  0  0  0  0  0  0  0  0  0  0  0
   26.8260  -20.0428  -10.6199 C   0  0  0  0  0  0  0  0  0  0  0  0
   27.5635  -19.9780   -9.3453 C   0  0  0  0  0  0  0  0  0  0  0  0
   28.7158  -20.6585   -9.0847 C   0  0  0  0  0  0  0  0  0  0  0  0
   29.3144  -20.5093   -7.8542 C   0  0  0  0  0  0  0  0  0  0  0  0
   28.8173  -19.7038   -6.8514 C   0  0  0  0  0  0  0  0  0  0  0  0
   27.6515  -19.0203   -7.1262 C   0  0  0  0  0  0  0  0  0  0  0  0
   27.0441  -19.1619   -8.3535 C   0  0  0  0  0  0  0  0  0  0  0  0
   24.9255  -21.1937   -9.5729 O   0  0  0  0  0  0  0  0  0  0  0  0
   23.8006  -20.6001   -9.6274 O   0  0  0  0  0  0  0  0  0  0  0  0
  2  1  1  6
  2  3  1  0
  4  2  1  0
  4  5  1  1
  6  7  2  0
  6  4  1  0
  9  8  1  0
 10  9  2  0
 11  9  1  0
 12 11  1  0
 13 12  1  0
 13 14  1  0
 15 14  1  6
 15 16  1  0
 16  6  1  0
 17 19  1  0
 17 15  1  0
 18 17  2  0
 20 19  1  0
 20 28  1  0
 21 22  1  0
 20 21  1  6
 22 23  2  0
 23 24  1  0
 25 24  2  0
 26 25  1  0
 27 22  1  0
 27 26  2  0
 28 30  1  0
 29 28  2  0
M  END
$$$$
