TRF.pdb
     RDKit          3D

 30 30  0  0  1  0  0  0  0  0999 V2000
   31.5574  -25.5307  -15.1752 C   0  0  0  0  0  0  0  0  0  0  0  0
   32.1761  -24.6407  -16.2312 C   0  0  1  0  0  0  0  0  0  0  0  0
   33.3194  -24.0853  -15.6582 O   0  0  0  0  0  0  0  0  0  0  0  0
   32.5153  -25.4009  -17.4757 C   0  0  2  0  0  0  0  0  0  0  0  0
   33.1351  -24.4798  -18.3970 N   0  0  0  0  0  0  0  0  0  0  0  0
   31.3181  -26.0620  -18.0767 C   0  0  0  0  0  0  0  0  0  0  0  0
   30.5499  -25.3619  -18.7786 O   0  0  0  0  0  0  0  0  0  0  0  0
   31.9048  -30.9314  -21.6133 N   0  0  0  0  0  0  0  0  0  0  0  0
   32.9165  -31.5443  -20.8256 C   0  0  0  0  0  0  0  0  0  0  0  0
   34.1241  -31.6511  -21.2888 N   0  0  0  0  0  0  0  0  0  0  0  0
   32.5583  -32.0240  -19.5383 N   0  0  0  0  0  0  0  0  0  0  0  0
   31.2730  -31.6972  -18.9795 C   0  0  0  0  0  0  0  0  0  0  0  0
   31.1147  -30.1814  -19.0947 C   0  0  0  0  0  0  0  0  0  0  0  0
   30.0394  -29.6922  -18.1778 C   0  0  0  0  0  0  0  0  0  0  0  0
   29.8705  -28.1604  -18.2280 C   0  0  2  0  0  0  0  0  0  0  0  0
   31.0273  -27.4284  -17.8835 N   0  0  0  0  0  0  0  0  0  0  0  0
   28.6085  -27.8053  -17.6253 C   0  0  0  0  0  0  0  0  0  0  0  0
   28.5170  -27.9812  -16.3613 O   0  0  0  0  0  0  0  0  0  0  0  0
   34.8884  -32.1069  -20.7584 N   0  0  0  0  0  0  0  0  0  0  0  0
   27.4737  -27.2902  -18.2691 C   0  0  1  0  0  0  0  0  0  0  0  0
   26.3175  -26.8198  -17.5240 C   0  0  0  0  0  0  0  0  0  0  0  0
   26.8067  -25.7386  -16.6116 C   0  0  0  0  0  0  0  0  0  0  0  0
   25.7492  -25.0176  -15.8805 C   0  0  0  0  0  0  0  0  0  0  0  0
   25.2852  -23.7801  -16.2153 C   0  0  0  0  0  0  0  0  0  0  0  0
   24.2874  -23.2139  -15.4548 C   0  0  0  0  0  0  0  0  0  0  0  0
   23.7167  -23.8259  -14.3587 C   0  0  0  0  0  0  0  0  0  0  0  0
   24.1936  -25.0772  -14.0294 C   0  0  0  0  0  0  0  0  0  0  0  0
   25.1915  -25.6532  -14.7830 C   0  0  0  0  0  0  0  0  0  0  0  0
   25.2517  -26.3527  -18.4108 O   0  0  0  0  0  0  0  0  0  0  0  0
   24.0443  -26.3285  -18.0077 O   0  0  0  0  0  0  0  0  0  0  0  0
  2  1  1  1
  2  3  1  0
  4  2  1  0
  4  5  1  6
  6  7  2  0
  6  4  1  0
  9  8  1  0
 10  9  2  0
 11  9  1  0
 12 11  1  0
 13 12  1  0
 13 14  1  0
 15 14  1  1
 15 16  1  0
 16  6  1  0
 17 19  1  0
 17 15  1  0
 18 17  2  0
 20 19  1  0
 20 28  1  0
 21 22  1  0
 20 21  1  1
 22 23  2  0
 23 24  1  0
 25 24  2  0
 26 25  1  0
 27 22  1  0
 27 26  2  0
 28 30  1  0
 29 28  2  0
M  END
$$$$
