TRF.pdb
     RDKit          3D

 30 30  0  0  1  0  0  0  0  0999 V2000
   24.8503  -15.9775  -15.2654 C   0  0  0  0  0  0  0  0  0  0  0  0
   25.2209  -17.1771  -14.4206 C   0  0  1  0  0  0  0  0  0  0  0  0
   24.2340  -17.2903  -13.4422 O   0  0  0  0  0  0  0  0  0  0  0  0
   25.3134  -18.4293  -15.2362 C   0  0  2  0  0  0  0  0  0  0  0  0
   24.0566  -18.5987  -15.9240 N   0  0  0  0  0  0  0  0  0  0  0  0
   25.6522  -19.6216  -14.4024 C   0  0  0  0  0  0  0  0  0  0  0  0
   24.7079  -20.3256  -13.9715 O   0  0  0  0  0  0  0  0  0  0  0  0
   31.3015  -24.4457  -14.5315 N   0  0  0  0  0  0  0  0  0  0  0  0
   30.6495  -24.4442  -15.7942 C   0  0  0  0  0  0  0  0  0  0  0  0
   30.6255  -25.5242  -16.5134 N   0  0  0  0  0  0  0  0  0  0  0  0
   30.0385  -23.2378  -16.2262 N   0  0  0  0  0  0  0  0  0  0  0  0
   30.0293  -22.0856  -15.3638 C   0  0  0  0  0  0  0  0  0  0  0  0
   29.1732  -22.4495  -14.1511 C   0  0  0  0  0  0  0  0  0  0  0  0
   28.9567  -21.2531  -13.2804 C   0  0  0  0  0  0  0  0  0  0  0  0
   27.4651  -20.8929  -13.1299 C   0  0  2  0  0  0  0  0  0  0  0  0
   26.9805  -19.9768  -14.0884 N   0  0  0  0  0  0  0  0  0  0  0  0
   27.1721  -20.6710  -11.7345 C   0  0  0  0  0  0  0  0  0  0  0  0
   27.2824  -19.4659  -11.3190 O   0  0  0  0  0  0  0  0  0  0  0  0
   30.2048  -25.5570  -17.4596 N   0  0  0  0  0  0  0  0  0  0  0  0
   26.7812  -21.6269  -10.7853 C   0  0  1  0  0  0  0  0  0  0  0  0
   26.5249  -21.2700   -9.3995 C   0  0  0  0  0  0  0  0  0  0  0  0
   27.7613  -20.5932   -8.8956 C   0  0  0  0  0  0  0  0  0  0  0  0
   27.7411  -20.2510   -7.4619 C   0  0  0  0  0  0  0  0  0  0  0  0
   26.8234  -20.7196   -6.5692 C   0  0  0  0  0  0  0  0  0  0  0  0
   26.9152  -20.3301   -5.2522 C   0  0  0  0  0  0  0  0  0  0  0  0
   27.8902  -19.4833   -4.7684 C   0  0  0  0  0  0  0  0  0  0  0  0
   28.8129  -19.0156   -5.6802 C   0  0  0  0  0  0  0  0  0  0  0  0
   28.7309  -19.3986   -7.0000 C   0  0  0  0  0  0  0  0  0  0  0  0
   25.3392  -20.4233   -9.2660 O   0  0  0  0  0  0  0  0  0  0  0  0
   25.0417  -19.5854  -10.1772 O   0  0  0  0  0  0  0  0  0  0  0  0
  2  1  1  6
  2  3  1  0
  4  2  1  0
  4  5  1  1
  6  7  2  0
  6  4  1  0
  9  8  1  0
 10  9  2  0
 11  9  1  0
 12 11  1  0
 13 12  1  0
 13 14  1  0
 15 14  1  1
 15 16  1  0
 16  6  1  0
 17 19  1  0
 17 15  1  0
 18 17  2  0
 20 19  1  0
 20 28  1  0
 21 22  1  0
 20 21  1  1
 22 23  2  0
 23 24  1  0
 25 24  2  0
 26 25  1  0
 27 22  1  0
 27 26  2  0
 28 30  1  0
 29 28  2  0
M  END
$$$$
