TRF.pdb
     RDKit          3D

 30 30  0  0  1  0  0  0  0  0999 V2000
   29.6013  -16.7043  -16.7680 C   0  0  0  0  0  0  0  0  0  0  0  0
   28.5091  -17.4342  -16.0168 C   0  0  1  0  0  0  0  0  0  0  0  0
   27.5510  -16.4770  -15.6854 O   0  0  0  0  0  0  0  0  0  0  0  0
   27.9069  -18.5350  -16.8338 C   0  0  2  0  0  0  0  0  0  0  0  0
   27.4003  -17.9505  -18.0517 N   0  0  0  0  0  0  0  0  0  0  0  0
   26.8415  -19.2717  -16.0896 C   0  0  0  0  0  0  0  0  0  0  0  0
   25.6514  -18.9136  -16.2580 O   0  0  0  0  0  0  0  0  0  0  0  0
   23.0234  -26.1757  -13.2024 N   0  0  0  0  0  0  0  0  0  0  0  0
   22.3623  -25.3716  -14.1698 C   0  0  0  0  0  0  0  0  0  0  0  0
   21.0681  -25.2764  -14.1596 N   0  0  0  0  0  0  0  0  0  0  0  0
   23.1602  -24.6912  -15.1269 N   0  0  0  0  0  0  0  0  0  0  0  0
   24.5860  -24.6099  -14.9494 C   0  0  0  0  0  0  0  0  0  0  0  0
   24.8730  -23.2559  -14.3011 C   0  0  0  0  0  0  0  0  0  0  0  0
   25.8737  -22.4881  -15.1045 C   0  0  0  0  0  0  0  0  0  0  0  0
   26.2463  -21.1406  -14.4541 C   0  0  2  0  0  0  0  0  0  0  0  0
   27.1260  -20.3418  -15.2161 N   0  0  0  0  0  0  0  0  0  0  0  0
   26.5242  -21.3537  -13.0544 C   0  0  0  0  0  0  0  0  0  0  0  0
   27.6453  -21.9054  -12.7788 O   0  0  0  0  0  0  0  0  0  0  0  0
   20.5403  -24.7487  -14.8781 N   0  0  0  0  0  0  0  0  0  0  0  0
   25.7044  -21.0244  -11.9649 C   0  0  1  0  0  0  0  0  0  0  0  0
   26.1654  -21.1544  -10.5923 C   0  0  0  0  0  0  0  0  0  0  0  0
   27.2188  -20.1096  -10.3934 C   0  0  0  0  0  0  0  0  0  0  0  0
   27.6474  -19.9185   -8.9961 C   0  0  0  0  0  0  0  0  0  0  0  0
   27.0545  -19.0616   -8.1169 C   0  0  0  0  0  0  0  0  0  0  0  0
   27.5454  -18.9777   -6.8337 C   0  0  0  0  0  0  0  0  0  0  0  0
   28.6149  -19.7152   -6.3712 C   0  0  0  0  0  0  0  0  0  0  0  0
   29.2067  -20.5786   -7.2691 C   0  0  0  0  0  0  0  0  0  0  0  0
   28.7241  -20.6708   -8.5551 C   0  0  0  0  0  0  0  0  0  0  0  0
   25.0676  -21.0202   -9.6345 O   0  0  0  0  0  0  0  0  0  0  0  0
   24.0079  -20.3918   -9.9551 O   0  0  0  0  0  0  0  0  0  0  0  0
  2  1  1  6
  2  3  1  0
  4  2  1  0
  4  5  1  6
  6  7  2  0
  6  4  1  0
  9  8  1  0
 10  9  2  0
 11  9  1  0
 12 11  1  0
 13 12  1  0
 13 14  1  0
 15 14  1  6
 15 16  1  0
 16  6  1  0
 17 19  1  0
 17 15  1  0
 18 17  2  0
 20 19  1  0
 20 28  1  0
 21 22  1  0
 20 21  1  1
 22 23  2  0
 23 24  1  0
 25 24  2  0
 26 25  1  0
 27 22  1  0
 27 26  2  0
 28 30  1  0
 29 28  2  0
M  END
$$$$
