TRF.pdb
     RDKit          3D

 30 30  0  0  1  0  0  0  0  0999 V2000
   23.5309  -14.4391  -16.6820 C   0  0  0  0  0  0  0  0  0  0  0  0
   23.4642  -15.9474  -16.5797 C   0  0  1  0  0  0  0  0  0  0  0  0
   22.1358  -16.3001  -16.8136 O   0  0  0  0  0  0  0  0  0  0  0  0
   24.3771  -16.6161  -17.5602 C   0  0  2  0  0  0  0  0  0  0  0  0
   23.9092  -16.2927  -18.8861 N   0  0  0  0  0  0  0  0  0  0  0  0
   24.4515  -18.0925  -17.3452 C   0  0  0  0  0  0  0  0  0  0  0  0
   23.5753  -18.8102  -17.8838 O   0  0  0  0  0  0  0  0  0  0  0  0
   28.1787  -25.3436  -16.2838 N   0  0  0  0  0  0  0  0  0  0  0  0
   28.3959  -24.4448  -17.3630 C   0  0  0  0  0  0  0  0  0  0  0  0
   28.3916  -24.8840  -18.5842 N   0  0  0  0  0  0  0  0  0  0  0  0
   28.6128  -23.0759  -17.0555 N   0  0  0  0  0  0  0  0  0  0  0  0
   28.4157  -22.5991  -15.7120 C   0  0  0  0  0  0  0  0  0  0  0  0
   26.9937  -22.0429  -15.6458 C   0  0  0  0  0  0  0  0  0  0  0  0
   26.9730  -20.6000  -16.0384 C   0  0  0  0  0  0  0  0  0  0  0  0
   25.5463  -20.0162  -16.0714 C   0  0  2  0  0  0  0  0  0  0  0  0
   25.4606  -18.6974  -16.5675 N   0  0  0  0  0  0  0  0  0  0  0  0
   24.8722  -20.3490  -14.8398 C   0  0  0  0  0  0  0  0  0  0  0  0
   25.5658  -20.2428  -13.7698 O   0  0  0  0  0  0  0  0  0  0  0  0
   28.6152  -24.2809  -19.3963 N   0  0  0  0  0  0  0  0  0  0  0  0
   23.5448  -20.7752  -14.6853 C   0  0  1  0  0  0  0  0  0  0  0  0
   22.9871  -21.0862  -13.3792 C   0  0  0  0  0  0  0  0  0  0  0  0
   23.3699  -19.9599  -12.4706 C   0  0  0  0  0  0  0  0  0  0  0  0
   24.4465  -20.2728  -11.5136 C   0  0  0  0  0  0  0  0  0  0  0  0
   25.7648  -20.3833  -11.8435 C   0  0  0  0  0  0  0  0  0  0  0  0
   26.6773  -20.6744  -10.8551 C   0  0  0  0  0  0  0  0  0  0  0  0
   26.3406  -20.8648   -9.5314 C   0  0  0  0  0  0  0  0  0  0  0  0
   25.0045  -20.7507   -9.2093 C   0  0  0  0  0  0  0  0  0  0  0  0
   24.0830  -20.4598  -10.1898 C   0  0  0  0  0  0  0  0  0  0  0  0
   21.5380  -21.2792  -13.4381 O   0  0  0  0  0  0  0  0  0  0  0  0
   20.8873  -21.5876  -12.3882 O   0  0  0  0  0  0  0  0  0  0  0  0
  2  1  1  6
  2  3  1  0
  4  2  1  0
  4  5  1  6
  6  7  2  0
  6  4  1  0
  9  8  1  0
 10  9  2  0
 11  9  1  0
 12 11  1  0
 13 12  1  0
 13 14  1  0
 15 14  1  1
 15 16  1  0
 16  6  1  0
 17 19  1  0
 17 15  1  0
 18 17  2  0
 20 19  1  0
 20 28  1  0
 21 22  1  0
 20 21  1  1
 22 23  2  0
 23 24  1  0
 25 24  2  0
 26 25  1  0
 27 22  1  0
 27 26  2  0
 28 30  1  0
 29 28  2  0
M  END
$$$$
