TRF.pdb
     RDKit          3D

 30 30  0  0  1  0  0  0  0  0999 V2000
   27.8218  -19.4371  -17.8909 C   0  0  0  0  0  0  0  0  0  0  0  0
   26.9448  -19.8777  -16.7391 C   0  0  1  0  0  0  0  0  0  0  0  0
   25.6714  -20.0824  -17.2689 O   0  0  0  0  0  0  0  0  0  0  0  0
   27.4606  -21.1229  -16.0869 C   0  0  2  0  0  0  0  0  0  0  0  0
   27.4303  -22.1780  -17.0704 N   0  0  0  0  0  0  0  0  0  0  0  0
   26.6810  -21.4839  -14.8648 C   0  0  0  0  0  0  0  0  0  0  0  0
   25.6794  -22.2259  -15.0040 O   0  0  0  0  0  0  0  0  0  0  0  0
   27.9647  -19.5810   -6.1102 N   0  0  0  0  0  0  0  0  0  0  0  0
   26.7074  -20.2355   -6.2125 C   0  0  0  0  0  0  0  0  0  0  0  0
   26.0331  -20.5171   -5.1400 N   0  0  0  0  0  0  0  0  0  0  0  0
   26.2303  -20.5610   -7.5095 N   0  0  0  0  0  0  0  0  0  0  0  0
   27.0440  -20.2908   -8.6654 C   0  0  0  0  0  0  0  0  0  0  0  0
   26.2381  -20.7358   -9.8854 C   0  0  0  0  0  0  0  0  0  0  0  0
   27.0224  -20.5245  -11.1411 C   0  0  0  0  0  0  0  0  0  0  0  0
   26.2512  -20.9649  -12.4015 C   0  0  2  0  0  0  0  0  0  0  0  0
   27.0294  -21.0245  -13.5778 N   0  0  0  0  0  0  0  0  0  0  0  0
   24.9772  -20.2883  -12.4352 C   0  0  0  0  0  0  0  0  0  0  0  0
   25.0167  -19.0094  -12.4283 O   0  0  0  0  0  0  0  0  0  0  0  0
   25.1076  -20.9818   -5.1670 N   0  0  0  0  0  0  0  0  0  0  0  0
   23.7036  -20.8748  -12.4742 C   0  0  2  0  0  0  0  0  0  0  0  0
   22.4903  -20.0756  -12.4229 C   0  0  0  0  0  0  0  0  0  0  0  0
   22.5403  -19.1450  -13.5943 C   0  0  0  0  0  0  0  0  0  0  0  0
   22.6168  -19.8062  -14.9095 C   0  0  0  0  0  0  0  0  0  0  0  0
   23.6603  -19.6798  -15.7777 C   0  0  0  0  0  0  0  0  0  0  0  0
   23.6159  -20.3549  -16.9763 C   0  0  0  0  0  0  0  0  0  0  0  0
   22.5684  -21.1640  -17.3633 C   0  0  0  0  0  0  0  0  0  0  0  0
   21.5185  -21.2845  -16.4773 C   0  0  0  0  0  0  0  0  0  0  0  0
   21.5522  -20.6138  -15.2755 C   0  0  0  0  0  0  0  0  0  0  0  0
   21.2884  -20.9099  -12.4322 O   0  0  0  0  0  0  0  0  0  0  0  0
   20.1339  -20.3745  -12.3955 O   0  0  0  0  0  0  0  0  0  0  0  0
  2  1  1  6
  2  3  1  0
  4  2  1  0
  4  5  1  6
  6  7  2  0
  6  4  1  0
  9  8  1  0
 10  9  2  0
 11  9  1  0
 12 11  1  0
 13 12  1  0
 13 14  1  0
 15 14  1  1
 15 16  1  0
 16  6  1  0
 17 19  1  0
 17 15  1  0
 18 17  2  0
 20 19  1  0
 20 28  1  0
 21 22  1  0
 20 21  1  1
 22 23  2  0
 23 24  1  0
 25 24  2  0
 26 25  1  0
 27 22  1  0
 27 26  2  0
 28 30  1  0
 29 28  2  0
M  END
$$$$
