TRF.pdb
     RDKit          3D

 30 30  0  0  1  0  0  0  0  0999 V2000
   22.9303  -16.2802  -15.1565 C   0  0  0  0  0  0  0  0  0  0  0  0
   23.6046  -17.4788  -14.5251 C   0  0  1  0  0  0  0  0  0  0  0  0
   22.6883  -18.0166  -13.6222 O   0  0  0  0  0  0  0  0  0  0  0  0
   24.0105  -18.4955  -15.5466 C   0  0  2  0  0  0  0  0  0  0  0  0
   22.8318  -18.8615  -16.2936 N   0  0  0  0  0  0  0  0  0  0  0  0
   24.6644  -19.6873  -14.9272 C   0  0  0  0  0  0  0  0  0  0  0  0
   23.9297  -20.6294  -14.5456 O   0  0  0  0  0  0  0  0  0  0  0  0
   31.7276  -24.7315  -15.2093 N   0  0  0  0  0  0  0  0  0  0  0  0
   30.6749  -24.3349  -16.0777 C   0  0  0  0  0  0  0  0  0  0  0  0
   30.3702  -25.0673  -17.1049 N   0  0  0  0  0  0  0  0  0  0  0  0
   29.9853  -23.1301  -15.7804 N   0  0  0  0  0  0  0  0  0  0  0  0
   30.2724  -22.4168  -14.5639 C   0  0  0  0  0  0  0  0  0  0  0  0
   28.9284  -22.1183  -13.9002 C   0  0  0  0  0  0  0  0  0  0  0  0
   28.2213  -21.0116  -14.6156 C   0  0  0  0  0  0  0  0  0  0  0  0
   26.8168  -20.7381  -14.0411 C   0  0  2  0  0  0  0  0  0  0  0  0
   26.0612  -19.7866  -14.7598 N   0  0  0  0  0  0  0  0  0  0  0  0
   26.9086  -20.6239  -12.6057 C   0  0  0  0  0  0  0  0  0  0  0  0
   27.9946  -20.1265  -12.1470 O   0  0  0  0  0  0  0  0  0  0  0  0
   29.6094  -24.8193  -17.7628 N   0  0  0  0  0  0  0  0  0  0  0  0
   25.9425  -20.9966  -11.6595 C   0  0  1  0  0  0  0  0  0  0  0  0
   26.2444  -21.0551  -10.2386 C   0  0  0  0  0  0  0  0  0  0  0  0
   26.7165  -19.6904   -9.8443 C   0  0  0  0  0  0  0  0  0  0  0  0
   27.0790  -19.5457   -8.4229 C   0  0  0  0  0  0  0  0  0  0  0  0
   27.2088  -18.3522   -7.7768 C   0  0  0  0  0  0  0  0  0  0  0  0
   27.5468  -18.3495   -6.4426 C   0  0  0  0  0  0  0  0  0  0  0  0
   27.7664  -19.4932   -5.7041 C   0  0  0  0  0  0  0  0  0  0  0  0
   27.6324  -20.6946   -6.3678 C   0  0  0  0  0  0  0  0  0  0  0  0
   27.2946  -20.7093   -7.7023 C   0  0  0  0  0  0  0  0  0  0  0  0
   25.0875  -21.4867   -9.4538 O   0  0  0  0  0  0  0  0  0  0  0  0
   25.2228  -21.7970   -8.2265 O   0  0  0  0  0  0  0  0  0  0  0  0
  2  1  1  6
  2  3  1  0
  4  2  1  0
  4  5  1  1
  6  7  2  0
  6  4  1  0
  9  8  1  0
 10  9  2  0
 11  9  1  0
 12 11  1  0
 13 12  1  0
 13 14  1  0
 15 14  1  6
 15 16  1  0
 16  6  1  0
 17 19  1  0
 17 15  1  0
 18 17  2  0
 20 19  1  0
 20 28  1  0
 21 22  1  0
 20 21  1  1
 22 23  2  0
 23 24  1  0
 25 24  2  0
 26 25  1  0
 27 22  1  0
 27 26  2  0
 28 30  1  0
 29 28  2  0
M  END
$$$$
