TRF.pdb
     RDKit          3D

 30 30  0  0  1  0  0  0  0  0999 V2000
   28.5842  -21.8850  -14.5651 C   0  0  0  0  0  0  0  0  0  0  0  0
   29.0166  -20.5381  -15.1024 C   0  0  1  0  0  0  0  0  0  0  0  0
   29.5485  -20.7715  -16.3699 O   0  0  0  0  0  0  0  0  0  0  0  0
   27.8767  -19.5696  -15.1694 C   0  0  2  0  0  0  0  0  0  0  0  0
   28.3774  -18.3416  -15.7377 N   0  0  0  0  0  0  0  0  0  0  0  0
   27.2489  -19.3443  -13.8328 C   0  0  0  0  0  0  0  0  0  0  0  0
   27.7799  -18.5045  -13.0674 O   0  0  0  0  0  0  0  0  0  0  0  0
   20.6412  -22.7665  -12.6320 N   0  0  0  0  0  0  0  0  0  0  0  0
   20.0467  -21.7034  -11.8997 C   0  0  0  0  0  0  0  0  0  0  0  0
   18.7546  -21.5940  -11.8479 N   0  0  0  0  0  0  0  0  0  0  0  0
   20.9074  -20.7863  -11.2411 N   0  0  0  0  0  0  0  0  0  0  0  0
   22.2182  -21.2042  -10.8188 C   0  0  0  0  0  0  0  0  0  0  0  0
   23.1474  -20.0069  -11.0163 C   0  0  0  0  0  0  0  0  0  0  0  0
   23.8538  -20.0988  -12.3312 C   0  0  0  0  0  0  0  0  0  0  0  0
   25.3811  -19.9369  -12.1951 C   0  0  2  0  0  0  0  0  0  0  0  0
   26.0946  -20.0351  -13.4091 N   0  0  0  0  0  0  0  0  0  0  0  0
   25.8347  -20.6892  -11.0504 C   0  0  0  0  0  0  0  0  0  0  0  0
   25.8880  -21.9595  -11.1945 O   0  0  0  0  0  0  0  0  0  0  0  0
   18.2762  -20.8852  -11.2631 N   0  0  0  0  0  0  0  0  0  0  0  0
   26.2225  -20.1845   -9.8004 C   0  0  2  0  0  0  0  0  0  0  0  0
   26.6428  -21.0591   -8.7180 C   0  0  0  0  0  0  0  0  0  0  0  0
   28.0242  -20.6301   -8.3324 C   0  0  0  0  0  0  0  0  0  0  0  0
   28.1259  -19.9749   -7.0159 C   0  0  0  0  0  0  0  0  0  0  0  0
   28.5068  -20.6039   -5.8678 C   0  0  0  0  0  0  0  0  0  0  0  0
   28.5686  -19.8790   -4.6994 C   0  0  0  0  0  0  0  0  0  0  0  0
   28.2658  -18.5365   -4.6121 C   0  0  0  0  0  0  0  0  0  0  0  0
   27.8818  -17.9107   -5.7794 C   0  0  0  0  0  0  0  0  0  0  0  0
   27.8164  -18.6259   -6.9539 C   0  0  0  0  0  0  0  0  0  0  0  0
   25.7148  -21.0111   -7.5879 O   0  0  0  0  0  0  0  0  0  0  0  0
   25.7806  -21.8850   -6.6645 O   0  0  0  0  0  0  0  0  0  0  0  0
  2  1  1  6
  2  3  1  0
  4  2  1  0
  4  5  1  1
  6  7  2  0
  6  4  1  0
  9  8  1  0
 10  9  2  0
 11  9  1  0
 12 11  1  0
 13 12  1  0
 13 14  1  0
 15 14  1  6
 15 16  1  0
 16  6  1  0
 17 19  1  0
 17 15  1  0
 18 17  2  0
 20 19  1  0
 20 28  1  0
 21 22  1  0
 20 21  1  6
 22 23  2  0
 23 24  1  0
 25 24  2  0
 26 25  1  0
 27 22  1  0
 27 26  2  0
 28 30  1  0
 29 28  2  0
M  END
$$$$
