TRF.pdb
     RDKit          3D

 30 30  0  0  1  0  0  0  0  0999 V2000
   15.7064  -27.2101   -3.1631 C   0  0  0  0  0  0  0  0  0  0  0  0
   16.9721  -26.8009   -3.8847 C   0  0  1  0  0  0  0  0  0  0  0  0
   17.4410  -27.9411   -4.5358 O   0  0  0  0  0  0  0  0  0  0  0  0
   16.7275  -25.6900   -4.8582 C   0  0  2  0  0  0  0  0  0  0  0  0
   17.9615  -25.4465   -5.5649 N   0  0  0  0  0  0  0  0  0  0  0  0
   16.2211  -24.4544   -4.1885 C   0  0  0  0  0  0  0  0  0  0  0  0
   17.0600  -23.6844   -3.6628 O   0  0  0  0  0  0  0  0  0  0  0  0
    8.3107  -20.3447   -4.7016 N   0  0  0  0  0  0  0  0  0  0  0  0
    9.4894  -19.5779   -4.9070 C   0  0  0  0  0  0  0  0  0  0  0  0
    9.4288  -18.4557   -5.5559 N   0  0  0  0  0  0  0  0  0  0  0  0
   10.7096  -20.0803   -4.3832 N   0  0  0  0  0  0  0  0  0  0  0  0
   10.7390  -21.3603   -3.7261 C   0  0  0  0  0  0  0  0  0  0  0  0
   12.1761  -21.5810   -3.2547 C   0  0  0  0  0  0  0  0  0  0  0  0
   12.7979  -22.7319   -3.9792 C   0  0  0  0  0  0  0  0  0  0  0  0
   14.2025  -23.0778   -3.4455 C   0  0  2  0  0  0  0  0  0  0  0  0
   14.8500  -24.1298   -4.1288 N   0  0  0  0  0  0  0  0  0  0  0  0
   14.1682  -23.0927   -2.0030 C   0  0  0  0  0  0  0  0  0  0  0  0
   13.7557  -24.1748   -1.4590 O   0  0  0  0  0  0  0  0  0  0  0  0
   10.2668  -17.8821   -5.7610 N   0  0  0  0  0  0  0  0  0  0  0  0
   14.5355  -22.0555   -1.1330 C   0  0  2  0  0  0  0  0  0  0  0  0
   14.4777  -22.2105    0.3113 C   0  0  0  0  0  0  0  0  0  0  0  0
   15.5886  -21.3812    0.8760 C   0  0  0  0  0  0  0  0  0  0  0  0
   15.6405  -21.3328    2.3484 C   0  0  0  0  0  0  0  0  0  0  0  0
   15.1220  -20.3252    3.1064 C   0  0  0  0  0  0  0  0  0  0  0  0
   15.2290  -20.3989    4.4767 C   0  0  0  0  0  0  0  0  0  0  0  0
   15.8360  -21.4418    5.1442 C   0  0  0  0  0  0  0  0  0  0  0  0
   16.3568  -22.4553    4.3674 C   0  0  0  0  0  0  0  0  0  0  0  0
   16.2554  -22.3921    2.9959 C   0  0  0  0  0  0  0  0  0  0  0  0
   13.1728  -21.8238    0.8484 O   0  0  0  0  0  0  0  0  0  0  0  0
   12.4240  -21.0219    0.2028 O   0  0  0  0  0  0  0  0  0  0  0  0
  2  1  1  6
  2  3  1  0
  4  2  1  0
  4  5  1  1
  6  7  2  0
  6  4  1  0
  9  8  1  0
 10  9  2  0
 11  9  1  0
 12 11  1  0
 13 12  1  0
 13 14  1  0
 15 14  1  6
 15 16  1  0
 16  6  1  0
 17 19  1  0
 17 15  1  0
 18 17  2  0
 20 19  1  0
 20 28  1  0
 21 22  1  0
 20 21  1  6
 22 23  2  0
 23 24  1  0
 25 24  2  0
 26 25  1  0
 27 22  1  0
 27 26  2  0
 28 30  1  0
 29 28  2  0
M  END
$$$$
