CGW.pdb
     RDKit          3D

 25 26  0  0  1  0  0  0  0  0999 V2000
    7.8546  -19.4164   20.8902 N   0  0  0  0  0  0  0  0  0  0  0  0
    6.9489  -18.3121   20.9847 C   0  0  1  0  0  0  0  0  0  0  0  0
    5.8103  -18.5888   21.9552 C   0  0  0  0  0  0  0  0  0  0  0  0
    5.6009  -20.3919   22.0759 S   0  0  0  0  0  0  0  0  0  0  0  0
    7.6694  -17.0640   21.3242 C   0  0  0  0  0  0  0  0  0  0  0  0
    7.0786  -15.9494   21.4237 O   0  0  0  0  0  0  0  0  0  0  0  0
    9.0764  -17.1036   21.5478 N   0  0  0  0  0  0  0  0  0  0  0  0
    9.7490  -15.8798   21.8993 C   0  0  0  0  0  0  0  0  0  0  0  0
   10.0308  -15.7576   23.3574 C   0  0  0  0  0  0  0  0  0  0  0  0
   10.7243  -14.7779   23.7546 O   0  0  0  0  0  0  0  0  0  0  0  0
    9.5733  -16.6715   24.3187 N   0  0  0  0  0  0  0  0  0  0  0  0
    9.9814  -16.5682   25.7195 C   0  0  1  0  0  0  0  0  0  0  0  0
    8.8168  -16.6039   26.6268 C   0  0  0  0  0  0  0  0  0  0  0  0
    7.7485  -15.6810   26.2320 C   0  0  0  0  0  0  0  0  0  0  0  0
    6.5680  -16.0137   25.5613 C   0  0  0  0  0  0  0  0  0  0  0  0
    5.8382  -14.9075   25.3289 N   0  0  0  0  0  0  0  0  0  0  0  0
    6.4808  -13.8505   25.8164 C   0  0  0  0  0  0  0  0  0  0  0  0
    6.1054  -12.5188   25.8264 C   0  0  0  0  0  0  0  0  0  0  0  0
    6.9365  -11.5901   26.4221 C   0  0  0  0  0  0  0  0  0  0  0  0
    8.1157  -12.0282   26.9870 C   0  0  0  0  0  0  0  0  0  0  0  0
    8.4724  -13.3592   26.9663 C   0  0  0  0  0  0  0  0  0  0  0  0
    7.6595  -14.3134   26.3756 C   0  0  0  0  0  0  0  0  0  0  0  0
   11.0018  -17.5689   26.0348 C   0  0  0  0  0  0  0  0  0  0  0  0
   11.3766  -18.3876   25.1665 O   0  0  0  0  0  0  0  0  0  0  0  0
   11.5559  -17.5957   27.3380 O   0  0  0  0  0  0  0  0  0  0  0  0
  2  1  1  1
  3  2  1  0
  4  3  1  0
  5  2  1  0
  5  6  2  0
  7  5  1  0
  8  7  1  0
  8  9  1  0
  9 10  2  0
 11  9  1  0
 11 12  1  0
 12 13  1  1
 13 14  1  0
 14 15  2  0
 14 22  1  0
 15 16  1  0
 16 17  1  0
 17 18  2  0
 19 18  1  0
 20 19  2  0
 21 22  2  0
 21 20  1  0
 22 17  1  0
 23 25  1  0
 23 12  1  0
 24 23  2  0
M  END
$$$$
