CGW.pdb
     RDKit          3D

 25 26  0  0  1  0  0  0  0  0999 V2000
    4.9194  -19.0384   22.0594 N   0  0  0  0  0  0  0  0  0  0  0  0
    6.3236  -18.8014   22.2033 C   0  0  1  0  0  0  0  0  0  0  0  0
    7.0973  -20.0877   22.4520 C   0  0  0  0  0  0  0  0  0  0  0  0
    7.0606  -20.4286   24.2386 S   0  0  0  0  0  0  0  0  0  0  0  0
    6.8567  -18.0555   21.0407 C   0  0  0  0  0  0  0  0  0  0  0  0
    7.1135  -18.6192   19.9373 O   0  0  0  0  0  0  0  0  0  0  0  0
    7.0949  -16.6550   21.1539 N   0  0  0  0  0  0  0  0  0  0  0  0
    8.3335  -16.1272   20.6431 C   0  0  0  0  0  0  0  0  0  0  0  0
    9.3226  -15.8027   21.7092 C   0  0  0  0  0  0  0  0  0  0  0  0
   10.4601  -15.3736   21.3622 O   0  0  0  0  0  0  0  0  0  0  0  0
    9.0662  -15.9500   23.0809 N   0  0  0  0  0  0  0  0  0  0  0  0
   10.1475  -15.9035   24.0647 C   0  0  1  0  0  0  0  0  0  0  0  0
    9.9517  -14.8058   25.0330 C   0  0  0  0  0  0  0  0  0  0  0  0
    8.5595  -14.6616   25.4687 C   0  0  0  0  0  0  0  0  0  0  0  0
    7.6040  -15.6787   25.5503 C   0  0  0  0  0  0  0  0  0  0  0  0
    6.4228  -15.1754   25.9523 N   0  0  0  0  0  0  0  0  0  0  0  0
    6.5489  -13.8656   26.1432 C   0  0  0  0  0  0  0  0  0  0  0  0
    5.6111  -12.9437   26.5733 C   0  0  0  0  0  0  0  0  0  0  0  0
    5.9860  -11.6228   26.7237 C   0  0  0  0  0  0  0  0  0  0  0  0
    7.2884  -11.2712   26.4374 C   0  0  0  0  0  0  0  0  0  0  0  0
    8.2079  -12.2043   26.0094 C   0  0  0  0  0  0  0  0  0  0  0  0
    7.8608  -13.5362   25.8487 C   0  0  0  0  0  0  0  0  0  0  0  0
   10.3315  -17.2131   24.6916 C   0  0  0  0  0  0  0  0  0  0  0  0
    9.4668  -18.1071   24.5580 O   0  0  0  0  0  0  0  0  0  0  0  0
   11.5023  -17.4506   25.4524 O   0  0  0  0  0  0  0  0  0  0  0  0
  2  1  1  6
  3  2  1  0
  4  3  1  0
  5  2  1  0
  5  6  2  0
  7  5  1  0
  8  7  1  0
  8  9  1  0
  9 10  2  0
 11  9  1  0
 11 12  1  0
 12 13  1  1
 13 14  1  0
 14 15  2  0
 14 22  1  0
 15 16  1  0
 16 17  1  0
 17 18  2  0
 19 18  1  0
 20 19  2  0
 21 22  2  0
 21 20  1  0
 22 17  1  0
 23 25  1  0
 23 12  1  0
 24 23  2  0
M  END
$$$$
