CGW.pdb
     RDKit          3D

 25 26  0  0  1  0  0  0  0  0999 V2000
    9.2814  -14.7446   17.1185 N   0  0  0  0  0  0  0  0  0  0  0  0
    8.5193  -14.3089   18.2489 C   0  0  1  0  0  0  0  0  0  0  0  0
    7.1107  -13.8859   17.8594 C   0  0  0  0  0  0  0  0  0  0  0  0
    7.2307  -12.3348   16.9165 S   0  0  0  0  0  0  0  0  0  0  0  0
    8.5094  -15.3411   19.3105 C   0  0  0  0  0  0  0  0  0  0  0  0
    8.9504  -16.5114   19.1179 O   0  0  0  0  0  0  0  0  0  0  0  0
    7.9873  -15.0205   20.5972 N   0  0  0  0  0  0  0  0  0  0  0  0
    7.9811  -16.0452   21.6089 C   0  0  0  0  0  0  0  0  0  0  0  0
    8.9291  -15.7782   22.7270 C   0  0  0  0  0  0  0  0  0  0  0  0
    9.8426  -14.9227   22.5480 O   0  0  0  0  0  0  0  0  0  0  0  0
    8.8699  -16.4261   23.9702 N   0  0  0  0  0  0  0  0  0  0  0  0
    9.8452  -16.1408   25.0223 C   0  0  1  0  0  0  0  0  0  0  0  0
    9.1894  -15.9530   26.3320 C   0  0  0  0  0  0  0  0  0  0  0  0
    7.9470  -15.1794   26.2501 C   0  0  0  0  0  0  0  0  0  0  0  0
    6.6809  -15.6719   25.9208 C   0  0  0  0  0  0  0  0  0  0  0  0
    5.7823  -14.6707   25.9055 N   0  0  0  0  0  0  0  0  0  0  0  0
    6.3943  -13.5306   26.2113 C   0  0  0  0  0  0  0  0  0  0  0  0
    5.8712  -12.2557   26.3356 C   0  0  0  0  0  0  0  0  0  0  0  0
    6.7084  -11.2169   26.6932 C   0  0  0  0  0  0  0  0  0  0  0  0
    8.0417  -11.4916   26.9136 C   0  0  0  0  0  0  0  0  0  0  0  0
    8.5441  -12.7684   26.7840 C   0  0  0  0  0  0  0  0  0  0  0  0
    7.7287  -13.8301   26.4260 C   0  0  0  0  0  0  0  0  0  0  0  0
   10.9017  -17.1536   25.0349 C   0  0  0  0  0  0  0  0  0  0  0  0
   11.9018  -17.0174   25.7737 O   0  0  0  0  0  0  0  0  0  0  0  0
   10.7737  -18.2882   24.1968 O   0  0  0  0  0  0  0  0  0  0  0  0
  2  1  1  6
  3  2  1  0
  4  3  1  0
  5  2  1  0
  5  6  2  0
  7  5  1  0
  8  7  1  0
  8  9  1  0
  9 10  2  0
 11  9  1  0
 11 12  1  0
 12 13  1  1
 13 14  1  0
 14 15  2  0
 14 22  1  0
 15 16  1  0
 16 17  1  0
 17 18  2  0
 19 18  1  0
 20 19  2  0
 21 22  2  0
 21 20  1  0
 22 17  1  0
 23 25  1  0
 23 12  1  0
 24 23  2  0
M  END
$$$$
