CGW.pdb
     RDKit          3D

 25 26  0  0  1  0  0  0  0  0999 V2000
    6.8657  -19.1085   22.0877 N   0  0  0  0  0  0  0  0  0  0  0  0
    6.8674  -19.0644   20.6571 C   0  0  1  0  0  0  0  0  0  0  0  0
    5.6211  -19.7052   20.0646 C   0  0  0  0  0  0  0  0  0  0  0  0
    4.9679  -20.8916   21.2793 S   0  0  0  0  0  0  0  0  0  0  0  0
    7.0574  -17.6790   20.1703 C   0  0  0  0  0  0  0  0  0  0  0  0
    7.2759  -17.4159   18.9521 O   0  0  0  0  0  0  0  0  0  0  0  0
    6.9964  -16.5953   21.0938 N   0  0  0  0  0  0  0  0  0  0  0  0
    7.8419  -15.4522   20.8657 C   0  0  0  0  0  0  0  0  0  0  0  0
    8.8439  -15.2326   21.9464 C   0  0  0  0  0  0  0  0  0  0  0  0
    9.7136  -14.3294   21.7839 O   0  0  0  0  0  0  0  0  0  0  0  0
    8.8817  -15.9748   23.1365 N   0  0  0  0  0  0  0  0  0  0  0  0
    9.8687  -15.6904   24.1778 C   0  0  1  0  0  0  0  0  0  0  0  0
    9.2943  -15.8560   25.5281 C   0  0  0  0  0  0  0  0  0  0  0  0
    7.9743  -15.2353   25.6743 C   0  0  0  0  0  0  0  0  0  0  0  0
    6.7369  -15.8739   25.5510 C   0  0  0  0  0  0  0  0  0  0  0  0
    5.7382  -14.9865   25.7103 N   0  0  0  0  0  0  0  0  0  0  0  0
    6.2560  -13.7827   25.9354 C   0  0  0  0  0  0  0  0  0  0  0  0
    5.6165  -12.5794   26.1755 C   0  0  0  0  0  0  0  0  0  0  0  0
    6.3753  -11.4496   26.4115 C   0  0  0  0  0  0  0  0  0  0  0  0
    7.7494  -11.5646   26.3982 C   0  0  0  0  0  0  0  0  0  0  0  0
    8.3680  -12.7722   26.1563 C   0  0  0  0  0  0  0  0  0  0  0  0
    7.6332  -13.9222   25.9158 C   0  0  0  0  0  0  0  0  0  0  0  0
   11.0883  -16.4695   23.9594 C   0  0  0  0  0  0  0  0  0  0  0  0
   11.1398  -17.3244   23.0478 O   0  0  0  0  0  0  0  0  0  0  0  0
   12.2071  -16.2407   24.7972 O   0  0  0  0  0  0  0  0  0  0  0  0
  2  1  1  1
  3  2  1  0
  4  3  1  0
  5  2  1  0
  5  6  2  0
  7  5  1  0
  8  7  1  0
  8  9  1  0
  9 10  2  0
 11  9  1  0
 11 12  1  0
 12 13  1  1
 13 14  1  0
 14 15  2  0
 14 22  1  0
 15 16  1  0
 16 17  1  0
 17 18  2  0
 19 18  1  0
 20 19  2  0
 21 22  2  0
 21 20  1  0
 22 17  1  0
 23 25  1  0
 23 12  1  0
 24 23  2  0
M  END
$$$$
