CGW.pdb
     RDKit          3D

 25 26  0  0  1  0  0  0  0  0999 V2000
    6.6941  -18.7326   22.5175 N   0  0  0  0  0  0  0  0  0  0  0  0
    7.2389  -18.8421   21.1985 C   0  0  1  0  0  0  0  0  0  0  0  0
    6.1658  -19.1318   20.1596 C   0  0  0  0  0  0  0  0  0  0  0  0
    5.6356  -20.8597   20.3664 S   0  0  0  0  0  0  0  0  0  0  0  0
    8.0302  -17.6399   20.8509 C   0  0  0  0  0  0  0  0  0  0  0  0
    8.8643  -17.6329   19.8994 O   0  0  0  0  0  0  0  0  0  0  0  0
    7.8582  -16.4433   21.6056 N   0  0  0  0  0  0  0  0  0  0  0  0
    8.9195  -15.4700   21.5980 C   0  0  0  0  0  0  0  0  0  0  0  0
    9.7314  -15.4705   22.8474 C   0  0  0  0  0  0  0  0  0  0  0  0
   10.7377  -14.7077   22.9095 O   0  0  0  0  0  0  0  0  0  0  0  0
    9.4461  -16.2740   23.9618 N   0  0  0  0  0  0  0  0  0  0  0  0
   10.3496  -16.3274   25.1107 C   0  0  1  0  0  0  0  0  0  0  0  0
    9.6711  -15.9073   26.3532 C   0  0  0  0  0  0  0  0  0  0  0  0
    8.3406  -15.3376   26.1204 C   0  0  0  0  0  0  0  0  0  0  0  0
    7.1886  -16.0386   25.7524 C   0  0  0  0  0  0  0  0  0  0  0  0
    6.1594  -15.1877   25.5885 N   0  0  0  0  0  0  0  0  0  0  0  0
    6.5749  -13.9484   25.8320 C   0  0  0  0  0  0  0  0  0  0  0  0
    5.8657  -12.7606   25.8075 C   0  0  0  0  0  0  0  0  0  0  0  0
    6.5139  -11.5833   26.1265 C   0  0  0  0  0  0  0  0  0  0  0  0
    7.8512  -11.6370   26.4587 C   0  0  0  0  0  0  0  0  0  0  0  0
    8.5407  -12.8301   26.4767 C   0  0  0  0  0  0  0  0  0  0  0  0
    7.9173  -14.0268   26.1609 C   0  0  0  0  0  0  0  0  0  0  0  0
   10.9866  -17.6417   25.2056 C   0  0  0  0  0  0  0  0  0  0  0  0
   10.6583  -18.5631   24.4260 O   0  0  0  0  0  0  0  0  0  0  0  0
   11.9784  -17.8530   26.1944 O   0  0  0  0  0  0  0  0  0  0  0  0
  2  1  1  1
  3  2  1  0
  4  3  1  0
  5  2  1  0
  5  6  2  0
  7  5  1  0
  8  7  1  0
  8  9  1  0
  9 10  2  0
 11  9  1  0
 11 12  1  0
 12 13  1  1
 13 14  1  0
 14 15  2  0
 14 22  1  0
 15 16  1  0
 16 17  1  0
 17 18  2  0
 19 18  1  0
 20 19  2  0
 21 22  2  0
 21 20  1  0
 22 17  1  0
 23 25  1  0
 23 12  1  0
 24 23  2  0
M  END
$$$$
