CGW.pdb
     RDKit          3D

 25 26  0  0  1  0  0  0  0  0999 V2000
    7.3342  -14.1614   17.9931 N   0  0  0  0  0  0  0  0  0  0  0  0
    8.6068  -14.5585   18.5141 C   0  0  1  0  0  0  0  0  0  0  0  0
    9.5143  -13.3656   18.7753 C   0  0  0  0  0  0  0  0  0  0  0  0
    8.7934  -12.3992   20.1376 S   0  0  0  0  0  0  0  0  0  0  0  0
    8.4454  -15.4010   19.7209 C   0  0  0  0  0  0  0  0  0  0  0  0
    7.5870  -15.1431   20.6141 O   0  0  0  0  0  0  0  0  0  0  0  0
    9.2789  -16.5435   19.8966 N   0  0  0  0  0  0  0  0  0  0  0  0
    9.1527  -17.3031   21.1135 C   0  0  0  0  0  0  0  0  0  0  0  0
    9.8943  -16.7090   22.2612 C   0  0  0  0  0  0  0  0  0  0  0  0
   11.0575  -16.2581   22.0555 O   0  0  0  0  0  0  0  0  0  0  0  0
    9.3773  -16.6239   23.5628 N   0  0  0  0  0  0  0  0  0  0  0  0
   10.1627  -16.0517   24.6560 C   0  0  1  0  0  0  0  0  0  0  0  0
    9.7447  -14.6676   24.9564 C   0  0  0  0  0  0  0  0  0  0  0  0
    8.3768  -14.5773   25.4758 C   0  0  0  0  0  0  0  0  0  0  0  0
    7.4726  -15.6329   25.6250 C   0  0  0  0  0  0  0  0  0  0  0  0
    6.2977  -15.1753   26.0946 N   0  0  0  0  0  0  0  0  0  0  0  0
    6.3792  -13.8593   26.2660 C   0  0  0  0  0  0  0  0  0  0  0  0
    5.4308  -12.9730   26.7451 C   0  0  0  0  0  0  0  0  0  0  0  0
    5.7574  -11.6359   26.8607 C   0  0  0  0  0  0  0  0  0  0  0  0
    7.0235  -11.2329   26.4917 C   0  0  0  0  0  0  0  0  0  0  0  0
    7.9542  -12.1311   26.0159 C   0  0  0  0  0  0  0  0  0  0  0  0
    7.6553  -13.4782   25.8884 C   0  0  0  0  0  0  0  0  0  0  0  0
   10.1452  -16.9361   25.8220 C   0  0  0  0  0  0  0  0  0  0  0  0
   10.8050  -16.6495   26.8452 O   0  0  0  0  0  0  0  0  0  0  0  0
    9.3709  -18.1211   25.7719 O   0  0  0  0  0  0  0  0  0  0  0  0
  2  1  1  1
  3  2  1  0
  4  3  1  0
  5  2  1  0
  5  6  2  0
  7  5  1  0
  8  7  1  0
  8  9  1  0
  9 10  2  0
 11  9  1  0
 11 12  1  0
 12 13  1  1
 13 14  1  0
 14 15  2  0
 14 22  1  0
 15 16  1  0
 16 17  1  0
 17 18  2  0
 19 18  1  0
 20 19  2  0
 21 22  2  0
 21 20  1  0
 22 17  1  0
 23 25  1  0
 23 12  1  0
 24 23  2  0
M  END
$$$$
