CGW.pdb
     RDKit          3D

 25 26  0  0  1  0  0  0  0  0999 V2000
    6.4573  -18.4429   21.0633 N   0  0  0  0  0  0  0  0  0  0  0  0
    7.4748  -18.8314   20.1346 C   0  0  1  0  0  0  0  0  0  0  0  0
    6.9426  -18.9302   18.7127 C   0  0  0  0  0  0  0  0  0  0  0  0
    5.6583  -20.2183   18.6820 S   0  0  0  0  0  0  0  0  0  0  0  0
    8.6445  -17.9278   20.2221 C   0  0  0  0  0  0  0  0  0  0  0  0
    9.7383  -18.1816   19.6388 O   0  0  0  0  0  0  0  0  0  0  0  0
    8.5504  -16.7288   20.9866 N   0  0  0  0  0  0  0  0  0  0  0  0
    9.7181  -15.8934   21.0974 C   0  0  0  0  0  0  0  0  0  0  0  0
   10.2728  -15.8323   22.4790 C   0  0  0  0  0  0  0  0  0  0  0  0
   11.4060  -15.2976   22.6477 O   0  0  0  0  0  0  0  0  0  0  0  0
    9.6107  -16.3391   23.6075 N   0  0  0  0  0  0  0  0  0  0  0  0
   10.2778  -16.4198   24.9067 C   0  0  1  0  0  0  0  0  0  0  0  0
    9.9898  -15.2338   25.7380 C   0  0  0  0  0  0  0  0  0  0  0  0
    8.5700  -14.8693   25.7519 C   0  0  0  0  0  0  0  0  0  0  0  0
    7.4907  -15.7190   25.4924 C   0  0  0  0  0  0  0  0  0  0  0  0
    6.3344  -15.0342   25.5561 N   0  0  0  0  0  0  0  0  0  0  0  0
    6.5955  -13.7635   25.8477 C   0  0  0  0  0  0  0  0  0  0  0  0
    5.7237  -12.7051   26.0330 C   0  0  0  0  0  0  0  0  0  0  0  0
    6.2329  -11.4634   26.3598 C   0  0  0  0  0  0  0  0  0  0  0  0
    7.5988  -11.3251   26.4894 C   0  0  0  0  0  0  0  0  0  0  0  0
    8.4511  -12.3915   26.3001 C   0  0  0  0  0  0  0  0  0  0  0  0
    7.9695  -13.6485   25.9710 C   0  0  0  0  0  0  0  0  0  0  0  0
    9.9688  -17.6886   25.5675 C   0  0  0  0  0  0  0  0  0  0  0  0
    9.0375  -18.4112   25.1488 O   0  0  0  0  0  0  0  0  0  0  0  0
   10.7395  -18.0833   26.6883 O   0  0  0  0  0  0  0  0  0  0  0  0
  2  1  1  1
  3  2  1  0
  4  3  1  0
  5  2  1  0
  5  6  2  0
  7  5  1  0
  8  7  1  0
  8  9  1  0
  9 10  2  0
 11  9  1  0
 11 12  1  0
 12 13  1  1
 13 14  1  0
 14 15  2  0
 14 22  1  0
 15 16  1  0
 16 17  1  0
 17 18  2  0
 19 18  1  0
 20 19  2  0
 21 22  2  0
 21 20  1  0
 22 17  1  0
 23 25  1  0
 23 12  1  0
 24 23  2  0
M  END
$$$$
