CGW.pdb
     RDKit          3D

 25 26  0  0  1  0  0  0  0  0999 V2000
    6.6031  -18.9457   22.0137 N   0  0  0  0  0  0  0  0  0  0  0  0
    7.0521  -18.9219   20.6549 C   0  0  1  0  0  0  0  0  0  0  0  0
    6.0022  -19.4649   19.6969 C   0  0  0  0  0  0  0  0  0  0  0  0
    5.8261  -21.2485   20.0088 S   0  0  0  0  0  0  0  0  0  0  0  0
    7.4989  -17.5643   20.2685 C   0  0  0  0  0  0  0  0  0  0  0  0
    8.0776  -17.3321   19.1674 O   0  0  0  0  0  0  0  0  0  0  0  0
    7.2778  -16.4724   21.1573 N   0  0  0  0  0  0  0  0  0  0  0  0
    8.1756  -15.3481   21.0982 C   0  0  0  0  0  0  0  0  0  0  0  0
    9.1330  -15.2951   22.2387 C   0  0  0  0  0  0  0  0  0  0  0  0
   10.1132  -14.5000   22.1631 O   0  0  0  0  0  0  0  0  0  0  0  0
    9.0127  -16.0818   23.3942 N   0  0  0  0  0  0  0  0  0  0  0  0
    9.9880  -15.9899   24.4804 C   0  0  1  0  0  0  0  0  0  0  0  0
    9.3293  -16.0018   25.8020 C   0  0  0  0  0  0  0  0  0  0  0  0
    8.0301  -15.3229   25.8059 C   0  0  0  0  0  0  0  0  0  0  0  0
    6.7855  -15.9076   25.5547 C   0  0  0  0  0  0  0  0  0  0  0  0
    5.8159  -14.9762   25.6047 N   0  0  0  0  0  0  0  0  0  0  0  0
    6.3600  -13.7945   25.8793 C   0  0  0  0  0  0  0  0  0  0  0  0
    5.7526  -12.5625   26.0467 C   0  0  0  0  0  0  0  0  0  0  0  0
    6.5317  -11.4652   26.3578 C   0  0  0  0  0  0  0  0  0  0  0  0
    7.8931  -11.6403   26.4901 C   0  0  0  0  0  0  0  0  0  0  0  0
    8.4796  -12.8756   26.3188 C   0  0  0  0  0  0  0  0  0  0  0  0
    7.7240  -13.9942   26.0058 C   0  0  0  0  0  0  0  0  0  0  0  0
   11.0238  -17.0132   24.3318 C   0  0  0  0  0  0  0  0  0  0  0  0
   10.9471  -17.8651   23.4191 O   0  0  0  0  0  0  0  0  0  0  0  0
   12.1120  -17.0237   25.2383 O   0  0  0  0  0  0  0  0  0  0  0  0
  2  1  1  1
  3  2  1  0
  4  3  1  0
  5  2  1  0
  5  6  2  0
  7  5  1  0
  8  7  1  0
  8  9  1  0
  9 10  2  0
 11  9  1  0
 11 12  1  0
 12 13  1  1
 13 14  1  0
 14 15  2  0
 14 22  1  0
 15 16  1  0
 16 17  1  0
 17 18  2  0
 19 18  1  0
 20 19  2  0
 21 22  2  0
 21 20  1  0
 22 17  1  0
 23 25  1  0
 23 12  1  0
 24 23  2  0
M  END
$$$$
