CGW.pdb
     RDKit          3D

 25 26  0  0  1  0  0  0  0  0999 V2000
    6.6969  -19.5634   21.8433 N   0  0  0  0  0  0  0  0  0  0  0  0
    6.6923  -19.0210   20.5187 C   0  0  1  0  0  0  0  0  0  0  0  0
    5.2805  -18.7873   20.0022 C   0  0  0  0  0  0  0  0  0  0  0  0
    4.4839  -17.5582   21.0812 S   0  0  0  0  0  0  0  0  0  0  0  0
    7.5143  -17.7916   20.4472 C   0  0  0  0  0  0  0  0  0  0  0  0
    8.0364  -17.3908   19.3664 O   0  0  0  0  0  0  0  0  0  0  0  0
    7.7347  -17.0241   21.6276 N   0  0  0  0  0  0  0  0  0  0  0  0
    8.6366  -15.9037   21.5580 C   0  0  0  0  0  0  0  0  0  0  0  0
    9.4520  -15.7232   22.7920 C   0  0  0  0  0  0  0  0  0  0  0  0
   10.4189  -14.9092   22.7587 O   0  0  0  0  0  0  0  0  0  0  0  0
    9.2115  -16.4092   23.9921 N   0  0  0  0  0  0  0  0  0  0  0  0
   10.1561  -16.3433   25.1069 C   0  0  1  0  0  0  0  0  0  0  0  0
    9.4673  -16.0746   26.3852 C   0  0  0  0  0  0  0  0  0  0  0  0
    8.2100  -15.3392   26.2203 C   0  0  0  0  0  0  0  0  0  0  0  0
    6.9694  -15.8808   25.8714 C   0  0  0  0  0  0  0  0  0  0  0  0
    6.0476  -14.9056   25.7737 N   0  0  0  0  0  0  0  0  0  0  0  0
    6.6197  -13.7360   26.0431 C   0  0  0  0  0  0  0  0  0  0  0  0
    6.0611  -12.4707   26.0842 C   0  0  0  0  0  0  0  0  0  0  0  0
    6.8587  -11.3937   26.4184 C   0  0  0  0  0  0  0  0  0  0  0  0
    8.1893  -11.6219   26.6996 C   0  0  0  0  0  0  0  0  0  0  0  0
    8.7275  -12.8898   26.6526 C   0  0  0  0  0  0  0  0  0  0  0  0
    7.9522  -13.9891   26.3199 C   0  0  0  0  0  0  0  0  0  0  0  0
   11.0035  -17.5363   25.1364 C   0  0  0  0  0  0  0  0  0  0  0  0
   11.9381  -17.6299   25.9626 O   0  0  0  0  0  0  0  0  0  0  0  0
   10.7492  -18.5807   24.2142 O   0  0  0  0  0  0  0  0  0  0  0  0
  2  1  1  1
  3  2  1  0
  4  3  1  0
  5  2  1  0
  5  6  2  0
  7  5  1  0
  8  7  1  0
  8  9  1  0
  9 10  2  0
 11  9  1  0
 11 12  1  0
 12 13  1  1
 13 14  1  0
 14 15  2  0
 14 22  1  0
 15 16  1  0
 16 17  1  0
 17 18  2  0
 19 18  1  0
 20 19  2  0
 21 22  2  0
 21 20  1  0
 22 17  1  0
 23 25  1  0
 23 12  1  0
 24 23  2  0
M  END
$$$$
