CGW.pdb
     RDKit          3D

 25 26  0  0  1  0  0  0  0  0999 V2000
    7.0263  -17.3953   22.3244 N   0  0  0  0  0  0  0  0  0  0  0  0
    7.4496  -17.3333   20.9586 C   0  0  1  0  0  0  0  0  0  0  0  0
    6.4489  -16.5931   20.0836 C   0  0  0  0  0  0  0  0  0  0  0  0
    6.6831  -17.1503   18.3678 S   0  0  0  0  0  0  0  0  0  0  0  0
    8.8079  -16.7539   20.8509 C   0  0  0  0  0  0  0  0  0  0  0  0
    9.5950  -17.0502   19.9055 O   0  0  0  0  0  0  0  0  0  0  0  0
    9.2582  -15.8309   21.8390 N   0  0  0  0  0  0  0  0  0  0  0  0
   10.6762  -15.6757   22.0360 C   0  0  0  0  0  0  0  0  0  0  0  0
   11.1050  -15.8953   23.4460 C   0  0  0  0  0  0  0  0  0  0  0  0
   12.3432  -15.9586   23.6939 O   0  0  0  0  0  0  0  0  0  0  0  0
   10.2119  -16.0408   24.5184 N   0  0  0  0  0  0  0  0  0  0  0  0
   10.6895  -16.3263   25.8711 C   0  0  1  0  0  0  0  0  0  0  0  0
    9.9650  -15.5286   26.8807 C   0  0  0  0  0  0  0  0  0  0  0  0
    8.5939  -15.1985   26.4808 C   0  0  0  0  0  0  0  0  0  0  0  0
    7.6340  -16.0881   25.9894 C   0  0  0  0  0  0  0  0  0  0  0  0
    6.5002  -15.4289   25.6891 N   0  0  0  0  0  0  0  0  0  0  0  0
    6.6618  -14.1372   25.9597 C   0  0  0  0  0  0  0  0  0  0  0  0
    5.7654  -13.0911   25.8305 C   0  0  0  0  0  0  0  0  0  0  0  0
    6.1560  -11.8202   26.2049 C   0  0  0  0  0  0  0  0  0  0  0  0
    7.4323  -11.6414   26.6957 C   0  0  0  0  0  0  0  0  0  0  0  0
    8.3111  -12.6962   26.8162 C   0  0  0  0  0  0  0  0  0  0  0  0
    7.9477  -13.9818   26.4482 C   0  0  0  0  0  0  0  0  0  0  0  0
   10.6662  -17.7659   26.1335 C   0  0  0  0  0  0  0  0  0  0  0  0
   11.1223  -18.2226   27.2050 O   0  0  0  0  0  0  0  0  0  0  0  0
   10.1207  -18.6324   25.1548 O   0  0  0  0  0  0  0  0  0  0  0  0
  2  1  1  1
  3  2  1  0
  4  3  1  0
  5  2  1  0
  5  6  2  0
  7  5  1  0
  8  7  1  0
  8  9  1  0
  9 10  2  0
 11  9  1  0
 11 12  1  0
 12 13  1  1
 13 14  1  0
 14 15  2  0
 14 22  1  0
 15 16  1  0
 16 17  1  0
 17 18  2  0
 19 18  1  0
 20 19  2  0
 21 22  2  0
 21 20  1  0
 22 17  1  0
 23 25  1  0
 23 12  1  0
 24 23  2  0
M  END
$$$$
