CGW.pdb
     RDKit          3D

 25 26  0  0  1  0  0  0  0  0999 V2000
    8.0609  -19.9156   20.8120 N   0  0  0  0  0  0  0  0  0  0  0  0
    7.4574  -19.0347   19.8589 C   0  0  1  0  0  0  0  0  0  0  0  0
    5.9379  -19.0881   19.9141 C   0  0  0  0  0  0  0  0  0  0  0  0
    5.4176  -18.5680   21.5779 S   0  0  0  0  0  0  0  0  0  0  0  0
    7.9649  -17.6530   20.0194 C   0  0  0  0  0  0  0  0  0  0  0  0
    7.9444  -16.8125   19.0737 O   0  0  0  0  0  0  0  0  0  0  0  0
    8.4986  -17.2421   21.2752 N   0  0  0  0  0  0  0  0  0  0  0  0
    8.9776  -15.8904   21.4069 C   0  0  0  0  0  0  0  0  0  0  0  0
    9.5089  -15.5808   22.7642 C   0  0  0  0  0  0  0  0  0  0  0  0
   10.0348  -14.4476   22.9587 O   0  0  0  0  0  0  0  0  0  0  0  0
    9.4634  -16.4779   23.8421 N   0  0  0  0  0  0  0  0  0  0  0  0
   10.1341  -16.1796   25.1072 C   0  0  1  0  0  0  0  0  0  0  0  0
    9.2089  -16.2989   26.2519 C   0  0  0  0  0  0  0  0  0  0  0  0
    7.9840  -15.5103   26.0891 C   0  0  0  0  0  0  0  0  0  0  0  0
    6.7339  -15.9892   25.6865 C   0  0  0  0  0  0  0  0  0  0  0  0
    5.8512  -14.9767   25.6096 N   0  0  0  0  0  0  0  0  0  0  0  0
    6.4584  -13.8422   25.9445 C   0  0  0  0  0  0  0  0  0  0  0  0
    5.9454  -12.5599   26.0280 C   0  0  0  0  0  0  0  0  0  0  0  0
    6.7729  -11.5291   26.4290 C   0  0  0  0  0  0  0  0  0  0  0  0
    8.0865  -11.8191   26.7322 C   0  0  0  0  0  0  0  0  0  0  0  0
    8.5791  -13.1031   26.6421 C   0  0  0  0  0  0  0  0  0  0  0  0
    7.7731  -14.1571   26.2422 C   0  0  0  0  0  0  0  0  0  0  0  0
   11.3495  -16.9826   25.2488 C   0  0  0  0  0  0  0  0  0  0  0  0
   12.1047  -16.8216   26.2329 O   0  0  0  0  0  0  0  0  0  0  0  0
   11.6567  -17.9425   24.2537 O   0  0  0  0  0  0  0  0  0  0  0  0
  2  1  1  1
  3  2  1  0
  4  3  1  0
  5  2  1  0
  5  6  2  0
  7  5  1  0
  8  7  1  0
  8  9  1  0
  9 10  2  0
 11  9  1  0
 11 12  1  0
 12 13  1  1
 13 14  1  0
 14 15  2  0
 14 22  1  0
 15 16  1  0
 16 17  1  0
 17 18  2  0
 19 18  1  0
 20 19  2  0
 21 22  2  0
 21 20  1  0
 22 17  1  0
 23 25  1  0
 23 12  1  0
 24 23  2  0
M  END
$$$$
