CGW.pdb
     RDKit          3D

 25 26  0  0  1  0  0  0  0  0999 V2000
    7.2423  -19.9102   22.5265 N   0  0  0  0  0  0  0  0  0  0  0  0
    6.9188  -19.9111   21.1323 C   0  0  1  0  0  0  0  0  0  0  0  0
    5.4979  -20.3909   20.8760 C   0  0  0  0  0  0  0  0  0  0  0  0
    4.3608  -19.2702   21.7481 S   0  0  0  0  0  0  0  0  0  0  0  0
    7.1669  -18.5813   20.5303 C   0  0  0  0  0  0  0  0  0  0  0  0
    7.4219  -18.4346   19.2996 O   0  0  0  0  0  0  0  0  0  0  0  0
    7.1215  -17.4183   21.3527 N   0  0  0  0  0  0  0  0  0  0  0  0
    7.9087  -16.2756   20.9676 C   0  0  0  0  0  0  0  0  0  0  0  0
    8.9268  -15.8889   21.9846 C   0  0  0  0  0  0  0  0  0  0  0  0
    9.8337  -15.0753   21.6466 O   0  0  0  0  0  0  0  0  0  0  0  0
    8.9406  -16.3796   23.2990 N   0  0  0  0  0  0  0  0  0  0  0  0
   10.0464  -16.0821   24.2090 C   0  0  1  0  0  0  0  0  0  0  0  0
    9.8742  -14.7673   24.8589 C   0  0  0  0  0  0  0  0  0  0  0  0
    8.5090  -14.5353   25.3399 C   0  0  0  0  0  0  0  0  0  0  0  0
    7.4980  -15.4924   25.4665 C   0  0  0  0  0  0  0  0  0  0  0  0
    6.3635  -14.9150   25.9022 N   0  0  0  0  0  0  0  0  0  0  0  0
    6.5741  -13.6133   26.0726 C   0  0  0  0  0  0  0  0  0  0  0  0
    5.7084  -12.6324   26.5231 C   0  0  0  0  0  0  0  0  0  0  0  0
    6.1665  -11.3349   26.6445 C   0  0  0  0  0  0  0  0  0  0  0  0
    7.4767  -11.0651   26.3097 C   0  0  0  0  0  0  0  0  0  0  0  0
    8.3236  -12.0560   25.8621 C   0  0  0  0  0  0  0  0  0  0  0  0
    7.8923  -13.3662   25.7296 C   0  0  0  0  0  0  0  0  0  0  0  0
   10.2474  -17.1818   25.1536 C   0  0  0  0  0  0  0  0  0  0  0  0
   11.1991  -17.1547   25.9650 O   0  0  0  0  0  0  0  0  0  0  0  0
    9.3487  -18.2763   25.1328 O   0  0  0  0  0  0  0  0  0  0  0  0
  2  1  1  1
  3  2  1  0
  4  3  1  0
  5  2  1  0
  5  6  2  0
  7  5  1  0
  8  7  1  0
  8  9  1  0
  9 10  2  0
 11  9  1  0
 11 12  1  0
 12 13  1  1
 13 14  1  0
 14 15  2  0
 14 22  1  0
 15 16  1  0
 16 17  1  0
 17 18  2  0
 19 18  1  0
 20 19  2  0
 21 22  2  0
 21 20  1  0
 22 17  1  0
 23 25  1  0
 23 12  1  0
 24 23  2  0
M  END
$$$$
