CGW.pdb
     RDKit          3D

 25 26  0  0  1  0  0  0  0  0999 V2000
    7.5987  -17.9746   21.3267 N   0  0  0  0  0  0  0  0  0  0  0  0
    7.7618  -16.7110   20.6745 C   0  0  1  0  0  0  0  0  0  0  0  0
    6.5013  -15.8624   20.7501 C   0  0  0  0  0  0  0  0  0  0  0  0
    5.1290  -16.9397   21.2655 S   0  0  0  0  0  0  0  0  0  0  0  0
    8.9421  -15.9904   21.2037 C   0  0  0  0  0  0  0  0  0  0  0  0
    9.3594  -14.9112   20.6916 O   0  0  0  0  0  0  0  0  0  0  0  0
    9.6426  -16.5190   22.3266 N   0  0  0  0  0  0  0  0  0  0  0  0
   10.8525  -15.8631   22.7502 C   0  0  0  0  0  0  0  0  0  0  0  0
   11.0850  -15.9424   24.2199 C   0  0  0  0  0  0  0  0  0  0  0  0
   12.2365  -15.6637   24.6613 O   0  0  0  0  0  0  0  0  0  0  0  0
   10.0983  -16.3137   25.1459 N   0  0  0  0  0  0  0  0  0  0  0  0
   10.4227  -16.5291   26.5557 C   0  0  1  0  0  0  0  0  0  0  0  0
    9.4713  -15.8304   27.4431 C   0  0  0  0  0  0  0  0  0  0  0  0
    8.2755  -15.3503   26.7442 C   0  0  0  0  0  0  0  0  0  0  0  0
    7.3449  -16.1330   26.0546 C   0  0  0  0  0  0  0  0  0  0  0  0
    6.3977  -15.3518   25.5044 N   0  0  0  0  0  0  0  0  0  0  0  0
    6.6558  -14.0809   25.7977 C   0  0  0  0  0  0  0  0  0  0  0  0
    5.9487  -12.9389   25.4655 C   0  0  0  0  0  0  0  0  0  0  0  0
    6.4026  -11.7129   25.9114 C   0  0  0  0  0  0  0  0  0  0  0  0
    7.5503  -11.6737   26.6750 C   0  0  0  0  0  0  0  0  0  0  0  0
    8.2412  -12.8224   26.9949 C   0  0  0  0  0  0  0  0  0  0  0  0
    7.8104  -14.0661   26.5613 C   0  0  0  0  0  0  0  0  0  0  0  0
   10.5518  -17.9584   26.8430 C   0  0  0  0  0  0  0  0  0  0  0  0
   10.2135  -18.8094   25.9910 O   0  0  0  0  0  0  0  0  0  0  0  0
   11.0641  -18.3613   28.1005 O   0  0  0  0  0  0  0  0  0  0  0  0
  2  1  1  1
  3  2  1  0
  4  3  1  0
  5  2  1  0
  5  6  2  0
  7  5  1  0
  8  7  1  0
  8  9  1  0
  9 10  2  0
 11  9  1  0
 11 12  1  0
 12 13  1  1
 13 14  1  0
 14 15  2  0
 14 22  1  0
 15 16  1  0
 16 17  1  0
 17 18  2  0
 19 18  1  0
 20 19  2  0
 21 22  2  0
 21 20  1  0
 22 17  1  0
 23 25  1  0
 23 12  1  0
 24 23  2  0
M  END
$$$$
