PQF.pdb
     RDKit          3D

 28 29  0  0  1  0  0  0  0  0999 V2000
   28.0960  -20.1637  -15.1687 N   0  0  0  0  0  0  0  0  0  0  0  0
   28.3272  -19.8392  -16.5453 C   0  0  0  0  0  0  0  0  0  0  0  0
   28.1376  -18.3467  -16.6901 C   0  0  0  0  0  0  0  0  0  0  0  0
   27.3303  -18.0175  -15.4473 C   0  0  0  0  0  0  0  0  0  0  0  0
   28.0366  -18.9279  -14.4347 C   0  0  1  0  0  0  0  0  0  0  0  0
   27.2529  -19.0457  -13.1823 C   0  0  0  0  0  0  0  0  0  0  0  0
   26.9857  -18.0257  -12.5343 O   0  0  0  0  0  0  0  0  0  0  0  0
   23.8638  -22.3514  -14.6389 N   0  0  0  0  0  0  0  0  0  0  0  0
   23.0446  -21.5234  -13.8161 C   0  0  0  0  0  0  0  0  0  0  0  0
   21.9474  -21.1605  -14.2958 O   0  0  0  0  0  0  0  0  0  0  0  0
   23.5407  -21.1574  -12.4774 C   0  0  0  0  0  0  0  0  0  0  0  0
   24.9169  -21.6456  -12.1633 C   0  0  0  0  0  0  0  0  0  0  0  0
   25.8846  -20.5997  -11.7173 C   0  0  2  0  0  0  0  0  0  0  0  0
   26.8356  -20.3367  -12.7713 N   0  0  0  0  0  0  0  0  0  0  0  0
   26.5916  -20.8744  -10.4746 C   0  0  0  0  0  0  0  0  0  0  0  0
   27.6353  -21.5977  -10.3995 O   0  0  0  0  0  0  0  0  0  0  0  0
   26.1247  -20.3245   -9.2531 N   0  0  0  0  0  0  0  0  0  0  0  0
   26.8262  -20.6247   -7.9948 C   0  0  1  0  0  0  0  0  0  0  0  0
   27.5792  -19.3783   -7.5699 C   0  0  0  0  0  0  0  0  0  0  0  0
   28.1701  -19.4868   -6.2165 C   0  0  0  0  0  0  0  0  0  0  0  0
   27.6794  -18.8606   -5.0949 C   0  0  0  0  0  0  0  0  0  0  0  0
   28.2585  -19.0006   -3.8442 C   0  0  0  0  0  0  0  0  0  0  0  0
   29.3746  -19.7908   -3.6729 C   0  0  0  0  0  0  0  0  0  0  0  0
   29.8794  -20.4229   -4.7770 C   0  0  0  0  0  0  0  0  0  0  0  0
   29.3048  -20.2842   -6.0179 C   0  0  0  0  0  0  0  0  0  0  0  0
   25.8082  -20.9251   -6.9810 C   0  0  0  0  0  0  0  0  0  0  0  0
   26.1546  -21.5920   -5.8249 O   0  0  0  0  0  0  0  0  0  0  0  0
   24.6268  -20.5813   -7.1561 O   0  0  0  0  0  0  0  0  0  0  0  0
  2  1  1  0
  3  2  1  0
  4  3  1  0
  4  5  1  0
  5  1  1  0
  5  6  1  1
  6  7  2  0
  8  9  1  0
  9 11  1  0
 10  9  2  0
 11 12  1  0
 13 12  1  6
 14  6  1  0
 14 13  1  0
 15 17  1  0
 15 13  1  0
 16 15  2  0
 18 26  1  0
 18 19  1  1
 18 17  1  0
 20 19  1  0
 20 21  2  0
 22 21  1  0
 23 22  2  0
 24 25  2  0
 24 23  1  0
 25 20  1  0
 26 27  1  0
 28 26  2  0
M  END
$$$$
