PQF.pdb
     RDKit          3D

 28 29  0  0  1  0  0  0  0  0999 V2000
   20.8595  -13.3739  -18.2775 N   0  0  0  0  0  0  0  0  0  0  0  0
   20.6150  -14.5558  -19.0503 C   0  0  0  0  0  0  0  0  0  0  0  0
   20.8966  -14.2111  -20.4947 C   0  0  0  0  0  0  0  0  0  0  0  0
   20.8158  -12.6953  -20.4701 C   0  0  0  0  0  0  0  0  0  0  0  0
   21.5174  -12.4232  -19.1333 C   0  0  1  0  0  0  0  0  0  0  0  0
   21.3105  -11.0226  -18.6949 C   0  0  0  0  0  0  0  0  0  0  0  0
   21.8779  -10.1055  -19.3021 O   0  0  0  0  0  0  0  0  0  0  0  0
   16.4179   -9.8291  -14.9099 N   0  0  0  0  0  0  0  0  0  0  0  0
   17.6211  -10.1584  -14.2189 C   0  0  0  0  0  0  0  0  0  0  0  0
   17.5083  -10.4992  -13.0202 O   0  0  0  0  0  0  0  0  0  0  0  0
   18.8958  -10.0748  -14.9541 C   0  0  0  0  0  0  0  0  0  0  0  0
   18.7774   -9.5889  -16.3616 C   0  0  0  0  0  0  0  0  0  0  0  0
   20.0619   -9.4805  -17.1150 C   0  0  2  0  0  0  0  0  0  0  0  0
   20.4611  -10.7860  -17.5848 N   0  0  0  0  0  0  0  0  0  0  0  0
   21.1672   -8.8551  -16.4029 C   0  0  0  0  0  0  0  0  0  0  0  0
   22.2902   -9.4187  -16.2048 O   0  0  0  0  0  0  0  0  0  0  0  0
   21.0277   -7.5427  -15.8828 N   0  0  0  0  0  0  0  0  0  0  0  0
   22.2218   -6.7228  -15.6235 C   0  0  1  0  0  0  0  0  0  0  0  0
   22.8907   -6.4362  -16.9545 C   0  0  0  0  0  0  0  0  0  0  0  0
   24.0541   -5.5274  -16.8388 C   0  0  0  0  0  0  0  0  0  0  0  0
   23.9751   -4.1554  -16.7935 C   0  0  0  0  0  0  0  0  0  0  0  0
   25.0912   -3.3436  -16.6724 C   0  0  0  0  0  0  0  0  0  0  0  0
   26.3524   -3.8935  -16.5911 C   0  0  0  0  0  0  0  0  0  0  0  0
   26.4533   -5.2577  -16.6347 C   0  0  0  0  0  0  0  0  0  0  0  0
   25.3459   -6.0632  -16.7547 C   0  0  0  0  0  0  0  0  0  0  0  0
   21.7694   -5.4526  -15.0437 C   0  0  0  0  0  0  0  0  0  0  0  0
   20.5743   -4.8929  -15.4437 O   0  0  0  0  0  0  0  0  0  0  0  0
   22.4588   -4.8715  -14.1884 O   0  0  0  0  0  0  0  0  0  0  0  0
  2  1  1  0
  3  2  1  0
  4  3  1  0
  4  5  1  0
  5  1  1  0
  5  6  1  1
  6  7  2  0
  8  9  1  0
  9 11  1  0
 10  9  2  0
 11 12  1  0
 13 12  1  1
 14  6  1  0
 14 13  1  0
 15 17  1  0
 15 13  1  0
 16 15  2  0
 18 26  1  0
 18 19  1  6
 18 17  1  0
 20 19  1  0
 20 21  2  0
 22 21  1  0
 23 22  2  0
 24 25  2  0
 24 23  1  0
 25 20  1  0
 26 27  1  0
 28 26  2  0
M  END
$$$$
