PQF.pdb
     RDKit          3D

 28 29  0  0  1  0  0  0  0  0999 V2000
   33.2294  -35.8231   -5.9286 N   0  0  0  0  0  0  0  0  0  0  0  0
   34.1164  -36.1272   -7.0125 C   0  0  0  0  0  0  0  0  0  0  0  0
   33.8797  -37.5711   -7.3913 C   0  0  0  0  0  0  0  0  0  0  0  0
   33.1998  -38.1084   -6.1447 C   0  0  0  0  0  0  0  0  0  0  0  0
   32.2985  -36.9132   -5.8095 C   0  0  1  0  0  0  0  0  0  0  0  0
   31.7336  -37.0342   -4.4447 C   0  0  0  0  0  0  0  0  0  0  0  0
   30.9367  -37.9479   -4.1954 O   0  0  0  0  0  0  0  0  0  0  0  0
   34.7770  -35.1763    0.6792 N   0  0  0  0  0  0  0  0  0  0  0  0
   33.9053  -36.2541    1.0141 C   0  0  0  0  0  0  0  0  0  0  0  0
   34.1317  -36.8490    2.0914 O   0  0  0  0  0  0  0  0  0  0  0  0
   32.8146  -36.5881    0.0809 C   0  0  0  0  0  0  0  0  0  0  0  0
   32.8021  -35.7892   -1.1812 C   0  0  0  0  0  0  0  0  0  0  0  0
   31.6600  -36.0611   -2.1035 C   0  0  2  0  0  0  0  0  0  0  0  0
   32.1328  -36.0881   -3.4674 N   0  0  0  0  0  0  0  0  0  0  0  0
   30.5242  -35.1567   -1.9948 C   0  0  0  0  0  0  0  0  0  0  0  0
   30.3587  -34.1366   -2.7364 O   0  0  0  0  0  0  0  0  0  0  0  0
   29.5204  -35.3881   -1.0195 N   0  0  0  0  0  0  0  0  0  0  0  0
   28.2085  -34.7332   -1.1435 C   0  0  1  0  0  0  0  0  0  0  0  0
   27.5947  -35.1612   -2.4630 C   0  0  0  0  0  0  0  0  0  0  0  0
   26.8646  -34.0700   -3.1477 C   0  0  0  0  0  0  0  0  0  0  0  0
   27.4218  -32.8710   -3.5255 C   0  0  0  0  0  0  0  0  0  0  0  0
   26.7025  -31.8817   -4.1761 C   0  0  0  0  0  0  0  0  0  0  0  0
   25.3700  -32.0661   -4.4758 C   0  0  0  0  0  0  0  0  0  0  0  0
   24.7956  -33.2527   -4.1079 C   0  0  0  0  0  0  0  0  0  0  0  0
   25.5093  -34.2344   -3.4626 C   0  0  0  0  0  0  0  0  0  0  0  0
   27.3619  -35.2273   -0.0510 C   0  0  0  0  0  0  0  0  0  0  0  0
   27.8322  -36.1982    0.8077 O   0  0  0  0  0  0  0  0  0  0  0  0
   26.2153  -34.7753    0.1089 O   0  0  0  0  0  0  0  0  0  0  0  0
  2  1  1  0
  3  2  1  0
  4  3  1  0
  4  5  1  0
  5  1  1  0
  5  6  1  1
  6  7  2  0
  8  9  1  0
  9 11  1  0
 10  9  2  0
 11 12  1  0
 13 12  1  1
 14  6  1  0
 14 13  1  0
 15 17  1  0
 15 13  1  0
 16 15  2  0
 18 26  1  0
 18 19  1  6
 18 17  1  0
 20 19  1  0
 20 21  2  0
 22 21  1  0
 23 22  2  0
 24 25  2  0
 24 23  1  0
 25 20  1  0
 26 27  1  0
 28 26  2  0
M  END
$$$$
