PQF.pdb
     RDKit          3D

 28 29  0  0  1  0  0  0  0  0999 V2000
   21.7919  -10.1847  -16.4770 N   0  0  0  0  0  0  0  0  0  0  0  0
   22.7898  -11.0089  -17.0927 C   0  0  0  0  0  0  0  0  0  0  0  0
   23.7938  -11.3696  -16.0221 C   0  0  0  0  0  0  0  0  0  0  0  0
   23.5263  -10.3010  -14.9774 C   0  0  0  0  0  0  0  0  0  0  0  0
   21.9952  -10.2455  -15.0542 C   0  0  1  0  0  0  0  0  0  0  0  0
   21.4664   -9.0528  -14.3512 C   0  0  0  0  0  0  0  0  0  0  0  0
   21.6432   -8.9380  -13.1316 O   0  0  0  0  0  0  0  0  0  0  0  0
   22.7667   -4.4461  -13.6221 N   0  0  0  0  0  0  0  0  0  0  0  0
   21.5896   -3.7069  -13.9408 C   0  0  0  0  0  0  0  0  0  0  0  0
   21.4815   -2.5700  -13.4294 O   0  0  0  0  0  0  0  0  0  0  0  0
   20.5961   -4.3250  -14.8369 C   0  0  0  0  0  0  0  0  0  0  0  0
   20.9505   -5.6942  -15.3172 C   0  0  0  0  0  0  0  0  0  0  0  0
   20.2869   -6.8208  -14.5964 C   0  0  2  0  0  0  0  0  0  0  0  0
   20.7709   -8.0795  -15.1119 N   0  0  0  0  0  0  0  0  0  0  0  0
   18.8310   -6.8131  -14.6055 C   0  0  0  0  0  0  0  0  0  0  0  0
   18.1245   -5.9337  -14.0176 O   0  0  0  0  0  0  0  0  0  0  0  0
   18.1178   -7.8257  -15.2972 N   0  0  0  0  0  0  0  0  0  0  0  0
   16.6462   -7.8148  -15.3058 C   0  0  1  0  0  0  0  0  0  0  0  0
   16.1888   -7.5154  -16.7208 C   0  0  0  0  0  0  0  0  0  0  0  0
   16.0948   -6.0660  -17.0089 C   0  0  0  0  0  0  0  0  0  0  0  0
   17.0734   -5.3253  -17.6289 C   0  0  0  0  0  0  0  0  0  0  0  0
   16.9372   -3.9715  -17.8896 C   0  0  0  0  0  0  0  0  0  0  0  0
   15.7890   -3.3002  -17.5285 C   0  0  0  0  0  0  0  0  0  0  0  0
   14.8024   -4.0190  -16.9095 C   0  0  0  0  0  0  0  0  0  0  0  0
   14.9374   -5.3623  -16.6510 C   0  0  0  0  0  0  0  0  0  0  0  0
   16.1913   -9.1620  -14.9418 C   0  0  0  0  0  0  0  0  0  0  0  0
   14.8464   -9.4216  -14.7825 O   0  0  0  0  0  0  0  0  0  0  0  0
   17.0134  -10.0788  -14.7742 O   0  0  0  0  0  0  0  0  0  0  0  0
  2  1  1  0
  3  2  1  0
  4  3  1  0
  4  5  1  0
  5  1  1  0
  5  6  1  1
  6  7  2  0
  8  9  1  0
  9 11  1  0
 10  9  2  0
 11 12  1  0
 13 12  1  6
 14  6  1  0
 14 13  1  0
 15 17  1  0
 15 13  1  0
 16 15  2  0
 18 26  1  0
 18 19  1  6
 18 17  1  0
 20 19  1  0
 20 21  2  0
 22 21  1  0
 23 22  2  0
 24 25  2  0
 24 23  1  0
 25 20  1  0
 26 27  1  0
 28 26  2  0
M  END
$$$$
