PQF.pdb
     RDKit          3D

 28 29  0  0  1  0  0  0  0  0999 V2000
   21.9189  -15.0713  -17.8603 N   0  0  0  0  0  0  0  0  0  0  0  0
   21.9550  -16.4006  -18.3948 C   0  0  0  0  0  0  0  0  0  0  0  0
   23.2126  -16.5139  -19.2253 C   0  0  0  0  0  0  0  0  0  0  0  0
   23.5442  -15.0547  -19.4815 C   0  0  0  0  0  0  0  0  0  0  0  0
   23.2021  -14.4691  -18.1056 C   0  0  1  0  0  0  0  0  0  0  0  0
   23.1375  -12.9892  -18.1541 C   0  0  0  0  0  0  0  0  0  0  0  0
   24.1822  -12.3393  -18.2882 O   0  0  0  0  0  0  0  0  0  0  0  0
   18.1680  -10.0557  -20.4167 N   0  0  0  0  0  0  0  0  0  0  0  0
   18.8907   -8.9440  -19.8918 C   0  0  0  0  0  0  0  0  0  0  0  0
   18.4458   -7.8052  -20.1582 O   0  0  0  0  0  0  0  0  0  0  0  0
   20.0946   -9.2100  -19.0844 C   0  0  0  0  0  0  0  0  0  0  0  0
   20.4536  -10.6536  -18.9502 C   0  0  0  0  0  0  0  0  0  0  0  0
   21.6378  -10.9448  -18.0887 C   0  0  2  0  0  0  0  0  0  0  0  0
   21.8673  -12.3695  -18.0438 N   0  0  0  0  0  0  0  0  0  0  0  0
   21.5867  -10.4122  -16.7346 C   0  0  0  0  0  0  0  0  0  0  0  0
   20.7832  -10.8285  -15.8406 O   0  0  0  0  0  0  0  0  0  0  0  0
   22.4651   -9.3682  -16.3463 N   0  0  0  0  0  0  0  0  0  0  0  0
   22.3479   -8.7667  -15.0084 C   0  0  1  0  0  0  0  0  0  0  0  0
   23.6063   -9.1045  -14.2316 C   0  0  0  0  0  0  0  0  0  0  0  0
   24.7741   -9.3732  -15.1014 C   0  0  0  0  0  0  0  0  0  0  0  0
   25.2750   -8.4954  -16.0339 C   0  0  0  0  0  0  0  0  0  0  0  0
   26.3793   -8.7847  -16.8188 C   0  0  0  0  0  0  0  0  0  0  0  0
   27.0327   -9.9915  -16.6919 C   0  0  0  0  0  0  0  0  0  0  0  0
   26.5499  -10.8800  -15.7696 C   0  0  0  0  0  0  0  0  0  0  0  0
   25.4543  -10.5930  -14.9906 C   0  0  0  0  0  0  0  0  0  0  0  0
   22.2813   -7.3107  -15.1818 C   0  0  0  0  0  0  0  0  0  0  0  0
   21.9531   -6.4986  -14.1168 O   0  0  0  0  0  0  0  0  0  0  0  0
   22.5198   -6.7983  -16.2886 O   0  0  0  0  0  0  0  0  0  0  0  0
  2  1  1  0
  3  2  1  0
  4  3  1  0
  4  5  1  0
  5  1  1  0
  5  6  1  6
  6  7  2  0
  8  9  1  0
  9 11  1  0
 10  9  2  0
 11 12  1  0
 13 12  1  1
 14  6  1  0
 14 13  1  0
 15 17  1  0
 15 13  1  0
 16 15  2  0
 18 26  1  0
 18 19  1  1
 18 17  1  0
 20 19  1  0
 20 21  2  0
 22 21  1  0
 23 22  2  0
 24 25  2  0
 24 23  1  0
 25 20  1  0
 26 27  1  0
 28 26  2  0
M  END
$$$$
