PQF.pdb
     RDKit          3D

 28 29  0  0  1  0  0  0  0  0999 V2000
   27.7834  -19.9283  -15.5134 N   0  0  0  0  0  0  0  0  0  0  0  0
   28.0379  -19.5308  -16.8666 C   0  0  0  0  0  0  0  0  0  0  0  0
   28.1275  -18.0221  -16.8794 C   0  0  0  0  0  0  0  0  0  0  0  0
   27.4263  -17.6616  -15.5820 C   0  0  0  0  0  0  0  0  0  0  0  0
   27.9741  -18.7731  -14.6777 C   0  0  1  0  0  0  0  0  0  0  0  0
   27.2127  -18.8553  -13.4088 C   0  0  0  0  0  0  0  0  0  0  0  0
   27.1487  -17.8623  -12.6729 O   0  0  0  0  0  0  0  0  0  0  0  0
   21.2346  -20.4890  -10.7173 N   0  0  0  0  0  0  0  0  0  0  0  0
   22.1515  -20.7872  -11.7680 C   0  0  0  0  0  0  0  0  0  0  0  0
   21.7764  -20.5309  -12.9339 O   0  0  0  0  0  0  0  0  0  0  0  0
   23.4582  -21.3690  -11.4126 C   0  0  0  0  0  0  0  0  0  0  0  0
   24.5364  -21.1540  -12.4237 C   0  0  0  0  0  0  0  0  0  0  0  0
   25.6593  -20.2711  -11.9890 C   0  0  2  0  0  0  0  0  0  0  0  0
   26.5807  -20.0820  -13.0843 N   0  0  0  0  0  0  0  0  0  0  0  0
   26.3866  -20.7024  -10.8037 C   0  0  0  0  0  0  0  0  0  0  0  0
   27.2884  -21.5994  -10.8146 O   0  0  0  0  0  0  0  0  0  0  0  0
   26.1056  -20.1157   -9.5431 N   0  0  0  0  0  0  0  0  0  0  0  0
   26.8811  -20.5125   -8.3571 C   0  0  1  0  0  0  0  0  0  0  0  0
   27.4787  -19.2585   -7.7476 C   0  0  0  0  0  0  0  0  0  0  0  0
   28.2186  -19.5163   -6.4911 C   0  0  0  0  0  0  0  0  0  0  0  0
   27.7295  -19.2715   -5.2295 C   0  0  0  0  0  0  0  0  0  0  0  0
   28.4537  -19.5400   -4.0794 C   0  0  0  0  0  0  0  0  0  0  0  0
   29.7215  -20.0747   -4.1582 C   0  0  0  0  0  0  0  0  0  0  0  0
   30.2275  -20.3256   -5.4048 C   0  0  0  0  0  0  0  0  0  0  0  0
   29.5089  -20.0594   -6.5460 C   0  0  0  0  0  0  0  0  0  0  0  0
   25.9448  -21.1016   -7.3924 C   0  0  0  0  0  0  0  0  0  0  0  0
   26.4157  -21.8580   -6.3401 O   0  0  0  0  0  0  0  0  0  0  0  0
   24.7210  -20.9238   -7.5159 O   0  0  0  0  0  0  0  0  0  0  0  0
  2  1  1  0
  3  2  1  0
  4  3  1  0
  4  5  1  0
  5  1  1  0
  5  6  1  1
  6  7  2  0
  8  9  1  0
  9 11  1  0
 10  9  2  0
 11 12  1  0
 13 12  1  6
 14  6  1  0
 14 13  1  0
 15 17  1  0
 15 13  1  0
 16 15  2  0
 18 26  1  0
 18 19  1  1
 18 17  1  0
 20 19  1  0
 20 21  2  0
 22 21  1  0
 23 22  2  0
 24 25  2  0
 24 23  1  0
 25 20  1  0
 26 27  1  0
 28 26  2  0
M  END
$$$$
