PQF.pdb
     RDKit          3D

 28 29  0  0  1  0  0  0  0  0999 V2000
   27.9251  -18.7753  -18.3200 N   0  0  0  0  0  0  0  0  0  0  0  0
   28.3450  -17.6332  -19.0771 C   0  0  0  0  0  0  0  0  0  0  0  0
   27.9203  -16.4050  -18.3054 C   0  0  0  0  0  0  0  0  0  0  0  0
   26.8509  -16.9724  -17.3893 C   0  0  0  0  0  0  0  0  0  0  0  0
   27.5094  -18.3089  -17.0242 C   0  0  1  0  0  0  0  0  0  0  0  0
   26.5415  -19.2228  -16.3727 C   0  0  0  0  0  0  0  0  0  0  0  0
   25.7577  -19.8771  -17.0723 O   0  0  0  0  0  0  0  0  0  0  0  0
   27.1321  -21.0349  -10.3349 N   0  0  0  0  0  0  0  0  0  0  0  0
   25.7783  -21.4007  -10.5935 C   0  0  0  0  0  0  0  0  0  0  0  0
   25.1772  -22.0176   -9.6858 O   0  0  0  0  0  0  0  0  0  0  0  0
   25.1900  -21.0328  -11.8937 C   0  0  0  0  0  0  0  0  0  0  0  0
   26.1353  -20.3788  -12.8475 C   0  0  0  0  0  0  0  0  0  0  0  0
   25.5535  -19.9927  -14.1672 C   0  0  2  0  0  0  0  0  0  0  0  0
   26.5518  -19.3126  -14.9580 N   0  0  0  0  0  0  0  0  0  0  0  0
   24.3373  -19.1938  -14.1178 C   0  0  0  0  0  0  0  0  0  0  0  0
   24.3070  -17.9728  -13.7625 O   0  0  0  0  0  0  0  0  0  0  0  0
   23.0919  -19.7696  -14.4780 N   0  0  0  0  0  0  0  0  0  0  0  0
   21.8557  -18.9789  -14.3672 C   0  0  1  0  0  0  0  0  0  0  0  0
   21.5733  -18.3596  -15.7228 C   0  0  0  0  0  0  0  0  0  0  0  0
   21.6046  -19.3417  -16.8306 C   0  0  0  0  0  0  0  0  0  0  0  0
   22.6879  -19.5680  -17.6467 C   0  0  0  0  0  0  0  0  0  0  0  0
   22.6764  -20.5073  -18.6650 C   0  0  0  0  0  0  0  0  0  0  0  0
   21.5522  -21.2677  -18.9044 C   0  0  0  0  0  0  0  0  0  0  0  0
   20.4623  -21.0578  -18.1036 C   0  0  0  0  0  0  0  0  0  0  0  0
   20.4738  -20.1261  -17.0931 C   0  0  0  0  0  0  0  0  0  0  0  0
   20.7654  -19.9053  -14.0394 C   0  0  0  0  0  0  0  0  0  0  0  0
   19.5064  -19.4223  -13.7514 O   0  0  0  0  0  0  0  0  0  0  0  0
   20.9677  -21.1314  -14.0185 O   0  0  0  0  0  0  0  0  0  0  0  0
  2  1  1  0
  3  2  1  0
  4  3  1  0
  4  5  1  0
  5  1  1  0
  5  6  1  6
  6  7  2  0
  8  9  1  0
  9 11  1  0
 10  9  2  0
 11 12  1  0
 13 12  1  1
 14  6  1  0
 14 13  1  0
 15 17  1  0
 15 13  1  0
 16 15  2  0
 18 26  1  0
 18 19  1  6
 18 17  1  0
 20 19  1  0
 20 21  2  0
 22 21  1  0
 23 22  2  0
 24 25  2  0
 24 23  1  0
 25 20  1  0
 26 27  1  0
 28 26  2  0
M  END
$$$$
