PQF.pdb
     RDKit          3D

 28 29  0  0  1  0  0  0  0  0999 V2000
   26.9217  -18.3226  -15.6336 N   0  0  0  0  0  0  0  0  0  0  0  0
   28.2715  -17.8609  -15.7707 C   0  0  0  0  0  0  0  0  0  0  0  0
   28.7718  -18.3370  -17.1151 C   0  0  0  0  0  0  0  0  0  0  0  0
   27.7973  -19.4588  -17.4259 C   0  0  0  0  0  0  0  0  0  0  0  0
   26.4996  -18.8192  -16.9160 C   0  0  1  0  0  0  0  0  0  0  0  0
   25.4136  -19.8221  -16.8098 C   0  0  0  0  0  0  0  0  0  0  0  0
   24.5499  -19.8787  -17.6945 O   0  0  0  0  0  0  0  0  0  0  0  0
   25.9077  -25.5337  -16.4394 N   0  0  0  0  0  0  0  0  0  0  0  0
   26.8421  -24.4565  -16.4339 C   0  0  0  0  0  0  0  0  0  0  0  0
   28.0216  -24.7311  -16.7486 O   0  0  0  0  0  0  0  0  0  0  0  0
   26.3605  -23.1141  -16.0625 C   0  0  0  0  0  0  0  0  0  0  0  0
   24.8991  -23.0320  -15.7647 C   0  0  0  0  0  0  0  0  0  0  0  0
   24.3897  -21.6738  -15.4112 C   0  0  2  0  0  0  0  0  0  0  0  0
   25.4068  -20.6867  -15.6865 N   0  0  0  0  0  0  0  0  0  0  0  0
   23.9025  -21.5109  -14.0489 C   0  0  0  0  0  0  0  0  0  0  0  0
   24.6151  -21.7100  -13.0142 O   0  0  0  0  0  0  0  0  0  0  0  0
   22.5624  -21.1086  -13.8152 N   0  0  0  0  0  0  0  0  0  0  0  0
   22.0530  -21.0091  -12.4382 C   0  0  1  0  0  0  0  0  0  0  0  0
   22.6880  -19.7929  -11.7911 C   0  0  0  0  0  0  0  0  0  0  0  0
   23.3960  -20.1067  -10.5290 C   0  0  0  0  0  0  0  0  0  0  0  0
   24.7506  -20.3172  -10.4220 C   0  0  0  0  0  0  0  0  0  0  0  0
   25.3731  -20.5966   -9.2163 C   0  0  0  0  0  0  0  0  0  0  0  0
   24.6410  -20.6765   -8.0514 C   0  0  0  0  0  0  0  0  0  0  0  0
   23.2905  -20.4707   -8.1359 C   0  0  0  0  0  0  0  0  0  0  0  0
   22.6729  -20.1932   -9.3321 C   0  0  0  0  0  0  0  0  0  0  0  0
   20.6032  -20.7945  -12.5168 C   0  0  0  0  0  0  0  0  0  0  0  0
   19.9861  -20.6609  -13.7427 O   0  0  0  0  0  0  0  0  0  0  0  0
   19.9204  -20.7313  -11.4803 O   0  0  0  0  0  0  0  0  0  0  0  0
  2  1  1  0
  3  2  1  0
  4  3  1  0
  4  5  1  0
  5  1  1  0
  5  6  1  1
  6  7  2  0
  8  9  1  0
  9 11  1  0
 10  9  2  0
 11 12  1  0
 13 12  1  1
 14  6  1  0
 14 13  1  0
 15 17  1  0
 15 13  1  0
 16 15  2  0
 18 26  1  0
 18 19  1  6
 18 17  1  0
 20 19  1  0
 20 21  2  0
 22 21  1  0
 23 22  2  0
 24 25  2  0
 24 23  1  0
 25 20  1  0
 26 27  1  0
 28 26  2  0
M  END
$$$$
