PQF.pdb
     RDKit          3D

 28 29  0  0  1  0  0  0  0  0999 V2000
   28.8433  -22.4849  -16.1265 N   0  0  0  0  0  0  0  0  0  0  0  0
   30.0560  -22.9253  -16.7507 C   0  0  0  0  0  0  0  0  0  0  0  0
   30.1056  -22.2957  -18.1238 C   0  0  0  0  0  0  0  0  0  0  0  0
   28.6502  -21.9245  -18.3444 C   0  0  0  0  0  0  0  0  0  0  0  0
   28.2961  -21.4294  -16.9363 C   0  0  1  0  0  0  0  0  0  0  0  0
   26.8302  -21.2859  -16.7716 C   0  0  0  0  0  0  0  0  0  0  0  0
   26.2026  -20.5415  -17.5357 O   0  0  0  0  0  0  0  0  0  0  0  0
   23.5914  -25.6918  -13.6508 N   0  0  0  0  0  0  0  0  0  0  0  0
   22.5580  -24.7474  -13.9225 C   0  0  0  0  0  0  0  0  0  0  0  0
   21.3907  -25.0876  -13.6268 O   0  0  0  0  0  0  0  0  0  0  0  0
   22.9313  -23.4552  -14.5249 C   0  0  0  0  0  0  0  0  0  0  0  0
   24.3911  -23.2861  -14.7923 C   0  0  0  0  0  0  0  0  0  0  0  0
   24.7778  -22.0138  -15.4711 C   0  0  2  0  0  0  0  0  0  0  0  0
   26.1975  -22.0152  -15.7336 N   0  0  0  0  0  0  0  0  0  0  0  0
   24.4065  -20.7860  -14.7823 C   0  0  0  0  0  0  0  0  0  0  0  0
   24.8874  -20.4318  -13.6592 O   0  0  0  0  0  0  0  0  0  0  0  0
   23.4573  -19.9043  -15.3603 N   0  0  0  0  0  0  0  0  0  0  0  0
   23.1206  -18.6403  -14.6862 C   0  0  1  0  0  0  0  0  0  0  0  0
   23.4615  -17.5019  -15.6291 C   0  0  0  0  0  0  0  0  0  0  0  0
   24.9001  -17.4416  -15.9744 C   0  0  0  0  0  0  0  0  0  0  0  0
   25.4524  -17.9567  -17.1235 C   0  0  0  0  0  0  0  0  0  0  0  0
   26.8045  -17.8665  -17.4114 C   0  0  0  0  0  0  0  0  0  0  0  0
   27.6674  -17.2429  -16.5363 C   0  0  0  0  0  0  0  0  0  0  0  0
   27.1381  -16.7235  -15.3860 C   0  0  0  0  0  0  0  0  0  0  0  0
   25.7965  -16.8128  -15.1003 C   0  0  0  0  0  0  0  0  0  0  0  0
   21.6718  -18.6359  -14.4513 C   0  0  0  0  0  0  0  0  0  0  0  0
   20.8827  -19.6466  -14.9584 O   0  0  0  0  0  0  0  0  0  0  0  0
   21.1447  -17.7222  -13.7941 O   0  0  0  0  0  0  0  0  0  0  0  0
  2  1  1  0
  3  2  1  0
  4  3  1  0
  4  5  1  0
  5  1  1  0
  5  6  1  6
  6  7  2  0
  8  9  1  0
  9 11  1  0
 10  9  2  0
 11 12  1  0
 13 12  1  1
 14  6  1  0
 14 13  1  0
 15 17  1  0
 15 13  1  0
 16 15  2  0
 18 26  1  0
 18 19  1  6
 18 17  1  0
 20 19  1  0
 20 21  2  0
 22 21  1  0
 23 22  2  0
 24 25  2  0
 24 23  1  0
 25 20  1  0
 26 27  1  0
 28 26  2  0
M  END
$$$$
