PQF.pdb
     RDKit          3D

 28 29  0  0  1  0  0  0  0  0999 V2000
   14.4921  -19.8921    3.6681 N   0  0  0  0  0  0  0  0  0  0  0  0
   13.3313  -20.3678    2.9750 C   0  0  0  0  0  0  0  0  0  0  0  0
   12.7721  -19.2039    2.1895 C   0  0  0  0  0  0  0  0  0  0  0  0
   13.4064  -18.0212    2.8992 C   0  0  0  0  0  0  0  0  0  0  0  0
   14.8096  -18.5912    3.1425 C   0  0  1  0  0  0  0  0  0  0  0  0
   15.5675  -17.7569    4.1048 C   0  0  0  0  0  0  0  0  0  0  0  0
   15.9998  -16.6545    3.7447 O   0  0  0  0  0  0  0  0  0  0  0  0
   15.4843  -19.0995   10.1849 N   0  0  0  0  0  0  0  0  0  0  0  0
   16.0865  -17.8073   10.2205 C   0  0  0  0  0  0  0  0  0  0  0  0
   16.4804  -17.3989   11.3358 O   0  0  0  0  0  0  0  0  0  0  0  0
   16.2005  -17.0532    8.9594 C   0  0  0  0  0  0  0  0  0  0  0  0
   15.6536  -17.7530    7.7584 C   0  0  0  0  0  0  0  0  0  0  0  0
   16.4069  -17.5347    6.4880 C   0  0  2  0  0  0  0  0  0  0  0  0
   15.7697  -18.2601    5.4146 N   0  0  0  0  0  0  0  0  0  0  0  0
   17.8260  -17.8579    6.5253 C   0  0  0  0  0  0  0  0  0  0  0  0
   18.3052  -18.9813    6.1695 O   0  0  0  0  0  0  0  0  0  0  0  0
   18.7642  -16.8948    6.9776 N   0  0  0  0  0  0  0  0  0  0  0  0
   20.2021  -17.2077    6.9704 C   0  0  1  0  0  0  0  0  0  0  0  0
   20.8607  -16.3571    5.9010 C   0  0  0  0  0  0  0  0  0  0  0  0
   20.5605  -14.9135    6.0371 C   0  0  0  0  0  0  0  0  0  0  0  0
   21.2550  -14.0413    6.8421 C   0  0  0  0  0  0  0  0  0  0  0  0
   20.9461  -12.6936    6.9293 C   0  0  0  0  0  0  0  0  0  0  0  0
   19.9066  -12.1639    6.1957 C   0  0  0  0  0  0  0  0  0  0  0  0
   19.2020  -13.0151    5.3882 C   0  0  0  0  0  0  0  0  0  0  0  0
   19.5085  -14.3523    5.3015 C   0  0  0  0  0  0  0  0  0  0  0  0
   20.7460  -16.8206    8.2776 C   0  0  0  0  0  0  0  0  0  0  0  0
   22.0591  -17.0988    8.5936 O   0  0  0  0  0  0  0  0  0  0  0  0
   20.0285  -16.2395    9.1095 O   0  0  0  0  0  0  0  0  0  0  0  0
  2  1  1  0
  3  2  1  0
  4  3  1  0
  4  5  1  0
  5  1  1  0
  5  6  1  1
  6  7  2  0
  8  9  1  0
  9 11  1  0
 10  9  2  0
 11 12  1  0
 13 12  1  1
 14  6  1  0
 14 13  1  0
 15 17  1  0
 15 13  1  0
 16 15  2  0
 18 26  1  0
 18 19  1  6
 18 17  1  0
 20 19  1  0
 20 21  2  0
 22 21  1  0
 23 22  2  0
 24 25  2  0
 24 23  1  0
 25 20  1  0
 26 27  1  0
 28 26  2  0
M  END
$$$$
