PQF.pdb
     RDKit          3D

 28 29  0  0  1  0  0  0  0  0999 V2000
   28.5555  -19.7558  -15.1346 N   0  0  0  0  0  0  0  0  0  0  0  0
   28.9190  -19.3869  -16.4709 C   0  0  0  0  0  0  0  0  0  0  0  0
   28.3960  -17.9885  -16.7060 C   0  0  0  0  0  0  0  0  0  0  0  0
   27.3433  -17.8673  -15.6188 C   0  0  0  0  0  0  0  0  0  0  0  0
   28.0782  -18.5719  -14.4713 C   0  0  1  0  0  0  0  0  0  0  0  0
   27.1559  -18.8778  -13.3523 C   0  0  0  0  0  0  0  0  0  0  0  0
   26.5674  -17.9520  -12.7791 O   0  0  0  0  0  0  0  0  0  0  0  0
   23.3881  -23.8568  -13.2380 N   0  0  0  0  0  0  0  0  0  0  0  0
   22.9744  -22.5284  -13.5508 C   0  0  0  0  0  0  0  0  0  0  0  0
   21.8077  -22.3872  -13.9804 O   0  0  0  0  0  0  0  0  0  0  0  0
   23.9364  -21.4301  -13.3500 C   0  0  0  0  0  0  0  0  0  0  0  0
   25.2109  -21.8272  -12.6798 C   0  0  0  0  0  0  0  0  0  0  0  0
   25.9826  -20.7132  -12.0531 C   0  0  2  0  0  0  0  0  0  0  0  0
   26.9821  -20.2341  -12.9782 N   0  0  0  0  0  0  0  0  0  0  0  0
   26.6028  -21.0110  -10.7700 C   0  0  0  0  0  0  0  0  0  0  0  0
   27.4606  -21.9341  -10.5962 O   0  0  0  0  0  0  0  0  0  0  0  0
   26.2603  -20.2535   -9.6205 N   0  0  0  0  0  0  0  0  0  0  0  0
   26.8376  -20.5994   -8.3119 C   0  0  1  0  0  0  0  0  0  0  0  0
   27.5255  -19.3641   -7.7626 C   0  0  0  0  0  0  0  0  0  0  0  0
   28.0724  -19.5582   -6.4003 C   0  0  0  0  0  0  0  0  0  0  0  0
   27.4426  -19.1716   -5.2407 C   0  0  0  0  0  0  0  0  0  0  0  0
   27.9871  -19.3847   -3.9847 C   0  0  0  0  0  0  0  0  0  0  0  0
   29.2093  -20.0064   -3.8469 C   0  0  0  0  0  0  0  0  0  0  0  0
   29.8534  -20.3989   -4.9890 C   0  0  0  0  0  0  0  0  0  0  0  0
   29.3131  -20.1877   -6.2352 C   0  0  0  0  0  0  0  0  0  0  0  0
   25.7285  -20.9541   -7.4184 C   0  0  0  0  0  0  0  0  0  0  0  0
   25.9652  -21.6851   -6.2734 O   0  0  0  0  0  0  0  0  0  0  0  0
   24.5680  -20.5990   -7.6861 O   0  0  0  0  0  0  0  0  0  0  0  0
  2  1  1  0
  3  2  1  0
  4  3  1  0
  4  5  1  0
  5  1  1  0
  5  6  1  1
  6  7  2  0
  8  9  1  0
  9 11  1  0
 10  9  2  0
 11 12  1  0
 13 12  1  6
 14  6  1  0
 14 13  1  0
 15 17  1  0
 15 13  1  0
 16 15  2  0
 18 26  1  0
 18 19  1  1
 18 17  1  0
 20 19  1  0
 20 21  2  0
 22 21  1  0
 23 22  2  0
 24 25  2  0
 24 23  1  0
 25 20  1  0
 26 27  1  0
 28 26  2  0
M  END
$$$$
