PQF.pdb
     RDKit          3D

 28 29  0  0  1  0  0  0  0  0999 V2000
   27.7803  -20.5721  -15.3282 N   0  0  0  0  0  0  0  0  0  0  0  0
   28.1050  -20.3805  -16.7109 C   0  0  0  0  0  0  0  0  0  0  0  0
   28.4066  -18.9116  -16.8994 C   0  0  0  0  0  0  0  0  0  0  0  0
   27.7473  -18.3029  -15.6748 C   0  0  0  0  0  0  0  0  0  0  0  0
   28.1216  -19.3617  -14.6298 C   0  0  1  0  0  0  0  0  0  0  0  0
   27.3407  -19.1833  -13.3828 C   0  0  0  0  0  0  0  0  0  0  0  0
   27.4576  -18.1339  -12.7372 O   0  0  0  0  0  0  0  0  0  0  0  0
   21.7747  -21.8138  -13.1668 N   0  0  0  0  0  0  0  0  0  0  0  0
   21.8103  -21.2226  -11.8696 C   0  0  0  0  0  0  0  0  0  0  0  0
   20.7442  -21.2342  -11.2147 O   0  0  0  0  0  0  0  0  0  0  0  0
   23.0821  -20.6465  -11.3976 C   0  0  0  0  0  0  0  0  0  0  0  0
   24.2064  -20.7201  -12.3783 C   0  0  0  0  0  0  0  0  0  0  0  0
   25.5005  -20.1341  -11.9189 C   0  0  2  0  0  0  0  0  0  0  0  0
   26.4807  -20.2336  -12.9742 N   0  0  0  0  0  0  0  0  0  0  0  0
   26.0471  -20.6843  -10.6867 C   0  0  0  0  0  0  0  0  0  0  0  0
   26.5578  -21.8458  -10.5961 O   0  0  0  0  0  0  0  0  0  0  0  0
   26.0297  -19.9158   -9.4944 N   0  0  0  0  0  0  0  0  0  0  0  0
   26.6990  -20.4192   -8.2843 C   0  0  1  0  0  0  0  0  0  0  0  0
   27.3310  -19.2376   -7.5733 C   0  0  0  0  0  0  0  0  0  0  0  0
   27.8734  -19.5819   -6.2392 C   0  0  0  0  0  0  0  0  0  0  0  0
   28.2268  -20.8495   -5.8403 C   0  0  0  0  0  0  0  0  0  0  0  0
   28.7425  -21.1239   -4.5841 C   0  0  0  0  0  0  0  0  0  0  0  0
   28.9248  -20.1131   -3.6652 C   0  0  0  0  0  0  0  0  0  0  0  0
   28.5789  -18.8436   -4.0420 C   0  0  0  0  0  0  0  0  0  0  0  0
   28.0673  -18.5713   -5.2884 C   0  0  0  0  0  0  0  0  0  0  0  0
   25.6661  -20.9922   -7.4130 C   0  0  0  0  0  0  0  0  0  0  0  0
   26.0131  -21.8748   -6.4120 O   0  0  0  0  0  0  0  0  0  0  0  0
   24.4716  -20.6872   -7.5700 O   0  0  0  0  0  0  0  0  0  0  0  0
  2  1  1  0
  3  2  1  0
  4  3  1  0
  4  5  1  0
  5  1  1  0
  5  6  1  1
  6  7  2  0
  8  9  1  0
  9 11  1  0
 10  9  2  0
 11 12  1  0
 13 12  1  6
 14  6  1  0
 14 13  1  0
 15 17  1  0
 15 13  1  0
 16 15  2  0
 18 26  1  0
 18 19  1  1
 18 17  1  0
 20 19  1  0
 20 21  2  0
 22 21  1  0
 23 22  2  0
 24 25  2  0
 24 23  1  0
 25 20  1  0
 26 27  1  0
 28 26  2  0
M  END
$$$$
