PQF.pdb
     RDKit          3D

 28 29  0  0  1  0  0  0  0  0999 V2000
   27.4668  -21.1124  -15.4196 N   0  0  0  0  0  0  0  0  0  0  0  0
   27.7014  -21.0021  -16.8291 C   0  0  0  0  0  0  0  0  0  0  0  0
   28.2280  -19.6091  -17.0865 C   0  0  0  0  0  0  0  0  0  0  0  0
   27.7855  -18.8767  -15.8325 C   0  0  0  0  0  0  0  0  0  0  0  0
   28.0637  -19.9657  -14.7885 C   0  0  1  0  0  0  0  0  0  0  0  0
   27.4315  -19.6364  -13.4892 C   0  0  0  0  0  0  0  0  0  0  0  0
   27.7971  -18.6266  -12.8739 O   0  0  0  0  0  0  0  0  0  0  0  0
   21.5666  -21.5341  -12.9072 N   0  0  0  0  0  0  0  0  0  0  0  0
   21.7147  -20.8268  -11.6778 C   0  0  0  0  0  0  0  0  0  0  0  0
   20.6852  -20.6846  -10.9810 O   0  0  0  0  0  0  0  0  0  0  0  0
   23.0510  -20.3192  -11.3189 C   0  0  0  0  0  0  0  0  0  0  0  0
   24.1160  -20.5853  -12.3319 C   0  0  0  0  0  0  0  0  0  0  0  0
   25.4953  -20.1694  -11.9398 C   0  0  2  0  0  0  0  0  0  0  0  0
   26.4215  -20.5007  -12.9967 N   0  0  0  0  0  0  0  0  0  0  0  0
   25.9843  -20.6975  -10.6742 C   0  0  0  0  0  0  0  0  0  0  0  0
   26.2869  -21.9188  -10.4870 O   0  0  0  0  0  0  0  0  0  0  0  0
   26.1478  -19.8364   -9.5588 N   0  0  0  0  0  0  0  0  0  0  0  0
   26.7353  -20.3508   -8.3115 C   0  0  1  0  0  0  0  0  0  0  0  0
   27.4987  -19.2180   -7.6519 C   0  0  0  0  0  0  0  0  0  0  0  0
   28.0926  -19.5959   -6.3491 C   0  0  0  0  0  0  0  0  0  0  0  0
   27.5355  -19.3162   -5.1235 C   0  0  0  0  0  0  0  0  0  0  0  0
   28.1213  -19.7004   -3.9283 C   0  0  0  0  0  0  0  0  0  0  0  0
   29.3127  -20.3932   -3.9224 C   0  0  0  0  0  0  0  0  0  0  0  0
   29.8845  -20.6815   -5.1321 C   0  0  0  0  0  0  0  0  0  0  0  0
   29.3032  -20.3005   -6.3180 C   0  0  0  0  0  0  0  0  0  0  0  0
   25.6293  -20.7453   -7.4308 C   0  0  0  0  0  0  0  0  0  0  0  0
   25.8384  -21.6597   -6.4201 O   0  0  0  0  0  0  0  0  0  0  0  0
   24.4966  -20.2591   -7.5886 O   0  0  0  0  0  0  0  0  0  0  0  0
  2  1  1  0
  3  2  1  0
  4  3  1  0
  4  5  1  0
  5  1  1  0
  5  6  1  1
  6  7  2  0
  8  9  1  0
  9 11  1  0
 10  9  2  0
 11 12  1  0
 13 12  1  6
 14  6  1  0
 14 13  1  0
 15 17  1  0
 15 13  1  0
 16 15  2  0
 18 26  1  0
 18 19  1  1
 18 17  1  0
 20 19  1  0
 20 21  2  0
 22 21  1  0
 23 22  2  0
 24 25  2  0
 24 23  1  0
 25 20  1  0
 26 27  1  0
 28 26  2  0
M  END
$$$$
