CRT.pdb
     RDKit          3D

 25 24  0  0  1  0  0  0  0  0999 V2000
    8.0769  -15.1987   17.8214 N   0  0  0  0  0  0  0  0  0  0  0  0
    8.4164  -14.3345   18.9747 C   0  0  1  0  0  0  0  0  0  0  0  0
    7.8283  -12.9940   18.7150 C   0  0  0  0  0  0  0  0  0  0  0  0
    8.0301  -11.7968   20.0473 S   0  0  0  0  0  0  0  0  0  0  0  0
    8.0647  -14.9985   20.2264 C   0  0  0  0  0  0  0  0  0  0  0  0
    7.3829  -16.0675   20.1790 O   0  0  0  0  0  0  0  0  0  0  0  0
   11.2720  -20.6633   23.2269 N   0  0  0  0  0  0  0  0  0  0  0  0
   10.8848  -20.0430   24.4703 C   0  0  0  0  0  0  0  0  0  0  0  0
   11.6010  -20.1939   25.5242 N   0  0  0  0  0  0  0  0  0  0  0  0
    9.7093  -19.2585   24.5644 N   0  0  0  0  0  0  0  0  0  0  0  0
    9.3327  -18.3683   23.5082 C   0  0  0  0  0  0  0  0  0  0  0  0
   10.3349  -17.2278   23.3320 C   0  0  0  0  0  0  0  0  0  0  0  0
    9.7722  -16.3412   22.2564 C   0  0  0  0  0  0  0  0  0  0  0  0
    8.6378  -15.4684   22.6318 C   0  0  2  0  0  0  0  0  0  0  0  0
    8.4304  -14.5478   21.4974 N   0  0  0  0  0  0  0  0  0  0  0  0
    8.8938  -14.7391   23.8708 C   0  0  0  0  0  0  0  0  0  0  0  0
   10.0089  -14.1763   24.0404 O   0  0  0  0  0  0  0  0  0  0  0  0
   11.3682  -19.7154   26.4082 C   0  0  0  0  0  0  0  0  0  0  0  0
    6.7449  -11.7285   25.3750 C   0  0  2  0  0  0  0  0  0  0  0  0
    7.0385  -12.8158   26.4101 O   0  0  0  0  0  0  0  0  0  0  0  0
    5.8895  -13.5941   26.6150 C   0  0  2  0  0  0  0  0  0  0  0  0
    8.2151  -13.6473   26.0289 N   0  0  0  0  0  0  0  0  0  0  0  0
    7.9817  -14.5878   24.9616 C   0  0  0  0  0  0  0  0  0  0  0  0
    8.6301  -14.3707   27.2859 O   0  0  0  0  0  0  0  0  0  0  0  0
    9.0707  -13.7439   28.4086 O   0  0  0  0  0  0  0  0  0  0  0  0
  2  1  1  6
  2  3  1  0
  2  5  1  0
  4  3  1  0
  5  6  2  0
  7  8  1  0
  8 10  1  0
  8  9  2  0
 10 11  1  0
 11 12  1  0
 12 13  1  0
 14 13  1  6
 15 14  1  0
 15  5  1  0
 16 14  1  0
 16 17  2  0
 19 18  1  1
 19 21  1  0
 20 19  1  0
 21 22  1  1
 21 23  1  0
 22 16  1  0
 23 24  1  0
 25 23  2  0
M  END
$$$$
