CRT.pdb
     RDKit          3D

 25 24  0  0  1  0  0  0  0  0999 V2000
    7.4128  -15.0115   18.6680 N   0  0  0  0  0  0  0  0  0  0  0  0
    8.1857  -14.2406   19.6682 C   0  0  1  0  0  0  0  0  0  0  0  0
    7.8372  -12.8062   19.4913 C   0  0  0  0  0  0  0  0  0  0  0  0
    8.3558  -12.0783   17.9260 S   0  0  0  0  0  0  0  0  0  0  0  0
    8.0158  -14.8210   20.9970 C   0  0  0  0  0  0  0  0  0  0  0  0
    6.8844  -15.3005   21.3128 O   0  0  0  0  0  0  0  0  0  0  0  0
   13.1694  -20.4030   23.0602 N   0  0  0  0  0  0  0  0  0  0  0  0
   11.9501  -20.5134   23.8230 C   0  0  0  0  0  0  0  0  0  0  0  0
   11.8105  -21.4428   24.6968 N   0  0  0  0  0  0  0  0  0  0  0  0
   10.8780  -19.6087   23.6283 N   0  0  0  0  0  0  0  0  0  0  0  0
   10.9021  -18.6594   22.5568 C   0  0  0  0  0  0  0  0  0  0  0  0
    9.6099  -17.8468   22.4787 C   0  0  0  0  0  0  0  0  0  0  0  0
    9.8231  -16.6405   23.3499 C   0  0  0  0  0  0  0  0  0  0  0  0
    8.8101  -15.5652   23.2664 C   0  0  2  0  0  0  0  0  0  0  0  0
    9.0190  -14.8993   21.9664 N   0  0  0  0  0  0  0  0  0  0  0  0
    8.9212  -14.6200   24.3740 C   0  0  0  0  0  0  0  0  0  0  0  0
    9.8540  -13.7722   24.3748 O   0  0  0  0  0  0  0  0  0  0  0  0
   10.9300  -21.5628   25.2210 C   0  0  0  0  0  0  0  0  0  0  0  0
    6.9298  -11.6149   25.6739 C   0  0  2  0  0  0  0  0  0  0  0  0
    7.0701  -12.6641   26.7781 O   0  0  0  0  0  0  0  0  0  0  0  0
    5.8695  -13.3785   26.9049 C   0  0  2  0  0  0  0  0  0  0  0  0
    8.2344  -13.5655   26.5480 N   0  0  0  0  0  0  0  0  0  0  0  0
    8.0537  -14.5477   25.5084 C   0  0  0  0  0  0  0  0  0  0  0  0
    8.4967  -14.2419   27.8707 O   0  0  0  0  0  0  0  0  0  0  0  0
    8.8381  -13.5765   29.0056 O   0  0  0  0  0  0  0  0  0  0  0  0
  2  1  1  6
  2  3  1  0
  2  5  1  0
  4  3  1  0
  5  6  2  0
  7  8  1  0
  8 10  1  0
  8  9  2  0
 10 11  1  0
 11 12  1  0
 12 13  1  0
 14 13  1  1
 15 14  1  0
 15  5  1  0
 16 14  1  0
 16 17  2  0
 19 18  1  1
 19 21  1  0
 20 19  1  0
 21 22  1  1
 21 23  1  0
 22 16  1  0
 23 24  1  0
 25 23  2  0
M  END
$$$$
