CRT.pdb
     RDKit          3D

 25 24  0  0  1  0  0  0  0  0999 V2000
    7.5153  -13.8099   17.4756 N   0  0  0  0  0  0  0  0  0  0  0  0
    8.7549  -13.7751   18.2846 C   0  0  1  0  0  0  0  0  0  0  0  0
    8.9028  -12.3936   18.8136 C   0  0  0  0  0  0  0  0  0  0  0  0
    7.7565  -11.9505   20.1321 S   0  0  0  0  0  0  0  0  0  0  0  0
    8.7638  -14.8739   19.2457 C   0  0  0  0  0  0  0  0  0  0  0  0
    7.6554  -15.3590   19.6277 O   0  0  0  0  0  0  0  0  0  0  0  0
   14.1178  -21.2287   19.4289 N   0  0  0  0  0  0  0  0  0  0  0  0
   12.7955  -20.9884   18.9047 C   0  0  0  0  0  0  0  0  0  0  0  0
   12.4112  -21.5579   17.8209 N   0  0  0  0  0  0  0  0  0  0  0  0
   11.8913  -20.1202   19.5638 N   0  0  0  0  0  0  0  0  0  0  0  0
   12.2500  -19.4802   20.7933 C   0  0  0  0  0  0  0  0  0  0  0  0
   11.0970  -18.6619   21.3738 C   0  0  0  0  0  0  0  0  0  0  0  0
   10.9622  -17.4501   20.4946 C   0  0  0  0  0  0  0  0  0  0  0  0
    9.8625  -16.5116   20.8097 C   0  0  2  0  0  0  0  0  0  0  0  0
    9.9162  -15.4514   19.7849 N   0  0  0  0  0  0  0  0  0  0  0  0
    9.9821  -15.9588   22.1561 C   0  0  0  0  0  0  0  0  0  0  0  0
   10.9868  -15.2573   22.4516 O   0  0  0  0  0  0  0  0  0  0  0  0
   11.4643  -21.4087   17.4392 C   0  0  0  0  0  0  0  0  0  0  0  0
    7.9604  -13.4420   24.4623 C   0  0  2  0  0  0  0  0  0  0  0  0
    8.1174  -14.8213   25.1047 O   0  0  0  0  0  0  0  0  0  0  0  0
    6.9144  -15.5339   24.9913 C   0  0  2  0  0  0  0  0  0  0  0  0
    9.2690  -15.5758   24.5340 N   0  0  0  0  0  0  0  0  0  0  0  0
    9.0473  -16.1346   23.2237 C   0  0  0  0  0  0  0  0  0  0  0  0
    9.5750  -16.6693   25.5272 O   0  0  0  0  0  0  0  0  0  0  0  0
    9.9122  -16.4404   26.8238 O   0  0  0  0  0  0  0  0  0  0  0  0
  2  1  1  1
  2  3  1  0
  2  5  1  0
  4  3  1  0
  5  6  2  0
  7  8  1  0
  8 10  1  0
  8  9  2  0
 10 11  1  0
 11 12  1  0
 12 13  1  0
 14 13  1  6
 15 14  1  0
 15  5  1  0
 16 14  1  0
 16 17  2  0
 19 18  1  1
 19 21  1  0
 20 19  1  0
 21 22  1  1
 21 23  1  0
 22 16  1  0
 23 24  1  0
 25 23  2  0
M  END
$$$$
