CRT.pdb
     RDKit          3D

 25 24  0  0  1  0  0  0  0  0999 V2000
    7.8124  -14.6653   18.3166 N   0  0  0  0  0  0  0  0  0  0  0  0
    8.4622  -14.1793   19.5551 C   0  0  1  0  0  0  0  0  0  0  0  0
    8.5600  -12.6992   19.4555 C   0  0  0  0  0  0  0  0  0  0  0  0
    9.9720  -12.0852   18.5183 S   0  0  0  0  0  0  0  0  0  0  0  0
    7.7975  -14.7377   20.7288 C   0  0  0  0  0  0  0  0  0  0  0  0
    6.5310  -14.6949   20.7904 O   0  0  0  0  0  0  0  0  0  0  0  0
    9.1578  -19.2856   26.8603 N   0  0  0  0  0  0  0  0  0  0  0  0
    7.9859  -20.0922   26.6217 C   0  0  0  0  0  0  0  0  0  0  0  0
    7.4460  -20.7555   27.5783 N   0  0  0  0  0  0  0  0  0  0  0  0
    7.4039  -20.1781   25.3333 N   0  0  0  0  0  0  0  0  0  0  0  0
    7.9012  -19.3886   24.2475 C   0  0  0  0  0  0  0  0  0  0  0  0
    7.5531  -17.9087   24.4053 C   0  0  0  0  0  0  0  0  0  0  0  0
    8.0125  -17.2356   23.1422 C   0  0  0  0  0  0  0  0  0  0  0  0
    7.7379  -15.7872   23.0158 C   0  0  2  0  0  0  0  0  0  0  0  0
    8.4546  -15.3335   21.8084 N   0  0  0  0  0  0  0  0  0  0  0  0
    8.1617  -15.0434   24.1989 C   0  0  0  0  0  0  0  0  0  0  0  0
    9.3915  -14.9165   24.4443 O   0  0  0  0  0  0  0  0  0  0  0  0
    6.5727  -21.2875   27.4406 C   0  0  0  0  0  0  0  0  0  0  0  0
    6.9088  -11.4087   25.9737 C   0  0  2  0  0  0  0  0  0  0  0  0
    6.9203  -12.6599   26.8537 O   0  0  0  0  0  0  0  0  0  0  0  0
    5.6077  -13.1199   27.0363 C   0  0  2  0  0  0  0  0  0  0  0  0
    7.8123  -13.7205   26.3055 N   0  0  0  0  0  0  0  0  0  0  0  0
    7.2994  -14.4181   25.1529 C   0  0  0  0  0  0  0  0  0  0  0  0
    8.0487  -14.6846   27.4416 O   0  0  0  0  0  0  0  0  0  0  0  0
    8.5983  -14.3292   28.6328 O   0  0  0  0  0  0  0  0  0  0  0  0
  2  1  1  6
  2  3  1  0
  2  5  1  0
  4  3  1  0
  5  6  2  0
  7  8  1  0
  8 10  1  0
  8  9  2  0
 10 11  1  0
 11 12  1  0
 12 13  1  0
 14 13  1  1
 15 14  1  0
 15  5  1  0
 16 14  1  0
 16 17  2  0
 19 18  1  1
 19 21  1  0
 20 19  1  0
 21 22  1  1
 21 23  1  0
 22 16  1  0
 23 24  1  0
 25 23  2  0
M  END
$$$$
