CRT.pdb
     RDKit          3D

 25 24  0  0  1  0  0  0  0  0999 V2000
    6.5946  -18.0827   26.3244 N   0  0  0  0  0  0  0  0  0  0  0  0
    6.9892  -16.7059   25.9489 C   0  0  1  0  0  0  0  0  0  0  0  0
    7.7835  -16.1475   27.0747 C   0  0  0  0  0  0  0  0  0  0  0  0
    8.2771  -14.4244   26.8846 S   0  0  0  0  0  0  0  0  0  0  0  0
    7.5955  -16.6969   24.6209 C   0  0  0  0  0  0  0  0  0  0  0  0
    8.2488  -17.7163   24.2419 O   0  0  0  0  0  0  0  0  0  0  0  0
    7.9336  -15.3626   17.7907 N   0  0  0  0  0  0  0  0  0  0  0  0
    7.9884  -13.9837   17.3707 C   0  0  0  0  0  0  0  0  0  0  0  0
    8.3294  -13.6813   16.1712 N   0  0  0  0  0  0  0  0  0  0  0  0
    7.6736  -12.9311   18.2646 N   0  0  0  0  0  0  0  0  0  0  0  0
    7.3066  -13.2035   19.6214 C   0  0  0  0  0  0  0  0  0  0  0  0
    8.0836  -14.3849   20.2017 C   0  0  0  0  0  0  0  0  0  0  0  0
    7.5751  -14.5694   21.6042 C   0  0  0  0  0  0  0  0  0  0  0  0
    8.1604  -15.6786   22.3894 C   0  0  2  0  0  0  0  0  0  0  0  0
    7.5079  -15.6390   23.7123 N   0  0  0  0  0  0  0  0  0  0  0  0
    9.6113  -15.5617   22.5065 C   0  0  0  0  0  0  0  0  0  0  0  0
   10.1050  -14.8771   23.4428 O   0  0  0  0  0  0  0  0  0  0  0  0
    8.4126  -12.6995   15.8650 C   0  0  0  0  0  0  0  0  0  0  0  0
   11.4108  -18.6451   22.9707 C   0  0  2  0  0  0  0  0  0  0  0  0
   12.1183  -17.3081   23.1983 O   0  0  0  0  0  0  0  0  0  0  0  0
   13.4721  -17.5344   23.4879 C   0  0  1  0  0  0  0  0  0  0  0  0
   11.9416  -16.3790   22.0465 N   0  0  0  0  0  0  0  0  0  0  0  0
   10.5763  -16.1610   21.6381 C   0  0  0  0  0  0  0  0  0  0  0  0
   12.7406  -16.9742   20.9137 O   0  0  0  0  0  0  0  0  0  0  0  0
   14.0919  -17.1187   20.9359 O   0  0  0  0  0  0  0  0  0  0  0  0
  2  1  1  1
  2  3  1  0
  2  5  1  0
  4  3  1  0
  5  6  2  0
  7  8  1  0
  8 10  1  0
  8  9  2  0
 10 11  1  0
 11 12  1  0
 12 13  1  0
 14 13  1  6
 15 14  1  0
 15  5  1  0
 16 14  1  0
 16 17  2  0
 19 18  1  1
 19 21  1  0
 20 19  1  0
 21 22  1  1
 21 23  1  0
 22 16  1  0
 23 24  1  0
 25 23  2  0
M  END
$$$$
