CRT.pdb
     RDKit          3D

 25 24  0  0  1  0  0  0  0  0999 V2000
   11.7621  -20.8364   22.8065 N   0  0  0  0  0  0  0  0  0  0  0  0
   12.0722  -19.4555   23.2415 C   0  0  1  0  0  0  0  0  0  0  0  0
   11.9879  -19.4265   24.7255 C   0  0  0  0  0  0  0  0  0  0  0  0
   10.3159  -19.4213   25.3987 S   0  0  0  0  0  0  0  0  0  0  0  0
   13.3125  -18.9961   22.6235 C   0  0  0  0  0  0  0  0  0  0  0  0
   14.2666  -19.8207   22.4846 O   0  0  0  0  0  0  0  0  0  0  0  0
   14.2701  -12.4838   17.0309 N   0  0  0  0  0  0  0  0  0  0  0  0
   15.6457  -12.8912   17.1813 C   0  0  0  0  0  0  0  0  0  0  0  0
   16.5653  -12.3576   16.4628 N   0  0  0  0  0  0  0  0  0  0  0  0
   16.0180  -13.8875   18.1166 N   0  0  0  0  0  0  0  0  0  0  0  0
   15.0495  -14.4700   18.9955 C   0  0  0  0  0  0  0  0  0  0  0  0
   15.6467  -15.5871   19.8507 C   0  0  0  0  0  0  0  0  0  0  0  0
   14.5039  -16.1660   20.6371 C   0  0  0  0  0  0  0  0  0  0  0  0
   14.8174  -17.2887   21.5486 C   0  0  2  0  0  0  0  0  0  0  0  0
   13.5370  -17.6983   22.1570 N   0  0  0  0  0  0  0  0  0  0  0  0
   15.7952  -16.9124   22.5659 C   0  0  0  0  0  0  0  0  0  0  0  0
   15.4129  -16.7133   23.7504 O   0  0  0  0  0  0  0  0  0  0  0  0
   17.5560  -12.6259   16.5676 C   0  0  0  0  0  0  0  0  0  0  0  0
   18.4927  -19.0684   23.6586 C   0  0  2  0  0  0  0  0  0  0  0  0
   18.1744  -17.7621   24.3881 O   0  0  0  0  0  0  0  0  0  0  0  0
   19.0982  -17.5639   25.4250 C   0  0  1  0  0  0  0  0  0  0  0  0
   18.1231  -16.6000   23.4565 N   0  0  0  0  0  0  0  0  0  0  0  0
   17.1987  -16.7343   22.3584 C   0  0  0  0  0  0  0  0  0  0  0  0
   19.5302  -16.4257   22.9410 O   0  0  0  0  0  0  0  0  0  0  0  0
   20.5892  -16.1012   23.7288 O   0  0  0  0  0  0  0  0  0  0  0  0
  2  1  1  1
  2  3  1  0
  2  5  1  0
  4  3  1  0
  5  6  2  0
  7  8  1  0
  8 10  1  0
  8  9  2  0
 10 11  1  0
 11 12  1  0
 12 13  1  0
 14 13  1  6
 15 14  1  0
 15  5  1  0
 16 14  1  0
 16 17  2  0
 19 18  1  1
 19 21  1  0
 20 19  1  0
 21 22  1  1
 21 23  1  0
 22 16  1  0
 23 24  1  0
 25 23  2  0
M  END
$$$$
