CRT.pdb
     RDKit          3D

 25 24  0  0  1  0  0  0  0  0999 V2000
    7.0677  -20.3735   24.5626 N   0  0  0  0  0  0  0  0  0  0  0  0
    6.7721  -19.0295   25.1090 C   0  0  1  0  0  0  0  0  0  0  0  0
    6.9714  -19.0934   26.5809 C   0  0  0  0  0  0  0  0  0  0  0  0
    6.4879  -17.6111   27.4853 S   0  0  0  0  0  0  0  0  0  0  0  0
    7.5075  -18.0085   24.3687 C   0  0  0  0  0  0  0  0  0  0  0  0
    8.7694  -18.1075   24.2831 O   0  0  0  0  0  0  0  0  0  0  0  0
    8.0968  -12.0782   19.1051 N   0  0  0  0  0  0  0  0  0  0  0  0
    8.4360  -13.2785   18.3804 C   0  0  0  0  0  0  0  0  0  0  0  0
    9.3019  -13.2450   17.4340 N   0  0  0  0  0  0  0  0  0  0  0  0
    7.8246  -14.5187   18.6872 N   0  0  0  0  0  0  0  0  0  0  0  0
    6.8650  -14.6240   19.7446 C   0  0  0  0  0  0  0  0  0  0  0  0
    7.4666  -14.2719   21.1048 C   0  0  0  0  0  0  0  0  0  0  0  0
    6.8280  -15.2036   22.0966 C   0  0  0  0  0  0  0  0  0  0  0  0
    7.7247  -15.8621   23.0722 C   0  0  2  0  0  0  0  0  0  0  0  0
    6.9229  -16.9130   23.7280 N   0  0  0  0  0  0  0  0  0  0  0  0
    8.2641  -14.9169   24.0459 C   0  0  0  0  0  0  0  0  0  0  0  0
    9.0774  -14.0317   23.6665 O   0  0  0  0  0  0  0  0  0  0  0  0
    9.5260  -14.0845   16.8776 C   0  0  0  0  0  0  0  0  0  0  0  0
    7.0034  -11.9013   25.9098 C   0  0  2  0  0  0  0  0  0  0  0  0
    7.4866  -12.9498   26.9133 O   0  0  0  0  0  0  0  0  0  0  0  0
    6.3858  -13.6447   27.4359 C   0  0  2  0  0  0  0  0  0  0  0  0
    8.4961  -13.8702   26.3176 N   0  0  0  0  0  0  0  0  0  0  0  0
    7.9614  -14.8838   25.4430 C   0  0  0  0  0  0  0  0  0  0  0  0
    9.2102  -14.5059   27.4846 O   0  0  0  0  0  0  0  0  0  0  0  0
    9.8568  -13.8011   28.4503 O   0  0  0  0  0  0  0  0  0  0  0  0
  2  1  1  6
  2  3  1  0
  2  5  1  0
  4  3  1  0
  5  6  2  0
  7  8  1  0
  8 10  1  0
  8  9  2  0
 10 11  1  0
 11 12  1  0
 12 13  1  0
 14 13  1  6
 15 14  1  0
 15  5  1  0
 16 14  1  0
 16 17  2  0
 19 18  1  1
 19 21  1  0
 20 19  1  0
 21 22  1  1
 21 23  1  0
 22 16  1  0
 23 24  1  0
 25 23  2  0
M  END
$$$$
