CRT.pdb
     RDKit          3D

 25 24  0  0  1  0  0  0  0  0999 V2000
    7.8212  -15.4571   18.5041 N   0  0  0  0  0  0  0  0  0  0  0  0
    8.3413  -14.5954   19.5900 C   0  0  1  0  0  0  0  0  0  0  0  0
    8.1249  -13.1828   19.1800 C   0  0  0  0  0  0  0  0  0  0  0  0
    8.7057  -11.9456   20.3551 S   0  0  0  0  0  0  0  0  0  0  0  0
    7.7980  -15.0188   20.8771 C   0  0  0  0  0  0  0  0  0  0  0  0
    6.5395  -15.1151   21.0060 O   0  0  0  0  0  0  0  0  0  0  0  0
    4.9890  -21.2048   23.0541 N   0  0  0  0  0  0  0  0  0  0  0  0
    6.2270  -20.9138   23.7351 C   0  0  0  0  0  0  0  0  0  0  0  0
    7.0052  -21.8643   24.1060 N   0  0  0  0  0  0  0  0  0  0  0  0
    6.6146  -19.5808   24.0157 N   0  0  0  0  0  0  0  0  0  0  0  0
    7.9223  -19.2853   24.5181 C   0  0  0  0  0  0  0  0  0  0  0  0
    8.1002  -17.7976   24.8202 C   0  0  0  0  0  0  0  0  0  0  0  0
    8.4810  -17.1507   23.5178 C   0  0  0  0  0  0  0  0  0  0  0  0
    7.9608  -15.7882   23.2682 C   0  0  2  0  0  0  0  0  0  0  0  0
    8.5661  -15.3398   21.9994 N   0  0  0  0  0  0  0  0  0  0  0  0
    8.2743  -14.8726   24.3618 C   0  0  0  0  0  0  0  0  0  0  0  0
    9.4395  -14.4026   24.4627 O   0  0  0  0  0  0  0  0  0  0  0  0
    7.9207  -21.6733   24.5418 C   0  0  0  0  0  0  0  0  0  0  0  0
    6.2805  -11.5235   25.7752 C   0  0  2  0  0  0  0  0  0  0  0  0
    6.6517  -12.5640   26.8333 O   0  0  0  0  0  0  0  0  0  0  0  0
    5.5071  -13.2819   27.2103 C   0  0  2  0  0  0  0  0  0  0  0  0
    7.7478  -13.4627   26.3730 N   0  0  0  0  0  0  0  0  0  0  0  0
    7.3680  -14.4328   25.3766 C   0  0  0  0  0  0  0  0  0  0  0  0
    8.2585  -14.1543   27.6126 O   0  0  0  0  0  0  0  0  0  0  0  0
    8.7355  -13.4975   28.7027 O   0  0  0  0  0  0  0  0  0  0  0  0
  2  1  1  6
  2  3  1  0
  2  5  1  0
  4  3  1  0
  5  6  2  0
  7  8  1  0
  8 10  1  0
  8  9  2  0
 10 11  1  0
 11 12  1  0
 12 13  1  0
 14 13  1  1
 15 14  1  0
 15  5  1  0
 16 14  1  0
 16 17  2  0
 19 18  1  1
 19 21  1  0
 20 19  1  0
 21 22  1  1
 21 23  1  0
 22 16  1  0
 23 24  1  0
 25 23  2  0
M  END
$$$$
