CRT.pdb
     RDKit          3D

 25 24  0  0  1  0  0  0  0  0999 V2000
    7.4072  -14.9214   18.3186 N   0  0  0  0  0  0  0  0  0  0  0  0
    8.0793  -14.1558   19.3930 C   0  0  1  0  0  0  0  0  0  0  0  0
    7.5351  -12.7726   19.3615 C   0  0  0  0  0  0  0  0  0  0  0  0
    8.7484  -11.4651   19.6208 S   0  0  0  0  0  0  0  0  0  0  0  0
    8.0069  -14.8845   20.6560 C   0  0  0  0  0  0  0  0  0  0  0  0
    6.9022  -15.4080   20.9956 O   0  0  0  0  0  0  0  0  0  0  0  0
   10.7898  -20.5388   25.9307 N   0  0  0  0  0  0  0  0  0  0  0  0
   10.6260  -20.8024   24.5220 C   0  0  0  0  0  0  0  0  0  0  0  0
   10.2653  -21.9645   24.1145 N   0  0  0  0  0  0  0  0  0  0  0  0
   10.8607  -19.7948   23.5546 N   0  0  0  0  0  0  0  0  0  0  0  0
   11.3320  -18.4994   23.9413 C   0  0  0  0  0  0  0  0  0  0  0  0
   10.1857  -17.5151   24.1719 C   0  0  0  0  0  0  0  0  0  0  0  0
   10.0011  -16.7792   22.8742 C   0  0  0  0  0  0  0  0  0  0  0  0
    8.9303  -15.7591   22.8280 C   0  0  2  0  0  0  0  0  0  0  0  0
    9.0777  -15.0621   21.5358 N   0  0  0  0  0  0  0  0  0  0  0  0
    9.0122  -14.8270   23.9493 C   0  0  0  0  0  0  0  0  0  0  0  0
    9.9945  -14.0416   24.0327 O   0  0  0  0  0  0  0  0  0  0  0  0
   10.1838  -22.1827   23.1093 C   0  0  0  0  0  0  0  0  0  0  0  0
    6.7841  -11.8667   25.5089 C   0  0  2  0  0  0  0  0  0  0  0  0
    7.0658  -12.9960   26.5015 O   0  0  0  0  0  0  0  0  0  0  0  0
    5.9221  -13.7959   26.6426 C   0  0  2  0  0  0  0  0  0  0  0  0
    8.2620  -13.7958   26.1134 N   0  0  0  0  0  0  0  0  0  0  0  0
    8.0621  -14.7025   25.0106 C   0  0  0  0  0  0  0  0  0  0  0  0
    8.6664  -14.5556   27.3523 O   0  0  0  0  0  0  0  0  0  0  0  0
    9.0565  -13.9608   28.5105 O   0  0  0  0  0  0  0  0  0  0  0  0
  2  1  1  6
  2  3  1  0
  2  5  1  0
  4  3  1  0
  5  6  2  0
  7  8  1  0
  8 10  1  0
  8  9  2  0
 10 11  1  0
 11 12  1  0
 12 13  1  0
 14 13  1  1
 15 14  1  0
 15  5  1  0
 16 14  1  0
 16 17  2  0
 19 18  1  1
 19 21  1  0
 20 19  1  0
 21 22  1  1
 21 23  1  0
 22 16  1  0
 23 24  1  0
 25 23  2  0
M  END
$$$$
