CRT.pdb
     RDKit          3D

 25 24  0  0  1  0  0  0  0  0999 V2000
    5.3738  -13.6479   27.4396 N   0  0  0  0  0  0  0  0  0  0  0  0
    6.0178  -12.8555   26.3674 C   0  0  1  0  0  0  0  0  0  0  0  0
    6.9826  -11.9292   27.0164 C   0  0  0  0  0  0  0  0  0  0  0  0
    8.3993  -12.7223   27.7992 S   0  0  0  0  0  0  0  0  0  0  0  0
    6.5241  -13.7375   25.3200 C   0  0  0  0  0  0  0  0  0  0  0  0
    6.6176  -14.9796   25.5610 O   0  0  0  0  0  0  0  0  0  0  0  0
   10.5465  -13.5225   18.5229 N   0  0  0  0  0  0  0  0  0  0  0  0
    9.5521  -14.3832   17.9304 C   0  0  0  0  0  0  0  0  0  0  0  0
    9.8998  -15.3315   17.1390 N   0  0  0  0  0  0  0  0  0  0  0  0
    8.1730  -14.2053   18.1995 N   0  0  0  0  0  0  0  0  0  0  0  0
    7.7359  -13.5339   19.3861 C   0  0  0  0  0  0  0  0  0  0  0  0
    8.3238  -14.1591   20.6508 C   0  0  0  0  0  0  0  0  0  0  0  0
    7.6624  -13.4618   21.8066 C   0  0  0  0  0  0  0  0  0  0  0  0
    7.4715  -14.2490   23.0448 C   0  0  2  0  0  0  0  0  0  0  0  0
    6.9156  -13.3183   24.0458 N   0  0  0  0  0  0  0  0  0  0  0  0
    8.7183  -14.8504   23.5100 C   0  0  0  0  0  0  0  0  0  0  0  0
    9.6477  -14.1077   23.9265 O   0  0  0  0  0  0  0  0  0  0  0  0
    9.2026  -15.9602   16.7108 C   0  0  0  0  0  0  0  0  0  0  0  0
    9.5948  -17.4622   26.4095 C   0  0  2  0  0  0  0  0  0  0  0  0
   10.0969  -17.9044   25.0338 O   0  0  0  0  0  0  0  0  0  0  0  0
    9.2473  -18.8942   24.5177 C   0  0  2  0  0  0  0  0  0  0  0  0
   10.2476  -16.7546   24.0978 N   0  0  0  0  0  0  0  0  0  0  0  0
    9.0162  -16.2485   23.5446 C   0  0  0  0  0  0  0  0  0  0  0  0
   11.1586  -17.2388   22.9972 O   0  0  0  0  0  0  0  0  0  0  0  0
   10.7810  -17.3477   21.6961 O   0  0  0  0  0  0  0  0  0  0  0  0
  2  1  1  1
  2  3  1  0
  2  5  1  0
  4  3  1  0
  5  6  2  0
  7  8  1  0
  8 10  1  0
  8  9  2  0
 10 11  1  0
 11 12  1  0
 12 13  1  0
 14 13  1  6
 15 14  1  0
 15  5  1  0
 16 14  1  0
 16 17  2  0
 19 18  1  1
 19 21  1  0
 20 19  1  0
 21 22  1  6
 21 23  1  0
 22 16  1  0
 23 24  1  0
 25 23  2  0
M  END
$$$$
