CRT.pdb
     RDKit          3D

 25 24  0  0  1  0  0  0  0  0999 V2000
    7.7555  -14.9242   15.6111 N   0  0  0  0  0  0  0  0  0  0  0  0
    8.4565  -14.2911   16.7513 C   0  0  1  0  0  0  0  0  0  0  0  0
    7.5379  -13.2759   17.3307 C   0  0  0  0  0  0  0  0  0  0  0  0
    8.0621  -12.5787   18.9081 S   0  0  0  0  0  0  0  0  0  0  0  0
    8.9911  -15.3121   17.6475 C   0  0  0  0  0  0  0  0  0  0  0  0
    8.3768  -16.4177   17.7479 O   0  0  0  0  0  0  0  0  0  0  0  0
   15.2174  -14.2753   19.7913 N   0  0  0  0  0  0  0  0  0  0  0  0
   15.6542  -14.4563   18.4284 C   0  0  0  0  0  0  0  0  0  0  0  0
   16.4955  -13.6436   17.9008 N   0  0  0  0  0  0  0  0  0  0  0  0
   15.1677  -15.5258   17.6376 N   0  0  0  0  0  0  0  0  0  0  0  0
   14.1398  -16.3940   18.1269 C   0  0  0  0  0  0  0  0  0  0  0  0
   12.8702  -15.6294   18.5006 C   0  0  0  0  0  0  0  0  0  0  0  0
   11.8940  -16.6595   18.9960 C   0  0  0  0  0  0  0  0  0  0  0  0
   10.5612  -16.1733   19.4163 C   0  0  2  0  0  0  0  0  0  0  0  0
   10.1509  -15.1712   18.4139 N   0  0  0  0  0  0  0  0  0  0  0  0
   10.5840  -15.6045   20.7610 C   0  0  0  0  0  0  0  0  0  0  0  0
   11.4402  -14.7251   21.0482 O   0  0  0  0  0  0  0  0  0  0  0  0
   16.7677  -13.7174   16.9084 C   0  0  0  0  0  0  0  0  0  0  0  0
    8.0106  -13.5427   22.8299 C   0  0  2  0  0  0  0  0  0  0  0  0
    8.4791  -14.7618   23.6264 O   0  0  0  0  0  0  0  0  0  0  0  0
    7.4720  -15.7384   23.6294 C   0  0  2  0  0  0  0  0  0  0  0  0
    9.7741  -15.2970   23.1189 N   0  0  0  0  0  0  0  0  0  0  0  0
    9.7069  -15.9510   21.8359 C   0  0  0  0  0  0  0  0  0  0  0  0
   10.2619  -16.2584   24.1742 O   0  0  0  0  0  0  0  0  0  0  0  0
   10.6084  -15.8855   25.4345 O   0  0  0  0  0  0  0  0  0  0  0  0
  2  1  1  6
  2  3  1  0
  2  5  1  0
  4  3  1  0
  5  6  2  0
  7  8  1  0
  8 10  1  0
  8  9  2  0
 10 11  1  0
 11 12  1  0
 12 13  1  0
 14 13  1  6
 15 14  1  0
 15  5  1  0
 16 14  1  0
 16 17  2  0
 19 18  1  1
 19 21  1  0
 20 19  1  0
 21 22  1  1
 21 23  1  0
 22 16  1  0
 23 24  1  0
 25 23  2  0
M  END
$$$$
