GYH.pdb
     RDKit          3D

 27 28  0  0  1  0  0  0  0  0999 V2000
   16.4781  -18.7881    3.4808 N   0  0  0  0  0  0  0  0  0  0  0  0
   15.9646  -17.5839    4.0657 C   0  0  0  0  0  0  0  0  0  0  0  0
   17.0663  -16.7637    4.6553 C   0  0  0  0  0  0  0  0  0  0  0  0
   18.2151  -17.2430    4.6681 O   0  0  0  0  0  0  0  0  0  0  0  0
   22.0648   -9.9924    7.1811 O   0  0  0  0  0  0  0  0  0  0  0  0
   20.9578  -10.7905    6.8769 C   0  0  0  0  0  0  0  0  0  0  0  0
   20.1134  -11.2806    7.8557 C   0  0  0  0  0  0  0  0  0  0  0  0
   19.0364  -12.0621    7.5082 C   0  0  0  0  0  0  0  0  0  0  0  0
   18.7421  -12.3945    6.2000 C   0  0  0  0  0  0  0  0  0  0  0  0
   17.5904  -13.2299    5.8310 C   0  0  0  0  0  0  0  0  0  0  0  0
   17.9510  -14.6999    5.7344 C   0  0  2  0  0  0  0  0  0  0  0  0
   16.8594  -15.4794    5.1934 N   0  0  0  0  0  0  0  0  0  0  0  0
   18.2422  -15.2169    7.1026 C   0  0  0  0  0  0  0  0  0  0  0  0
   17.3198  -15.6085    7.8763 O   0  0  0  0  0  0  0  0  0  0  0  0
   19.5856  -11.9054    5.2158 C   0  0  0  0  0  0  0  0  0  0  0  0
   20.6626  -11.1236    5.5673 C   0  0  0  0  0  0  0  0  0  0  0  0
   19.5702  -15.2732    7.5496 N   0  0  0  0  0  0  0  0  0  0  0  0
   19.8410  -15.9525    8.8529 C   0  0  1  0  0  0  0  0  0  0  0  0
   21.0266  -16.8177    8.5630 C   0  0  0  0  0  0  0  0  0  0  0  0
   20.7786  -18.2120    8.2571 C   0  0  0  0  0  0  0  0  0  0  0  0
   19.6294  -18.9205    8.1754 C   0  0  0  0  0  0  0  0  0  0  0  0
   19.9633  -20.1775    7.8109 N   0  0  0  0  0  0  0  0  0  0  0  0
   21.2807  -20.2557    7.6673 C   0  0  0  0  0  0  0  0  0  0  0  0
   21.7994  -19.0665    7.9347 N   0  0  0  0  0  0  0  0  0  0  0  0
   20.1630  -14.8121    9.7700 C   0  0  0  0  0  0  0  0  0  0  0  0
   20.1105  -14.9799   11.0404 O   0  0  0  0  0  0  0  0  0  0  0  0
   20.5237  -13.5516    9.3588 O   0  0  0  0  0  0  0  0  0  0  0  0
  2  1  1  0
  3  4  2  0
  3  2  1  0
  6  5  1  0
  6  7  2  0
  8  7  1  0
  9  8  2  0
 10  9  1  0
 11 12  1  0
 11 10  1  1
 12  3  1  0
 13 11  1  0
 14 13  2  0
 15 16  2  0
 15  9  1  0
 16  6  1  0
 17 13  1  0
 18 19  1  6
 18 17  1  0
 19 20  1  0
 20 21  2  0
 21 22  1  0
 23 22  1  0
 24 20  1  0
 24 23  2  0
 25 27  1  0
 25 18  1  0
 26 25  2  0
M  END
$$$$
