GYH.pdb
     RDKit          3D

 27 28  0  0  1  0  0  0  0  0999 V2000
   28.7839  -22.9032  -18.1126 N   0  0  0  0  0  0  0  0  0  0  0  0
   28.6788  -21.6235  -17.4745 C   0  0  0  0  0  0  0  0  0  0  0  0
   27.7469  -21.6829  -16.3072 C   0  0  0  0  0  0  0  0  0  0  0  0
   27.0040  -22.6756  -16.1968 O   0  0  0  0  0  0  0  0  0  0  0  0
   23.9895  -20.8004   -8.4324 O   0  0  0  0  0  0  0  0  0  0  0  0
   24.8182  -20.6363   -9.5466 C   0  0  0  0  0  0  0  0  0  0  0  0
   25.8989  -21.4642   -9.7875 C   0  0  0  0  0  0  0  0  0  0  0  0
   26.6860  -21.2640  -10.8973 C   0  0  0  0  0  0  0  0  0  0  0  0
   26.4516  -20.2544  -11.8107 C   0  0  0  0  0  0  0  0  0  0  0  0
   27.2943  -20.0424  -12.9961 C   0  0  0  0  0  0  0  0  0  0  0  0
   26.7509  -20.7472  -14.2243 C   0  0  2  0  0  0  0  0  0  0  0  0
   27.6755  -20.6686  -15.3336 N   0  0  0  0  0  0  0  0  0  0  0  0
   25.4839  -20.0811  -14.6425 C   0  0  0  0  0  0  0  0  0  0  0  0
   25.4797  -18.9297  -15.1688 O   0  0  0  0  0  0  0  0  0  0  0  0
   25.3697  -19.4224  -11.5732 C   0  0  0  0  0  0  0  0  0  0  0  0
   24.5841  -19.6257  -10.4614 C   0  0  0  0  0  0  0  0  0  0  0  0
   24.2622  -20.7421  -14.4507 N   0  0  0  0  0  0  0  0  0  0  0  0
   23.0110  -20.0289  -14.8500 C   0  0  1  0  0  0  0  0  0  0  0  0
   22.4562  -20.8747  -15.9522 C   0  0  0  0  0  0  0  0  0  0  0  0
   22.9451  -20.6304  -17.2941 C   0  0  0  0  0  0  0  0  0  0  0  0
   23.2833  -19.4852  -17.9295 C   0  0  0  0  0  0  0  0  0  0  0  0
   23.7227  -19.8291  -19.1596 N   0  0  0  0  0  0  0  0  0  0  0  0
   23.6633  -21.1485  -19.2922 C   0  0  0  0  0  0  0  0  0  0  0  0
   23.1913  -21.6588  -18.1645 N   0  0  0  0  0  0  0  0  0  0  0  0
   22.1797  -20.0775  -13.6043 C   0  0  0  0  0  0  0  0  0  0  0  0
   21.7148  -18.9920  -13.1040 O   0  0  0  0  0  0  0  0  0  0  0  0
   21.8567  -21.2246  -12.9202 O   0  0  0  0  0  0  0  0  0  0  0  0
  2  1  1  0
  3  4  2  0
  3  2  1  0
  6  5  1  0
  6  7  2  0
  8  7  1  0
  9  8  2  0
 10  9  1  0
 11 12  1  0
 11 10  1  1
 12  3  1  0
 13 11  1  0
 14 13  2  0
 15 16  2  0
 15  9  1  0
 16  6  1  0
 17 13  1  0
 18 19  1  6
 18 17  1  0
 19 20  1  0
 20 21  2  0
 21 22  1  0
 23 22  1  0
 24 20  1  0
 24 23  2  0
 25 27  1  0
 25 18  1  0
 26 25  2  0
M  END
$$$$
