GYH.pdb
     RDKit          3D

 27 28  0  0  1  0  0  0  0  0999 V2000
   21.0721  -11.3899  -18.1948 N   0  0  0  0  0  0  0  0  0  0  0  0
   21.7998  -11.8736  -17.0581 C   0  0  0  0  0  0  0  0  0  0  0  0
   22.4814  -10.7520  -16.3427 C   0  0  0  0  0  0  0  0  0  0  0  0
   22.3263  -10.6585  -15.1111 O   0  0  0  0  0  0  0  0  0  0  0  0
   28.5189  -13.1377  -16.5695 O   0  0  0  0  0  0  0  0  0  0  0  0
   27.7261  -11.9884  -16.6445 C   0  0  0  0  0  0  0  0  0  0  0  0
   27.1449  -11.5720  -17.8277 C   0  0  0  0  0  0  0  0  0  0  0  0
   26.3727  -10.4342  -17.8528 C   0  0  0  0  0  0  0  0  0  0  0  0
   26.1382   -9.6623  -16.7315 C   0  0  0  0  0  0  0  0  0  0  0  0
   25.3125   -8.4466  -16.7607 C   0  0  0  0  0  0  0  0  0  0  0  0
   23.8940   -8.7007  -16.2877 C   0  0  2  0  0  0  0  0  0  0  0  0
   23.2865   -9.8028  -17.0005 N   0  0  0  0  0  0  0  0  0  0  0  0
   23.0722   -7.4840  -16.5495 C   0  0  0  0  0  0  0  0  0  0  0  0
   22.6000   -7.2343  -17.6972 O   0  0  0  0  0  0  0  0  0  0  0  0
   26.7187  -10.0759  -15.5435 C   0  0  0  0  0  0  0  0  0  0  0  0
   27.4909  -11.2151  -15.5221 C   0  0  0  0  0  0  0  0  0  0  0  0
   22.8124   -6.5896  -15.5012 N   0  0  0  0  0  0  0  0  0  0  0  0
   21.8979   -5.4393  -15.7740 C   0  0  1  0  0  0  0  0  0  0  0  0
   20.5681   -6.0876  -15.9961 C   0  0  0  0  0  0  0  0  0  0  0  0
   19.4663   -5.2352  -16.3945 C   0  0  0  0  0  0  0  0  0  0  0  0
   19.4182   -3.9192  -16.7036 C   0  0  0  0  0  0  0  0  0  0  0  0
   18.1436   -3.6400  -17.0522 N   0  0  0  0  0  0  0  0  0  0  0  0
   17.4143   -4.7458  -16.9658 C   0  0  0  0  0  0  0  0  0  0  0  0
   18.2019   -5.7330  -16.5659 N   0  0  0  0  0  0  0  0  0  0  0  0
   21.9555   -4.6502  -14.5015 C   0  0  0  0  0  0  0  0  0  0  0  0
   22.4012   -5.1973  -13.4306 O   0  0  0  0  0  0  0  0  0  0  0  0
   21.5582   -3.3413  -14.3705 O   0  0  0  0  0  0  0  0  0  0  0  0
  2  1  1  0
  3  4  2  0
  3  2  1  0
  6  5  1  0
  6  7  2  0
  8  7  1  0
  9  8  2  0
 10  9  1  0
 11 12  1  0
 11 10  1  6
 12  3  1  0
 13 11  1  0
 14 13  2  0
 15 16  2  0
 15  9  1  0
 16  6  1  0
 17 13  1  0
 18 19  1  1
 18 17  1  0
 19 20  1  0
 20 21  2  0
 21 22  1  0
 23 22  1  0
 24 20  1  0
 24 23  2  0
 25 27  1  0
 25 18  1  0
 26 25  2  0
M  END
$$$$
