GYH.pdb
     RDKit          3D

 27 28  0  0  1  0  0  0  0  0999 V2000
   25.8678  -24.4657  -16.2478 N   0  0  0  0  0  0  0  0  0  0  0  0
   26.3690  -23.1500  -15.9767 C   0  0  0  0  0  0  0  0  0  0  0  0
   26.0546  -22.7362  -14.5752 C   0  0  0  0  0  0  0  0  0  0  0  0
   25.1801  -23.3699  -13.9563 O   0  0  0  0  0  0  0  0  0  0  0  0
   27.0689  -20.3401   -6.3605 O   0  0  0  0  0  0  0  0  0  0  0  0
   27.1353  -20.3209   -7.7570 C   0  0  0  0  0  0  0  0  0  0  0  0
   28.1651  -20.9266   -8.4526 C   0  0  0  0  0  0  0  0  0  0  0  0
   28.1880  -20.8815   -9.8270 C   0  0  0  0  0  0  0  0  0  0  0  0
   27.2130  -20.2478  -10.5728 C   0  0  0  0  0  0  0  0  0  0  0  0
   27.2396  -20.2009  -12.0417 C   0  0  0  0  0  0  0  0  0  0  0  0
   26.2295  -21.1434  -12.6677 C   0  0  2  0  0  0  0  0  0  0  0  0
   26.7030  -21.6657  -13.9306 N   0  0  0  0  0  0  0  0  0  0  0  0
   24.9681  -20.3932  -12.9322 C   0  0  0  0  0  0  0  0  0  0  0  0
   24.8709  -19.5716  -13.8905 O   0  0  0  0  0  0  0  0  0  0  0  0
   26.1790  -19.6395   -9.8798 C   0  0  0  0  0  0  0  0  0  0  0  0
   26.1594  -19.6866   -8.5043 C   0  0  0  0  0  0  0  0  0  0  0  0
   23.8572  -20.5987  -12.1014 N   0  0  0  0  0  0  0  0  0  0  0  0
   22.5171  -20.1722  -12.6075 C   0  0  1  0  0  0  0  0  0  0  0  0
   22.2396  -21.1264  -13.7258 C   0  0  0  0  0  0  0  0  0  0  0  0
   22.0012  -20.5656  -15.0403 C   0  0  0  0  0  0  0  0  0  0  0  0
   21.9168  -19.2845  -15.4658 C   0  0  0  0  0  0  0  0  0  0  0  0
   21.7263  -19.3221  -16.8024 N   0  0  0  0  0  0  0  0  0  0  0  0
   21.6929  -20.5869  -17.2039 C   0  0  0  0  0  0  0  0  0  0  0  0
   21.8590  -21.3640  -16.1441 N   0  0  0  0  0  0  0  0  0  0  0  0
   21.6231  -20.3863  -11.4242 C   0  0  0  0  0  0  0  0  0  0  0  0
   20.7700  -19.4863  -11.0973 O   0  0  0  0  0  0  0  0  0  0  0  0
   21.6336  -21.5034  -10.6241 O   0  0  0  0  0  0  0  0  0  0  0  0
  2  1  1  0
  3  4  2  0
  3  2  1  0
  6  5  1  0
  6  7  2  0
  8  7  1  0
  9  8  2  0
 10  9  1  0
 11 12  1  0
 11 10  1  6
 12  3  1  0
 13 11  1  0
 14 13  2  0
 15 16  2  0
 15  9  1  0
 16  6  1  0
 17 13  1  0
 18 19  1  6
 18 17  1  0
 19 20  1  0
 20 21  2  0
 21 22  1  0
 23 22  1  0
 24 20  1  0
 24 23  2  0
 25 27  1  0
 25 18  1  0
 26 25  2  0
M  END
$$$$
