GYH.pdb
     RDKit          3D

 27 28  0  0  1  0  0  0  0  0999 V2000
   25.7604  -24.3173  -14.9848 N   0  0  0  0  0  0  0  0  0  0  0  0
   26.2443  -22.9874  -14.7543 C   0  0  0  0  0  0  0  0  0  0  0  0
   25.9366  -22.5403  -13.3616 C   0  0  0  0  0  0  0  0  0  0  0  0
   25.1284  -23.2105  -12.6930 O   0  0  0  0  0  0  0  0  0  0  0  0
   28.0221  -20.1949   -5.5043 O   0  0  0  0  0  0  0  0  0  0  0  0
   27.7145  -20.0666   -6.8622 C   0  0  0  0  0  0  0  0  0  0  0  0
   26.4460  -19.7352   -7.3008 C   0  0  0  0  0  0  0  0  0  0  0  0
   26.1908  -19.6203   -8.6473 C   0  0  0  0  0  0  0  0  0  0  0  0
   27.1570  -19.8228   -9.6136 C   0  0  0  0  0  0  0  0  0  0  0  0
   26.8819  -19.6994  -11.0522 C   0  0  0  0  0  0  0  0  0  0  0  0
   25.9904  -20.8131  -11.5670 C   0  0  2  0  0  0  0  0  0  0  0  0
   26.5197  -21.3991  -12.7787 N   0  0  0  0  0  0  0  0  0  0  0  0
   24.6474  -20.2486  -11.8861 C   0  0  0  0  0  0  0  0  0  0  0  0
   24.4832  -19.4087  -12.8190 O   0  0  0  0  0  0  0  0  0  0  0  0
   28.4297  -20.1551   -9.1786 C   0  0  0  0  0  0  0  0  0  0  0  0
   28.6815  -20.2692   -7.8303 C   0  0  0  0  0  0  0  0  0  0  0  0
   23.5337  -20.6546  -11.1370 N   0  0  0  0  0  0  0  0  0  0  0  0
   22.1805  -20.4866  -11.7489 C   0  0  1  0  0  0  0  0  0  0  0  0
   22.2001  -21.4214  -12.9166 C   0  0  0  0  0  0  0  0  0  0  0  0
   20.9912  -21.5290  -13.7081 C   0  0  0  0  0  0  0  0  0  0  0  0
   19.7896  -20.9182  -13.5955 C   0  0  0  0  0  0  0  0  0  0  0  0
   19.0287  -21.3471  -14.6258 N   0  0  0  0  0  0  0  0  0  0  0  0
   19.7305  -22.1995  -15.3627 C   0  0  0  0  0  0  0  0  0  0  0  0
   20.9326  -22.3256  -14.8207 N   0  0  0  0  0  0  0  0  0  0  0  0
   21.2563  -20.9364  -10.6586 C   0  0  0  0  0  0  0  0  0  0  0  0
   20.1232  -20.3565  -10.5022 O   0  0  0  0  0  0  0  0  0  0  0  0
   21.5219  -21.9542   -9.7743 O   0  0  0  0  0  0  0  0  0  0  0  0
  2  1  1  0
  3  4  2  0
  3  2  1  0
  6  5  1  0
  6  7  2  0
  8  7  1  0
  9  8  2  0
 10  9  1  0
 11 12  1  0
 11 10  1  6
 12  3  1  0
 13 11  1  0
 14 13  2  0
 15 16  2  0
 15  9  1  0
 16  6  1  0
 17 13  1  0
 18 19  1  6
 18 17  1  0
 19 20  1  0
 20 21  2  0
 21 22  1  0
 23 22  1  0
 24 20  1  0
 24 23  2  0
 25 27  1  0
 25 18  1  0
 26 25  2  0
M  END
$$$$
