GYH.pdb
     RDKit          3D

 27 28  0  0  1  0  0  0  0  0999 V2000
   27.2052  -17.7095  -14.8043 N   0  0  0  0  0  0  0  0  0  0  0  0
   27.4360  -18.1999  -13.4769 C   0  0  0  0  0  0  0  0  0  0  0  0
   26.5645  -19.3783  -13.1832 C   0  0  0  0  0  0  0  0  0  0  0  0
   26.5116  -20.2955  -14.0231 O   0  0  0  0  0  0  0  0  0  0  0  0
   30.6635  -21.4609   -8.7527 O   0  0  0  0  0  0  0  0  0  0  0  0
   29.3133  -21.3573   -9.1011 C   0  0  0  0  0  0  0  0  0  0  0  0
   28.4096  -20.6422   -8.3374 C   0  0  0  0  0  0  0  0  0  0  0  0
   27.0907  -20.5685   -8.7203 C   0  0  0  0  0  0  0  0  0  0  0  0
   26.6040  -21.1856   -9.8563 C   0  0  0  0  0  0  0  0  0  0  0  0
   25.1939  -21.1054  -10.2634 C   0  0  0  0  0  0  0  0  0  0  0  0
   25.0341  -20.6805  -11.7105 C   0  0  2  0  0  0  0  0  0  0  0  0
   25.8057  -19.4926  -12.0029 N   0  0  0  0  0  0  0  0  0  0  0  0
   23.5995  -20.3627  -11.9651 C   0  0  0  0  0  0  0  0  0  0  0  0
   23.0939  -19.2521  -11.6282 O   0  0  0  0  0  0  0  0  0  0  0  0
   27.5062  -21.9034  -10.6246 C   0  0  0  0  0  0  0  0  0  0  0  0
   28.8254  -21.9750  -10.2384 C   0  0  0  0  0  0  0  0  0  0  0  0
   22.7840  -21.3148  -12.5937 N   0  0  0  0  0  0  0  0  0  0  0  0
   21.5949  -20.8240  -13.3545 C   0  0  1  0  0  0  0  0  0  0  0  0
   22.1924  -20.0486  -14.4859 C   0  0  0  0  0  0  0  0  0  0  0  0
   21.3562  -19.0583  -15.1336 C   0  0  0  0  0  0  0  0  0  0  0  0
   20.1231  -18.5917  -14.8319 C   0  0  0  0  0  0  0  0  0  0  0  0
   19.8267  -17.6376  -15.7409 N   0  0  0  0  0  0  0  0  0  0  0  0
   20.8420  -17.5085  -16.5863 C   0  0  0  0  0  0  0  0  0  0  0  0
   21.7878  -18.3666  -16.2341 N   0  0  0  0  0  0  0  0  0  0  0  0
   20.9320  -22.0907  -13.8030 C   0  0  0  0  0  0  0  0  0  0  0  0
   19.6813  -22.2696  -13.5824 O   0  0  0  0  0  0  0  0  0  0  0  0
   21.5662  -23.1205  -14.4552 O   0  0  0  0  0  0  0  0  0  0  0  0
  2  1  1  0
  3  4  2  0
  3  2  1  0
  6  5  1  0
  6  7  2  0
  8  7  1  0
  9  8  2  0
 10  9  1  0
 11 12  1  0
 11 10  1  1
 12  3  1  0
 13 11  1  0
 14 13  2  0
 15 16  2  0
 15  9  1  0
 16  6  1  0
 17 13  1  0
 18 19  1  6
 18 17  1  0
 19 20  1  0
 20 21  2  0
 21 22  1  0
 23 22  1  0
 24 20  1  0
 24 23  2  0
 25 27  1  0
 25 18  1  0
 26 25  2  0
M  END
$$$$
