GYH.pdb
     RDKit          3D

 27 28  0  0  1  0  0  0  0  0999 V2000
   40.1547  -30.8523  -15.8040 N   0  0  0  0  0  0  0  0  0  0  0  0
   38.9023  -30.2675  -15.4230 C   0  0  0  0  0  0  0  0  0  0  0  0
   37.7766  -31.2273  -15.6375 C   0  0  0  0  0  0  0  0  0  0  0  0
   38.0485  -32.3731  -16.0408 O   0  0  0  0  0  0  0  0  0  0  0  0
   37.4832  -35.3233  -10.5257 O   0  0  0  0  0  0  0  0  0  0  0  0
   36.7717  -34.5403  -11.4400 C   0  0  0  0  0  0  0  0  0  0  0  0
   35.9311  -35.0961  -12.3864 C   0  0  0  0  0  0  0  0  0  0  0  0
   35.2516  -34.2853  -13.2652 C   0  0  0  0  0  0  0  0  0  0  0  0
   35.3645  -32.9085  -13.2558 C   0  0  0  0  0  0  0  0  0  0  0  0
   34.6373  -32.0440  -14.1961 C   0  0  0  0  0  0  0  0  0  0  0  0
   35.3739  -31.8730  -15.5108 C   0  0  2  0  0  0  0  0  0  0  0  0
   36.4299  -30.8906  -15.4034 N   0  0  0  0  0  0  0  0  0  0  0  0
   34.4121  -31.3929  -16.5445 C   0  0  0  0  0  0  0  0  0  0  0  0
   34.1974  -30.1594  -16.7320 O   0  0  0  0  0  0  0  0  0  0  0  0
   36.2059  -32.3472  -12.3090 C   0  0  0  0  0  0  0  0  0  0  0  0
   36.8843  -33.1618  -11.4310 C   0  0  0  0  0  0  0  0  0  0  0  0
   33.7244  -32.3270  -17.3325 N   0  0  0  0  0  0  0  0  0  0  0  0
   33.2581  -31.8930  -18.6845 C   0  0  1  0  0  0  0  0  0  0  0  0
   34.5241  -31.5482  -19.4031 C   0  0  0  0  0  0  0  0  0  0  0  0
   34.4065  -30.9814  -20.7314 C   0  0  0  0  0  0  0  0  0  0  0  0
   33.3239  -30.6417  -21.4677 C   0  0  0  0  0  0  0  0  0  0  0  0
   33.7805  -30.1115  -22.6230 N   0  0  0  0  0  0  0  0  0  0  0  0
   35.1079  -30.1172  -22.6123 C   0  0  0  0  0  0  0  0  0  0  0  0
   35.5121  -30.6441  -21.4661 N   0  0  0  0  0  0  0  0  0  0  0  0
   32.5974  -33.1235  -19.2273 C   0  0  0  0  0  0  0  0  0  0  0  0
   32.0993  -33.1124  -20.4090 O   0  0  0  0  0  0  0  0  0  0  0  0
   32.4703  -34.3111  -18.5478 O   0  0  0  0  0  0  0  0  0  0  0  0
  2  1  1  0
  3  4  2  0
  3  2  1  0
  6  5  1  0
  6  7  2  0
  8  7  1  0
  9  8  2  0
 10  9  1  0
 11 12  1  0
 11 10  1  1
 12  3  1  0
 13 11  1  0
 14 13  2  0
 15 16  2  0
 15  9  1  0
 16  6  1  0
 17 13  1  0
 18 19  1  6
 18 17  1  0
 19 20  1  0
 20 21  2  0
 21 22  1  0
 23 22  1  0
 24 20  1  0
 24 23  2  0
 25 27  1  0
 25 18  1  0
 26 25  2  0
M  END
$$$$
