GYH.pdb
     RDKit          3D

 27 28  0  0  1  0  0  0  0  0999 V2000
   31.3740  -21.9488  -10.6203 N   0  0  0  0  0  0  0  0  0  0  0  0
   30.4829  -20.8272  -10.6809 C   0  0  0  0  0  0  0  0  0  0  0  0
   29.1521  -21.1691  -10.0925 C   0  0  0  0  0  0  0  0  0  0  0  0
   28.8522  -22.3714   -9.9736 O   0  0  0  0  0  0  0  0  0  0  0  0
   29.3614  -20.1689   -3.3563 O   0  0  0  0  0  0  0  0  0  0  0  0
   28.6374  -20.0077   -4.5416 C   0  0  0  0  0  0  0  0  0  0  0  0
   28.6335  -18.8174   -5.2448 C   0  0  0  0  0  0  0  0  0  0  0  0
   27.9058  -18.7061   -6.4065 C   0  0  0  0  0  0  0  0  0  0  0  0
   27.1577  -19.7451   -6.9252 C   0  0  0  0  0  0  0  0  0  0  0  0
   26.3807  -19.6237   -8.1670 C   0  0  0  0  0  0  0  0  0  0  0  0
   26.8887  -20.5463   -9.2583 C   0  0  2  0  0  0  0  0  0  0  0  0
   28.2296  -20.1933   -9.6699 N   0  0  0  0  0  0  0  0  0  0  0  0
   26.0011  -20.4196  -10.4500 C   0  0  0  0  0  0  0  0  0  0  0  0
   25.9177  -19.3400  -11.1059 O   0  0  0  0  0  0  0  0  0  0  0  0
   27.1587  -20.9398   -6.2237 C   0  0  0  0  0  0  0  0  0  0  0  0
   27.8881  -21.0477   -5.0615 C   0  0  0  0  0  0  0  0  0  0  0  0
   25.2365  -21.5214  -10.8597 N   0  0  0  0  0  0  0  0  0  0  0  0
   24.6635  -21.5004  -12.2399 C   0  0  1  0  0  0  0  0  0  0  0  0
   24.8382  -22.9070  -12.7185 C   0  0  0  0  0  0  0  0  0  0  0  0
   24.2153  -23.2683  -13.9758 C   0  0  0  0  0  0  0  0  0  0  0  0
   23.5317  -22.5317  -14.8810 C   0  0  0  0  0  0  0  0  0  0  0  0
   23.2076  -23.3566  -15.9002 N   0  0  0  0  0  0  0  0  0  0  0  0
   23.6737  -24.5728  -15.6436 C   0  0  0  0  0  0  0  0  0  0  0  0
   24.2931  -24.5421  -14.4731 N   0  0  0  0  0  0  0  0  0  0  0  0
   23.2282  -21.1390  -12.0066 C   0  0  0  0  0  0  0  0  0  0  0  0
   22.6804  -21.3971  -10.8761 O   0  0  0  0  0  0  0  0  0  0  0  0
   22.4112  -20.5321  -12.9298 O   0  0  0  0  0  0  0  0  0  0  0  0
  2  1  1  0
  3  4  2  0
  3  2  1  0
  6  5  1  0
  6  7  2  0
  8  7  1  0
  9  8  2  0
 10  9  1  0
 11 12  1  0
 11 10  1  1
 12  3  1  0
 13 11  1  0
 14 13  2  0
 15 16  2  0
 15  9  1  0
 16  6  1  0
 17 13  1  0
 18 19  1  1
 18 17  1  0
 19 20  1  0
 20 21  2  0
 21 22  1  0
 23 22  1  0
 24 20  1  0
 24 23  2  0
 25 27  1  0
 25 18  1  0
 26 25  2  0
M  END
$$$$
