GYH.pdb
     RDKit          3D

 27 28  0  0  1  0  0  0  0  0999 V2000
   28.2576  -22.7929  -18.4051 N   0  0  0  0  0  0  0  0  0  0  0  0
   28.0382  -21.5351  -17.7527 C   0  0  0  0  0  0  0  0  0  0  0  0
   27.3149  -21.7231  -16.4582 C   0  0  0  0  0  0  0  0  0  0  0  0
   26.6330  -22.7537  -16.3090 O   0  0  0  0  0  0  0  0  0  0  0  0
   23.9378  -20.5369   -8.3744 O   0  0  0  0  0  0  0  0  0  0  0  0
   24.7333  -20.4484   -9.5208 C   0  0  0  0  0  0  0  0  0  0  0  0
   25.8188  -21.2791   -9.7286 C   0  0  0  0  0  0  0  0  0  0  0  0
   26.5724  -21.1547  -10.8723 C   0  0  0  0  0  0  0  0  0  0  0  0
   26.2987  -20.2209  -11.8528 C   0  0  0  0  0  0  0  0  0  0  0  0
   27.1055  -20.0899  -13.0744 C   0  0  0  0  0  0  0  0  0  0  0  0
   26.5754  -20.9431  -14.2107 C   0  0  2  0  0  0  0  0  0  0  0  0
   27.3730  -20.7881  -15.4072 N   0  0  0  0  0  0  0  0  0  0  0  0
   25.1857  -20.5086  -14.5334 C   0  0  0  0  0  0  0  0  0  0  0  0
   24.9511  -19.4147  -15.1258 O   0  0  0  0  0  0  0  0  0  0  0  0
   25.2118  -19.3863  -11.6488 C   0  0  0  0  0  0  0  0  0  0  0  0
   24.4599  -19.5136  -10.5030 C   0  0  0  0  0  0  0  0  0  0  0  0
   24.1065  -21.3288  -14.1739 N   0  0  0  0  0  0  0  0  0  0  0  0
   22.7251  -20.7955  -14.3767 C   0  0  1  0  0  0  0  0  0  0  0  0
   22.1316  -21.7226  -15.3897 C   0  0  0  0  0  0  0  0  0  0  0  0
   22.3426  -21.4091  -16.7884 C   0  0  0  0  0  0  0  0  0  0  0  0
   22.9035  -20.3360  -17.3911 C   0  0  0  0  0  0  0  0  0  0  0  0
   22.8879  -20.5746  -18.7205 N   0  0  0  0  0  0  0  0  0  0  0  0
   22.3356  -21.7605  -18.9455 C   0  0  0  0  0  0  0  0  0  0  0  0
   21.9950  -22.2885  -17.7793 N   0  0  0  0  0  0  0  0  0  0  0  0
   22.1031  -20.9392  -13.0210 C   0  0  0  0  0  0  0  0  0  0  0  0
   21.0787  -20.2328  -12.7104 O   0  0  0  0  0  0  0  0  0  0  0  0
   22.5472  -21.7925  -12.0398 O   0  0  0  0  0  0  0  0  0  0  0  0
  2  1  1  0
  3  4  2  0
  3  2  1  0
  6  5  1  0
  6  7  2  0
  8  7  1  0
  9  8  2  0
 10  9  1  0
 11 12  1  0
 11 10  1  1
 12  3  1  0
 13 11  1  0
 14 13  2  0
 15 16  2  0
 15  9  1  0
 16  6  1  0
 17 13  1  0
 18 19  1  6
 18 17  1  0
 19 20  1  0
 20 21  2  0
 21 22  1  0
 23 22  1  0
 24 20  1  0
 24 23  2  0
 25 27  1  0
 25 18  1  0
 26 25  2  0
M  END
$$$$
