GYH.pdb
     RDKit          3D

 27 28  0  0  1  0  0  0  0  0999 V2000
   28.8150  -22.6143  -18.0053 N   0  0  0  0  0  0  0  0  0  0  0  0
   28.6518  -21.3616  -17.3272 C   0  0  0  0  0  0  0  0  0  0  0  0
   27.7335  -21.5030  -16.1562 C   0  0  0  0  0  0  0  0  0  0  0  0
   26.8129  -22.3377  -16.2273 O   0  0  0  0  0  0  0  0  0  0  0  0
   23.9358  -20.8376   -8.2074 O   0  0  0  0  0  0  0  0  0  0  0  0
   24.8147  -20.7199   -9.2884 C   0  0  0  0  0  0  0  0  0  0  0  0
   25.5798  -21.7821   -9.7332 C   0  0  0  0  0  0  0  0  0  0  0  0
   26.4309  -21.6186  -10.8010 C   0  0  0  0  0  0  0  0  0  0  0  0
   26.5687  -20.4197  -11.4733 C   0  0  0  0  0  0  0  0  0  0  0  0
   27.4791  -20.2473  -12.6143 C   0  0  0  0  0  0  0  0  0  0  0  0
   26.9274  -20.8547  -13.8899 C   0  0  2  0  0  0  0  0  0  0  0  0
   27.8665  -20.7356  -14.9835 N   0  0  0  0  0  0  0  0  0  0  0  0
   25.6869  -20.1228  -14.2764 C   0  0  0  0  0  0  0  0  0  0  0  0
   25.7269  -18.9506  -14.7529 O   0  0  0  0  0  0  0  0  0  0  0  0
   25.8040  -19.3524  -11.0310 C   0  0  0  0  0  0  0  0  0  0  0  0
   24.9532  -19.5198   -9.9620 C   0  0  0  0  0  0  0  0  0  0  0  0
   24.4406  -20.7436  -14.1101 N   0  0  0  0  0  0  0  0  0  0  0  0
   23.2155  -19.9497  -14.4305 C   0  0  1  0  0  0  0  0  0  0  0  0
   22.8460  -20.4063  -15.8063 C   0  0  0  0  0  0  0  0  0  0  0  0
   21.6015  -19.9154  -16.3626 C   0  0  0  0  0  0  0  0  0  0  0  0
   20.6846  -19.0470  -15.8780 C   0  0  0  0  0  0  0  0  0  0  0  0
   19.7328  -18.9053  -16.8258 N   0  0  0  0  0  0  0  0  0  0  0  0
   20.0425  -19.6601  -17.8729 C   0  0  0  0  0  0  0  0  0  0  0  0
   21.1805  -20.2861  -17.6121 N   0  0  0  0  0  0  0  0  0  0  0  0
   22.2381  -20.3970  -13.3865 C   0  0  0  0  0  0  0  0  0  0  0  0
   22.3168  -21.5828  -12.9044 O   0  0  0  0  0  0  0  0  0  0  0  0
   21.2235  -19.6225  -12.8776 O   0  0  0  0  0  0  0  0  0  0  0  0
  2  1  1  0
  3  4  2  0
  3  2  1  0
  6  5  1  0
  6  7  2  0
  8  7  1  0
  9  8  2  0
 10  9  1  0
 11 12  1  0
 11 10  1  1
 12  3  1  0
 13 11  1  0
 14 13  2  0
 15 16  2  0
 15  9  1  0
 16  6  1  0
 17 13  1  0
 18 19  1  6
 18 17  1  0
 19 20  1  0
 20 21  2  0
 21 22  1  0
 23 22  1  0
 24 20  1  0
 24 23  2  0
 25 27  1  0
 25 18  1  0
 26 25  2  0
M  END
$$$$
