GYH.pdb
     RDKit          3D

 27 28  0  0  1  0  0  0  0  0999 V2000
   28.8502  -20.7012  -18.6246 N   0  0  0  0  0  0  0  0  0  0  0  0
   29.1909  -21.7452  -17.7029 C   0  0  0  0  0  0  0  0  0  0  0  0
   28.2496  -21.7617  -16.5418 C   0  0  0  0  0  0  0  0  0  0  0  0
   27.4199  -22.6867  -16.4694 O   0  0  0  0  0  0  0  0  0  0  0  0
   24.4131  -20.2878   -8.7342 O   0  0  0  0  0  0  0  0  0  0  0  0
   25.2695  -20.2185   -9.8372 C   0  0  0  0  0  0  0  0  0  0  0  0
   25.3753  -19.0809  -10.6157 C   0  0  0  0  0  0  0  0  0  0  0  0
   26.2319  -19.0596  -11.6915 C   0  0  0  0  0  0  0  0  0  0  0  0
   27.0144  -20.1406  -12.0485 C   0  0  0  0  0  0  0  0  0  0  0  0
   27.9291  -20.1155  -13.1987 C   0  0  0  0  0  0  0  0  0  0  0  0
   27.3623  -20.8426  -14.4030 C   0  0  2  0  0  0  0  0  0  0  0  0
   28.2630  -20.7799  -15.5329 N   0  0  0  0  0  0  0  0  0  0  0  0
   26.0845  -20.1875  -14.8055 C   0  0  0  0  0  0  0  0  0  0  0  0
   26.0675  -19.0634  -15.3877 O   0  0  0  0  0  0  0  0  0  0  0  0
   26.9116  -21.2827  -11.2711 C   0  0  0  0  0  0  0  0  0  0  0  0
   26.0534  -21.3004  -10.1952 C   0  0  0  0  0  0  0  0  0  0  0  0
   24.8668  -20.8281  -14.5349 N   0  0  0  0  0  0  0  0  0  0  0  0
   23.6051  -20.1145  -14.8993 C   0  0  1  0  0  0  0  0  0  0  0  0
   23.1272  -20.8379  -16.1184 C   0  0  0  0  0  0  0  0  0  0  0  0
   21.8336  -20.4648  -16.6538 C   0  0  0  0  0  0  0  0  0  0  0  0
   20.9424  -19.5233  -16.2683 C   0  0  0  0  0  0  0  0  0  0  0  0
   19.9158  -19.5662  -17.1450 N   0  0  0  0  0  0  0  0  0  0  0  0
   20.1551  -20.5046  -18.0530 C   0  0  0  0  0  0  0  0  0  0  0  0
   21.3215  -21.0664  -17.7726 N   0  0  0  0  0  0  0  0  0  0  0  0
   22.7286  -20.3432  -13.7057 C   0  0  0  0  0  0  0  0  0  0  0  0
   22.9332  -21.3576  -12.9481 O   0  0  0  0  0  0  0  0  0  0  0  0
   21.6828  -19.5337  -13.3329 O   0  0  0  0  0  0  0  0  0  0  0  0
  2  1  1  0
  3  4  2  0
  3  2  1  0
  6  5  1  0
  6  7  2  0
  8  7  1  0
  9  8  2  0
 10  9  1  0
 11 12  1  0
 11 10  1  1
 12  3  1  0
 13 11  1  0
 14 13  2  0
 15 16  2  0
 15  9  1  0
 16  6  1  0
 17 13  1  0
 18 19  1  6
 18 17  1  0
 19 20  1  0
 20 21  2  0
 21 22  1  0
 23 22  1  0
 24 20  1  0
 24 23  2  0
 25 27  1  0
 25 18  1  0
 26 25  2  0
M  END
$$$$
