GYH.pdb
     RDKit          3D

 27 28  0  0  1  0  0  0  0  0999 V2000
   28.1210  -21.8938  -18.7227 N   0  0  0  0  0  0  0  0  0  0  0  0
   28.3232  -20.8225  -17.7915 C   0  0  0  0  0  0  0  0  0  0  0  0
   27.5763  -21.0704  -16.5207 C   0  0  0  0  0  0  0  0  0  0  0  0
   26.6780  -21.9321  -16.5241 O   0  0  0  0  0  0  0  0  0  0  0  0
   24.5777  -20.7471   -8.2250 O   0  0  0  0  0  0  0  0  0  0  0  0
   25.3523  -20.5516   -9.3725 C   0  0  0  0  0  0  0  0  0  0  0  0
   25.5998  -19.2924   -9.8869 C   0  0  0  0  0  0  0  0  0  0  0  0
   26.3680  -19.1495  -11.0187 C   0  0  0  0  0  0  0  0  0  0  0  0
   26.9218  -20.2226  -11.6896 C   0  0  0  0  0  0  0  0  0  0  0  0
   27.7425  -20.0673  -12.8990 C   0  0  0  0  0  0  0  0  0  0  0  0
   27.0278  -20.5484  -14.1473 C   0  0  2  0  0  0  0  0  0  0  0  0
   27.8454  -20.3735  -15.3274 N   0  0  0  0  0  0  0  0  0  0  0  0
   25.7860  -19.7438  -14.3334 C   0  0  0  0  0  0  0  0  0  0  0  0
   25.8186  -18.5688  -14.8037 O   0  0  0  0  0  0  0  0  0  0  0  0
   26.6763  -21.4863  -11.1776 C   0  0  0  0  0  0  0  0  0  0  0  0
   25.9070  -21.6256  -10.0448 C   0  0  0  0  0  0  0  0  0  0  0  0
   24.5470  -20.2974  -13.9801 N   0  0  0  0  0  0  0  0  0  0  0  0
   23.3263  -19.4553  -14.1662 C   0  0  1  0  0  0  0  0  0  0  0  0
   23.1360  -19.4285  -15.6498 C   0  0  0  0  0  0  0  0  0  0  0  0
   21.9061  -18.8540  -16.1564 C   0  0  0  0  0  0  0  0  0  0  0  0
   20.8643  -18.2674  -15.5238 C   0  0  0  0  0  0  0  0  0  0  0  0
   19.9966  -17.8653  -16.4776 N   0  0  0  0  0  0  0  0  0  0  0  0
   20.4786  -18.1882  -17.6716 C   0  0  0  0  0  0  0  0  0  0  0  0
   21.6446  -18.7930  -17.4994 N   0  0  0  0  0  0  0  0  0  0  0  0
   22.2628  -20.2372  -13.4570 C   0  0  0  0  0  0  0  0  0  0  0  0
   21.1413  -19.6817  -13.1771 O   0  0  0  0  0  0  0  0  0  0  0  0
   22.3833  -21.5479  -13.0623 O   0  0  0  0  0  0  0  0  0  0  0  0
  2  1  1  0
  3  4  2  0
  3  2  1  0
  6  5  1  0
  6  7  2  0
  8  7  1  0
  9  8  2  0
 10  9  1  0
 11 12  1  0
 11 10  1  1
 12  3  1  0
 13 11  1  0
 14 13  2  0
 15 16  2  0
 15  9  1  0
 16  6  1  0
 17 13  1  0
 18 19  1  6
 18 17  1  0
 19 20  1  0
 20 21  2  0
 21 22  1  0
 23 22  1  0
 24 20  1  0
 24 23  2  0
 25 27  1  0
 25 18  1  0
 26 25  2  0
M  END
$$$$
