GYH.pdb
     RDKit          3D

 27 28  0  0  1  0  0  0  0  0999 V2000
   44.4739  -11.6866   -6.3909 N   0  0  0  0  0  0  0  0  0  0  0  0
   44.8165  -10.3102   -6.1817 C   0  0  0  0  0  0  0  0  0  0  0  0
   43.9995   -9.4166   -7.0583 C   0  0  0  0  0  0  0  0  0  0  0  0
   43.4656   -9.9106   -8.0684 O   0  0  0  0  0  0  0  0  0  0  0  0
   38.1723  -11.0285   -5.9175 O   0  0  0  0  0  0  0  0  0  0  0  0
   39.0619   -9.9759   -6.1530 C   0  0  0  0  0  0  0  0  0  0  0  0
   39.9378   -9.5226   -5.1842 C   0  0  0  0  0  0  0  0  0  0  0  0
   40.7950   -8.4836   -5.4623 C   0  0  0  0  0  0  0  0  0  0  0  0
   40.8315   -7.8494   -6.6890 C   0  0  0  0  0  0  0  0  0  0  0  0
   41.7484   -6.7392   -6.9838 C   0  0  0  0  0  0  0  0  0  0  0  0
   43.0214   -7.2066   -7.6630 C   0  0  2  0  0  0  0  0  0  0  0  0
   43.8104   -8.0476   -6.7900 N   0  0  0  0  0  0  0  0  0  0  0  0
   43.8478   -6.0155   -8.0127 C   0  0  0  0  0  0  0  0  0  0  0  0
   44.6766   -5.5174   -7.1956 O   0  0  0  0  0  0  0  0  0  0  0  0
   39.9554   -8.3004   -7.6629 C   0  0  0  0  0  0  0  0  0  0  0  0
   39.0990   -9.3405   -7.3811 C   0  0  0  0  0  0  0  0  0  0  0  0
   43.7078   -5.4273   -9.2780 N   0  0  0  0  0  0  0  0  0  0  0  0
   44.5694   -4.2496   -9.6009 C   0  0  1  0  0  0  0  0  0  0  0  0
   44.7526   -4.3390  -11.0829 C   0  0  0  0  0  0  0  0  0  0  0  0
   45.5431   -3.3072  -11.7230 C   0  0  0  0  0  0  0  0  0  0  0  0
   46.2411   -2.2673  -11.2121 C   0  0  0  0  0  0  0  0  0  0  0  0
   46.8351   -1.6401  -12.2504 N   0  0  0  0  0  0  0  0  0  0  0  0
   46.5209   -2.2668  -13.3777 C   0  0  0  0  0  0  0  0  0  0  0  0
   45.7325   -3.2886  -13.0793 N   0  0  0  0  0  0  0  0  0  0  0  0
   43.7216   -3.0850   -9.1884 C   0  0  0  0  0  0  0  0  0  0  0  0
   42.4641   -3.2472   -8.9952 O   0  0  0  0  0  0  0  0  0  0  0  0
   44.1858   -1.8069   -8.9902 O   0  0  0  0  0  0  0  0  0  0  0  0
  2  1  1  0
  3  4  2  0
  3  2  1  0
  6  5  1  0
  6  7  2  0
  8  7  1  0
  9  8  2  0
 10  9  1  0
 11 12  1  0
 11 10  1  1
 12  3  1  0
 13 11  1  0
 14 13  2  0
 15 16  2  0
 15  9  1  0
 16  6  1  0
 17 13  1  0
 18 19  1  6
 18 17  1  0
 19 20  1  0
 20 21  2  0
 21 22  1  0
 23 22  1  0
 24 20  1  0
 24 23  2  0
 25 27  1  0
 25 18  1  0
 26 25  2  0
M  END
$$$$
