GYH.pdb
     RDKit          3D

 27 28  0  0  1  0  0  0  0  0999 V2000
   28.1905  -22.7510  -17.8529 N   0  0  0  0  0  0  0  0  0  0  0  0
   27.9604  -21.5117  -17.1696 C   0  0  0  0  0  0  0  0  0  0  0  0
   27.1241  -21.7214  -15.9486 C   0  0  0  0  0  0  0  0  0  0  0  0
   26.3933  -22.7280  -15.9013 O   0  0  0  0  0  0  0  0  0  0  0  0
   23.2412  -20.8556   -8.0572 O   0  0  0  0  0  0  0  0  0  0  0  0
   24.0735  -20.6758   -9.1662 C   0  0  0  0  0  0  0  0  0  0  0  0
   23.8129  -19.7241  -10.1346 C   0  0  0  0  0  0  0  0  0  0  0  0
   24.6608  -19.5840  -11.2084 C   0  0  0  0  0  0  0  0  0  0  0  0
   25.7895  -20.3619  -11.3791 C   0  0  0  0  0  0  0  0  0  0  0  0
   26.6941  -20.2102  -12.5277 C   0  0  0  0  0  0  0  0  0  0  0  0
   26.2359  -21.0089  -13.7328 C   0  0  2  0  0  0  0  0  0  0  0  0
   27.1289  -20.8328  -14.8568 N   0  0  0  0  0  0  0  0  0  0  0  0
   24.8865  -20.5275  -14.1468 C   0  0  0  0  0  0  0  0  0  0  0  0
   24.7280  -19.4202  -14.7398 O   0  0  0  0  0  0  0  0  0  0  0  0
   26.0545  -21.3169  -10.4111 C   0  0  0  0  0  0  0  0  0  0  0  0
   25.2037  -21.4544   -9.3378 C   0  0  0  0  0  0  0  0  0  0  0  0
   23.7600  -21.3172  -13.8750 N   0  0  0  0  0  0  0  0  0  0  0  0
   22.4277  -20.8147  -14.3294 C   0  0  1  0  0  0  0  0  0  0  0  0
   22.1114  -21.6695  -15.5156 C   0  0  0  0  0  0  0  0  0  0  0  0
   20.8053  -21.5138  -16.1234 C   0  0  0  0  0  0  0  0  0  0  0  0
   19.7551  -20.7252  -15.8000 C   0  0  0  0  0  0  0  0  0  0  0  0
   18.7974  -20.9398  -16.7279 N   0  0  0  0  0  0  0  0  0  0  0  0
   19.2327  -21.8342  -17.6069 C   0  0  0  0  0  0  0  0  0  0  0  0
   20.4574  -22.1986  -17.2574 N   0  0  0  0  0  0  0  0  0  0  0  0
   21.5400  -21.0965  -13.1555 C   0  0  0  0  0  0  0  0  0  0  0  0
   21.7453  -22.1374  -12.4350 O   0  0  0  0  0  0  0  0  0  0  0  0
   20.4829  -20.3107  -12.7641 O   0  0  0  0  0  0  0  0  0  0  0  0
  2  1  1  0
  3  4  2  0
  3  2  1  0
  6  5  1  0
  6  7  2  0
  8  7  1  0
  9  8  2  0
 10  9  1  0
 11 12  1  0
 11 10  1  1
 12  3  1  0
 13 11  1  0
 14 13  2  0
 15 16  2  0
 15  9  1  0
 16  6  1  0
 17 13  1  0
 18 19  1  6
 18 17  1  0
 19 20  1  0
 20 21  2  0
 21 22  1  0
 23 22  1  0
 24 20  1  0
 24 23  2  0
 25 27  1  0
 25 18  1  0
 26 25  2  0
M  END
$$$$
