GYH.pdb
     RDKit          3D

 27 28  0  0  1  0  0  0  0  0999 V2000
   28.7179  -22.9150  -17.8758 N   0  0  0  0  0  0  0  0  0  0  0  0
   28.4352  -21.6456  -17.2721 C   0  0  0  0  0  0  0  0  0  0  0  0
   27.5869  -21.8105  -16.0526 C   0  0  0  0  0  0  0  0  0  0  0  0
   27.1341  -22.9419  -15.7988 O   0  0  0  0  0  0  0  0  0  0  0  0
   23.9538  -20.8097   -8.0949 O   0  0  0  0  0  0  0  0  0  0  0  0
   24.6424  -20.5801   -9.2899 C   0  0  0  0  0  0  0  0  0  0  0  0
   24.1004  -19.8330  -10.3191 C   0  0  0  0  0  0  0  0  0  0  0  0
   24.8159  -19.6339  -11.4767 C   0  0  0  0  0  0  0  0  0  0  0  0
   26.0807  -20.1526  -11.6750 C   0  0  0  0  0  0  0  0  0  0  0  0
   26.8435  -19.9386  -12.9131 C   0  0  0  0  0  0  0  0  0  0  0  0
   26.4882  -20.9444  -13.9912 C   0  0  2  0  0  0  0  0  0  0  0  0
   27.2808  -20.7453  -15.1845 N   0  0  0  0  0  0  0  0  0  0  0  0
   25.0553  -20.7666  -14.3645 C   0  0  0  0  0  0  0  0  0  0  0  0
   24.6785  -19.8333  -15.1323 O   0  0  0  0  0  0  0  0  0  0  0  0
   26.6279  -20.9020  -10.6462 C   0  0  0  0  0  0  0  0  0  0  0  0
   25.9089  -21.0992   -9.4891 C   0  0  0  0  0  0  0  0  0  0  0  0
   24.0956  -21.6530  -13.8550 N   0  0  0  0  0  0  0  0  0  0  0  0
   22.6826  -21.4940  -14.3153 C   0  0  1  0  0  0  0  0  0  0  0  0
   22.2628  -22.8876  -14.6614 C   0  0  0  0  0  0  0  0  0  0  0  0
   20.8732  -23.1002  -15.0124 C   0  0  0  0  0  0  0  0  0  0  0  0
   19.8140  -22.2591  -15.0259 C   0  0  0  0  0  0  0  0  0  0  0  0
   18.7545  -22.9628  -15.4804 N   0  0  0  0  0  0  0  0  0  0  0  0
   19.1364  -24.2064  -15.7449 C   0  0  0  0  0  0  0  0  0  0  0  0
   20.4271  -24.3129  -15.4666 N   0  0  0  0  0  0  0  0  0  0  0  0
   21.9870  -20.9616  -13.0996 C   0  0  0  0  0  0  0  0  0  0  0  0
   22.3444  -21.3592  -11.9339 O   0  0  0  0  0  0  0  0  0  0  0  0
   20.9594  -20.0496  -13.1192 O   0  0  0  0  0  0  0  0  0  0  0  0
  2  1  1  0
  3  4  2  0
  3  2  1  0
  6  5  1  0
  6  7  2  0
  8  7  1  0
  9  8  2  0
 10  9  1  0
 11 12  1  0
 11 10  1  1
 12  3  1  0
 13 11  1  0
 14 13  2  0
 15 16  2  0
 15  9  1  0
 16  6  1  0
 17 13  1  0
 18 19  1  1
 18 17  1  0
 19 20  1  0
 20 21  2  0
 21 22  1  0
 23 22  1  0
 24 20  1  0
 24 23  2  0
 25 27  1  0
 25 18  1  0
 26 25  2  0
M  END
$$$$
