ASL.pdb
     RDKit          3D

 20 19  0  0  1  0  0  0  0  0999 V2000
   17.3762   -9.5496  -17.7498 C   0  0  0  0  0  0  0  0  0  0  0  0
   17.9675  -10.4146  -16.6881 C   0  0  2  0  0  0  0  0  0  0  0  0
   16.9296  -11.1715  -16.0209 N   0  0  0  0  0  0  0  0  0  0  0  0
   18.7698   -9.6511  -15.6887 C   0  0  0  0  0  0  0  0  0  0  0  0
   18.2516   -8.8183  -14.9143 O   0  0  0  0  0  0  0  0  0  0  0  0
   23.1087  -10.3668  -15.2029 O   0  0  0  0  0  0  0  0  0  0  0  0
   22.2202   -9.9501  -14.2430 C   0  0  0  0  0  0  0  0  0  0  0  0
   21.0736   -9.1604  -14.7679 C   0  0  2  0  0  0  0  0  0  0  0  0
   20.1711   -9.8834  -15.6201 N   0  0  0  0  0  0  0  0  0  0  0  0
   21.4689   -7.8199  -15.3216 C   0  0  0  0  0  0  0  0  0  0  0  0
   21.5299   -7.6954  -16.5601 O   0  0  0  0  0  0  0  0  0  0  0  0
   20.1941   -3.2649  -17.5175 C   0  0  0  0  0  0  0  0  0  0  0  0
   21.1966   -3.5444  -16.4208 C   0  0  1  0  0  0  0  0  0  0  0  0
   20.9737   -2.5694  -15.2554 C   0  0  0  0  0  0  0  0  0  0  0  0
   20.9920   -4.9200  -15.8368 C   0  0  0  0  0  0  0  0  0  0  0  0
   22.1655   -5.4145  -15.0287 C   0  0  2  0  0  0  0  0  0  0  0  0
   21.7676   -6.7191  -14.5105 N   0  0  0  0  0  0  0  0  0  0  0  0
   22.5259   -4.4934  -13.9353 C   0  0  0  0  0  0  0  0  0  0  0  0
   23.4307   -3.4596  -14.1082 O   0  0  0  0  0  0  0  0  0  0  0  0
   22.0013   -4.6431  -12.8080 O   0  0  0  0  0  0  0  0  0  0  0  0
  2  1  1  6
  2  4  1  0
  2  3  1  0
  4  5  2  0
  8  7  1  6
  7  6  1  0
  9  4  1  0
  9  8  1  0
 10  8  1  0
 10 11  2  0
 13 12  1  6
 13 14  1  0
 13 15  1  0
 16 15  1  1
 16 17  1  0
 16 18  1  0
 17 10  1  0
 18 20  2  0
 18 19  1  0
M  END
$$$$
