ASL.pdb
     RDKit          3D

 20 19  0  0  1  0  0  0  0  0999 V2000
   17.2352  -14.5874  -19.1226 C   0  0  0  0  0  0  0  0  0  0  0  0
   16.8533  -13.7104  -17.9779 C   0  0  2  0  0  0  0  0  0  0  0  0
   15.4261  -13.4689  -17.9845 N   0  0  0  0  0  0  0  0  0  0  0  0
   17.5936  -12.4153  -17.9587 C   0  0  0  0  0  0  0  0  0  0  0  0
   18.7335  -12.2920  -18.4560 O   0  0  0  0  0  0  0  0  0  0  0  0
   15.8250   -8.7057  -16.2165 O   0  0  0  0  0  0  0  0  0  0  0  0
   16.6177   -8.8435  -17.3288 C   0  0  0  0  0  0  0  0  0  0  0  0
   17.5724   -9.9831  -17.2662 C   0  0  2  0  0  0  0  0  0  0  0  0
   16.9759  -11.2870  -17.3524 N   0  0  0  0  0  0  0  0  0  0  0  0
   18.5815   -9.8631  -16.1584 C   0  0  0  0  0  0  0  0  0  0  0  0
   18.3212  -10.4120  -15.0704 O   0  0  0  0  0  0  0  0  0  0  0  0
   22.7018  -10.3271  -13.2846 C   0  0  0  0  0  0  0  0  0  0  0  0
   23.0916   -9.7515  -14.6272 C   0  0  1  0  0  0  0  0  0  0  0  0
   24.2202  -10.5921  -15.2423 C   0  0  0  0  0  0  0  0  0  0  0  0
   21.9482   -9.8383  -15.6071 C   0  0  0  0  0  0  0  0  0  0  0  0
   20.7566   -8.9979  -15.2217 C   0  0  2  0  0  0  0  0  0  0  0  0
   19.7877   -9.1673  -16.2994 N   0  0  0  0  0  0  0  0  0  0  0  0
   21.1047   -7.5772  -15.0356 C   0  0  0  0  0  0  0  0  0  0  0  0
   21.0918   -6.6703  -16.0818 O   0  0  0  0  0  0  0  0  0  0  0  0
   21.4246   -7.1674  -13.8963 O   0  0  0  0  0  0  0  0  0  0  0  0
  2  1  1  6
  2  4  1  0
  2  3  1  0
  4  5  2  0
  8  7  1  1
  7  6  1  0
  9  4  1  0
  9  8  1  0
 10  8  1  0
 10 11  2  0
 13 12  1  1
 13 14  1  0
 13 15  1  0
 16 15  1  6
 16 17  1  0
 16 18  1  0
 17 10  1  0
 18 20  2  0
 18 19  1  0
M  END
$$$$
