ASL.pdb
     RDKit          3D

 20 19  0  0  1  0  0  0  0  0999 V2000
   24.0622  -19.4284  -18.8709 C   0  0  0  0  0  0  0  0  0  0  0  0
   25.3828  -19.8682  -18.3345 C   0  0  2  0  0  0  0  0  0  0  0  0
   26.1193  -20.5951  -19.3466 N   0  0  0  0  0  0  0  0  0  0  0  0
   25.2683  -20.6885  -17.0937 C   0  0  0  0  0  0  0  0  0  0  0  0
   24.2268  -21.3151  -16.8031 O   0  0  0  0  0  0  0  0  0  0  0  0
   28.7711  -21.0810  -15.0520 O   0  0  0  0  0  0  0  0  0  0  0  0
   27.7494  -21.7264  -14.4007 C   0  0  0  0  0  0  0  0  0  0  0  0
   26.3991  -21.4731  -14.9720 C   0  0  2  0  0  0  0  0  0  0  0  0
   26.3854  -20.7556  -16.2164 N   0  0  0  0  0  0  0  0  0  0  0  0
   25.4108  -20.9446  -13.9701 C   0  0  0  0  0  0  0  0  0  0  0  0
   25.1923  -19.7178  -13.9578 O   0  0  0  0  0  0  0  0  0  0  0  0
   26.6206  -19.9427   -9.8214 C   0  0  0  0  0  0  0  0  0  0  0  0
   25.7864  -20.9691  -10.5540 C   0  0  1  0  0  0  0  0  0  0  0  0
   25.2316  -21.9940   -9.5538 C   0  0  0  0  0  0  0  0  0  0  0  0
   24.5750  -20.3314  -11.1872 C   0  0  0  0  0  0  0  0  0  0  0  0
   23.7884  -21.2698  -12.0678 C   0  0  2  0  0  0  0  0  0  0  0  0
   24.7344  -21.7665  -13.0614 N   0  0  0  0  0  0  0  0  0  0  0  0
   22.6376  -20.6090  -12.7102 C   0  0  0  0  0  0  0  0  0  0  0  0
   22.4979  -20.5415  -14.0861 O   0  0  0  0  0  0  0  0  0  0  0  0
   21.7511  -20.0876  -11.9957 O   0  0  0  0  0  0  0  0  0  0  0  0
  2  1  1  6
  2  4  1  0
  2  3  1  0
  4  5  2  0
  8  7  1  1
  7  6  1  0
  9  4  1  0
  9  8  1  0
 10  8  1  0
 10 11  2  0
 13 12  1  1
 13 14  1  0
 13 15  1  0
 16 15  1  1
 16 17  1  0
 16 18  1  0
 17 10  1  0
 18 20  2  0
 18 19  1  0
M  END
$$$$
