ASL.pdb
     RDKit          3D

 20 19  0  0  1  0  0  0  0  0999 V2000
   28.2131  -18.6497  -19.2258 C   0  0  0  0  0  0  0  0  0  0  0  0
   27.6829  -19.6325  -18.2368 C   0  0  2  0  0  0  0  0  0  0  0  0
   26.8394  -20.6054  -18.8981 N   0  0  0  0  0  0  0  0  0  0  0  0
   26.9429  -18.9912  -17.1114 C   0  0  0  0  0  0  0  0  0  0  0  0
   27.4526  -18.0970  -16.4026 O   0  0  0  0  0  0  0  0  0  0  0  0
   22.5977  -18.6359  -16.7432 O   0  0  0  0  0  0  0  0  0  0  0  0
   23.6933  -17.9878  -16.2294 C   0  0  0  0  0  0  0  0  0  0  0  0
   24.7904  -18.8906  -15.7874 C   0  0  2  0  0  0  0  0  0  0  0  0
   25.6130  -19.4162  -16.8413 N   0  0  0  0  0  0  0  0  0  0  0  0
   24.3499  -19.9350  -14.8000 C   0  0  0  0  0  0  0  0  0  0  0  0
   23.9749  -21.0370  -15.2450 O   0  0  0  0  0  0  0  0  0  0  0  0
   26.4638  -21.6393  -11.4201 C   0  0  0  0  0  0  0  0  0  0  0  0
   25.2945  -21.3316  -10.5124 C   0  0  1  0  0  0  0  0  0  0  0  0
   25.8059  -20.7237   -9.1980 C   0  0  0  0  0  0  0  0  0  0  0  0
   24.3996  -20.2795  -11.1186 C   0  0  0  0  0  0  0  0  0  0  0  0
   23.8149  -20.6774  -12.4507 C   0  0  2  0  0  0  0  0  0  0  0  0
   24.3445  -19.7210  -13.4169 N   0  0  0  0  0  0  0  0  0  0  0  0
   22.3405  -20.6691  -12.4447 C   0  0  0  0  0  0  0  0  0  0  0  0
   21.5961  -21.8163  -12.2281 O   0  0  0  0  0  0  0  0  0  0  0  0
   21.7316  -19.5926  -12.6418 O   0  0  0  0  0  0  0  0  0  0  0  0
  2  1  1  6
  2  4  1  0
  2  3  1  0
  4  5  2  0
  8  7  1  6
  7  6  1  0
  9  4  1  0
  9  8  1  0
 10  8  1  0
 10 11  2  0
 13 12  1  6
 13 14  1  0
 13 15  1  0
 16 15  1  1
 16 17  1  0
 16 18  1  0
 17 10  1  0
 18 20  2  0
 18 19  1  0
M  END
$$$$
