ASL.pdb
     RDKit          3D

 20 19  0  0  1  0  0  0  0  0999 V2000
   27.6288  -18.9043  -15.4237 C   0  0  0  0  0  0  0  0  0  0  0  0
   27.8099  -20.2808  -14.8782 C   0  0  2  0  0  0  0  0  0  0  0  0
   28.2273  -21.1862  -15.9277 N   0  0  0  0  0  0  0  0  0  0  0  0
   26.5904  -20.8080  -14.1996 C   0  0  0  0  0  0  0  0  0  0  0  0
   25.6404  -21.3136  -14.8349 O   0  0  0  0  0  0  0  0  0  0  0  0
   26.7543  -21.4486  -10.1125 O   0  0  0  0  0  0  0  0  0  0  0  0
   25.5223  -21.0179  -10.5378 C   0  0  0  0  0  0  0  0  0  0  0  0
   25.3390  -21.0406  -12.0143 C   0  0  2  0  0  0  0  0  0  0  0  0
   26.5127  -20.7297  -12.7818 N   0  0  0  0  0  0  0  0  0  0  0  0
   24.1124  -20.3069  -12.4802 C   0  0  0  0  0  0  0  0  0  0  0  0
   24.2514  -19.1364  -12.8847 O   0  0  0  0  0  0  0  0  0  0  0  0
   21.2754  -18.3470  -15.7499 C   0  0  0  0  0  0  0  0  0  0  0  0
   21.1765  -19.8541  -15.6783 C   0  0  1  0  0  0  0  0  0  0  0  0
   21.5452  -20.4619  -17.0395 C   0  0  0  0  0  0  0  0  0  0  0  0
   22.1798  -20.4176  -14.7031 C   0  0  0  0  0  0  0  0  0  0  0  0
   21.7183  -20.3742  -13.2679 C   0  0  2  0  0  0  0  0  0  0  0  0
   22.8355  -20.8799  -12.4774 N   0  0  0  0  0  0  0  0  0  0  0  0
   20.5001  -21.1737  -13.0425 C   0  0  0  0  0  0  0  0  0  0  0  0
   19.2520  -20.5927  -12.8941 O   0  0  0  0  0  0  0  0  0  0  0  0
   20.5869  -22.4215  -12.9814 O   0  0  0  0  0  0  0  0  0  0  0  0
  2  1  1  6
  2  4  1  0
  2  3  1  0
  4  5  2  0
  8  7  1  1
  7  6  1  0
  9  4  1  0
  9  8  1  0
 10  8  1  0
 10 11  2  0
 13 12  1  6
 13 14  1  0
 13 15  1  0
 16 15  1  6
 16 17  1  0
 16 18  1  0
 17 10  1  0
 18 20  2  0
 18 19  1  0
M  END
$$$$
