ASL.pdb
     RDKit          3D

 20 19  0  0  1  0  0  0  0  0999 V2000
   27.4613  -19.9739  -15.2689 C   0  0  0  0  0  0  0  0  0  0  0  0
   26.3293  -20.7593  -15.8406 C   0  0  2  0  0  0  0  0  0  0  0  0
   26.7574  -21.4651  -17.0296 N   0  0  0  0  0  0  0  0  0  0  0  0
   25.1298  -19.9251  -16.1421 C   0  0  0  0  0  0  0  0  0  0  0  0
   25.0969  -19.1288  -17.1047 O   0  0  0  0  0  0  0  0  0  0  0  0
   21.7033  -19.9884  -13.4237 O   0  0  0  0  0  0  0  0  0  0  0  0
   21.5835  -19.8334  -14.7824 C   0  0  0  0  0  0  0  0  0  0  0  0
   22.7893  -19.2673  -15.4453 C   0  0  2  0  0  0  0  0  0  0  0  0
   23.9887  -20.0448  -15.3020 N   0  0  0  0  0  0  0  0  0  0  0  0
   22.9941  -17.8029  -15.1741 C   0  0  0  0  0  0  0  0  0  0  0  0
   23.7715  -17.4834  -14.2540 O   0  0  0  0  0  0  0  0  0  0  0  0
   26.4685  -15.2926  -16.3980 C   0  0  0  0  0  0  0  0  0  0  0  0
   25.1854  -15.4041  -15.6061 C   0  0  1  0  0  0  0  0  0  0  0  0
   25.1291  -14.2880  -14.5526 C   0  0  0  0  0  0  0  0  0  0  0  0
   23.9825  -15.1826  -16.4887 C   0  0  0  0  0  0  0  0  0  0  0  0
   22.6667  -15.3770  -15.7776 C   0  0  2  0  0  0  0  0  0  0  0  0
   22.3536  -16.7962  -15.9056 N   0  0  0  0  0  0  0  0  0  0  0  0
   21.5916  -14.5404  -16.3417 C   0  0  0  0  0  0  0  0  0  0  0  0
   21.2371  -13.3213  -15.7891 O   0  0  0  0  0  0  0  0  0  0  0  0
   20.9717  -14.9375  -17.3548 O   0  0  0  0  0  0  0  0  0  0  0  0
  2  1  1  6
  2  4  1  0
  2  3  1  0
  4  5  2  0
  8  7  1  1
  7  6  1  0
  9  4  1  0
  9  8  1  0
 10  8  1  0
 10 11  2  0
 13 12  1  6
 13 14  1  0
 13 15  1  0
 16 15  1  6
 16 17  1  0
 16 18  1  0
 17 10  1  0
 18 20  2  0
 18 19  1  0
M  END
$$$$
