ASL.pdb
     RDKit          3D

 20 19  0  0  1  0  0  0  0  0999 V2000
   16.7170  -10.0786  -19.4799 C   0  0  0  0  0  0  0  0  0  0  0  0
   17.2844  -10.3220  -18.1219 C   0  0  2  0  0  0  0  0  0  0  0  0
   16.2357  -10.7049  -17.2006 N   0  0  0  0  0  0  0  0  0  0  0  0
   18.0399   -9.1536  -17.5838 C   0  0  0  0  0  0  0  0  0  0  0  0
   19.2725   -9.0255  -17.7456 O   0  0  0  0  0  0  0  0  0  0  0  0
   16.0789   -5.9565  -15.1586 O   0  0  0  0  0  0  0  0  0  0  0  0
   16.9597   -5.8051  -16.2006 C   0  0  0  0  0  0  0  0  0  0  0  0
   17.9095   -6.9375  -16.3723 C   0  0  2  0  0  0  0  0  0  0  0  0
   17.3277   -8.1556  -16.8634 N   0  0  0  0  0  0  0  0  0  0  0  0
   18.8177   -7.1459  -15.1926 C   0  0  0  0  0  0  0  0  0  0  0  0
   18.5039   -8.0206  -14.3622 O   0  0  0  0  0  0  0  0  0  0  0  0
   21.7961   -8.6739  -11.6747 C   0  0  0  0  0  0  0  0  0  0  0  0
   22.4239   -8.4762  -13.0359 C   0  0  1  0  0  0  0  0  0  0  0  0
   22.9869   -9.8114  -13.5447 C   0  0  0  0  0  0  0  0  0  0  0  0
   21.3910   -8.0630  -14.0545 C   0  0  0  0  0  0  0  0  0  0  0  0
   20.9183   -6.6398  -13.8933 C   0  0  2  0  0  0  0  0  0  0  0  0
   19.9881   -6.4049  -14.9925 N   0  0  0  0  0  0  0  0  0  0  0  0
   22.0290   -5.6703  -13.9178 C   0  0  0  0  0  0  0  0  0  0  0  0
   22.6865   -5.2710  -12.7666 O   0  0  0  0  0  0  0  0  0  0  0  0
   22.3972   -5.1857  -15.0122 O   0  0  0  0  0  0  0  0  0  0  0  0
  2  1  1  6
  2  4  1  0
  2  3  1  0
  4  5  2  0
  8  7  1  1
  7  6  1  0
  9  4  1  0
  9  8  1  0
 10  8  1  0
 10 11  2  0
 13 12  1  1
 13 14  1  0
 13 15  1  0
 16 15  1  6
 16 17  1  0
 16 18  1  0
 17 10  1  0
 18 20  2  0
 18 19  1  0
M  END
$$$$
