ASL.pdb
     RDKit          3D

 20 19  0  0  1  0  0  0  0  0999 V2000
   21.4999  -31.5242   -9.3797 C   0  0  0  0  0  0  0  0  0  0  0  0
   22.2681  -32.4822  -10.2267 C   0  0  2  0  0  0  0  0  0  0  0  0
   21.3720  -33.2136  -11.0969 N   0  0  0  0  0  0  0  0  0  0  0  0
   23.1006  -33.4310   -9.4317 C   0  0  0  0  0  0  0  0  0  0  0  0
   22.6740  -34.5478   -9.0676 O   0  0  0  0  0  0  0  0  0  0  0  0
   27.2773  -32.4568   -8.1415 O   0  0  0  0  0  0  0  0  0  0  0  0
   26.7774  -33.6397   -8.6265 C   0  0  0  0  0  0  0  0  0  0  0  0
   25.3364  -33.8651   -8.3322 C   0  0  2  0  0  0  0  0  0  0  0  0
   24.4234  -33.0457   -9.0795 N   0  0  0  0  0  0  0  0  0  0  0  0
   25.0228  -33.9167   -6.8629 C   0  0  0  0  0  0  0  0  0  0  0  0
   24.5613  -32.8898   -6.3286 O   0  0  0  0  0  0  0  0  0  0  0  0
   23.0626  -38.3784   -4.4053 C   0  0  0  0  0  0  0  0  0  0  0  0
   23.3333  -36.9288   -4.7391 C   0  0  1  0  0  0  0  0  0  0  0  0
   22.3646  -36.0286   -3.9582 C   0  0  0  0  0  0  0  0  0  0  0  0
   24.7130  -36.5172   -4.2895 C   0  0  0  0  0  0  0  0  0  0  0  0
   25.0597  -35.0898   -4.6314 C   0  0  2  0  0  0  0  0  0  0  0  0
   25.2263  -35.0592   -6.0806 N   0  0  0  0  0  0  0  0  0  0  0  0
   26.2787  -34.6251   -3.9443 C   0  0  0  0  0  0  0  0  0  0  0  0
   26.2665  -34.1958   -2.6280 O   0  0  0  0  0  0  0  0  0  0  0  0
   27.3669  -34.6144   -4.5640 O   0  0  0  0  0  0  0  0  0  0  0  0
  2  1  1  1
  2  4  1  0
  2  3  1  0
  4  5  2  0
  8  7  1  1
  7  6  1  0
  9  4  1  0
  9  8  1  0
 10  8  1  0
 10 11  2  0
 13 12  1  1
 13 14  1  0
 13 15  1  0
 16 15  1  1
 16 17  1  0
 16 18  1  0
 17 10  1  0
 18 20  2  0
 18 19  1  0
M  END
$$$$
