ASL.pdb
     RDKit          3D

 20 19  0  0  1  0  0  0  0  0999 V2000
   17.0991  -14.3678  -16.2376 C   0  0  0  0  0  0  0  0  0  0  0  0
   16.6138  -13.4590  -17.3164 C   0  0  2  0  0  0  0  0  0  0  0  0
   16.8096  -14.0700  -18.6139 N   0  0  0  0  0  0  0  0  0  0  0  0
   17.2540  -12.1120  -17.2807 C   0  0  0  0  0  0  0  0  0  0  0  0
   18.3930  -11.9029  -17.7505 O   0  0  0  0  0  0  0  0  0  0  0  0
   15.5580   -8.8079  -14.8714 O   0  0  0  0  0  0  0  0  0  0  0  0
   16.0655   -8.6732  -16.1398 C   0  0  0  0  0  0  0  0  0  0  0  0
   17.0656   -9.7090  -16.5151 C   0  0  2  0  0  0  0  0  0  0  0  0
   16.5387  -11.0337  -16.6908 N   0  0  0  0  0  0  0  0  0  0  0  0
   18.3140   -9.6719  -15.6784 C   0  0  0  0  0  0  0  0  0  0  0  0
   18.5243  -10.6238  -14.9021 O   0  0  0  0  0  0  0  0  0  0  0  0
   22.5615  -10.1755  -13.2952 C   0  0  0  0  0  0  0  0  0  0  0  0
   22.6649   -9.7759  -14.7498 C   0  0  1  0  0  0  0  0  0  0  0  0
   23.4464  -10.8461  -15.5259 C   0  0  0  0  0  0  0  0  0  0  0  0
   21.3033   -9.7264  -15.3967 C   0  0  0  0  0  0  0  0  0  0  0  0
   20.4550   -8.5688  -14.9327 C   0  0  2  0  0  0  0  0  0  0  0  0
   19.2384   -8.6226  -15.7363 N   0  0  0  0  0  0  0  0  0  0  0  0
   21.1387   -7.2715  -15.0859 C   0  0  0  0  0  0  0  0  0  0  0  0
   20.9462   -6.4610  -16.1919 O   0  0  0  0  0  0  0  0  0  0  0  0
   21.9224   -6.8807  -14.1906 O   0  0  0  0  0  0  0  0  0  0  0  0
  2  1  1  1
  2  4  1  0
  2  3  1  0
  4  5  2  0
  8  7  1  1
  7  6  1  0
  9  4  1  0
  9  8  1  0
 10  8  1  0
 10 11  2  0
 13 12  1  1
 13 14  1  0
 13 15  1  0
 16 15  1  6
 16 17  1  0
 16 18  1  0
 17 10  1  0
 18 20  2  0
 18 19  1  0
M  END
$$$$
