ASL.pdb
     RDKit          3D

 20 19  0  0  1  0  0  0  0  0999 V2000
   22.1291  -12.1439  -18.9610 C   0  0  0  0  0  0  0  0  0  0  0  0
   20.6908  -11.7826  -18.8002 C   0  0  2  0  0  0  0  0  0  0  0  0
   20.0289  -11.7702  -20.0874 N   0  0  0  0  0  0  0  0  0  0  0  0
   20.4878  -10.4782  -18.1053 C   0  0  0  0  0  0  0  0  0  0  0  0
   20.9316   -9.4033  -18.5630 O   0  0  0  0  0  0  0  0  0  0  0  0
   18.2111   -8.2949  -14.3336 O   0  0  0  0  0  0  0  0  0  0  0  0
   18.5107   -9.4516  -15.0096 C   0  0  0  0  0  0  0  0  0  0  0  0
   19.5036   -9.2840  -16.1050 C   0  0  2  0  0  0  0  0  0  0  0  0
   19.7640  -10.4643  -16.8814 N   0  0  0  0  0  0  0  0  0  0  0  0
   20.7531   -8.5641  -15.6803 C   0  0  0  0  0  0  0  0  0  0  0  0
   21.7991   -9.2312  -15.5627 O   0  0  0  0  0  0  0  0  0  0  0  0
   25.2321   -6.3512  -17.1008 C   0  0  0  0  0  0  0  0  0  0  0  0
   24.1536   -5.7552  -16.2246 C   0  0  1  0  0  0  0  0  0  0  0  0
   23.8026   -4.3456  -16.7228 C   0  0  0  0  0  0  0  0  0  0  0  0
   22.8734   -6.5463  -16.3267 C   0  0  0  0  0  0  0  0  0  0  0  0
   22.0074   -6.4567  -15.0951 C   0  0  2  0  0  0  0  0  0  0  0  0
   20.7875   -7.1904  -15.4149 N   0  0  0  0  0  0  0  0  0  0  0  0
   21.7084   -5.0637  -14.7158 C   0  0  0  0  0  0  0  0  0  0  0  0
   22.5168   -4.3432  -13.8528 O   0  0  0  0  0  0  0  0  0  0  0  0
   20.6907   -4.5044  -15.1846 O   0  0  0  0  0  0  0  0  0  0  0  0
  2  1  1  6
  2  4  1  0
  2  3  1  0
  4  5  2  0
  8  7  1  1
  7  6  1  0
  9  4  1  0
  9  8  1  0
 10  8  1  0
 10 11  2  0
 13 12  1  6
 13 14  1  0
 13 15  1  0
 16 15  1  6
 16 17  1  0
 16 18  1  0
 17 10  1  0
 18 20  2  0
 18 19  1  0
M  END
$$$$
