ASL.pdb
     RDKit          3D

 20 19  0  0  1  0  0  0  0  0999 V2000
   28.5919  -19.6774  -16.9664 C   0  0  0  0  0  0  0  0  0  0  0  0
   28.6263  -20.4213  -15.6739 C   0  0  2  0  0  0  0  0  0  0  0  0
   28.0423  -21.7359  -15.8352 N   0  0  0  0  0  0  0  0  0  0  0  0
   27.9527  -19.6930  -14.5598 C   0  0  0  0  0  0  0  0  0  0  0  0
   28.2307  -18.5086  -14.2739 O   0  0  0  0  0  0  0  0  0  0  0  0
   23.9457  -20.1683  -13.4052 O   0  0  0  0  0  0  0  0  0  0  0  0
   24.8938  -19.2262  -13.0922 C   0  0  0  0  0  0  0  0  0  0  0  0
   26.2201  -19.7886  -12.7200 C   0  0  2  0  0  0  0  0  0  0  0  0
   26.9619  -20.3750  -13.8013 N   0  0  0  0  0  0  0  0  0  0  0  0
   26.1850  -20.6489  -11.4877 C   0  0  0  0  0  0  0  0  0  0  0  0
   26.2280  -21.8853  -11.6382 O   0  0  0  0  0  0  0  0  0  0  0  0
   28.0408  -18.7578   -6.7176 C   0  0  0  0  0  0  0  0  0  0  0  0
   27.7021  -19.6781   -7.8684 C   0  0  1  0  0  0  0  0  0  0  0  0
   28.4903  -20.9891   -7.7317 C   0  0  0  0  0  0  0  0  0  0  0  0
   26.2485  -20.0793   -7.8322 C   0  0  0  0  0  0  0  0  0  0  0  0
   25.8249  -20.9241   -9.0075 C   0  0  2  0  0  0  0  0  0  0  0  0
   26.1069  -20.1223  -10.1934 N   0  0  0  0  0  0  0  0  0  0  0  0
   24.4013  -21.3032   -8.9459 C   0  0  0  0  0  0  0  0  0  0  0  0
   23.4676  -20.8161   -9.8448 O   0  0  0  0  0  0  0  0  0  0  0  0
   24.0137  -22.0917   -8.0535 O   0  0  0  0  0  0  0  0  0  0  0  0
  2  1  1  6
  2  4  1  0
  2  3  1  0
  4  5  2  0
  8  7  1  6
  7  6  1  0
  9  4  1  0
  9  8  1  0
 10  8  1  0
 10 11  2  0
 13 12  1  1
 13 14  1  0
 13 15  1  0
 16 15  1  1
 16 17  1  0
 16 18  1  0
 17 10  1  0
 18 20  2  0
 18 19  1  0
M  END
$$$$
