ASL.pdb
     RDKit          3D

 20 19  0  0  1  0  0  0  0  0999 V2000
   19.3830  -12.5603  -17.3488 C   0  0  0  0  0  0  0  0  0  0  0  0
   18.5625  -11.9079  -16.2876 C   0  0  2  0  0  0  0  0  0  0  0  0
   17.2087  -12.4193  -16.3137 N   0  0  0  0  0  0  0  0  0  0  0  0
   18.5516  -10.4194  -16.3867 C   0  0  0  0  0  0  0  0  0  0  0  0
   18.2324   -9.8240  -17.4380 O   0  0  0  0  0  0  0  0  0  0  0  0
   17.6202   -7.9021  -13.1971 O   0  0  0  0  0  0  0  0  0  0  0  0
   17.7457   -7.6040  -14.5312 C   0  0  0  0  0  0  0  0  0  0  0  0
   18.9272   -8.2227  -15.1910 C   0  0  2  0  0  0  0  0  0  0  0  0
   18.9178   -9.6583  -15.2426 N   0  0  0  0  0  0  0  0  0  0  0  0
   20.2403   -7.6529  -14.7319 C   0  0  0  0  0  0  0  0  0  0  0  0
   20.8246   -8.2206  -13.7888 O   0  0  0  0  0  0  0  0  0  0  0  0
   23.1807   -4.8927  -18.3665 C   0  0  0  0  0  0  0  0  0  0  0  0
   22.8257   -5.8209  -17.2270 C   0  0  1  0  0  0  0  0  0  0  0  0
   24.0234   -6.7270  -16.9056 C   0  0  0  0  0  0  0  0  0  0  0  0
   22.5580   -5.0469  -15.9603 C   0  0  0  0  0  0  0  0  0  0  0  0
   22.0512   -5.9011  -14.8254 C   0  0  2  0  0  0  0  0  0  0  0  0
   20.8257   -6.5233  -15.3150 N   0  0  0  0  0  0  0  0  0  0  0  0
   21.8005   -5.1203  -13.6000 C   0  0  0  0  0  0  0  0  0  0  0  0
   22.7911   -4.8761  -12.6640 O   0  0  0  0  0  0  0  0  0  0  0  0
   20.6556   -4.6584  -13.3895 O   0  0  0  0  0  0  0  0  0  0  0  0
  2  1  1  6
  2  4  1  0
  2  3  1  0
  4  5  2  0
  8  7  1  1
  7  6  1  0
  9  4  1  0
  9  8  1  0
 10  8  1  0
 10 11  2  0
 13 12  1  6
 13 14  1  0
 13 15  1  0
 16 15  1  6
 16 17  1  0
 16 18  1  0
 17 10  1  0
 18 20  2  0
 18 19  1  0
M  END
$$$$
