ASL.pdb
     RDKit          3D

 20 19  0  0  1  0  0  0  0  0999 V2000
   15.7772  -13.3581  -16.0891 C   0  0  0  0  0  0  0  0  0  0  0  0
   15.9012  -12.0010  -15.4824 C   0  0  2  0  0  0  0  0  0  0  0  0
   14.6849  -11.2444  -15.6910 N   0  0  0  0  0  0  0  0  0  0  0  0
   17.0762  -11.2358  -15.9917 C   0  0  0  0  0  0  0  0  0  0  0  0
   18.2181  -11.7384  -16.0638 O   0  0  0  0  0  0  0  0  0  0  0  0
   16.6977   -7.0295  -17.3930 O   0  0  0  0  0  0  0  0  0  0  0  0
   17.5663   -7.9951  -17.8374 C   0  0  0  0  0  0  0  0  0  0  0  0
   17.9409   -9.0048  -16.8106 C   0  0  2  0  0  0  0  0  0  0  0  0
   16.8835   -9.8897  -16.4077 N   0  0  0  0  0  0  0  0  0  0  0  0
   18.7089   -8.4302  -15.6531 C   0  0  0  0  0  0  0  0  0  0  0  0
   18.0840   -8.1841  -14.6033 O   0  0  0  0  0  0  0  0  0  0  0  0
   23.0998  -10.4613  -13.7038 C   0  0  0  0  0  0  0  0  0  0  0  0
   21.8138   -9.6796  -13.8491 C   0  0  1  0  0  0  0  0  0  0  0  0
   21.2080   -9.4180  -12.4623 C   0  0  0  0  0  0  0  0  0  0  0  0
   22.0721   -8.3149  -14.4372 C   0  0  0  0  0  0  0  0  0  0  0  0
   20.8211   -7.4974  -14.6405 C   0  0  2  0  0  0  0  0  0  0  0  0
   20.0818   -8.1639  -15.7073 N   0  0  0  0  0  0  0  0  0  0  0  0
   21.1140   -6.0952  -14.9898 C   0  0  0  0  0  0  0  0  0  0  0  0
   20.8106   -5.5645  -16.2322 O   0  0  0  0  0  0  0  0  0  0  0  0
   21.6559   -5.3510  -14.1408 O   0  0  0  0  0  0  0  0  0  0  0  0
  2  1  1  6
  2  4  1  0
  2  3  1  0
  4  5  2  0
  8  7  1  1
  7  6  1  0
  9  4  1  0
  9  8  1  0
 10  8  1  0
 10 11  2  0
 13 12  1  1
 13 14  1  0
 13 15  1  0
 16 15  1  6
 16 17  1  0
 16 18  1  0
 17 10  1  0
 18 20  2  0
 18 19  1  0
M  END
$$$$
