GTH.pdb
     RDKit          3D

 22 22  0  0  1  0  0  0  0  0999 V2000
   23.2134  -14.8978  -18.4337 N   0  0  0  0  0  0  0  0  0  0  0  0
   23.9221  -13.6517  -18.6475 C   0  0  0  0  0  0  0  0  0  0  0  0
   23.8687  -12.7894  -17.4258 C   0  0  0  0  0  0  0  0  0  0  0  0
   23.2148  -13.2015  -16.4633 O   0  0  0  0  0  0  0  0  0  0  0  0
   26.6767  -11.6055  -15.3762 C   0  0  0  0  0  0  0  0  0  0  0  0
   25.9318  -10.3666  -15.8091 C   0  0  1  0  0  0  0  0  0  0  0  0
   26.7288   -9.5703  -16.6234 O   0  0  0  0  0  0  0  0  0  0  0  0
   24.5636  -10.6166  -16.3065 C   0  0  2  0  0  0  0  0  0  0  0  0
   24.5498  -11.5461  -17.3896 N   0  0  0  0  0  0  0  0  0  0  0  0
   23.7236   -9.4438  -16.5927 C   0  0  0  0  0  0  0  0  0  0  0  0
   23.6041   -9.0684  -17.7799 O   0  0  0  0  0  0  0  0  0  0  0  0
   23.0204   -8.6822  -15.6270 N   0  0  0  0  0  0  0  0  0  0  0  0
   22.1744   -7.5286  -16.0574 C   0  0  1  0  0  0  0  0  0  0  0  0
   21.0877   -8.0037  -16.9454 C   0  0  0  0  0  0  0  0  0  0  0  0
   20.2672   -6.8828  -17.4426 C   0  0  0  0  0  0  0  0  0  0  0  0
   20.5772   -5.5685  -17.6737 C   0  0  0  0  0  0  0  0  0  0  0  0
   19.4925   -4.9396  -18.2142 N   0  0  0  0  0  0  0  0  0  0  0  0
   18.5348   -5.8531  -18.3142 C   0  0  0  0  0  0  0  0  0  0  0  0
   18.9656   -7.0321  -17.8602 N   0  0  0  0  0  0  0  0  0  0  0  0
   21.6432   -6.9390  -14.7879 C   0  0  0  0  0  0  0  0  0  0  0  0
   21.4906   -7.5727  -13.5917 O   0  0  0  0  0  0  0  0  0  0  0  0
   21.2949   -5.7120  -14.8135 O   0  0  0  0  0  0  0  0  0  0  0  0
  2  1  1  0
  3  2  1  0
  4  3  2  0
  6  5  1  6
  6  8  1  0
  7  6  1  0
  8  9  1  6
  8 10  1  0
  9  3  1  0
 10 12  1  0
 11 10  2  0
 12 13  1  0
 13 14  1  6
 13 20  1  0
 15 14  1  0
 16 15  2  0
 17 16  1  0
 18 17  1  0
 18 19  2  0
 19 15  1  0
 20 22  2  0
 20 21  1  0
M  END
$$$$
