GTH.pdb
     RDKit          3D

 22 22  0  0  1  0  0  0  0  0999 V2000
   12.9206  -21.8341  -10.1650 N   0  0  0  0  0  0  0  0  0  0  0  0
   12.7863  -20.6851  -11.0383 C   0  0  0  0  0  0  0  0  0  0  0  0
   14.1036  -20.3175  -11.6452 C   0  0  0  0  0  0  0  0  0  0  0  0
   15.1258  -20.6694  -11.0492 O   0  0  0  0  0  0  0  0  0  0  0  0
   16.0116  -21.4873  -14.2248 C   0  0  0  0  0  0  0  0  0  0  0  0
   15.6984  -20.0739  -14.6505 C   0  0  1  0  0  0  0  0  0  0  0  0
   14.8299  -20.0660  -15.7359 O   0  0  0  0  0  0  0  0  0  0  0  0
   15.3403  -19.1651  -13.5425 C   0  0  2  0  0  0  0  0  0  0  0  0
   14.1602  -19.5909  -12.8617 N   0  0  0  0  0  0  0  0  0  0  0  0
   15.3031  -17.7244  -13.8351 C   0  0  0  0  0  0  0  0  0  0  0  0
   14.1904  -17.1584  -13.9148 O   0  0  0  0  0  0  0  0  0  0  0  0
   16.4358  -16.8985  -14.0393 N   0  0  0  0  0  0  0  0  0  0  0  0
   16.2574  -15.4412  -14.3153 C   0  0  1  0  0  0  0  0  0  0  0  0
   17.5578  -14.7417  -14.1922 C   0  0  0  0  0  0  0  0  0  0  0  0
   17.4147  -13.2909  -14.4195 C   0  0  0  0  0  0  0  0  0  0  0  0
   16.3026  -12.5040  -14.5643 C   0  0  0  0  0  0  0  0  0  0  0  0
   16.6875  -11.1986  -14.6738 N   0  0  0  0  0  0  0  0  0  0  0  0
   18.0124  -11.1855  -14.5957 C   0  0  0  0  0  0  0  0  0  0  0  0
   18.4828  -12.4252  -14.4423 N   0  0  0  0  0  0  0  0  0  0  0  0
   15.7133  -15.3713  -15.7083 C   0  0  0  0  0  0  0  0  0  0  0  0
   14.7674  -14.5096  -16.1757 O   0  0  0  0  0  0  0  0  0  0  0  0
   16.1781  -16.1994  -16.5602 O   0  0  0  0  0  0  0  0  0  0  0  0
  2  1  1  0
  3  2  1  0
  4  3  2  0
  6  5  1  1
  6  8  1  0
  7  6  1  0
  8  9  1  6
  8 10  1  0
  9  3  1  0
 10 12  1  0
 11 10  2  0
 12 13  1  0
 13 14  1  6
 13 20  1  0
 15 14  1  0
 16 15  2  0
 17 16  1  0
 18 17  1  0
 18 19  2  0
 19 15  1  0
 20 22  2  0
 20 21  1  0
M  END
$$$$
