GTH.pdb
     RDKit          3D

 22 22  0  0  1  0  0  0  0  0999 V2000
   19.0814  -14.1710  -18.2309 N   0  0  0  0  0  0  0  0  0  0  0  0
   18.6574  -12.8377  -17.8522 C   0  0  0  0  0  0  0  0  0  0  0  0
   19.5420  -11.7999  -18.4680 C   0  0  0  0  0  0  0  0  0  0  0  0
   19.7469  -11.8714  -19.6832 O   0  0  0  0  0  0  0  0  0  0  0  0
   19.3097   -9.5505  -20.2384 C   0  0  0  0  0  0  0  0  0  0  0  0
   19.7609   -8.8047  -19.0066 C   0  0  1  0  0  0  0  0  0  0  0  0
   18.6784   -8.2217  -18.3580 O   0  0  0  0  0  0  0  0  0  0  0  0
   20.6914   -9.5574  -18.1408 C   0  0  2  0  0  0  0  0  0  0  0  0
   20.1172  -10.7771  -17.6718 N   0  0  0  0  0  0  0  0  0  0  0  0
   21.3497   -8.8187  -17.0529 C   0  0  0  0  0  0  0  0  0  0  0  0
   20.8239   -8.8301  -15.9179 O   0  0  0  0  0  0  0  0  0  0  0  0
   22.5519   -8.0788  -17.1728 N   0  0  0  0  0  0  0  0  0  0  0  0
   23.1319   -7.3975  -15.9765 C   0  0  1  0  0  0  0  0  0  0  0  0
   24.6114   -7.4598  -16.0285 C   0  0  0  0  0  0  0  0  0  0  0  0
   25.1017   -8.8365  -15.8262 C   0  0  0  0  0  0  0  0  0  0  0  0
   24.4340  -10.0061  -15.5750 C   0  0  0  0  0  0  0  0  0  0  0  0
   25.3291  -11.0369  -15.5469 N   0  0  0  0  0  0  0  0  0  0  0  0
   26.5243  -10.5084  -15.7785 C   0  0  0  0  0  0  0  0  0  0  0  0
   26.4250   -9.1885  -15.9513 N   0  0  0  0  0  0  0  0  0  0  0  0
   22.6276   -5.9896  -16.0462 C   0  0  0  0  0  0  0  0  0  0  0  0
   22.6766   -5.0523  -15.0588 O   0  0  0  0  0  0  0  0  0  0  0  0
   22.0951   -5.6124  -17.1425 O   0  0  0  0  0  0  0  0  0  0  0  0
  2  1  1  0
  3  2  1  0
  4  3  2  0
  6  5  1  6
  6  8  1  0
  7  6  1  0
  8  9  1  1
  8 10  1  0
  9  3  1  0
 10 12  1  0
 11 10  2  0
 12 13  1  0
 13 14  1  6
 13 20  1  0
 15 14  1  0
 16 15  2  0
 17 16  1  0
 18 17  1  0
 18 19  2  0
 19 15  1  0
 20 22  2  0
 20 21  1  0
M  END
$$$$
