GTH.pdb
     RDKit          3D

 22 22  0  0  1  0  0  0  0  0999 V2000
   33.7702  -24.4300  -18.4086 N   0  0  0  0  0  0  0  0  0  0  0  0
   32.4599  -24.7845  -18.9165 C   0  0  0  0  0  0  0  0  0  0  0  0
   31.5404  -25.1711  -17.8012 C   0  0  0  0  0  0  0  0  0  0  0  0
   31.9798  -25.1064  -16.6495 O   0  0  0  0  0  0  0  0  0  0  0  0
   28.6965  -23.4920  -16.6016 C   0  0  0  0  0  0  0  0  0  0  0  0
   28.1771  -24.8413  -17.0334 C   0  0  1  0  0  0  0  0  0  0  0  0
   27.3583  -24.7211  -18.1504 O   0  0  0  0  0  0  0  0  0  0  0  0
   29.2059  -25.8984  -17.1096 C   0  0  2  0  0  0  0  0  0  0  0  0
   30.2145  -25.5947  -18.0728 N   0  0  0  0  0  0  0  0  0  0  0  0
   28.7398  -27.2873  -17.2377 C   0  0  0  0  0  0  0  0  0  0  0  0
   28.6131  -27.7730  -18.3834 O   0  0  0  0  0  0  0  0  0  0  0  0
   28.4140  -28.1468  -16.1596 N   0  0  0  0  0  0  0  0  0  0  0  0
   27.9540  -29.5422  -16.4298 C   0  0  1  0  0  0  0  0  0  0  0  0
   28.1814  -30.3884  -15.2349 C   0  0  0  0  0  0  0  0  0  0  0  0
   27.6990  -31.7663  -15.4488 C   0  0  0  0  0  0  0  0  0  0  0  0
   27.2543  -32.4034  -16.5771 C   0  0  0  0  0  0  0  0  0  0  0  0
   26.9933  -33.7105  -16.2813 N   0  0  0  0  0  0  0  0  0  0  0  0
   27.2748  -33.8721  -14.9944 C   0  0  0  0  0  0  0  0  0  0  0  0
   27.7018  -32.7246  -14.4627 N   0  0  0  0  0  0  0  0  0  0  0  0
   26.4989  -29.4168  -16.7588 C   0  0  0  0  0  0  0  0  0  0  0  0
   25.8024  -30.1393  -17.6801 O   0  0  0  0  0  0  0  0  0  0  0  0
   25.8259  -28.5463  -16.1132 O   0  0  0  0  0  0  0  0  0  0  0  0
  2  1  1  0
  3  2  1  0
  4  3  2  0
  6  5  1  6
  6  8  1  0
  7  6  1  0
  8  9  1  6
  8 10  1  0
  9  3  1  0
 10 12  1  0
 11 10  2  0
 12 13  1  0
 13 14  1  1
 13 20  1  0
 15 14  1  0
 16 15  2  0
 17 16  1  0
 18 17  1  0
 18 19  2  0
 19 15  1  0
 20 22  2  0
 20 21  1  0
M  END
$$$$
