GTH.pdb
     RDKit          3D

 22 22  0  0  1  0  0  0  0  0999 V2000
   16.1956  -16.0481  -15.0989 N   0  0  0  0  0  0  0  0  0  0  0  0
   16.0918  -14.6678  -14.6693 C   0  0  0  0  0  0  0  0  0  0  0  0
   16.8780  -13.7669  -15.5690 C   0  0  0  0  0  0  0  0  0  0  0  0
   17.1311  -14.1742  -16.7064 O   0  0  0  0  0  0  0  0  0  0  0  0
   15.9174  -10.6043  -17.0310 C   0  0  0  0  0  0  0  0  0  0  0  0
   17.1070  -10.3259  -16.1453 C   0  0  1  0  0  0  0  0  0  0  0  0
   16.7253   -9.6107  -15.0161 O   0  0  0  0  0  0  0  0  0  0  0  0
   17.9720  -11.4967  -15.8947 C   0  0  2  0  0  0  0  0  0  0  0  0
   17.3099  -12.4940  -15.1173 N   0  0  0  0  0  0  0  0  0  0  0  0
   19.3308  -11.2386  -15.3952 C   0  0  0  0  0  0  0  0  0  0  0  0
   19.5367  -11.2969  -14.1627 O   0  0  0  0  0  0  0  0  0  0  0  0
   20.4547  -10.9235  -16.1981 N   0  0  0  0  0  0  0  0  0  0  0  0
   21.7686  -10.6173  -15.5564 C   0  0  1  0  0  0  0  0  0  0  0  0
   22.8749  -11.0796  -16.4270 C   0  0  0  0  0  0  0  0  0  0  0  0
   24.1915  -10.7436  -15.8521 C   0  0  0  0  0  0  0  0  0  0  0  0
   24.7369  -11.0121  -14.6243 C   0  0  0  0  0  0  0  0  0  0  0  0
   26.0250  -10.5602  -14.5967 N   0  0  0  0  0  0  0  0  0  0  0  0
   26.2654  -10.0254  -15.7874 C   0  0  0  0  0  0  0  0  0  0  0  0
   25.1859  -10.1185  -16.5670 N   0  0  0  0  0  0  0  0  0  0  0  0
   21.7793   -9.1309  -15.3785 C   0  0  0  0  0  0  0  0  0  0  0  0
   20.8249   -8.2500  -15.7897 O   0  0  0  0  0  0  0  0  0  0  0  0
   22.7818   -8.6208  -14.7766 O   0  0  0  0  0  0  0  0  0  0  0  0
  2  1  1  0
  3  2  1  0
  4  3  2  0
  6  5  1  1
  6  8  1  0
  7  6  1  0
  8  9  1  1
  8 10  1  0
  9  3  1  0
 10 12  1  0
 11 10  2  0
 12 13  1  0
 13 14  1  6
 13 20  1  0
 15 14  1  0
 16 15  2  0
 17 16  1  0
 18 17  1  0
 18 19  2  0
 19 15  1  0
 20 22  2  0
 20 21  1  0
M  END
$$$$
