GTH.pdb
     RDKit          3D

 22 22  0  0  1  0  0  0  0  0999 V2000
   17.4780  -14.8525  -16.2955 N   0  0  0  0  0  0  0  0  0  0  0  0
   16.9595  -13.5321  -15.9979 C   0  0  0  0  0  0  0  0  0  0  0  0
   17.7607  -12.4745  -16.6894 C   0  0  0  0  0  0  0  0  0  0  0  0
   18.4656  -12.8220  -17.6413 O   0  0  0  0  0  0  0  0  0  0  0  0
   16.6379  -10.1049  -18.8320 C   0  0  0  0  0  0  0  0  0  0  0  0
   17.2621   -9.2773  -17.7354 C   0  0  1  0  0  0  0  0  0  0  0  0
   16.2881   -8.5913  -17.0191 O   0  0  0  0  0  0  0  0  0  0  0  0
   18.2641   -9.9946  -16.9209 C   0  0  2  0  0  0  0  0  0  0  0  0
   17.7021  -11.1256  -16.2558 N   0  0  0  0  0  0  0  0  0  0  0  0
   19.0947   -9.1922  -16.0104 C   0  0  0  0  0  0  0  0  0  0  0  0
   18.7436   -9.0888  -14.8143 O   0  0  0  0  0  0  0  0  0  0  0  0
   20.2834   -8.5102  -16.3696 N   0  0  0  0  0  0  0  0  0  0  0  0
   20.9909   -7.6622  -15.3636 C   0  0  1  0  0  0  0  0  0  0  0  0
   22.4527   -7.8867  -15.4536 C   0  0  0  0  0  0  0  0  0  0  0  0
   22.8123   -9.2656  -15.0716 C   0  0  0  0  0  0  0  0  0  0  0  0
   22.0436  -10.3123  -14.6350 C   0  0  0  0  0  0  0  0  0  0  0  0
   22.8320  -11.4173  -14.4874 N   0  0  0  0  0  0  0  0  0  0  0  0
   24.0620  -11.0546  -14.8292 C   0  0  0  0  0  0  0  0  0  0  0  0
   24.0869   -9.7686  -15.1860 N   0  0  0  0  0  0  0  0  0  0  0  0
   20.6180   -6.2540  -15.7086 C   0  0  0  0  0  0  0  0  0  0  0  0
   19.8330   -5.8449  -16.7441 O   0  0  0  0  0  0  0  0  0  0  0  0
   21.0745   -5.3275  -14.9597 O   0  0  0  0  0  0  0  0  0  0  0  0
  2  1  1  0
  3  2  1  0
  4  3  2  0
  6  5  1  6
  6  8  1  0
  7  6  1  0
  8  9  1  1
  8 10  1  0
  9  3  1  0
 10 12  1  0
 11 10  2  0
 12 13  1  0
 13 14  1  6
 13 20  1  0
 15 14  1  0
 16 15  2  0
 17 16  1  0
 18 17  1  0
 18 19  2  0
 19 15  1  0
 20 22  2  0
 20 21  1  0
M  END
$$$$
