GTH.pdb
     RDKit          3D

 22 22  0  0  1  0  0  0  0  0999 V2000
   15.8785  -12.8373  -14.9845 N   0  0  0  0  0  0  0  0  0  0  0  0
   16.1761  -11.5473  -15.5745 C   0  0  0  0  0  0  0  0  0  0  0  0
   17.5167  -11.0527  -15.1311 C   0  0  0  0  0  0  0  0  0  0  0  0
   17.7988  -11.1608  -13.9342 O   0  0  0  0  0  0  0  0  0  0  0  0
   20.8542  -12.2601  -16.0795 C   0  0  0  0  0  0  0  0  0  0  0  0
   20.7625  -10.8173  -16.5120 C   0  0  1  0  0  0  0  0  0  0  0  0
   20.7277  -10.7184  -17.8981 O   0  0  0  0  0  0  0  0  0  0  0  0
   19.7448  -10.0251  -15.7919 C   0  0  2  0  0  0  0  0  0  0  0  0
   18.4203  -10.4825  -16.0635 N   0  0  0  0  0  0  0  0  0  0  0  0
   19.8383   -8.5604  -15.8846 C   0  0  0  0  0  0  0  0  0  0  0  0
   19.0613   -7.9587  -16.6586 O   0  0  0  0  0  0  0  0  0  0  0  0
   20.7469   -7.7482  -15.1622 N   0  0  0  0  0  0  0  0  0  0  0  0
   20.8327   -6.2849  -15.4507 C   0  0  1  0  0  0  0  0  0  0  0  0
   21.3032   -5.5603  -14.2470 C   0  0  0  0  0  0  0  0  0  0  0  0
   21.4460   -4.1151  -14.5076 C   0  0  0  0  0  0  0  0  0  0  0  0
   20.9394   -3.3217  -15.5029 C   0  0  0  0  0  0  0  0  0  0  0  0
   21.2893   -2.0237  -15.2643 N   0  0  0  0  0  0  0  0  0  0  0  0
   21.9967   -2.0214  -14.1413 C   0  0  0  0  0  0  0  0  0  0  0  0
   22.1103   -3.2609  -13.6591 N   0  0  0  0  0  0  0  0  0  0  0  0
   21.7984   -6.1673  -16.5886 C   0  0  0  0  0  0  0  0  0  0  0  0
   23.0250   -6.7521  -16.6854 O   0  0  0  0  0  0  0  0  0  0  0  0
   21.4474   -5.4481  -17.5821 O   0  0  0  0  0  0  0  0  0  0  0  0
  2  1  1  0
  3  2  1  0
  4  3  2  0
  6  5  1  6
  6  8  1  0
  7  6  1  0
  8  9  1  6
  8 10  1  0
  9  3  1  0
 10 12  1  0
 11 10  2  0
 12 13  1  0
 13 14  1  1
 13 20  1  0
 15 14  1  0
 16 15  2  0
 17 16  1  0
 18 17  1  0
 18 19  2  0
 19 15  1  0
 20 22  2  0
 20 21  1  0
M  END
$$$$
