GTH.pdb
     RDKit          3D

 22 22  0  0  1  0  0  0  0  0999 V2000
   46.0898  -13.3807   -7.0705 N   0  0  0  0  0  0  0  0  0  0  0  0
   45.4299  -12.5287   -6.1013 C   0  0  0  0  0  0  0  0  0  0  0  0
   44.5773  -11.5047   -6.7819 C   0  0  0  0  0  0  0  0  0  0  0  0
   44.8115  -11.2638   -7.9697 O   0  0  0  0  0  0  0  0  0  0  0  0
   40.7274  -11.3934   -6.8990 C   0  0  0  0  0  0  0  0  0  0  0  0
   41.2545  -10.1187   -6.2872 C   0  0  1  0  0  0  0  0  0  0  0  0
   40.8988  -10.0304   -4.9463 O   0  0  0  0  0  0  0  0  0  0  0  0
   42.6721   -9.8343   -6.5894 C   0  0  2  0  0  0  0  0  0  0  0  0
   43.5413  -10.8428   -6.0750 N   0  0  0  0  0  0  0  0  0  0  0  0
   43.1712   -8.4855   -6.2825 C   0  0  0  0  0  0  0  0  0  0  0  0
   43.8041   -8.3092   -5.2180 O   0  0  0  0  0  0  0  0  0  0  0  0
   42.9988   -7.3406   -7.0990 N   0  0  0  0  0  0  0  0  0  0  0  0
   43.5159   -6.0147   -6.6449 C   0  0  1  0  0  0  0  0  0  0  0  0
   44.5103   -5.5016   -7.6161 C   0  0  0  0  0  0  0  0  0  0  0  0
   45.0267   -4.1795   -7.2133 C   0  0  0  0  0  0  0  0  0  0  0  0
   45.6905   -3.7735   -6.0857 C   0  0  0  0  0  0  0  0  0  0  0  0
   46.0328   -2.4581   -6.2154 N   0  0  0  0  0  0  0  0  0  0  0  0
   45.5880   -2.0652   -7.4025 C   0  0  0  0  0  0  0  0  0  0  0  0
   44.9788   -3.0740   -8.0295 N   0  0  0  0  0  0  0  0  0  0  0  0
   42.3089   -5.1331   -6.5603 C   0  0  0  0  0  0  0  0  0  0  0  0
   42.1983   -3.9592   -5.8778 O   0  0  0  0  0  0  0  0  0  0  0  0
   41.2657   -5.5070   -7.1924 O   0  0  0  0  0  0  0  0  0  0  0  0
  2  1  1  0
  3  2  1  0
  4  3  2  0
  6  5  1  1
  6  8  1  0
  7  6  1  0
  8  9  1  1
  8 10  1  0
  9  3  1  0
 10 12  1  0
 11 10  2  0
 12 13  1  0
 13 14  1  6
 13 20  1  0
 15 14  1  0
 16 15  2  0
 17 16  1  0
 18 17  1  0
 18 19  2  0
 19 15  1  0
 20 22  2  0
 20 21  1  0
M  END
$$$$
