GTH.pdb
     RDKit          3D

 22 22  0  0  1  0  0  0  0  0999 V2000
   25.1707  -18.4706  -15.4734 N   0  0  0  0  0  0  0  0  0  0  0  0
   24.3144  -17.3657  -15.8564 C   0  0  0  0  0  0  0  0  0  0  0  0
   24.8040  -16.0803  -15.2674 C   0  0  0  0  0  0  0  0  0  0  0  0
   25.8048  -16.1264  -14.5463 O   0  0  0  0  0  0  0  0  0  0  0  0
   27.0014  -14.3074  -15.4526 C   0  0  0  0  0  0  0  0  0  0  0  0
   25.9453  -13.3090  -15.8588 C   0  0  1  0  0  0  0  0  0  0  0  0
   25.9569  -13.1100  -17.2346 O   0  0  0  0  0  0  0  0  0  0  0  0
   24.6154  -13.5463  -15.2615 C   0  0  2  0  0  0  0  0  0  0  0  0
   24.1323  -14.8608  -15.5369 N   0  0  0  0  0  0  0  0  0  0  0  0
   23.5779  -12.5310  -15.4967 C   0  0  0  0  0  0  0  0  0  0  0  0
   22.7251  -12.7416  -16.3872 O   0  0  0  0  0  0  0  0  0  0  0  0
   23.4507  -11.3084  -14.7921 N   0  0  0  0  0  0  0  0  0  0  0  0
   22.3910  -10.3296  -15.1803 C   0  0  1  0  0  0  0  0  0  0  0  0
   22.3901   -9.1869  -14.2371 C   0  0  0  0  0  0  0  0  0  0  0  0
   21.3443   -8.2042  -14.5798 C   0  0  0  0  0  0  0  0  0  0  0  0
   20.2852   -8.2761  -15.4458 C   0  0  0  0  0  0  0  0  0  0  0  0
   19.5498   -7.1296  -15.3518 N   0  0  0  0  0  0  0  0  0  0  0  0
   20.1468   -6.3689  -14.4428 C   0  0  0  0  0  0  0  0  0  0  0  0
   21.2280   -6.9834  -13.9578 N   0  0  0  0  0  0  0  0  0  0  0  0
   22.7417   -9.9064  -16.5729 C   0  0  0  0  0  0  0  0  0  0  0  0
   23.9605   -9.4951  -17.0214 O   0  0  0  0  0  0  0  0  0  0  0  0
   21.8101   -9.9312  -17.4441 O   0  0  0  0  0  0  0  0  0  0  0  0
  2  1  1  0
  3  2  1  0
  4  3  2  0
  6  5  1  6
  6  8  1  0
  7  6  1  0
  8  9  1  6
  8 10  1  0
  9  3  1  0
 10 12  1  0
 11 10  2  0
 12 13  1  0
 13 14  1  1
 13 20  1  0
 15 14  1  0
 16 15  2  0
 17 16  1  0
 18 17  1  0
 18 19  2  0
 19 15  1  0
 20 22  2  0
 20 21  1  0
M  END
$$$$
