GTH.pdb
     RDKit          3D

 22 22  0  0  1  0  0  0  0  0999 V2000
   27.0436  -13.0873  -16.1155 N   0  0  0  0  0  0  0  0  0  0  0  0
   26.0679  -12.6978  -15.1170 C   0  0  0  0  0  0  0  0  0  0  0  0
   24.8149  -12.1942  -15.7613 C   0  0  0  0  0  0  0  0  0  0  0  0
   24.3481  -12.8522  -16.6956 O   0  0  0  0  0  0  0  0  0  0  0  0
   21.8022  -12.1219  -14.1350 C   0  0  0  0  0  0  0  0  0  0  0  0
   21.8519  -11.5080  -15.5126 C   0  0  1  0  0  0  0  0  0  0  0  0
   20.5832  -11.1170  -15.9251 O   0  0  0  0  0  0  0  0  0  0  0  0
   22.9189  -10.5036  -15.6980 C   0  0  2  0  0  0  0  0  0  0  0  0
   24.1971  -11.0023  -15.3044 N   0  0  0  0  0  0  0  0  0  0  0  0
   22.6786   -9.1554  -15.1619 C   0  0  0  0  0  0  0  0  0  0  0  0
   23.0399   -8.9035  -13.9911 O   0  0  0  0  0  0  0  0  0  0  0  0
   22.0623   -8.0904  -15.8642 N   0  0  0  0  0  0  0  0  0  0  0  0
   21.8797   -6.7648  -15.2000 C   0  0  1  0  0  0  0  0  0  0  0  0
   21.9717   -5.6801  -16.2052 C   0  0  0  0  0  0  0  0  0  0  0  0
   21.8001   -4.3525  -15.5849 C   0  0  0  0  0  0  0  0  0  0  0  0
   22.4403   -3.7584  -14.5294 C   0  0  0  0  0  0  0  0  0  0  0  0
   21.9797   -2.4810  -14.3863 N   0  0  0  0  0  0  0  0  0  0  0  0
   21.0742   -2.2949  -15.3387 C   0  0  0  0  0  0  0  0  0  0  0  0
   20.9411   -3.3985  -16.0777 N   0  0  0  0  0  0  0  0  0  0  0  0
   20.5245   -6.8286  -14.5671 C   0  0  0  0  0  0  0  0  0  0  0  0
   20.1235   -6.2027  -13.4254 O   0  0  0  0  0  0  0  0  0  0  0  0
   19.6394   -7.5391  -15.1496 O   0  0  0  0  0  0  0  0  0  0  0  0
  2  1  1  0
  3  2  1  0
  4  3  2  0
  6  5  1  1
  6  8  1  0
  7  6  1  0
  8  9  1  1
  8 10  1  0
  9  3  1  0
 10 12  1  0
 11 10  2  0
 12 13  1  0
 13 14  1  6
 13 20  1  0
 15 14  1  0
 16 15  2  0
 17 16  1  0
 18 17  1  0
 18 19  2  0
 19 15  1  0
 20 22  2  0
 20 21  1  0
M  END
$$$$
