GTH.pdb
     RDKit          3D

 22 22  0  0  1  0  0  0  0  0999 V2000
   18.0901  -11.1014    4.6163 N   0  0  0  0  0  0  0  0  0  0  0  0
   17.4564  -11.8070    5.7124 C   0  0  0  0  0  0  0  0  0  0  0  0
   18.1415  -13.1107    5.9767 C   0  0  0  0  0  0  0  0  0  0  0  0
   18.8630  -13.5683    5.0858 O   0  0  0  0  0  0  0  0  0  0  0  0
   20.4507  -13.8094    8.8636 C   0  0  0  0  0  0  0  0  0  0  0  0
   19.3247  -14.8131    8.9068 C   0  0  1  0  0  0  0  0  0  0  0  0
   18.5192  -14.6042   10.0203 O   0  0  0  0  0  0  0  0  0  0  0  0
   18.6083  -14.9859    7.6266 C   0  0  2  0  0  0  0  0  0  0  0  0
   17.9589  -13.7848    7.2109 N   0  0  0  0  0  0  0  0  0  0  0  0
   17.7184  -16.1501    7.5019 C   0  0  0  0  0  0  0  0  0  0  0  0
   16.4913  -15.9876    7.6821 O   0  0  0  0  0  0  0  0  0  0  0  0
   18.1307  -17.4689    7.1889 N   0  0  0  0  0  0  0  0  0  0  0  0
   17.1317  -18.5795    7.1725 C   0  0  1  0  0  0  0  0  0  0  0  0
   17.1617  -19.2656    5.8596 C   0  0  0  0  0  0  0  0  0  0  0  0
   16.3625  -18.5411    4.8529 C   0  0  0  0  0  0  0  0  0  0  0  0
   15.6561  -17.3700    4.9317 C   0  0  0  0  0  0  0  0  0  0  0  0
   15.1475  -17.0688    3.7009 N   0  0  0  0  0  0  0  0  0  0  0  0
   15.5369  -18.0377    2.8816 C   0  0  0  0  0  0  0  0  0  0  0  0
   16.2690  -18.9390    3.5400 N   0  0  0  0  0  0  0  0  0  0  0  0
   17.5405  -19.4888    8.2893 C   0  0  0  0  0  0  0  0  0  0  0  0
   18.6752  -19.4065    9.0388 O   0  0  0  0  0  0  0  0  0  0  0  0
   16.7502  -20.4461    8.5837 O   0  0  0  0  0  0  0  0  0  0  0  0
  2  1  1  0
  3  2  1  0
  4  3  2  0
  6  5  1  6
  6  8  1  0
  7  6  1  0
  8  9  1  1
  8 10  1  0
  9  3  1  0
 10 12  1  0
 11 10  2  0
 12 13  1  0
 13 14  1  6
 13 20  1  0
 15 14  1  0
 16 15  2  0
 17 16  1  0
 18 17  1  0
 18 19  2  0
 19 15  1  0
 20 22  2  0
 20 21  1  0
M  END
$$$$
