GTH.pdb
     RDKit          3D

 22 22  0  0  1  0  0  0  0  0999 V2000
   37.2434  -10.2934  -14.7212 N   0  0  0  0  0  0  0  0  0  0  0  0
   35.9487   -9.7263  -14.4001 C   0  0  0  0  0  0  0  0  0  0  0  0
   35.6517   -8.5449  -15.2688 C   0  0  0  0  0  0  0  0  0  0  0  0
   36.5854   -8.0619  -15.9159 O   0  0  0  0  0  0  0  0  0  0  0  0
   33.1360   -8.3754  -18.0007 C   0  0  0  0  0  0  0  0  0  0  0  0
   32.8131   -7.2577  -17.0397 C   0  0  1  0  0  0  0  0  0  0  0  0
   31.5782   -7.4661  -16.4366 O   0  0  0  0  0  0  0  0  0  0  0  0
   33.9156   -6.8985  -16.1246 C   0  0  2  0  0  0  0  0  0  0  0  0
   34.3400   -8.0102  -15.3364 N   0  0  0  0  0  0  0  0  0  0  0  0
   33.7464   -5.6899  -15.3041 C   0  0  0  0  0  0  0  0  0  0  0  0
   33.1862   -5.7959  -14.1906 O   0  0  0  0  0  0  0  0  0  0  0  0
   34.1688   -4.3866  -15.6649 N   0  0  0  0  0  0  0  0  0  0  0  0
   33.9293   -3.2404  -14.7373 C   0  0  1  0  0  0  0  0  0  0  0  0
   35.2080   -2.5502  -14.4478 C   0  0  0  0  0  0  0  0  0  0  0  0
   34.9942   -1.3301  -13.6464 C   0  0  0  0  0  0  0  0  0  0  0  0
   35.3178   -1.0326  -12.3488 C   0  0  0  0  0  0  0  0  0  0  0  0
   34.9826    0.2652  -12.0887 N   0  0  0  0  0  0  0  0  0  0  0  0
   34.4640    0.7551  -13.2078 C   0  0  0  0  0  0  0  0  0  0  0  0
   34.4558   -0.1758  -14.1645 N   0  0  0  0  0  0  0  0  0  0  0  0
   32.9630   -2.3514  -15.4565 C   0  0  0  0  0  0  0  0  0  0  0  0
   32.7747   -2.2664  -16.8031 O   0  0  0  0  0  0  0  0  0  0  0  0
   32.2288   -1.5884  -14.7450 O   0  0  0  0  0  0  0  0  0  0  0  0
  2  1  1  0
  3  2  1  0
  4  3  2  0
  6  5  1  1
  6  8  1  0
  7  6  1  0
  8  9  1  1
  8 10  1  0
  9  3  1  0
 10 12  1  0
 11 10  2  0
 12 13  1  0
 13 14  1  6
 13 20  1  0
 15 14  1  0
 16 15  2  0
 17 16  1  0
 18 17  1  0
 18 19  2  0
 19 15  1  0
 20 22  2  0
 20 21  1  0
M  END
$$$$
