MNG.pdb
     RDKit          3D

 21 20  0  0  1  0  0  0  0  0999 V2000
   26.5604  -20.2380   -3.7480 C   0  0  0  0  0  0  0  0  0  0  0  0
   28.1529  -20.7618   -4.4607 S   0  0  0  0  0  0  0  0  0  0  0  0
   28.4457  -19.7773   -5.9364 C   0  0  0  0  0  0  0  0  0  0  0  0
   27.4280  -20.0595   -7.0168 C   0  0  0  0  0  0  0  0  0  0  0  0
   27.6306  -19.1868   -8.2187 C   0  0  2  0  0  0  0  0  0  0  0  0
   27.6873  -17.7752   -7.9255 N   0  0  0  0  0  0  0  0  0  0  0  0
   26.5658  -19.4569   -9.2315 C   0  0  0  0  0  0  0  0  0  0  0  0
   25.7320  -18.5650   -9.4759 O   0  0  0  0  0  0  0  0  0  0  0  0
   28.4466  -20.0937  -12.4120 N   0  0  0  0  0  0  0  0  0  0  0  0
   28.0228  -21.4266  -12.5110 C   0  0  0  0  0  0  0  0  0  0  0  0
   28.7809  -22.2706  -13.0375 O   0  0  0  0  0  0  0  0  0  0  0  0
   26.7136  -21.8277  -12.0065 C   0  0  0  0  0  0  0  0  0  0  0  0
   25.9294  -20.7677  -11.2781 C   0  0  2  0  0  0  0  0  0  0  0  0
   26.4836  -20.6796   -9.9070 N   0  0  0  0  0  0  0  0  0  0  0  0
   24.4930  -21.0005  -11.1787 C   0  0  0  0  0  0  0  0  0  0  0  0
   24.0593  -21.8864  -10.4021 O   0  0  0  0  0  0  0  0  0  0  0  0
   23.5448  -20.2598  -11.9282 N   0  0  0  0  0  0  0  0  0  0  0  0
   22.1351  -20.3703  -11.6159 C   0  0  0  0  0  0  0  0  0  0  0  0
   21.5102  -21.3380  -12.5336 C   0  0  0  0  0  0  0  0  0  0  0  0
   22.3065  -22.0532  -13.4303 O   0  0  0  0  0  0  0  0  0  0  0  0
   20.2881  -21.5203  -12.5148 O   0  0  0  0  0  0  0  0  0  0  0  0
  2  1  1  0
  3  2  1  0
  4  5  1  0
  4  3  1  0
  5  6  1  1
  7  8  2  0
  7  5  1  0
  9 10  1  0
 10 11  2  0
 10 12  1  0
 13 12  1  6
 13 15  1  0
 13 14  1  0
 14  7  1  0
 15 17  1  0
 16 15  2  0
 17 18  1  0
 19 20  1  0
 19 18  1  0
 21 19  2  0
M  END
$$$$
