MNG.pdb
     RDKit          3D

 21 20  0  0  1  0  0  0  0  0999 V2000
   25.3771  -21.8631  -17.9719 C   0  0  0  0  0  0  0  0  0  0  0  0
   26.4110  -20.7712  -19.0000 S   0  0  0  0  0  0  0  0  0  0  0  0
   27.7899  -20.2098  -17.9920 C   0  0  0  0  0  0  0  0  0  0  0  0
   28.9209  -21.2112  -17.9709 C   0  0  0  0  0  0  0  0  0  0  0  0
   28.5532  -22.4557  -17.2205 C   0  0  2  0  0  0  0  0  0  0  0  0
   28.2321  -22.2387  -15.8307 N   0  0  0  0  0  0  0  0  0  0  0  0
   29.6464  -23.4671  -17.3415 C   0  0  0  0  0  0  0  0  0  0  0  0
   30.0591  -23.7696  -18.4766 O   0  0  0  0  0  0  0  0  0  0  0  0
   33.7904  -26.4439  -16.2255 N   0  0  0  0  0  0  0  0  0  0  0  0
   33.4122  -25.6838  -15.1096 C   0  0  0  0  0  0  0  0  0  0  0  0
   34.1875  -25.6086  -14.1311 O   0  0  0  0  0  0  0  0  0  0  0  0
   32.1300  -24.9875  -15.0870 C   0  0  0  0  0  0  0  0  0  0  0  0
   31.3090  -25.0668  -16.3474 C   0  0  2  0  0  0  0  0  0  0  0  0
   30.2133  -24.0782  -16.2176 N   0  0  0  0  0  0  0  0  0  0  0  0
   30.7202  -26.3694  -16.6373 C   0  0  0  0  0  0  0  0  0  0  0  0
   29.5987  -26.6653  -16.1568 O   0  0  0  0  0  0  0  0  0  0  0  0
   31.3631  -27.3347  -17.4523 N   0  0  0  0  0  0  0  0  0  0  0  0
   30.6815  -28.5699  -17.7795 C   0  0  0  0  0  0  0  0  0  0  0  0
   31.5341  -29.3711  -18.6740 C   0  0  0  0  0  0  0  0  0  0  0  0
   31.1233  -30.6492  -19.0582 O   0  0  0  0  0  0  0  0  0  0  0  0
   32.6084  -28.9200  -19.0856 O   0  0  0  0  0  0  0  0  0  0  0  0
  2  1  1  0
  3  2  1  0
  4  5  1  0
  4  3  1  0
  5  6  1  1
  7  8  2  0
  7  5  1  0
  9 10  1  0
 10 11  2  0
 10 12  1  0
 13 12  1  1
 13 15  1  0
 13 14  1  0
 14  7  1  0
 15 17  1  0
 16 15  2  0
 17 18  1  0
 19 20  1  0
 19 18  1  0
 21 19  2  0
M  END
$$$$
