MNG.pdb
     RDKit          3D

 21 20  0  0  1  0  0  0  0  0999 V2000
   27.1329  -17.2360  -15.0799 C   0  0  0  0  0  0  0  0  0  0  0  0
   25.6084  -17.9279  -15.7978 S   0  0  0  0  0  0  0  0  0  0  0  0
   24.7231  -16.5876  -16.6056 C   0  0  0  0  0  0  0  0  0  0  0  0
   24.8214  -15.2950  -15.8298 C   0  0  0  0  0  0  0  0  0  0  0  0
   24.1788  -14.1538  -16.5591 C   0  0  2  0  0  0  0  0  0  0  0  0
   24.4583  -14.1201  -17.9742 N   0  0  0  0  0  0  0  0  0  0  0  0
   24.5728  -12.8578  -15.9284 C   0  0  0  0  0  0  0  0  0  0  0  0
   24.3864  -12.7054  -14.7068 O   0  0  0  0  0  0  0  0  0  0  0  0
   27.7563  -11.8679  -14.7626 N   0  0  0  0  0  0  0  0  0  0  0  0
   28.0490  -10.9925  -15.8180 C   0  0  0  0  0  0  0  0  0  0  0  0
   29.2399  -10.8307  -16.1645 O   0  0  0  0  0  0  0  0  0  0  0  0
   26.9794  -10.2773  -16.5063 C   0  0  0  0  0  0  0  0  0  0  0  0
   25.5786  -10.5578  -16.0287 C   0  0  2  0  0  0  0  0  0  0  0  0
   25.1421  -11.8186  -16.6727 N   0  0  0  0  0  0  0  0  0  0  0  0
   24.5914   -9.5256  -16.3242 C   0  0  0  0  0  0  0  0  0  0  0  0
   24.5677   -8.9959  -17.4622 O   0  0  0  0  0  0  0  0  0  0  0  0
   23.6381   -9.0845  -15.3723 N   0  0  0  0  0  0  0  0  0  0  0  0
   22.7658   -7.9727  -15.6887 C   0  0  0  0  0  0  0  0  0  0  0  0
   21.7647   -7.8229  -14.6189 C   0  0  0  0  0  0  0  0  0  0  0  0
   20.9111   -6.7178  -14.6211 O   0  0  0  0  0  0  0  0  0  0  0  0
   21.6758   -8.6676  -13.7213 O   0  0  0  0  0  0  0  0  0  0  0  0
  2  1  1  0
  3  2  1  0
  4  5  1  0
  4  3  1  0
  5  6  1  6
  7  8  2  0
  7  5  1  0
  9 10  1  0
 10 11  2  0
 10 12  1  0
 13 12  1  6
 13 15  1  0
 13 14  1  0
 14  7  1  0
 15 17  1  0
 16 15  2  0
 17 18  1  0
 19 20  1  0
 19 18  1  0
 21 19  2  0
M  END
$$$$
