MNG.pdb
     RDKit          3D

 21 20  0  0  1  0  0  0  0  0999 V2000
   27.3933  -20.3087   -4.2669 C   0  0  0  0  0  0  0  0  0  0  0  0
   28.3007  -19.3523   -5.5240 S   0  0  0  0  0  0  0  0  0  0  0  0
   28.2719  -20.2917   -7.0567 C   0  0  0  0  0  0  0  0  0  0  0  0
   26.9725  -20.1131   -7.8064 C   0  0  0  0  0  0  0  0  0  0  0  0
   26.9199  -20.9562   -9.0447 C   0  0  2  0  0  0  0  0  0  0  0  0
   28.2011  -21.4621   -9.4743 N   0  0  0  0  0  0  0  0  0  0  0  0
   26.2722  -20.1940  -10.1546 C   0  0  0  0  0  0  0  0  0  0  0  0
   26.4830  -18.9699  -10.2430 O   0  0  0  0  0  0  0  0  0  0  0  0
   27.6176  -19.4890  -14.3127 N   0  0  0  0  0  0  0  0  0  0  0  0
   27.1902  -20.6481  -13.6494 C   0  0  0  0  0  0  0  0  0  0  0  0
   28.0437  -21.4508  -13.2117 O   0  0  0  0  0  0  0  0  0  0  0  0
   25.7673  -20.9177  -13.4702 C   0  0  0  0  0  0  0  0  0  0  0  0
   25.0811  -20.1562  -12.3663 C   0  0  2  0  0  0  0  0  0  0  0  0
   25.4403  -20.8184  -11.0906 N   0  0  0  0  0  0  0  0  0  0  0  0
   23.6269  -20.0881  -12.4548 C   0  0  0  0  0  0  0  0  0  0  0  0
   23.0881  -19.6294  -13.4918 O   0  0  0  0  0  0  0  0  0  0  0  0
   22.7759  -20.5251  -11.4087 N   0  0  0  0  0  0  0  0  0  0  0  0
   21.3389  -20.4417  -11.5669 C   0  0  0  0  0  0  0  0  0  0  0  0
   20.8584  -21.6439  -12.2690 C   0  0  0  0  0  0  0  0  0  0  0  0
   21.7799  -22.5636  -12.7738 O   0  0  0  0  0  0  0  0  0  0  0  0
   19.6475  -21.8430  -12.4138 O   0  0  0  0  0  0  0  0  0  0  0  0
  2  1  1  0
  3  2  1  0
  4  5  1  0
  4  3  1  0
  5  6  1  6
  7  8  2  0
  7  5  1  0
  9 10  1  0
 10 11  2  0
 10 12  1  0
 13 12  1  6
 13 15  1  0
 13 14  1  0
 14  7  1  0
 15 17  1  0
 16 15  2  0
 17 18  1  0
 19 20  1  0
 19 18  1  0
 21 19  2  0
M  END
$$$$
