MNG.pdb
     RDKit          3D

 21 20  0  0  1  0  0  0  0  0999 V2000
   18.1598  -21.6053  -10.6690 C   0  0  0  0  0  0  0  0  0  0  0  0
   17.5014  -20.7888  -12.1584 S   0  0  0  0  0  0  0  0  0  0  0  0
   18.7443  -20.9173  -13.4512 C   0  0  0  0  0  0  0  0  0  0  0  0
   19.9713  -20.0920  -13.1415 C   0  0  0  0  0  0  0  0  0  0  0  0
   21.0068  -20.2018  -14.2197 C   0  0  2  0  0  0  0  0  0  0  0  0
   21.0354  -21.4800  -14.8885 N   0  0  0  0  0  0  0  0  0  0  0  0
   22.3574  -19.8839  -13.6653 C   0  0  0  0  0  0  0  0  0  0  0  0
   22.5311  -18.7859  -13.1044 O   0  0  0  0  0  0  0  0  0  0  0  0
   26.4219  -21.2609  -10.0910 N   0  0  0  0  0  0  0  0  0  0  0  0
   26.3824  -21.2423  -11.4924 C   0  0  0  0  0  0  0  0  0  0  0  0
   27.4387  -21.0382  -12.1303 O   0  0  0  0  0  0  0  0  0  0  0  0
   25.1254  -21.4583  -12.2015 C   0  0  0  0  0  0  0  0  0  0  0  0
   24.7727  -20.4392  -13.2532 C   0  0  2  0  0  0  0  0  0  0  0  0
   23.4243  -20.7843  -13.7607 N   0  0  0  0  0  0  0  0  0  0  0  0
   25.6846  -20.3613  -14.3888 C   0  0  0  0  0  0  0  0  0  0  0  0
   25.7886  -21.3382  -15.1705 O   0  0  0  0  0  0  0  0  0  0  0  0
   26.4722  -19.2142  -14.6597 N   0  0  0  0  0  0  0  0  0  0  0  0
   27.4956  -19.2685  -15.6829 C   0  0  0  0  0  0  0  0  0  0  0  0
   26.9538  -18.7228  -16.9390 C   0  0  0  0  0  0  0  0  0  0  0  0
   27.7137  -17.8190  -17.6842 O   0  0  0  0  0  0  0  0  0  0  0  0
   25.8331  -19.0594  -17.3364 O   0  0  0  0  0  0  0  0  0  0  0  0
  2  1  1  0
  3  2  1  0
  4  5  1  0
  4  3  1  0
  5  6  1  1
  7  8  2  0
  7  5  1  0
  9 10  1  0
 10 11  2  0
 10 12  1  0
 13 12  1  1
 13 15  1  0
 13 14  1  0
 14  7  1  0
 15 17  1  0
 16 15  2  0
 17 18  1  0
 19 20  1  0
 19 18  1  0
 21 19  2  0
M  END
$$$$
