MNG.pdb
     RDKit          3D

 21 20  0  0  1  0  0  0  0  0999 V2000
   26.9255  -22.9511  -15.7248 C   0  0  0  0  0  0  0  0  0  0  0  0
   25.6704  -24.0050  -14.9297 S   0  0  0  0  0  0  0  0  0  0  0  0
   24.0814  -23.1772  -15.0805 C   0  0  0  0  0  0  0  0  0  0  0  0
   24.1741  -21.7074  -14.7437 C   0  0  0  0  0  0  0  0  0  0  0  0
   22.8427  -21.0255  -14.8412 C   0  0  2  0  0  0  0  0  0  0  0  0
   21.9599  -21.5847  -15.8361 N   0  0  0  0  0  0  0  0  0  0  0  0
   23.0339  -19.5646  -15.0897 C   0  0  0  0  0  0  0  0  0  0  0  0
   23.6210  -18.8827  -14.2290 O   0  0  0  0  0  0  0  0  0  0  0  0
   23.8866  -15.5131  -19.3043 N   0  0  0  0  0  0  0  0  0  0  0  0
   23.9318  -15.8840  -17.9528 C   0  0  0  0  0  0  0  0  0  0  0  0
   24.1732  -15.0127  -17.0885 O   0  0  0  0  0  0  0  0  0  0  0  0
   23.7005  -17.2690  -17.5560 C   0  0  0  0  0  0  0  0  0  0  0  0
   22.6920  -17.4857  -16.4583 C   0  0  2  0  0  0  0  0  0  0  0  0
   22.5720  -18.9487  -16.2582 N   0  0  0  0  0  0  0  0  0  0  0  0
   21.3603  -16.9456  -16.7079 C   0  0  0  0  0  0  0  0  0  0  0  0
   20.5873  -17.5391  -17.4994 O   0  0  0  0  0  0  0  0  0  0  0  0
   20.8862  -15.7627  -16.0871 N   0  0  0  0  0  0  0  0  0  0  0  0
   19.6048  -15.2101  -16.4742 C   0  0  0  0  0  0  0  0  0  0  0  0
   19.3566  -13.9784  -15.7057 C   0  0  0  0  0  0  0  0  0  0  0  0
   18.1834  -13.2531  -15.9230 O   0  0  0  0  0  0  0  0  0  0  0  0
   20.1787  -13.5840  -14.8716 O   0  0  0  0  0  0  0  0  0  0  0  0
  2  1  1  0
  3  2  1  0
  4  5  1  0
  4  3  1  0
  5  6  1  6
  7  8  2  0
  7  5  1  0
  9 10  1  0
 10 11  2  0
 10 12  1  0
 13 12  1  6
 13 15  1  0
 13 14  1  0
 14  7  1  0
 15 17  1  0
 16 15  2  0
 17 18  1  0
 19 20  1  0
 19 18  1  0
 21 19  2  0
M  END
$$$$
