MNG.pdb
     RDKit          3D

 21 20  0  0  1  0  0  0  0  0999 V2000
   30.0173  -20.2720   -6.9928 C   0  0  0  0  0  0  0  0  0  0  0  0
   28.3805  -19.9374   -7.7188 S   0  0  0  0  0  0  0  0  0  0  0  0
   28.6293  -19.4254   -9.4243 C   0  0  0  0  0  0  0  0  0  0  0  0
   29.5358  -20.3735  -10.1738 C   0  0  0  0  0  0  0  0  0  0  0  0
   28.8519  -21.6691  -10.4911 C   0  0  2  0  0  0  0  0  0  0  0  0
   29.7239  -22.6857  -11.0277 N   0  0  0  0  0  0  0  0  0  0  0  0
   27.7103  -21.4290  -11.4247 C   0  0  0  0  0  0  0  0  0  0  0  0
   27.9280  -21.4355  -12.6507 O   0  0  0  0  0  0  0  0  0  0  0  0
   22.6858  -21.5335  -13.0652 N   0  0  0  0  0  0  0  0  0  0  0  0
   22.7331  -21.2099  -11.7017 C   0  0  0  0  0  0  0  0  0  0  0  0
   21.6628  -21.0736  -11.0692 O   0  0  0  0  0  0  0  0  0  0  0  0
   24.0142  -21.0334  -11.0257 C   0  0  0  0  0  0  0  0  0  0  0  0
   25.2445  -21.2437  -11.8691 C   0  0  2  0  0  0  0  0  0  0  0  0
   26.4115  -21.1985  -10.9575 N   0  0  0  0  0  0  0  0  0  0  0  0
   25.4553  -20.2691  -12.9335 C   0  0  0  0  0  0  0  0  0  0  0  0
   25.7886  -19.0940  -12.6432 O   0  0  0  0  0  0  0  0  0  0  0  0
   25.3018  -20.5903  -14.3056 N   0  0  0  0  0  0  0  0  0  0  0  0
   25.4603  -19.5582  -15.3090 C   0  0  0  0  0  0  0  0  0  0  0  0
   26.7361  -19.7621  -16.0161 C   0  0  0  0  0  0  0  0  0  0  0  0
   27.9033  -19.1807  -15.5167 O   0  0  0  0  0  0  0  0  0  0  0  0
   26.7796  -20.4431  -17.0463 O   0  0  0  0  0  0  0  0  0  0  0  0
  2  1  1  0
  3  2  1  0
  4  5  1  0
  4  3  1  0
  5  6  1  6
  7  8  2  0
  7  5  1  0
  9 10  1  0
 10 11  2  0
 10 12  1  0
 13 12  1  1
 13 15  1  0
 13 14  1  0
 14  7  1  0
 15 17  1  0
 16 15  2  0
 17 18  1  0
 19 20  1  0
 19 18  1  0
 21 19  2  0
M  END
$$$$
