MNG.pdb
     RDKit          3D

 21 20  0  0  1  0  0  0  0  0999 V2000
   18.6598  -14.1709  -15.1559 C   0  0  0  0  0  0  0  0  0  0  0  0
   18.0879  -14.3060  -16.8801 S   0  0  0  0  0  0  0  0  0  0  0  0
   18.0699  -12.6520  -17.5848 C   0  0  0  0  0  0  0  0  0  0  0  0
   18.2235  -11.5839  -16.5275 C   0  0  0  0  0  0  0  0  0  0  0  0
   18.2073  -10.2058  -17.1170 C   0  0  2  0  0  0  0  0  0  0  0  0
   18.8961  -10.0912  -18.3797 N   0  0  0  0  0  0  0  0  0  0  0  0
   18.7660   -9.2247  -16.1383 C   0  0  0  0  0  0  0  0  0  0  0  0
   18.2900   -9.1892  -14.9883 O   0  0  0  0  0  0  0  0  0  0  0  0
   20.6999   -9.1930  -13.3988 N   0  0  0  0  0  0  0  0  0  0  0  0
   21.8409   -8.7081  -14.0537 C   0  0  0  0  0  0  0  0  0  0  0  0
   22.9696   -9.1018  -13.6856 O   0  0  0  0  0  0  0  0  0  0  0  0
   21.7167   -7.7554  -15.1520 C   0  0  0  0  0  0  0  0  0  0  0  0
   20.3146   -7.3456  -15.5201 C   0  0  2  0  0  0  0  0  0  0  0  0
   19.8040   -8.3510  -16.4809 N   0  0  0  0  0  0  0  0  0  0  0  0
   20.1802   -6.0244  -16.1232 C   0  0  0  0  0  0  0  0  0  0  0  0
   20.7485   -5.7790  -17.2154 O   0  0  0  0  0  0  0  0  0  0  0  0
   19.4229   -4.9851  -15.5266 N   0  0  0  0  0  0  0  0  0  0  0  0
   19.3475   -3.6892  -16.1687 C   0  0  0  0  0  0  0  0  0  0  0  0
   18.5192   -2.7896  -15.3478 C   0  0  0  0  0  0  0  0  0  0  0  0
   17.8321   -3.2985  -14.2439 O   0  0  0  0  0  0  0  0  0  0  0  0
   18.4290   -1.5898  -15.6296 O   0  0  0  0  0  0  0  0  0  0  0  0
  2  1  1  0
  3  2  1  0
  4  5  1  0
  4  3  1  0
  5  6  1  6
  7  8  2  0
  7  5  1  0
  9 10  1  0
 10 11  2  0
 10 12  1  0
 13 12  1  6
 13 15  1  0
 13 14  1  0
 14  7  1  0
 15 17  1  0
 16 15  2  0
 17 18  1  0
 19 20  1  0
 19 18  1  0
 21 19  2  0
M  END
$$$$
