MNG.pdb
     RDKit          3D

 21 20  0  0  1  0  0  0  0  0999 V2000
   28.6095  -18.5176   -5.8266 C   0  0  0  0  0  0  0  0  0  0  0  0
   27.8825  -20.1183   -5.3495 S   0  0  0  0  0  0  0  0  0  0  0  0
   26.5305  -20.4680   -6.4820 C   0  0  0  0  0  0  0  0  0  0  0  0
   26.7611  -19.8583   -7.8450 C   0  0  0  0  0  0  0  0  0  0  0  0
   25.6097  -20.1073   -8.7719 C   0  0  2  0  0  0  0  0  0  0  0  0
   24.9614  -21.3827   -8.5853 N   0  0  0  0  0  0  0  0  0  0  0  0
   26.0553  -19.9623  -10.1907 C   0  0  0  0  0  0  0  0  0  0  0  0
   26.5834  -18.8921  -10.5460 O   0  0  0  0  0  0  0  0  0  0  0  0
   29.3890  -21.8579  -11.4594 N   0  0  0  0  0  0  0  0  0  0  0  0
   28.6841  -21.2123  -12.4853 C   0  0  0  0  0  0  0  0  0  0  0  0
   29.1983  -20.2215  -13.0493 O   0  0  0  0  0  0  0  0  0  0  0  0
   27.3661  -21.6882  -12.8924 C   0  0  0  0  0  0  0  0  0  0  0  0
   26.2035  -20.7907  -12.5578 C   0  0  2  0  0  0  0  0  0  0  0  0
   25.8945  -20.9932  -11.1231 N   0  0  0  0  0  0  0  0  0  0  0  0
   24.9857  -21.0209  -13.3268 C   0  0  0  0  0  0  0  0  0  0  0  0
   24.3734  -22.1106  -13.2097 O   0  0  0  0  0  0  0  0  0  0  0  0
   24.4481  -20.0554  -14.2146 N   0  0  0  0  0  0  0  0  0  0  0  0
   23.4327  -20.4433  -15.1714 C   0  0  0  0  0  0  0  0  0  0  0  0
   22.1191  -19.9707  -14.7020 C   0  0  0  0  0  0  0  0  0  0  0  0
   20.9978  -20.1210  -15.5204 O   0  0  0  0  0  0  0  0  0  0  0  0
   22.0038  -19.4429  -13.5905 O   0  0  0  0  0  0  0  0  0  0  0  0
  2  1  1  0
  3  2  1  0
  4  5  1  0
  4  3  1  0
  5  6  1  6
  7  8  2  0
  7  5  1  0
  9 10  1  0
 10 11  2  0
 10 12  1  0
 13 12  1  6
 13 15  1  0
 13 14  1  0
 14  7  1  0
 15 17  1  0
 16 15  2  0
 17 18  1  0
 19 20  1  0
 19 18  1  0
 21 19  2  0
M  END
$$$$
