MNG.pdb
     RDKit          3D

 21 20  0  0  1  0  0  0  0  0999 V2000
    9.1803  -13.7698  -10.9056 C   0  0  0  0  0  0  0  0  0  0  0  0
   10.4782  -12.7526  -10.1318 S   0  0  0  0  0  0  0  0  0  0  0  0
   11.7620  -12.4720  -11.3589 C   0  0  0  0  0  0  0  0  0  0  0  0
   12.9215  -11.6840  -10.7957 C   0  0  0  0  0  0  0  0  0  0  0  0
   13.9910  -11.4518  -11.8201 C   0  0  2  0  0  0  0  0  0  0  0  0
   14.4900  -12.6546  -12.4416 N   0  0  0  0  0  0  0  0  0  0  0  0
   15.1197  -10.6822  -11.2150 C   0  0  0  0  0  0  0  0  0  0  0  0
   16.2583  -11.1861  -11.2196 O   0  0  0  0  0  0  0  0  0  0  0  0
   18.3899   -6.5205  -12.2232 N   0  0  0  0  0  0  0  0  0  0  0  0
   18.0989   -7.4998  -11.2629 C   0  0  0  0  0  0  0  0  0  0  0  0
   18.8327   -7.6038  -10.2553 O   0  0  0  0  0  0  0  0  0  0  0  0
   16.9544   -8.3888  -11.4338 C   0  0  0  0  0  0  0  0  0  0  0  0
   16.0763   -8.5807  -10.2249 C   0  0  2  0  0  0  0  0  0  0  0  0
   14.9290   -9.4175  -10.6472 N   0  0  0  0  0  0  0  0  0  0  0  0
   15.5560   -7.3590   -9.6214 C   0  0  0  0  0  0  0  0  0  0  0  0
   14.7053   -6.6737  -10.2400 O   0  0  0  0  0  0  0  0  0  0  0  0
   15.9697   -6.9003   -8.3455 N   0  0  0  0  0  0  0  0  0  0  0  0
   15.3439   -5.7317   -7.7626 C   0  0  0  0  0  0  0  0  0  0  0  0
   15.9550   -4.5195   -8.3339 C   0  0  0  0  0  0  0  0  0  0  0  0
   16.9531   -4.6400   -9.3031 O   0  0  0  0  0  0  0  0  0  0  0  0
   15.5905   -3.3990   -7.9615 O   0  0  0  0  0  0  0  0  0  0  0  0
  2  1  1  0
  3  2  1  0
  4  5  1  0
  4  3  1  0
  5  6  1  1
  7  8  2  0
  7  5  1  0
  9 10  1  0
 10 11  2  0
 10 12  1  0
 13 12  1  6
 13 15  1  0
 13 14  1  0
 14  7  1  0
 15 17  1  0
 16 15  2  0
 17 18  1  0
 19 20  1  0
 19 18  1  0
 21 19  2  0
M  END
$$$$
