MNG.pdb
     RDKit          3D

 21 20  0  0  1  0  0  0  0  0999 V2000
   25.9079  -14.1307  -15.5269 C   0  0  0  0  0  0  0  0  0  0  0  0
   26.9319  -15.6144  -15.7882 S   0  0  0  0  0  0  0  0  0  0  0  0
   25.8280  -17.0262  -15.9331 C   0  0  0  0  0  0  0  0  0  0  0  0
   24.7059  -16.9741  -14.9229 C   0  0  0  0  0  0  0  0  0  0  0  0
   23.7359  -18.1024  -15.1046 C   0  0  2  0  0  0  0  0  0  0  0  0
   24.3411  -19.3461  -15.5156 N   0  0  0  0  0  0  0  0  0  0  0  0
   22.6687  -17.7078  -16.0729 C   0  0  0  0  0  0  0  0  0  0  0  0
   22.8465  -17.9331  -17.2845 O   0  0  0  0  0  0  0  0  0  0  0  0
   19.4642  -19.3527  -16.4593 N   0  0  0  0  0  0  0  0  0  0  0  0
   18.6962  -18.3393  -15.8685 C   0  0  0  0  0  0  0  0  0  0  0  0
   17.6542  -18.6459  -15.2483 O   0  0  0  0  0  0  0  0  0  0  0  0
   19.1048  -16.9424  -15.9740 C   0  0  0  0  0  0  0  0  0  0  0  0
   20.4397  -16.6883  -16.6242 C   0  0  2  0  0  0  0  0  0  0  0  0
   21.4825  -17.0952  -15.6537 N   0  0  0  0  0  0  0  0  0  0  0  0
   20.6963  -15.3089  -17.0227 C   0  0  0  0  0  0  0  0  0  0  0  0
   19.9517  -14.7581  -17.8702 O   0  0  0  0  0  0  0  0  0  0  0  0
   21.7637  -14.5447  -16.4879 N   0  0  0  0  0  0  0  0  0  0  0  0
   21.9250  -13.1599  -16.8801 C   0  0  0  0  0  0  0  0  0  0  0  0
   22.7995  -13.0905  -18.0631 C   0  0  0  0  0  0  0  0  0  0  0  0
   23.2269  -11.8474  -18.5343 O   0  0  0  0  0  0  0  0  0  0  0  0
   23.1564  -14.1234  -18.6399 O   0  0  0  0  0  0  0  0  0  0  0  0
  2  1  1  0
  3  2  1  0
  4  5  1  0
  4  3  1  0
  5  6  1  6
  7  8  2  0
  7  5  1  0
  9 10  1  0
 10 11  2  0
 10 12  1  0
 13 12  1  1
 13 15  1  0
 13 14  1  0
 14  7  1  0
 15 17  1  0
 16 15  2  0
 17 18  1  0
 19 20  1  0
 19 18  1  0
 21 19  2  0
M  END
$$$$
