MNG.pdb
     RDKit          3D

 21 20  0  0  1  0  0  0  0  0999 V2000
   26.9586  -16.0298  -15.0589 C   0  0  0  0  0  0  0  0  0  0  0  0
   26.3741  -14.3046  -15.0441 S   0  0  0  0  0  0  0  0  0  0  0  0
   25.1294  -14.1343  -16.3303 C   0  0  0  0  0  0  0  0  0  0  0  0
   24.6177  -12.7170  -16.4395 C   0  0  0  0  0  0  0  0  0  0  0  0
   23.5778  -12.5780  -17.5102 C   0  0  2  0  0  0  0  0  0  0  0  0
   24.0394  -12.9168  -18.8347 N   0  0  0  0  0  0  0  0  0  0  0  0
   23.0181  -11.1926  -17.5020 C   0  0  0  0  0  0  0  0  0  0  0  0
   23.5970  -10.3091  -18.1614 O   0  0  0  0  0  0  0  0  0  0  0  0
   17.6852   -8.4146  -16.7204 N   0  0  0  0  0  0  0  0  0  0  0  0
   19.0262   -8.4334  -17.1293 C   0  0  0  0  0  0  0  0  0  0  0  0
   19.5502   -7.3795  -17.5525 O   0  0  0  0  0  0  0  0  0  0  0  0
   19.8043   -9.6661  -17.0631 C   0  0  0  0  0  0  0  0  0  0  0  0
   21.2832   -9.5060  -16.8260 C   0  0  2  0  0  0  0  0  0  0  0  0
   21.8672  -10.8666  -16.7760 N   0  0  0  0  0  0  0  0  0  0  0  0
   21.6548   -8.8017  -15.6040 C   0  0  0  0  0  0  0  0  0  0  0  0
   21.5435   -9.3797  -14.4952 O   0  0  0  0  0  0  0  0  0  0  0  0
   22.1472   -7.4724  -15.6073 N   0  0  0  0  0  0  0  0  0  0  0  0
   22.4541   -6.8150  -14.3540 C   0  0  0  0  0  0  0  0  0  0  0  0
   22.0864   -5.3921  -14.4508 C   0  0  0  0  0  0  0  0  0  0  0  0
   22.3501   -4.5360  -13.3797 O   0  0  0  0  0  0  0  0  0  0  0  0
   21.5470   -4.9525  -15.4720 O   0  0  0  0  0  0  0  0  0  0  0  0
  2  1  1  0
  3  2  1  0
  4  5  1  0
  4  3  1  0
  5  6  1  6
  7  8  2  0
  7  5  1  0
  9 10  1  0
 10 11  2  0
 10 12  1  0
 13 12  1  1
 13 15  1  0
 13 14  1  0
 14  7  1  0
 15 17  1  0
 16 15  2  0
 17 18  1  0
 19 20  1  0
 19 18  1  0
 21 19  2  0
M  END
$$$$
