MNG.pdb
     RDKit          3D

 21 20  0  0  1  0  0  0  0  0999 V2000
   29.7833  -21.4451   -8.5157 C   0  0  0  0  0  0  0  0  0  0  0  0
   30.9410  -21.0242   -9.8577 S   0  0  0  0  0  0  0  0  0  0  0  0
   29.9912  -20.8745  -11.3769 C   0  0  0  0  0  0  0  0  0  0  0  0
   28.6564  -21.5757  -11.2820 C   0  0  0  0  0  0  0  0  0  0  0  0
   27.8452  -21.4072  -12.5312 C   0  0  2  0  0  0  0  0  0  0  0  0
   28.0392  -20.1435  -13.2000 N   0  0  0  0  0  0  0  0  0  0  0  0
   26.3957  -21.6099  -12.2304 C   0  0  0  0  0  0  0  0  0  0  0  0
   26.0035  -22.7484  -11.9135 O   0  0  0  0  0  0  0  0  0  0  0  0
   22.2932  -21.0942   -8.8278 N   0  0  0  0  0  0  0  0  0  0  0  0
   22.4688  -20.4274  -10.0487 C   0  0  0  0  0  0  0  0  0  0  0  0
   21.4648  -20.0051  -10.6635 O   0  0  0  0  0  0  0  0  0  0  0  0
   23.8056  -20.2268  -10.5983 C   0  0  0  0  0  0  0  0  0  0  0  0
   24.0417  -20.7673  -11.9844 C   0  0  2  0  0  0  0  0  0  0  0  0
   25.4749  -20.5583  -12.2961 N   0  0  0  0  0  0  0  0  0  0  0  0
   23.2474  -20.1571  -13.0446 C   0  0  0  0  0  0  0  0  0  0  0  0
   23.5169  -18.9936  -13.4317 O   0  0  0  0  0  0  0  0  0  0  0  0
   22.1674  -20.8267  -13.6727 N   0  0  0  0  0  0  0  0  0  0  0  0
   21.4623  -20.1892  -14.7652 C   0  0  0  0  0  0  0  0  0  0  0  0
   20.0570  -19.9796  -14.3777 C   0  0  0  0  0  0  0  0  0  0  0  0
   19.1996  -19.2877  -15.2356 O   0  0  0  0  0  0  0  0  0  0  0  0
   19.6331  -20.4114  -13.3002 O   0  0  0  0  0  0  0  0  0  0  0  0
  2  1  1  0
  3  2  1  0
  4  5  1  0
  4  3  1  0
  5  6  1  1
  7  8  2  0
  7  5  1  0
  9 10  1  0
 10 11  2  0
 10 12  1  0
 13 12  1  1
 13 15  1  0
 13 14  1  0
 14  7  1  0
 15 17  1  0
 16 15  2  0
 17 18  1  0
 19 20  1  0
 19 18  1  0
 21 19  2  0
M  END
$$$$
