MNG.pdb
     RDKit          3D

 21 20  0  0  1  0  0  0  0  0999 V2000
   28.3893  -20.4641   -3.9306 C   0  0  0  0  0  0  0  0  0  0  0  0
   27.2952  -20.4696   -5.3870 S   0  0  0  0  0  0  0  0  0  0  0  0
   28.0004  -19.3552   -6.6091 C   0  0  0  0  0  0  0  0  0  0  0  0
   27.1164  -19.2167   -7.8264 C   0  0  0  0  0  0  0  0  0  0  0  0
   27.1953  -20.4209   -8.7156 C   0  0  2  0  0  0  0  0  0  0  0  0
   28.5393  -20.8544   -9.0114 N   0  0  0  0  0  0  0  0  0  0  0  0
   26.4478  -20.1688   -9.9846 C   0  0  0  0  0  0  0  0  0  0  0  0
   26.7735  -19.1942  -10.6877 O   0  0  0  0  0  0  0  0  0  0  0  0
   26.8344  -20.5925  -13.5104 N   0  0  0  0  0  0  0  0  0  0  0  0
   26.1167  -21.7953  -13.4469 C   0  0  0  0  0  0  0  0  0  0  0  0
   26.4840  -22.7631  -14.1489 O   0  0  0  0  0  0  0  0  0  0  0  0
   24.9546  -21.9199  -12.5732 C   0  0  0  0  0  0  0  0  0  0  0  0
   24.6755  -20.7485  -11.6682 C   0  0  2  0  0  0  0  0  0  0  0  0
   25.3978  -20.9959  -10.3986 N   0  0  0  0  0  0  0  0  0  0  0  0
   23.2704  -20.5099  -11.3582 C   0  0  0  0  0  0  0  0  0  0  0  0
   22.7487  -21.0737  -10.3652 O   0  0  0  0  0  0  0  0  0  0  0  0
   22.4503  -19.6548  -12.1364 N   0  0  0  0  0  0  0  0  0  0  0  0
   21.0814  -19.4073  -11.7336 C   0  0  0  0  0  0  0  0  0  0  0  0
   20.2775  -20.6160  -11.9824 C   0  0  0  0  0  0  0  0  0  0  0  0
   20.5736  -21.4292  -13.0782 O   0  0  0  0  0  0  0  0  0  0  0  0
   19.3445  -20.9140  -11.2288 O   0  0  0  0  0  0  0  0  0  0  0  0
  2  1  1  0
  3  2  1  0
  4  5  1  0
  4  3  1  0
  5  6  1  6
  7  8  2  0
  7  5  1  0
  9 10  1  0
 10 11  2  0
 10 12  1  0
 13 12  1  6
 13 15  1  0
 13 14  1  0
 14  7  1  0
 15 17  1  0
 16 15  2  0
 17 18  1  0
 19 20  1  0
 19 18  1  0
 21 19  2  0
M  END
$$$$
