KCR.pdb
     RDKit          3D

 27 26  0  0  1  0  0  0  0  0999 V2000
    7.7493  -14.4651   13.9791 N   0  0  0  0  0  0  0  0  0  0  0  0
    7.3881  -15.0956   15.2013 C   0  0  1  0  0  0  0  0  0  0  0  0
    7.4206  -16.5713   15.1569 C   0  0  0  0  0  0  0  0  0  0  0  0
    7.1107  -17.3165   16.4132 C   0  0  0  0  0  0  0  0  0  0  0  0
    7.2796  -18.7788   16.2423 C   0  0  0  0  0  0  0  0  0  0  0  0
    6.9720  -19.5511   17.5199 C   0  0  0  0  0  0  0  0  0  0  0  0
    7.1264  -20.9647   17.3608 N   0  0  0  0  0  0  0  0  0  0  0  0
    8.3483  -14.6403   16.2738 C   0  0  0  0  0  0  0  0  0  0  0  0
    9.5471  -14.3728   16.0212 O   0  0  0  0  0  0  0  0  0  0  0  0
    7.9151  -14.5022   17.6115 N   0  0  0  0  0  0  0  0  0  0  0  0
    8.7382  -14.0248   18.7043 C   0  0  1  0  0  0  0  0  0  0  0  0
    8.0326  -12.8483   19.3375 C   0  0  0  0  0  0  0  0  0  0  0  0
    6.4198  -13.4196   19.9657 S   0  0  0  0  0  0  0  0  0  0  0  0
    8.8597  -15.1682   19.6706 C   0  0  0  0  0  0  0  0  0  0  0  0
    8.0353  -16.1233   19.6931 O   0  0  0  0  0  0  0  0  0  0  0  0
   12.5263  -21.2423   21.6489 N   0  0  0  0  0  0  0  0  0  0  0  0
   13.5308  -20.7985   20.7388 C   0  0  0  0  0  0  0  0  0  0  0  0
   14.7129  -21.2662   20.8486 N   0  0  0  0  0  0  0  0  0  0  0  0
   13.2349  -19.8483   19.7175 N   0  0  0  0  0  0  0  0  0  0  0  0
   11.9274  -19.2577   19.6254 C   0  0  0  0  0  0  0  0  0  0  0  0
   11.7521  -18.1509   20.6190 C   0  0  0  0  0  0  0  0  0  0  0  0
   10.4059  -17.5351   20.4664 C   0  0  0  0  0  0  0  0  0  0  0  0
   10.0999  -16.4200   21.4393 C   0  0  2  0  0  0  0  0  0  0  0  0
    9.9187  -15.2300   20.6137 N   0  0  0  0  0  0  0  0  0  0  0  0
   11.2035  -16.2204   22.3895 C   0  0  0  0  0  0  0  0  0  0  0  0
   11.9431  -15.2090   22.4018 O   0  0  0  0  0  0  0  0  0  0  0  0
   11.4690  -17.1902   23.3434 O   0  0  0  0  0  0  0  0  0  0  0  0
  2  3  1  0
  2  1  1  6
  4  5  1  0
  4  3  1  0
  5  6  1  0
  6  7  1  0
  8  9  2  0
  8  2  1  0
 10  8  1  0
 11 10  1  0
 11 12  1  1
 13 12  1  0
 14 15  2  0
 14 11  1  0
 17 16  1  0
 18 17  2  0
 19 17  1  0
 20 19  1  0
 21 20  1  0
 21 22  1  0
 23 22  1  6
 23 24  1  0
 24 14  1  0
 25 23  1  0
 26 25  2  0
 27 25  1  0
M  END
$$$$
