KCR.pdb
     RDKit          3D

 27 26  0  0  1  0  0  0  0  0999 V2000
    8.2205  -12.4000   18.2896 N   0  0  0  0  0  0  0  0  0  0  0  0
    7.9352  -13.6841   18.8295 C   0  0  1  0  0  0  0  0  0  0  0  0
    8.3239  -14.8104   17.9571 C   0  0  0  0  0  0  0  0  0  0  0  0
    7.6716  -14.9162   16.6180 C   0  0  0  0  0  0  0  0  0  0  0  0
    8.1586  -16.0924   15.8594 C   0  0  0  0  0  0  0  0  0  0  0  0
    7.3497  -16.3399   14.5914 C   0  0  0  0  0  0  0  0  0  0  0  0
    7.7977  -17.4896   13.8668 N   0  0  0  0  0  0  0  0  0  0  0  0
    8.6795  -13.8276   20.1353 C   0  0  0  0  0  0  0  0  0  0  0  0
    9.9173  -13.6441   20.2173 O   0  0  0  0  0  0  0  0  0  0  0  0
    7.9905  -14.1788   21.3177 N   0  0  0  0  0  0  0  0  0  0  0  0
    8.6189  -14.4381   22.5973 C   0  0  1  0  0  0  0  0  0  0  0  0
    7.5258  -14.5897   23.6293 C   0  0  0  0  0  0  0  0  0  0  0  0
    6.9429  -12.9263   24.0931 S   0  0  0  0  0  0  0  0  0  0  0  0
    9.3925  -15.7153   22.4354 C   0  0  0  0  0  0  0  0  0  0  0  0
    9.2955  -16.4371   21.4050 O   0  0  0  0  0  0  0  0  0  0  0  0
   16.1533  -15.1610   20.3445 N   0  0  0  0  0  0  0  0  0  0  0  0
   15.0734  -14.9024   19.4494 C   0  0  0  0  0  0  0  0  0  0  0  0
   15.2435  -14.0628   18.5038 N   0  0  0  0  0  0  0  0  0  0  0  0
   13.8183  -15.5632   19.5953 N   0  0  0  0  0  0  0  0  0  0  0  0
   13.7104  -16.7617   20.3821 C   0  0  0  0  0  0  0  0  0  0  0  0
   13.6420  -16.4547   21.8464 C   0  0  0  0  0  0  0  0  0  0  0  0
   12.2792  -15.9769   22.2057 C   0  0  0  0  0  0  0  0  0  0  0  0
   11.4836  -16.9166   23.0818 C   0  0  2  0  0  0  0  0  0  0  0  0
   10.2791  -16.1756   23.4438 N   0  0  0  0  0  0  0  0  0  0  0  0
   12.2361  -17.2907   24.2877 C   0  0  0  0  0  0  0  0  0  0  0  0
   12.1194  -16.7131   25.3936 O   0  0  0  0  0  0  0  0  0  0  0  0
   13.1374  -18.3422   24.2333 O   0  0  0  0  0  0  0  0  0  0  0  0
  2  3  1  0
  2  1  1  6
  4  5  1  0
  4  3  1  0
  5  6  1  0
  6  7  1  0
  8  9  2  0
  8  2  1  0
 10  8  1  0
 11 10  1  0
 11 12  1  1
 13 12  1  0
 14 15  2  0
 14 11  1  0
 17 16  1  0
 18 17  2  0
 19 17  1  0
 20 19  1  0
 21 20  1  0
 21 22  1  0
 23 22  1  6
 23 24  1  0
 24 14  1  0
 25 23  1  0
 26 25  2  0
 27 25  1  0
M  END
$$$$
