KCR.pdb
     RDKit          3D

 27 26  0  0  1  0  0  0  0  0999 V2000
    7.0343  -15.2197   19.6204 N   0  0  0  0  0  0  0  0  0  0  0  0
    8.3464  -14.6763   19.5519 C   0  0  1  0  0  0  0  0  0  0  0  0
    8.4199  -13.3422   18.9230 C   0  0  0  0  0  0  0  0  0  0  0  0
    7.7773  -13.1615   17.5873 C   0  0  0  0  0  0  0  0  0  0  0  0
    8.6012  -13.7353   16.4974 C   0  0  0  0  0  0  0  0  0  0  0  0
    7.9477  -13.5737   15.1299 C   0  0  0  0  0  0  0  0  0  0  0  0
    8.7260  -14.1473   14.0751 N   0  0  0  0  0  0  0  0  0  0  0  0
    8.8874  -14.5598   20.9567 C   0  0  0  0  0  0  0  0  0  0  0  0
   10.0713  -14.2152   21.1854 O   0  0  0  0  0  0  0  0  0  0  0  0
    8.0617  -14.8412   22.0680 N   0  0  0  0  0  0  0  0  0  0  0  0
    8.5091  -14.8752   23.4457 C   0  0  1  0  0  0  0  0  0  0  0  0
    7.2870  -14.8197   24.3324 C   0  0  0  0  0  0  0  0  0  0  0  0
    7.3158  -13.2435   25.2473 S   0  0  0  0  0  0  0  0  0  0  0  0
    9.2449  -16.1733   23.6176 C   0  0  0  0  0  0  0  0  0  0  0  0
    8.6707  -17.2926   23.5200 O   0  0  0  0  0  0  0  0  0  0  0  0
   13.2524  -14.0243   19.0027 N   0  0  0  0  0  0  0  0  0  0  0  0
   13.8016  -15.0505   19.8269 C   0  0  0  0  0  0  0  0  0  0  0  0
   15.0609  -15.2546   19.8012 N   0  0  0  0  0  0  0  0  0  0  0  0
   12.9706  -15.8440   20.6714 N   0  0  0  0  0  0  0  0  0  0  0  0
   13.1518  -17.2684   20.7452 C   0  0  0  0  0  0  0  0  0  0  0  0
   12.2016  -17.8944   21.7190 C   0  0  0  0  0  0  0  0  0  0  0  0
   12.4943  -17.4174   23.0979 C   0  0  0  0  0  0  0  0  0  0  0  0
   11.3273  -17.4790   24.0560 C   0  0  2  0  0  0  0  0  0  0  0  0
   10.6357  -16.2030   23.9000 N   0  0  0  0  0  0  0  0  0  0  0  0
   11.7819  -17.6483   25.4435 C   0  0  0  0  0  0  0  0  0  0  0  0
   11.6375  -16.7833   26.3386 O   0  0  0  0  0  0  0  0  0  0  0  0
   12.4118  -18.8245   25.8185 O   0  0  0  0  0  0  0  0  0  0  0  0
  2  3  1  0
  2  1  1  1
  4  5  1  0
  4  3  1  0
  5  6  1  0
  6  7  1  0
  8  9  2  0
  8  2  1  0
 10  8  1  0
 11 10  1  0
 11 12  1  1
 13 12  1  0
 14 15  2  0
 14 11  1  0
 17 16  1  0
 18 17  2  0
 19 17  1  0
 20 19  1  0
 21 20  1  0
 21 22  1  0
 23 22  1  6
 23 24  1  0
 24 14  1  0
 25 23  1  0
 26 25  2  0
 27 25  1  0
M  END
$$$$
