KCR.pdb
     RDKit          3D

 27 26  0  0  1  0  0  0  0  0999 V2000
    7.9877  -16.1426   18.1441 N   0  0  0  0  0  0  0  0  0  0  0  0
    8.8835  -15.0846   17.8281 C   0  0  1  0  0  0  0  0  0  0  0  0
    8.3419  -14.0932   16.8771 C   0  0  0  0  0  0  0  0  0  0  0  0
    7.9011  -14.5782   15.5353 C   0  0  0  0  0  0  0  0  0  0  0  0
    7.9241  -13.4958   14.5234 C   0  0  0  0  0  0  0  0  0  0  0  0
    7.3466  -13.9412   13.1849 C   0  0  0  0  0  0  0  0  0  0  0  0
    7.1962  -12.8588   12.2612 N   0  0  0  0  0  0  0  0  0  0  0  0
    9.2353  -14.3611   19.1057 C   0  0  0  0  0  0  0  0  0  0  0  0
   10.1102  -13.4633   19.1406 O   0  0  0  0  0  0  0  0  0  0  0  0
    8.5786  -14.6818   20.3149 N   0  0  0  0  0  0  0  0  0  0  0  0
    9.0436  -14.3079   21.6352 C   0  0  1  0  0  0  0  0  0  0  0  0
    7.8400  -13.9038   22.4543 C   0  0  0  0  0  0  0  0  0  0  0  0
    6.9855  -15.4183   23.0004 S   0  0  0  0  0  0  0  0  0  0  0  0
    9.7054  -15.5277   22.2097 C   0  0  0  0  0  0  0  0  0  0  0  0
    9.2642  -16.6927   22.0088 O   0  0  0  0  0  0  0  0  0  0  0  0
   14.4825  -14.3734   17.6955 N   0  0  0  0  0  0  0  0  0  0  0  0
   14.9602  -14.6597   19.0085 C   0  0  0  0  0  0  0  0  0  0  0  0
   15.5894  -13.7520   19.6476 N   0  0  0  0  0  0  0  0  0  0  0  0
   14.7464  -15.9342   19.6112 N   0  0  0  0  0  0  0  0  0  0  0  0
   14.5840  -16.0514   21.0349 C   0  0  0  0  0  0  0  0  0  0  0  0
   13.1474  -16.2458   21.4109 C   0  0  0  0  0  0  0  0  0  0  0  0
   13.0206  -16.3946   22.8862 C   0  0  0  0  0  0  0  0  0  0  0  0
   11.6135  -16.6275   23.3858 C   0  0  2  0  0  0  0  0  0  0  0  0
   10.8711  -15.4271   23.0134 N   0  0  0  0  0  0  0  0  0  0  0  0
   11.5868  -16.8141   24.8435 C   0  0  0  0  0  0  0  0  0  0  0  0
   12.1034  -17.7910   25.4343 O   0  0  0  0  0  0  0  0  0  0  0  0
   10.9610  -15.8706   25.6429 O   0  0  0  0  0  0  0  0  0  0  0  0
  2  3  1  0
  2  1  1  1
  4  5  1  0
  4  3  1  0
  5  6  1  0
  6  7  1  0
  8  9  2  0
  8  2  1  0
 10  8  1  0
 11 10  1  0
 11 12  1  1
 13 12  1  0
 14 15  2  0
 14 11  1  0
 17 16  1  0
 18 17  2  0
 19 17  1  0
 20 19  1  0
 21 20  1  0
 21 22  1  0
 23 22  1  1
 23 24  1  0
 24 14  1  0
 25 23  1  0
 26 25  2  0
 27 25  1  0
M  END
$$$$
