KCR.pdb
     RDKit          3D

 27 26  0  0  1  0  0  0  0  0999 V2000
    8.4295  -12.8032   18.4059 N   0  0  0  0  0  0  0  0  0  0  0  0
    8.4018  -14.0197   17.6704 C   0  0  1  0  0  0  0  0  0  0  0  0
    8.2943  -13.8437   16.2082 C   0  0  0  0  0  0  0  0  0  0  0  0
    8.2528  -15.0696   15.3566 C   0  0  0  0  0  0  0  0  0  0  0  0
    8.0761  -14.7388   13.9230 C   0  0  0  0  0  0  0  0  0  0  0  0
    7.9003  -15.9819   13.0586 C   0  0  0  0  0  0  0  0  0  0  0  0
    7.7585  -15.6721   11.6688 N   0  0  0  0  0  0  0  0  0  0  0  0
    9.6758  -14.7779   17.9561 C   0  0  0  0  0  0  0  0  0  0  0  0
    9.9084  -15.9003   17.4474 O   0  0  0  0  0  0  0  0  0  0  0  0
   10.6546  -14.2351   18.8184 N   0  0  0  0  0  0  0  0  0  0  0  0
   11.9063  -14.8793   19.1614 C   0  0  1  0  0  0  0  0  0  0  0  0
   12.9878  -13.8242   19.1579 C   0  0  0  0  0  0  0  0  0  0  0  0
   14.5854  -14.6423   19.4751 S   0  0  0  0  0  0  0  0  0  0  0  0
   11.7191  -15.4591   20.5342 C   0  0  0  0  0  0  0  0  0  0  0  0
   11.1455  -14.8249   21.4622 O   0  0  0  0  0  0  0  0  0  0  0  0
   13.5770  -24.0233   22.9300 N   0  0  0  0  0  0  0  0  0  0  0  0
   13.3499  -22.7023   22.4424 C   0  0  0  0  0  0  0  0  0  0  0  0
   13.4961  -22.4711   21.1961 N   0  0  0  0  0  0  0  0  0  0  0  0
   12.9653  -21.6466   23.3203 N   0  0  0  0  0  0  0  0  0  0  0  0
   11.7159  -20.9600   23.1342 C   0  0  0  0  0  0  0  0  0  0  0  0
   11.8522  -19.4904   23.3884 C   0  0  0  0  0  0  0  0  0  0  0  0
   11.9270  -18.7529   22.0980 C   0  0  0  0  0  0  0  0  0  0  0  0
   12.0922  -17.2563   22.2266 C   0  0  2  0  0  0  0  0  0  0  0  0
   12.1823  -16.7615   20.8563 N   0  0  0  0  0  0  0  0  0  0  0  0
   13.3101  -16.9144   22.9752 C   0  0  0  0  0  0  0  0  0  0  0  0
   13.3673  -16.8430   24.2250 O   0  0  0  0  0  0  0  0  0  0  0  0
   14.4842  -16.6497   22.2880 O   0  0  0  0  0  0  0  0  0  0  0  0
  2  3  1  0
  2  1  1  1
  4  5  1  0
  4  3  1  0
  5  6  1  0
  6  7  1  0
  8  9  2  0
  8  2  1  0
 10  8  1  0
 11 10  1  0
 11 12  1  1
 13 12  1  0
 14 15  2  0
 14 11  1  0
 17 16  1  0
 18 17  2  0
 19 17  1  0
 20 19  1  0
 21 20  1  0
 21 22  1  0
 23 22  1  6
 23 24  1  0
 24 14  1  0
 25 23  1  0
 26 25  2  0
 27 25  1  0
M  END
$$$$
