KCR.pdb
     RDKit          3D

 27 26  0  0  1  0  0  0  0  0999 V2000
    7.6072  -16.8768   17.9607 N   0  0  0  0  0  0  0  0  0  0  0  0
    7.3955  -17.1540   19.3391 C   0  0  1  0  0  0  0  0  0  0  0  0
    7.5183  -18.5812   19.6979 C   0  0  0  0  0  0  0  0  0  0  0  0
    7.5801  -19.5791   18.5888 C   0  0  0  0  0  0  0  0  0  0  0  0
    7.6762  -20.9665   19.1008 C   0  0  0  0  0  0  0  0  0  0  0  0
    7.5652  -22.0036   17.9893 C   0  0  0  0  0  0  0  0  0  0  0  0
    7.5688  -23.3459   18.4847 N   0  0  0  0  0  0  0  0  0  0  0  0
    8.4149  -16.3822   20.1420 C   0  0  0  0  0  0  0  0  0  0  0  0
    9.6184  -16.3138   19.7961 O   0  0  0  0  0  0  0  0  0  0  0  0
    8.0344  -15.7067   21.3231 N   0  0  0  0  0  0  0  0  0  0  0  0
    8.9461  -15.0207   22.2161 C   0  0  1  0  0  0  0  0  0  0  0  0
    8.1262  -14.1423   23.1321 C   0  0  0  0  0  0  0  0  0  0  0  0
    6.9673  -15.2037   24.0555 S   0  0  0  0  0  0  0  0  0  0  0  0
    9.6628  -16.0905   22.9894 C   0  0  0  0  0  0  0  0  0  0  0  0
    9.1293  -17.2025   23.2562 O   0  0  0  0  0  0  0  0  0  0  0  0
   16.2968  -19.7251   23.2942 N   0  0  0  0  0  0  0  0  0  0  0  0
   16.1219  -18.5477   22.5086 C   0  0  0  0  0  0  0  0  0  0  0  0
   16.1979  -18.6369   21.2380 N   0  0  0  0  0  0  0  0  0  0  0  0
   15.8655  -17.2842   23.1177 N   0  0  0  0  0  0  0  0  0  0  0  0
   15.4878  -17.2037   24.5026 C   0  0  0  0  0  0  0  0  0  0  0  0
   14.0634  -17.6173   24.7097 C   0  0  0  0  0  0  0  0  0  0  0  0
   13.1494  -16.6668   24.0199 C   0  0  0  0  0  0  0  0  0  0  0  0
   11.6773  -16.9731   24.1708 C   0  0  2  0  0  0  0  0  0  0  0  0
   10.9879  -15.8999   23.4611 N   0  0  0  0  0  0  0  0  0  0  0  0
   11.2765  -16.9915   25.5849 C   0  0  0  0  0  0  0  0  0  0  0  0
   11.5902  -17.8989   26.3902 O   0  0  0  0  0  0  0  0  0  0  0  0
   10.5048  -15.9574   26.0910 O   0  0  0  0  0  0  0  0  0  0  0  0
  2  3  1  0
  2  1  1  6
  4  5  1  0
  4  3  1  0
  5  6  1  0
  6  7  1  0
  8  9  2  0
  8  2  1  0
 10  8  1  0
 11 10  1  0
 11 12  1  1
 13 12  1  0
 14 15  2  0
 14 11  1  0
 17 16  1  0
 18 17  2  0
 19 17  1  0
 20 19  1  0
 21 20  1  0
 21 22  1  0
 23 22  1  1
 23 24  1  0
 24 14  1  0
 25 23  1  0
 26 25  2  0
 27 25  1  0
M  END
$$$$
