KCR.pdb
     RDKit          3D

 27 26  0  0  1  0  0  0  0  0999 V2000
    8.5075  -17.1378   15.9689 N   0  0  0  0  0  0  0  0  0  0  0  0
    7.7365  -17.1666   17.1632 C   0  0  1  0  0  0  0  0  0  0  0  0
    7.3627  -18.5227   17.6128 C   0  0  0  0  0  0  0  0  0  0  0  0
    6.9715  -19.5217   16.5741 C   0  0  0  0  0  0  0  0  0  0  0  0
    6.5125  -20.7942   17.1790 C   0  0  0  0  0  0  0  0  0  0  0  0
    6.2308  -21.8654   16.1318 C   0  0  0  0  0  0  0  0  0  0  0  0
    5.7769  -23.0942   16.7077 N   0  0  0  0  0  0  0  0  0  0  0  0
    8.5390  -16.5153   18.2638 C   0  0  0  0  0  0  0  0  0  0  0  0
    9.7930  -16.5277   18.2671 O   0  0  0  0  0  0  0  0  0  0  0  0
    7.8884  -15.8654   19.3364 N   0  0  0  0  0  0  0  0  0  0  0  0
    8.5610  -15.2339   20.4536 C   0  0  1  0  0  0  0  0  0  0  0  0
    7.5402  -14.4126   21.2062 C   0  0  0  0  0  0  0  0  0  0  0  0
    6.2123  -15.5271   21.7688 S   0  0  0  0  0  0  0  0  0  0  0  0
    9.0964  -16.3478   21.3071 C   0  0  0  0  0  0  0  0  0  0  0  0
    8.9645  -17.5625   20.9921 O   0  0  0  0  0  0  0  0  0  0  0  0
   14.4248  -21.1761   21.8556 N   0  0  0  0  0  0  0  0  0  0  0  0
   15.1570  -20.1329   21.2155 C   0  0  0  0  0  0  0  0  0  0  0  0
   15.8106  -20.4003   20.1527 N   0  0  0  0  0  0  0  0  0  0  0  0
   15.1686  -18.8077   21.7419 N   0  0  0  0  0  0  0  0  0  0  0  0
   14.0976  -17.8949   21.4472 C   0  0  0  0  0  0  0  0  0  0  0  0
   12.9959  -17.9947   22.4568 C   0  0  0  0  0  0  0  0  0  0  0  0
   11.8908  -17.0635   22.1014 C   0  0  0  0  0  0  0  0  0  0  0  0
   10.7233  -17.0625   23.0609 C   0  0  2  0  0  0  0  0  0  0  0  0
    9.7840  -16.0845   22.5206 N   0  0  0  0  0  0  0  0  0  0  0  0
   11.1433  -16.6748   24.4151 C   0  0  0  0  0  0  0  0  0  0  0  0
   11.9999  -17.2949   25.0874 O   0  0  0  0  0  0  0  0  0  0  0  0
   10.5781  -15.5601   25.0141 O   0  0  0  0  0  0  0  0  0  0  0  0
  2  3  1  0
  2  1  1  6
  4  5  1  0
  4  3  1  0
  5  6  1  0
  6  7  1  0
  8  9  2  0
  8  2  1  0
 10  8  1  0
 11 10  1  0
 11 12  1  1
 13 12  1  0
 14 15  2  0
 14 11  1  0
 17 16  1  0
 18 17  2  0
 19 17  1  0
 20 19  1  0
 21 20  1  0
 21 22  1  0
 23 22  1  6
 23 24  1  0
 24 14  1  0
 25 23  1  0
 26 25  2  0
 27 25  1  0
M  END
$$$$
