KCR.pdb
     RDKit          3D

 27 26  0  0  1  0  0  0  0  0999 V2000
    7.0849  -20.6183   18.4258 N   0  0  0  0  0  0  0  0  0  0  0  0
    7.6379  -19.3730   18.8322 C   0  0  1  0  0  0  0  0  0  0  0  0
    7.4357  -18.2741   17.8668 C   0  0  0  0  0  0  0  0  0  0  0  0
    8.0556  -18.4070   16.5147 C   0  0  0  0  0  0  0  0  0  0  0  0
    7.9964  -19.8013   16.0163 C   0  0  0  0  0  0  0  0  0  0  0  0
    8.4408  -19.9167   14.5628 C   0  0  0  0  0  0  0  0  0  0  0  0
    8.2972  -21.2431   14.0456 N   0  0  0  0  0  0  0  0  0  0  0  0
    6.9956  -18.9704   20.1380 C   0  0  0  0  0  0  0  0  0  0  0  0
    5.7723  -19.1398   20.3558 O   0  0  0  0  0  0  0  0  0  0  0  0
    7.7675  -18.3820   21.1646 N   0  0  0  0  0  0  0  0  0  0  0  0
    7.2856  -18.0874   22.4990 C   0  0  1  0  0  0  0  0  0  0  0  0
    6.8375  -19.3860   23.1280 C   0  0  0  0  0  0  0  0  0  0  0  0
    6.3969  -19.0572   24.8658 S   0  0  0  0  0  0  0  0  0  0  0  0
    8.4472  -17.4961   23.2452 C   0  0  0  0  0  0  0  0  0  0  0  0
    9.1728  -18.1816   24.0173 O   0  0  0  0  0  0  0  0  0  0  0  0
    7.1380  -13.0575   19.1711 N   0  0  0  0  0  0  0  0  0  0  0  0
    8.3518  -12.8399   19.8877 C   0  0  0  0  0  0  0  0  0  0  0  0
    9.4457  -12.7537   19.2365 N   0  0  0  0  0  0  0  0  0  0  0  0
    8.3596  -12.7184   21.3084 N   0  0  0  0  0  0  0  0  0  0  0  0
    7.5973  -13.6248   22.1236 C   0  0  0  0  0  0  0  0  0  0  0  0
    7.6671  -13.2533   23.5728 C   0  0  0  0  0  0  0  0  0  0  0  0
    7.7005  -14.4802   24.4143 C   0  0  0  0  0  0  0  0  0  0  0  0
    8.9679  -15.2958   24.3039 C   0  0  2  0  0  0  0  0  0  0  0  0
    8.7882  -16.1243   23.1157 N   0  0  0  0  0  0  0  0  0  0  0  0
    9.1668  -16.1396   25.4909 C   0  0  0  0  0  0  0  0  0  0  0  0
    8.6658  -17.2795   25.6320 O   0  0  0  0  0  0  0  0  0  0  0  0
    9.9512  -15.6770   26.5357 O   0  0  0  0  0  0  0  0  0  0  0  0
  2  3  1  0
  2  1  1  6
  4  5  1  0
  4  3  1  0
  5  6  1  0
  6  7  1  0
  8  9  2  0
  8  2  1  0
 10  8  1  0
 11 10  1  0
 11 12  1  1
 13 12  1  0
 14 15  2  0
 14 11  1  0
 17 16  1  0
 18 17  2  0
 19 17  1  0
 20 19  1  0
 21 20  1  0
 21 22  1  0
 23 22  1  1
 23 24  1  0
 24 14  1  0
 25 23  1  0
 26 25  2  0
 27 25  1  0
M  END
$$$$
