KCR.pdb
     RDKit          3D

 27 26  0  0  1  0  0  0  0  0999 V2000
    7.0319  -17.5543   17.3871 N   0  0  0  0  0  0  0  0  0  0  0  0
    8.4399  -17.5627   17.1891 C   0  0  1  0  0  0  0  0  0  0  0  0
    8.8721  -17.0458   15.8750 C   0  0  0  0  0  0  0  0  0  0  0  0
    8.7857  -17.9624   14.6993 C   0  0  0  0  0  0  0  0  0  0  0  0
    9.1657  -17.2802   13.4399 C   0  0  0  0  0  0  0  0  0  0  0  0
    8.9374  -18.1568   12.2140 C   0  0  0  0  0  0  0  0  0  0  0  0
    9.2062  -17.4709   10.9874 N   0  0  0  0  0  0  0  0  0  0  0  0
    9.0762  -16.7076   18.2585 C   0  0  0  0  0  0  0  0  0  0  0  0
   10.3011  -16.7732   18.5191 O   0  0  0  0  0  0  0  0  0  0  0  0
    8.2962  -15.7972   19.0062 N   0  0  0  0  0  0  0  0  0  0  0  0
    8.7850  -15.0022   20.1145 C   0  0  1  0  0  0  0  0  0  0  0  0
    7.6982  -14.0263   20.5009 C   0  0  0  0  0  0  0  0  0  0  0  0
    7.6330  -12.7138   19.2379 S   0  0  0  0  0  0  0  0  0  0  0  0
    9.0701  -15.9659   21.2307 C   0  0  0  0  0  0  0  0  0  0  0  0
    8.3299  -16.9594   21.4700 O   0  0  0  0  0  0  0  0  0  0  0  0
   16.3096  -21.0569   24.9464 N   0  0  0  0  0  0  0  0  0  0  0  0
   15.7920  -19.9682   24.1843 C   0  0  0  0  0  0  0  0  0  0  0  0
   16.5836  -19.3133   23.4276 N   0  0  0  0  0  0  0  0  0  0  0  0
   14.4149  -19.6049   24.2556 N   0  0  0  0  0  0  0  0  0  0  0  0
   13.9061  -18.5112   23.4733 C   0  0  0  0  0  0  0  0  0  0  0  0
   12.4605  -18.2510   23.7656 C   0  0  0  0  0  0  0  0  0  0  0  0
   11.9491  -17.1631   22.8883 C   0  0  0  0  0  0  0  0  0  0  0  0
   10.4977  -16.8002   23.1013 C   0  0  2  0  0  0  0  0  0  0  0  0
   10.1976  -15.8038   22.0776 N   0  0  0  0  0  0  0  0  0  0  0  0
   10.2772  -16.2390   24.4418 C   0  0  0  0  0  0  0  0  0  0  0  0
   10.1063  -15.0189   24.6711 O   0  0  0  0  0  0  0  0  0  0  0  0
   10.2502  -17.0827   25.5410 O   0  0  0  0  0  0  0  0  0  0  0  0
  2  3  1  0
  2  1  1  6
  4  5  1  0
  4  3  1  0
  5  6  1  0
  6  7  1  0
  8  9  2  0
  8  2  1  0
 10  8  1  0
 11 10  1  0
 11 12  1  1
 13 12  1  0
 14 15  2  0
 14 11  1  0
 17 16  1  0
 18 17  2  0
 19 17  1  0
 20 19  1  0
 21 20  1  0
 21 22  1  0
 23 22  1  1
 23 24  1  0
 24 14  1  0
 25 23  1  0
 26 25  2  0
 27 25  1  0
M  END
$$$$
