KCR.pdb
     RDKit          3D

 27 26  0  0  1  0  0  0  0  0999 V2000
    8.0517  -14.3140   20.0271 N   0  0  0  0  0  0  0  0  0  0  0  0
    7.2788  -14.7732   21.1286 C   0  0  1  0  0  0  0  0  0  0  0  0
    7.0268  -16.2283   21.1299 C   0  0  0  0  0  0  0  0  0  0  0  0
    6.9346  -16.9240   19.8118 C   0  0  0  0  0  0  0  0  0  0  0  0
    6.4808  -18.3269   19.9599 C   0  0  0  0  0  0  0  0  0  0  0  0
    6.4812  -19.0794   18.6343 C   0  0  0  0  0  0  0  0  0  0  0  0
    6.0037  -20.4222   18.7619 N   0  0  0  0  0  0  0  0  0  0  0  0
    8.0117  -14.4261   22.4022 C   0  0  0  0  0  0  0  0  0  0  0  0
    9.2625  -14.4703   22.4811 O   0  0  0  0  0  0  0  0  0  0  0  0
    7.2968  -14.0371   23.5570 N   0  0  0  0  0  0  0  0  0  0  0  0
    7.8995  -13.7005   24.8309 C   0  0  1  0  0  0  0  0  0  0  0  0
    6.8596  -12.9863   25.6624 C   0  0  0  0  0  0  0  0  0  0  0  0
    7.5887  -12.6104   27.2900 S   0  0  0  0  0  0  0  0  0  0  0  0
    8.2996  -15.0023   25.4645 C   0  0  0  0  0  0  0  0  0  0  0  0
    7.5353  -16.0061   25.4845 O   0  0  0  0  0  0  0  0  0  0  0  0
   15.3799  -17.6752   23.3705 N   0  0  0  0  0  0  0  0  0  0  0  0
   14.8241  -16.3980   23.6769 C   0  0  0  0  0  0  0  0  0  0  0  0
   15.5644  -15.3634   23.5787 N   0  0  0  0  0  0  0  0  0  0  0  0
   13.4653  -16.2627   24.0875 N   0  0  0  0  0  0  0  0  0  0  0  0
   12.5993  -17.4093   24.1377 C   0  0  0  0  0  0  0  0  0  0  0  0
   11.2307  -17.0446   24.6243 C   0  0  0  0  0  0  0  0  0  0  0  0
   11.2534  -16.8217   26.0955 C   0  0  0  0  0  0  0  0  0  0  0  0
    9.9247  -16.4366   26.7036 C   0  0  2  0  0  0  0  0  0  0  0  0
    9.5697  -15.1672   26.0764 N   0  0  0  0  0  0  0  0  0  0  0  0
   10.0291  -16.2758   28.1609 C   0  0  0  0  0  0  0  0  0  0  0  0
    9.9077  -15.1792   28.7552 O   0  0  0  0  0  0  0  0  0  0  0  0
   10.2756  -17.3840   28.9558 O   0  0  0  0  0  0  0  0  0  0  0  0
  2  3  1  0
  2  1  1  6
  4  5  1  0
  4  3  1  0
  5  6  1  0
  6  7  1  0
  8  9  2  0
  8  2  1  0
 10  8  1  0
 11 10  1  0
 11 12  1  1
 13 12  1  0
 14 15  2  0
 14 11  1  0
 17 16  1  0
 18 17  2  0
 19 17  1  0
 20 19  1  0
 21 20  1  0
 21 22  1  0
 23 22  1  6
 23 24  1  0
 24 14  1  0
 25 23  1  0
 26 25  2  0
 27 25  1  0
M  END
$$$$
