KCR.pdb
     RDKit          3D

 27 26  0  0  1  0  0  0  0  0999 V2000
    7.7713  -12.1974   20.1659 N   0  0  0  0  0  0  0  0  0  0  0  0
    7.0370  -12.8339   21.2038 C   0  0  1  0  0  0  0  0  0  0  0  0
    6.5173  -14.1699   20.8495 C   0  0  0  0  0  0  0  0  0  0  0  0
    7.4284  -15.1065   20.1266 C   0  0  0  0  0  0  0  0  0  0  0  0
    6.7859  -16.4186   19.8787 C   0  0  0  0  0  0  0  0  0  0  0  0
    7.7334  -17.4122   19.2166 C   0  0  0  0  0  0  0  0  0  0  0  0
    7.1251  -18.6872   18.9890 N   0  0  0  0  0  0  0  0  0  0  0  0
    7.9427  -12.9888   22.4019 C   0  0  0  0  0  0  0  0  0  0  0  0
    9.1908  -13.0340   22.2888 O   0  0  0  0  0  0  0  0  0  0  0  0
    7.3996  -13.0894   23.7023 N   0  0  0  0  0  0  0  0  0  0  0  0
    8.1699  -13.3270   24.9062 C   0  0  1  0  0  0  0  0  0  0  0  0
    7.6711  -12.3788   25.9715 C   0  0  0  0  0  0  0  0  0  0  0  0
    5.8512  -12.3282   25.8851 S   0  0  0  0  0  0  0  0  0  0  0  0
    7.9180  -14.7566   25.2920 C   0  0  0  0  0  0  0  0  0  0  0  0
    7.0204  -15.4550   24.7453 O   0  0  0  0  0  0  0  0  0  0  0  0
   13.2805  -19.9487   22.8583 N   0  0  0  0  0  0  0  0  0  0  0  0
   12.2770  -19.3249   22.0595 C   0  0  0  0  0  0  0  0  0  0  0  0
   11.8280  -19.9444   21.0383 N   0  0  0  0  0  0  0  0  0  0  0  0
   11.7733  -18.0308   22.3833 N   0  0  0  0  0  0  0  0  0  0  0  0
   12.1247  -17.3998   23.6265 C   0  0  0  0  0  0  0  0  0  0  0  0
   11.1342  -17.7169   24.7041 C   0  0  0  0  0  0  0  0  0  0  0  0
   10.2741  -16.5325   24.9728 C   0  0  0  0  0  0  0  0  0  0  0  0
    9.2472  -16.7237   26.0648 C   0  0  2  0  0  0  0  0  0  0  0  0
    8.6859  -15.3969   26.2996 N   0  0  0  0  0  0  0  0  0  0  0  0
    9.8630  -17.2437   27.2939 C   0  0  0  0  0  0  0  0  0  0  0  0
   10.4324  -16.5269   28.1496 O   0  0  0  0  0  0  0  0  0  0  0  0
    9.8290  -18.6048   27.5535 O   0  0  0  0  0  0  0  0  0  0  0  0
  2  3  1  0
  2  1  1  6
  4  5  1  0
  4  3  1  0
  5  6  1  0
  6  7  1  0
  8  9  2  0
  8  2  1  0
 10  8  1  0
 11 10  1  0
 11 12  1  1
 13 12  1  0
 14 15  2  0
 14 11  1  0
 17 16  1  0
 18 17  2  0
 19 17  1  0
 20 19  1  0
 21 20  1  0
 21 22  1  0
 23 22  1  6
 23 24  1  0
 24 14  1  0
 25 23  1  0
 26 25  2  0
 27 25  1  0
M  END
$$$$
