KCR.pdb
     RDKit          3D

 27 26  0  0  1  0  0  0  0  0999 V2000
    5.4177  -18.6003   16.8248 N   0  0  0  0  0  0  0  0  0  0  0  0
    6.4521  -18.8945   17.7549 C   0  0  1  0  0  0  0  0  0  0  0  0
    7.5073  -19.7839   17.2293 C   0  0  0  0  0  0  0  0  0  0  0  0
    7.8036  -19.7304   15.7666 C   0  0  0  0  0  0  0  0  0  0  0  0
    8.7347  -20.8067   15.3535 C   0  0  0  0  0  0  0  0  0  0  0  0
    9.0133  -20.7886   13.8550 C   0  0  0  0  0  0  0  0  0  0  0  0
    9.8613  -21.8633   13.4384 N   0  0  0  0  0  0  0  0  0  0  0  0
    7.1013  -17.5965   18.1713 C   0  0  0  0  0  0  0  0  0  0  0  0
    7.3972  -16.7058   17.3397 O   0  0  0  0  0  0  0  0  0  0  0  0
    7.3982  -17.3475   19.5300 N   0  0  0  0  0  0  0  0  0  0  0  0
    8.0341  -16.1467   20.0330 C   0  0  1  0  0  0  0  0  0  0  0  0
    7.1194  -15.5359   21.0690 C   0  0  0  0  0  0  0  0  0  0  0  0
    6.9810  -16.6985   22.4658 S   0  0  0  0  0  0  0  0  0  0  0  0
    9.3332  -16.5838   20.6472 C   0  0  0  0  0  0  0  0  0  0  0  0
    9.6307  -17.8002   20.8024 O   0  0  0  0  0  0  0  0  0  0  0  0
   18.2685  -14.0638   18.4008 N   0  0  0  0  0  0  0  0  0  0  0  0
   16.8465  -13.9571   18.3740 C   0  0  0  0  0  0  0  0  0  0  0  0
   16.2988  -13.2365   17.4746 N   0  0  0  0  0  0  0  0  0  0  0  0
   16.0362  -14.6382   19.3293 N   0  0  0  0  0  0  0  0  0  0  0  0
   14.6097  -14.4583   19.3385 C   0  0  0  0  0  0  0  0  0  0  0  0
   13.9510  -15.3340   20.3594 C   0  0  0  0  0  0  0  0  0  0  0  0
   12.4748  -15.1515   20.3137 C   0  0  0  0  0  0  0  0  0  0  0  0
   11.6924  -16.0379   21.2549 C   0  0  2  0  0  0  0  0  0  0  0  0
   10.2982  -15.6399   21.0860 N   0  0  0  0  0  0  0  0  0  0  0  0
   12.1149  -15.8431   22.6492 C   0  0  0  0  0  0  0  0  0  0  0  0
   11.5002  -15.1275   23.4740 O   0  0  0  0  0  0  0  0  0  0  0  0
   13.2577  -16.4755   23.1127 O   0  0  0  0  0  0  0  0  0  0  0  0
  2  3  1  0
  2  1  1  6
  4  5  1  0
  4  3  1  0
  5  6  1  0
  6  7  1  0
  8  9  2  0
  8  2  1  0
 10  8  1  0
 11 10  1  0
 11 12  1  1
 13 12  1  0
 14 15  2  0
 14 11  1  0
 17 16  1  0
 18 17  2  0
 19 17  1  0
 20 19  1  0
 21 20  1  0
 21 22  1  0
 23 22  1  6
 23 24  1  0
 24 14  1  0
 25 23  1  0
 26 25  2  0
 27 25  1  0
M  END
$$$$
