ASP.pdb
     RDKit          3D

 19 19  0  0  1  0  0  0  0  0999 V2000
   10.9746  -17.2495   15.1018 C   0  0  0  0  0  0  0  0  0  0  0  0
    9.5193  -16.9970   14.7872 C   0  0  2  0  0  0  0  0  0  0  0  0
    9.3871  -16.2015   13.5988 N   0  0  0  0  0  0  0  0  0  0  0  0
    8.8554  -16.3837   15.9661 C   0  0  0  0  0  0  0  0  0  0  0  0
    8.7722  -15.1371   16.0035 O   0  0  0  0  0  0  0  0  0  0  0  0
    6.0918  -17.2001   19.9480 O   0  0  0  0  0  0  0  0  0  0  0  0
    6.6897  -17.5913   18.7784 C   0  0  0  0  0  0  0  0  0  0  0  0
    7.5969  -16.5516   18.1677 C   0  0  2  0  0  0  0  0  0  0  0  0
    8.3207  -17.1236   17.0319 N   0  0  0  0  0  0  0  0  0  0  0  0
    8.5320  -15.9093   19.0921 C   0  0  0  0  0  0  0  0  0  0  0  0
    9.6258  -16.5618   19.2926 O   0  0  0  0  0  0  0  0  0  0  0  0
    8.3964  -14.6953   19.7777 N   0  0  0  0  0  0  0  0  0  0  0  0
    7.3288  -13.7266   19.4077 C   0  0  0  0  0  0  0  0  0  0  0  0
    8.0276  -12.4033   19.6623 C   0  0  0  0  0  0  0  0  0  0  0  0
    8.5270  -12.6941   21.0580 C   0  0  0  0  0  0  0  0  0  0  0  0
    9.1323  -14.0962   20.8720 C   0  0  1  0  0  0  0  0  0  0  0  0
    9.0331  -14.8381   22.1289 C   0  0  0  0  0  0  0  0  0  0  0  0
    8.1084  -15.6608   22.2962 O   0  0  0  0  0  0  0  0  0  0  0  0
    9.9450  -14.6501   23.1409 O   0  0  0  0  0  0  0  0  0  0  0  0
  2  1  1  1
  2  3  1  0
  4  5  2  0
  4  2  1  0
  6  7  1  0
  8  7  1  1
  8  9  1  0
  9  4  1  0
 10 12  1  0
 10  8  1  0
 11 10  2  0
 12 16  1  0
 13 12  1  0
 13 14  1  0
 14 15  1  0
 16 15  1  0
 16 17  1  1
 17 19  1  0
 18 17  2  0
M  END
$$$$
