ASP.pdb
     RDKit          3D

 19 19  0  0  1  0  0  0  0  0999 V2000
   11.0861  -17.7635   15.4197 C   0  0  0  0  0  0  0  0  0  0  0  0
    9.6709  -17.5019   14.9622 C   0  0  2  0  0  0  0  0  0  0  0  0
    9.6615  -16.9027   13.6570 N   0  0  0  0  0  0  0  0  0  0  0  0
    8.9647  -16.6790   15.9775 C   0  0  0  0  0  0  0  0  0  0  0  0
    8.8912  -15.4471   15.7788 O   0  0  0  0  0  0  0  0  0  0  0  0
    6.9697  -18.3373   19.4660 O   0  0  0  0  0  0  0  0  0  0  0  0
    6.5096  -17.3018   18.6950 C   0  0  0  0  0  0  0  0  0  0  0  0
    7.5964  -16.4369   18.1054 C   0  0  2  0  0  0  0  0  0  0  0  0
    8.3801  -17.2068   17.1389 N   0  0  0  0  0  0  0  0  0  0  0  0
    8.4819  -15.7893   19.0739 C   0  0  0  0  0  0  0  0  0  0  0  0
    9.5840  -16.4187   19.3017 O   0  0  0  0  0  0  0  0  0  0  0  0
    8.2921  -14.5920   19.7757 N   0  0  0  0  0  0  0  0  0  0  0  0
    7.1162  -13.7235   19.4962 C   0  0  0  0  0  0  0  0  0  0  0  0
    7.7112  -12.3425   19.7040 C   0  0  0  0  0  0  0  0  0  0  0  0
    8.3423  -12.5863   21.0547 C   0  0  0  0  0  0  0  0  0  0  0  0
    9.0546  -13.9284   20.8131 C   0  0  1  0  0  0  0  0  0  0  0  0
    9.1210  -14.6754   22.0692 C   0  0  0  0  0  0  0  0  0  0  0  0
    8.2878  -15.5757   22.3042 O   0  0  0  0  0  0  0  0  0  0  0  0
   10.0907  -14.4077   23.0067 O   0  0  0  0  0  0  0  0  0  0  0  0
  2  1  1  1
  2  3  1  0
  4  5  2  0
  4  2  1  0
  6  7  1  0
  8  7  1  1
  8  9  1  0
  9  4  1  0
 10 12  1  0
 10  8  1  0
 11 10  2  0
 12 16  1  0
 13 12  1  0
 13 14  1  0
 14 15  1  0
 16 15  1  0
 16 17  1  1
 17 19  1  0
 18 17  2  0
M  END
$$$$
