ASP.pdb
     RDKit          3D

 19 19  0  0  1  0  0  0  0  0999 V2000
    8.4489  -12.5492   19.4905 C   0  0  0  0  0  0  0  0  0  0  0  0
    8.4071  -14.0461   19.6862 C   0  0  2  0  0  0  0  0  0  0  0  0
    7.9070  -14.6986   18.5086 N   0  0  0  0  0  0  0  0  0  0  0  0
    7.6145  -14.3663   20.9011 C   0  0  0  0  0  0  0  0  0  0  0  0
    6.4321  -14.7392   20.7425 O   0  0  0  0  0  0  0  0  0  0  0  0
    8.2083  -16.9675   23.5330 O   0  0  0  0  0  0  0  0  0  0  0  0
    7.1090  -16.1686   23.3550 C   0  0  0  0  0  0  0  0  0  0  0  0
    7.4013  -14.6893   23.4129 C   0  0  2  0  0  0  0  0  0  0  0  0
    8.1187  -14.2731   22.2074 N   0  0  0  0  0  0  0  0  0  0  0  0
    8.1124  -14.2334   24.6079 C   0  0  0  0  0  0  0  0  0  0  0  0
    9.3819  -14.4589   24.5987 O   0  0  0  0  0  0  0  0  0  0  0  0
    7.6019  -13.5929   25.7442 N   0  0  0  0  0  0  0  0  0  0  0  0
    6.1838  -13.1439   25.7929 C   0  0  0  0  0  0  0  0  0  0  0  0
    6.3031  -11.8727   26.6140 C   0  0  0  0  0  0  0  0  0  0  0  0
    7.1021  -12.4391   27.7640 C   0  0  0  0  0  0  0  0  0  0  0  0
    8.1938  -13.2203   27.0125 C   0  0  1  0  0  0  0  0  0  0  0  0
    8.6210  -14.3598   27.8244 C   0  0  0  0  0  0  0  0  0  0  0  0
    8.1546  -15.4962   27.5986 O   0  0  0  0  0  0  0  0  0  0  0  0
    9.5352  -14.2077   28.8403 O   0  0  0  0  0  0  0  0  0  0  0  0
  2  1  1  6
  2  3  1  0
  4  5  2  0
  4  2  1  0
  6  7  1  0
  8  7  1  1
  8  9  1  0
  9  4  1  0
 10 12  1  0
 10  8  1  0
 11 10  2  0
 12 16  1  0
 13 12  1  0
 13 14  1  0
 14 15  1  0
 16 15  1  0
 16 17  1  1
 17 19  1  0
 18 17  2  0
M  END
$$$$
