ASP.pdb
     RDKit          3D

 19 19  0  0  1  0  0  0  0  0999 V2000
   10.4745  -13.3617   19.9064 C   0  0  0  0  0  0  0  0  0  0  0  0
    9.0649  -13.8004   19.5886 C   0  0  2  0  0  0  0  0  0  0  0  0
    8.5354  -13.0485   18.4854 N   0  0  0  0  0  0  0  0  0  0  0  0
    8.2253  -13.6975   20.8097 C   0  0  0  0  0  0  0  0  0  0  0  0
    7.6402  -12.6139   21.0237 O   0  0  0  0  0  0  0  0  0  0  0  0
    7.1564  -17.0756   23.2951 O   0  0  0  0  0  0  0  0  0  0  0  0
    6.4012  -15.9614   23.0370 C   0  0  0  0  0  0  0  0  0  0  0  0
    7.1986  -14.6864   22.9138 C   0  0  2  0  0  0  0  0  0  0  0  0
    8.0554  -14.7441   21.7291 N   0  0  0  0  0  0  0  0  0  0  0  0
    7.9867  -14.3193   24.0909 C   0  0  0  0  0  0  0  0  0  0  0  0
    9.2186  -14.6982   24.0546 O   0  0  0  0  0  0  0  0  0  0  0  0
    7.5838  -13.6198   25.2357 N   0  0  0  0  0  0  0  0  0  0  0  0
    6.3038  -12.8606   25.2534 C   0  0  0  0  0  0  0  0  0  0  0  0
    6.6710  -11.6802   26.1344 C   0  0  0  0  0  0  0  0  0  0  0  0
    7.2677  -12.4547   27.2860 C   0  0  0  0  0  0  0  0  0  0  0  0
    8.1867  -13.4375   26.5400 C   0  0  1  0  0  0  0  0  0  0  0  0
    8.3071  -14.6725   27.3148 C   0  0  0  0  0  0  0  0  0  0  0  0
    7.5801  -15.6515   27.0447 O   0  0  0  0  0  0  0  0  0  0  0  0
    9.2127  -14.7825   28.3437 O   0  0  0  0  0  0  0  0  0  0  0  0
  2  1  1  1
  2  3  1  0
  4  5  2  0
  4  2  1  0
  6  7  1  0
  8  7  1  1
  8  9  1  0
  9  4  1  0
 10 12  1  0
 10  8  1  0
 11 10  2  0
 12 16  1  0
 13 12  1  0
 13 14  1  0
 14 15  1  0
 16 15  1  0
 16 17  1  1
 17 19  1  0
 18 17  2  0
M  END
$$$$
