ASP.pdb
     RDKit          3D

 19 19  0  0  1  0  0  0  0  0999 V2000
   10.4479  -13.2975   19.8617 C   0  0  0  0  0  0  0  0  0  0  0  0
    9.0583  -13.8084   19.5642 C   0  0  2  0  0  0  0  0  0  0  0  0
    8.4990  -13.1281   18.4297 N   0  0  0  0  0  0  0  0  0  0  0  0
    8.2138  -13.6878   20.7803 C   0  0  0  0  0  0  0  0  0  0  0  0
    7.5572  -12.6348   20.9304 O   0  0  0  0  0  0  0  0  0  0  0  0
    7.1273  -17.0173   23.2930 O   0  0  0  0  0  0  0  0  0  0  0  0
    6.4051  -15.8867   23.0129 C   0  0  0  0  0  0  0  0  0  0  0  0
    7.2321  -14.6274   22.9280 C   0  0  2  0  0  0  0  0  0  0  0  0
    8.1145  -14.6855   21.7623 N   0  0  0  0  0  0  0  0  0  0  0  0
    8.0005  -14.2956   24.1284 C   0  0  0  0  0  0  0  0  0  0  0  0
    9.2337  -14.6711   24.1001 O   0  0  0  0  0  0  0  0  0  0  0  0
    7.5779  -13.6325   25.2877 N   0  0  0  0  0  0  0  0  0  0  0  0
    6.2677  -12.9277   25.3272 C   0  0  0  0  0  0  0  0  0  0  0  0
    6.5925  -11.7478   26.2255 C   0  0  0  0  0  0  0  0  0  0  0  0
    7.2297  -12.5157   27.3595 C   0  0  0  0  0  0  0  0  0  0  0  0
    8.1829  -13.4469   26.5905 C   0  0  1  0  0  0  0  0  0  0  0  0
    8.3604  -14.6886   27.3435 C   0  0  0  0  0  0  0  0  0  0  0  0
    7.6890  -15.6991   27.0470 O   0  0  0  0  0  0  0  0  0  0  0  0
    9.2600  -14.7704   28.3803 O   0  0  0  0  0  0  0  0  0  0  0  0
  2  1  1  1
  2  3  1  0
  4  5  2  0
  4  2  1  0
  6  7  1  0
  8  7  1  1
  8  9  1  0
  9  4  1  0
 10 12  1  0
 10  8  1  0
 11 10  2  0
 12 16  1  0
 13 12  1  0
 13 14  1  0
 14 15  1  0
 16 15  1  0
 16 17  1  1
 17 19  1  0
 18 17  2  0
M  END
$$$$
