ASP.pdb
     RDKit          3D

 19 19  0  0  1  0  0  0  0  0999 V2000
    9.9841  -12.9634   19.9455 C   0  0  0  0  0  0  0  0  0  0  0  0
    8.7608  -13.8159   19.7060 C   0  0  2  0  0  0  0  0  0  0  0  0
    8.0566  -13.3760   18.5341 N   0  0  0  0  0  0  0  0  0  0  0  0
    7.9087  -13.8149   20.9227 C   0  0  0  0  0  0  0  0  0  0  0  0
    7.0715  -12.8948   21.0457 O   0  0  0  0  0  0  0  0  0  0  0  0
    7.3987  -17.2053   23.5175 O   0  0  0  0  0  0  0  0  0  0  0  0
    6.5087  -16.1983   23.2483 C   0  0  0  0  0  0  0  0  0  0  0  0
    7.1375  -14.8326   23.1201 C   0  0  2  0  0  0  0  0  0  0  0  0
    7.9927  -14.7844   21.9338 N   0  0  0  0  0  0  0  0  0  0  0  0
    7.8744  -14.3650   24.2947 C   0  0  0  0  0  0  0  0  0  0  0  0
    9.1362  -14.6300   24.2803 O   0  0  0  0  0  0  0  0  0  0  0  0
    7.3956  -13.6765   25.4167 N   0  0  0  0  0  0  0  0  0  0  0  0
    5.9908  -13.1876   25.4680 C   0  0  0  0  0  0  0  0  0  0  0  0
    6.1545  -11.8958   26.2483 C   0  0  0  0  0  0  0  0  0  0  0  0
    6.9521  -12.4488   27.4058 C   0  0  0  0  0  0  0  0  0  0  0  0
    8.0130  -13.2819   26.6661 C   0  0  1  0  0  0  0  0  0  0  0  0
    8.4193  -14.4075   27.5075 C   0  0  0  0  0  0  0  0  0  0  0  0
    9.1950  -14.2200   28.4682 O   0  0  0  0  0  0  0  0  0  0  0  0
    7.9610  -15.6809   27.2637 O   0  0  0  0  0  0  0  0  0  0  0  0
  2  1  1  1
  2  3  1  0
  4  5  2  0
  4  2  1  0
  6  7  1  0
  8  7  1  1
  8  9  1  0
  9  4  1  0
 10 12  1  0
 10  8  1  0
 11 10  2  0
 12 16  1  0
 13 12  1  0
 13 14  1  0
 14 15  1  0
 16 15  1  0
 16 17  1  1
 17 19  1  0
 18 17  2  0
M  END
$$$$
