ASP.pdb
     RDKit          3D

 19 19  0  0  1  0  0  0  0  0999 V2000
    8.1658  -12.5418   19.5786 C   0  0  0  0  0  0  0  0  0  0  0  0
    8.1363  -14.0468   19.6997 C   0  0  2  0  0  0  0  0  0  0  0  0
    7.5304  -14.6380   18.5395 N   0  0  0  0  0  0  0  0  0  0  0  0
    7.4545  -14.4303   20.9625 C   0  0  0  0  0  0  0  0  0  0  0  0
    6.2193  -14.6175   20.9229 O   0  0  0  0  0  0  0  0  0  0  0  0
    6.8663  -17.0333   24.6260 O   0  0  0  0  0  0  0  0  0  0  0  0
    7.2823  -16.5145   23.4276 C   0  0  0  0  0  0  0  0  0  0  0  0
    7.4813  -15.0188   23.4348 C   0  0  2  0  0  0  0  0  0  0  0  0
    8.1182  -14.5924   22.1884 N   0  0  0  0  0  0  0  0  0  0  0  0
    8.2123  -14.4854   24.5849 C   0  0  0  0  0  0  0  0  0  0  0  0
    9.4715  -14.7620   24.5989 O   0  0  0  0  0  0  0  0  0  0  0  0
    7.7300  -13.7242   25.6573 N   0  0  0  0  0  0  0  0  0  0  0  0
    6.3677  -13.1263   25.6152 C   0  0  0  0  0  0  0  0  0  0  0  0
    6.5912  -11.8254   26.3648 C   0  0  0  0  0  0  0  0  0  0  0  0
    7.2792  -12.3989   27.5812 C   0  0  0  0  0  0  0  0  0  0  0  0
    8.3088  -13.3365   26.9272 C   0  0  1  0  0  0  0  0  0  0  0  0
    8.5788  -14.4610   27.8230 C   0  0  0  0  0  0  0  0  0  0  0  0
    7.9815  -15.5456   27.6600 O   0  0  0  0  0  0  0  0  0  0  0  0
    9.4860  -14.3511   28.8507 O   0  0  0  0  0  0  0  0  0  0  0  0
  2  1  1  6
  2  3  1  0
  4  5  2  0
  4  2  1  0
  6  7  1  0
  8  7  1  1
  8  9  1  0
  9  4  1  0
 10 12  1  0
 10  8  1  0
 11 10  2  0
 12 16  1  0
 13 12  1  0
 13 14  1  0
 14 15  1  0
 16 15  1  0
 16 17  1  1
 17 19  1  0
 18 17  2  0
M  END
$$$$
