ASP.pdb
     RDKit          3D

 19 19  0  0  1  0  0  0  0  0999 V2000
   11.9846  -16.4662   21.3981 C   0  0  0  0  0  0  0  0  0  0  0  0
   10.5643  -16.6614   20.9237 C   0  0  2  0  0  0  0  0  0  0  0  0
   10.4608  -16.4106   19.5133 N   0  0  0  0  0  0  0  0  0  0  0  0
    9.6506  -15.8094   21.7273 C   0  0  0  0  0  0  0  0  0  0  0  0
    9.6953  -14.5738   21.5433 O   0  0  0  0  0  0  0  0  0  0  0  0
    6.5313  -17.3800   24.3290 O   0  0  0  0  0  0  0  0  0  0  0  0
    6.4614  -16.2800   23.5145 C   0  0  0  0  0  0  0  0  0  0  0  0
    7.7557  -15.5135   23.3948 C   0  0  2  0  0  0  0  0  0  0  0  0
    8.7468  -16.3137   22.6751 N   0  0  0  0  0  0  0  0  0  0  0  0
    8.3178  -15.0247   24.6544 C   0  0  0  0  0  0  0  0  0  0  0  0
    9.4410  -15.5626   24.9883 O   0  0  0  0  0  0  0  0  0  0  0  0
    7.8030  -14.0623   25.5324 N   0  0  0  0  0  0  0  0  0  0  0  0
    6.5830  -13.2856   25.1809 C   0  0  0  0  0  0  0  0  0  0  0  0
    6.8960  -11.9403   25.8104 C   0  0  0  0  0  0  0  0  0  0  0  0
    7.2760  -12.4350   27.1862 C   0  0  0  0  0  0  0  0  0  0  0  0
    8.2273  -13.5919   26.8349 C   0  0  1  0  0  0  0  0  0  0  0  0
    8.1607  -14.6102   27.8831 C   0  0  0  0  0  0  0  0  0  0  0  0
    7.4185  -15.6045   27.7403 O   0  0  0  0  0  0  0  0  0  0  0  0
    8.9052  -14.4978   29.0337 O   0  0  0  0  0  0  0  0  0  0  0  0
  2  1  1  1
  2  3  1  0
  4  5  2  0
  4  2  1  0
  6  7  1  0
  8  7  1  1
  8  9  1  0
  9  4  1  0
 10 12  1  0
 10  8  1  0
 11 10  2  0
 12 16  1  0
 13 12  1  0
 13 14  1  0
 14 15  1  0
 16 15  1  0
 16 17  1  1
 17 19  1  0
 18 17  2  0
M  END
$$$$
