ASP.pdb
     RDKit          3D

 19 19  0  0  1  0  0  0  0  0999 V2000
   10.9255  -16.3591   20.2524 C   0  0  0  0  0  0  0  0  0  0  0  0
    9.8489  -17.1948   20.9029 C   0  0  2  0  0  0  0  0  0  0  0  0
    8.9888  -17.7770   19.9109 N   0  0  0  0  0  0  0  0  0  0  0  0
    9.1091  -16.3696   21.8920 C   0  0  0  0  0  0  0  0  0  0  0  0
    8.5437  -15.3342   21.4787 O   0  0  0  0  0  0  0  0  0  0  0  0
    7.3584  -18.0411   25.2236 O   0  0  0  0  0  0  0  0  0  0  0  0
    6.9972  -16.8696   24.6108 C   0  0  0  0  0  0  0  0  0  0  0  0
    8.1593  -15.9907   24.2187 C   0  0  2  0  0  0  0  0  0  0  0  0
    9.0118  -16.6879   23.2553 N   0  0  0  0  0  0  0  0  0  0  0  0
    8.9640  -15.4773   25.3279 C   0  0  0  0  0  0  0  0  0  0  0  0
   10.1378  -16.0011   25.4301 O   0  0  0  0  0  0  0  0  0  0  0  0
    8.6311  -14.5048   26.2795 N   0  0  0  0  0  0  0  0  0  0  0  0
    7.3670  -13.7278   26.1643 C   0  0  0  0  0  0  0  0  0  0  0  0
    7.7982  -12.3773   26.7073 C   0  0  0  0  0  0  0  0  0  0  0  0
    8.4381  -12.8599   27.9877 C   0  0  0  0  0  0  0  0  0  0  0  0
    9.3015  -14.0231   27.4696 C   0  0  1  0  0  0  0  0  0  0  0  0
    9.4389  -15.0310   28.5210 C   0  0  0  0  0  0  0  0  0  0  0  0
    8.7634  -16.0803   28.4712 O   0  0  0  0  0  0  0  0  0  0  0  0
   10.3050  -14.8489   29.5735 O   0  0  0  0  0  0  0  0  0  0  0  0
  2  1  1  6
  2  3  1  0
  4  5  2  0
  4  2  1  0
  6  7  1  0
  8  7  1  1
  8  9  1  0
  9  4  1  0
 10 12  1  0
 10  8  1  0
 11 10  2  0
 12 16  1  0
 13 12  1  0
 13 14  1  0
 14 15  1  0
 16 15  1  0
 16 17  1  1
 17 19  1  0
 18 17  2  0
M  END
$$$$
