ASP.pdb
     RDKit          3D

 19 19  0  0  1  0  0  0  0  0999 V2000
   11.4747  -16.9950   21.6527 C   0  0  0  0  0  0  0  0  0  0  0  0
   10.1050  -16.8648   21.0303 C   0  0  2  0  0  0  0  0  0  0  0  0
   10.2006  -16.3371   19.6979 N   0  0  0  0  0  0  0  0  0  0  0  0
    9.2346  -16.0452   21.9119 C   0  0  0  0  0  0  0  0  0  0  0  0
    9.0113  -14.8631   21.5724 O   0  0  0  0  0  0  0  0  0  0  0  0
    7.0285  -17.6854   25.2688 O   0  0  0  0  0  0  0  0  0  0  0  0
    6.5940  -16.7401   24.3766 C   0  0  0  0  0  0  0  0  0  0  0  0
    7.6705  -15.7964   23.8995 C   0  0  2  0  0  0  0  0  0  0  0  0
    8.6541  -16.5236   23.0966 N   0  0  0  0  0  0  0  0  0  0  0  0
    8.3421  -15.0251   24.9461 C   0  0  0  0  0  0  0  0  0  0  0  0
    9.5726  -15.3513   25.1507 O   0  0  0  0  0  0  0  0  0  0  0  0
    7.8307  -13.9931   25.7433 N   0  0  0  0  0  0  0  0  0  0  0  0
    6.5131  -13.3737   25.4346 C   0  0  0  0  0  0  0  0  0  0  0  0
    6.7598  -11.9325   25.8426 C   0  0  0  0  0  0  0  0  0  0  0  0
    7.3234  -12.1969   27.2189 C   0  0  0  0  0  0  0  0  0  0  0  0
    8.3393  -13.3119   26.9160 C   0  0  1  0  0  0  0  0  0  0  0  0
    8.4768  -14.1748   28.0893 C   0  0  0  0  0  0  0  0  0  0  0  0
    7.8642  -15.2620   28.1390 O   0  0  0  0  0  0  0  0  0  0  0  0
    9.2746  -13.8136   29.1495 O   0  0  0  0  0  0  0  0  0  0  0  0
  2  1  1  1
  2  3  1  0
  4  5  2  0
  4  2  1  0
  6  7  1  0
  8  7  1  1
  8  9  1  0
  9  4  1  0
 10 12  1  0
 10  8  1  0
 11 10  2  0
 12 16  1  0
 13 12  1  0
 13 14  1  0
 14 15  1  0
 16 15  1  0
 16 17  1  1
 17 19  1  0
 18 17  2  0
M  END
$$$$
