FNQ.pdb
     RDKit          3D

 29 29  0  0  1  0  0  0  0  0999 V2000
    9.8803  -15.7949   21.1425 N   0  0  0  0  0  0  0  0  0  0  0  0
    8.6064  -16.4834   21.2956 C   0  0  1  0  0  0  0  0  0  0  0  0
    7.5388  -15.7167   20.5582 C   0  0  0  0  0  0  0  0  0  0  0  0
    7.9268  -14.3678   20.1494 C   0  0  0  0  0  0  0  0  0  0  0  0
    8.2922  -14.1003   18.8562 C   0  0  0  0  0  0  0  0  0  0  0  0
    8.6504  -12.8158   18.5048 C   0  0  0  0  0  0  0  0  0  0  0  0
    8.6446  -11.7882   19.4504 C   0  0  0  0  0  0  0  0  0  0  0  0
    8.2746  -12.0676   20.7525 C   0  0  0  0  0  0  0  0  0  0  0  0
    7.9172  -13.3481   21.1039 C   0  0  0  0  0  0  0  0  0  0  0  0
    8.7361  -17.8884   20.8411 C   0  0  0  0  0  0  0  0  0  0  0  0
    7.7140  -18.5416   20.5822 O   0  0  0  0  0  0  0  0  0  0  0  0
   12.2927  -17.2505   16.9632 N   0  0  0  0  0  0  0  0  0  0  0  0
   10.9358  -17.3762   17.2402 C   0  0  0  0  0  0  0  0  0  0  0  0
   10.1472  -17.5584   16.2539 O   0  0  0  0  0  0  0  0  0  0  0  0
   10.2969  -17.3217   18.5651 C   0  0  0  0  0  0  0  0  0  0  0  0
   10.7915  -18.3598   19.5254 C   0  0  2  0  0  0  0  0  0  0  0  0
    9.9833  -18.5402   20.6826 N   0  0  0  0  0  0  0  0  0  0  0  0
   12.2258  -18.1410   19.8944 C   0  0  0  0  0  0  0  0  0  0  0  0
   13.0774  -17.9993   18.9888 O   0  0  0  0  0  0  0  0  0  0  0  0
   12.5933  -14.9765   18.1886 N   0  0  0  0  0  0  0  0  0  0  0  0
   13.2644  -14.2220   19.1846 C   0  0  0  0  0  0  0  0  0  0  0  0
   13.9808  -13.2378   18.8396 O   0  0  0  0  0  0  0  0  0  0  0  0
   13.1092  -14.5937   20.6022 C   0  0  0  0  0  0  0  0  0  0  0  0
   12.2690  -15.7642   20.9053 C   0  0  0  0  0  0  0  0  0  0  0  0
   12.8238  -16.7660   21.8604 C   0  0  2  0  0  0  0  0  0  0  0  0
   12.6606  -18.0875   21.2342 N   0  0  0  0  0  0  0  0  0  0  0  0
   12.2606  -16.7282   23.1851 C   0  0  0  0  0  0  0  0  0  0  0  0
   13.0864  -16.3881   24.2617 O   0  0  0  0  0  0  0  0  0  0  0  0
   11.0630  -16.9796   23.4699 O   0  0  0  0  0  0  0  0  0  0  0  0
  2  1  1  6
  2  3  1  0
  3  4  1  0
  4  5  2  0
  4  9  1  0
  5  6  1  0
  6  7  2  0
  8  7  1  0
  9  8  2  0
 10  2  1  0
 11 10  2  0
 13 12  1  0
 14 13  2  0
 15 13  1  0
 16 15  1  1
 16 17  1  0
 17 10  1  0
 18 16  1  0
 18 26  1  0
 19 18  2  0
 21 22  2  0
 21 20  1  0
 23 21  1  0
 24 23  1  0
 25 24  1  6
 25 26  1  0
 27 28  1  0
 27 25  1  0
 29 27  2  0
M  END
$$$$
