FNQ.pdb
     RDKit          3D

 29 29  0  0  1  0  0  0  0  0999 V2000
    5.6898  -17.3352   24.7826 N   0  0  0  0  0  0  0  0  0  0  0  0
    6.6740  -16.2764   24.6072 C   0  0  1  0  0  0  0  0  0  0  0  0
    7.0391  -15.7130   25.9565 C   0  0  0  0  0  0  0  0  0  0  0  0
    6.8946  -14.2629   26.0729 C   0  0  0  0  0  0  0  0  0  0  0  0
    7.8389  -13.4161   25.5546 C   0  0  0  0  0  0  0  0  0  0  0  0
    7.6696  -12.0533   25.6805 C   0  0  0  0  0  0  0  0  0  0  0  0
    6.5493  -11.5292   26.3288 C   0  0  0  0  0  0  0  0  0  0  0  0
    5.6021  -12.3912   26.8485 C   0  0  0  0  0  0  0  0  0  0  0  0
    5.7700  -13.7503   26.7235 C   0  0  0  0  0  0  0  0  0  0  0  0
    7.8415  -16.7945   23.8551 C   0  0  0  0  0  0  0  0  0  0  0  0
    8.2264  -17.9569   24.0529 O   0  0  0  0  0  0  0  0  0  0  0  0
   11.1832  -17.4153   19.2098 N   0  0  0  0  0  0  0  0  0  0  0  0
   11.1414  -16.4304   20.1906 C   0  0  0  0  0  0  0  0  0  0  0  0
   12.2489  -15.9075   20.5484 O   0  0  0  0  0  0  0  0  0  0  0  0
    9.9435  -15.9152   20.8733 C   0  0  0  0  0  0  0  0  0  0  0  0
    9.6898  -16.5351   22.2135 C   0  0  2  0  0  0  0  0  0  0  0  0
    8.5563  -16.0243   22.9057 N   0  0  0  0  0  0  0  0  0  0  0  0
   10.9104  -16.5112   23.0799 C   0  0  0  0  0  0  0  0  0  0  0  0
   11.1992  -15.4662   23.7043 O   0  0  0  0  0  0  0  0  0  0  0  0
   10.4557  -17.3943   28.0567 N   0  0  0  0  0  0  0  0  0  0  0  0
   10.7527  -18.6706   27.5138 C   0  0  0  0  0  0  0  0  0  0  0  0
   10.4649  -19.7089   28.1770 O   0  0  0  0  0  0  0  0  0  0  0  0
   11.3838  -18.7635   26.1853 C   0  0  0  0  0  0  0  0  0  0  0  0
   11.9003  -17.5179   25.5944 C   0  0  0  0  0  0  0  0  0  0  0  0
   12.7064  -17.6446   24.3463 C   0  0  2  0  0  0  0  0  0  0  0  0
   11.7566  -17.6296   23.2224 N   0  0  0  0  0  0  0  0  0  0  0  0
   13.5799  -18.7881   24.2936 C   0  0  0  0  0  0  0  0  0  0  0  0
   14.7026  -18.8204   25.1273 O   0  0  0  0  0  0  0  0  0  0  0  0
   13.4216  -19.7862   23.5471 O   0  0  0  0  0  0  0  0  0  0  0  0
  2  1  1  1
  2  3  1  0
  3  4  1  0
  4  5  2  0
  4  9  1  0
  5  6  1  0
  6  7  2  0
  8  7  1  0
  9  8  2  0
 10  2  1  0
 11 10  2  0
 13 12  1  0
 14 13  2  0
 15 13  1  0
 16 15  1  6
 16 17  1  0
 17 10  1  0
 18 16  1  0
 18 26  1  0
 19 18  2  0
 21 22  2  0
 21 20  1  0
 23 21  1  0
 24 23  1  0
 25 24  1  1
 25 26  1  0
 27 28  1  0
 27 25  1  0
 29 27  2  0
M  END
$$$$
