FNQ.pdb
     RDKit          3D

 29 29  0  0  1  0  0  0  0  0999 V2000
    8.7684  -16.7989   20.9972 N   0  0  0  0  0  0  0  0  0  0  0  0
    9.9497  -16.0222   21.3459 C   0  0  1  0  0  0  0  0  0  0  0  0
    9.5181  -14.6946   21.9138 C   0  0  0  0  0  0  0  0  0  0  0  0
    8.6984  -13.8830   21.0157 C   0  0  0  0  0  0  0  0  0  0  0  0
    7.3315  -13.8882   21.1104 C   0  0  0  0  0  0  0  0  0  0  0  0
    6.5892  -13.1087   20.2483 C   0  0  0  0  0  0  0  0  0  0  0  0
    7.2144  -12.3167   19.2829 C   0  0  0  0  0  0  0  0  0  0  0  0
    8.5938  -12.3180   19.1949 C   0  0  0  0  0  0  0  0  0  0  0  0
    9.3348  -13.0949   20.0540 C   0  0  0  0  0  0  0  0  0  0  0  0
   10.8093  -16.8009   22.2690 C   0  0  0  0  0  0  0  0  0  0  0  0
   10.3087  -17.3113   23.2826 O   0  0  0  0  0  0  0  0  0  0  0  0
   12.9790  -20.9372   20.0199 N   0  0  0  0  0  0  0  0  0  0  0  0
   12.4988  -19.7476   20.5566 C   0  0  0  0  0  0  0  0  0  0  0  0
   12.2494  -18.7938   19.7467 O   0  0  0  0  0  0  0  0  0  0  0  0
   12.2420  -19.4607   21.9773 C   0  0  0  0  0  0  0  0  0  0  0  0
   12.8627  -18.1876   22.4656 C   0  0  2  0  0  0  0  0  0  0  0  0
   12.1952  -16.9993   22.0564 N   0  0  0  0  0  0  0  0  0  0  0  0
   14.3252  -18.1234   22.1523 C   0  0  0  0  0  0  0  0  0  0  0  0
   15.0736  -19.0545   22.5240 O   0  0  0  0  0  0  0  0  0  0  0  0
   14.3338  -14.0718   19.2915 N   0  0  0  0  0  0  0  0  0  0  0  0
   15.6314  -14.4699   18.8799 C   0  0  0  0  0  0  0  0  0  0  0  0
   16.1287  -13.9718   17.8285 O   0  0  0  0  0  0  0  0  0  0  0  0
   16.3785  -15.4503   19.6877 C   0  0  0  0  0  0  0  0  0  0  0  0
   16.4152  -15.2373   21.1441 C   0  0  0  0  0  0  0  0  0  0  0  0
   16.1047  -16.4127   22.0076 C   0  0  2  0  0  0  0  0  0  0  0  0
   14.8996  -17.0455   21.4485 N   0  0  0  0  0  0  0  0  0  0  0  0
   15.9548  -16.1214   23.4097 C   0  0  0  0  0  0  0  0  0  0  0  0
   15.2196  -17.0033   24.2089 O   0  0  0  0  0  0  0  0  0  0  0  0
   16.4368  -15.1207   23.9967 O   0  0  0  0  0  0  0  0  0  0  0  0
  2  1  1  1
  2  3  1  0
  3  4  1  0
  4  5  2  0
  4  9  1  0
  5  6  1  0
  6  7  2  0
  8  7  1  0
  9  8  2  0
 10  2  1  0
 11 10  2  0
 13 12  1  0
 14 13  2  0
 15 13  1  0
 16 15  1  6
 16 17  1  0
 17 10  1  0
 18 16  1  0
 18 26  1  0
 19 18  2  0
 21 22  2  0
 21 20  1  0
 23 21  1  0
 24 23  1  0
 25 24  1  6
 25 26  1  0
 27 28  1  0
 27 25  1  0
 29 27  2  0
M  END
$$$$
