FNQ.pdb
     RDKit          3D

 29 29  0  0  1  0  0  0  0  0999 V2000
    5.9611  -16.7800   24.0830 N   0  0  0  0  0  0  0  0  0  0  0  0
    7.2111  -16.2177   23.5913 C   0  0  1  0  0  0  0  0  0  0  0  0
    7.9138  -15.5116   24.7222 C   0  0  0  0  0  0  0  0  0  0  0  0
    7.4304  -14.1587   24.9926 C   0  0  0  0  0  0  0  0  0  0  0  0
    7.9805  -13.0739   24.3618 C   0  0  0  0  0  0  0  0  0  0  0  0
    7.4985  -11.8119   24.6392 C   0  0  0  0  0  0  0  0  0  0  0  0
    6.4589  -11.6290   25.5534 C   0  0  0  0  0  0  0  0  0  0  0  0
    5.9103  -12.7293   26.1849 C   0  0  0  0  0  0  0  0  0  0  0  0
    6.3901  -13.9881   25.9090 C   0  0  0  0  0  0  0  0  0  0  0  0
    8.0315  -17.2836   22.9683 C   0  0  0  0  0  0  0  0  0  0  0  0
    7.5809  -17.9097   21.9971 O   0  0  0  0  0  0  0  0  0  0  0  0
    9.5435  -17.2798   20.0504 N   0  0  0  0  0  0  0  0  0  0  0  0
   10.1687  -16.1688   20.6059 C   0  0  0  0  0  0  0  0  0  0  0  0
   10.7260  -15.3450   19.8067 O   0  0  0  0  0  0  0  0  0  0  0  0
   10.2613  -15.8311   22.0356 C   0  0  0  0  0  0  0  0  0  0  0  0
   10.5017  -17.0104   22.9277 C   0  0  2  0  0  0  0  0  0  0  0  0
    9.3245  -17.6348   23.4268 N   0  0  0  0  0  0  0  0  0  0  0  0
   11.4556  -16.6873   24.0354 C   0  0  0  0  0  0  0  0  0  0  0  0
   12.5648  -16.1781   23.7607 O   0  0  0  0  0  0  0  0  0  0  0  0
   10.7200  -13.5824   29.0890 N   0  0  0  0  0  0  0  0  0  0  0  0
   10.1230  -14.8680   29.1375 C   0  0  0  0  0  0  0  0  0  0  0  0
    9.1771  -15.0824   29.9500 O   0  0  0  0  0  0  0  0  0  0  0  0
   10.6105  -15.9274   28.2364 C   0  0  0  0  0  0  0  0  0  0  0  0
   11.6531  -15.5599   27.2640 C   0  0  0  0  0  0  0  0  0  0  0  0
   12.1849  -16.6509   26.3977 C   0  0  2  0  0  0  0  0  0  0  0  0
   11.1519  -16.9360   25.3893 N   0  0  0  0  0  0  0  0  0  0  0  0
   12.5961  -17.8421   27.0943 C   0  0  0  0  0  0  0  0  0  0  0  0
   11.9718  -19.0554   26.7860 O   0  0  0  0  0  0  0  0  0  0  0  0
   13.4883  -17.8928   27.9774 O   0  0  0  0  0  0  0  0  0  0  0  0
  2  1  1  1
  2  3  1  0
  3  4  1  0
  4  5  2  0
  4  9  1  0
  5  6  1  0
  6  7  2  0
  8  7  1  0
  9  8  2  0
 10  2  1  0
 11 10  2  0
 13 12  1  0
 14 13  2  0
 15 13  1  0
 16 15  1  1
 16 17  1  0
 17 10  1  0
 18 16  1  0
 18 26  1  0
 19 18  2  0
 21 22  2  0
 21 20  1  0
 23 21  1  0
 24 23  1  0
 25 24  1  1
 25 26  1  0
 27 28  1  0
 27 25  1  0
 29 27  2  0
M  END
$$$$
