FNQ.pdb
     RDKit          3D

 29 29  0  0  1  0  0  0  0  0999 V2000
    5.2093  -16.9042   21.8515 N   0  0  0  0  0  0  0  0  0  0  0  0
    6.5034  -16.5496   22.4171 C   0  0  1  0  0  0  0  0  0  0  0  0
    6.5752  -15.0538   22.5870 C   0  0  0  0  0  0  0  0  0  0  0  0
    7.2099  -14.3425   21.4787 C   0  0  0  0  0  0  0  0  0  0  0  0
    7.6476  -15.0143   20.3677 C   0  0  0  0  0  0  0  0  0  0  0  0
    8.2400  -14.3113   19.3398 C   0  0  0  0  0  0  0  0  0  0  0  0
    8.3979  -12.9260   19.4195 C   0  0  0  0  0  0  0  0  0  0  0  0
    7.9533  -12.2569   20.5442 C   0  0  0  0  0  0  0  0  0  0  0  0
    7.3625  -12.9570   21.5697 C   0  0  0  0  0  0  0  0  0  0  0  0
    6.7203  -17.2924   23.6815 C   0  0  0  0  0  0  0  0  0  0  0  0
    5.8226  -17.3135   24.5370 O   0  0  0  0  0  0  0  0  0  0  0  0
    5.9121  -21.2178   23.9678 N   0  0  0  0  0  0  0  0  0  0  0  0
    6.6403  -20.7479   25.0553 C   0  0  0  0  0  0  0  0  0  0  0  0
    6.0756  -20.7756   26.1991 O   0  0  0  0  0  0  0  0  0  0  0  0
    8.0116  -20.2135   25.0346 C   0  0  0  0  0  0  0  0  0  0  0  0
    8.0896  -18.7247   25.1821 C   0  0  2  0  0  0  0  0  0  0  0  0
    7.9160  -17.9924   23.9744 N   0  0  0  0  0  0  0  0  0  0  0  0
    9.3320  -18.2990   25.9006 C   0  0  0  0  0  0  0  0  0  0  0  0
    9.5624  -18.7471   27.0458 O   0  0  0  0  0  0  0  0  0  0  0  0
    7.9180  -13.0166   25.8830 N   0  0  0  0  0  0  0  0  0  0  0  0
    8.0770  -13.6730   27.1302 C   0  0  0  0  0  0  0  0  0  0  0  0
    7.4219  -13.2660   28.1332 O   0  0  0  0  0  0  0  0  0  0  0  0
    8.9961  -14.8204   27.2328 C   0  0  0  0  0  0  0  0  0  0  0  0
    9.7575  -15.1857   26.0268 C   0  0  0  0  0  0  0  0  0  0  0  0
   10.7500  -16.2903   26.1621 C   0  0  2  0  0  0  0  0  0  0  0  0
   10.2627  -17.4047   25.3339 N   0  0  0  0  0  0  0  0  0  0  0  0
   11.0236  -16.7072   27.5129 C   0  0  0  0  0  0  0  0  0  0  0  0
   10.7125  -18.0171   27.8926 O   0  0  0  0  0  0  0  0  0  0  0  0
   11.5299  -15.9825   28.4056 O   0  0  0  0  0  0  0  0  0  0  0  0
  2  1  1  1
  2  3  1  0
  3  4  1  0
  4  5  2  0
  4  9  1  0
  5  6  1  0
  6  7  2  0
  8  7  1  0
  9  8  2  0
 10  2  1  0
 11 10  2  0
 13 12  1  0
 14 13  2  0
 15 13  1  0
 16 15  1  6
 16 17  1  0
 17 10  1  0
 18 16  1  0
 18 26  1  0
 19 18  2  0
 21 22  2  0
 21 20  1  0
 23 21  1  0
 24 23  1  0
 25 24  1  1
 25 26  1  0
 27 28  1  0
 27 25  1  0
 29 27  2  0
M  END
$$$$
