FNQ.pdb
     RDKit          3D

 29 29  0  0  1  0  0  0  0  0999 V2000
    5.9298  -16.5837   24.9970 N   0  0  0  0  0  0  0  0  0  0  0  0
    7.0518  -15.7769   24.5383 C   0  0  1  0  0  0  0  0  0  0  0  0
    7.5995  -14.9871   25.6992 C   0  0  0  0  0  0  0  0  0  0  0  0
    6.9753  -13.6802   25.8981 C   0  0  0  0  0  0  0  0  0  0  0  0
    6.0948  -13.4682   26.9262 C   0  0  0  0  0  0  0  0  0  0  0  0
    5.5261  -12.2220   27.0857 C   0  0  0  0  0  0  0  0  0  0  0  0
    5.8375  -11.1773   26.2130 C   0  0  0  0  0  0  0  0  0  0  0  0
    6.7268  -11.4007   25.1787 C   0  0  0  0  0  0  0  0  0  0  0  0
    7.2944  -12.6429   25.0188 C   0  0  0  0  0  0  0  0  0  0  0  0
    8.0649  -16.6452   23.8925 C   0  0  0  0  0  0  0  0  0  0  0  0
    8.1237  -17.8453   24.2002 O   0  0  0  0  0  0  0  0  0  0  0  0
   12.3990  -17.2312   19.4543 N   0  0  0  0  0  0  0  0  0  0  0  0
   11.4661  -17.5445   20.4368 C   0  0  0  0  0  0  0  0  0  0  0  0
   11.4909  -18.7259   20.9180 O   0  0  0  0  0  0  0  0  0  0  0  0
   10.4364  -16.6516   20.9927 C   0  0  0  0  0  0  0  0  0  0  0  0
   10.0073  -17.0052   22.3839 C   0  0  2  0  0  0  0  0  0  0  0  0
    8.9871  -16.1746   22.9263 N   0  0  0  0  0  0  0  0  0  0  0  0
   11.1727  -17.1124   23.3174 C   0  0  0  0  0  0  0  0  0  0  0  0
   11.6612  -16.0717   23.8109 O   0  0  0  0  0  0  0  0  0  0  0  0
   12.2584  -18.9764   28.5648 N   0  0  0  0  0  0  0  0  0  0  0  0
   11.0241  -19.1606   27.8909 C   0  0  0  0  0  0  0  0  0  0  0  0
   10.0853  -19.7772   28.4735 O   0  0  0  0  0  0  0  0  0  0  0  0
   10.8557  -18.6245   26.5285 C   0  0  0  0  0  0  0  0  0  0  0  0
   11.9607  -17.8231   25.9768 C   0  0  0  0  0  0  0  0  0  0  0  0
   12.6845  -18.3875   24.8015 C   0  0  2  0  0  0  0  0  0  0  0  0
   11.7483  -18.3509   23.6669 N   0  0  0  0  0  0  0  0  0  0  0  0
   13.2388  -19.7021   24.9958 C   0  0  0  0  0  0  0  0  0  0  0  0
   12.6979  -20.7765   24.2817 O   0  0  0  0  0  0  0  0  0  0  0  0
   14.1895  -19.9799   25.7688 O   0  0  0  0  0  0  0  0  0  0  0  0
  2  1  1  1
  2  3  1  0
  3  4  1  0
  4  5  2  0
  4  9  1  0
  5  6  1  0
  6  7  2  0
  8  7  1  0
  9  8  2  0
 10  2  1  0
 11 10  2  0
 13 12  1  0
 14 13  2  0
 15 13  1  0
 16 15  1  6
 16 17  1  0
 17 10  1  0
 18 16  1  0
 18 26  1  0
 19 18  2  0
 21 22  2  0
 21 20  1  0
 23 21  1  0
 24 23  1  0
 25 24  1  1
 25 26  1  0
 27 28  1  0
 27 25  1  0
 29 27  2  0
M  END
$$$$
