FNQ.pdb
     RDKit          3D

 29 29  0  0  1  0  0  0  0  0999 V2000
    8.9716  -16.6218   18.8615 N   0  0  0  0  0  0  0  0  0  0  0  0
    9.2565  -16.6204   20.2895 C   0  0  1  0  0  0  0  0  0  0  0  0
    8.2449  -15.7536   20.9942 C   0  0  0  0  0  0  0  0  0  0  0  0
    8.1258  -14.3971   20.4621 C   0  0  0  0  0  0  0  0  0  0  0  0
    7.7825  -13.3484   21.2744 C   0  0  0  0  0  0  0  0  0  0  0  0
    7.6813  -12.0814   20.7395 C   0  0  0  0  0  0  0  0  0  0  0  0
    7.9242  -11.8570   19.3828 C   0  0  0  0  0  0  0  0  0  0  0  0
    8.2698  -12.9211   18.5711 C   0  0  0  0  0  0  0  0  0  0  0  0
    8.3710  -14.1848   19.1036 C   0  0  0  0  0  0  0  0  0  0  0  0
    9.2880  -18.0125   20.7976 C   0  0  0  0  0  0  0  0  0  0  0  0
    8.4043  -18.8090   20.4468 O   0  0  0  0  0  0  0  0  0  0  0  0
   13.2191  -20.4989   18.2350 N   0  0  0  0  0  0  0  0  0  0  0  0
   12.4048  -20.5715   19.3599 C   0  0  0  0  0  0  0  0  0  0  0  0
   12.5579  -21.5735   20.1348 O   0  0  0  0  0  0  0  0  0  0  0  0
   11.3693  -19.6063   19.7634 C   0  0  0  0  0  0  0  0  0  0  0  0
   11.4107  -19.2367   21.2147 C   0  0  2  0  0  0  0  0  0  0  0  0
   10.2879  -18.4948   21.6769 N   0  0  0  0  0  0  0  0  0  0  0  0
   12.6954  -18.5619   21.5827 C   0  0  0  0  0  0  0  0  0  0  0  0
   13.5794  -19.2119   22.1839 O   0  0  0  0  0  0  0  0  0  0  0  0
   15.2307  -14.0344   18.3273 N   0  0  0  0  0  0  0  0  0  0  0  0
   13.8927  -14.0707   18.7965 C   0  0  0  0  0  0  0  0  0  0  0  0
   13.0034  -13.4089   18.1866 O   0  0  0  0  0  0  0  0  0  0  0  0
   13.5622  -14.8836   19.9805 C   0  0  0  0  0  0  0  0  0  0  0  0
   14.6427  -15.6944   20.5660 C   0  0  0  0  0  0  0  0  0  0  0  0
   14.2623  -16.6502   21.6455 C   0  0  2  0  0  0  0  0  0  0  0  0
   12.9525  -17.2102   21.2764 N   0  0  0  0  0  0  0  0  0  0  0  0
   14.2537  -16.1009   22.9764 C   0  0  0  0  0  0  0  0  0  0  0  0
   15.4369  -15.5632   23.4938 O   0  0  0  0  0  0  0  0  0  0  0  0
   13.2538  -16.0593   23.7359 O   0  0  0  0  0  0  0  0  0  0  0  0
  2  1  1  6
  2  3  1  0
  3  4  1  0
  4  5  2  0
  4  9  1  0
  5  6  1  0
  6  7  2  0
  8  7  1  0
  9  8  2  0
 10  2  1  0
 11 10  2  0
 13 12  1  0
 14 13  2  0
 15 13  1  0
 16 15  1  6
 16 17  1  0
 17 10  1  0
 18 16  1  0
 18 26  1  0
 19 18  2  0
 21 22  2  0
 21 20  1  0
 23 21  1  0
 24 23  1  0
 25 24  1  6
 25 26  1  0
 27 28  1  0
 27 25  1  0
 29 27  2  0
M  END
$$$$
