FNQ.pdb
     RDKit          3D

 29 29  0  0  1  0  0  0  0  0999 V2000
    6.5017  -18.2674   25.9522 N   0  0  0  0  0  0  0  0  0  0  0  0
    6.6264  -16.8523   25.6326 C   0  0  1  0  0  0  0  0  0  0  0  0
    6.7428  -16.0652   26.9125 C   0  0  0  0  0  0  0  0  0  0  0  0
    6.7568  -14.6137   26.7384 C   0  0  0  0  0  0  0  0  0  0  0  0
    5.6324  -13.9403   26.3389 C   0  0  0  0  0  0  0  0  0  0  0  0
    5.6807  -12.5706   26.1867 C   0  0  0  0  0  0  0  0  0  0  0  0
    6.8600  -11.8650   26.4349 C   0  0  0  0  0  0  0  0  0  0  0  0
    7.9892  -12.5529   26.8374 C   0  0  0  0  0  0  0  0  0  0  0  0
    7.9422  -13.9188   26.9894 C   0  0  0  0  0  0  0  0  0  0  0  0
    7.7694  -16.6434   24.7121 C   0  0  0  0  0  0  0  0  0  0  0  0
    8.7859  -17.3436   24.8346 O   0  0  0  0  0  0  0  0  0  0  0  0
    6.1735  -13.9694   20.7504 N   0  0  0  0  0  0  0  0  0  0  0  0
    7.1491  -14.9385   20.9574 C   0  0  0  0  0  0  0  0  0  0  0  0
    6.8673  -16.1385   20.6278 O   0  0  0  0  0  0  0  0  0  0  0  0
    8.4921  -14.7319   21.5233 C   0  0  0  0  0  0  0  0  0  0  0  0
    8.7987  -15.6028   22.7032 C   0  0  2  0  0  0  0  0  0  0  0  0
    7.7677  -15.6721   23.6815 N   0  0  0  0  0  0  0  0  0  0  0  0
   10.1151  -15.2560   23.3261 C   0  0  0  0  0  0  0  0  0  0  0  0
   10.2773  -14.1203   23.8254 O   0  0  0  0  0  0  0  0  0  0  0  0
   10.8219  -17.7727   28.5772 N   0  0  0  0  0  0  0  0  0  0  0  0
   11.3636  -16.6731   27.8636 C   0  0  0  0  0  0  0  0  0  0  0  0
   11.4800  -15.5544   28.4432 O   0  0  0  0  0  0  0  0  0  0  0  0
   11.7869  -16.8557   26.4639 C   0  0  0  0  0  0  0  0  0  0  0  0
   11.8270  -15.6578   25.6088 C   0  0  0  0  0  0  0  0  0  0  0  0
   12.3461  -15.8338   24.2220 C   0  0  2  0  0  0  0  0  0  0  0  0
   11.1905  -16.1660   23.3736 N   0  0  0  0  0  0  0  0  0  0  0  0
   13.4075  -16.7966   24.0817 C   0  0  0  0  0  0  0  0  0  0  0  0
   13.1837  -17.9425   23.3111 O   0  0  0  0  0  0  0  0  0  0  0  0
   14.5468  -16.6991   24.6021 O   0  0  0  0  0  0  0  0  0  0  0  0
  2  1  1  1
  2  3  1  0
  3  4  1  0
  4  5  2  0
  4  9  1  0
  5  6  1  0
  6  7  2  0
  8  7  1  0
  9  8  2  0
 10  2  1  0
 11 10  2  0
 13 12  1  0
 14 13  2  0
 15 13  1  0
 16 15  1  6
 16 17  1  0
 17 10  1  0
 18 16  1  0
 18 26  1  0
 19 18  2  0
 21 22  2  0
 21 20  1  0
 23 21  1  0
 24 23  1  0
 25 24  1  1
 25 26  1  0
 27 28  1  0
 27 25  1  0
 29 27  2  0
M  END
$$$$
