FNQ.pdb
     RDKit          3D

 29 29  0  0  1  0  0  0  0  0999 V2000
    6.3083  -16.5352   25.7790 N   0  0  0  0  0  0  0  0  0  0  0  0
    7.0234  -15.6143   24.9067 C   0  0  1  0  0  0  0  0  0  0  0  0
    7.8731  -14.6965   25.7476 C   0  0  0  0  0  0  0  0  0  0  0  0
    7.2029  -13.4732   26.1854 C   0  0  0  0  0  0  0  0  0  0  0  0
    7.8208  -12.5972   27.0388 C   0  0  0  0  0  0  0  0  0  0  0  0
    7.1600  -11.4516   27.4296 C   0  0  0  0  0  0  0  0  0  0  0  0
    5.8718  -11.1762   26.9661 C   0  0  0  0  0  0  0  0  0  0  0  0
    5.2566  -12.0658   26.1057 C   0  0  0  0  0  0  0  0  0  0  0  0
    5.9146  -13.2084   25.7153 C   0  0  0  0  0  0  0  0  0  0  0  0
    7.8036  -16.3759   23.9025 C   0  0  0  0  0  0  0  0  0  0  0  0
    7.9481  -17.5996   24.0438 O   0  0  0  0  0  0  0  0  0  0  0  0
    6.7603  -16.6536   20.0324 N   0  0  0  0  0  0  0  0  0  0  0  0
    7.8532  -15.8006   19.9242 C   0  0  0  0  0  0  0  0  0  0  0  0
    7.6822  -14.6994   19.3029 O   0  0  0  0  0  0  0  0  0  0  0  0
    9.2071  -16.0293   20.4546 C   0  0  0  0  0  0  0  0  0  0  0  0
    9.2346  -16.5070   21.8743 C   0  0  2  0  0  0  0  0  0  0  0  0
    8.4048  -15.7755   22.7695 N   0  0  0  0  0  0  0  0  0  0  0  0
   10.6323  -16.6186   22.3990 C   0  0  0  0  0  0  0  0  0  0  0  0
   11.4520  -15.7041   22.1601 O   0  0  0  0  0  0  0  0  0  0  0  0
    9.9520  -19.5434   27.5985 N   0  0  0  0  0  0  0  0  0  0  0  0
   11.2035  -18.9620   27.2709 C   0  0  0  0  0  0  0  0  0  0  0  0
   12.2077  -19.1978   28.0036 O   0  0  0  0  0  0  0  0  0  0  0  0
   11.3125  -18.1006   26.0802 C   0  0  0  0  0  0  0  0  0  0  0  0
   12.2883  -18.4929   25.0499 C   0  0  0  0  0  0  0  0  0  0  0  0
   12.3713  -17.6330   23.8344 C   0  0  2  0  0  0  0  0  0  0  0  0
   11.0671  -17.7233   23.1590 N   0  0  0  0  0  0  0  0  0  0  0  0
   13.4589  -17.9368   22.9410 C   0  0  0  0  0  0  0  0  0  0  0  0
   14.7359  -17.4508   23.2405 O   0  0  0  0  0  0  0  0  0  0  0  0
   13.3631  -18.6167   21.8889 O   0  0  0  0  0  0  0  0  0  0  0  0
  2  1  1  1
  2  3  1  0
  3  4  1  0
  4  5  2  0
  4  9  1  0
  5  6  1  0
  6  7  2  0
  8  7  1  0
  9  8  2  0
 10  2  1  0
 11 10  2  0
 13 12  1  0
 14 13  2  0
 15 13  1  0
 16 15  1  6
 16 17  1  0
 17 10  1  0
 18 16  1  0
 18 26  1  0
 19 18  2  0
 21 22  2  0
 21 20  1  0
 23 21  1  0
 24 23  1  0
 25 24  1  1
 25 26  1  0
 27 28  1  0
 27 25  1  0
 29 27  2  0
M  END
$$$$
