FNQ.pdb
     RDKit          3D

 29 29  0  0  1  0  0  0  0  0999 V2000
    5.9011  -17.8426   24.9748 N   0  0  0  0  0  0  0  0  0  0  0  0
    6.2943  -16.4439   24.8789 C   0  0  1  0  0  0  0  0  0  0  0  0
    6.9422  -16.0231   26.1729 C   0  0  0  0  0  0  0  0  0  0  0  0
    7.1580  -14.5835   26.3087 C   0  0  0  0  0  0  0  0  0  0  0  0
    8.4236  -14.0591   26.3314 C   0  0  0  0  0  0  0  0  0  0  0  0
    8.5904  -12.6961   26.4586 C   0  0  0  0  0  0  0  0  0  0  0  0
    7.4863  -11.8477   26.5643 C   0  0  0  0  0  0  0  0  0  0  0  0
    6.2134  -12.3859   26.5405 C   0  0  0  0  0  0  0  0  0  0  0  0
    6.0460  -13.7449   26.4136 C   0  0  0  0  0  0  0  0  0  0  0  0
    7.1672  -16.2467   23.6972 C   0  0  0  0  0  0  0  0  0  0  0  0
    7.8160  -17.2056   23.2524 O   0  0  0  0  0  0  0  0  0  0  0  0
    8.4516  -12.4900   18.9855 N   0  0  0  0  0  0  0  0  0  0  0  0
    7.8763  -13.6093   19.5770 C   0  0  0  0  0  0  0  0  0  0  0  0
    7.8047  -14.6743   18.8780 O   0  0  0  0  0  0  0  0  0  0  0  0
    7.3319  -13.7049   20.9412 C   0  0  0  0  0  0  0  0  0  0  0  0
    7.8053  -14.9032   21.7056 C   0  0  2  0  0  0  0  0  0  0  0  0
    7.3057  -15.0029   23.0343 N   0  0  0  0  0  0  0  0  0  0  0  0
    9.2966  -15.0311   21.6759 C   0  0  0  0  0  0  0  0  0  0  0  0
    9.8364  -15.7068   20.7718 O   0  0  0  0  0  0  0  0  0  0  0  0
    9.8166  -18.3343   25.7123 N   0  0  0  0  0  0  0  0  0  0  0  0
   11.2067  -18.2735   25.4374 C   0  0  0  0  0  0  0  0  0  0  0  0
   11.9779  -19.1381   25.9457 O   0  0  0  0  0  0  0  0  0  0  0  0
   11.7255  -17.2094   24.5596 C   0  0  0  0  0  0  0  0  0  0  0  0
   10.7526  -16.2453   24.0195 C   0  0  0  0  0  0  0  0  0  0  0  0
   11.2863  -15.1679   23.1375 C   0  0  2  0  0  0  0  0  0  0  0  0
   10.1261  -14.4152   22.6348 N   0  0  0  0  0  0  0  0  0  0  0  0
   12.1377  -15.6170   22.0667 C   0  0  0  0  0  0  0  0  0  0  0  0
   13.4301  -16.0579   22.3698 O   0  0  0  0  0  0  0  0  0  0  0  0
   11.8172  -15.6498   20.8523 O   0  0  0  0  0  0  0  0  0  0  0  0
  2  1  1  1
  2  3  1  0
  3  4  1  0
  4  5  2  0
  4  9  1  0
  5  6  1  0
  6  7  2  0
  8  7  1  0
  9  8  2  0
 10  2  1  0
 11 10  2  0
 13 12  1  0
 14 13  2  0
 15 13  1  0
 16 15  1  1
 16 17  1  0
 17 10  1  0
 18 16  1  0
 18 26  1  0
 19 18  2  0
 21 22  2  0
 21 20  1  0
 23 21  1  0
 24 23  1  0
 25 24  1  6
 25 26  1  0
 27 28  1  0
 27 25  1  0
 29 27  2  0
M  END
$$$$
