FNQ.pdb
     RDKit          3D

 29 29  0  0  1  0  0  0  0  0999 V2000
    6.5396  -16.4780   25.9367 N   0  0  0  0  0  0  0  0  0  0  0  0
    6.7968  -16.3878   24.5063 C   0  0  1  0  0  0  0  0  0  0  0  0
    6.4336  -15.0065   24.0253 C   0  0  0  0  0  0  0  0  0  0  0  0
    6.7363  -13.9314   24.9686 C   0  0  0  0  0  0  0  0  0  0  0  0
    7.9754  -13.3472   24.9983 C   0  0  0  0  0  0  0  0  0  0  0  0
    8.2258  -12.3341   25.8997 C   0  0  0  0  0  0  0  0  0  0  0  0
    7.2326  -11.8987   26.7796 C   0  0  0  0  0  0  0  0  0  0  0  0
    5.9858  -12.4940   26.7423 C   0  0  0  0  0  0  0  0  0  0  0  0
    5.7351  -13.5044   25.8438 C   0  0  0  0  0  0  0  0  0  0  0  0
    8.2055  -16.7531   24.2245 C   0  0  0  0  0  0  0  0  0  0  0  0
    8.7059  -17.7344   24.7945 O   0  0  0  0  0  0  0  0  0  0  0  0
   12.2886  -17.8109   21.0627 N   0  0  0  0  0  0  0  0  0  0  0  0
   11.2438  -17.1103   20.4700 C   0  0  0  0  0  0  0  0  0  0  0  0
   11.2534  -17.0016   19.1987 O   0  0  0  0  0  0  0  0  0  0  0  0
   10.1098  -16.4697   21.1556 C   0  0  0  0  0  0  0  0  0  0  0  0
   10.1206  -16.6395   22.6441 C   0  0  2  0  0  0  0  0  0  0  0  0
    9.0284  -16.0325   23.3250 N   0  0  0  0  0  0  0  0  0  0  0  0
   11.4294  -16.2283   23.2435 C   0  0  0  0  0  0  0  0  0  0  0  0
   12.4910  -16.7066   22.7858 O   0  0  0  0  0  0  0  0  0  0  0  0
   11.5367  -15.9942   29.8237 N   0  0  0  0  0  0  0  0  0  0  0  0
   10.8204  -16.2692   28.6308 C   0  0  0  0  0  0  0  0  0  0  0  0
    9.8770  -17.1120   28.6542 O   0  0  0  0  0  0  0  0  0  0  0  0
   11.1834  -15.5636   27.3890 C   0  0  0  0  0  0  0  0  0  0  0  0
   12.0282  -16.2864   26.4238 C   0  0  0  0  0  0  0  0  0  0  0  0
   12.5965  -15.4937   25.2958 C   0  0  2  0  0  0  0  0  0  0  0  0
   11.5155  -15.3149   24.3137 N   0  0  0  0  0  0  0  0  0  0  0  0
   13.7813  -16.0469   24.6929 C   0  0  0  0  0  0  0  0  0  0  0  0
   14.9529  -15.2828   24.6790 O   0  0  0  0  0  0  0  0  0  0  0  0
   13.8611  -17.1837   24.1639 O   0  0  0  0  0  0  0  0  0  0  0  0
  2  1  1  1
  2  3  1  0
  3  4  1  0
  4  5  2  0
  4  9  1  0
  5  6  1  0
  6  7  2  0
  8  7  1  0
  9  8  2  0
 10  2  1  0
 11 10  2  0
 13 12  1  0
 14 13  2  0
 15 13  1  0
 16 15  1  6
 16 17  1  0
 17 10  1  0
 18 16  1  0
 18 26  1  0
 19 18  2  0
 21 22  2  0
 21 20  1  0
 23 21  1  0
 24 23  1  0
 25 24  1  1
 25 26  1  0
 27 28  1  0
 27 25  1  0
 29 27  2  0
M  END
$$$$
