PPW.pdb
     RDKit          3D

 29 32  0  0  1  0  0  0  0  0999 V2000
   26.6021  -18.3537  -15.7883 N   0  0  0  0  0  0  0  0  0  0  0  0
   26.0649  -17.0103  -15.8826 C   0  0  0  0  0  0  0  0  0  0  0  0
   25.7915  -16.5468  -14.4839 C   0  0  0  0  0  0  0  0  0  0  0  0
   26.6368  -17.4327  -13.6104 C   0  0  0  0  0  0  0  0  0  0  0  0
   27.3098  -18.4251  -14.5338 C   0  0  1  0  0  0  0  0  0  0  0  0
   27.3244  -19.8069  -13.9715 C   0  0  0  0  0  0  0  0  0  0  0  0
   26.7281  -20.6868  -14.6520 O   0  0  0  0  0  0  0  0  0  0  0  0
   27.9566  -20.1309  -12.7610 N   0  0  0  0  0  0  0  0  0  0  0  0
   28.5289  -19.2174  -11.8165 C   0  0  0  0  0  0  0  0  0  0  0  0
   29.6034  -20.0396  -11.0953 C   0  0  0  0  0  0  0  0  0  0  0  0
   29.6175  -21.3884  -11.8253 C   0  0  0  0  0  0  0  0  0  0  0  0
   28.1431  -21.4587  -12.2484 C   0  0  1  0  0  0  0  0  0  0  0  0
   27.3320  -21.7012  -11.0254 C   0  0  0  0  0  0  0  0  0  0  0  0
   27.5643  -22.6697  -10.2445 O   0  0  0  0  0  0  0  0  0  0  0  0
   26.2728  -20.8576  -10.6910 N   0  0  0  0  0  0  0  0  0  0  0  0
   25.2378  -21.2992   -9.7165 C   0  0  1  0  0  0  0  0  0  0  0  0
   25.8702  -21.5723   -8.4075 C   0  0  0  0  0  0  0  0  0  0  0  0
   26.4482  -20.4058   -7.7691 C   0  0  0  0  0  0  0  0  0  0  0  0
   26.3522  -19.0697   -8.1491 C   0  0  0  0  0  0  0  0  0  0  0  0
   27.0562  -18.2919   -7.3252 N   0  0  0  0  0  0  0  0  0  0  0  0
   27.6393  -19.0572   -6.3797 C   0  0  0  0  0  0  0  0  0  0  0  0
   28.4449  -18.7236   -5.3008 C   0  0  0  0  0  0  0  0  0  0  0  0
   28.9153  -19.6862   -4.4381 C   0  0  0  0  0  0  0  0  0  0  0  0
   28.5438  -20.9820   -4.7059 C   0  0  0  0  0  0  0  0  0  0  0  0
   27.7519  -21.3212   -5.7656 C   0  0  0  0  0  0  0  0  0  0  0  0
   27.2721  -20.3768   -6.6393 C   0  0  0  0  0  0  0  0  0  0  0  0
   24.2315  -20.2500   -9.6808 C   0  0  0  0  0  0  0  0  0  0  0  0
   23.2503  -20.2440   -8.8983 O   0  0  0  0  0  0  0  0  0  0  0  0
   24.2743  -19.1308  -10.5375 O   0  0  0  0  0  0  0  0  0  0  0  0
  2  1  1  0
  3  2  1  0
  4  3  1  0
  4  5  1  0
  5  6  1  1
  5  1  1  0
  6  7  2  0
  8 12  1  0
  8  6  1  0
  9  8  1  0
 10 11  1  0
 10  9  1  0
 11 12  1  0
 12 13  1  1
 13 15  1  0
 13 14  2  0
 15 16  1  0
 16 27  1  0
 16 17  1  1
 18 17  1  0
 19 18  2  0
 20 21  1  0
 20 19  1  0
 21 26  2  0
 22 23  2  0
 22 21  1  0
 23 24  1  0
 24 25  2  0
 26 18  1  0
 26 25  1  0
 27 28  2  0
 27 29  1  0
M  END
$$$$
