PPW.pdb
     RDKit          3D

 29 32  0  0  1  0  0  0  0  0999 V2000
   28.1234  -20.7004  -16.7790 N   0  0  0  0  0  0  0  0  0  0  0  0
   28.0688  -19.5824  -17.7004 C   0  0  0  0  0  0  0  0  0  0  0  0
   27.8229  -18.3505  -16.8831 C   0  0  0  0  0  0  0  0  0  0  0  0
   28.2382  -18.7233  -15.4864 C   0  0  0  0  0  0  0  0  0  0  0  0
   28.6381  -20.1821  -15.5355 C   0  0  1  0  0  0  0  0  0  0  0  0
   28.1420  -20.9488  -14.3557 C   0  0  0  0  0  0  0  0  0  0  0  0
   27.2330  -21.7931  -14.5877 O   0  0  0  0  0  0  0  0  0  0  0  0
   28.6413  -20.7584  -13.0579 N   0  0  0  0  0  0  0  0  0  0  0  0
   29.7229  -19.9027  -12.6678 C   0  0  0  0  0  0  0  0  0  0  0  0
   30.2655  -20.5378  -11.3822 C   0  0  0  0  0  0  0  0  0  0  0  0
   29.4658  -21.8366  -11.2212 C   0  0  0  0  0  0  0  0  0  0  0  0
   28.1459  -21.3993  -11.8728 C   0  0  1  0  0  0  0  0  0  0  0  0
   27.4851  -20.4342  -10.9540 C   0  0  0  0  0  0  0  0  0  0  0  0
   27.8540  -19.2267  -10.8671 O   0  0  0  0  0  0  0  0  0  0  0  0
   26.4204  -20.8312  -10.1452 N   0  0  0  0  0  0  0  0  0  0  0  0
   25.0580  -20.2738  -10.3672 C   0  0  1  0  0  0  0  0  0  0  0  0
   24.6369  -20.5285  -11.7621 C   0  0  0  0  0  0  0  0  0  0  0  0
   23.2590  -20.1753  -12.0434 C   0  0  0  0  0  0  0  0  0  0  0  0
   22.2609  -19.7903  -11.1521 C   0  0  0  0  0  0  0  0  0  0  0  0
   21.1092  -19.5832  -11.7924 N   0  0  0  0  0  0  0  0  0  0  0  0
   21.2840  -19.8147  -13.1098 C   0  0  0  0  0  0  0  0  0  0  0  0
   20.4066  -19.7196  -14.1800 C   0  0  0  0  0  0  0  0  0  0  0  0
   20.8184  -19.9862  -15.4651 C   0  0  0  0  0  0  0  0  0  0  0  0
   22.1349  -20.3477  -15.6230 C   0  0  0  0  0  0  0  0  0  0  0  0
   23.0067  -20.4450  -14.5763 C   0  0  0  0  0  0  0  0  0  0  0  0
   22.6167  -20.1843  -13.2857 C   0  0  0  0  0  0  0  0  0  0  0  0
   24.1958  -20.8835   -9.3675 C   0  0  0  0  0  0  0  0  0  0  0  0
   23.4003  -20.2408   -8.6399 O   0  0  0  0  0  0  0  0  0  0  0  0
   24.1802  -22.2727   -9.1271 O   0  0  0  0  0  0  0  0  0  0  0  0
  2  1  1  0
  3  2  1  0
  4  3  1  0
  4  5  1  0
  5  6  1  1
  5  1  1  0
  6  7  2  0
  8 12  1  0
  8  6  1  0
  9  8  1  0
 10 11  1  0
 10  9  1  0
 11 12  1  0
 12 13  1  1
 13 15  1  0
 13 14  2  0
 15 16  1  0
 16 27  1  0
 16 17  1  6
 18 17  1  0
 19 18  2  0
 20 21  1  0
 20 19  1  0
 21 26  2  0
 22 23  2  0
 22 21  1  0
 23 24  1  0
 24 25  2  0
 26 18  1  0
 26 25  1  0
 27 28  2  0
 27 29  1  0
M  END
$$$$
