PPW.pdb
     RDKit          3D

 29 32  0  0  1  0  0  0  0  0999 V2000
   24.6795  -18.3140  -15.8092 N   0  0  0  0  0  0  0  0  0  0  0  0
   24.1160  -16.9912  -15.6230 C   0  0  0  0  0  0  0  0  0  0  0  0
   24.4788  -16.5497  -14.2376 C   0  0  0  0  0  0  0  0  0  0  0  0
   25.6505  -17.4101  -13.8515 C   0  0  0  0  0  0  0  0  0  0  0  0
   25.8728  -18.3688  -15.0012 C   0  0  1  0  0  0  0  0  0  0  0  0
   26.1775  -19.7537  -14.5373 C   0  0  0  0  0  0  0  0  0  0  0  0
   25.4532  -20.6691  -15.0171 O   0  0  0  0  0  0  0  0  0  0  0  0
   27.2024  -20.0433  -13.6232 N   0  0  0  0  0  0  0  0  0  0  0  0
   28.0021  -19.1004  -12.8982 C   0  0  0  0  0  0  0  0  0  0  0  0
   29.3076  -19.8511  -12.6104 C   0  0  0  0  0  0  0  0  0  0  0  0
   29.1588  -21.1885  -13.3462 C   0  0  0  0  0  0  0  0  0  0  0  0
   27.6359  -21.3594  -13.2480 C   0  0  1  0  0  0  0  0  0  0  0  0
   27.3055  -21.6704  -11.8314 C   0  0  0  0  0  0  0  0  0  0  0  0
   27.8831  -22.5984  -11.1935 O   0  0  0  0  0  0  0  0  0  0  0  0
   26.3348  -20.9396  -11.1466 N   0  0  0  0  0  0  0  0  0  0  0  0
   25.7947  -21.4350   -9.8509 C   0  0  1  0  0  0  0  0  0  0  0  0
   26.8909  -21.5452   -8.8638 C   0  0  0  0  0  0  0  0  0  0  0  0
   27.0509  -20.3792   -8.0170 C   0  0  0  0  0  0  0  0  0  0  0  0
   26.6059  -19.0781   -8.2360 C   0  0  0  0  0  0  0  0  0  0  0  0
   26.9826  -18.2754   -7.2394 N   0  0  0  0  0  0  0  0  0  0  0  0
   27.6791  -18.9894   -6.3312 C   0  0  0  0  0  0  0  0  0  0  0  0
   28.2591  -18.6203   -5.1264 C   0  0  0  0  0  0  0  0  0  0  0  0
   28.9122  -19.5395   -4.3386 C   0  0  0  0  0  0  0  0  0  0  0  0
   28.9548  -20.8294   -4.8109 C   0  0  0  0  0  0  0  0  0  0  0  0
   28.3878  -21.2032   -5.9957 C   0  0  0  0  0  0  0  0  0  0  0  0
   27.7320  -20.3020   -6.7979 C   0  0  0  0  0  0  0  0  0  0  0  0
   24.7402  -20.5113   -9.4643 C   0  0  0  0  0  0  0  0  0  0  0  0
   24.0351  -20.6415   -8.4342 O   0  0  0  0  0  0  0  0  0  0  0  0
   24.4154  -19.3711  -10.2275 O   0  0  0  0  0  0  0  0  0  0  0  0
  2  1  1  0
  3  2  1  0
  4  3  1  0
  4  5  1  0
  5  6  1  1
  5  1  1  0
  6  7  2  0
  8 12  1  0
  8  6  1  0
  9  8  1  0
 10 11  1  0
 10  9  1  0
 11 12  1  0
 12 13  1  1
 13 15  1  0
 13 14  2  0
 15 16  1  0
 16 27  1  0
 16 17  1  1
 18 17  1  0
 19 18  2  0
 20 21  1  0
 20 19  1  0
 21 26  2  0
 22 23  2  0
 22 21  1  0
 23 24  1  0
 24 25  2  0
 26 18  1  0
 26 25  1  0
 27 28  2  0
 27 29  1  0
M  END
$$$$
