PPW.pdb
     RDKit          3D

 29 32  0  0  1  0  0  0  0  0999 V2000
   25.5197  -17.4135  -14.5251 N   0  0  0  0  0  0  0  0  0  0  0  0
   25.2840  -16.2244  -15.3203 C   0  0  0  0  0  0  0  0  0  0  0  0
   25.4871  -16.6075  -16.7549 C   0  0  0  0  0  0  0  0  0  0  0  0
   25.3437  -18.1045  -16.7799 C   0  0  0  0  0  0  0  0  0  0  0  0
   25.1376  -18.5371  -15.3444 C   0  0  1  0  0  0  0  0  0  0  0  0
   25.9058  -19.7704  -15.0052 C   0  0  0  0  0  0  0  0  0  0  0  0
   25.5810  -20.8145  -15.6354 O   0  0  0  0  0  0  0  0  0  0  0  0
   26.9309  -19.7907  -14.0468 N   0  0  0  0  0  0  0  0  0  0  0  0
   27.4400  -18.6743  -13.3060 C   0  0  0  0  0  0  0  0  0  0  0  0
   28.8776  -19.0750  -12.9547 C   0  0  0  0  0  0  0  0  0  0  0  0
   29.0968  -20.4116  -13.6741 C   0  0  0  0  0  0  0  0  0  0  0  0
   27.6613  -20.9553  -13.6334 C   0  0  1  0  0  0  0  0  0  0  0  0
   27.3588  -21.3304  -12.2262 C   0  0  0  0  0  0  0  0  0  0  0  0
   28.1269  -22.0726  -11.5472 O   0  0  0  0  0  0  0  0  0  0  0  0
   26.2024  -20.8705  -11.5964 N   0  0  0  0  0  0  0  0  0  0  0  0
   25.9688  -21.1517  -10.1534 C   0  0  1  0  0  0  0  0  0  0  0  0
   27.0831  -20.6008   -9.3517 C   0  0  0  0  0  0  0  0  0  0  0  0
   26.8176  -20.5333   -7.9279 C   0  0  0  0  0  0  0  0  0  0  0  0
   25.6190  -20.7570   -7.2555 C   0  0  0  0  0  0  0  0  0  0  0  0
   25.7684  -20.5611   -5.9445 N   0  0  0  0  0  0  0  0  0  0  0  0
   27.0449  -20.2071   -5.6896 C   0  0  0  0  0  0  0  0  0  0  0  0
   27.6941  -19.9187   -4.4981 C   0  0  0  0  0  0  0  0  0  0  0  0
   29.0316  -19.5986   -4.4747 C   0  0  0  0  0  0  0  0  0  0  0  0
   29.6781  -19.5820   -5.6874 C   0  0  0  0  0  0  0  0  0  0  0  0
   29.0482  -19.8635   -6.8660 C   0  0  0  0  0  0  0  0  0  0  0  0
   27.7139  -20.1846   -6.9125 C   0  0  0  0  0  0  0  0  0  0  0  0
   24.6692  -20.5856   -9.8288 C   0  0  0  0  0  0  0  0  0  0  0  0
   24.0715  -20.7765   -8.7417 O   0  0  0  0  0  0  0  0  0  0  0  0
   23.9584  -19.7597  -10.7237 O   0  0  0  0  0  0  0  0  0  0  0  0
  2  1  1  0
  3  2  1  0
  4  3  1  0
  4  5  1  0
  5  6  1  1
  5  1  1  0
  6  7  2  0
  8 12  1  0
  8  6  1  0
  9  8  1  0
 10 11  1  0
 10  9  1  0
 11 12  1  0
 12 13  1  1
 13 15  1  0
 13 14  2  0
 15 16  1  0
 16 27  1  0
 16 17  1  1
 18 17  1  0
 19 18  2  0
 20 21  1  0
 20 19  1  0
 21 26  2  0
 22 23  2  0
 22 21  1  0
 23 24  1  0
 24 25  2  0
 26 18  1  0
 26 25  1  0
 27 28  2  0
 27 29  1  0
M  END
$$$$
