PPW.pdb
     RDKit          3D

 29 32  0  0  1  0  0  0  0  0999 V2000
   40.8533   -9.5619   -9.0796 N   0  0  0  0  0  0  0  0  0  0  0  0
   41.1834  -10.7214   -8.2742 C   0  0  0  0  0  0  0  0  0  0  0  0
   41.4006  -10.2361   -6.8730 C   0  0  0  0  0  0  0  0  0  0  0  0
   40.7066   -8.9030   -6.8131 C   0  0  0  0  0  0  0  0  0  0  0  0
   40.1784   -8.6343   -8.2057 C   0  0  1  0  0  0  0  0  0  0  0  0
   40.3761   -7.2165   -8.6261 C   0  0  0  0  0  0  0  0  0  0  0  0
   41.5690   -6.8045   -8.6370 O   0  0  0  0  0  0  0  0  0  0  0  0
   39.3143   -6.3744   -8.9912 N   0  0  0  0  0  0  0  0  0  0  0  0
   37.9141   -6.6710   -8.9153 C   0  0  0  0  0  0  0  0  0  0  0  0
   37.2779   -5.7785   -9.9873 C   0  0  0  0  0  0  0  0  0  0  0  0
   38.4642   -5.1071  -10.6902 C   0  0  0  0  0  0  0  0  0  0  0  0
   39.4484   -5.0439   -9.5133 C   0  0  1  0  0  0  0  0  0  0  0  0
   38.9476   -4.0192   -8.5585 C   0  0  0  0  0  0  0  0  0  0  0  0
   37.9190   -4.2086   -7.8459 O   0  0  0  0  0  0  0  0  0  0  0  0
   39.6035   -2.7969   -8.4124 N   0  0  0  0  0  0  0  0  0  0  0  0
   39.1442   -1.8136   -7.3935 C   0  0  1  0  0  0  0  0  0  0  0  0
   40.2894   -1.3891   -6.5591 C   0  0  0  0  0  0  0  0  0  0  0  0
   39.9478   -0.4460   -5.5121 C   0  0  0  0  0  0  0  0  0  0  0  0
   39.6700   -0.6986   -4.1713 C   0  0  0  0  0  0  0  0  0  0  0  0
   39.3610    0.4304   -3.5315 N   0  0  0  0  0  0  0  0  0  0  0  0
   39.4186    1.4633   -4.3973 C   0  0  0  0  0  0  0  0  0  0  0  0
   39.2045    2.8218   -4.2167 C   0  0  0  0  0  0  0  0  0  0  0  0
   39.3451    3.7100   -5.2577 C   0  0  0  0  0  0  0  0  0  0  0  0
   39.7059    3.1771   -6.4720 C   0  0  0  0  0  0  0  0  0  0  0  0
   39.9182    1.8413   -6.6607 C   0  0  0  0  0  0  0  0  0  0  0  0
   39.7828    0.9373   -5.6360 C   0  0  0  0  0  0  0  0  0  0  0  0
   38.5100   -0.7285   -8.1251 C   0  0  0  0  0  0  0  0  0  0  0  0
   38.8001   -0.4130   -9.3047 O   0  0  0  0  0  0  0  0  0  0  0  0
   37.4976    0.0745   -7.5610 O   0  0  0  0  0  0  0  0  0  0  0  0
  2  1  1  0
  3  2  1  0
  4  3  1  0
  4  5  1  0
  5  6  1  6
  5  1  1  0
  6  7  2  0
  8 12  1  0
  8  6  1  0
  9  8  1  0
 10 11  1  0
 10  9  1  0
 11 12  1  0
 12 13  1  1
 13 15  1  0
 13 14  2  0
 15 16  1  0
 16 27  1  0
 16 17  1  6
 18 17  1  0
 19 18  2  0
 20 21  1  0
 20 19  1  0
 21 26  2  0
 22 23  2  0
 22 21  1  0
 23 24  1  0
 24 25  2  0
 26 18  1  0
 26 25  1  0
 27 28  2  0
 27 29  1  0
M  END
$$$$
