PPW.pdb
     RDKit          3D

 29 32  0  0  1  0  0  0  0  0999 V2000
   25.0919  -21.8814  -16.7787 N   0  0  0  0  0  0  0  0  0  0  0  0
   23.9794  -21.2255  -17.4376 C   0  0  0  0  0  0  0  0  0  0  0  0
   23.4887  -20.1548  -16.5109 C   0  0  0  0  0  0  0  0  0  0  0  0
   24.6365  -19.8982  -15.5735 C   0  0  0  0  0  0  0  0  0  0  0  0
   25.7213  -20.8850  -15.9476 C   0  0  1  0  0  0  0  0  0  0  0  0
   26.3839  -21.4834  -14.7522 C   0  0  0  0  0  0  0  0  0  0  0  0
   26.2401  -22.7287  -14.6062 O   0  0  0  0  0  0  0  0  0  0  0  0
   27.1265  -20.7260  -13.8331 N   0  0  0  0  0  0  0  0  0  0  0  0
   27.5498  -19.3647  -13.9812 C   0  0  0  0  0  0  0  0  0  0  0  0
   28.8010  -19.2579  -13.1015 C   0  0  0  0  0  0  0  0  0  0  0  0
   29.0490  -20.6862  -12.6011 C   0  0  0  0  0  0  0  0  0  0  0  0
   27.5996  -21.1916  -12.5602 C   0  0  1  0  0  0  0  0  0  0  0  0
   26.9141  -20.5104  -11.4295 C   0  0  0  0  0  0  0  0  0  0  0  0
   26.1117  -19.5484  -11.6099 O   0  0  0  0  0  0  0  0  0  0  0  0
   27.1339  -20.9139  -10.1126 N   0  0  0  0  0  0  0  0  0  0  0  0
   26.0000  -21.3843   -9.2705 C   0  0  1  0  0  0  0  0  0  0  0  0
   26.4699  -21.6178   -7.8875 C   0  0  0  0  0  0  0  0  0  0  0  0
   27.0052  -20.4402   -7.2324 C   0  0  0  0  0  0  0  0  0  0  0  0
   26.8268  -19.1011   -7.5696 C   0  0  0  0  0  0  0  0  0  0  0  0
   27.5142  -18.3100   -6.7444 N   0  0  0  0  0  0  0  0  0  0  0  0
   28.1662  -19.0689   -5.8397 C   0  0  0  0  0  0  0  0  0  0  0  0
   28.9865  -18.7229   -4.7759 C   0  0  0  0  0  0  0  0  0  0  0  0
   29.5339  -19.6825   -3.9564 C   0  0  0  0  0  0  0  0  0  0  0  0
   29.2232  -20.9884   -4.2513 C   0  0  0  0  0  0  0  0  0  0  0  0
   28.4175  -21.3399   -5.2965 C   0  0  0  0  0  0  0  0  0  0  0  0
   27.8613  -20.3986   -6.1272 C   0  0  0  0  0  0  0  0  0  0  0  0
   24.9593  -20.3746   -9.3800 C   0  0  0  0  0  0  0  0  0  0  0  0
   25.1378  -19.2317   -9.8669 O   0  0  0  0  0  0  0  0  0  0  0  0
   23.6382  -20.5985   -8.9408 O   0  0  0  0  0  0  0  0  0  0  0  0
  2  1  1  0
  3  2  1  0
  4  3  1  0
  4  5  1  0
  5  6  1  1
  5  1  1  0
  6  7  2  0
  8 12  1  0
  8  6  1  0
  9  8  1  0
 10 11  1  0
 10  9  1  0
 11 12  1  0
 12 13  1  1
 13 15  1  0
 13 14  2  0
 15 16  1  0
 16 27  1  0
 16 17  1  1
 18 17  1  0
 19 18  2  0
 20 21  1  0
 20 19  1  0
 21 26  2  0
 22 23  2  0
 22 21  1  0
 23 24  1  0
 24 25  2  0
 26 18  1  0
 26 25  1  0
 27 28  2  0
 27 29  1  0
M  END
$$$$
