PPW.pdb
     RDKit          3D

 29 32  0  0  1  0  0  0  0  0999 V2000
   25.2529  -18.0361  -15.8846 N   0  0  0  0  0  0  0  0  0  0  0  0
   24.6418  -16.7278  -15.7546 C   0  0  0  0  0  0  0  0  0  0  0  0
   24.7502  -16.3331  -14.3129 C   0  0  0  0  0  0  0  0  0  0  0  0
   25.8524  -17.1931  -13.7580 C   0  0  0  0  0  0  0  0  0  0  0  0
   26.2884  -18.1063  -14.8833 C   0  0  1  0  0  0  0  0  0  0  0  0
   26.5328  -19.5035  -14.4207 C   0  0  0  0  0  0  0  0  0  0  0  0
   25.8757  -20.4043  -15.0119 O   0  0  0  0  0  0  0  0  0  0  0  0
   27.4340  -19.8195  -13.3921 N   0  0  0  0  0  0  0  0  0  0  0  0
   28.1371  -18.8977  -12.5493 C   0  0  0  0  0  0  0  0  0  0  0  0
   29.3950  -19.6607  -12.1178 C   0  0  0  0  0  0  0  0  0  0  0  0
   29.3385  -20.9793  -12.8989 C   0  0  0  0  0  0  0  0  0  0  0  0
   27.8152  -21.1460  -12.9975 C   0  0  1  0  0  0  0  0  0  0  0  0
   27.3085  -21.4896  -11.6418 C   0  0  0  0  0  0  0  0  0  0  0  0
   27.6762  -22.5350  -11.0306 O   0  0  0  0  0  0  0  0  0  0  0  0
   26.3984  -20.6598  -10.9872 N   0  0  0  0  0  0  0  0  0  0  0  0
   25.6444  -21.1558   -9.8033 C   0  0  1  0  0  0  0  0  0  0  0  0
   26.5899  -21.5014   -8.7196 C   0  0  0  0  0  0  0  0  0  0  0  0
   26.9710  -20.3820   -7.8804 C   0  0  0  0  0  0  0  0  0  0  0  0
   26.7470  -19.0236   -8.0888 C   0  0  0  0  0  0  0  0  0  0  0  0
   27.2842  -18.2995   -7.1057 N   0  0  0  0  0  0  0  0  0  0  0  0
   27.8762  -19.1241   -6.2173 C   0  0  0  0  0  0  0  0  0  0  0  0
   28.5463  -18.8623   -5.0313 C   0  0  0  0  0  0  0  0  0  0  0  0
   29.0571  -19.8814   -4.2614 C   0  0  0  0  0  0  0  0  0  0  0  0
   28.8659  -21.1585   -4.7319 C   0  0  0  0  0  0  0  0  0  0  0  0
   28.2084  -21.4270   -5.8984 C   0  0  0  0  0  0  0  0  0  0  0  0
   27.6914  -20.4252   -6.6825 C   0  0  0  0  0  0  0  0  0  0  0  0
   24.6965  -20.1107   -9.4514 C   0  0  0  0  0  0  0  0  0  0  0  0
   24.6771  -18.9727   -9.9806 O   0  0  0  0  0  0  0  0  0  0  0  0
   23.7014  -20.2908   -8.4689 O   0  0  0  0  0  0  0  0  0  0  0  0
  2  1  1  0
  3  2  1  0
  4  3  1  0
  4  5  1  0
  5  6  1  1
  5  1  1  0
  6  7  2  0
  8 12  1  0
  8  6  1  0
  9  8  1  0
 10 11  1  0
 10  9  1  0
 11 12  1  0
 12 13  1  1
 13 15  1  0
 13 14  2  0
 15 16  1  0
 16 27  1  0
 16 17  1  1
 18 17  1  0
 19 18  2  0
 20 21  1  0
 20 19  1  0
 21 26  2  0
 22 23  2  0
 22 21  1  0
 23 24  1  0
 24 25  2  0
 26 18  1  0
 26 25  1  0
 27 28  2  0
 27 29  1  0
M  END
$$$$
