PPW.pdb
     RDKit          3D

 29 32  0  0  1  0  0  0  0  0999 V2000
   25.0797  -16.7603  -16.8498 N   0  0  0  0  0  0  0  0  0  0  0  0
   24.3264  -15.6331  -16.3361 C   0  0  0  0  0  0  0  0  0  0  0  0
   24.2218  -15.8137  -14.8520 C   0  0  0  0  0  0  0  0  0  0  0  0
   25.3329  -16.7639  -14.4985 C   0  0  0  0  0  0  0  0  0  0  0  0
   25.9908  -17.1554  -15.8040 C   0  0  1  0  0  0  0  0  0  0  0  0
   26.3208  -18.6092  -15.8621 C   0  0  0  0  0  0  0  0  0  0  0  0
   25.8139  -19.2531  -16.8218 O   0  0  0  0  0  0  0  0  0  0  0  0
   27.1428  -19.2427  -14.9171 N   0  0  0  0  0  0  0  0  0  0  0  0
   27.7018  -18.6600  -13.7330 C   0  0  0  0  0  0  0  0  0  0  0  0
   28.9630  -19.4881  -13.4607 C   0  0  0  0  0  0  0  0  0  0  0  0
   29.0673  -20.4440  -14.6555 C   0  0  0  0  0  0  0  0  0  0  0  0
   27.5742  -20.6107  -14.9729 C   0  0  1  0  0  0  0  0  0  0  0  0
   26.9692  -21.4289  -13.8880 C   0  0  0  0  0  0  0  0  0  0  0  0
   27.3468  -22.6126  -13.6470 O   0  0  0  0  0  0  0  0  0  0  0  0
   25.9509  -20.9131  -13.0866 N   0  0  0  0  0  0  0  0  0  0  0  0
   25.3693  -21.7326  -11.9884 C   0  0  1  0  0  0  0  0  0  0  0  0
   26.3872  -21.9522  -10.9379 C   0  0  0  0  0  0  0  0  0  0  0  0
   26.3651  -20.9706   -9.8710 C   0  0  0  0  0  0  0  0  0  0  0  0
   25.3391  -20.1007   -9.5112 C   0  0  0  0  0  0  0  0  0  0  0  0
   25.7146  -19.3207   -8.4963 N   0  0  0  0  0  0  0  0  0  0  0  0
   26.9789  -19.6292   -8.1412 C   0  0  0  0  0  0  0  0  0  0  0  0
   27.7990  -19.1222   -7.1440 C   0  0  0  0  0  0  0  0  0  0  0  0
   29.0681  -19.6144   -6.9461 C   0  0  0  0  0  0  0  0  0  0  0  0
   29.4696  -20.6262   -7.7852 C   0  0  0  0  0  0  0  0  0  0  0  0
   28.6705  -21.1319   -8.7705 C   0  0  0  0  0  0  0  0  0  0  0  0
   27.4009  -20.6549   -8.9859 C   0  0  0  0  0  0  0  0  0  0  0  0
   24.1862  -21.0236  -11.5277 C   0  0  0  0  0  0  0  0  0  0  0  0
   23.3382  -21.5095  -10.7403 O   0  0  0  0  0  0  0  0  0  0  0  0
   23.8867  -19.7070  -11.9339 O   0  0  0  0  0  0  0  0  0  0  0  0
  2  1  1  0
  3  2  1  0
  4  3  1  0
  4  5  1  0
  5  6  1  1
  5  1  1  0
  6  7  2  0
  8 12  1  0
  8  6  1  0
  9  8  1  0
 10 11  1  0
 10  9  1  0
 11 12  1  0
 12 13  1  1
 13 15  1  0
 13 14  2  0
 15 16  1  0
 16 27  1  0
 16 17  1  1
 18 17  1  0
 19 18  2  0
 20 21  1  0
 20 19  1  0
 21 26  2  0
 22 23  2  0
 22 21  1  0
 23 24  1  0
 24 25  2  0
 26 18  1  0
 26 25  1  0
 27 28  2  0
 27 29  1  0
M  END
$$$$
