PPW.pdb
     RDKit          3D

 29 32  0  0  1  0  0  0  0  0999 V2000
   28.1686  -20.5233  -14.9431 N   0  0  0  0  0  0  0  0  0  0  0  0
   28.6892  -19.2961  -15.5132 C   0  0  0  0  0  0  0  0  0  0  0  0
   27.8840  -18.1691  -14.9409 C   0  0  0  0  0  0  0  0  0  0  0  0
   27.2627  -18.7323  -13.6923 C   0  0  0  0  0  0  0  0  0  0  0  0
   27.6729  -20.1878  -13.6311 C   0  0  1  0  0  0  0  0  0  0  0  0
   26.5534  -21.0777  -13.2059 C   0  0  0  0  0  0  0  0  0  0  0  0
   26.3874  -22.1235  -13.8925 O   0  0  0  0  0  0  0  0  0  0  0  0
   25.7229  -20.7885  -12.1120 N   0  0  0  0  0  0  0  0  0  0  0  0
   25.7998  -19.6458  -11.2503 C   0  0  0  0  0  0  0  0  0  0  0  0
   25.1822  -20.1228   -9.9305 C   0  0  0  0  0  0  0  0  0  0  0  0
   24.9044  -21.6155  -10.1469 C   0  0  0  0  0  0  0  0  0  0  0  0
   24.6308  -21.6020  -11.6578 C   0  0  1  0  0  0  0  0  0  0  0  0
   23.3168  -20.9393  -11.8742 C   0  0  0  0  0  0  0  0  0  0  0  0
   22.8382  -20.1075  -11.0491 O   0  0  0  0  0  0  0  0  0  0  0  0
   22.5557  -21.2145  -13.0102 N   0  0  0  0  0  0  0  0  0  0  0  0
   21.2782  -20.4902  -13.2538 C   0  0  1  0  0  0  0  0  0  0  0  0
   21.5116  -19.3701  -14.1913 C   0  0  0  0  0  0  0  0  0  0  0  0
   22.5716  -19.6068  -15.1518 C   0  0  0  0  0  0  0  0  0  0  0  0
   22.8524  -20.7674  -15.8681 C   0  0  0  0  0  0  0  0  0  0  0  0
   23.9367  -20.6037  -16.6276 N   0  0  0  0  0  0  0  0  0  0  0  0
   24.4161  -19.3545  -16.4564 C   0  0  0  0  0  0  0  0  0  0  0  0
   25.4985  -18.7031  -17.0294 C   0  0  0  0  0  0  0  0  0  0  0  0
   25.7904  -17.3956  -16.7171 C   0  0  0  0  0  0  0  0  0  0  0  0
   24.9556  -16.7812  -15.8147 C   0  0  0  0  0  0  0  0  0  0  0  0
   23.8879  -17.4136  -15.2442 C   0  0  0  0  0  0  0  0  0  0  0  0
   23.5790  -18.7182  -15.5410 C   0  0  0  0  0  0  0  0  0  0  0  0
   20.3295  -21.4801  -13.7381 C   0  0  0  0  0  0  0  0  0  0  0  0
   20.6315  -22.6668  -14.0135 O   0  0  0  0  0  0  0  0  0  0  0  0
   18.9659  -21.1851  -13.9425 O   0  0  0  0  0  0  0  0  0  0  0  0
  2  1  1  0
  3  2  1  0
  4  3  1  0
  4  5  1  0
  5  6  1  6
  5  1  1  0
  6  7  2  0
  8 12  1  0
  8  6  1  0
  9  8  1  0
 10 11  1  0
 10  9  1  0
 11 12  1  0
 12 13  1  1
 13 15  1  0
 13 14  2  0
 15 16  1  0
 16 27  1  0
 16 17  1  6
 18 17  1  0
 19 18  2  0
 20 21  1  0
 20 19  1  0
 21 26  2  0
 22 23  2  0
 22 21  1  0
 23 24  1  0
 24 25  2  0
 26 18  1  0
 26 25  1  0
 27 28  2  0
 27 29  1  0
M  END
$$$$
