PPW.pdb
     RDKit          3D

 29 32  0  0  1  0  0  0  0  0999 V2000
   31.9504  -20.9463  -10.7996 N   0  0  0  0  0  0  0  0  0  0  0  0
   32.6047  -22.1774  -10.4019 C   0  0  0  0  0  0  0  0  0  0  0  0
   31.5702  -23.2607  -10.4501 C   0  0  0  0  0  0  0  0  0  0  0  0
   30.4880  -22.7228  -11.3455 C   0  0  0  0  0  0  0  0  0  0  0  0
   30.9043  -21.3170  -11.7205 C   0  0  1  0  0  0  0  0  0  0  0  0
   29.7617  -20.3580  -11.6928 C   0  0  0  0  0  0  0  0  0  0  0  0
   29.7795  -19.5038  -10.7640 O   0  0  0  0  0  0  0  0  0  0  0  0
   28.7195  -20.3865  -12.6326 N   0  0  0  0  0  0  0  0  0  0  0  0
   28.5813  -21.2872  -13.7388 C   0  0  0  0  0  0  0  0  0  0  0  0
   27.7305  -20.5149  -14.7538 C   0  0  0  0  0  0  0  0  0  0  0  0
   27.5558  -19.1218  -14.1366 C   0  0  0  0  0  0  0  0  0  0  0  0
   27.5890  -19.5019  -12.6492 C   0  0  1  0  0  0  0  0  0  0  0  0
   26.3215  -20.2142  -12.3353 C   0  0  0  0  0  0  0  0  0  0  0  0
   25.9339  -21.2216  -12.9961 O   0  0  0  0  0  0  0  0  0  0  0  0
   25.5046  -19.7916  -11.2867 N   0  0  0  0  0  0  0  0  0  0  0  0
   25.5382  -20.4961   -9.9758 C   0  0  1  0  0  0  0  0  0  0  0  0
   26.5656  -19.8824   -9.1065 C   0  0  0  0  0  0  0  0  0  0  0  0
   26.5239  -20.3278   -7.7273 C   0  0  0  0  0  0  0  0  0  0  0  0
   25.6503  -21.2344   -7.1325 C   0  0  0  0  0  0  0  0  0  0  0  0
   25.9087  -21.3549   -5.8294 N   0  0  0  0  0  0  0  0  0  0  0  0
   26.9435  -20.5529   -5.5044 C   0  0  0  0  0  0  0  0  0  0  0  0
   27.5916  -20.3394   -4.2967 C   0  0  0  0  0  0  0  0  0  0  0  0
   28.6588  -19.4765   -4.2034 C   0  0  0  0  0  0  0  0  0  0  0  0
   29.0395  -18.8466   -5.3641 C   0  0  0  0  0  0  0  0  0  0  0  0
   28.4078  -19.0491   -6.5578 C   0  0  0  0  0  0  0  0  0  0  0  0
   27.3404  -19.9052   -6.6733 C   0  0  0  0  0  0  0  0  0  0  0  0
   24.1891  -20.4281   -9.4372 C   0  0  0  0  0  0  0  0  0  0  0  0
   23.8004  -21.0723   -8.4326 O   0  0  0  0  0  0  0  0  0  0  0  0
   23.1861  -19.6181  -10.0083 O   0  0  0  0  0  0  0  0  0  0  0  0
  2  1  1  0
  3  2  1  0
  4  3  1  0
  4  5  1  0
  5  6  1  1
  5  1  1  0
  6  7  2  0
  8 12  1  0
  8  6  1  0
  9  8  1  0
 10 11  1  0
 10  9  1  0
 11 12  1  0
 12 13  1  6
 13 15  1  0
 13 14  2  0
 15 16  1  0
 16 27  1  0
 16 17  1  1
 18 17  1  0
 19 18  2  0
 20 21  1  0
 20 19  1  0
 21 26  2  0
 22 23  2  0
 22 21  1  0
 23 24  1  0
 24 25  2  0
 26 18  1  0
 26 25  1  0
 27 28  2  0
 27 29  1  0
M  END
$$$$
