PPW.pdb
     RDKit          3D

 29 32  0  0  1  0  0  0  0  0999 V2000
   25.0440  -17.9344  -14.1125 N   0  0  0  0  0  0  0  0  0  0  0  0
   25.2962  -16.5076  -14.1621 C   0  0  0  0  0  0  0  0  0  0  0  0
   26.7793  -16.3269  -14.2790 C   0  0  0  0  0  0  0  0  0  0  0  0
   27.2906  -17.6450  -14.7922 C   0  0  0  0  0  0  0  0  0  0  0  0
   26.0904  -18.5626  -14.8809 C   0  0  1  0  0  0  0  0  0  0  0  0
   26.3920  -19.9429  -14.4015 C   0  0  0  0  0  0  0  0  0  0  0  0
   25.6893  -20.8662  -14.8980 O   0  0  0  0  0  0  0  0  0  0  0  0
   27.3917  -20.2203  -13.4563 N   0  0  0  0  0  0  0  0  0  0  0  0
   28.1541  -19.2680  -12.7039 C   0  0  0  0  0  0  0  0  0  0  0  0
   29.4608  -20.0003  -12.3769 C   0  0  0  0  0  0  0  0  0  0  0  0
   29.3551  -21.3374  -13.1205 C   0  0  0  0  0  0  0  0  0  0  0  0
   27.8326  -21.5310  -13.0709 C   0  0  1  0  0  0  0  0  0  0  0  0
   27.4623  -21.8511  -11.6663 C   0  0  0  0  0  0  0  0  0  0  0  0
   28.0600  -22.7455  -10.9996 O   0  0  0  0  0  0  0  0  0  0  0  0
   26.4295  -21.1669  -11.0254 N   0  0  0  0  0  0  0  0  0  0  0  0
   26.0091  -21.5547   -9.6511 C   0  0  1  0  0  0  0  0  0  0  0  0
   27.1670  -21.4726   -8.7342 C   0  0  0  0  0  0  0  0  0  0  0  0
   27.2182  -20.2575   -7.9448 C   0  0  0  0  0  0  0  0  0  0  0  0
   26.6281  -19.0241   -8.2084 C   0  0  0  0  0  0  0  0  0  0  0  0
   26.9379  -18.1392   -7.2596 N   0  0  0  0  0  0  0  0  0  0  0  0
   27.7298  -18.7297   -6.3410 C   0  0  0  0  0  0  0  0  0  0  0  0
   28.2942  -18.2434   -5.1709 C   0  0  0  0  0  0  0  0  0  0  0  0
   29.0627  -19.0481   -4.3621 C   0  0  0  0  0  0  0  0  0  0  0  0
   29.2353  -20.3466   -4.7778 C   0  0  0  0  0  0  0  0  0  0  0  0
   28.6848  -20.8352   -5.9282 C   0  0  0  0  0  0  0  0  0  0  0  0
   27.9153  -20.0494   -6.7504 C   0  0  0  0  0  0  0  0  0  0  0  0
   24.9073  -20.6753   -9.2940 C   0  0  0  0  0  0  0  0  0  0  0  0
   24.2474  -20.7722   -8.2309 O   0  0  0  0  0  0  0  0  0  0  0  0
   24.4801  -19.6208  -10.1269 O   0  0  0  0  0  0  0  0  0  0  0  0
  2  1  1  0
  3  2  1  0
  4  3  1  0
  4  5  1  0
  5  6  1  1
  5  1  1  0
  6  7  2  0
  8 12  1  0
  8  6  1  0
  9  8  1  0
 10 11  1  0
 10  9  1  0
 11 12  1  0
 12 13  1  1
 13 15  1  0
 13 14  2  0
 15 16  1  0
 16 27  1  0
 16 17  1  1
 18 17  1  0
 19 18  2  0
 20 21  1  0
 20 19  1  0
 21 26  2  0
 22 23  2  0
 22 21  1  0
 23 24  1  0
 24 25  2  0
 26 18  1  0
 26 25  1  0
 27 28  2  0
 27 29  1  0
M  END
$$$$
