NAD.pdb
     RDKit          3D

 22 21  0  0  1  0  0  0  0  0999 V2000
   16.7462  -11.3446  -19.0690 N   0  0  0  0  0  0  0  0  0  0  0  0
   16.5936  -10.5035  -17.9740 C   0  0  0  0  0  0  0  0  0  0  0  0
   15.4550   -9.9492  -17.7809 O   0  0  0  0  0  0  0  0  0  0  0  0
   17.6376  -10.1855  -16.9975 C   0  0  0  0  0  0  0  0  0  0  0  0
   18.9366  -10.8779  -17.3269 C   0  0  2  0  0  0  0  0  0  0  0  0
   18.8793  -12.2642  -16.8258 N   0  0  0  0  0  0  0  0  0  0  0  0
   20.0684  -10.1864  -16.6223 C   0  0  0  0  0  0  0  0  0  0  0  0
   20.1691  -10.0742  -15.3882 O   0  0  0  0  0  0  0  0  0  0  0  0
   23.3049   -8.9043  -17.9807 C   0  0  0  0  0  0  0  0  0  0  0  0
   22.2503   -8.9283  -16.8653 C   0  0  2  0  0  0  0  0  0  0  0  0
   21.1046   -9.6144  -17.4288 N   0  0  0  0  0  0  0  0  0  0  0  0
   21.7830   -7.5531  -16.5401 C   0  0  0  0  0  0  0  0  0  0  0  0
   20.8481   -6.9783  -17.2012 O   0  0  0  0  0  0  0  0  0  0  0  0
   22.3243   -6.7727  -15.4875 N   0  0  0  0  0  0  0  0  0  0  0  0
   21.8725   -5.3932  -15.2626 C   0  0  1  0  0  0  0  0  0  0  0  0
   22.1202   -4.9482  -13.8619 C   0  0  0  0  0  0  0  0  0  0  0  0
   21.5579   -3.5867  -13.6740 C   0  0  0  0  0  0  0  0  0  0  0  0
   20.7769   -3.0506  -14.5180 O   0  0  0  0  0  0  0  0  0  0  0  0
   22.7425   -4.5686  -16.1676 C   0  0  0  0  0  0  0  0  0  0  0  0
   22.2771   -3.4724  -16.8715 O   0  0  0  0  0  0  0  0  0  0  0  0
   21.8435   -2.7910  -12.5622 O   0  0  0  0  0  0  0  0  0  0  0  0
   23.9760   -4.8320  -16.3442 O   0  0  0  0  0  0  0  0  0  0  0  0
  2  1  1  0
  3  2  2  0
  4  5  1  0
  4  2  1  0
  5  6  1  1
  7 11  1  0
  7  5  1  0
  8  7  2  0
 10 12  1  0
 10  9  1  6
 10 11  1  0
 12 14  1  0
 13 12  2  0
 14 15  1  0
 15 16  1  1
 16 17  1  0
 17 21  1  0
 18 17  2  0
 19 20  1  0
 19 15  1  0
 22 19  2  0
M  END
$$$$
