NAD.pdb
     RDKit          3D

 22 21  0  0  1  0  0  0  0  0999 V2000
   43.6677  -10.7884   -3.4771 N   0  0  0  0  0  0  0  0  0  0  0  0
   43.2595   -9.5284   -3.8960 C   0  0  0  0  0  0  0  0  0  0  0  0
   43.2455   -8.5734   -3.0423 O   0  0  0  0  0  0  0  0  0  0  0  0
   42.8346   -9.1832   -5.2544 C   0  0  0  0  0  0  0  0  0  0  0  0
   42.8400  -10.3880   -6.1618 C   0  0  2  0  0  0  0  0  0  0  0  0
   44.2368  -10.7405   -6.4794 N   0  0  0  0  0  0  0  0  0  0  0  0
   42.1521  -10.0488   -7.4531 C   0  0  0  0  0  0  0  0  0  0  0  0
   42.6735   -9.4129   -8.3855 O   0  0  0  0  0  0  0  0  0  0  0  0
   38.7791  -11.0740   -8.7291 C   0  0  0  0  0  0  0  0  0  0  0  0
   40.0029  -10.1486   -8.7847 C   0  0  2  0  0  0  0  0  0  0  0  0
   40.7992  -10.4875   -7.6220 N   0  0  0  0  0  0  0  0  0  0  0  0
   39.6065   -8.7250   -8.6069 C   0  0  0  0  0  0  0  0  0  0  0  0
   39.4693   -8.1968   -7.4477 O   0  0  0  0  0  0  0  0  0  0  0  0
   39.3501   -7.8447   -9.6883 N   0  0  0  0  0  0  0  0  0  0  0  0
   38.9960   -6.4394   -9.4487 C   0  0  1  0  0  0  0  0  0  0  0  0
   40.1241   -5.6772   -8.8423 C   0  0  0  0  0  0  0  0  0  0  0  0
   39.6561   -5.0184   -7.5964 C   0  0  0  0  0  0  0  0  0  0  0  0
   38.5073   -4.4892   -7.4967 O   0  0  0  0  0  0  0  0  0  0  0  0
   38.7503   -5.8823  -10.8218 C   0  0  0  0  0  0  0  0  0  0  0  0
   37.5060   -5.8813  -11.4261 O   0  0  0  0  0  0  0  0  0  0  0  0
   40.4383   -4.9263   -6.4430 O   0  0  0  0  0  0  0  0  0  0  0  0
   39.6840   -5.3714  -11.5213 O   0  0  0  0  0  0  0  0  0  0  0  0
  2  1  1  0
  3  2  2  0
  4  5  1  0
  4  2  1  0
  5  6  1  6
  7 11  1  0
  7  5  1  0
  8  7  2  0
 10 12  1  0
 10  9  1  1
 10 11  1  0
 12 14  1  0
 13 12  2  0
 14 15  1  0
 15 16  1  6
 16 17  1  0
 17 21  1  0
 18 17  2  0
 19 20  1  0
 19 15  1  0
 22 19  2  0
M  END
$$$$
