NAD.pdb
     RDKit          3D

 22 21  0  0  1  0  0  0  0  0999 V2000
   17.1001  -12.1591  -18.2376 N   0  0  0  0  0  0  0  0  0  0  0  0
   16.7447  -10.9507  -17.6518 C   0  0  0  0  0  0  0  0  0  0  0  0
   15.6167  -10.4280  -17.9609 O   0  0  0  0  0  0  0  0  0  0  0  0
   17.5586  -10.2026  -16.6912 C   0  0  0  0  0  0  0  0  0  0  0  0
   18.8472  -10.9206  -16.3760 C   0  0  2  0  0  0  0  0  0  0  0  0
   18.5437  -12.1078  -15.5546 N   0  0  0  0  0  0  0  0  0  0  0  0
   19.7383  -10.0232  -15.5660 C   0  0  0  0  0  0  0  0  0  0  0  0
   19.4208   -9.5042  -14.4818 O   0  0  0  0  0  0  0  0  0  0  0  0
   23.3193   -9.0533  -16.1482 C   0  0  0  0  0  0  0  0  0  0  0  0
   21.9927   -8.8874  -15.3935 C   0  0  2  0  0  0  0  0  0  0  0  0
   21.0461   -9.7443  -16.0792 N   0  0  0  0  0  0  0  0  0  0  0  0
   21.4658   -7.5025  -15.5342 C   0  0  0  0  0  0  0  0  0  0  0  0
   20.8078   -7.1268  -16.5673 O   0  0  0  0  0  0  0  0  0  0  0  0
   21.6446   -6.4953  -14.5525 N   0  0  0  0  0  0  0  0  0  0  0  0
   21.1723   -5.1239  -14.7849 C   0  0  1  0  0  0  0  0  0  0  0  0
   19.7442   -4.9537  -14.3940 C   0  0  0  0  0  0  0  0  0  0  0  0
   19.3465   -3.5374  -14.5965 C   0  0  0  0  0  0  0  0  0  0  0  0
   19.3385   -2.9899  -15.7411 O   0  0  0  0  0  0  0  0  0  0  0  0
   22.0056   -4.2855  -13.8582 C   0  0  0  0  0  0  0  0  0  0  0  0
   22.8442   -4.8242  -12.8989 O   0  0  0  0  0  0  0  0  0  0  0  0
   18.9548   -2.6988  -13.5506 O   0  0  0  0  0  0  0  0  0  0  0  0
   21.9902   -3.0126  -13.8997 O   0  0  0  0  0  0  0  0  0  0  0  0
  2  1  1  0
  3  2  2  0
  4  5  1  0
  4  2  1  0
  5  6  1  1
  7 11  1  0
  7  5  1  0
  8  7  2  0
 10 12  1  0
 10  9  1  6
 10 11  1  0
 12 14  1  0
 13 12  2  0
 14 15  1  0
 15 16  1  1
 16 17  1  0
 17 21  1  0
 18 17  2  0
 19 20  1  0
 19 15  1  0
 22 19  2  0
M  END
$$$$
