NAD.pdb
     RDKit          3D

 22 21  0  0  1  0  0  0  0  0999 V2000
   15.4684  -13.1903  -17.0381 N   0  0  0  0  0  0  0  0  0  0  0  0
   15.7348  -12.1087  -16.2082 C   0  0  0  0  0  0  0  0  0  0  0  0
   14.7586  -11.5550  -15.5906 O   0  0  0  0  0  0  0  0  0  0  0  0
   17.0587  -11.5304  -15.9682 C   0  0  0  0  0  0  0  0  0  0  0  0
   18.1296  -12.2490  -16.7505 C   0  0  2  0  0  0  0  0  0  0  0  0
   18.2702  -13.6186  -16.2207 N   0  0  0  0  0  0  0  0  0  0  0  0
   19.4458  -11.5510  -16.5607 C   0  0  0  0  0  0  0  0  0  0  0  0
   20.0910  -11.5366  -15.4981 O   0  0  0  0  0  0  0  0  0  0  0  0
   21.6454   -9.8720  -19.0866 C   0  0  0  0  0  0  0  0  0  0  0  0
   21.2626  -10.1485  -17.6258 C   0  0  2  0  0  0  0  0  0  0  0  0
   19.9961  -10.8510  -17.6826 N   0  0  0  0  0  0  0  0  0  0  0  0
   20.9937   -8.8810  -16.8932 C   0  0  0  0  0  0  0  0  0  0  0  0
   19.8244   -8.3600  -16.8421 O   0  0  0  0  0  0  0  0  0  0  0  0
   21.9931   -8.1523  -16.2003 N   0  0  0  0  0  0  0  0  0  0  0  0
   21.6695   -6.8946  -15.5138 C   0  0  1  0  0  0  0  0  0  0  0  0
   22.5611   -6.6541  -14.3441 C   0  0  0  0  0  0  0  0  0  0  0  0
   22.2102   -5.3529  -13.7204 C   0  0  0  0  0  0  0  0  0  0  0  0
   21.3041   -5.2431  -12.8390 O   0  0  0  0  0  0  0  0  0  0  0  0
   21.9562   -5.8326  -16.5366 C   0  0  0  0  0  0  0  0  0  0  0  0
   21.3192   -4.6048  -16.5511 O   0  0  0  0  0  0  0  0  0  0  0  0
   22.8426   -4.1530  -14.0534 O   0  0  0  0  0  0  0  0  0  0  0  0
   22.8133   -6.0004  -17.4637 O   0  0  0  0  0  0  0  0  0  0  0  0
  2  1  1  0
  3  2  2  0
  4  5  1  0
  4  2  1  0
  5  6  1  1
  7 11  1  0
  7  5  1  0
  8  7  2  0
 10 12  1  0
 10  9  1  6
 10 11  1  0
 12 14  1  0
 13 12  2  0
 14 15  1  0
 15 16  1  1
 16 17  1  0
 17 21  1  0
 18 17  2  0
 19 20  1  0
 19 15  1  0
 22 19  2  0
M  END
$$$$
