NAD.pdb
     RDKit          3D

 22 21  0  0  1  0  0  0  0  0999 V2000
   14.8047  -13.1713  -10.4653 N   0  0  0  0  0  0  0  0  0  0  0  0
   15.9206  -12.6829  -11.1329 C   0  0  0  0  0  0  0  0  0  0  0  0
   16.7735  -13.5197  -11.5949 O   0  0  0  0  0  0  0  0  0  0  0  0
   16.2185  -11.2676  -11.3632 C   0  0  0  0  0  0  0  0  0  0  0  0
   15.1722  -10.3719  -10.7482 C   0  0  2  0  0  0  0  0  0  0  0  0
   13.8954  -10.5704  -11.4600 N   0  0  0  0  0  0  0  0  0  0  0  0
   15.5725   -8.9352  -10.9250 C   0  0  0  0  0  0  0  0  0  0  0  0
   15.5973   -8.3378  -12.0150 O   0  0  0  0  0  0  0  0  0  0  0  0
   16.3587   -6.3360   -8.3391 C   0  0  0  0  0  0  0  0  0  0  0  0
   16.3627   -6.8117   -9.7988 C   0  0  2  0  0  0  0  0  0  0  0  0
   15.9539   -8.2015   -9.7556 N   0  0  0  0  0  0  0  0  0  0  0  0
   17.7416   -6.8091  -10.3593 C   0  0  0  0  0  0  0  0  0  0  0  0
   18.5946   -7.7206  -10.0711 O   0  0  0  0  0  0  0  0  0  0  0  0
   18.2224   -5.8130  -11.2463 N   0  0  0  0  0  0  0  0  0  0  0  0
   19.5574   -5.9215  -11.8494 C   0  0  1  0  0  0  0  0  0  0  0  0
   19.6862   -7.1386  -12.6999 C   0  0  0  0  0  0  0  0  0  0  0  0
   21.0187   -7.1391  -13.3554 C   0  0  0  0  0  0  0  0  0  0  0  0
   22.0956   -6.9635  -12.7080 O   0  0  0  0  0  0  0  0  0  0  0  0
   19.6546   -4.7211  -12.7469 C   0  0  0  0  0  0  0  0  0  0  0  0
   18.5502   -4.1018  -13.3041 O   0  0  0  0  0  0  0  0  0  0  0  0
   21.1926   -7.3285  -14.7282 O   0  0  0  0  0  0  0  0  0  0  0  0
   20.7731   -4.1946  -13.0534 O   0  0  0  0  0  0  0  0  0  0  0  0
  2  1  1  0
  3  2  2  0
  4  5  1  0
  4  2  1  0
  5  6  1  6
  7 11  1  0
  7  5  1  0
  8  7  2  0
 10 12  1  0
 10  9  1  1
 10 11  1  0
 12 14  1  0
 13 12  2  0
 14 15  1  0
 15 16  1  6
 16 17  1  0
 17 21  1  0
 18 17  2  0
 19 20  1  0
 19 15  1  0
 22 19  2  0
M  END
$$$$
