NAD.pdb
     RDKit          3D

 22 21  0  0  1  0  0  0  0  0999 V2000
   17.8917  -12.4495  -18.8412 N   0  0  0  0  0  0  0  0  0  0  0  0
   17.6374  -12.6268  -17.4871 C   0  0  0  0  0  0  0  0  0  0  0  0
   16.7737  -13.5051  -17.1355 O   0  0  0  0  0  0  0  0  0  0  0  0
   18.2807  -11.8860  -16.3998 C   0  0  0  0  0  0  0  0  0  0  0  0
   19.2430  -10.8503  -16.9257 C   0  0  2  0  0  0  0  0  0  0  0  0
   20.4518  -11.5319  -17.4259 N   0  0  0  0  0  0  0  0  0  0  0  0
   19.6640   -9.9406  -15.8074 C   0  0  0  0  0  0  0  0  0  0  0  0
   18.8811   -9.2977  -15.0867 O   0  0  0  0  0  0  0  0  0  0  0  0
   23.0357   -9.5240  -14.2513 C   0  0  0  0  0  0  0  0  0  0  0  0
   21.5924   -9.0366  -14.4411 C   0  0  2  0  0  0  0  0  0  0  0  0
   21.0669   -9.8025  -15.5537 N   0  0  0  0  0  0  0  0  0  0  0  0
   21.5603   -7.6130  -14.8745 C   0  0  0  0  0  0  0  0  0  0  0  0
   21.8495   -7.2598  -16.0716 O   0  0  0  0  0  0  0  0  0  0  0  0
   21.2130   -6.5418  -14.0130 N   0  0  0  0  0  0  0  0  0  0  0  0
   21.1812   -5.1583  -14.5055 C   0  0  1  0  0  0  0  0  0  0  0  0
   19.8895   -4.4852  -14.1899 C   0  0  0  0  0  0  0  0  0  0  0  0
   18.8267   -5.0254  -15.0753 C   0  0  0  0  0  0  0  0  0  0  0  0
   19.0175   -5.2480  -16.3097 O   0  0  0  0  0  0  0  0  0  0  0  0
   22.2629   -4.4654  -13.7271 C   0  0  0  0  0  0  0  0  0  0  0  0
   22.7060   -3.1882  -14.0202 O   0  0  0  0  0  0  0  0  0  0  0  0
   17.5396   -5.3271  -14.6245 O   0  0  0  0  0  0  0  0  0  0  0  0
   22.8448   -5.0187  -12.7384 O   0  0  0  0  0  0  0  0  0  0  0  0
  2  1  1  0
  3  2  2  0
  4  5  1  0
  4  2  1  0
  5  6  1  1
  7 11  1  0
  7  5  1  0
  8  7  2  0
 10 12  1  0
 10  9  1  6
 10 11  1  0
 12 14  1  0
 13 12  2  0
 14 15  1  0
 15 16  1  1
 16 17  1  0
 17 21  1  0
 18 17  2  0
 19 20  1  0
 19 15  1  0
 22 19  2  0
M  END
$$$$
