NAD.pdb
     RDKit          3D

 22 21  0  0  1  0  0  0  0  0999 V2000
   22.5120  -15.3009  -18.1894 N   0  0  0  0  0  0  0  0  0  0  0  0
   21.2136  -15.0756  -18.6287 C   0  0  0  0  0  0  0  0  0  0  0  0
   20.5919  -16.0282  -19.2177 O   0  0  0  0  0  0  0  0  0  0  0  0
   20.4729  -13.8214  -18.4765 C   0  0  0  0  0  0  0  0  0  0  0  0
   21.2845  -12.7816  -17.7447 C   0  0  2  0  0  0  0  0  0  0  0  0
   21.3731  -13.1596  -16.3216 N   0  0  0  0  0  0  0  0  0  0  0  0
   20.5865  -11.4539  -17.8197 C   0  0  0  0  0  0  0  0  0  0  0  0
   20.4083  -10.8076  -18.8666 O   0  0  0  0  0  0  0  0  0  0  0  0
   18.2205   -9.7780  -15.6466 C   0  0  0  0  0  0  0  0  0  0  0  0
   19.4597   -9.5892  -16.5329 C   0  0  2  0  0  0  0  0  0  0  0  0
   20.0923  -10.8916  -16.5986 N   0  0  0  0  0  0  0  0  0  0  0  0
   20.4499   -8.6868  -15.8843 C   0  0  0  0  0  0  0  0  0  0  0  0
   21.3275   -9.1216  -15.0584 O   0  0  0  0  0  0  0  0  0  0  0  0
   20.5059   -7.2900  -16.1207 N   0  0  0  0  0  0  0  0  0  0  0  0
   21.5241   -6.4555  -15.4693 C   0  0  1  0  0  0  0  0  0  0  0  0
   21.5704   -5.0823  -16.0467 C   0  0  0  0  0  0  0  0  0  0  0  0
   22.6247   -4.2963  -15.3568 C   0  0  0  0  0  0  0  0  0  0  0  0
   23.5593   -4.8440  -14.6963 O   0  0  0  0  0  0  0  0  0  0  0  0
   21.0521   -6.3408  -14.0480 C   0  0  0  0  0  0  0  0  0  0  0  0
   21.9055   -6.3961  -12.9607 O   0  0  0  0  0  0  0  0  0  0  0  0
   22.6705   -2.9005  -15.3767 O   0  0  0  0  0  0  0  0  0  0  0  0
   19.8227   -6.1843  -13.7542 O   0  0  0  0  0  0  0  0  0  0  0  0
  2  1  1  0
  3  2  2  0
  4  5  1  0
  4  2  1  0
  5  6  1  1
  7 11  1  0
  7  5  1  0
  8  7  2  0
 10 12  1  0
 10  9  1  1
 10 11  1  0
 12 14  1  0
 13 12  2  0
 14 15  1  0
 15 16  1  6
 16 17  1  0
 17 21  1  0
 18 17  2  0
 19 20  1  0
 19 15  1  0
 22 19  2  0
M  END
$$$$
