NAD.pdb
     RDKit          3D

 22 21  0  0  1  0  0  0  0  0999 V2000
   17.3023  -12.2773  -11.1343 N   0  0  0  0  0  0  0  0  0  0  0  0
   17.6654  -11.1000  -11.7761 C   0  0  0  0  0  0  0  0  0  0  0  0
   18.6796  -11.1162  -12.5584 O   0  0  0  0  0  0  0  0  0  0  0  0
   16.9798   -9.8133  -11.6382 C   0  0  0  0  0  0  0  0  0  0  0  0
   15.8752   -9.8788  -10.6131 C   0  0  2  0  0  0  0  0  0  0  0  0
   14.8085  -10.7647  -11.1164 N   0  0  0  0  0  0  0  0  0  0  0  0
   15.2806   -8.5124  -10.4259 C   0  0  0  0  0  0  0  0  0  0  0  0
   14.4390   -7.9984  -11.1829 O   0  0  0  0  0  0  0  0  0  0  0  0
   15.5143   -6.2416   -7.4671 C   0  0  0  0  0  0  0  0  0  0  0  0
   15.1174   -6.4773   -8.9312 C   0  0  2  0  0  0  0  0  0  0  0  0
   15.7147   -7.7464   -9.2961 N   0  0  0  0  0  0  0  0  0  0  0  0
   15.7386   -5.4619   -9.8248 C   0  0  0  0  0  0  0  0  0  0  0  0
   16.9742   -5.5154  -10.1594 O   0  0  0  0  0  0  0  0  0  0  0  0
   15.0278   -4.3649  -10.3736 N   0  0  0  0  0  0  0  0  0  0  0  0
   15.6882   -3.4159  -11.2797 C   0  0  1  0  0  0  0  0  0  0  0  0
   14.7683   -2.9364  -12.3497 C   0  0  0  0  0  0  0  0  0  0  0  0
   15.4925   -1.9812  -13.2263 C   0  0  0  0  0  0  0  0  0  0  0  0
   16.7471   -1.8071  -13.1527 O   0  0  0  0  0  0  0  0  0  0  0  0
   16.0248   -2.2434  -10.4033 C   0  0  0  0  0  0  0  0  0  0  0  0
   15.6555   -2.1631   -9.0726 O   0  0  0  0  0  0  0  0  0  0  0  0
   14.8552   -1.2010  -14.1936 O   0  0  0  0  0  0  0  0  0  0  0  0
   16.6780   -1.2400  -10.8376 O   0  0  0  0  0  0  0  0  0  0  0  0
  2  1  1  0
  3  2  2  0
  4  5  1  0
  4  2  1  0
  5  6  1  6
  7 11  1  0
  7  5  1  0
  8  7  2  0
 10 12  1  0
 10  9  1  1
 10 11  1  0
 12 14  1  0
 13 12  2  0
 14 15  1  0
 15 16  1  6
 16 17  1  0
 17 21  1  0
 18 17  2  0
 19 20  1  0
 19 15  1  0
 22 19  2  0
M  END
$$$$
