NAD.pdb
     RDKit          3D

 22 21  0  0  1  0  0  0  0  0999 V2000
   17.4936  -10.7214  -20.2902 N   0  0  0  0  0  0  0  0  0  0  0  0
   18.4366  -10.5953  -19.2780 C   0  0  0  0  0  0  0  0  0  0  0  0
   19.5169  -11.2790  -19.3581 O   0  0  0  0  0  0  0  0  0  0  0  0
   18.3069   -9.7329  -18.1015 C   0  0  0  0  0  0  0  0  0  0  0  0
   18.4947  -10.5074  -16.8208 C   0  0  2  0  0  0  0  0  0  0  0  0
   17.2989  -11.3386  -16.5857 N   0  0  0  0  0  0  0  0  0  0  0  0
   18.6180   -9.5522  -15.6684 C   0  0  0  0  0  0  0  0  0  0  0  0
   17.7102   -8.7999  -15.2741 O   0  0  0  0  0  0  0  0  0  0  0  0
   21.1999   -9.3181  -13.0135 C   0  0  0  0  0  0  0  0  0  0  0  0
   20.1089   -8.6284  -13.8446 C   0  0  2  0  0  0  0  0  0  0  0  0
   19.8704   -9.5034  -14.9752 N   0  0  0  0  0  0  0  0  0  0  0  0
   20.6022   -7.3463  -14.4178 C   0  0  0  0  0  0  0  0  0  0  0  0
   21.2820   -7.3034  -15.5029 O   0  0  0  0  0  0  0  0  0  0  0  0
   20.3663   -6.0820  -13.8213 N   0  0  0  0  0  0  0  0  0  0  0  0
   20.9183   -4.8553  -14.4114 C   0  0  1  0  0  0  0  0  0  0  0  0
   20.1235   -3.6515  -14.0367 C   0  0  0  0  0  0  0  0  0  0  0  0
   20.7940   -2.4374  -14.5676 C   0  0  0  0  0  0  0  0  0  0  0  0
   22.0019   -2.1555  -14.3008 O   0  0  0  0  0  0  0  0  0  0  0  0
   22.2763   -4.7234  -13.7834 C   0  0  0  0  0  0  0  0  0  0  0  0
   23.3757   -4.2222  -14.4570 O   0  0  0  0  0  0  0  0  0  0  0  0
   20.1526   -1.5131  -15.3953 O   0  0  0  0  0  0  0  0  0  0  0  0
   22.5007   -5.0695  -12.5784 O   0  0  0  0  0  0  0  0  0  0  0  0
  2  1  1  0
  3  2  2  0
  4  5  1  0
  4  2  1  0
  5  6  1  1
  7 11  1  0
  7  5  1  0
  8  7  2  0
 10 12  1  0
 10  9  1  1
 10 11  1  0
 12 14  1  0
 13 12  2  0
 14 15  1  0
 15 16  1  1
 16 17  1  0
 17 21  1  0
 18 17  2  0
 19 20  1  0
 19 15  1  0
 22 19  2  0
M  END
$$$$
