EHW.pdb
     RDKit          3D

 34 36  0  0  1  0  0  0  0  0999 V2000
   27.1483  -20.3893  -17.8887 N   0  0  0  0  0  0  0  0  0  0  0  0
   27.4510  -20.9242  -16.5909 C   0  0  1  0  0  0  0  0  0  0  0  0
   28.8870  -21.1069  -16.3777 C   0  0  0  0  0  0  0  0  0  0  0  0
   29.4478  -22.0615  -17.4330 C   0  0  0  0  0  0  0  0  0  0  0  0
   28.7841  -23.3826  -17.3943 C   0  0  0  0  0  0  0  0  0  0  0  0
   28.5003  -24.0294  -16.3622 O   0  0  0  0  0  0  0  0  0  0  0  0
   26.6961  -20.2421  -15.4905 C   0  0  0  0  0  0  0  0  0  0  0  0
   27.0124  -19.0425  -15.3090 O   0  0  0  0  0  0  0  0  0  0  0  0
   28.4392  -23.9644  -18.5918 O   0  0  0  0  0  0  0  0  0  0  0  0
   25.7192  -20.9160  -14.7470 N   0  0  0  0  0  0  0  0  0  0  0  0
   24.9133  -20.5686  -13.6651 C   0  0  1  0  0  0  0  0  0  0  0  0
   23.4337  -20.5062  -13.9755 C   0  0  0  0  0  0  0  0  0  0  0  0
   23.0368  -19.3885  -14.8330 C   0  0  0  0  0  0  0  0  0  0  0  0
   23.8553  -18.4132  -15.3230 C   0  0  0  0  0  0  0  0  0  0  0  0
   23.1422  -17.5544  -16.0560 N   0  0  0  0  0  0  0  0  0  0  0  0
   21.8588  -18.0097  -16.0182 C   0  0  0  0  0  0  0  0  0  0  0  0
   21.8078  -19.1094  -15.2788 N   0  0  0  0  0  0  0  0  0  0  0  0
   25.2180  -21.1142  -12.3201 C   0  0  0  0  0  0  0  0  0  0  0  0
   25.2675  -22.3376  -12.0354 O   0  0  0  0  0  0  0  0  0  0  0  0
   25.4954  -20.2543  -11.1971 N   0  0  0  0  0  0  0  0  0  0  0  0
   25.6109  -20.8061   -9.8497 C   0  0  1  0  0  0  0  0  0  0  0  0
   26.8039  -20.1218   -9.2415 C   0  0  0  0  0  0  0  0  0  0  0  0
   27.1075  -20.4667   -7.8479 C   0  0  0  0  0  0  0  0  0  0  0  0
   26.8999  -21.7108   -7.2257 C   0  0  0  0  0  0  0  0  0  0  0  0
   27.2561  -21.6268   -5.9492 N   0  0  0  0  0  0  0  0  0  0  0  0
   27.7112  -20.3664   -5.6469 C   0  0  0  0  0  0  0  0  0  0  0  0
   28.1834  -19.8223   -4.4765 C   0  0  0  0  0  0  0  0  0  0  0  0
   28.5812  -18.5095   -4.4796 C   0  0  0  0  0  0  0  0  0  0  0  0
   28.4926  -17.7918   -5.6487 C   0  0  0  0  0  0  0  0  0  0  0  0
   28.0196  -18.3457   -6.8056 C   0  0  0  0  0  0  0  0  0  0  0  0
   27.6027  -19.6785   -6.8468 C   0  0  0  0  0  0  0  0  0  0  0  0
   24.3782  -20.7235   -9.0661 C   0  0  0  0  0  0  0  0  0  0  0  0
   23.4960  -19.8073   -9.2356 O   0  0  0  0  0  0  0  0  0  0  0  0
   24.0655  -21.6362   -8.0776 O   0  0  0  0  0  0  0  0  0  0  0  0
  2  1  1  6
  2  3  1  0
  3  4  1  0
  4  5  1  0
  5  9  1  0
  6  5  2  0
  7  2  1  0
  7  8  2  0
 10  7  1  0
 11 10  1  0
 11 12  1  6
 13 14  2  0
 13 12  1  0
 15 14  1  0
 16 17  2  0
 16 15  1  0
 17 13  1  0
 18 11  1  0
 19 18  2  0
 20 18  1  0
 21 20  1  0
 21 22  1  1
 22 23  1  0
 23 31  1  0
 24 25  1  0
 24 23  2  0
 25 26  1  0
 26 31  2  0
 26 27  1  0
 27 28  2  0
 28 29  1  0
 30 29  2  0
 31 30  1  0
 32 21  1  0
 32 34  1  0
 33 32  2  0
M  END
$$$$
