EHW.pdb
     RDKit          3D

 34 36  0  0  1  0  0  0  0  0999 V2000
   28.8370  -22.9947  -17.7270 N   0  0  0  0  0  0  0  0  0  0  0  0
   27.9916  -21.8350  -17.7749 C   0  0  1  0  0  0  0  0  0  0  0  0
   28.1821  -21.0488  -18.9942 C   0  0  0  0  0  0  0  0  0  0  0  0
   29.6657  -21.0235  -19.3651 C   0  0  0  0  0  0  0  0  0  0  0  0
   29.8708  -20.8614  -20.8207 C   0  0  0  0  0  0  0  0  0  0  0  0
   29.3249  -20.0006  -21.5455 O   0  0  0  0  0  0  0  0  0  0  0  0
   26.5743  -22.1325  -17.3894 C   0  0  0  0  0  0  0  0  0  0  0  0
   25.7455  -21.2600  -17.7417 O   0  0  0  0  0  0  0  0  0  0  0  0
   30.7383  -21.7246  -21.4481 O   0  0  0  0  0  0  0  0  0  0  0  0
   26.2348  -23.3013  -16.6967 N   0  0  0  0  0  0  0  0  0  0  0  0
   25.0440  -23.8161  -16.1892 C   0  0  1  0  0  0  0  0  0  0  0  0
   24.8949  -25.3153  -16.3290 C   0  0  0  0  0  0  0  0  0  0  0  0
   24.8783  -25.8005  -17.7098 C   0  0  0  0  0  0  0  0  0  0  0  0
   23.7719  -26.0970  -18.4508 C   0  0  0  0  0  0  0  0  0  0  0  0
   24.1425  -26.5237  -19.6607 N   0  0  0  0  0  0  0  0  0  0  0  0
   25.5044  -26.4885  -19.6663 C   0  0  0  0  0  0  0  0  0  0  0  0
   25.9342  -26.0554  -18.4889 N   0  0  0  0  0  0  0  0  0  0  0  0
   24.4954  -23.2781  -14.9206 C   0  0  0  0  0  0  0  0  0  0  0  0
   24.9178  -23.5714  -13.7736 O   0  0  0  0  0  0  0  0  0  0  0  0
   23.4006  -22.3408  -14.9040 N   0  0  0  0  0  0  0  0  0  0  0  0
   22.9436  -21.7544  -13.6469 C   0  0  1  0  0  0  0  0  0  0  0  0
   24.1328  -21.0153  -13.0982 C   0  0  0  0  0  0  0  0  0  0  0  0
   24.5427  -19.8125  -13.8319 C   0  0  0  0  0  0  0  0  0  0  0  0
   23.7193  -18.7360  -14.2080 C   0  0  0  0  0  0  0  0  0  0  0  0
   24.4371  -17.8549  -14.8947 N   0  0  0  0  0  0  0  0  0  0  0  0
   25.7413  -18.2693  -15.0156 C   0  0  0  0  0  0  0  0  0  0  0  0
   26.8297  -17.6932  -15.6255 C   0  0  0  0  0  0  0  0  0  0  0  0
   28.0320  -18.3519  -15.5755 C   0  0  0  0  0  0  0  0  0  0  0  0
   28.1010  -19.5582  -14.9198 C   0  0  0  0  0  0  0  0  0  0  0  0
   27.0096  -20.1203  -14.3184 C   0  0  0  0  0  0  0  0  0  0  0  0
   25.7660  -19.4843  -14.3463 C   0  0  0  0  0  0  0  0  0  0  0  0
   21.7200  -20.9621  -13.7709 C   0  0  0  0  0  0  0  0  0  0  0  0
   21.1669  -20.6921  -14.8968 O   0  0  0  0  0  0  0  0  0  0  0  0
   21.0587  -20.4428  -12.6749 O   0  0  0  0  0  0  0  0  0  0  0  0
  2  1  1  6
  2  3  1  0
  3  4  1  0
  4  5  1  0
  5  9  1  0
  6  5  2  0
  7  2  1  0
  7  8  2  0
 10  7  1  0
 11 10  1  0
 11 12  1  1
 13 14  2  0
 13 12  1  0
 15 14  1  0
 16 17  2  0
 16 15  1  0
 17 13  1  0
 18 11  1  0
 19 18  2  0
 20 18  1  0
 21 20  1  0
 21 22  1  6
 22 23  1  0
 23 31  1  0
 24 25  1  0
 24 23  2  0
 25 26  1  0
 26 31  2  0
 26 27  1  0
 27 28  2  0
 28 29  1  0
 30 29  2  0
 31 30  1  0
 32 21  1  0
 32 34  1  0
 33 32  2  0
M  END
$$$$
