EHW.pdb
     RDKit          3D

 34 36  0  0  1  0  0  0  0  0999 V2000
   29.7665  -22.2873  -18.5034 N   0  0  0  0  0  0  0  0  0  0  0  0
   28.9198  -22.8739  -17.5028 C   0  0  1  0  0  0  0  0  0  0  0  0
   29.3371  -24.2270  -17.1343 C   0  0  0  0  0  0  0  0  0  0  0  0
   28.8107  -25.2276  -18.1644 C   0  0  0  0  0  0  0  0  0  0  0  0
   27.3449  -25.4007  -18.0707 C   0  0  0  0  0  0  0  0  0  0  0  0
   26.5052  -24.9962  -18.9046 O   0  0  0  0  0  0  0  0  0  0  0  0
   28.6227  -21.9375  -16.3710 C   0  0  0  0  0  0  0  0  0  0  0  0
   29.6379  -21.4763  -15.7975 O   0  0  0  0  0  0  0  0  0  0  0  0
   26.8445  -26.0660  -16.9760 O   0  0  0  0  0  0  0  0  0  0  0  0
   27.3072  -21.6195  -16.0111 N   0  0  0  0  0  0  0  0  0  0  0  0
   26.7397  -20.7719  -15.0625 C   0  0  1  0  0  0  0  0  0  0  0  0
   26.2675  -19.4417  -15.6076 C   0  0  0  0  0  0  0  0  0  0  0  0
   27.3215  -18.6158  -16.1985 C   0  0  0  0  0  0  0  0  0  0  0  0
   28.4756  -18.2177  -15.5896 C   0  0  0  0  0  0  0  0  0  0  0  0
   29.1901  -17.4646  -16.4296 N   0  0  0  0  0  0  0  0  0  0  0  0
   28.4628  -17.3979  -17.5796 C   0  0  0  0  0  0  0  0  0  0  0  0
   27.3422  -18.0905  -17.4276 N   0  0  0  0  0  0  0  0  0  0  0  0
   25.8545  -21.3346  -14.0139 C   0  0  0  0  0  0  0  0  0  0  0  0
   24.9324  -22.1635  -14.2209 O   0  0  0  0  0  0  0  0  0  0  0  0
   25.9907  -20.9658  -12.6273 N   0  0  0  0  0  0  0  0  0  0  0  0
   25.1839  -21.6214  -11.6014 C   0  0  1  0  0  0  0  0  0  0  0  0
   26.1454  -21.9584  -10.4953 C   0  0  0  0  0  0  0  0  0  0  0  0
   26.4004  -20.8981   -9.5136 C   0  0  0  0  0  0  0  0  0  0  0  0
   25.4957  -19.9067   -9.0932 C   0  0  0  0  0  0  0  0  0  0  0  0
   26.1002  -19.1008   -8.2281 N   0  0  0  0  0  0  0  0  0  0  0  0
   27.4013  -19.4892   -8.0196 C   0  0  0  0  0  0  0  0  0  0  0  0
   28.3918  -18.9714   -7.2199 C   0  0  0  0  0  0  0  0  0  0  0  0
   29.6164  -19.5897   -7.2127 C   0  0  0  0  0  0  0  0  0  0  0  0
   29.8045  -20.6989   -8.0027 C   0  0  0  0  0  0  0  0  0  0  0  0
   28.8102  -21.2024   -8.7945 C   0  0  0  0  0  0  0  0  0  0  0  0
   27.5488  -20.6033   -8.8330 C   0  0  0  0  0  0  0  0  0  0  0  0
   24.0063  -20.8557  -11.1922 C   0  0  0  0  0  0  0  0  0  0  0  0
   23.8874  -19.5922  -11.3812 O   0  0  0  0  0  0  0  0  0  0  0  0
   22.9214  -21.4407  -10.5687 O   0  0  0  0  0  0  0  0  0  0  0  0
  2  1  1  1
  2  3  1  0
  3  4  1  0
  4  5  1  0
  5  9  1  0
  6  5  2  0
  7  2  1  0
  7  8  2  0
 10  7  1  0
 11 10  1  0
 11 12  1  6
 13 14  2  0
 13 12  1  0
 15 14  1  0
 16 17  2  0
 16 15  1  0
 17 13  1  0
 18 11  1  0
 19 18  2  0
 20 18  1  0
 21 20  1  0
 21 22  1  1
 22 23  1  0
 23 31  1  0
 24 25  1  0
 24 23  2  0
 25 26  1  0
 26 31  2  0
 26 27  1  0
 27 28  2  0
 28 29  1  0
 30 29  2  0
 31 30  1  0
 32 21  1  0
 32 34  1  0
 33 32  2  0
M  END
$$$$
