EHW.pdb
     RDKit          3D

 34 36  0  0  1  0  0  0  0  0999 V2000
   27.2778  -22.8634  -16.9303 N   0  0  0  0  0  0  0  0  0  0  0  0
   28.5529  -22.3853  -16.4749 C   0  0  1  0  0  0  0  0  0  0  0  0
   29.3817  -21.8664  -17.5635 C   0  0  0  0  0  0  0  0  0  0  0  0
   28.7242  -22.1821  -18.9078 C   0  0  0  0  0  0  0  0  0  0  0  0
   28.8879  -21.0780  -19.8782 C   0  0  0  0  0  0  0  0  0  0  0  0
   29.9298  -20.4101  -20.0581 O   0  0  0  0  0  0  0  0  0  0  0  0
   28.4486  -21.5272  -15.2507 C   0  0  0  0  0  0  0  0  0  0  0  0
   29.5503  -21.1601  -14.7776 O   0  0  0  0  0  0  0  0  0  0  0  0
   27.8081  -20.7455  -20.6622 O   0  0  0  0  0  0  0  0  0  0  0  0
   27.2065  -21.1771  -14.7067 N   0  0  0  0  0  0  0  0  0  0  0  0
   26.8074  -20.3882  -13.6301 C   0  0  1  0  0  0  0  0  0  0  0  0
   26.2269  -19.0447  -14.0140 C   0  0  0  0  0  0  0  0  0  0  0  0
   27.0474  -18.2693  -14.9455 C   0  0  0  0  0  0  0  0  0  0  0  0
   26.7999  -18.0728  -16.2726 C   0  0  0  0  0  0  0  0  0  0  0  0
   27.7697  -17.3248  -16.8047 N   0  0  0  0  0  0  0  0  0  0  0  0
   28.6318  -17.0537  -15.7852 C   0  0  0  0  0  0  0  0  0  0  0  0
   28.1890  -17.6283  -14.6752 N   0  0  0  0  0  0  0  0  0  0  0  0
   26.1330  -21.0197  -12.4699 C   0  0  0  0  0  0  0  0  0  0  0  0
   25.1284  -21.7716  -12.5447 O   0  0  0  0  0  0  0  0  0  0  0  0
   26.5961  -20.8171  -11.1201 N   0  0  0  0  0  0  0  0  0  0  0  0
   25.9549  -21.5065  -10.0035 C   0  0  1  0  0  0  0  0  0  0  0  0
   27.0364  -21.6859   -8.9741 C   0  0  0  0  0  0  0  0  0  0  0  0
   27.2628  -20.5537   -8.0685 C   0  0  0  0  0  0  0  0  0  0  0  0
   26.7359  -19.2560   -8.1975 C   0  0  0  0  0  0  0  0  0  0  0  0
   27.1978  -18.4960   -7.2114 N   0  0  0  0  0  0  0  0  0  0  0  0
   28.0316  -19.2118   -6.3871 C   0  0  0  0  0  0  0  0  0  0  0  0
   28.7248  -18.8539   -5.2556 C   0  0  0  0  0  0  0  0  0  0  0  0
   29.4874  -19.8057   -4.6276 C   0  0  0  0  0  0  0  0  0  0  0  0
   29.5285  -21.0756   -5.1523 C   0  0  0  0  0  0  0  0  0  0  0  0
   28.8346  -21.4174   -6.2796 C   0  0  0  0  0  0  0  0  0  0  0  0
   28.0469  -20.4792   -6.9512 C   0  0  0  0  0  0  0  0  0  0  0  0
   24.7378  -20.8531   -9.5217 C   0  0  0  0  0  0  0  0  0  0  0  0
   23.9502  -21.3810   -8.6571 O   0  0  0  0  0  0  0  0  0  0  0  0
   24.3423  -19.6051   -9.9620 O   0  0  0  0  0  0  0  0  0  0  0  0
  2  1  1  6
  2  3  1  0
  3  4  1  0
  4  5  1  0
  5  9  1  0
  6  5  2  0
  7  2  1  0
  7  8  2  0
 10  7  1  0
 11 10  1  0
 11 12  1  6
 13 14  2  0
 13 12  1  0
 15 14  1  0
 16 17  2  0
 16 15  1  0
 17 13  1  0
 18 11  1  0
 19 18  2  0
 20 18  1  0
 21 20  1  0
 21 22  1  1
 22 23  1  0
 23 31  1  0
 24 25  1  0
 24 23  2  0
 25 26  1  0
 26 31  2  0
 26 27  1  0
 27 28  2  0
 28 29  1  0
 30 29  2  0
 31 30  1  0
 32 21  1  0
 32 34  1  0
 33 32  2  0
M  END
$$$$
