EHW.pdb
     RDKit          3D

 34 36  0  0  1  0  0  0  0  0999 V2000
   28.8467  -22.4033  -18.9231 N   0  0  0  0  0  0  0  0  0  0  0  0
   29.4687  -22.5378  -17.6358 C   0  0  1  0  0  0  0  0  0  0  0  0
   30.8742  -22.1311  -17.6438 C   0  0  0  0  0  0  0  0  0  0  0  0
   31.5714  -22.7095  -18.8762 C   0  0  0  0  0  0  0  0  0  0  0  0
   32.1489  -24.0450  -18.6110 C   0  0  0  0  0  0  0  0  0  0  0  0
   32.0270  -24.6980  -17.5513 O   0  0  0  0  0  0  0  0  0  0  0  0
   28.6249  -21.9943  -16.5229 C   0  0  0  0  0  0  0  0  0  0  0  0
   29.0464  -22.2615  -15.3726 O   0  0  0  0  0  0  0  0  0  0  0  0
   32.8864  -24.6366  -19.6097 O   0  0  0  0  0  0  0  0  0  0  0  0
   27.4681  -21.2479  -16.7797 N   0  0  0  0  0  0  0  0  0  0  0  0
   26.5193  -20.6224  -15.9740 C   0  0  1  0  0  0  0  0  0  0  0  0
   25.5077  -19.7848  -16.7253 C   0  0  0  0  0  0  0  0  0  0  0  0
   24.5241  -19.1100  -15.8772 C   0  0  0  0  0  0  0  0  0  0  0  0
   24.7514  -18.0301  -15.0751 C   0  0  0  0  0  0  0  0  0  0  0  0
   23.6246  -17.6964  -14.4408 N   0  0  0  0  0  0  0  0  0  0  0  0
   22.6836  -18.5875  -14.8609 C   0  0  0  0  0  0  0  0  0  0  0  0
   23.2363  -19.4325  -15.7206 N   0  0  0  0  0  0  0  0  0  0  0  0
   25.9475  -21.3511  -14.8156 C   0  0  0  0  0  0  0  0  0  0  0  0
   25.2039  -22.3613  -14.8982 O   0  0  0  0  0  0  0  0  0  0  0  0
   26.2132  -20.9465  -13.4580 N   0  0  0  0  0  0  0  0  0  0  0  0
   25.5819  -21.6409  -12.3388 C   0  0  1  0  0  0  0  0  0  0  0  0
   26.6758  -21.8376  -11.3258 C   0  0  0  0  0  0  0  0  0  0  0  0
   26.5877  -21.0201  -10.1105 C   0  0  0  0  0  0  0  0  0  0  0  0
   25.5130  -20.1977   -9.7270 C   0  0  0  0  0  0  0  0  0  0  0  0
   25.8162  -19.5834   -8.5895 N   0  0  0  0  0  0  0  0  0  0  0  0
   27.0677  -19.9447   -8.1530 C   0  0  0  0  0  0  0  0  0  0  0  0
   27.7892  -19.5764   -7.0428 C   0  0  0  0  0  0  0  0  0  0  0  0
   29.0366  -20.1186   -6.8642 C   0  0  0  0  0  0  0  0  0  0  0  0
   29.5146  -21.0059   -7.7991 C   0  0  0  0  0  0  0  0  0  0  0  0
   28.7862  -21.3624   -8.8997 C   0  0  0  0  0  0  0  0  0  0  0  0
   27.5123  -20.8334   -9.1211 C   0  0  0  0  0  0  0  0  0  0  0  0
   24.3765  -20.9826  -11.8349 C   0  0  0  0  0  0  0  0  0  0  0  0
   24.1882  -19.7148  -11.8968 O   0  0  0  0  0  0  0  0  0  0  0  0
   23.3381  -21.6825  -11.2519 O   0  0  0  0  0  0  0  0  0  0  0  0
  2  1  1  6
  2  3  1  0
  3  4  1  0
  4  5  1  0
  5  9  1  0
  6  5  2  0
  7  2  1  0
  7  8  2  0
 10  7  1  0
 11 10  1  0
 11 12  1  6
 13 14  2  0
 13 12  1  0
 15 14  1  0
 16 17  2  0
 16 15  1  0
 17 13  1  0
 18 11  1  0
 19 18  2  0
 20 18  1  0
 21 20  1  0
 21 22  1  1
 22 23  1  0
 23 31  1  0
 24 25  1  0
 24 23  2  0
 25 26  1  0
 26 31  2  0
 26 27  1  0
 27 28  2  0
 28 29  1  0
 30 29  2  0
 31 30  1  0
 32 21  1  0
 32 34  1  0
 33 32  2  0
M  END
$$$$
