EHW.pdb
     RDKit          3D

 34 36  0  0  1  0  0  0  0  0999 V2000
   17.5426  -13.7048  -17.6365 N   0  0  0  0  0  0  0  0  0  0  0  0
   16.8773  -12.4615  -17.3651 C   0  0  1  0  0  0  0  0  0  0  0  0
   15.6918  -12.6287  -16.5238 C   0  0  0  0  0  0  0  0  0  0  0  0
   14.5496  -13.2172  -17.3533 C   0  0  0  0  0  0  0  0  0  0  0  0
   14.5601  -14.6961  -17.3411 C   0  0  0  0  0  0  0  0  0  0  0  0
   14.2082  -15.4228  -16.3860 O   0  0  0  0  0  0  0  0  0  0  0  0
   17.8246  -11.3692  -16.9708 C   0  0  0  0  0  0  0  0  0  0  0  0
   18.6709  -11.7014  -16.1073 O   0  0  0  0  0  0  0  0  0  0  0  0
   14.9901  -15.3455  -18.4746 O   0  0  0  0  0  0  0  0  0  0  0  0
   17.7481  -10.0931  -17.5426 N   0  0  0  0  0  0  0  0  0  0  0  0
   18.3735   -8.8756  -17.2833 C   0  0  1  0  0  0  0  0  0  0  0  0
   18.3563   -7.8992  -18.4391 C   0  0  0  0  0  0  0  0  0  0  0  0
   19.1628   -8.3037  -19.5915 C   0  0  0  0  0  0  0  0  0  0  0  0
   19.9956   -9.3821  -19.6588 C   0  0  0  0  0  0  0  0  0  0  0  0
   20.5748   -9.4283  -20.8612 N   0  0  0  0  0  0  0  0  0  0  0  0
   20.0887   -8.3578  -21.5493 C   0  0  0  0  0  0  0  0  0  0  0  0
   19.2444   -7.6889  -20.7758 N   0  0  0  0  0  0  0  0  0  0  0  0
   18.2041   -8.2332  -15.9574 C   0  0  0  0  0  0  0  0  0  0  0  0
   17.1001   -7.9036  -15.4545 O   0  0  0  0  0  0  0  0  0  0  0  0
   19.3308   -7.9307  -15.1109 N   0  0  0  0  0  0  0  0  0  0  0  0
   19.1384   -7.2495  -13.8333 C   0  0  1  0  0  0  0  0  0  0  0  0
   19.8196   -8.1194  -12.8131 C   0  0  0  0  0  0  0  0  0  0  0  0
   19.8362   -7.6115  -11.4366 C   0  0  0  0  0  0  0  0  0  0  0  0
   18.8955   -7.8867  -10.4278 C   0  0  0  0  0  0  0  0  0  0  0  0
   19.2212   -7.2140   -9.3302 N   0  0  0  0  0  0  0  0  0  0  0  0
   20.3618   -6.4740   -9.5264 C   0  0  0  0  0  0  0  0  0  0  0  0
   21.0654   -5.6415   -8.6893 C   0  0  0  0  0  0  0  0  0  0  0  0
   22.1951   -5.0314   -9.1723 C   0  0  0  0  0  0  0  0  0  0  0  0
   22.5781   -5.2754  -10.4698 C   0  0  0  0  0  0  0  0  0  0  0  0
   21.8677   -6.1051  -11.2919 C   0  0  0  0  0  0  0  0  0  0  0  0
   20.7108   -6.7457  -10.8413 C   0  0  0  0  0  0  0  0  0  0  0  0
   19.5584   -5.8481  -13.8379 C   0  0  0  0  0  0  0  0  0  0  0  0
   20.5507   -5.4126  -14.5251 O   0  0  0  0  0  0  0  0  0  0  0  0
   18.9105   -4.8774  -13.0990 O   0  0  0  0  0  0  0  0  0  0  0  0
  2  1  1  1
  2  3  1  0
  3  4  1  0
  4  5  1  0
  5  9  1  0
  6  5  2  0
  7  2  1  0
  7  8  2  0
 10  7  1  0
 11 10  1  0
 11 12  1  6
 13 14  2  0
 13 12  1  0
 15 14  1  0
 16 17  2  0
 16 15  1  0
 17 13  1  0
 18 11  1  0
 19 18  2  0
 20 18  1  0
 21 20  1  0
 21 22  1  1
 22 23  1  0
 23 31  1  0
 24 25  1  0
 24 23  2  0
 25 26  1  0
 26 31  2  0
 26 27  1  0
 27 28  2  0
 28 29  1  0
 30 29  2  0
 31 30  1  0
 32 21  1  0
 32 34  1  0
 33 32  2  0
M  END
$$$$
