EHW.pdb
     RDKit          3D

 34 36  0  0  1  0  0  0  0  0999 V2000
   32.8124  -37.5327   -4.0896 N   0  0  0  0  0  0  0  0  0  0  0  0
   31.7387  -37.6648   -3.1452 C   0  0  1  0  0  0  0  0  0  0  0  0
   32.1802  -38.2153   -1.8634 C   0  0  0  0  0  0  0  0  0  0  0  0
   32.8209  -39.5865   -2.0843 C   0  0  0  0  0  0  0  0  0  0  0  0
   33.2810  -40.1943   -0.8170 C   0  0  0  0  0  0  0  0  0  0  0  0
   32.6111  -40.9549   -0.0843 O   0  0  0  0  0  0  0  0  0  0  0  0
   30.8671  -36.4473   -3.0819 C   0  0  0  0  0  0  0  0  0  0  0  0
   31.4648  -35.3967   -2.7483 O   0  0  0  0  0  0  0  0  0  0  0  0
   34.5582  -39.9098   -0.3937 O   0  0  0  0  0  0  0  0  0  0  0  0
   29.5006  -36.5098   -3.3818 N   0  0  0  0  0  0  0  0  0  0  0  0
   28.4420  -35.6110   -3.2721 C   0  0  1  0  0  0  0  0  0  0  0  0
   27.5704  -35.5098   -4.5048 C   0  0  0  0  0  0  0  0  0  0  0  0
   26.4960  -34.5202   -4.4128 C   0  0  0  0  0  0  0  0  0  0  0  0
   26.4819  -33.2841   -4.9900 C   0  0  0  0  0  0  0  0  0  0  0  0
   25.3455  -32.6558   -4.6785 N   0  0  0  0  0  0  0  0  0  0  0  0
   24.6445  -33.5219   -3.8947 C   0  0  0  0  0  0  0  0  0  0  0  0
   25.3467  -34.6362   -3.7402 N   0  0  0  0  0  0  0  0  0  0  0  0
   27.6868  -35.5209   -1.9989 C   0  0  0  0  0  0  0  0  0  0  0  0
   27.0256  -36.4599   -1.4877 O   0  0  0  0  0  0  0  0  0  0  0  0
   27.6551  -34.3091   -1.2191 N   0  0  0  0  0  0  0  0  0  0  0  0
   26.7776  -34.1962   -0.0571 C   0  0  1  0  0  0  0  0  0  0  0  0
   27.6689  -34.4078    1.1355 C   0  0  0  0  0  0  0  0  0  0  0  0
   27.2249  -33.7951    2.3927 C   0  0  0  0  0  0  0  0  0  0  0  0
   25.9404  -33.8769    2.9598 C   0  0  0  0  0  0  0  0  0  0  0  0
   25.9085  -33.1594    4.0767 N   0  0  0  0  0  0  0  0  0  0  0  0
   27.1272  -32.5744    4.3213 C   0  0  0  0  0  0  0  0  0  0  0  0
   27.5625  -31.7636    5.3419 C   0  0  0  0  0  0  0  0  0  0  0  0
   28.8636  -31.3293    5.3224 C   0  0  0  0  0  0  0  0  0  0  0  0
   29.6783  -31.7206    4.2866 C   0  0  0  0  0  0  0  0  0  0  0  0
   29.2315  -32.5267    3.2770 C   0  0  0  0  0  0  0  0  0  0  0  0
   27.9138  -32.9906    3.2571 C   0  0  0  0  0  0  0  0  0  0  0  0
   25.9816  -32.9690   -0.0305 C   0  0  0  0  0  0  0  0  0  0  0  0
   24.8720  -32.8629    0.6050 O   0  0  0  0  0  0  0  0  0  0  0  0
   26.3694  -31.8192   -0.6906 O   0  0  0  0  0  0  0  0  0  0  0  0
  2  1  1  6
  2  3  1  0
  3  4  1  0
  4  5  1  0
  5  9  1  0
  6  5  2  0
  7  2  1  0
  7  8  2  0
 10  7  1  0
 11 10  1  0
 11 12  1  6
 13 14  2  0
 13 12  1  0
 15 14  1  0
 16 17  2  0
 16 15  1  0
 17 13  1  0
 18 11  1  0
 19 18  2  0
 20 18  1  0
 21 20  1  0
 21 22  1  1
 22 23  1  0
 23 31  1  0
 24 25  1  0
 24 23  2  0
 25 26  1  0
 26 31  2  0
 26 27  1  0
 27 28  2  0
 28 29  1  0
 30 29  2  0
 31 30  1  0
 32 21  1  0
 32 34  1  0
 33 32  2  0
M  END
$$$$
