EHW.pdb
     RDKit          3D

 34 36  0  0  1  0  0  0  0  0999 V2000
   28.6605  -26.2555  -18.6415 N   0  0  0  0  0  0  0  0  0  0  0  0
   27.6803  -25.9959  -17.6246 C   0  0  1  0  0  0  0  0  0  0  0  0
   27.4841  -27.1348  -16.7272 C   0  0  0  0  0  0  0  0  0  0  0  0
   27.2659  -28.4067  -17.5482 C   0  0  0  0  0  0  0  0  0  0  0  0
   28.5270  -28.9135  -18.1313 C   0  0  0  0  0  0  0  0  0  0  0  0
   29.5867  -29.1341  -17.5047 O   0  0  0  0  0  0  0  0  0  0  0  0
   27.8588  -24.6581  -16.9731 C   0  0  0  0  0  0  0  0  0  0  0  0
   29.0417  -24.3874  -16.6571 O   0  0  0  0  0  0  0  0  0  0  0  0
   28.5526  -29.1730  -19.4817 O   0  0  0  0  0  0  0  0  0  0  0  0
   26.7734  -23.8008  -16.7537 N   0  0  0  0  0  0  0  0  0  0  0  0
   26.6256  -22.5641  -16.1298 C   0  0  1  0  0  0  0  0  0  0  0  0
   26.9244  -21.3726  -17.0132 C   0  0  0  0  0  0  0  0  0  0  0  0
   26.7758  -20.0733  -16.3559 C   0  0  0  0  0  0  0  0  0  0  0  0
   27.7700  -19.3400  -15.7772 C   0  0  0  0  0  0  0  0  0  0  0  0
   27.2605  -18.2161  -15.2667 N   0  0  0  0  0  0  0  0  0  0  0  0
   25.9259  -18.2566  -15.5369 C   0  0  0  0  0  0  0  0  0  0  0  0
   25.6468  -19.3774  -16.1885 N   0  0  0  0  0  0  0  0  0  0  0  0
   25.4941  -22.3455  -15.1963 C   0  0  0  0  0  0  0  0  0  0  0  0
   24.2804  -22.3545  -15.5238 O   0  0  0  0  0  0  0  0  0  0  0  0
   25.7051  -22.1021  -13.7915 N   0  0  0  0  0  0  0  0  0  0  0  0
   24.5748  -21.8356  -12.9056 C   0  0  1  0  0  0  0  0  0  0  0  0
   25.0539  -22.2047  -11.5288 C   0  0  0  0  0  0  0  0  0  0  0  0
   26.0739  -21.3285  -10.9415 C   0  0  0  0  0  0  0  0  0  0  0  0
   25.8475  -20.1654  -10.1837 C   0  0  0  0  0  0  0  0  0  0  0  0
   27.0140  -19.6184   -9.8623 N   0  0  0  0  0  0  0  0  0  0  0  0
   28.0587  -20.3557  -10.3643 C   0  0  0  0  0  0  0  0  0  0  0  0
   29.4198  -20.1840  -10.2828 C   0  0  0  0  0  0  0  0  0  0  0  0
   30.2328  -21.1064  -10.8910 C   0  0  0  0  0  0  0  0  0  0  0  0
   29.6567  -22.1628  -11.5558 C   0  0  0  0  0  0  0  0  0  0  0  0
   28.3008  -22.3205  -11.6299 C   0  0  0  0  0  0  0  0  0  0  0  0
   27.4363  -21.4042  -11.0260 C   0  0  0  0  0  0  0  0  0  0  0  0
   24.0250  -20.4859  -13.0335 C   0  0  0  0  0  0  0  0  0  0  0  0
   24.7065  -19.4852  -13.4584 O   0  0  0  0  0  0  0  0  0  0  0  0
   22.7172  -20.1840  -12.7070 O   0  0  0  0  0  0  0  0  0  0  0  0
  2  1  1  1
  2  3  1  0
  3  4  1  0
  4  5  1  0
  5  9  1  0
  6  5  2  0
  7  2  1  0
  7  8  2  0
 10  7  1  0
 11 10  1  0
 11 12  1  6
 13 14  2  0
 13 12  1  0
 15 14  1  0
 16 17  2  0
 16 15  1  0
 17 13  1  0
 18 11  1  0
 19 18  2  0
 20 18  1  0
 21 20  1  0
 21 22  1  1
 22 23  1  0
 23 31  1  0
 24 25  1  0
 24 23  2  0
 25 26  1  0
 26 31  2  0
 26 27  1  0
 27 28  2  0
 28 29  1  0
 30 29  2  0
 31 30  1  0
 32 21  1  0
 32 34  1  0
 33 32  2  0
M  END
$$$$
