EHW.pdb
     RDKit          3D

 34 36  0  0  1  0  0  0  0  0999 V2000
   23.6881  -12.1641  -19.9352 N   0  0  0  0  0  0  0  0  0  0  0  0
   24.2505  -10.9244  -19.4782 C   0  0  1  0  0  0  0  0  0  0  0  0
   24.4885   -9.9778  -20.5683 C   0  0  0  0  0  0  0  0  0  0  0  0
   25.3825  -10.6249  -21.6273 C   0  0  0  0  0  0  0  0  0  0  0  0
   25.9090   -9.6332  -22.5899 C   0  0  0  0  0  0  0  0  0  0  0  0
   25.3328   -8.5821  -22.9469 O   0  0  0  0  0  0  0  0  0  0  0  0
   23.5555  -10.3826  -18.2660 C   0  0  0  0  0  0  0  0  0  0  0  0
   22.3191  -10.2251  -18.4024 O   0  0  0  0  0  0  0  0  0  0  0  0
   27.1423   -9.8720  -23.1495 O   0  0  0  0  0  0  0  0  0  0  0  0
   24.2575  -10.0908  -17.0899 N   0  0  0  0  0  0  0  0  0  0  0  0
   23.9021   -9.5426  -15.8595 C   0  0  1  0  0  0  0  0  0  0  0  0
   24.4525  -10.2797  -14.6582 C   0  0  0  0  0  0  0  0  0  0  0  0
   24.3901  -11.7386  -14.7564 C   0  0  0  0  0  0  0  0  0  0  0  0
   23.3266  -12.5277  -14.4287 C   0  0  0  0  0  0  0  0  0  0  0  0
   23.6375  -13.8098  -14.6360 N   0  0  0  0  0  0  0  0  0  0  0  0
   24.9177  -13.8112  -15.1020 C   0  0  0  0  0  0  0  0  0  0  0  0
   25.3594  -12.5625  -15.1672 N   0  0  0  0  0  0  0  0  0  0  0  0
   23.8763   -8.0689  -15.6945 C   0  0  0  0  0  0  0  0  0  0  0  0
   24.8824   -7.3553  -15.4520 O   0  0  0  0  0  0  0  0  0  0  0  0
   22.6540   -7.3136  -15.8082 N   0  0  0  0  0  0  0  0  0  0  0  0
   22.6634   -5.8597  -15.6693 C   0  0  1  0  0  0  0  0  0  0  0  0
   22.0830   -5.3345  -16.9533 C   0  0  0  0  0  0  0  0  0  0  0  0
   22.0297   -3.8745  -17.0905 C   0  0  0  0  0  0  0  0  0  0  0  0
   23.1125   -3.0147  -17.3486 C   0  0  0  0  0  0  0  0  0  0  0  0
   22.6810   -1.7589  -17.3605 N   0  0  0  0  0  0  0  0  0  0  0  0
   21.3293   -1.7003  -17.1223 C   0  0  0  0  0  0  0  0  0  0  0  0
   20.4605   -0.6381  -17.0477 C   0  0  0  0  0  0  0  0  0  0  0  0
   19.1359   -0.8932  -16.7979 C   0  0  0  0  0  0  0  0  0  0  0  0
   18.7307   -2.1963  -16.6326 C   0  0  0  0  0  0  0  0  0  0  0  0
   19.6065   -3.2434  -16.7082 C   0  0  0  0  0  0  0  0  0  0  0  0
   20.9639   -3.0286  -16.9595 C   0  0  0  0  0  0  0  0  0  0  0  0
   22.0179   -5.3752  -14.4491 C   0  0  0  0  0  0  0  0  0  0  0  0
   21.0349   -5.9774  -13.8856 O   0  0  0  0  0  0  0  0  0  0  0  0
   22.4237   -4.2239  -13.8026 O   0  0  0  0  0  0  0  0  0  0  0  0
  2  1  1  6
  2  3  1  0
  3  4  1  0
  4  5  1  0
  5  9  1  0
  6  5  2  0
  7  2  1  0
  7  8  2  0
 10  7  1  0
 11 10  1  0
 11 12  1  1
 13 14  2  0
 13 12  1  0
 15 14  1  0
 16 17  2  0
 16 15  1  0
 17 13  1  0
 18 11  1  0
 19 18  2  0
 20 18  1  0
 21 20  1  0
 21 22  1  6
 22 23  1  0
 23 31  1  0
 24 25  1  0
 24 23  2  0
 25 26  1  0
 26 31  2  0
 26 27  1  0
 27 28  2  0
 28 29  1  0
 30 29  2  0
 31 30  1  0
 32 21  1  0
 32 34  1  0
 33 32  2  0
M  END
$$$$
