EHW.pdb
     RDKit          3D

 34 36  0  0  1  0  0  0  0  0999 V2000
   20.9836  -32.1390    8.7622 N   0  0  0  0  0  0  0  0  0  0  0  0
   21.9133  -31.1159    9.1505 C   0  0  1  0  0  0  0  0  0  0  0  0
   22.8945  -30.8202    8.1061 C   0  0  0  0  0  0  0  0  0  0  0  0
   23.7867  -32.0411    7.8761 C   0  0  0  0  0  0  0  0  0  0  0  0
   24.7879  -31.8041    6.8137 C   0  0  0  0  0  0  0  0  0  0  0  0
   26.0235  -31.9641    6.9234 O   0  0  0  0  0  0  0  0  0  0  0  0
   21.2458  -29.9362    9.7899 C   0  0  0  0  0  0  0  0  0  0  0  0
   20.1785  -29.5798    9.2369 O   0  0  0  0  0  0  0  0  0  0  0  0
   24.3360  -31.3713    5.5891 O   0  0  0  0  0  0  0  0  0  0  0  0
   21.7926  -29.3081   10.9160 N   0  0  0  0  0  0  0  0  0  0  0  0
   21.4640  -28.1673   11.6448 C   0  0  1  0  0  0  0  0  0  0  0  0
   21.6748  -28.2906   13.1380 C   0  0  0  0  0  0  0  0  0  0  0  0
   21.7138  -29.6659   13.6371 C   0  0  0  0  0  0  0  0  0  0  0  0
   22.5638  -30.6518   13.2290 C   0  0  0  0  0  0  0  0  0  0  0  0
   22.2986  -31.7781   13.8956 N   0  0  0  0  0  0  0  0  0  0  0  0
   21.2652  -31.4806   14.7321 C   0  0  0  0  0  0  0  0  0  0  0  0
   20.9213  -30.2107   14.5657 N   0  0  0  0  0  0  0  0  0  0  0  0
   21.8040  -26.8292   11.1030 C   0  0  0  0  0  0  0  0  0  0  0  0
   22.8383  -26.5643   10.4395 O   0  0  0  0  0  0  0  0  0  0  0  0
   20.9427  -25.6901   11.2978 N   0  0  0  0  0  0  0  0  0  0  0  0
   21.2890  -24.3908   10.7277 C   0  0  1  0  0  0  0  0  0  0  0  0
   21.2926  -24.5990    9.2383 C   0  0  0  0  0  0  0  0  0  0  0  0
   21.3206  -23.3849    8.4147 C   0  0  0  0  0  0  0  0  0  0  0  0
   22.3412  -22.4178    8.3778 C   0  0  0  0  0  0  0  0  0  0  0  0
   21.9913  -21.4437    7.5460 N   0  0  0  0  0  0  0  0  0  0  0  0
   20.7591  -21.6892    6.9906 C   0  0  0  0  0  0  0  0  0  0  0  0
   20.0063  -20.9775    6.0876 C   0  0  0  0  0  0  0  0  0  0  0  0
   18.7912  -21.4862    5.7045 C   0  0  0  0  0  0  0  0  0  0  0  0
   18.3754  -22.6834    6.2369 C   0  0  0  0  0  0  0  0  0  0  0  0
   19.1342  -23.3802    7.1356 C   0  0  0  0  0  0  0  0  0  0  0  0
   20.3769  -22.8981    7.5537 C   0  0  0  0  0  0  0  0  0  0  0  0
   20.4486  -23.2909   11.2013 C   0  0  0  0  0  0  0  0  0  0  0  0
   19.3262  -23.4685   11.7973 O   0  0  0  0  0  0  0  0  0  0  0  0
   20.8044  -21.9654   11.0450 O   0  0  0  0  0  0  0  0  0  0  0  0
  2  1  1  6
  2  3  1  0
  3  4  1  0
  4  5  1  0
  5  9  1  0
  6  5  2  0
  7  2  1  0
  7  8  2  0
 10  7  1  0
 11 10  1  0
 11 12  1  1
 13 14  2  0
 13 12  1  0
 15 14  1  0
 16 17  2  0
 16 15  1  0
 17 13  1  0
 18 11  1  0
 19 18  2  0
 20 18  1  0
 21 20  1  0
 21 22  1  6
 22 23  1  0
 23 31  1  0
 24 25  1  0
 24 23  2  0
 25 26  1  0
 26 31  2  0
 26 27  1  0
 27 28  2  0
 28 29  1  0
 30 29  2  0
 31 30  1  0
 32 21  1  0
 32 34  1  0
 33 32  2  0
M  END
$$$$
