EHW.pdb
     RDKit          3D

 34 36  0  0  1  0  0  0  0  0999 V2000
   28.3234  -22.4190  -17.1449 N   0  0  0  0  0  0  0  0  0  0  0  0
   28.6007  -21.3924  -16.1798 C   0  0  1  0  0  0  0  0  0  0  0  0
   28.5161  -20.0468  -16.7484 C   0  0  0  0  0  0  0  0  0  0  0  0
   27.0594  -19.7168  -17.0777 C   0  0  0  0  0  0  0  0  0  0  0  0
   26.9141  -18.3620  -17.6529 C   0  0  0  0  0  0  0  0  0  0  0  0
   27.3447  -17.9894  -18.7664 O   0  0  0  0  0  0  0  0  0  0  0  0
   27.8905  -21.6110  -14.8783 C   0  0  0  0  0  0  0  0  0  0  0  0
   26.7309  -22.0747  -14.9902 O   0  0  0  0  0  0  0  0  0  0  0  0
   26.2460  -17.4164  -16.9106 O   0  0  0  0  0  0  0  0  0  0  0  0
   28.5016  -21.3160  -13.6533 N   0  0  0  0  0  0  0  0  0  0  0  0
   28.0254  -21.0574  -12.3699 C   0  0  1  0  0  0  0  0  0  0  0  0
   29.0849  -20.6269  -11.3791 C   0  0  0  0  0  0  0  0  0  0  0  0
   28.6324  -20.5698   -9.9884 C   0  0  0  0  0  0  0  0  0  0  0  0
   27.3905  -20.8950   -9.5267 C   0  0  0  0  0  0  0  0  0  0  0  0
   27.3389  -20.7074   -8.2056 N   0  0  0  0  0  0  0  0  0  0  0  0
   28.5738  -20.2588   -7.8452 C   0  0  0  0  0  0  0  0  0  0  0  0
   29.3403  -20.1777   -8.9244 N   0  0  0  0  0  0  0  0  0  0  0  0
   26.7284  -20.3594  -12.1969 C   0  0  0  0  0  0  0  0  0  0  0  0
   26.4933  -19.1795  -12.5614 O   0  0  0  0  0  0  0  0  0  0  0  0
   25.5959  -21.0034  -11.5805 N   0  0  0  0  0  0  0  0  0  0  0  0
   24.3150  -20.3101  -11.4722 C   0  0  1  0  0  0  0  0  0  0  0  0
   23.4325  -20.9415  -12.5133 C   0  0  0  0  0  0  0  0  0  0  0  0
   22.1105  -20.3321  -12.6977 C   0  0  0  0  0  0  0  0  0  0  0  0
   21.6504  -19.6522  -13.8397 C   0  0  0  0  0  0  0  0  0  0  0  0
   20.4200  -19.2051  -13.6170 N   0  0  0  0  0  0  0  0  0  0  0  0
   19.9921  -19.5476  -12.3574 C   0  0  0  0  0  0  0  0  0  0  0  0
   18.8090  -19.3112  -11.6992 C   0  0  0  0  0  0  0  0  0  0  0  0
   18.6637  -19.7918  -10.4226 C   0  0  0  0  0  0  0  0  0  0  0  0
   19.7032  -20.4884   -9.8533 C   0  0  0  0  0  0  0  0  0  0  0  0
   20.8753  -20.7150  -10.5195 C   0  0  0  0  0  0  0  0  0  0  0  0
   21.0660  -20.2425  -11.8203 C   0  0  0  0  0  0  0  0  0  0  0  0
   23.7636  -20.2886  -10.1172 C   0  0  0  0  0  0  0  0  0  0  0  0
   23.7811  -21.3045   -9.3336 O   0  0  0  0  0  0  0  0  0  0  0  0
   23.1802  -19.1615   -9.5719 O   0  0  0  0  0  0  0  0  0  0  0  0
  2  1  1  6
  2  3  1  0
  3  4  1  0
  4  5  1  0
  5  9  1  0
  6  5  2  0
  7  2  1  0
  7  8  2  0
 10  7  1  0
 11 10  1  0
 11 12  1  6
 13 14  2  0
 13 12  1  0
 15 14  1  0
 16 17  2  0
 16 15  1  0
 17 13  1  0
 18 11  1  0
 19 18  2  0
 20 18  1  0
 21 20  1  0
 21 22  1  6
 22 23  1  0
 23 31  1  0
 24 25  1  0
 24 23  2  0
 25 26  1  0
 26 31  2  0
 26 27  1  0
 27 28  2  0
 28 29  1  0
 30 29  2  0
 31 30  1  0
 32 21  1  0
 32 34  1  0
 33 32  2  0
M  END
$$$$
