EHW.pdb
     RDKit          3D

 34 36  0  0  1  0  0  0  0  0999 V2000
   25.5161  -19.1086  -16.7974 N   0  0  0  0  0  0  0  0  0  0  0  0
   26.3409  -18.9796  -15.6290 C   0  0  1  0  0  0  0  0  0  0  0  0
   27.2729  -17.8551  -15.7185 C   0  0  0  0  0  0  0  0  0  0  0  0
   27.9081  -17.8213  -17.1094 C   0  0  0  0  0  0  0  0  0  0  0  0
   28.1993  -16.4407  -17.5527 C   0  0  0  0  0  0  0  0  0  0  0  0
   27.8127  -15.9179  -18.6211 O   0  0  0  0  0  0  0  0  0  0  0  0
   25.5643  -19.1004  -14.3529 C   0  0  0  0  0  0  0  0  0  0  0  0
   25.2590  -18.0051  -13.8244 O   0  0  0  0  0  0  0  0  0  0  0  0
   28.9598  -15.6468  -16.7264 O   0  0  0  0  0  0  0  0  0  0  0  0
   25.2188  -20.3497  -13.8226 N   0  0  0  0  0  0  0  0  0  0  0  0
   24.6379  -20.7684  -12.6277 C   0  0  1  0  0  0  0  0  0  0  0  0
   23.4177  -21.6475  -12.7938 C   0  0  0  0  0  0  0  0  0  0  0  0
   22.2758  -20.9917  -13.4326 C   0  0  0  0  0  0  0  0  0  0  0  0
   22.2250  -19.7015  -13.8729 C   0  0  0  0  0  0  0  0  0  0  0  0
   21.0192  -19.4498  -14.3886 N   0  0  0  0  0  0  0  0  0  0  0  0
   20.3128  -20.6081  -14.2649 C   0  0  0  0  0  0  0  0  0  0  0  0
   21.0768  -21.5252  -13.6872 N   0  0  0  0  0  0  0  0  0  0  0  0
   25.5050  -21.1606  -11.4901 C   0  0  0  0  0  0  0  0  0  0  0  0
   26.3353  -22.1042  -11.5115 O   0  0  0  0  0  0  0  0  0  0  0  0
   25.4650  -20.4630  -10.2295 N   0  0  0  0  0  0  0  0  0  0  0  0
   26.2404  -20.9443   -9.0892 C   0  0  1  0  0  0  0  0  0  0  0  0
   27.4157  -20.0118   -8.9864 C   0  0  0  0  0  0  0  0  0  0  0  0
   28.3855  -20.3068   -7.9253 C   0  0  0  0  0  0  0  0  0  0  0  0
   29.3974  -21.2830   -7.9594 C   0  0  0  0  0  0  0  0  0  0  0  0
   30.0455  -21.2823   -6.8004 N   0  0  0  0  0  0  0  0  0  0  0  0
   29.5289  -20.3372   -5.9478 C   0  0  0  0  0  0  0  0  0  0  0  0
   29.8743  -19.9759   -4.6676 C   0  0  0  0  0  0  0  0  0  0  0  0
   29.1671  -18.9706   -4.0586 C   0  0  0  0  0  0  0  0  0  0  0  0
   28.1442  -18.3659   -4.7498 C   0  0  0  0  0  0  0  0  0  0  0  0
   27.8105  -18.7364   -6.0227 C   0  0  0  0  0  0  0  0  0  0  0  0
   28.5036  -19.7560   -6.6798 C   0  0  0  0  0  0  0  0  0  0  0  0
   25.4588  -21.0999   -7.8623 C   0  0  0  0  0  0  0  0  0  0  0  0
   24.3616  -20.4723   -7.6419 O   0  0  0  0  0  0  0  0  0  0  0  0
   25.8442  -21.9449   -6.8398 O   0  0  0  0  0  0  0  0  0  0  0  0
  2  1  1  6
  2  3  1  0
  3  4  1  0
  4  5  1  0
  5  9  1  0
  6  5  2  0
  7  2  1  0
  7  8  2  0
 10  7  1  0
 11 10  1  0
 11 12  1  6
 13 14  2  0
 13 12  1  0
 15 14  1  0
 16 17  2  0
 16 15  1  0
 17 13  1  0
 18 11  1  0
 19 18  2  0
 20 18  1  0
 21 20  1  0
 21 22  1  1
 22 23  1  0
 23 31  1  0
 24 25  1  0
 24 23  2  0
 25 26  1  0
 26 31  2  0
 26 27  1  0
 27 28  2  0
 28 29  1  0
 30 29  2  0
 31 30  1  0
 32 21  1  0
 32 34  1  0
 33 32  2  0
M  END
$$$$
