EHW.pdb
     RDKit          3D

 34 36  0  0  1  0  0  0  0  0999 V2000
   23.0081  -19.7787  -18.7110 N   0  0  0  0  0  0  0  0  0  0  0  0
   24.2307  -20.2802  -19.2731 C   0  0  1  0  0  0  0  0  0  0  0  0
   24.6438  -19.5457  -20.4693 C   0  0  0  0  0  0  0  0  0  0  0  0
   23.7779  -19.9666  -21.6577 C   0  0  0  0  0  0  0  0  0  0  0  0
   24.3114  -21.1685  -22.3345 C   0  0  0  0  0  0  0  0  0  0  0  0
   25.2619  -21.1899  -23.1470 O   0  0  0  0  0  0  0  0  0  0  0  0
   25.2899  -20.5201  -18.2404 C   0  0  0  0  0  0  0  0  0  0  0  0
   26.3752  -20.9495  -18.6987 O   0  0  0  0  0  0  0  0  0  0  0  0
   23.7223  -22.3792  -22.0542 O   0  0  0  0  0  0  0  0  0  0  0  0
   25.0570  -20.2703  -16.8822 N   0  0  0  0  0  0  0  0  0  0  0  0
   25.8546  -20.2999  -15.7405 C   0  0  1  0  0  0  0  0  0  0  0  0
   27.0037  -19.3156  -15.7483 C   0  0  0  0  0  0  0  0  0  0  0  0
   27.8737  -19.3842  -14.5734 C   0  0  0  0  0  0  0  0  0  0  0  0
   28.8397  -20.3173  -14.3343 C   0  0  0  0  0  0  0  0  0  0  0  0
   29.4210  -20.0710  -13.1575 N   0  0  0  0  0  0  0  0  0  0  0  0
   28.8019  -18.9633  -12.6617 C   0  0  0  0  0  0  0  0  0  0  0  0
   27.8734  -18.5621  -13.5192 N   0  0  0  0  0  0  0  0  0  0  0  0
   25.2220  -20.4674  -14.4096 C   0  0  0  0  0  0  0  0  0  0  0  0
   24.2547  -19.7872  -13.9831 O   0  0  0  0  0  0  0  0  0  0  0  0
   25.6799  -21.4608  -13.4710 N   0  0  0  0  0  0  0  0  0  0  0  0
   25.2092  -21.4495  -12.0884 C   0  0  1  0  0  0  0  0  0  0  0  0
   26.4543  -21.4626  -11.2451 C   0  0  0  0  0  0  0  0  0  0  0  0
   26.3068  -20.9862   -9.8651 C   0  0  0  0  0  0  0  0  0  0  0  0
   25.1161  -20.5710   -9.2422 C   0  0  0  0  0  0  0  0  0  0  0  0
   25.3861  -20.1689   -8.0057 N   0  0  0  0  0  0  0  0  0  0  0  0
   26.7268  -20.2877   -7.7310 C   0  0  0  0  0  0  0  0  0  0  0  0
   27.4559  -20.0046   -6.6010 C   0  0  0  0  0  0  0  0  0  0  0  0
   28.8077  -20.2372   -6.6197 C   0  0  0  0  0  0  0  0  0  0  0  0
   29.3783  -20.7426   -7.7637 C   0  0  0  0  0  0  0  0  0  0  0  0
   28.6408  -21.0184   -8.8813 C   0  0  0  0  0  0  0  0  0  0  0  0
   27.2619  -20.7954   -8.9059 C   0  0  0  0  0  0  0  0  0  0  0  0
   24.2659  -20.3716  -11.7907 C   0  0  0  0  0  0  0  0  0  0  0  0
   23.1105  -20.5709  -11.2694 O   0  0  0  0  0  0  0  0  0  0  0  0
   24.5513  -19.0446  -12.0471 O   0  0  0  0  0  0  0  0  0  0  0  0
  2  1  1  1
  2  3  1  0
  3  4  1  0
  4  5  1  0
  5  9  1  0
  6  5  2  0
  7  2  1  0
  7  8  2  0
 10  7  1  0
 11 10  1  0
 11 12  1  1
 13 14  2  0
 13 12  1  0
 15 14  1  0
 16 17  2  0
 16 15  1  0
 17 13  1  0
 18 11  1  0
 19 18  2  0
 20 18  1  0
 21 20  1  0
 21 22  1  1
 22 23  1  0
 23 31  1  0
 24 25  1  0
 24 23  2  0
 25 26  1  0
 26 31  2  0
 26 27  1  0
 27 28  2  0
 28 29  1  0
 30 29  2  0
 31 30  1  0
 32 21  1  0
 32 34  1  0
 33 32  2  0
M  END
$$$$
