QDG.pdb
     RDKit          3D

 22 21  0  0  1  0  0  0  0  0999 V2000
    7.0950  -11.7917   25.1109 N   0  0  0  0  0  0  0  0  0  0  0  0
    6.1675  -12.6459   25.7753 C   0  0  0  0  0  0  0  0  0  0  0  0
    5.3785  -12.0979   26.5772 O   0  0  0  0  0  0  0  0  0  0  0  0
    6.1589  -14.0789   25.5192 C   0  0  0  0  0  0  0  0  0  0  0  0
    7.0993  -14.6050   24.5136 C   0  0  0  0  0  0  0  0  0  0  0  0
    6.9626  -16.0351   24.1183 C   0  0  2  0  0  0  0  0  0  0  0  0
    5.9695  -16.7952   24.7726 N   0  0  0  0  0  0  0  0  0  0  0  0
    8.3003  -16.6995   24.2266 C   0  0  0  0  0  0  0  0  0  0  0  0
    8.3750  -17.9044   24.6454 O   0  0  0  0  0  0  0  0  0  0  0  0
    9.4975  -16.0334   23.8766 N   0  0  0  0  0  0  0  0  0  0  0  0
   10.7897  -16.7597   23.8156 C   0  0  1  0  0  0  0  0  0  0  0  0
   11.7683  -15.8892   23.0342 C   0  0  0  0  0  0  0  0  0  0  0  0
   11.5292  -15.9747   21.5802 C   0  0  0  0  0  0  0  0  0  0  0  0
   10.9931  -17.0197   21.0622 O   0  0  0  0  0  0  0  0  0  0  0  0
   11.2146  -17.0452   25.1883 C   0  0  0  0  0  0  0  0  0  0  0  0
   12.3078  -17.6986   25.3693 O   0  0  0  0  0  0  0  0  0  0  0  0
   11.8542  -14.9637   20.6901 O   0  0  0  0  0  0  0  0  0  0  0  0
   10.5305  -16.6669   26.3603 N   0  0  0  0  0  0  0  0  0  0  0  0
   11.1030  -16.9314   27.6571 C   0  0  0  0  0  0  0  0  0  0  0  0
   10.7689  -18.3035   28.0821 C   0  0  0  0  0  0  0  0  0  0  0  0
   11.0819  -18.7218   29.3576 O   0  0  0  0  0  0  0  0  0  0  0  0
   10.1961  -19.1281   27.3159 O   0  0  0  0  0  0  0  0  0  0  0  0
  2  1  1  0
  2  3  2  0
  4  2  1  0
  5  4  1  0
  6  5  1  0
  6  7  1  1
  8  6  1  0
  8 10  1  0
  9  8  2  0
 11 10  1  0
 11 15  1  0
 12 13  1  0
 11 12  1  1
 13 14  2  0
 15 18  1  0
 16 15  2  0
 17 13  1  0
 18 19  1  0
 19 20  1  0
 20 21  1  0
 22 20  2  0
M  END
$$$$
