QDG.pdb
     RDKit          3D

 22 21  0  0  1  0  0  0  0  0999 V2000
    6.6067  -12.6743   17.6339 N   0  0  0  0  0  0  0  0  0  0  0  0
    7.4035  -13.8368   17.4213 C   0  0  0  0  0  0  0  0  0  0  0  0
    7.0319  -14.6101   16.5103 O   0  0  0  0  0  0  0  0  0  0  0  0
    8.5830  -14.0908   18.2358 C   0  0  0  0  0  0  0  0  0  0  0  0
    8.9357  -13.0981   19.2666 C   0  0  0  0  0  0  0  0  0  0  0  0
   10.1661  -13.3414   20.0709 C   0  0  2  0  0  0  0  0  0  0  0  0
   11.3365  -13.7029   19.3697 N   0  0  0  0  0  0  0  0  0  0  0  0
    9.8568  -14.3403   21.1428 C   0  0  0  0  0  0  0  0  0  0  0  0
    8.8012  -14.2020   21.8495 O   0  0  0  0  0  0  0  0  0  0  0  0
   10.7007  -15.4447   21.4029 N   0  0  0  0  0  0  0  0  0  0  0  0
   10.3379  -16.4653   22.4166 C   0  0  1  0  0  0  0  0  0  0  0  0
   10.0322  -17.7614   21.6731 C   0  0  0  0  0  0  0  0  0  0  0  0
    8.5790  -17.9993   21.5723 C   0  0  0  0  0  0  0  0  0  0  0  0
    7.8227  -17.8971   22.6044 O   0  0  0  0  0  0  0  0  0  0  0  0
   11.4470  -16.5740   23.3677 C   0  0  0  0  0  0  0  0  0  0  0  0
   11.1901  -16.4757   24.6243 O   0  0  0  0  0  0  0  0  0  0  0  0
    7.9391  -18.3401   20.3914 O   0  0  0  0  0  0  0  0  0  0  0  0
   12.8009  -16.7808   23.0376 N   0  0  0  0  0  0  0  0  0  0  0  0
   13.8325  -15.9852   23.6558 C   0  0  0  0  0  0  0  0  0  0  0  0
   15.1587  -16.4446   23.2030 C   0  0  0  0  0  0  0  0  0  0  0  0
   16.2966  -15.9649   23.8152 O   0  0  0  0  0  0  0  0  0  0  0  0
   15.3017  -17.2754   22.2624 O   0  0  0  0  0  0  0  0  0  0  0  0
  2  1  1  0
  2  3  2  0
  4  2  1  0
  5  4  1  0
  6  5  1  0
  6  7  1  6
  8  6  1  0
  8 10  1  0
  9  8  2  0
 11 10  1  0
 11 15  1  0
 12 13  1  0
 11 12  1  6
 13 14  2  0
 15 18  1  0
 16 15  2  0
 17 13  1  0
 18 19  1  0
 19 20  1  0
 20 21  1  0
 22 20  2  0
M  END
$$$$
