QDG.pdb
     RDKit          3D

 22 21  0  0  1  0  0  0  0  0999 V2000
    9.1969  -13.1476   16.7908 N   0  0  0  0  0  0  0  0  0  0  0  0
    8.0996  -13.9309   17.2532 C   0  0  0  0  0  0  0  0  0  0  0  0
    7.4942  -14.6077   16.3923 O   0  0  0  0  0  0  0  0  0  0  0  0
    7.7205  -13.9258   18.6587 C   0  0  0  0  0  0  0  0  0  0  0  0
    8.4634  -13.0368   19.5698 C   0  0  0  0  0  0  0  0  0  0  0  0
    9.6670  -13.5914   20.2507 C   0  0  2  0  0  0  0  0  0  0  0  0
   10.7298  -14.0289   19.4315 N   0  0  0  0  0  0  0  0  0  0  0  0
    9.2377  -14.6750   21.1910 C   0  0  0  0  0  0  0  0  0  0  0  0
    8.1190  -14.5759   21.8004 O   0  0  0  0  0  0  0  0  0  0  0  0
   10.0353  -15.8179   21.4302 N   0  0  0  0  0  0  0  0  0  0  0  0
    9.6017  -16.8704   22.3816 C   0  0  1  0  0  0  0  0  0  0  0  0
    9.7706  -18.2163   21.6844 C   0  0  0  0  0  0  0  0  0  0  0  0
    8.7176  -18.4405   20.6748 C   0  0  0  0  0  0  0  0  0  0  0  0
    7.4879  -18.1836   20.9389 O   0  0  0  0  0  0  0  0  0  0  0  0
   10.3964  -16.7315   23.6045 C   0  0  0  0  0  0  0  0  0  0  0  0
   11.5859  -16.2505   23.5125 O   0  0  0  0  0  0  0  0  0  0  0  0
    8.9681  -18.9296   19.4028 O   0  0  0  0  0  0  0  0  0  0  0  0
    9.9796  -17.0797   24.9045 N   0  0  0  0  0  0  0  0  0  0  0  0
   10.8145  -16.7837   26.0424 C   0  0  0  0  0  0  0  0  0  0  0  0
   11.4339  -18.0238   26.5457 C   0  0  0  0  0  0  0  0  0  0  0  0
   12.1052  -18.0155   27.7495 O   0  0  0  0  0  0  0  0  0  0  0  0
   11.3742  -19.1148   25.9122 O   0  0  0  0  0  0  0  0  0  0  0  0
  2  1  1  0
  2  3  2  0
  4  2  1  0
  5  4  1  0
  6  5  1  0
  6  7  1  6
  8  6  1  0
  8 10  1  0
  9  8  2  0
 11 10  1  0
 11 15  1  0
 12 13  1  0
 11 12  1  6
 13 14  2  0
 15 18  1  0
 16 15  2  0
 17 13  1  0
 18 19  1  0
 19 20  1  0
 20 21  1  0
 22 20  2  0
M  END
$$$$
