QDG.pdb
     RDKit          3D

 22 21  0  0  1  0  0  0  0  0999 V2000
    8.2134  -12.1828   18.3768 N   0  0  0  0  0  0  0  0  0  0  0  0
    7.7782  -13.3408   17.6691 C   0  0  0  0  0  0  0  0  0  0  0  0
    8.2161  -13.4819   16.5054 O   0  0  0  0  0  0  0  0  0  0  0  0
    6.8697  -14.2948   18.2883 C   0  0  0  0  0  0  0  0  0  0  0  0
    7.3422  -15.0239   19.4790 C   0  0  0  0  0  0  0  0  0  0  0  0
    8.7969  -14.9648   19.7957 C   0  0  2  0  0  0  0  0  0  0  0  0
    9.6991  -15.0692   18.7152 N   0  0  0  0  0  0  0  0  0  0  0  0
    9.1070  -15.9827   20.8493 C   0  0  0  0  0  0  0  0  0  0  0  0
    8.3039  -16.1408   21.8306 O   0  0  0  0  0  0  0  0  0  0  0  0
   10.2700  -16.7853   20.7957 N   0  0  0  0  0  0  0  0  0  0  0  0
   10.5027  -17.8656   21.7854 C   0  0  1  0  0  0  0  0  0  0  0  0
   11.5553  -18.8026   21.2021 C   0  0  0  0  0  0  0  0  0  0  0  0
   11.0445  -19.5238   20.0199 C   0  0  0  0  0  0  0  0  0  0  0  0
   11.8351  -19.8752   19.0716 O   0  0  0  0  0  0  0  0  0  0  0  0
   10.8982  -17.2433   23.0514 C   0  0  0  0  0  0  0  0  0  0  0  0
   11.8093  -16.3355   23.0311 O   0  0  0  0  0  0  0  0  0  0  0  0
    9.7130  -19.8670   19.8487 O   0  0  0  0  0  0  0  0  0  0  0  0
   10.3683  -17.5455   24.3213 N   0  0  0  0  0  0  0  0  0  0  0  0
   10.8431  -16.8531   25.4938 C   0  0  0  0  0  0  0  0  0  0  0  0
   11.4971  -17.8071   26.4087 C   0  0  0  0  0  0  0  0  0  0  0  0
   11.5439  -17.5393   27.7600 O   0  0  0  0  0  0  0  0  0  0  0  0
   12.0249  -18.8802   26.0024 O   0  0  0  0  0  0  0  0  0  0  0  0
  2  1  1  0
  2  3  2  0
  4  2  1  0
  5  4  1  0
  6  5  1  0
  6  7  1  6
  8  6  1  0
  8 10  1  0
  9  8  2  0
 11 10  1  0
 11 15  1  0
 12 13  1  0
 11 12  1  6
 13 14  2  0
 15 18  1  0
 16 15  2  0
 17 13  1  0
 18 19  1  0
 19 20  1  0
 20 21  1  0
 22 20  2  0
M  END
$$$$
