QDG.pdb
     RDKit          3D

 22 21  0  0  1  0  0  0  0  0999 V2000
    7.3882  -13.1115   19.9029 N   0  0  0  0  0  0  0  0  0  0  0  0
    7.4689  -13.6196   18.5737 C   0  0  0  0  0  0  0  0  0  0  0  0
    7.1223  -12.8423   17.6564 O   0  0  0  0  0  0  0  0  0  0  0  0
    7.9318  -14.9765   18.3216 C   0  0  0  0  0  0  0  0  0  0  0  0
    8.3586  -15.7852   19.4775 C   0  0  0  0  0  0  0  0  0  0  0  0
    9.5002  -15.2817   20.2919 C   0  0  2  0  0  0  0  0  0  0  0  0
   10.5947  -14.7240   19.5967 N   0  0  0  0  0  0  0  0  0  0  0  0
    9.9541  -16.3681   21.2172 C   0  0  0  0  0  0  0  0  0  0  0  0
    9.0879  -17.1136   21.7890 O   0  0  0  0  0  0  0  0  0  0  0  0
   11.3232  -16.6018   21.4828 N   0  0  0  0  0  0  0  0  0  0  0  0
   11.7496  -17.6306   22.4629 C   0  0  1  0  0  0  0  0  0  0  0  0
   13.1863  -18.0164   22.1265 C   0  0  0  0  0  0  0  0  0  0  0  0
   13.2649  -18.7590   20.8533 C   0  0  0  0  0  0  0  0  0  0  0  0
   12.4104  -19.6748   20.5724 O   0  0  0  0  0  0  0  0  0  0  0  0
   11.5843  -17.0723   23.8073 C   0  0  0  0  0  0  0  0  0  0  0  0
   11.6358  -15.7952   23.9523 O   0  0  0  0  0  0  0  0  0  0  0  0
   14.2369  -18.5307   19.8926 O   0  0  0  0  0  0  0  0  0  0  0  0
   11.3687  -17.8107   24.9876 N   0  0  0  0  0  0  0  0  0  0  0  0
   11.1208  -17.1341   26.2367 C   0  0  0  0  0  0  0  0  0  0  0  0
   10.7902  -18.1191   27.2832 C   0  0  0  0  0  0  0  0  0  0  0  0
   10.5318  -17.6936   28.5685 O   0  0  0  0  0  0  0  0  0  0  0  0
   10.7300  -19.3590   27.0501 O   0  0  0  0  0  0  0  0  0  0  0  0
  2  1  1  0
  2  3  2  0
  4  2  1  0
  5  4  1  0
  6  5  1  0
  6  7  1  6
  8  6  1  0
  8 10  1  0
  9  8  2  0
 11 10  1  0
 11 15  1  0
 12 13  1  0
 11 12  1  6
 13 14  2  0
 15 18  1  0
 16 15  2  0
 17 13  1  0
 18 19  1  0
 19 20  1  0
 20 21  1  0
 22 20  2  0
M  END
$$$$
