QDG.pdb
     RDKit          3D

 22 21  0  0  1  0  0  0  0  0999 V2000
    8.4391  -14.8681   16.2459 N   0  0  0  0  0  0  0  0  0  0  0  0
    8.0537  -13.5211   16.5076 C   0  0  0  0  0  0  0  0  0  0  0  0
    7.9773  -12.7594   15.5177 O   0  0  0  0  0  0  0  0  0  0  0  0
    7.7705  -13.0774   17.8648 C   0  0  0  0  0  0  0  0  0  0  0  0
    7.8984  -14.0632   18.9531 C   0  0  0  0  0  0  0  0  0  0  0  0
    8.8849  -13.7792   20.0329 C   0  0  2  0  0  0  0  0  0  0  0  0
   10.0458  -13.0601   19.6760 N   0  0  0  0  0  0  0  0  0  0  0  0
    9.2421  -15.0635   20.7153 C   0  0  0  0  0  0  0  0  0  0  0  0
    8.3148  -15.8193   21.1643 O   0  0  0  0  0  0  0  0  0  0  0  0
   10.5849  -15.4747   20.8813 N   0  0  0  0  0  0  0  0  0  0  0  0
   10.9165  -16.7695   21.5251 C   0  0  1  0  0  0  0  0  0  0  0  0
   12.1762  -17.3060   20.8532 C   0  0  0  0  0  0  0  0  0  0  0  0
   12.5971  -18.5938   21.4388 C   0  0  0  0  0  0  0  0  0  0  0  0
   11.7817  -19.5829   21.5071 O   0  0  0  0  0  0  0  0  0  0  0  0
   11.0647  -16.5358   22.9637 C   0  0  0  0  0  0  0  0  0  0  0  0
   11.6845  -15.4781   23.3533 O   0  0  0  0  0  0  0  0  0  0  0  0
   13.8662  -18.8270   21.9435 O   0  0  0  0  0  0  0  0  0  0  0  0
   10.5848  -17.3728   23.9903 N   0  0  0  0  0  0  0  0  0  0  0  0
   10.6353  -16.9431   25.3659 C   0  0  0  0  0  0  0  0  0  0  0  0
   11.0620  -18.0629   26.2255 C   0  0  0  0  0  0  0  0  0  0  0  0
   11.1270  -17.8925   27.5917 O   0  0  0  0  0  0  0  0  0  0  0  0
   11.3750  -19.1934   25.7574 O   0  0  0  0  0  0  0  0  0  0  0  0
  2  1  1  0
  2  3  2  0
  4  2  1  0
  5  4  1  0
  6  5  1  0
  6  7  1  6
  8  6  1  0
  8 10  1  0
  9  8  2  0
 11 10  1  0
 11 15  1  0
 12 13  1  0
 11 12  1  6
 13 14  2  0
 15 18  1  0
 16 15  2  0
 17 13  1  0
 18 19  1  0
 19 20  1  0
 20 21  1  0
 22 20  2  0
M  END
$$$$
