QDG.pdb
     RDKit          3D

 22 21  0  0  1  0  0  0  0  0999 V2000
    3.8051  -22.0174   25.6739 N   0  0  0  0  0  0  0  0  0  0  0  0
    4.8551  -22.9663   25.5048 C   0  0  0  0  0  0  0  0  0  0  0  0
    4.9573  -23.8493   26.3855 O   0  0  0  0  0  0  0  0  0  0  0  0
    5.7507  -22.8903   24.3597 C   0  0  0  0  0  0  0  0  0  0  0  0
    5.5308  -21.8085   23.3832 C   0  0  0  0  0  0  0  0  0  0  0  0
    6.4563  -21.7277   22.2183 C   0  0  2  0  0  0  0  0  0  0  0  0
    6.4855  -22.8302   21.3375 N   0  0  0  0  0  0  0  0  0  0  0  0
    7.8323  -21.4032   22.7120 C   0  0  0  0  0  0  0  0  0  0  0  0
    8.5716  -22.3346   23.1797 O   0  0  0  0  0  0  0  0  0  0  0  0
    8.3490  -20.0873   22.6775 N   0  0  0  0  0  0  0  0  0  0  0  0
    9.7332  -19.7949   23.1239 C   0  0  1  0  0  0  0  0  0  0  0  0
   10.2027  -18.5511   22.3764 C   0  0  0  0  0  0  0  0  0  0  0  0
   10.4011  -18.8241   20.9395 C   0  0  0  0  0  0  0  0  0  0  0  0
   11.1904  -19.7587   20.5505 O   0  0  0  0  0  0  0  0  0  0  0  0
    9.7169  -19.6411   24.5807 C   0  0  0  0  0  0  0  0  0  0  0  0
    8.7624  -18.9651   25.1161 O   0  0  0  0  0  0  0  0  0  0  0  0
    9.7690  -18.1145   19.9311 O   0  0  0  0  0  0  0  0  0  0  0  0
   10.6644  -20.1721   25.4781 N   0  0  0  0  0  0  0  0  0  0  0  0
   10.4986  -20.0008   26.9003 C   0  0  0  0  0  0  0  0  0  0  0  0
   11.5816  -20.6979   27.6187 C   0  0  0  0  0  0  0  0  0  0  0  0
   11.5932  -20.7104   28.9969 O   0  0  0  0  0  0  0  0  0  0  0  0
   12.5160  -21.2972   27.0164 O   0  0  0  0  0  0  0  0  0  0  0  0
  2  1  1  0
  2  3  2  0
  4  2  1  0
  5  4  1  0
  6  5  1  0
  6  7  1  1
  8  6  1  0
  8 10  1  0
  9  8  2  0
 11 10  1  0
 11 15  1  0
 12 13  1  0
 11 12  1  6
 13 14  2  0
 15 18  1  0
 16 15  2  0
 17 13  1  0
 18 19  1  0
 19 20  1  0
 20 21  1  0
 22 20  2  0
M  END
$$$$
