QDG.pdb
     RDKit          3D

 22 21  0  0  1  0  0  0  0  0999 V2000
    6.9437  -12.4488   18.5263 N   0  0  0  0  0  0  0  0  0  0  0  0
    7.2943  -13.6466   17.8381 C   0  0  0  0  0  0  0  0  0  0  0  0
    6.6987  -13.8664   16.7598 O   0  0  0  0  0  0  0  0  0  0  0  0
    8.2952  -14.5528   18.3824 C   0  0  0  0  0  0  0  0  0  0  0  0
    8.9011  -14.2106   19.6816 C   0  0  0  0  0  0  0  0  0  0  0  0
    9.8816  -15.1699   20.2632 C   0  0  2  0  0  0  0  0  0  0  0  0
    9.9927  -16.4349   19.6470 N   0  0  0  0  0  0  0  0  0  0  0  0
    9.6112  -15.3129   21.7291 C   0  0  0  0  0  0  0  0  0  0  0  0
    9.4137  -14.2694   22.4397 O   0  0  0  0  0  0  0  0  0  0  0  0
    9.5652  -16.5766   22.3621 N   0  0  0  0  0  0  0  0  0  0  0  0
    9.3326  -16.6949   23.8225 C   0  0  1  0  0  0  0  0  0  0  0  0
    8.1128  -17.5886   24.0214 C   0  0  0  0  0  0  0  0  0  0  0  0
    6.8582  -16.8669   23.7318 C   0  0  0  0  0  0  0  0  0  0  0  0
    6.8685  -15.6114   23.4644 O   0  0  0  0  0  0  0  0  0  0  0  0
   10.5567  -17.2162   24.4359 C   0  0  0  0  0  0  0  0  0  0  0  0
   11.0313  -16.6128   25.4680 O   0  0  0  0  0  0  0  0  0  0  0  0
    5.6114  -17.4711   23.7257 O   0  0  0  0  0  0  0  0  0  0  0  0
   11.2854  -18.3401   23.9993 N   0  0  0  0  0  0  0  0  0  0  0  0
   12.5340  -18.1727   23.2975 C   0  0  0  0  0  0  0  0  0  0  0  0
   13.5984  -17.8038   24.2493 C   0  0  0  0  0  0  0  0  0  0  0  0
   14.7803  -18.5127   24.2648 O   0  0  0  0  0  0  0  0  0  0  0  0
   13.4742  -16.8480   25.0654 O   0  0  0  0  0  0  0  0  0  0  0  0
  2  1  1  0
  2  3  2  0
  4  2  1  0
  5  4  1  0
  6  5  1  0
  6  7  1  6
  8  6  1  0
  8 10  1  0
  9  8  2  0
 11 10  1  0
 11 15  1  0
 12 13  1  0
 11 12  1  6
 13 14  2  0
 15 18  1  0
 16 15  2  0
 17 13  1  0
 18 19  1  0
 19 20  1  0
 20 21  1  0
 22 20  2  0
M  END
$$$$
