QDG.pdb
     RDKit          3D

 22 21  0  0  1  0  0  0  0  0999 V2000
    8.3300  -11.7613   19.1393 N   0  0  0  0  0  0  0  0  0  0  0  0
    8.3648  -13.1379   18.7716 C   0  0  0  0  0  0  0  0  0  0  0  0
    8.0888  -13.4054   17.5808 O   0  0  0  0  0  0  0  0  0  0  0  0
    8.7046  -14.1618   19.7490 C   0  0  0  0  0  0  0  0  0  0  0  0
    7.7844  -14.3656   20.8822 C   0  0  0  0  0  0  0  0  0  0  0  0
    8.3702  -14.8014   22.1810 C   0  0  2  0  0  0  0  0  0  0  0  0
    9.5022  -15.6429   22.1303 N   0  0  0  0  0  0  0  0  0  0  0  0
    7.2906  -15.4102   23.0215 C   0  0  0  0  0  0  0  0  0  0  0  0
    6.2396  -14.7336   23.2870 O   0  0  0  0  0  0  0  0  0  0  0  0
    7.3938  -16.7229   23.5369 N   0  0  0  0  0  0  0  0  0  0  0  0
    6.4471  -17.2197   24.5654 C   0  0  1  0  0  0  0  0  0  0  0  0
    5.9416  -18.5824   24.1031 C   0  0  0  0  0  0  0  0  0  0  0  0
    5.3126  -18.5042   22.7701 C   0  0  0  0  0  0  0  0  0  0  0  0
    4.2335  -17.8326   22.5905 O   0  0  0  0  0  0  0  0  0  0  0  0
    7.1497  -17.2520   25.8506 C   0  0  0  0  0  0  0  0  0  0  0  0
    6.4865  -17.5731   26.9050 O   0  0  0  0  0  0  0  0  0  0  0  0
    5.8237  -19.1301   21.6445 O   0  0  0  0  0  0  0  0  0  0  0  0
    8.5128  -16.9601   26.0543 N   0  0  0  0  0  0  0  0  0  0  0  0
    9.0711  -16.9729   27.3838 C   0  0  0  0  0  0  0  0  0  0  0  0
    9.6336  -18.3040   27.6783 C   0  0  0  0  0  0  0  0  0  0  0  0
   10.1855  -18.5568   28.9158 O   0  0  0  0  0  0  0  0  0  0  0  0
    9.6308  -19.2416   26.8321 O   0  0  0  0  0  0  0  0  0  0  0  0
  2  1  1  0
  2  3  2  0
  4  2  1  0
  5  4  1  0
  6  5  1  0
  6  7  1  6
  8  6  1  0
  8 10  1  0
  9  8  2  0
 11 10  1  0
 11 15  1  0
 12 13  1  0
 11 12  1  6
 13 14  2  0
 15 18  1  0
 16 15  2  0
 17 13  1  0
 18 19  1  0
 19 20  1  0
 20 21  1  0
 22 20  2  0
M  END
$$$$
