QDG.pdb
     RDKit          3D

 22 21  0  0  1  0  0  0  0  0999 V2000
    8.4969  -11.9570   18.8300 N   0  0  0  0  0  0  0  0  0  0  0  0
    8.2031  -13.1450   18.0994 C   0  0  0  0  0  0  0  0  0  0  0  0
    7.0852  -13.1945   17.5393 O   0  0  0  0  0  0  0  0  0  0  0  0
    9.1689  -14.2317   18.0246 C   0  0  0  0  0  0  0  0  0  0  0  0
   10.4500  -14.0653   18.7341 C   0  0  0  0  0  0  0  0  0  0  0  0
   11.3884  -15.2226   18.7507 C   0  0  2  0  0  0  0  0  0  0  0  0
   10.8230  -16.5128   18.8400 N   0  0  0  0  0  0  0  0  0  0  0  0
   12.4040  -15.0097   19.8304 C   0  0  0  0  0  0  0  0  0  0  0  0
   13.0762  -13.9234   19.8599 O   0  0  0  0  0  0  0  0  0  0  0  0
   12.6476  -15.9791   20.8307 N   0  0  0  0  0  0  0  0  0  0  0  0
   13.7196  -15.7887   21.8384 C   0  0  1  0  0  0  0  0  0  0  0  0
   13.4681  -16.7819   22.9682 C   0  0  0  0  0  0  0  0  0  0  0  0
   12.2301  -16.4627   23.7058 C   0  0  0  0  0  0  0  0  0  0  0  0
   12.0449  -15.2949   24.2055 O   0  0  0  0  0  0  0  0  0  0  0  0
   15.0096  -15.9672   21.1674 C   0  0  0  0  0  0  0  0  0  0  0  0
   15.2245  -17.0648   20.5320 O   0  0  0  0  0  0  0  0  0  0  0  0
   11.2038  -17.3713   23.9084 O   0  0  0  0  0  0  0  0  0  0  0  0
   16.0657  -15.0350   21.1464 N   0  0  0  0  0  0  0  0  0  0  0  0
   17.3024  -15.3482   20.4740 C   0  0  0  0  0  0  0  0  0  0  0  0
   18.1693  -14.1557   20.4381 C   0  0  0  0  0  0  0  0  0  0  0  0
   19.2349  -14.0561   21.3066 O   0  0  0  0  0  0  0  0  0  0  0  0
   17.9768  -13.2039   19.6305 O   0  0  0  0  0  0  0  0  0  0  0  0
  2  1  1  0
  2  3  2  0
  4  2  1  0
  5  4  1  0
  6  5  1  0
  6  7  1  1
  8  6  1  0
  8 10  1  0
  9  8  2  0
 11 10  1  0
 11 15  1  0
 12 13  1  0
 11 12  1  1
 13 14  2  0
 15 18  1  0
 16 15  2  0
 17 13  1  0
 18 19  1  0
 19 20  1  0
 20 21  1  0
 22 20  2  0
M  END
$$$$
