QDG.pdb
     RDKit          3D

 22 21  0  0  1  0  0  0  0  0999 V2000
    7.5191  -16.0525   13.4870 N   0  0  0  0  0  0  0  0  0  0  0  0
    7.4756  -14.6643   13.8068 C   0  0  0  0  0  0  0  0  0  0  0  0
    6.6509  -13.9701   13.1714 O   0  0  0  0  0  0  0  0  0  0  0  0
    8.3564  -14.1057   14.8223 C   0  0  0  0  0  0  0  0  0  0  0  0
    9.2999  -15.0174   15.4936 C   0  0  0  0  0  0  0  0  0  0  0  0
    9.2272  -15.1199   16.9783 C   0  0  2  0  0  0  0  0  0  0  0  0
    8.6004  -14.0612   17.6700 N   0  0  0  0  0  0  0  0  0  0  0  0
   10.6024  -15.3681   17.5166 C   0  0  0  0  0  0  0  0  0  0  0  0
   11.3470  -16.2484   16.9657 O   0  0  0  0  0  0  0  0  0  0  0  0
   11.1126  -14.6537   18.6251 N   0  0  0  0  0  0  0  0  0  0  0  0
   12.4253  -15.0005   19.2229 C   0  0  1  0  0  0  0  0  0  0  0  0
   13.4425  -13.9829   18.7171 C   0  0  0  0  0  0  0  0  0  0  0  0
   14.8216  -14.5000   18.8139 C   0  0  0  0  0  0  0  0  0  0  0  0
   15.1686  -15.5680   18.1922 O   0  0  0  0  0  0  0  0  0  0  0  0
   12.2713  -15.0120   20.6798 C   0  0  0  0  0  0  0  0  0  0  0  0
   11.7385  -13.9888   21.2490 O   0  0  0  0  0  0  0  0  0  0  0  0
   15.8172  -13.8901   19.5600 O   0  0  0  0  0  0  0  0  0  0  0  0
   12.6567  -16.0566   21.5430 N   0  0  0  0  0  0  0  0  0  0  0  0
   12.4300  -15.9511   22.9632 C   0  0  0  0  0  0  0  0  0  0  0  0
   13.0372  -17.1035   23.6546 C   0  0  0  0  0  0  0  0  0  0  0  0
   13.6117  -18.1188   22.9206 O   0  0  0  0  0  0  0  0  0  0  0  0
   13.0566  -17.2032   24.9135 O   0  0  0  0  0  0  0  0  0  0  0  0
  2  1  1  0
  2  3  2  0
  4  2  1  0
  5  4  1  0
  6  5  1  0
  6  7  1  1
  8  6  1  0
  8 10  1  0
  9  8  2  0
 11 10  1  0
 11 15  1  0
 12 13  1  0
 11 12  1  1
 13 14  2  0
 15 18  1  0
 16 15  2  0
 17 13  1  0
 18 19  1  0
 19 20  1  0
 20 21  1  0
 22 20  2  0
M  END
$$$$
