QDG.pdb
     RDKit          3D

 22 21  0  0  1  0  0  0  0  0999 V2000
    7.1751  -12.9720   17.6268 N   0  0  0  0  0  0  0  0  0  0  0  0
    7.4765  -14.0493   16.7437 C   0  0  0  0  0  0  0  0  0  0  0  0
    7.0477  -13.9485   15.5725 O   0  0  0  0  0  0  0  0  0  0  0  0
    8.2434  -15.1978   17.2041 C   0  0  0  0  0  0  0  0  0  0  0  0
    8.6914  -15.2095   18.6082 C   0  0  0  0  0  0  0  0  0  0  0  0
    9.4123  -16.4189   19.0956 C   0  0  2  0  0  0  0  0  0  0  0  0
    9.0235  -17.6646   18.5577 N   0  0  0  0  0  0  0  0  0  0  0  0
    9.3616  -16.4452   20.5920 C   0  0  0  0  0  0  0  0  0  0  0  0
    8.2588  -16.7065   21.1822 O   0  0  0  0  0  0  0  0  0  0  0  0
   10.5046  -16.1893   21.3844 N   0  0  0  0  0  0  0  0  0  0  0  0
   10.5703  -16.6278   22.8001 C   0  0  1  0  0  0  0  0  0  0  0  0
   10.2390  -18.1162   22.8347 C   0  0  0  0  0  0  0  0  0  0  0  0
   10.3374  -18.6623   24.2025 C   0  0  0  0  0  0  0  0  0  0  0  0
    9.9680  -17.9671   25.2163 O   0  0  0  0  0  0  0  0  0  0  0  0
   11.9038  -16.3044   23.3135 C   0  0  0  0  0  0  0  0  0  0  0  0
   12.0471  -16.1230   24.5789 O   0  0  0  0  0  0  0  0  0  0  0  0
   10.8205  -19.9292   24.4880 O   0  0  0  0  0  0  0  0  0  0  0  0
   13.0752  -16.1687   22.5427 N   0  0  0  0  0  0  0  0  0  0  0  0
   14.2699  -15.6074   23.1232 C   0  0  0  0  0  0  0  0  0  0  0  0
   15.1641  -16.6898   23.5745 C   0  0  0  0  0  0  0  0  0  0  0  0
   16.4355  -16.3904   24.0144 O   0  0  0  0  0  0  0  0  0  0  0  0
   14.8100  -17.9022   23.5779 O   0  0  0  0  0  0  0  0  0  0  0  0
  2  1  1  0
  2  3  2  0
  4  2  1  0
  5  4  1  0
  6  5  1  0
  6  7  1  6
  8  6  1  0
  8 10  1  0
  9  8  2  0
 11 10  1  0
 11 15  1  0
 12 13  1  0
 11 12  1  6
 13 14  2  0
 15 18  1  0
 16 15  2  0
 17 13  1  0
 18 19  1  0
 19 20  1  0
 20 21  1  0
 22 20  2  0
M  END
$$$$
