QDG.pdb
     RDKit          3D

 22 21  0  0  1  0  0  0  0  0999 V2000
    7.2875  -15.4994   17.8246 N   0  0  0  0  0  0  0  0  0  0  0  0
    7.1015  -14.3183   17.0488 C   0  0  0  0  0  0  0  0  0  0  0  0
    6.5054  -14.4550   15.9570 O   0  0  0  0  0  0  0  0  0  0  0  0
    7.5901  -13.0313   17.5221 C   0  0  0  0  0  0  0  0  0  0  0  0
    8.2287  -12.9823   18.8496 C   0  0  0  0  0  0  0  0  0  0  0  0
    9.6789  -13.3135   18.9337 C   0  0  2  0  0  0  0  0  0  0  0  0
   10.1799  -14.2633   18.0176 N   0  0  0  0  0  0  0  0  0  0  0  0
   10.0074  -13.7054   20.3411 C   0  0  0  0  0  0  0  0  0  0  0  0
    9.8037  -12.8760   21.2917 O   0  0  0  0  0  0  0  0  0  0  0  0
   10.5403  -14.9759   20.6594 N   0  0  0  0  0  0  0  0  0  0  0  0
   10.9488  -15.3110   22.0457 C   0  0  1  0  0  0  0  0  0  0  0  0
   10.0486  -16.4439   22.5276 C   0  0  0  0  0  0  0  0  0  0  0  0
   10.4121  -16.8846   23.8886 C   0  0  0  0  0  0  0  0  0  0  0  0
   11.1894  -16.1752   24.6237 O   0  0  0  0  0  0  0  0  0  0  0  0
   12.3736  -15.6513   22.0289 C   0  0  0  0  0  0  0  0  0  0  0  0
   12.9239  -16.0444   23.1231 O   0  0  0  0  0  0  0  0  0  0  0  0
    9.9555  -18.0614   24.4598 O   0  0  0  0  0  0  0  0  0  0  0  0
   13.2242  -15.5905   20.9075 N   0  0  0  0  0  0  0  0  0  0  0  0
   14.5910  -16.0401   21.0030 C   0  0  0  0  0  0  0  0  0  0  0  0
   15.4908  -14.8809   21.1502 C   0  0  0  0  0  0  0  0  0  0  0  0
   16.2219  -14.7230   22.3079 O   0  0  0  0  0  0  0  0  0  0  0  0
   15.6258  -14.0105   20.2450 O   0  0  0  0  0  0  0  0  0  0  0  0
  2  1  1  0
  2  3  2  0
  4  2  1  0
  5  4  1  0
  6  5  1  0
  6  7  1  6
  8  6  1  0
  8 10  1  0
  9  8  2  0
 11 10  1  0
 11 15  1  0
 12 13  1  0
 11 12  1  6
 13 14  2  0
 15 18  1  0
 16 15  2  0
 17 13  1  0
 18 19  1  0
 19 20  1  0
 20 21  1  0
 22 20  2  0
M  END
$$$$
