MHN.pdb
     RDKit          3D

 27 27  0  0  1  0  0  0  0  0999 V2000
   27.3211  -17.5942  -15.3814 C   0  0  0  0  0  0  0  0  0  0  0  0
   28.4165  -19.0362  -15.1416 S   0  0  0  0  0  0  0  0  0  0  0  0
   27.5655  -20.2029  -14.0062 C   0  0  0  0  0  0  0  0  0  0  0  0
   26.1237  -19.8396  -13.9288 C   0  0  0  0  0  0  0  0  0  0  0  0
   25.2794  -20.7289  -13.0518 C   0  0  2  0  0  0  0  0  0  0  0  0
   25.5561  -22.0924  -13.4924 N   0  0  0  0  0  0  0  0  0  0  0  0
   23.8559  -20.3828  -13.2613 C   0  0  0  0  0  0  0  0  0  0  0  0
   23.4141  -19.3026  -12.8449 O   0  0  0  0  0  0  0  0  0  0  0  0
   22.9342  -21.2349  -13.9294 N   0  0  0  0  0  0  0  0  0  0  0  0
   21.5658  -20.8715  -14.2330 C   0  0  1  0  0  0  0  0  0  0  0  0
   21.3588  -20.6497  -15.7033 C   0  0  0  0  0  0  0  0  0  0  0  0
   22.1362  -19.5605  -16.2737 C   0  0  0  0  0  0  0  0  0  0  0  0
   23.2708  -19.5903  -17.0717 C   0  0  0  0  0  0  0  0  0  0  0  0
   23.6393  -18.3193  -17.3582 N   0  0  0  0  0  0  0  0  0  0  0  0
   22.7605  -17.5035  -16.7570 C   0  0  0  0  0  0  0  0  0  0  0  0
   21.8629  -18.2533  -16.1093 N   0  0  0  0  0  0  0  0  0  0  0  0
   20.5895  -21.8018  -13.6329 C   0  0  0  0  0  0  0  0  0  0  0  0
   21.0046  -22.9015  -13.1794 O   0  0  0  0  0  0  0  0  0  0  0  0
   17.5415  -24.5275  -10.4031 N   0  0  0  0  0  0  0  0  0  0  0  0
   17.1754  -23.2091  -10.8350 C   0  0  0  0  0  0  0  0  0  0  0  0
   16.0036  -22.8124  -10.6791 O   0  0  0  0  0  0  0  0  0  0  0  0
   18.1711  -22.3180  -11.4616 C   0  0  0  0  0  0  0  0  0  0  0  0
   18.3207  -22.5108  -12.9499 C   0  0  2  0  0  0  0  0  0  0  0  0
   19.2001  -21.5290  -13.5358 N   0  0  0  0  0  0  0  0  0  0  0  0
   16.9886  -22.4055  -13.6001 C   0  0  0  0  0  0  0  0  0  0  0  0
   16.6329  -21.2216  -14.2797 O   0  0  0  0  0  0  0  0  0  0  0  0
   16.1246  -23.3273  -13.5883 O   0  0  0  0  0  0  0  0  0  0  0  0
  2  1  1  0
  3  2  1  0
  4  5  1  0
  4  3  1  0
  5  6  1  6
  7  8  2  0
  7  5  1  0
  9  7  1  0
 10  9  1  0
 11 12  1  0
 10 11  1  6
 12 13  2  0
 12 16  1  0
 13 14  1  0
 14 15  1  0
 16 15  2  0
 17 18  2  0
 17 10  1  0
 20 21  2  0
 20 19  1  0
 22 20  1  0
 23 24  1  0
 23 22  1  1
 24 17  1  0
 25 23  1  0
 26 25  1  0
 27 25  2  0
M  END
$$$$
