MHN.pdb
     RDKit          3D

 27 27  0  0  1  0  0  0  0  0999 V2000
   29.3256  -19.1523   -6.8593 C   0  0  0  0  0  0  0  0  0  0  0  0
   28.2871  -19.8974   -5.5542 S   0  0  0  0  0  0  0  0  0  0  0  0
   26.9315  -20.8236   -6.3782 C   0  0  0  0  0  0  0  0  0  0  0  0
   26.8859  -20.4396   -7.8160 C   0  0  0  0  0  0  0  0  0  0  0  0
   25.5090  -20.1791   -8.3719 C   0  0  2  0  0  0  0  0  0  0  0  0
   24.6935  -21.3132   -7.9494 N   0  0  0  0  0  0  0  0  0  0  0  0
   25.6013  -20.1132   -9.8474 C   0  0  0  0  0  0  0  0  0  0  0  0
   26.3034  -19.2452  -10.3852 O   0  0  0  0  0  0  0  0  0  0  0  0
   24.9160  -21.0079  -10.7145 N   0  0  0  0  0  0  0  0  0  0  0  0
   24.8527  -20.8556  -12.1531 C   0  0  1  0  0  0  0  0  0  0  0  0
   25.7529  -21.8279  -12.8589 C   0  0  0  0  0  0  0  0  0  0  0  0
   27.1398  -21.4050  -12.9753 C   0  0  0  0  0  0  0  0  0  0  0  0
   28.2777  -21.8757  -12.3361 C   0  0  0  0  0  0  0  0  0  0  0  0
   29.3482  -21.1681  -12.7683 N   0  0  0  0  0  0  0  0  0  0  0  0
   28.9007  -20.2709  -13.6594 C   0  0  0  0  0  0  0  0  0  0  0  0
   27.5772  -20.4181  -13.7786 N   0  0  0  0  0  0  0  0  0  0  0  0
   23.4663  -20.8598  -12.6595 C   0  0  0  0  0  0  0  0  0  0  0  0
   22.6136  -21.5810  -12.0764 O   0  0  0  0  0  0  0  0  0  0  0  0
   18.9463  -19.7871  -14.9570 N   0  0  0  0  0  0  0  0  0  0  0  0
   19.8698  -18.7554  -15.3331 C   0  0  0  0  0  0  0  0  0  0  0  0
   19.4714  -17.7891  -16.0130 O   0  0  0  0  0  0  0  0  0  0  0  0
   21.2860  -18.8263  -14.9238 C   0  0  0  0  0  0  0  0  0  0  0  0
   21.6293  -20.0415  -14.0991 C   0  0  2  0  0  0  0  0  0  0  0  0
   23.0333  -20.0937  -13.7731 N   0  0  0  0  0  0  0  0  0  0  0  0
   21.2692  -21.2705  -14.8529 C   0  0  0  0  0  0  0  0  0  0  0  0
   20.0274  -21.8971  -14.6182 O   0  0  0  0  0  0  0  0  0  0  0  0
   22.0171  -21.8119  -15.7154 O   0  0  0  0  0  0  0  0  0  0  0  0
  2  1  1  0
  3  2  1  0
  4  5  1  0
  4  3  1  0
  5  6  1  6
  7  8  2  0
  7  5  1  0
  9  7  1  0
 10  9  1  0
 11 12  1  0
 10 11  1  6
 12 13  2  0
 12 16  1  0
 13 14  1  0
 14 15  1  0
 16 15  2  0
 17 18  2  0
 17 10  1  0
 20 21  2  0
 20 19  1  0
 22 20  1  0
 23 24  1  0
 23 22  1  6
 24 17  1  0
 25 23  1  0
 26 25  1  0
 27 25  2  0
M  END
$$$$
