MHN.pdb
     RDKit          3D

 27 27  0  0  1  0  0  0  0  0999 V2000
   21.3033  -17.0540  -14.7810 C   0  0  0  0  0  0  0  0  0  0  0  0
   22.9970  -16.8507  -15.4345 S   0  0  0  0  0  0  0  0  0  0  0  0
   22.9529  -15.5194  -16.6995 C   0  0  0  0  0  0  0  0  0  0  0  0
   22.8121  -14.2046  -16.0152 C   0  0  0  0  0  0  0  0  0  0  0  0
   21.9267  -13.2041  -16.7137 C   0  0  2  0  0  0  0  0  0  0  0  0
   22.3493  -13.2132  -18.1105 N   0  0  0  0  0  0  0  0  0  0  0  0
   22.1452  -11.8742  -16.1025 C   0  0  0  0  0  0  0  0  0  0  0  0
   21.9222  -11.7038  -14.8955 O   0  0  0  0  0  0  0  0  0  0  0  0
   22.6081  -10.7449  -16.8321 N   0  0  0  0  0  0  0  0  0  0  0  0
   22.8083   -9.4320  -16.2551 C   0  0  1  0  0  0  0  0  0  0  0  0
   24.1579   -8.8702  -16.5975 C   0  0  0  0  0  0  0  0  0  0  0  0
   25.2862   -9.6764  -16.1581 C   0  0  0  0  0  0  0  0  0  0  0  0
   25.5889  -10.1878  -14.9044 C   0  0  0  0  0  0  0  0  0  0  0  0
   26.7501  -10.8799  -14.9815 N   0  0  0  0  0  0  0  0  0  0  0  0
   27.1735  -10.8095  -16.2523 C   0  0  0  0  0  0  0  0  0  0  0  0
   26.2922  -10.0872  -16.9517 N   0  0  0  0  0  0  0  0  0  0  0  0
   21.6933   -8.5109  -16.5501 C   0  0  0  0  0  0  0  0  0  0  0  0
   21.1921   -8.5217  -17.7060 O   0  0  0  0  0  0  0  0  0  0  0  0
   16.6056   -6.3130  -16.1963 N   0  0  0  0  0  0  0  0  0  0  0  0
   17.7344   -6.0376  -15.3545 C   0  0  0  0  0  0  0  0  0  0  0  0
   17.8100   -4.9423  -14.7633 O   0  0  0  0  0  0  0  0  0  0  0  0
   18.8065   -7.0368  -15.1811 C   0  0  0  0  0  0  0  0  0  0  0  0
   20.0517   -6.7504  -15.9826 C   0  0  2  0  0  0  0  0  0  0  0  0
   21.1479   -7.6070  -15.6017 N   0  0  0  0  0  0  0  0  0  0  0  0
   20.4589   -5.3360  -15.7779 C   0  0  0  0  0  0  0  0  0  0  0  0
   21.4527   -5.0243  -14.8265 O   0  0  0  0  0  0  0  0  0  0  0  0
   19.9648   -4.3621  -16.4133 O   0  0  0  0  0  0  0  0  0  0  0  0
  2  1  1  0
  3  2  1  0
  4  5  1  0
  4  3  1  0
  5  6  1  6
  7  8  2  0
  7  5  1  0
  9  7  1  0
 10  9  1  0
 11 12  1  0
 10 11  1  6
 12 13  2  0
 12 16  1  0
 13 14  1  0
 14 15  1  0
 16 15  2  0
 17 18  2  0
 17 10  1  0
 20 21  2  0
 20 19  1  0
 22 20  1  0
 23 24  1  0
 23 22  1  1
 24 17  1  0
 25 23  1  0
 26 25  1  0
 27 25  2  0
M  END
$$$$
