MHN.pdb
     RDKit          3D

 27 27  0  0  1  0  0  0  0  0999 V2000
   28.0826  -18.1345   -6.2292 C   0  0  0  0  0  0  0  0  0  0  0  0
   27.6863  -19.6976   -5.3711 S   0  0  0  0  0  0  0  0  0  0  0  0
   26.2145  -20.4292   -6.1916 C   0  0  0  0  0  0  0  0  0  0  0  0
   26.2319  -20.0633   -7.6347 C   0  0  0  0  0  0  0  0  0  0  0  0
   26.7729  -21.1208   -8.5630 C   0  0  2  0  0  0  0  0  0  0  0  0
   28.1931  -21.2326   -8.2461 N   0  0  0  0  0  0  0  0  0  0  0  0
   26.5751  -20.6690   -9.9583 C   0  0  0  0  0  0  0  0  0  0  0  0
   27.0844  -19.6067  -10.3426 O   0  0  0  0  0  0  0  0  0  0  0  0
   25.8159  -21.3964  -10.9155 N   0  0  0  0  0  0  0  0  0  0  0  0
   25.7736  -21.0805  -12.3280 C   0  0  1  0  0  0  0  0  0  0  0  0
   26.3632  -22.1788  -13.1648 C   0  0  0  0  0  0  0  0  0  0  0  0
   26.3766  -21.9184  -14.5959 C   0  0  0  0  0  0  0  0  0  0  0  0
   25.9491  -20.8080  -15.3095 C   0  0  0  0  0  0  0  0  0  0  0  0
   26.1638  -21.0248  -16.6287 N   0  0  0  0  0  0  0  0  0  0  0  0
   26.7139  -22.2423  -16.7490 C   0  0  0  0  0  0  0  0  0  0  0  0
   26.8386  -22.7720  -15.5278 N   0  0  0  0  0  0  0  0  0  0  0  0
   24.4308  -20.6569  -12.7707 C   0  0  0  0  0  0  0  0  0  0  0  0
   23.4249  -21.2485  -12.2956 O   0  0  0  0  0  0  0  0  0  0  0  0
   20.2972  -18.2794  -14.7871 N   0  0  0  0  0  0  0  0  0  0  0  0
   21.4463  -17.5740  -15.2778 C   0  0  0  0  0  0  0  0  0  0  0  0
   21.2918  -16.5914  -16.0297 O   0  0  0  0  0  0  0  0  0  0  0  0
   22.8085  -17.9993  -14.9018 C   0  0  0  0  0  0  0  0  0  0  0  0
   22.8517  -19.2273  -14.0272 C   0  0  2  0  0  0  0  0  0  0  0  0
   24.2036  -19.6149  -13.7070 N   0  0  0  0  0  0  0  0  0  0  0  0
   22.1848  -20.3570  -14.7252 C   0  0  0  0  0  0  0  0  0  0  0  0
   22.8844  -21.0798  -15.7142 O   0  0  0  0  0  0  0  0  0  0  0  0
   21.0004  -20.7291  -14.4904 O   0  0  0  0  0  0  0  0  0  0  0  0
  2  1  1  0
  3  2  1  0
  4  5  1  0
  4  3  1  0
  5  6  1  1
  7  8  2  0
  7  5  1  0
  9  7  1  0
 10  9  1  0
 11 12  1  0
 10 11  1  6
 12 13  2  0
 12 16  1  0
 13 14  1  0
 14 15  1  0
 16 15  2  0
 17 18  2  0
 17 10  1  0
 20 21  2  0
 20 19  1  0
 22 20  1  0
 23 24  1  0
 23 22  1  6
 24 17  1  0
 25 23  1  0
 26 25  1  0
 27 25  2  0
M  END
$$$$
