MHN.pdb
     RDKit          3D

 27 27  0  0  1  0  0  0  0  0999 V2000
   16.7678  -12.0729  -20.4703 C   0  0  0  0  0  0  0  0  0  0  0  0
   17.6752  -11.1462  -19.1840 S   0  0  0  0  0  0  0  0  0  0  0  0
   19.3355  -11.9124  -19.0083 C   0  0  0  0  0  0  0  0  0  0  0  0
   20.1100  -11.1614  -17.9820 C   0  0  0  0  0  0  0  0  0  0  0  0
   21.5478  -11.5849  -17.8198 C   0  0  2  0  0  0  0  0  0  0  0  0
   21.4998  -12.9486  -17.3023 N   0  0  0  0  0  0  0  0  0  0  0  0
   22.2010  -10.6740  -16.8535 C   0  0  0  0  0  0  0  0  0  0  0  0
   22.0157  -10.8258  -15.6377 O   0  0  0  0  0  0  0  0  0  0  0  0
   23.0532   -9.6037  -17.2410 N   0  0  0  0  0  0  0  0  0  0  0  0
   23.6256   -8.6465  -16.3176 C   0  0  1  0  0  0  0  0  0  0  0  0
   25.1212   -8.5839  -16.4322 C   0  0  0  0  0  0  0  0  0  0  0  0
   25.8153   -9.8088  -16.0663 C   0  0  0  0  0  0  0  0  0  0  0  0
   25.3249  -10.9935  -15.5364 C   0  0  0  0  0  0  0  0  0  0  0  0
   26.3545  -11.8551  -15.3609 N   0  0  0  0  0  0  0  0  0  0  0  0
   27.4703  -11.2326  -15.7692 C   0  0  0  0  0  0  0  0  0  0  0  0
   27.1403  -10.0074  -16.1905 N   0  0  0  0  0  0  0  0  0  0  0  0
   22.9714   -7.3258  -16.3976 C   0  0  0  0  0  0  0  0  0  0  0  0
   22.8573   -6.7770  -17.5259 O   0  0  0  0  0  0  0  0  0  0  0  0
   19.4238   -6.3058  -16.6451 N   0  0  0  0  0  0  0  0  0  0  0  0
   19.3455   -5.7900  -15.3085 C   0  0  0  0  0  0  0  0  0  0  0  0
   18.2534   -5.8000  -14.7068 O   0  0  0  0  0  0  0  0  0  0  0  0
   20.5437   -5.2482  -14.6387 C   0  0  0  0  0  0  0  0  0  0  0  0
   21.8082   -5.3581  -15.4534 C   0  0  2  0  0  0  0  0  0  0  0  0
   22.4594   -6.6320  -15.2704 N   0  0  0  0  0  0  0  0  0  0  0  0
   22.7501   -4.2799  -15.0552 C   0  0  0  0  0  0  0  0  0  0  0  0
   22.4364   -2.9349  -15.3422 O   0  0  0  0  0  0  0  0  0  0  0  0
   23.8453   -4.4862  -14.4599 O   0  0  0  0  0  0  0  0  0  0  0  0
  2  1  1  0
  3  2  1  0
  4  5  1  0
  4  3  1  0
  5  6  1  1
  7  8  2  0
  7  5  1  0
  9  7  1  0
 10  9  1  0
 11 12  1  0
 10 11  1  6
 12 13  2  0
 12 16  1  0
 13 14  1  0
 14 15  1  0
 16 15  2  0
 17 18  2  0
 17 10  1  0
 20 21  2  0
 20 19  1  0
 22 20  1  0
 23 24  1  0
 23 22  1  1
 24 17  1  0
 25 23  1  0
 26 25  1  0
 27 25  2  0
M  END
$$$$
