MHN.pdb
     RDKit          3D

 27 27  0  0  1  0  0  0  0  0999 V2000
   20.9271  -11.6803    7.8183 C   0  0  0  0  0  0  0  0  0  0  0  0
   21.1799  -11.6655    6.0092 S   0  0  0  0  0  0  0  0  0  0  0  0
   19.5484  -11.9483    5.2137 C   0  0  0  0  0  0  0  0  0  0  0  0
   18.9834  -13.2337    5.7094 C   0  0  0  0  0  0  0  0  0  0  0  0
   17.6807  -13.6534    5.0771 C   0  0  2  0  0  0  0  0  0  0  0  0
   16.7030  -12.6512    5.4891 N   0  0  0  0  0  0  0  0  0  0  0  0
   17.3167  -14.9921    5.5924 C   0  0  0  0  0  0  0  0  0  0  0  0
   16.7032  -15.0968    6.6639 O   0  0  0  0  0  0  0  0  0  0  0  0
   17.6349  -16.2027    4.9177 N   0  0  0  0  0  0  0  0  0  0  0  0
   17.3078  -17.5213    5.4184 C   0  0  1  0  0  0  0  0  0  0  0  0
   16.8653  -18.4433    4.3192 C   0  0  0  0  0  0  0  0  0  0  0  0
   15.5066  -18.2257    3.8472 C   0  0  0  0  0  0  0  0  0  0  0  0
   14.5211  -17.3684    4.3149 C   0  0  0  0  0  0  0  0  0  0  0  0
   13.4123  -17.5167    3.5521 N   0  0  0  0  0  0  0  0  0  0  0  0
   13.6874  -18.4449    2.6237 C   0  0  0  0  0  0  0  0  0  0  0  0
   14.9433  -18.8654    2.8060 N   0  0  0  0  0  0  0  0  0  0  0  0
   18.3775  -18.0836    6.2658 C   0  0  0  0  0  0  0  0  0  0  0  0
   19.5693  -18.0024    5.8652 O   0  0  0  0  0  0  0  0  0  0  0  0
   21.2225  -20.3136    9.9920 N   0  0  0  0  0  0  0  0  0  0  0  0
   20.3231  -19.3324   10.5279 C   0  0  0  0  0  0  0  0  0  0  0  0
   20.4233  -18.9918   11.7232 O   0  0  0  0  0  0  0  0  0  0  0  0
   19.2812  -18.7224    9.6793 C   0  0  0  0  0  0  0  0  0  0  0  0
   19.2527  -19.2465    8.2653 C   0  0  2  0  0  0  0  0  0  0  0  0
   18.1416  -18.7150    7.5147 N   0  0  0  0  0  0  0  0  0  0  0  0
   19.1470  -20.7287    8.2878 C   0  0  0  0  0  0  0  0  0  0  0  0
   20.2957  -21.5159    8.0632 O   0  0  0  0  0  0  0  0  0  0  0  0
   18.0701  -21.3545    8.4999 O   0  0  0  0  0  0  0  0  0  0  0  0
  2  1  1  0
  3  2  1  0
  4  5  1  0
  4  3  1  0
  5  6  1  1
  7  8  2  0
  7  5  1  0
  9  7  1  0
 10  9  1  0
 11 12  1  0
 10 11  1  6
 12 13  2  0
 12 16  1  0
 13 14  1  0
 14 15  1  0
 16 15  2  0
 17 18  2  0
 17 10  1  0
 20 21  2  0
 20 19  1  0
 22 20  1  0
 23 24  1  0
 23 22  1  1
 24 17  1  0
 25 23  1  0
 26 25  1  0
 27 25  2  0
M  END
$$$$
