MHN.pdb
     RDKit          3D

 27 27  0  0  1  0  0  0  0  0999 V2000
   28.7842  -18.0431   -6.9288 C   0  0  0  0  0  0  0  0  0  0  0  0
   27.5525  -19.2365   -6.2998 S   0  0  0  0  0  0  0  0  0  0  0  0
   27.4480  -20.6201   -7.5037 C   0  0  0  0  0  0  0  0  0  0  0  0
   26.8563  -20.1148   -8.7731 C   0  0  0  0  0  0  0  0  0  0  0  0
   26.6066  -21.1599   -9.8305 C   0  0  2  0  0  0  0  0  0  0  0  0
   27.9274  -21.5861  -10.2817 N   0  0  0  0  0  0  0  0  0  0  0  0
   25.8438  -20.5386  -10.9361 C   0  0  0  0  0  0  0  0  0  0  0  0
   26.2091  -19.4514  -11.4053 O   0  0  0  0  0  0  0  0  0  0  0  0
   24.6840  -21.1256  -11.5125 N   0  0  0  0  0  0  0  0  0  0  0  0
   23.9684  -20.5695  -12.6418 C   0  0  1  0  0  0  0  0  0  0  0  0
   24.4768  -21.1094  -13.9472 C   0  0  0  0  0  0  0  0  0  0  0  0
   25.8300  -20.7025  -14.2928 C   0  0  0  0  0  0  0  0  0  0  0  0
   26.9994  -21.4456  -14.3640 C   0  0  0  0  0  0  0  0  0  0  0  0
   28.0162  -20.6297  -14.7296 N   0  0  0  0  0  0  0  0  0  0  0  0
   27.5047  -19.3997  -14.8864 C   0  0  0  0  0  0  0  0  0  0  0  0
   26.1949  -19.4502  -14.6233 N   0  0  0  0  0  0  0  0  0  0  0  0
   22.5042  -20.6761  -12.4888 C   0  0  0  0  0  0  0  0  0  0  0  0
   22.0314  -21.6848  -11.9003 O   0  0  0  0  0  0  0  0  0  0  0  0
   20.8620  -18.4525  -15.1502 N   0  0  0  0  0  0  0  0  0  0  0  0
   19.8127  -17.9409  -14.3159 C   0  0  0  0  0  0  0  0  0  0  0  0
   19.2685  -16.8568  -14.6047 O   0  0  0  0  0  0  0  0  0  0  0  0
   19.3710  -18.6843  -13.1200 C   0  0  0  0  0  0  0  0  0  0  0  0
   20.1721  -19.9308  -12.8382 C   0  0  2  0  0  0  0  0  0  0  0  0
   21.5902  -19.7024  -12.9691 N   0  0  0  0  0  0  0  0  0  0  0  0
   19.7725  -21.0022  -13.7873 C   0  0  0  0  0  0  0  0  0  0  0  0
   18.5217  -21.6375  -13.6398 O   0  0  0  0  0  0  0  0  0  0  0  0
   20.4936  -21.3980  -14.7464 O   0  0  0  0  0  0  0  0  0  0  0  0
  2  1  1  0
  3  2  1  0
  4  5  1  0
  4  3  1  0
  5  6  1  6
  7  8  2  0
  7  5  1  0
  9  7  1  0
 10  9  1  0
 11 12  1  0
 10 11  1  6
 12 13  2  0
 12 16  1  0
 13 14  1  0
 14 15  1  0
 16 15  2  0
 17 18  2  0
 17 10  1  0
 20 21  2  0
 20 19  1  0
 22 20  1  0
 23 24  1  0
 23 22  1  6
 24 17  1  0
 25 23  1  0
 26 25  1  0
 27 25  2  0
M  END
$$$$
