MHN.pdb
     RDKit          3D

 27 27  0  0  1  0  0  0  0  0999 V2000
   28.2282  -21.3898  -13.1257 C   0  0  0  0  0  0  0  0  0  0  0  0
   26.9240  -22.1407  -12.0903 S   0  0  0  0  0  0  0  0  0  0  0  0
   25.8822  -20.7802  -11.4283 C   0  0  0  0  0  0  0  0  0  0  0  0
   24.6876  -20.6151  -12.3016 C   0  0  0  0  0  0  0  0  0  0  0  0
   24.9787  -20.4664  -13.7733 C   0  0  2  0  0  0  0  0  0  0  0  0
   25.8641  -19.3115  -13.8841 N   0  0  0  0  0  0  0  0  0  0  0  0
   23.7030  -20.2263  -14.4840 C   0  0  0  0  0  0  0  0  0  0  0  0
   23.1074  -19.1494  -14.3394 O   0  0  0  0  0  0  0  0  0  0  0  0
   23.0979  -21.1798  -15.3481 N   0  0  0  0  0  0  0  0  0  0  0  0
   21.8579  -20.9569  -16.0617 C   0  0  1  0  0  0  0  0  0  0  0  0
   22.0414  -21.0598  -17.5482 C   0  0  0  0  0  0  0  0  0  0  0  0
   22.5555  -19.8579  -18.1863 C   0  0  0  0  0  0  0  0  0  0  0  0
   22.7664  -18.5879  -17.6691 C   0  0  0  0  0  0  0  0  0  0  0  0
   23.2615  -17.7926  -18.6467 N   0  0  0  0  0  0  0  0  0  0  0  0
   23.3622  -18.5393  -19.7564 C   0  0  0  0  0  0  0  0  0  0  0  0
   22.9378  -19.7752  -19.4738 N   0  0  0  0  0  0  0  0  0  0  0  0
   20.7530  -21.7877  -15.5443 C   0  0  0  0  0  0  0  0  0  0  0  0
   20.9871  -22.9922  -15.2585 O   0  0  0  0  0  0  0  0  0  0  0  0
   17.3496  -23.4483  -12.5525 N   0  0  0  0  0  0  0  0  0  0  0  0
   16.8897  -22.1299  -12.8828 C   0  0  0  0  0  0  0  0  0  0  0  0
   16.1233  -21.5308  -12.1027 O   0  0  0  0  0  0  0  0  0  0  0  0
   17.3144  -21.4757  -14.1357 C   0  0  0  0  0  0  0  0  0  0  0  0
   18.4101  -22.2057  -14.8715 C   0  0  2  0  0  0  0  0  0  0  0  0
   19.4323  -21.3066  -15.3481 N   0  0  0  0  0  0  0  0  0  0  0  0
   17.8309  -22.9277  -16.0341 C   0  0  0  0  0  0  0  0  0  0  0  0
   17.3643  -24.2495  -15.8756 O   0  0  0  0  0  0  0  0  0  0  0  0
   17.7226  -22.4289  -17.1899 O   0  0  0  0  0  0  0  0  0  0  0  0
  2  1  1  0
  3  2  1  0
  4  5  1  0
  4  3  1  0
  5  6  1  1
  7  8  2  0
  7  5  1  0
  9  7  1  0
 10  9  1  0
 11 12  1  0
 10 11  1  6
 12 13  2  0
 12 16  1  0
 13 14  1  0
 14 15  1  0
 16 15  2  0
 17 18  2  0
 17 10  1  0
 20 21  2  0
 20 19  1  0
 22 20  1  0
 23 24  1  0
 23 22  1  6
 24 17  1  0
 25 23  1  0
 26 25  1  0
 27 25  2  0
M  END
$$$$
