MHN.pdb
     RDKit          3D

 27 27  0  0  1  0  0  0  0  0999 V2000
   26.8054  -21.3168   -9.8785 C   0  0  0  0  0  0  0  0  0  0  0  0
   28.1455  -21.8301  -11.0087 S   0  0  0  0  0  0  0  0  0  0  0  0
   28.6696  -20.3510  -11.9639 C   0  0  0  0  0  0  0  0  0  0  0  0
   27.6052  -20.0060  -12.9463 C   0  0  0  0  0  0  0  0  0  0  0  0
   27.3416  -21.0462  -14.0053 C   0  0  2  0  0  0  0  0  0  0  0  0
   28.5842  -21.1604  -14.7620 N   0  0  0  0  0  0  0  0  0  0  0  0
   26.2374  -20.5706  -14.8682 C   0  0  0  0  0  0  0  0  0  0  0  0
   25.7755  -19.4317  -14.7105 O   0  0  0  0  0  0  0  0  0  0  0  0
   25.6543  -21.3594  -15.8977 N   0  0  0  0  0  0  0  0  0  0  0  0
   24.5019  -20.9555  -16.6759 C   0  0  1  0  0  0  0  0  0  0  0  0
   24.5856  -21.4424  -18.0936 C   0  0  0  0  0  0  0  0  0  0  0  0
   23.4470  -21.0935  -18.9291 C   0  0  0  0  0  0  0  0  0  0  0  0
   22.6315  -21.8955  -19.7143 C   0  0  0  0  0  0  0  0  0  0  0  0
   21.6975  -21.1191  -20.3127 N   0  0  0  0  0  0  0  0  0  0  0  0
   21.9150  -19.8560  -19.9170 C   0  0  0  0  0  0  0  0  0  0  0  0
   22.9642  -19.8477  -19.0885 N   0  0  0  0  0  0  0  0  0  0  0  0
   23.2275  -21.2903  -16.0107 C   0  0  0  0  0  0  0  0  0  0  0  0
   23.2204  -22.2095  -15.1492 O   0  0  0  0  0  0  0  0  0  0  0  0
   19.4043  -21.9278  -12.7376 N   0  0  0  0  0  0  0  0  0  0  0  0
   19.8626  -20.6424  -13.1809 C   0  0  0  0  0  0  0  0  0  0  0  0
   19.2385  -19.6161  -12.8461 O   0  0  0  0  0  0  0  0  0  0  0  0
   21.0647  -20.5225  -14.0287 C   0  0  0  0  0  0  0  0  0  0  0  0
   20.8443  -20.9110  -15.4693 C   0  0  2  0  0  0  0  0  0  0  0  0
   22.0001  -20.6332  -16.2863 N   0  0  0  0  0  0  0  0  0  0  0  0
   19.6840  -20.1591  -16.0139 C   0  0  0  0  0  0  0  0  0  0  0  0
   19.9023  -19.0118  -16.8051 O   0  0  0  0  0  0  0  0  0  0  0  0
   18.4790  -20.4822  -15.8138 O   0  0  0  0  0  0  0  0  0  0  0  0
  2  1  1  0
  3  2  1  0
  4  5  1  0
  4  3  1  0
  5  6  1  6
  7  8  2  0
  7  5  1  0
  9  7  1  0
 10  9  1  0
 11 12  1  0
 10 11  1  6
 12 13  2  0
 12 16  1  0
 13 14  1  0
 14 15  1  0
 16 15  2  0
 17 18  2  0
 17 10  1  0
 20 21  2  0
 20 19  1  0
 22 20  1  0
 23 24  1  0
 23 22  1  1
 24 17  1  0
 25 23  1  0
 26 25  1  0
 27 25  2  0
M  END
$$$$
