MHN.pdb
     RDKit          3D

 27 27  0  0  1  0  0  0  0  0999 V2000
   23.0217  -17.8987  -22.5194 C   0  0  0  0  0  0  0  0  0  0  0  0
   24.1680  -16.5155  -22.1889 S   0  0  0  0  0  0  0  0  0  0  0  0
   25.3011  -17.0374  -20.8404 C   0  0  0  0  0  0  0  0  0  0  0  0
   24.5485  -17.8862  -19.8759 C   0  0  0  0  0  0  0  0  0  0  0  0
   25.0314  -17.8263  -18.4490 C   0  0  2  0  0  0  0  0  0  0  0  0
   26.4385  -18.2112  -18.4938 N   0  0  0  0  0  0  0  0  0  0  0  0
   24.2444  -18.7874  -17.6446 C   0  0  0  0  0  0  0  0  0  0  0  0
   23.2161  -19.2928  -18.1164 O   0  0  0  0  0  0  0  0  0  0  0  0
   24.6022  -19.1805  -16.3257 N   0  0  0  0  0  0  0  0  0  0  0  0
   23.8211  -20.0848  -15.5080 C   0  0  1  0  0  0  0  0  0  0  0  0
   24.6923  -20.9894  -14.6854 C   0  0  0  0  0  0  0  0  0  0  0  0
   25.4788  -21.9442  -15.4507 C   0  0  0  0  0  0  0  0  0  0  0  0
   25.2302  -23.2762  -15.7492 C   0  0  0  0  0  0  0  0  0  0  0  0
   26.2538  -23.7575  -16.4934 N   0  0  0  0  0  0  0  0  0  0  0  0
   27.1299  -22.7560  -16.6629 C   0  0  0  0  0  0  0  0  0  0  0  0
   26.6597  -21.6729  -16.0359 N   0  0  0  0  0  0  0  0  0  0  0  0
   22.7886  -19.3830  -14.7205 C   0  0  0  0  0  0  0  0  0  0  0  0
   23.1575  -18.5841  -13.8189 O   0  0  0  0  0  0  0  0  0  0  0  0
   18.4961  -17.3023  -12.7399 N   0  0  0  0  0  0  0  0  0  0  0  0
   18.6270  -17.1106  -14.1559 C   0  0  0  0  0  0  0  0  0  0  0  0
   17.8426  -16.3444  -14.7495 O   0  0  0  0  0  0  0  0  0  0  0  0
   19.6801  -17.8108  -14.9167 C   0  0  0  0  0  0  0  0  0  0  0  0
   20.4609  -18.8156  -14.1070 C   0  0  2  0  0  0  0  0  0  0  0  0
   21.3942  -19.5560  -14.9202 N   0  0  0  0  0  0  0  0  0  0  0  0
   19.5224  -19.7735  -13.4668 C   0  0  0  0  0  0  0  0  0  0  0  0
   18.8777  -19.4228  -12.2621 O   0  0  0  0  0  0  0  0  0  0  0  0
   19.2514  -20.9145  -13.9371 O   0  0  0  0  0  0  0  0  0  0  0  0
  2  1  1  0
  3  2  1  0
  4  5  1  0
  4  3  1  0
  5  6  1  6
  7  8  2  0
  7  5  1  0
  9  7  1  0
 10  9  1  0
 11 12  1  0
 10 11  1  1
 12 13  2  0
 12 16  1  0
 13 14  1  0
 14 15  1  0
 16 15  2  0
 17 18  2  0
 17 10  1  0
 20 21  2  0
 20 19  1  0
 22 20  1  0
 23 24  1  0
 23 22  1  6
 24 17  1  0
 25 23  1  0
 26 25  1  0
 27 25  2  0
M  END
$$$$
