MHN.pdb
     RDKit          3D

 27 27  0  0  1  0  0  0  0  0999 V2000
   28.3985  -10.4489  -16.1014 C   0  0  0  0  0  0  0  0  0  0  0  0
   28.6264  -12.2205  -16.4837 S   0  0  0  0  0  0  0  0  0  0  0  0
   27.1592  -13.1239  -15.8468 C   0  0  0  0  0  0  0  0  0  0  0  0
   25.9267  -12.3911  -16.2477 C   0  0  0  0  0  0  0  0  0  0  0  0
   24.6278  -13.0750  -15.9044 C   0  0  2  0  0  0  0  0  0  0  0  0
   24.5701  -14.2591  -16.7555 N   0  0  0  0  0  0  0  0  0  0  0  0
   23.5135  -12.1495  -16.2076 C   0  0  0  0  0  0  0  0  0  0  0  0
   23.1565  -11.9747  -17.3813 O   0  0  0  0  0  0  0  0  0  0  0  0
   22.8045  -11.4259  -15.2098 N   0  0  0  0  0  0  0  0  0  0  0  0
   21.7494  -10.4752  -15.4920 C   0  0  1  0  0  0  0  0  0  0  0  0
   20.4411  -10.8955  -14.8871 C   0  0  0  0  0  0  0  0  0  0  0  0
   19.7760  -11.9946  -15.5694 C   0  0  0  0  0  0  0  0  0  0  0  0
   20.1028  -12.6469  -16.7496 C   0  0  0  0  0  0  0  0  0  0  0  0
   19.1828  -13.6115  -16.9871 N   0  0  0  0  0  0  0  0  0  0  0  0
   18.2945  -13.5724  -15.9828 C   0  0  0  0  0  0  0  0  0  0  0  0
   18.6556  -12.6018  -15.1372 N   0  0  0  0  0  0  0  0  0  0  0  0
   22.1355   -9.0899  -15.1598 C   0  0  0  0  0  0  0  0  0  0  0  0
   22.6992   -8.8697  -14.0547 O   0  0  0  0  0  0  0  0  0  0  0  0
   23.3993   -4.0733  -15.1829 N   0  0  0  0  0  0  0  0  0  0  0  0
   23.5209   -4.6075  -16.5091 C   0  0  0  0  0  0  0  0  0  0  0  0
   24.0558   -3.9223  -17.4031 O   0  0  0  0  0  0  0  0  0  0  0  0
   23.0196   -5.9589  -16.8257 C   0  0  0  0  0  0  0  0  0  0  0  0
   22.4104   -6.6816  -15.6503 C   0  0  2  0  0  0  0  0  0  0  0  0
   21.9079   -7.9826  -16.0179 N   0  0  0  0  0  0  0  0  0  0  0  0
   21.2896   -5.8761  -15.0996 C   0  0  0  0  0  0  0  0  0  0  0  0
   20.0007   -6.4418  -15.0063 O   0  0  0  0  0  0  0  0  0  0  0  0
   21.4104   -4.6848  -14.6963 O   0  0  0  0  0  0  0  0  0  0  0  0
  2  1  1  0
  3  2  1  0
  4  5  1  0
  4  3  1  0
  5  6  1  6
  7  8  2  0
  7  5  1  0
  9  7  1  0
 10  9  1  0
 11 12  1  0
 10 11  1  1
 12 13  2  0
 12 16  1  0
 13 14  1  0
 14 15  1  0
 16 15  2  0
 17 18  2  0
 17 10  1  0
 20 21  2  0
 20 19  1  0
 22 20  1  0
 23 24  1  0
 23 22  1  6
 24 17  1  0
 25 23  1  0
 26 25  1  0
 27 25  2  0
M  END
$$$$
