MHN.pdb
     RDKit          3D

 27 27  0  0  1  0  0  0  0  0999 V2000
   21.9625  -12.1552  -16.2385 C   0  0  0  0  0  0  0  0  0  0  0  0
   23.1136  -11.5260  -17.5097 S   0  0  0  0  0  0  0  0  0  0  0  0
   24.7109  -12.4100  -17.3053 C   0  0  0  0  0  0  0  0  0  0  0  0
   24.5376  -13.4997  -16.3055 C   0  0  0  0  0  0  0  0  0  0  0  0
   25.7902  -14.2635  -15.9586 C   0  0  2  0  0  0  0  0  0  0  0  0
   26.8456  -13.6828  -16.7826 N   0  0  0  0  0  0  0  0  0  0  0  0
   25.5805  -15.6896  -16.2936 C   0  0  0  0  0  0  0  0  0  0  0  0
   26.0433  -16.1526  -17.3457 O   0  0  0  0  0  0  0  0  0  0  0  0
   24.8606  -16.5905  -15.4616 N   0  0  0  0  0  0  0  0  0  0  0  0
   24.6634  -17.9929  -15.7633 C   0  0  1  0  0  0  0  0  0  0  0  0
   25.5651  -18.8731  -14.9469 C   0  0  0  0  0  0  0  0  0  0  0  0
   26.5786  -19.5860  -15.7088 C   0  0  0  0  0  0  0  0  0  0  0  0
   26.8006  -19.6380  -17.0773 C   0  0  0  0  0  0  0  0  0  0  0  0
   27.8670  -20.4367  -17.3189 N   0  0  0  0  0  0  0  0  0  0  0  0
   28.3104  -20.8803  -16.1333 C   0  0  0  0  0  0  0  0  0  0  0  0
   27.5344  -20.3671  -15.1732 N   0  0  0  0  0  0  0  0  0  0  0  0
   23.2422  -18.3874  -15.7049 C   0  0  0  0  0  0  0  0  0  0  0  0
   22.5890  -18.1343  -14.6577 O   0  0  0  0  0  0  0  0  0  0  0  0
   18.3702  -19.8011  -16.7657 N   0  0  0  0  0  0  0  0  0  0  0  0
   19.1964  -20.4027  -17.7728 C   0  0  0  0  0  0  0  0  0  0  0  0
   18.6716  -21.0895  -18.6716 O   0  0  0  0  0  0  0  0  0  0  0  0
   20.6604  -20.2171  -17.7558 C   0  0  0  0  0  0  0  0  0  0  0  0
   21.1573  -19.3371  -16.6363 C   0  0  2  0  0  0  0  0  0  0  0  0
   22.5628  -19.0399  -16.7663 N   0  0  0  0  0  0  0  0  0  0  0  0
   20.9326  -20.0169  -15.3341 C   0  0  0  0  0  0  0  0  0  0  0  0
   21.6774  -21.1698  -15.0086 O   0  0  0  0  0  0  0  0  0  0  0  0
   20.0975  -19.6257  -14.4705 O   0  0  0  0  0  0  0  0  0  0  0  0
  2  1  1  0
  3  2  1  0
  4  5  1  0
  4  3  1  0
  5  6  1  6
  7  8  2  0
  7  5  1  0
  9  7  1  0
 10  9  1  0
 11 12  1  0
 10 11  1  1
 12 13  2  0
 12 16  1  0
 13 14  1  0
 14 15  1  0
 16 15  2  0
 17 18  2  0
 17 10  1  0
 20 21  2  0
 20 19  1  0
 22 20  1  0
 23 24  1  0
 23 22  1  6
 24 17  1  0
 25 23  1  0
 26 25  1  0
 27 25  2  0
M  END
$$$$
