VRA.pdb
     RDKit          3D

 24 23  0  0  1  0  0  0  0  0999 V2000
    7.4351  -14.2341   18.4659 C   0  0  0  0  0  0  0  0  0  0  0  0
    7.7624  -13.1370   19.5168 C   0  0  2  0  0  0  0  0  0  0  0  0
    7.7390  -11.8376   18.7362 C   0  0  0  0  0  0  0  0  0  0  0  0
    9.0877  -13.5015   20.0724 C   0  0  2  0  0  0  0  0  0  0  0  0
   10.0438  -13.5361   18.9561 N   0  0  0  0  0  0  0  0  0  0  0  0
    9.1900  -14.7663   20.8139 C   0  0  0  0  0  0  0  0  0  0  0  0
    8.4862  -14.9143   21.8774 O   0  0  0  0  0  0  0  0  0  0  0  0
   11.8592  -19.6554   17.7546 N   0  0  0  0  0  0  0  0  0  0  0  0
   12.6768  -20.3476   18.6637 C   0  0  0  0  0  0  0  0  0  0  0  0
   13.9370  -20.5500   18.3663 N   0  0  0  0  0  0  0  0  0  0  0  0
   12.1531  -20.8285   19.8964 N   0  0  0  0  0  0  0  0  0  0  0  0
   10.7142  -20.7507   20.0733 C   0  0  0  0  0  0  0  0  0  0  0  0
   10.3185  -19.6122   20.9785 C   0  0  0  0  0  0  0  0  0  0  0  0
   10.3857  -18.2719   20.3487 C   0  0  0  0  0  0  0  0  0  0  0  0
    9.9512  -17.1336   21.2285 C   0  0  2  0  0  0  0  0  0  0  0  0
    9.9918  -15.8681   20.4825 N   0  0  0  0  0  0  0  0  0  0  0  0
   10.6632  -17.0309   22.5114 C   0  0  0  0  0  0  0  0  0  0  0  0
   11.9177  -16.9227   22.5477 O   0  0  0  0  0  0  0  0  0  0  0  0
   14.5775  -21.0409   19.0076 C   0  0  0  0  0  0  0  0  0  0  0  0
   10.0404  -16.2463   26.0826 C   0  0  2  0  0  0  0  0  0  0  0  0
   10.7706  -17.0149   25.0074 N   0  0  0  0  0  0  0  0  0  0  0  0
   10.0145  -17.0454   23.7768 C   0  0  0  0  0  0  0  0  0  0  0  0
   11.0789  -18.3830   25.4924 O   0  0  0  0  0  0  0  0  0  0  0  0
   11.7872  -18.5300   26.5203 O   0  0  0  0  0  0  0  0  0  0  0  0
  2  1  1  6
  2  3  1  0
  4  2  1  0
  4  6  1  0
  4  5  1  6
  6  7  2  0
  9  8  1  0
  9 11  1  0
 10  9  2  0
 12 11  1  0
 13 12  1  0
 14 13  1  0
 15 14  1  6
 16  6  1  0
 16 15  1  0
 17 18  2  0
 17 15  1  0
 20 19  1  6
 20 21  1  0
 21 17  1  0
 22 24  1  0
 22 20  1  0
 23 22  2  0
M  END
$$$$
