VRA.pdb
     RDKit          3D

 24 23  0  0  1  0  0  0  0  0999 V2000
    7.8365  -11.9259   20.2212 C   0  0  0  0  0  0  0  0  0  0  0  0
    8.5595  -12.9408   19.2924 C   0  0  2  0  0  0  0  0  0  0  0  0
    7.5006  -13.9697   18.9489 C   0  0  0  0  0  0  0  0  0  0  0  0
    9.6974  -13.4646   20.0855 C   0  0  2  0  0  0  0  0  0  0  0  0
   10.5819  -14.1947   19.1656 N   0  0  0  0  0  0  0  0  0  0  0  0
    9.3868  -14.3380   21.2260 C   0  0  0  0  0  0  0  0  0  0  0  0
    8.5807  -13.9082   22.1280 O   0  0  0  0  0  0  0  0  0  0  0  0
   13.6313  -18.6994   20.5691 N   0  0  0  0  0  0  0  0  0  0  0  0
   12.8012  -19.4124   19.6877 C   0  0  0  0  0  0  0  0  0  0  0  0
   13.1557  -19.5351   18.4321 N   0  0  0  0  0  0  0  0  0  0  0  0
   11.5870  -19.9987   20.1423 N   0  0  0  0  0  0  0  0  0  0  0  0
   11.2145  -19.7500   21.5234 C   0  0  0  0  0  0  0  0  0  0  0  0
   11.0040  -18.2822   21.7946 C   0  0  0  0  0  0  0  0  0  0  0  0
    9.6334  -17.9269   22.2340 C   0  0  0  0  0  0  0  0  0  0  0  0
    9.4278  -16.4749   22.5629 C   0  0  2  0  0  0  0  0  0  0  0  0
    9.8832  -15.6303   21.4498 N   0  0  0  0  0  0  0  0  0  0  0  0
   10.0016  -16.0393   23.8453 C   0  0  0  0  0  0  0  0  0  0  0  0
   11.2005  -15.6606   23.9218 O   0  0  0  0  0  0  0  0  0  0  0  0
   12.5829  -20.0558   17.7513 C   0  0  0  0  0  0  0  0  0  0  0  0
    9.0829  -14.4684   26.9477 C   0  0  2  0  0  0  0  0  0  0  0  0
    9.8876  -15.5674   26.2959 N   0  0  0  0  0  0  0  0  0  0  0  0
    9.2730  -16.0111   25.0662 C   0  0  0  0  0  0  0  0  0  0  0  0
   10.0686  -16.6885   27.2511 O   0  0  0  0  0  0  0  0  0  0  0  0
    9.5774  -17.8143   26.9840 O   0  0  0  0  0  0  0  0  0  0  0  0
  2  1  1  1
  2  3  1  0
  4  2  1  0
  4  6  1  0
  4  5  1  6
  6  7  2  0
  9  8  1  0
  9 11  1  0
 10  9  2  0
 12 11  1  0
 13 12  1  0
 14 13  1  0
 15 14  1  6
 16  6  1  0
 16 15  1  0
 17 18  2  0
 17 15  1  0
 20 19  1  6
 20 21  1  0
 21 17  1  0
 22 24  1  0
 22 20  1  0
 23 22  2  0
M  END
$$$$
