VRA.pdb
     RDKit          3D

 24 23  0  0  1  0  0  0  0  0999 V2000
    6.7257  -14.9334   19.4615 C   0  0  0  0  0  0  0  0  0  0  0  0
    7.5531  -13.6374   19.6877 C   0  0  2  0  0  0  0  0  0  0  0  0
    8.2463  -13.3876   18.3628 C   0  0  0  0  0  0  0  0  0  0  0  0
    8.4656  -13.9401   20.8162 C   0  0  2  0  0  0  0  0  0  0  0  0
    9.3039  -15.0801   20.4170 N   0  0  0  0  0  0  0  0  0  0  0  0
    7.8582  -14.2416   22.1201 C   0  0  0  0  0  0  0  0  0  0  0  0
    7.0579  -13.3824   22.6391 O   0  0  0  0  0  0  0  0  0  0  0  0
    8.1037  -20.0349   21.8395 N   0  0  0  0  0  0  0  0  0  0  0  0
    6.9169  -20.6238   22.3074 C   0  0  0  0  0  0  0  0  0  0  0  0
    6.2234  -21.3926   21.5040 N   0  0  0  0  0  0  0  0  0  0  0  0
    6.4634  -20.3949   23.6366 N   0  0  0  0  0  0  0  0  0  0  0  0
    7.2028  -19.4254   24.4247 C   0  0  0  0  0  0  0  0  0  0  0  0
    7.0002  -18.0187   23.9224 C   0  0  0  0  0  0  0  0  0  0  0  0
    7.6948  -16.9753   24.7140 C   0  0  0  0  0  0  0  0  0  0  0  0
    7.4858  -15.5672   24.2319 C   0  0  2  0  0  0  0  0  0  0  0  0
    8.0557  -15.3984   22.8879 N   0  0  0  0  0  0  0  0  0  0  0  0
    7.9478  -14.5182   25.1535 C   0  0  0  0  0  0  0  0  0  0  0  0
    9.1761  -14.3446   25.3720 O   0  0  0  0  0  0  0  0  0  0  0  0
    5.3490  -21.8487   21.8044 C   0  0  0  0  0  0  0  0  0  0  0  0
    6.5132  -11.6276   27.1124 C   0  0  1  0  0  0  0  0  0  0  0  0
    7.5844  -12.6261   26.7440 N   0  0  0  0  0  0  0  0  0  0  0  0
    7.0732  -13.6413   25.8523 C   0  0  0  0  0  0  0  0  0  0  0  0
    8.1587  -13.2209   27.9761 O   0  0  0  0  0  0  0  0  0  0  0  0
    8.0165  -14.4506   28.1939 O   0  0  0  0  0  0  0  0  0  0  0  0
  2  1  1  6
  2  3  1  0
  4  2  1  0
  4  6  1  0
  4  5  1  6
  6  7  2  0
  9  8  1  0
  9 11  1  0
 10  9  2  0
 12 11  1  0
 13 12  1  0
 14 13  1  0
 15 14  1  1
 16  6  1  0
 16 15  1  0
 17 18  2  0
 17 15  1  0
 20 19  1  6
 20 21  1  0
 21 17  1  0
 22 24  1  0
 22 20  1  0
 23 22  2  0
M  END
$$$$
