VRA.pdb
     RDKit          3D

 24 23  0  0  1  0  0  0  0  0999 V2000
    7.7413  -12.9030   27.2469 C   0  0  0  0  0  0  0  0  0  0  0  0
    6.8670  -12.1216   26.2270 C   0  0  2  0  0  0  0  0  0  0  0  0
    5.9705  -11.2461   27.0803 C   0  0  0  0  0  0  0  0  0  0  0  0
    6.1542  -13.1560   25.4397 C   0  0  2  0  0  0  0  0  0  0  0  0
    5.4429  -14.0254   26.3883 N   0  0  0  0  0  0  0  0  0  0  0  0
    6.9556  -14.0008   24.5431 C   0  0  0  0  0  0  0  0  0  0  0  0
    7.1499  -15.2283   24.8653 O   0  0  0  0  0  0  0  0  0  0  0  0
    9.7533  -14.9346   17.9010 N   0  0  0  0  0  0  0  0  0  0  0  0
    8.6100  -14.5553   17.1777 C   0  0  0  0  0  0  0  0  0  0  0  0
    8.3816  -15.1010   16.0083 N   0  0  0  0  0  0  0  0  0  0  0  0
    7.7035  -13.5903   17.6991 N   0  0  0  0  0  0  0  0  0  0  0  0
    8.0371  -13.0032   18.9843 C   0  0  0  0  0  0  0  0  0  0  0  0
    7.8031  -13.9652   20.1210 C   0  0  0  0  0  0  0  0  0  0  0  0
    8.7722  -13.8485   21.2368 C   0  0  0  0  0  0  0  0  0  0  0  0
    8.3562  -14.5239   22.5133 C   0  0  2  0  0  0  0  0  0  0  0  0
    7.5505  -13.6098   23.3349 N   0  0  0  0  0  0  0  0  0  0  0  0
    9.4537  -15.1248   23.2865 C   0  0  0  0  0  0  0  0  0  0  0  0
   10.1873  -14.4163   24.0258 O   0  0  0  0  0  0  0  0  0  0  0  0
    7.5472  -14.8671   15.4500 C   0  0  0  0  0  0  0  0  0  0  0  0
   10.8073  -18.4637   24.2951 C   0  0  1  0  0  0  0  0  0  0  0  0
   10.9682  -17.0190   23.8862 N   0  0  0  0  0  0  0  0  0  0  0  0
    9.7676  -16.5116   23.2635 C   0  0  0  0  0  0  0  0  0  0  0  0
   12.1461  -16.8799   22.9946 O   0  0  0  0  0  0  0  0  0  0  0  0
   11.9728  -16.6314   21.7747 O   0  0  0  0  0  0  0  0  0  0  0  0
  2  1  1  1
  2  3  1  0
  4  2  1  0
  4  6  1  0
  4  5  1  1
  6  7  2  0
  9  8  1  0
  9 11  1  0
 10  9  2  0
 12 11  1  0
 13 12  1  0
 14 13  1  0
 15 14  1  6
 16  6  1  0
 16 15  1  0
 17 18  2  0
 17 15  1  0
 20 19  1  1
 20 21  1  0
 21 17  1  0
 22 24  1  0
 22 20  1  0
 23 22  2  0
M  END
$$$$
