VRA.pdb
     RDKit          3D

 24 23  0  0  1  0  0  0  0  0999 V2000
    8.9465  -19.0698   27.5194 C   0  0  0  0  0  0  0  0  0  0  0  0
    7.4648  -18.6023   27.5538 C   0  0  2  0  0  0  0  0  0  0  0  0
    6.8418  -19.3822   28.6947 C   0  0  0  0  0  0  0  0  0  0  0  0
    6.9161  -18.9212   26.2139 C   0  0  2  0  0  0  0  0  0  0  0  0
    6.9638  -20.3814   26.0497 N   0  0  0  0  0  0  0  0  0  0  0  0
    7.5613  -18.2993   25.0489 C   0  0  0  0  0  0  0  0  0  0  0  0
    8.5142  -18.9303   24.4640 O   0  0  0  0  0  0  0  0  0  0  0  0
    7.7426  -12.0580   19.8579 N   0  0  0  0  0  0  0  0  0  0  0  0
    8.1145  -13.2076   19.1408 C   0  0  0  0  0  0  0  0  0  0  0  0
    9.1478  -13.1544   18.3365 N   0  0  0  0  0  0  0  0  0  0  0  0
    7.3846  -14.4213   19.2782 N   0  0  0  0  0  0  0  0  0  0  0  0
    6.8466  -14.7186   20.5935 C   0  0  0  0  0  0  0  0  0  0  0  0
    7.9130  -14.6891   21.6584 C   0  0  0  0  0  0  0  0  0  0  0  0
    7.4586  -15.1313   22.9984 C   0  0  0  0  0  0  0  0  0  0  0  0
    8.1193  -16.3789   23.5140 C   0  0  2  0  0  0  0  0  0  0  0  0
    7.2449  -17.0566   24.4814 N   0  0  0  0  0  0  0  0  0  0  0  0
    9.4767  -16.1899   24.0479 C   0  0  0  0  0  0  0  0  0  0  0  0
    9.6709  -15.5239   25.0993 O   0  0  0  0  0  0  0  0  0  0  0  0
    9.4561  -13.9714   17.7886 C   0  0  0  0  0  0  0  0  0  0  0  0
   12.5103  -17.6517   24.7130 C   0  0  1  0  0  0  0  0  0  0  0  0
   11.9597  -16.4555   23.9741 N   0  0  0  0  0  0  0  0  0  0  0  0
   10.6450  -16.7263   23.4401 C   0  0  0  0  0  0  0  0  0  0  0  0
   12.9078  -16.0460   22.9086 O   0  0  0  0  0  0  0  0  0  0  0  0
   12.5985  -16.2238   21.7034 O   0  0  0  0  0  0  0  0  0  0  0  0
  2  1  1  6
  2  3  1  0
  4  2  1  0
  4  6  1  0
  4  5  1  6
  6  7  2  0
  9  8  1  0
  9 11  1  0
 10  9  2  0
 12 11  1  0
 13 12  1  0
 14 13  1  0
 15 14  1  1
 16  6  1  0
 16 15  1  0
 17 18  2  0
 17 15  1  0
 20 19  1  1
 20 21  1  0
 21 17  1  0
 22 24  1  0
 22 20  1  0
 23 22  2  0
M  END
$$$$
