VRA.pdb
     RDKit          3D

 24 23  0  0  1  0  0  0  0  0999 V2000
    7.9382  -12.0077   20.2718 C   0  0  0  0  0  0  0  0  0  0  0  0
    8.0893  -13.4333   19.6718 C   0  0  2  0  0  0  0  0  0  0  0  0
    6.6745  -13.9735   19.6030 C   0  0  0  0  0  0  0  0  0  0  0  0
    8.9858  -14.1625   20.6005 C   0  0  2  0  0  0  0  0  0  0  0  0
    9.3373  -15.4418   19.9669 N   0  0  0  0  0  0  0  0  0  0  0  0
    8.4858  -14.4347   21.9555 C   0  0  0  0  0  0  0  0  0  0  0  0
    8.2385  -13.4417   22.7308 O   0  0  0  0  0  0  0  0  0  0  0  0
    8.6175  -20.3934   25.4529 N   0  0  0  0  0  0  0  0  0  0  0  0
    7.9810  -20.2910   26.7013 C   0  0  0  0  0  0  0  0  0  0  0  0
    8.5268  -20.8616   27.7473 N   0  0  0  0  0  0  0  0  0  0  0  0
    6.7571  -19.5785   26.8402 N   0  0  0  0  0  0  0  0  0  0  0  0
    6.2147  -18.9653   25.6412 C   0  0  0  0  0  0  0  0  0  0  0  0
    6.7189  -17.5575   25.4509 C   0  0  0  0  0  0  0  0  0  0  0  0
    7.2707  -17.2772   24.1038 C   0  0  0  0  0  0  0  0  0  0  0  0
    7.7524  -15.8690   23.8946 C   0  0  2  0  0  0  0  0  0  0  0  0
    8.2366  -15.6948   22.5180 N   0  0  0  0  0  0  0  0  0  0  0  0
    8.7351  -15.3939   24.8803 C   0  0  0  0  0  0  0  0  0  0  0  0
    9.9453  -15.7350   24.8030 O   0  0  0  0  0  0  0  0  0  0  0  0
    8.0229  -20.9592   28.6413 C   0  0  0  0  0  0  0  0  0  0  0  0
    9.0250  -12.8662   27.6370 C   0  0  1  0  0  0  0  0  0  0  0  0
    9.4054  -14.1515   26.9416 N   0  0  0  0  0  0  0  0  0  0  0  0
    8.4103  -14.5375   25.9681 C   0  0  0  0  0  0  0  0  0  0  0  0
    9.6263  -15.2186   27.9487 O   0  0  0  0  0  0  0  0  0  0  0  0
    8.8935  -16.2398   27.9391 O   0  0  0  0  0  0  0  0  0  0  0  0
  2  1  1  1
  2  3  1  0
  4  2  1  0
  4  6  1  0
  4  5  1  6
  6  7  2  0
  9  8  1  0
  9 11  1  0
 10  9  2  0
 12 11  1  0
 13 12  1  0
 14 13  1  0
 15 14  1  1
 16  6  1  0
 16 15  1  0
 17 18  2  0
 17 15  1  0
 20 19  1  6
 20 21  1  0
 21 17  1  0
 22 24  1  0
 22 20  1  0
 23 22  2  0
M  END
$$$$
