VRA.pdb
     RDKit          3D

 24 23  0  0  1  0  0  0  0  0999 V2000
    7.9475  -12.5157   27.3472 C   0  0  0  0  0  0  0  0  0  0  0  0
    7.1647  -11.7812   26.2233 C   0  0  2  0  0  0  0  0  0  0  0  0
    6.5323  -10.5878   26.9118 C   0  0  0  0  0  0  0  0  0  0  0  0
    6.1991  -12.7753   25.6966 C   0  0  2  0  0  0  0  0  0  0  0  0
    5.3916  -13.2539   26.8282 N   0  0  0  0  0  0  0  0  0  0  0  0
    6.7425  -13.9408   24.9851 C   0  0  0  0  0  0  0  0  0  0  0  0
    6.7896  -15.0682   25.5974 O   0  0  0  0  0  0  0  0  0  0  0  0
    7.4558  -18.8682   19.7559 N   0  0  0  0  0  0  0  0  0  0  0  0
    8.6129  -18.5014   19.0484 C   0  0  0  0  0  0  0  0  0  0  0  0
    9.5172  -19.4121   18.7833 N   0  0  0  0  0  0  0  0  0  0  0  0
    8.8115  -17.1591   18.6198 N   0  0  0  0  0  0  0  0  0  0  0  0
    8.0302  -16.1342   19.2882 C   0  0  0  0  0  0  0  0  0  0  0  0
    8.0755  -16.2794   20.7879 C   0  0  0  0  0  0  0  0  0  0  0  0
    7.6323  -15.0795   21.5372 C   0  0  0  0  0  0  0  0  0  0  0  0
    7.7328  -15.1909   23.0326 C   0  0  2  0  0  0  0  0  0  0  0  0
    7.2295  -13.9662   23.6702 N   0  0  0  0  0  0  0  0  0  0  0  0
    9.0620  -15.5616   23.5417 C   0  0  0  0  0  0  0  0  0  0  0  0
   10.0150  -14.7382   23.5207 O   0  0  0  0  0  0  0  0  0  0  0  0
   10.3941  -19.1842   18.2916 C   0  0  0  0  0  0  0  0  0  0  0  0
   10.6946  -18.3735   25.4434 C   0  0  1  0  0  0  0  0  0  0  0  0
   10.7001  -17.1532   24.5540 N   0  0  0  0  0  0  0  0  0  0  0  0
    9.3711  -16.8400   24.0823 C   0  0  0  0  0  0  0  0  0  0  0  0
   11.6444  -17.3592   23.4281 O   0  0  0  0  0  0  0  0  0  0  0  0
   11.2560  -17.9658   22.3980 O   0  0  0  0  0  0  0  0  0  0  0  0
  2  1  1  1
  2  3  1  0
  4  2  1  0
  4  6  1  0
  4  5  1  1
  6  7  2  0
  9  8  1  0
  9 11  1  0
 10  9  2  0
 12 11  1  0
 13 12  1  0
 14 13  1  0
 15 14  1  6
 16  6  1  0
 16 15  1  0
 17 18  2  0
 17 15  1  0
 20 19  1  1
 20 21  1  0
 21 17  1  0
 22 24  1  0
 22 20  1  0
 23 22  2  0
M  END
$$$$
