VRA.pdb
     RDKit          3D

 24 23  0  0  1  0  0  0  0  0999 V2000
   11.6507  -22.3361   18.9997 C   0  0  0  0  0  0  0  0  0  0  0  0
   11.9650  -21.8497   17.5575 C   0  0  2  0  0  0  0  0  0  0  0  0
   13.4262  -21.4478   17.5969 C   0  0  0  0  0  0  0  0  0  0  0  0
   11.0230  -20.7341   17.3001 C   0  0  2  0  0  0  0  0  0  0  0  0
   11.2518  -20.2671   15.9250 N   0  0  0  0  0  0  0  0  0  0  0  0
   11.0785  -19.5750   18.2020 C   0  0  0  0  0  0  0  0  0  0  0  0
   12.1523  -18.8722   18.2348 O   0  0  0  0  0  0  0  0  0  0  0  0
    8.0468  -12.6670   21.7970 N   0  0  0  0  0  0  0  0  0  0  0  0
    7.7044  -13.0680   20.4947 C   0  0  0  0  0  0  0  0  0  0  0  0
    7.6145  -12.1650   19.5492 N   0  0  0  0  0  0  0  0  0  0  0  0
    7.4555  -14.4365   20.1942 N   0  0  0  0  0  0  0  0  0  0  0  0
    7.6722  -15.3935   21.2643 C   0  0  0  0  0  0  0  0  0  0  0  0
    8.9779  -16.1299   21.1058 C   0  0  0  0  0  0  0  0  0  0  0  0
    8.9357  -17.2605   20.1479 C   0  0  0  0  0  0  0  0  0  0  0  0
   10.2333  -17.9999   19.9796 C   0  0  2  0  0  0  0  0  0  0  0  0
   10.0599  -19.1310   19.0576 N   0  0  0  0  0  0  0  0  0  0  0  0
   10.8807  -18.4152   21.2332 C   0  0  0  0  0  0  0  0  0  0  0  0
   10.3403  -19.2658   21.9891 O   0  0  0  0  0  0  0  0  0  0  0  0
    7.3902  -12.4151   18.5746 C   0  0  0  0  0  0  0  0  0  0  0  0
   13.7134  -19.4524   22.7116 C   0  0  1  0  0  0  0  0  0  0  0  0
   12.7135  -18.3421   22.9295 N   0  0  0  0  0  0  0  0  0  0  0  0
   12.1307  -17.9065   21.6815 C   0  0  0  0  0  0  0  0  0  0  0  0
   13.3623  -17.2191   23.6503 O   0  0  0  0  0  0  0  0  0  0  0  0
   13.5738  -16.1368   23.0473 O   0  0  0  0  0  0  0  0  0  0  0  0
  2  1  1  1
  2  3  1  0
  4  2  1  0
  4  6  1  0
  4  5  1  6
  6  7  2  0
  9  8  1  0
  9 11  1  0
 10  9  2  0
 12 11  1  0
 13 12  1  0
 14 13  1  0
 15 14  1  1
 16  6  1  0
 16 15  1  0
 17 18  2  0
 17 15  1  0
 20 19  1  1
 20 21  1  0
 21 17  1  0
 22 24  1  0
 22 20  1  0
 23 22  2  0
M  END
$$$$
