VRA.pdb
     RDKit          3D

 24 23  0  0  1  0  0  0  0  0999 V2000
    7.6651  -12.4042   20.6738 C   0  0  0  0  0  0  0  0  0  0  0  0
    8.6556  -13.4588   20.1064 C   0  0  2  0  0  0  0  0  0  0  0  0
    8.7752  -13.1208   18.6334 C   0  0  0  0  0  0  0  0  0  0  0  0
    8.0390  -14.7768   20.3909 C   0  0  2  0  0  0  0  0  0  0  0  0
    6.8440  -14.9010   19.5435 N   0  0  0  0  0  0  0  0  0  0  0  0
    7.6573  -15.0634   21.7809 C   0  0  0  0  0  0  0  0  0  0  0  0
    6.5789  -14.5418   22.2425 O   0  0  0  0  0  0  0  0  0  0  0  0
    9.0871  -18.5176   27.1901 N   0  0  0  0  0  0  0  0  0  0  0  0
    8.2214  -19.4399   27.8018 C   0  0  0  0  0  0  0  0  0  0  0  0
    8.4619  -19.8262   29.0308 N   0  0  0  0  0  0  0  0  0  0  0  0
    7.0934  -19.9556   27.1043 N   0  0  0  0  0  0  0  0  0  0  0  0
    6.8859  -19.4795   25.7486 C   0  0  0  0  0  0  0  0  0  0  0  0
    7.2405  -18.0217   25.6029 C   0  0  0  0  0  0  0  0  0  0  0  0
    7.5987  -17.6091   24.2248 C   0  0  0  0  0  0  0  0  0  0  0  0
    7.8673  -16.1407   24.0504 C   0  0  2  0  0  0  0  0  0  0  0  0
    8.3560  -15.8694   22.6913 N   0  0  0  0  0  0  0  0  0  0  0  0
    8.7404  -15.5416   25.0712 C   0  0  0  0  0  0  0  0  0  0  0  0
    9.9921  -15.6676   25.0062 O   0  0  0  0  0  0  0  0  0  0  0  0
    7.9502  -20.6071   29.4679 C   0  0  0  0  0  0  0  0  0  0  0  0
    8.5280  -13.0280   27.8433 C   0  0  1  0  0  0  0  0  0  0  0  0
    9.1658  -14.1990   27.1347 N   0  0  0  0  0  0  0  0  0  0  0  0
    8.2586  -14.7946   26.1812 C   0  0  0  0  0  0  0  0  0  0  0  0
    9.6373  -15.1909   28.1325 O   0  0  0  0  0  0  0  0  0  0  0  0
    9.0903  -16.3212   28.1874 O   0  0  0  0  0  0  0  0  0  0  0  0
  2  1  1  1
  2  3  1  0
  4  2  1  0
  4  6  1  0
  4  5  1  6
  6  7  2  0
  9  8  1  0
  9 11  1  0
 10  9  2  0
 12 11  1  0
 13 12  1  0
 14 13  1  0
 15 14  1  1
 16  6  1  0
 16 15  1  0
 17 18  2  0
 17 15  1  0
 20 19  1  6
 20 21  1  0
 21 17  1  0
 22 24  1  0
 22 20  1  0
 23 22  2  0
M  END
$$$$
