VRA.pdb
     RDKit          3D

 24 23  0  0  1  0  0  0  0  0999 V2000
    7.7531  -14.0452   18.9478 C   0  0  0  0  0  0  0  0  0  0  0  0
    8.2624  -13.0295   20.0082 C   0  0  2  0  0  0  0  0  0  0  0  0
    8.2740  -11.6954   19.2884 C   0  0  0  0  0  0  0  0  0  0  0  0
    9.5985  -13.5220   20.4207 C   0  0  2  0  0  0  0  0  0  0  0  0
   10.4534  -13.5433   19.2248 N   0  0  0  0  0  0  0  0  0  0  0  0
    9.6680  -14.8398   21.0676 C   0  0  0  0  0  0  0  0  0  0  0  0
    8.9448  -15.0538   22.1066 O   0  0  0  0  0  0  0  0  0  0  0  0
    8.9850  -19.7535   14.9449 N   0  0  0  0  0  0  0  0  0  0  0  0
    9.4894  -19.8990   16.2482 C   0  0  0  0  0  0  0  0  0  0  0  0
    8.9743  -20.8106   17.0363 N   0  0  0  0  0  0  0  0  0  0  0  0
   10.5473  -19.0714   16.7179 N   0  0  0  0  0  0  0  0  0  0  0  0
   10.9775  -19.2713   18.0901 C   0  0  0  0  0  0  0  0  0  0  0  0
   10.5030  -18.1640   18.9963 C   0  0  0  0  0  0  0  0  0  0  0  0
   10.9078  -18.3122   20.4147 C   0  0  0  0  0  0  0  0  0  0  0  0
   10.4043  -17.2360   21.3351 C   0  0  2  0  0  0  0  0  0  0  0  0
   10.4567  -15.9280   20.6672 N   0  0  0  0  0  0  0  0  0  0  0  0
   11.0464  -17.1967   22.6577 C   0  0  0  0  0  0  0  0  0  0  0  0
   12.2228  -16.7670   22.7928 O   0  0  0  0  0  0  0  0  0  0  0  0
    9.3507  -20.9942   17.9783 C   0  0  0  0  0  0  0  0  0  0  0  0
   10.2616  -17.1742   26.2487 C   0  0  1  0  0  0  0  0  0  0  0  0
   11.1260  -17.6626   25.1109 N   0  0  0  0  0  0  0  0  0  0  0  0
   10.4123  -17.6276   23.8554 C   0  0  0  0  0  0  0  0  0  0  0  0
   11.6296  -19.0249   25.4146 O   0  0  0  0  0  0  0  0  0  0  0  0
   11.2879  -19.9882   24.6831 O   0  0  0  0  0  0  0  0  0  0  0  0
  2  1  1  6
  2  3  1  0
  4  2  1  0
  4  6  1  0
  4  5  1  6
  6  7  2  0
  9  8  1  0
  9 11  1  0
 10  9  2  0
 12 11  1  0
 13 12  1  0
 14 13  1  0
 15 14  1  6
 16  6  1  0
 16 15  1  0
 17 18  2  0
 17 15  1  0
 20 19  1  6
 20 21  1  0
 21 17  1  0
 22 24  1  0
 22 20  1  0
 23 22  2  0
M  END
$$$$
