VRA.pdb
     RDKit          3D

 24 23  0  0  1  0  0  0  0  0999 V2000
    7.3079  -12.8801   21.6389 C   0  0  0  0  0  0  0  0  0  0  0  0
    8.4762  -13.1507   20.6504 C   0  0  2  0  0  0  0  0  0  0  0  0
    8.0442  -12.4927   19.3549 C   0  0  0  0  0  0  0  0  0  0  0  0
    8.6056  -14.6260   20.5823 C   0  0  2  0  0  0  0  0  0  0  0  0
    7.4356  -15.1421   19.8567 N   0  0  0  0  0  0  0  0  0  0  0  0
    8.7280  -15.3576   21.8510 C   0  0  0  0  0  0  0  0  0  0  0  0
    7.6600  -15.7915   22.4162 O   0  0  0  0  0  0  0  0  0  0  0  0
   13.6658  -20.3552   23.0279 N   0  0  0  0  0  0  0  0  0  0  0  0
   12.3135  -20.7332   23.0782 C   0  0  0  0  0  0  0  0  0  0  0  0
   11.7831  -21.3528   22.0524 N   0  0  0  0  0  0  0  0  0  0  0  0
   11.5191  -20.4513   24.2246 N   0  0  0  0  0  0  0  0  0  0  0  0
   11.9669  -19.3702   25.0840 C   0  0  0  0  0  0  0  0  0  0  0  0
   10.9874  -18.2246   25.1051 C   0  0  0  0  0  0  0  0  0  0  0  0
   10.9154  -17.4518   23.8421 C   0  0  0  0  0  0  0  0  0  0  0  0
    9.9330  -16.3144   23.8480 C   0  0  2  0  0  0  0  0  0  0  0  0
    9.9154  -15.6489   22.5378 N   0  0  0  0  0  0  0  0  0  0  0  0
   10.1035  -15.3497   24.9451 C   0  0  0  0  0  0  0  0  0  0  0  0
   11.1200  -14.6079   25.0016 O   0  0  0  0  0  0  0  0  0  0  0  0
   10.7953  -21.6477   22.0435 C   0  0  0  0  0  0  0  0  0  0  0  0
    8.0975  -13.4265   27.3189 C   0  0  1  0  0  0  0  0  0  0  0  0
    9.3675  -14.1915   27.0327 N   0  0  0  0  0  0  0  0  0  0  0  0
    9.1645  -15.1805   25.9995 C   0  0  0  0  0  0  0  0  0  0  0  0
    9.8739  -14.8063   28.2847 O   0  0  0  0  0  0  0  0  0  0  0  0
    9.8852  -16.0580   28.3988 O   0  0  0  0  0  0  0  0  0  0  0  0
  2  1  1  1
  2  3  1  0
  4  2  1  0
  4  6  1  0
  4  5  1  1
  6  7  2  0
  9  8  1  0
  9 11  1  0
 10  9  2  0
 12 11  1  0
 13 12  1  0
 14 13  1  0
 15 14  1  6
 16  6  1  0
 16 15  1  0
 17 18  2  0
 17 15  1  0
 20 19  1  6
 20 21  1  0
 21 17  1  0
 22 24  1  0
 22 20  1  0
 23 22  2  0
M  END
$$$$
