VRA.pdb
     RDKit          3D

 24 23  0  0  1  0  0  0  0  0999 V2000
    6.0853  -20.2137   20.8962 C   0  0  0  0  0  0  0  0  0  0  0  0
    6.5963  -21.1969   21.9858 C   0  0  2  0  0  0  0  0  0  0  0  0
    5.3596  -21.9498   22.4351 C   0  0  0  0  0  0  0  0  0  0  0  0
    7.2163  -20.3461   23.0297 C   0  0  2  0  0  0  0  0  0  0  0  0
    6.1299  -19.6930   23.7744 N   0  0  0  0  0  0  0  0  0  0  0  0
    8.1670  -19.3148   22.5907 C   0  0  0  0  0  0  0  0  0  0  0  0
    9.2629  -19.6855   22.0341 O   0  0  0  0  0  0  0  0  0  0  0  0
    8.1304  -12.2015   18.8669 N   0  0  0  0  0  0  0  0  0  0  0  0
    7.6468  -13.2681   18.0907 C   0  0  0  0  0  0  0  0  0  0  0  0
    7.8088  -13.2392   16.7906 N   0  0  0  0  0  0  0  0  0  0  0  0
    6.9866  -14.3724   18.6986 N   0  0  0  0  0  0  0  0  0  0  0  0
    7.1277  -14.5110   20.1369 C   0  0  0  0  0  0  0  0  0  0  0  0
    8.2973  -15.3872   20.5065 C   0  0  0  0  0  0  0  0  0  0  0  0
    8.4392  -15.6455   21.9594 C   0  0  0  0  0  0  0  0  0  0  0  0
    9.0531  -16.9712   22.3124 C   0  0  2  0  0  0  0  0  0  0  0  0
    8.0099  -17.9265   22.7108 N   0  0  0  0  0  0  0  0  0  0  0  0
   10.1405  -16.9107   23.3009 C   0  0  0  0  0  0  0  0  0  0  0  0
    9.9651  -16.3643   24.4223 O   0  0  0  0  0  0  0  0  0  0  0  0
    7.4795  -14.0033   16.1820 C   0  0  0  0  0  0  0  0  0  0  0  0
   12.9002  -18.5802   24.6714 C   0  0  1  0  0  0  0  0  0  0  0  0
   12.4991  -17.2668   24.0435 N   0  0  0  0  0  0  0  0  0  0  0  0
   11.4388  -17.4468   23.0791 C   0  0  0  0  0  0  0  0  0  0  0  0
   13.6875  -16.6204   23.4337 O   0  0  0  0  0  0  0  0  0  0  0  0
   13.7800  -16.5508   22.1822 O   0  0  0  0  0  0  0  0  0  0  0  0
  2  1  1  6
  2  3  1  0
  4  2  1  0
  4  6  1  0
  4  5  1  6
  6  7  2  0
  9  8  1  0
  9 11  1  0
 10  9  2  0
 12 11  1  0
 13 12  1  0
 14 13  1  0
 15 14  1  1
 16  6  1  0
 16 15  1  0
 17 18  2  0
 17 15  1  0
 20 19  1  1
 20 21  1  0
 21 17  1  0
 22 24  1  0
 22 20  1  0
 23 22  2  0
M  END
$$$$
