VRA.pdb
     RDKit          3D

 24 23  0  0  1  0  0  0  0  0999 V2000
    9.2981  -12.6928   19.9671 C   0  0  0  0  0  0  0  0  0  0  0  0
    8.5533  -13.3454   18.7693 C   0  0  2  0  0  0  0  0  0  0  0  0
    7.3401  -12.4646   18.5447 C   0  0  0  0  0  0  0  0  0  0  0  0
    8.2421  -14.7292   19.2010 C   0  0  2  0  0  0  0  0  0  0  0  0
    7.3094  -14.6425   20.3342 N   0  0  0  0  0  0  0  0  0  0  0  0
    9.3682  -15.5905   19.5882 C   0  0  0  0  0  0  0  0  0  0  0  0
    9.5322  -16.7036   18.9697 O   0  0  0  0  0  0  0  0  0  0  0  0
   14.4868  -15.8907   15.8158 N   0  0  0  0  0  0  0  0  0  0  0  0
   14.6485  -15.6463   17.1900 C   0  0  0  0  0  0  0  0  0  0  0  0
   15.3754  -16.4690   17.9057 N   0  0  0  0  0  0  0  0  0  0  0  0
   14.0344  -14.5215   17.8084 N   0  0  0  0  0  0  0  0  0  0  0  0
   14.2416  -14.3630   19.2366 C   0  0  0  0  0  0  0  0  0  0  0  0
   12.9772  -14.6073   20.0200 C   0  0  0  0  0  0  0  0  0  0  0  0
   12.6162  -16.0365   20.1778 C   0  0  0  0  0  0  0  0  0  0  0  0
   11.3610  -16.2920   20.9638 C   0  0  2  0  0  0  0  0  0  0  0  0
   10.3178  -15.3282   20.5863 N   0  0  0  0  0  0  0  0  0  0  0  0
   11.5409  -16.3541   22.4223 C   0  0  0  0  0  0  0  0  0  0  0  0
   11.2292  -15.3775   23.1544 O   0  0  0  0  0  0  0  0  0  0  0  0
   15.5246  -16.3284   18.9159 C   0  0  0  0  0  0  0  0  0  0  0  0
   10.4107  -17.6557   24.8902 C   0  0  2  0  0  0  0  0  0  0  0  0
   11.8762  -17.6587   24.5263 N   0  0  0  0  0  0  0  0  0  0  0  0
   12.0657  -17.4860   23.1046 C   0  0  0  0  0  0  0  0  0  0  0  0
   12.5099  -18.9089   25.0134 O   0  0  0  0  0  0  0  0  0  0  0  0
   12.5606  -19.1363   26.2486 O   0  0  0  0  0  0  0  0  0  0  0  0
  2  1  1  1
  2  3  1  0
  4  2  1  0
  4  6  1  0
  4  5  1  1
  6  7  2  0
  9  8  1  0
  9 11  1  0
 10  9  2  0
 12 11  1  0
 13 12  1  0
 14 13  1  0
 15 14  1  6
 16  6  1  0
 16 15  1  0
 17 18  2  0
 17 15  1  0
 20 19  1  1
 20 21  1  0
 21 17  1  0
 22 24  1  0
 22 20  1  0
 23 22  2  0
M  END
$$$$
