VQY.pdb
     RDKit          3D

 29 29  0  0  1  0  0  0  0  0999 V2000
   22.8715  -34.4471   -7.9039 C   0  0  0  0  0  0  0  0  0  0  0  0
   23.7854  -34.5666   -9.0952 C   0  0  1  0  0  0  0  0  0  0  0  0
   23.0874  -34.2658  -10.3778 C   0  0  0  0  0  0  0  0  0  0  0  0
   25.0021  -33.7138   -8.8294 C   0  0  2  0  0  0  0  0  0  0  0  0
   25.9823  -33.8194   -9.8834 N   0  0  0  0  0  0  0  0  0  0  0  0
   25.6710  -34.0411   -7.5451 C   0  0  0  0  0  0  0  0  0  0  0  0
   26.5723  -34.9035   -7.4759 O   0  0  0  0  0  0  0  0  0  0  0  0
   25.8607  -29.8132   -3.1768 N   0  0  0  0  0  0  0  0  0  0  0  0
   26.1410  -30.9243   -2.3471 C   0  0  0  0  0  0  0  0  0  0  0  0
   26.4690  -30.7438   -1.1569 O   0  0  0  0  0  0  0  0  0  0  0  0
   26.0475  -32.2968   -2.8871 C   0  0  0  0  0  0  0  0  0  0  0  0
   25.6922  -32.3340   -4.3292 C   0  0  0  0  0  0  0  0  0  0  0  0
   25.8177  -33.6571   -5.0328 C   0  0  2  0  0  0  0  0  0  0  0  0
   25.2911  -33.3755   -6.3830 N   0  0  0  0  0  0  0  0  0  0  0  0
   25.0945  -34.7458   -4.4095 C   0  0  0  0  0  0  0  0  0  0  0  0
   23.9453  -35.0349   -4.8287 O   0  0  0  0  0  0  0  0  0  0  0  0
   22.2576  -42.3804   -1.9304 O   0  0  0  0  0  0  0  0  0  0  0  0
   22.9384  -41.2346   -2.3515 C   0  0  0  0  0  0  0  0  0  0  0  0
   24.2616  -41.0032   -2.0172 C   0  0  0  0  0  0  0  0  0  0  0  0
   24.9236  -39.8776   -2.4328 C   0  0  0  0  0  0  0  0  0  0  0  0
   24.2582  -38.9491   -3.2042 C   0  0  0  0  0  0  0  0  0  0  0  0
   24.9148  -37.7359   -3.6661 C   0  0  0  0  0  0  0  0  0  0  0  0
   24.7500  -36.5367   -2.7583 C   0  0  2  0  0  0  0  0  0  0  0  0
   25.6268  -35.5000   -3.3546 N   0  0  0  0  0  0  0  0  0  0  0  0
   25.3334  -36.8543   -1.4339 C   0  0  0  0  0  0  0  0  0  0  0  0
   24.5896  -37.4698   -0.4255 O   0  0  0  0  0  0  0  0  0  0  0  0
   22.9380  -39.1594   -3.5498 C   0  0  0  0  0  0  0  0  0  0  0  0
   22.2783  -40.3104   -3.1187 C   0  0  0  0  0  0  0  0  0  0  0  0
   26.5251  -36.5963   -1.1247 O   0  0  0  0  0  0  0  0  0  0  0  0
  2  1  1  1
  3  2  1  0
  4  2  1  0
  4  5  1  6
  6 14  1  0
  6  4  1  0
  7  6  2  0
  8  9  1  0
  9 10  2  0
 11 12  1  0
 11  9  1  0
 13 12  1  1
 13 14  1  0
 15 13  1  0
 16 15  2  0
 18 28  2  0
 18 17  1  0
 19 18  1  0
 20 21  1  0
 20 19  2  0
 21 27  2  0
 22 21  1  0
 23 22  1  6
 23 25  1  0
 23 24  1  0
 24 15  1  0
 25 26  1  0
 27 28  1  0
 29 25  2  0
M  END
$$$$
