VQY.pdb
     RDKit          3D

 29 29  0  0  1  0  0  0  0  0999 V2000
   22.6858  -12.8799  -21.6419 C   0  0  0  0  0  0  0  0  0  0  0  0
   22.1933  -13.6433  -20.4404 C   0  0  1  0  0  0  0  0  0  0  0  0
   22.7767  -15.0129  -20.3604 C   0  0  0  0  0  0  0  0  0  0  0  0
   22.4348  -12.7874  -19.2207 C   0  0  2  0  0  0  0  0  0  0  0  0
   22.0885  -13.4714  -17.9980 N   0  0  0  0  0  0  0  0  0  0  0  0
   21.6904  -11.5034  -19.2559 C   0  0  0  0  0  0  0  0  0  0  0  0
   20.9215  -11.2165  -20.1978 O   0  0  0  0  0  0  0  0  0  0  0  0
   16.9594  -10.0427  -17.9878 N   0  0  0  0  0  0  0  0  0  0  0  0
   17.7001  -10.3478  -16.8216 C   0  0  0  0  0  0  0  0  0  0  0  0
   17.1144  -10.7846  -15.8102 O   0  0  0  0  0  0  0  0  0  0  0  0
   19.1644  -10.1490  -16.7986 C   0  0  0  0  0  0  0  0  0  0  0  0
   19.7072   -9.6568  -18.0910 C   0  0  0  0  0  0  0  0  0  0  0  0
   21.1637   -9.2839  -18.1259 C   0  0  2  0  0  0  0  0  0  0  0  0
   21.8468  -10.5895  -18.2175 N   0  0  0  0  0  0  0  0  0  0  0  0
   21.6251   -8.5356  -16.9753 C   0  0  0  0  0  0  0  0  0  0  0  0
   22.0347   -9.1604  -15.9644 O   0  0  0  0  0  0  0  0  0  0  0  0
   26.7599   -5.8188  -20.2506 O   0  0  0  0  0  0  0  0  0  0  0  0
   25.8007   -5.6761  -19.2440 C   0  0  0  0  0  0  0  0  0  0  0  0
   26.0239   -6.1154  -17.9505 C   0  0  0  0  0  0  0  0  0  0  0  0
   25.0792   -5.9731  -16.9680 C   0  0  0  0  0  0  0  0  0  0  0  0
   23.8739   -5.3772  -17.2716 C   0  0  0  0  0  0  0  0  0  0  0  0
   22.8368   -5.2074  -16.2656 C   0  0  0  0  0  0  0  0  0  0  0  0
   22.2370   -6.4951  -15.7446 C   0  0  2  0  0  0  0  0  0  0  0  0
   21.6400   -7.1343  -16.9423 N   0  0  0  0  0  0  0  0  0  0  0  0
   21.1044   -6.1677  -14.8474 C   0  0  0  0  0  0  0  0  0  0  0  0
   21.3006   -5.6503  -13.5658 O   0  0  0  0  0  0  0  0  0  0  0  0
   23.6296   -4.9313  -18.5554 C   0  0  0  0  0  0  0  0  0  0  0  0
   24.6018   -5.0838  -19.5441 C   0  0  0  0  0  0  0  0  0  0  0  0
   19.8993   -6.3298  -15.1696 O   0  0  0  0  0  0  0  0  0  0  0  0
  2  1  1  6
  3  2  1  0
  4  2  1  0
  4  5  1  1
  6 14  1  0
  6  4  1  0
  7  6  2  0
  8  9  1  0
  9 10  2  0
 11 12  1  0
 11  9  1  0
 13 12  1  1
 13 14  1  0
 15 13  1  0
 16 15  2  0
 18 28  2  0
 18 17  1  0
 19 18  1  0
 20 21  1  0
 20 19  2  0
 21 27  2  0
 22 21  1  0
 23 22  1  6
 23 25  1  0
 23 24  1  0
 24 15  1  0
 25 26  1  0
 27 28  1  0
 29 25  2  0
M  END
$$$$
