VQY.pdb
     RDKit          3D

 29 29  0  0  1  0  0  0  0  0999 V2000
   20.1530  -15.5639  -15.9119 C   0  0  0  0  0  0  0  0  0  0  0  0
   19.5730  -14.1742  -15.9464 C   0  0  1  0  0  0  0  0  0  0  0  0
   20.4029  -13.2332  -16.7517 C   0  0  0  0  0  0  0  0  0  0  0  0
   18.1369  -14.2859  -16.3974 C   0  0  2  0  0  0  0  0  0  0  0  0
   18.0186  -14.9256  -17.6856 N   0  0  0  0  0  0  0  0  0  0  0  0
   17.4478  -12.9730  -16.4712 C   0  0  0  0  0  0  0  0  0  0  0  0
   17.4396  -12.2944  -17.5201 O   0  0  0  0  0  0  0  0  0  0  0  0
   12.6112  -11.9450  -13.0193 N   0  0  0  0  0  0  0  0  0  0  0  0
   12.8675  -10.5929  -13.3475 C   0  0  0  0  0  0  0  0  0  0  0  0
   12.0971   -9.6987  -12.9430 O   0  0  0  0  0  0  0  0  0  0  0  0
   14.0439  -10.2381  -14.1686 C   0  0  0  0  0  0  0  0  0  0  0  0
   14.8744  -11.4134  -14.5376 C   0  0  0  0  0  0  0  0  0  0  0  0
   16.1713  -11.1410  -15.2485 C   0  0  2  0  0  0  0  0  0  0  0  0
   16.7915  -12.4770  -15.3482 N   0  0  0  0  0  0  0  0  0  0  0  0
   17.0493  -10.2097  -14.5714 C   0  0  0  0  0  0  0  0  0  0  0  0
   17.5892  -10.5551  -13.4900 O   0  0  0  0  0  0  0  0  0  0  0  0
   22.3608   -3.1538  -14.2889 O   0  0  0  0  0  0  0  0  0  0  0  0
   21.6209   -4.3241  -14.4806 C   0  0  0  0  0  0  0  0  0  0  0  0
   20.2368   -4.3269  -14.4686 C   0  0  0  0  0  0  0  0  0  0  0  0
   19.5169   -5.4777  -14.6567 C   0  0  0  0  0  0  0  0  0  0  0  0
   20.1848   -6.6656  -14.8639 C   0  0  0  0  0  0  0  0  0  0  0  0
   19.4667   -7.9149  -15.0636 C   0  0  0  0  0  0  0  0  0  0  0  0
   18.1978   -8.0576  -14.2517 C   0  0  2  0  0  0  0  0  0  0  0  0
   17.3294   -8.9324  -15.0763 N   0  0  0  0  0  0  0  0  0  0  0  0
   17.5167   -6.7433  -14.1920 C   0  0  0  0  0  0  0  0  0  0  0  0
   16.4013   -6.4509  -14.9790 O   0  0  0  0  0  0  0  0  0  0  0  0
   21.5653   -6.6862  -14.8801 C   0  0  0  0  0  0  0  0  0  0  0  0
   22.2834   -5.5060  -14.6868 C   0  0  0  0  0  0  0  0  0  0  0  0
   17.8880   -5.8069  -13.4385 O   0  0  0  0  0  0  0  0  0  0  0  0
  2  1  1  6
  3  2  1  0
  4  2  1  0
  4  5  1  6
  6 14  1  0
  6  4  1  0
  7  6  2  0
  8  9  1  0
  9 10  2  0
 11 12  1  0
 11  9  1  0
 13 12  1  1
 13 14  1  0
 15 13  1  0
 16 15  2  0
 18 28  2  0
 18 17  1  0
 19 18  1  0
 20 21  1  0
 20 19  2  0
 21 27  2  0
 22 21  1  0
 23 22  1  6
 23 25  1  0
 23 24  1  0
 24 15  1  0
 25 26  1  0
 27 28  1  0
 29 25  2  0
M  END
$$$$
