VQY.pdb
     RDKit          3D

 29 29  0  0  1  0  0  0  0  0999 V2000
   29.8065  -19.9183  -17.1363 C   0  0  0  0  0  0  0  0  0  0  0  0
   28.8676  -19.6707  -15.9847 C   0  0  1  0  0  0  0  0  0  0  0  0
   29.1513  -18.3834  -15.2884 C   0  0  0  0  0  0  0  0  0  0  0  0
   27.4567  -19.8040  -16.5043 C   0  0  2  0  0  0  0  0  0  0  0  0
   27.1951  -18.9094  -17.6060 N   0  0  0  0  0  0  0  0  0  0  0  0
   26.4286  -19.5615  -15.4611 C   0  0  0  0  0  0  0  0  0  0  0  0
   25.9964  -18.4143  -15.2201 O   0  0  0  0  0  0  0  0  0  0  0  0
   21.3919  -20.2970  -14.6628 N   0  0  0  0  0  0  0  0  0  0  0  0
   21.4979  -20.8905  -13.3829 C   0  0  0  0  0  0  0  0  0  0  0  0
   20.5246  -20.8626  -12.6027 O   0  0  0  0  0  0  0  0  0  0  0  0
   22.7582  -21.5415  -12.9682 C   0  0  0  0  0  0  0  0  0  0  0  0
   23.8507  -21.3855  -13.9629 C   0  0  0  0  0  0  0  0  0  0  0  0
   25.0157  -20.5184  -13.5721 C   0  0  2  0  0  0  0  0  0  0  0  0
   25.9276  -20.6332  -14.7274 N   0  0  0  0  0  0  0  0  0  0  0  0
   25.6784  -20.9107  -12.3459 C   0  0  0  0  0  0  0  0  0  0  0  0
   26.1987  -22.0525  -12.2710 O   0  0  0  0  0  0  0  0  0  0  0  0
   29.5890  -20.3598   -4.4574 O   0  0  0  0  0  0  0  0  0  0  0  0
   28.9956  -20.1221   -5.7004 C   0  0  0  0  0  0  0  0  0  0  0  0
   27.8366  -19.3762   -5.8292 C   0  0  0  0  0  0  0  0  0  0  0  0
   27.2593  -19.1470   -7.0507 C   0  0  0  0  0  0  0  0  0  0  0  0
   27.8449  -19.6709   -8.1832 C   0  0  0  0  0  0  0  0  0  0  0  0
   27.2684  -19.4604   -9.5022 C   0  0  0  0  0  0  0  0  0  0  0  0
   26.4339  -20.6096  -10.0240 C   0  0  2  0  0  0  0  0  0  0  0  0
   25.7702  -20.0638  -11.2327 N   0  0  0  0  0  0  0  0  0  0  0  0
   25.3500  -20.8937   -9.0546 C   0  0  0  0  0  0  0  0  0  0  0  0
   25.5160  -21.7952   -8.0016 O   0  0  0  0  0  0  0  0  0  0  0  0
   29.0015  -20.4179   -8.0783 C   0  0  0  0  0  0  0  0  0  0  0  0
   29.5766  -20.6422   -6.8274 C   0  0  0  0  0  0  0  0  0  0  0  0
   24.2162  -20.3515   -9.1081 O   0  0  0  0  0  0  0  0  0  0  0  0
  2  1  1  6
  3  2  1  0
  4  2  1  0
  4  5  1  6
  6 14  1  0
  6  4  1  0
  7  6  2  0
  8  9  1  0
  9 10  2  0
 11 12  1  0
 11  9  1  0
 13 12  1  6
 13 14  1  0
 15 13  1  0
 16 15  2  0
 18 28  2  0
 18 17  1  0
 19 18  1  0
 20 21  1  0
 20 19  2  0
 21 27  2  0
 22 21  1  0
 23 22  1  1
 23 25  1  0
 23 24  1  0
 24 15  1  0
 25 26  1  0
 27 28  1  0
 29 25  2  0
M  END
$$$$
