VQY.pdb
     RDKit          3D

 29 29  0  0  1  0  0  0  0  0999 V2000
   23.9291  -13.9705  -14.9058 C   0  0  0  0  0  0  0  0  0  0  0  0
   23.5564  -12.6537  -15.5351 C   0  0  1  0  0  0  0  0  0  0  0  0
   24.6007  -12.1599  -16.4776 C   0  0  0  0  0  0  0  0  0  0  0  0
   22.1843  -12.8071  -16.1451 C   0  0  2  0  0  0  0  0  0  0  0  0
   22.1547  -13.8210  -17.1717 N   0  0  0  0  0  0  0  0  0  0  0  0
   21.6647  -11.5454  -16.7301 C   0  0  0  0  0  0  0  0  0  0  0  0
   21.3783  -11.4536  -17.9427 O   0  0  0  0  0  0  0  0  0  0  0  0
   18.1756   -7.3161  -17.5573 N   0  0  0  0  0  0  0  0  0  0  0  0
   18.4320   -8.2885  -18.5525 C   0  0  0  0  0  0  0  0  0  0  0  0
   18.0636   -8.0871  -19.7274 O   0  0  0  0  0  0  0  0  0  0  0  0
   19.1335   -9.5416  -18.2032 C   0  0  0  0  0  0  0  0  0  0  0  0
   19.4538   -9.6476  -16.7564 C   0  0  0  0  0  0  0  0  0  0  0  0
   20.8151   -9.1812  -16.3192 C   0  0  2  0  0  0  0  0  0  0  0  0
   21.4890  -10.4309  -15.9148 N   0  0  0  0  0  0  0  0  0  0  0  0
   20.8071   -8.2208  -15.2355 C   0  0  0  0  0  0  0  0  0  0  0  0
   20.3280   -8.5584  -14.1235 O   0  0  0  0  0  0  0  0  0  0  0  0
   25.4120   -3.7523  -18.5103 O   0  0  0  0  0  0  0  0  0  0  0  0
   24.7606   -4.2588  -17.3821 C   0  0  0  0  0  0  0  0  0  0  0  0
   24.7219   -5.6142  -17.1043 C   0  0  0  0  0  0  0  0  0  0  0  0
   24.0812   -6.1048  -15.9967 C   0  0  0  0  0  0  0  0  0  0  0  0
   23.4580   -5.2288  -15.1339 C   0  0  0  0  0  0  0  0  0  0  0  0
   22.7603   -5.6999  -13.9475 C   0  0  0  0  0  0  0  0  0  0  0  0
   21.3076   -6.0633  -14.1643 C   0  0  2  0  0  0  0  0  0  0  0  0
   21.3195   -6.9233  -15.3725 N   0  0  0  0  0  0  0  0  0  0  0  0
   20.5585   -4.8411  -14.5388 C   0  0  0  0  0  0  0  0  0  0  0  0
   20.0619   -4.6431  -15.8284 O   0  0  0  0  0  0  0  0  0  0  0  0
   23.4841   -3.8725  -15.3912 C   0  0  0  0  0  0  0  0  0  0  0  0
   24.1405   -3.3892  -16.5233 C   0  0  0  0  0  0  0  0  0  0  0  0
   20.3183   -3.9048  -13.7338 O   0  0  0  0  0  0  0  0  0  0  0  0
  2  1  1  6
  3  2  1  0
  4  2  1  0
  4  5  1  6
  6 14  1  0
  6  4  1  0
  7  6  2  0
  8  9  1  0
  9 10  2  0
 11 12  1  0
 11  9  1  0
 13 12  1  1
 13 14  1  0
 15 13  1  0
 16 15  2  0
 18 28  2  0
 18 17  1  0
 19 18  1  0
 20 21  1  0
 20 19  2  0
 21 27  2  0
 22 21  1  0
 23 22  1  6
 23 25  1  0
 23 24  1  0
 24 15  1  0
 25 26  1  0
 27 28  1  0
 29 25  2  0
M  END
$$$$
