VQY.pdb
     RDKit          3D

 29 29  0  0  1  0  0  0  0  0999 V2000
   19.5482   -9.5547    8.8345 C   0  0  0  0  0  0  0  0  0  0  0  0
   19.9734  -10.9548    8.4769 C   0  0  1  0  0  0  0  0  0  0  0  0
   19.4841  -11.3697    7.1312 C   0  0  0  0  0  0  0  0  0  0  0  0
   21.4701  -11.0404    8.6530 C   0  0  2  0  0  0  0  0  0  0  0  0
   22.1738  -10.1263    7.7860 N   0  0  0  0  0  0  0  0  0  0  0  0
   22.0055  -12.4044    8.4145 C   0  0  0  0  0  0  0  0  0  0  0  0
   22.6591  -12.6822    7.3867 O   0  0  0  0  0  0  0  0  0  0  0  0
   25.1869  -14.8216   12.9101 N   0  0  0  0  0  0  0  0  0  0  0  0
   24.5828  -15.8545   12.1550 C   0  0  0  0  0  0  0  0  0  0  0  0
   24.3990  -16.9753   12.6713 O   0  0  0  0  0  0  0  0  0  0  0  0
   24.1708  -15.6088   10.7571 C   0  0  0  0  0  0  0  0  0  0  0  0
   22.7890  -15.0757   10.6407 C   0  0  0  0  0  0  0  0  0  0  0  0
   22.2777  -14.7918    9.2551 C   0  0  2  0  0  0  0  0  0  0  0  0
   21.7785  -13.4060    9.3543 N   0  0  0  0  0  0  0  0  0  0  0  0
   21.2361  -15.6881    8.7984 C   0  0  0  0  0  0  0  0  0  0  0  0
   20.0527  -15.4907    9.1732 O   0  0  0  0  0  0  0  0  0  0  0  0
   16.3698  -20.7094    3.5884 O   0  0  0  0  0  0  0  0  0  0  0  0
   17.4085  -20.0012    4.1993 C   0  0  0  0  0  0  0  0  0  0  0  0
   18.6136  -20.6004    4.5232 C   0  0  0  0  0  0  0  0  0  0  0  0
   19.6281  -19.9009    5.1226 C   0  0  0  0  0  0  0  0  0  0  0  0
   19.4481  -18.5653    5.4120 C   0  0  0  0  0  0  0  0  0  0  0  0
   20.4922  -17.7802    6.0522 C   0  0  0  0  0  0  0  0  0  0  0  0
   20.3307  -17.6024    7.5461 C   0  0  2  0  0  0  0  0  0  0  0  0
   21.4919  -16.7709    7.9457 N   0  0  0  0  0  0  0  0  0  0  0  0
   20.5193  -18.9144    8.2081 C   0  0  0  0  0  0  0  0  0  0  0  0
   19.4506  -19.7757    8.4628 O   0  0  0  0  0  0  0  0  0  0  0  0
   18.2541  -17.9469    5.0977 C   0  0  0  0  0  0  0  0  0  0  0  0
   17.2312  -18.6732    4.4878 C   0  0  0  0  0  0  0  0  0  0  0  0
   21.6405  -19.3430    8.5845 O   0  0  0  0  0  0  0  0  0  0  0  0
  2  1  1  6
  3  2  1  0
  4  2  1  0
  4  5  1  6
  6 14  1  0
  6  4  1  0
  7  6  2  0
  8  9  1  0
  9 10  2  0
 11 12  1  0
 11  9  1  0
 13 12  1  1
 13 14  1  0
 15 13  1  0
 16 15  2  0
 18 28  2  0
 18 17  1  0
 19 18  1  0
 20 21  1  0
 20 19  2  0
 21 27  2  0
 22 21  1  0
 23 22  1  6
 23 25  1  0
 23 24  1  0
 24 15  1  0
 25 26  1  0
 27 28  1  0
 29 25  2  0
M  END
$$$$
