VQY.pdb
     RDKit          3D

 29 29  0  0  1  0  0  0  0  0999 V2000
   29.4972  -19.4442  -13.1683 C   0  0  0  0  0  0  0  0  0  0  0  0
   28.9442  -18.8278  -14.4265 C   0  0  1  0  0  0  0  0  0  0  0  0
   29.8586  -18.9994  -15.5914 C   0  0  0  0  0  0  0  0  0  0  0  0
   27.5538  -19.3770  -14.6355 C   0  0  2  0  0  0  0  0  0  0  0  0
   26.9952  -18.9774  -15.9047 N   0  0  0  0  0  0  0  0  0  0  0  0
   26.6040  -18.9741  -13.5680 C   0  0  0  0  0  0  0  0  0  0  0  0
   25.9038  -17.9442  -13.6673 O   0  0  0  0  0  0  0  0  0  0  0  0
   22.1831  -18.9560  -13.7487 N   0  0  0  0  0  0  0  0  0  0  0  0
   21.8335  -19.7628  -12.6403 C   0  0  0  0  0  0  0  0  0  0  0  0
   20.6512  -19.7944  -12.2432 O   0  0  0  0  0  0  0  0  0  0  0  0
   22.8654  -20.5662  -11.9517 C   0  0  0  0  0  0  0  0  0  0  0  0
   24.2285  -20.3662  -12.5077 C   0  0  0  0  0  0  0  0  0  0  0  0
   25.2801  -19.8367  -11.5721 C   0  0  2  0  0  0  0  0  0  0  0  0
   26.4837  -19.7572  -12.4234 N   0  0  0  0  0  0  0  0  0  0  0  0
   25.5224  -20.6592  -10.4052 C   0  0  0  0  0  0  0  0  0  0  0  0
   25.8380  -21.8657  -10.5630 O   0  0  0  0  0  0  0  0  0  0  0  0
   30.5369  -18.3185   -5.1616 O   0  0  0  0  0  0  0  0  0  0  0  0
   29.2957  -18.8346   -5.5447 C   0  0  0  0  0  0  0  0  0  0  0  0
   28.9877  -20.1777   -5.4133 C   0  0  0  0  0  0  0  0  0  0  0  0
   27.7691  -20.6778   -5.7912 C   0  0  0  0  0  0  0  0  0  0  0  0
   26.8224  -19.8244   -6.3162 C   0  0  0  0  0  0  0  0  0  0  0  0
   25.5160  -20.3068   -6.7369 C   0  0  0  0  0  0  0  0  0  0  0  0
   25.5219  -21.1486   -7.9942 C   0  0  2  0  0  0  0  0  0  0  0  0
   25.4247  -20.1629   -9.0979 N   0  0  0  0  0  0  0  0  0  0  0  0
   24.2730  -21.9441   -8.0442 C   0  0  0  0  0  0  0  0  0  0  0  0
   23.2645  -21.6814   -8.9731 O   0  0  0  0  0  0  0  0  0  0  0  0
   27.1080  -18.4807   -6.4562 C   0  0  0  0  0  0  0  0  0  0  0  0
   28.3534  -17.9875   -6.0668 C   0  0  0  0  0  0  0  0  0  0  0  0
   24.0324  -22.9013   -7.2642 O   0  0  0  0  0  0  0  0  0  0  0  0
  2  1  1  1
  3  2  1  0
  4  2  1  0
  4  5  1  6
  6 14  1  0
  6  4  1  0
  7  6  2  0
  8  9  1  0
  9 10  2  0
 11 12  1  0
 11  9  1  0
 13 12  1  6
 13 14  1  0
 15 13  1  0
 16 15  2  0
 18 28  2  0
 18 17  1  0
 19 18  1  0
 20 21  1  0
 20 19  2  0
 21 27  2  0
 22 21  1  0
 23 22  1  1
 23 25  1  0
 23 24  1  0
 24 15  1  0
 25 26  1  0
 27 28  1  0
 29 25  2  0
M  END
$$$$
