VQY.pdb
     RDKit          3D

 29 29  0  0  1  0  0  0  0  0999 V2000
   29.5361  -38.0578   -1.1708 C   0  0  0  0  0  0  0  0  0  0  0  0
   30.4343  -38.2767   -2.3600 C   0  0  1  0  0  0  0  0  0  0  0  0
   30.9288  -39.6805   -2.4464 C   0  0  0  0  0  0  0  0  0  0  0  0
   29.6990  -37.7951   -3.5870 C   0  0  2  0  0  0  0  0  0  0  0  0
   30.4953  -37.9212   -4.7840 N   0  0  0  0  0  0  0  0  0  0  0  0
   29.2518  -36.3835   -3.4790 C   0  0  0  0  0  0  0  0  0  0  0  0
   30.0289  -35.4305   -3.6997 O   0  0  0  0  0  0  0  0  0  0  0  0
   24.8307  -34.5486   -6.4798 N   0  0  0  0  0  0  0  0  0  0  0  0
   24.8161  -33.4350   -5.6072 C   0  0  0  0  0  0  0  0  0  0  0  0
   24.1521  -32.4214   -5.9045 O   0  0  0  0  0  0  0  0  0  0  0  0
   25.5862  -33.4695   -4.3462 C   0  0  0  0  0  0  0  0  0  0  0  0
   26.4215  -34.6899   -4.2054 C   0  0  0  0  0  0  0  0  0  0  0  0
   27.3507  -34.7527   -3.0245 C   0  0  2  0  0  0  0  0  0  0  0  0
   27.9351  -36.1049   -3.1233 N   0  0  0  0  0  0  0  0  0  0  0  0
   26.7120  -34.5553   -1.7400 C   0  0  0  0  0  0  0  0  0  0  0  0
   26.0772  -35.5077   -1.2205 O   0  0  0  0  0  0  0  0  0  0  0  0
   24.3127  -31.1695    6.0083 O   0  0  0  0  0  0  0  0  0  0  0  0
   24.8852  -31.3692    4.7489 C   0  0  0  0  0  0  0  0  0  0  0  0
   25.4304  -30.3281    4.0176 C   0  0  0  0  0  0  0  0  0  0  0  0
   25.9899  -30.5302    2.7831 C   0  0  0  0  0  0  0  0  0  0  0  0
   26.0126  -31.8020    2.2522 C   0  0  0  0  0  0  0  0  0  0  0  0
   26.5904  -32.0678    0.9438 C   0  0  0  0  0  0  0  0  0  0  0  0
   25.9768  -33.2346    0.2010 C   0  0  2  0  0  0  0  0  0  0  0  0
   26.7764  -33.3406   -1.0434 N   0  0  0  0  0  0  0  0  0  0  0  0
   24.6060  -32.8653   -0.2230 C   0  0  0  0  0  0  0  0  0  0  0  0
   24.3702  -31.9713   -1.2690 O   0  0  0  0  0  0  0  0  0  0  0  0
   25.4746  -32.8557    2.9642 C   0  0  0  0  0  0  0  0  0  0  0  0
   24.9087  -32.6332    4.2196 C   0  0  0  0  0  0  0  0  0  0  0  0
   23.5682  -33.3233    0.3206 O   0  0  0  0  0  0  0  0  0  0  0  0
  2  1  1  1
  3  2  1  0
  4  2  1  0
  4  5  1  6
  6 14  1  0
  6  4  1  0
  7  6  2  0
  8  9  1  0
  9 10  2  0
 11 12  1  0
 11  9  1  0
 13 12  1  6
 13 14  1  0
 15 13  1  0
 16 15  2  0
 18 28  2  0
 18 17  1  0
 19 18  1  0
 20 21  1  0
 20 19  2  0
 21 27  2  0
 22 21  1  0
 23 22  1  1
 23 25  1  0
 23 24  1  0
 24 15  1  0
 25 26  1  0
 27 28  1  0
 29 25  2  0
M  END
$$$$
