VQY.pdb
     RDKit          3D

 29 29  0  0  1  0  0  0  0  0999 V2000
   30.0446  -22.2262  -17.9482 C   0  0  0  0  0  0  0  0  0  0  0  0
   28.7908  -21.4085  -18.1165 C   0  0  1  0  0  0  0  0  0  0  0  0
   28.6217  -20.9101  -19.5113 C   0  0  0  0  0  0  0  0  0  0  0  0
   27.6336  -22.2286  -17.5999 C   0  0  2  0  0  0  0  0  0  0  0  0
   27.3211  -23.3377  -18.4687 N   0  0  0  0  0  0  0  0  0  0  0  0
   26.3961  -21.4309  -17.4095 C   0  0  0  0  0  0  0  0  0  0  0  0
   26.0457  -20.5574  -18.2311 O   0  0  0  0  0  0  0  0  0  0  0  0
   21.9948  -19.4126  -19.1975 N   0  0  0  0  0  0  0  0  0  0  0  0
   21.9525  -19.5202  -17.7874 C   0  0  0  0  0  0  0  0  0  0  0  0
   21.8327  -18.4930  -17.0893 O   0  0  0  0  0  0  0  0  0  0  0  0
   22.0513  -20.8452  -17.1404 C   0  0  0  0  0  0  0  0  0  0  0  0
   23.4342  -21.3879  -17.1289 C   0  0  0  0  0  0  0  0  0  0  0  0
   24.3298  -20.9597  -15.9992 C   0  0  2  0  0  0  0  0  0  0  0  0
   25.5996  -21.6545  -16.2899 N   0  0  0  0  0  0  0  0  0  0  0  0
   23.8428  -21.2983  -14.6783 C   0  0  0  0  0  0  0  0  0  0  0  0
   23.7701  -22.5083  -14.3455 O   0  0  0  0  0  0  0  0  0  0  0  0
   29.4397  -21.1417  -11.1905 O   0  0  0  0  0  0  0  0  0  0  0  0
   28.0825  -20.8201  -11.2819 C   0  0  0  0  0  0  0  0  0  0  0  0
   27.5886  -20.0009  -12.2824 C   0  0  0  0  0  0  0  0  0  0  0  0
   26.2569  -19.6888  -12.3665 C   0  0  0  0  0  0  0  0  0  0  0  0
   25.3829  -20.2022  -11.4323 C   0  0  0  0  0  0  0  0  0  0  0  0
   23.9613  -19.8967  -11.4750 C   0  0  0  0  0  0  0  0  0  0  0  0
   23.1424  -20.7974  -12.3737 C   0  0  2  0  0  0  0  0  0  0  0  0
   23.4511  -20.3275  -13.7460 N   0  0  0  0  0  0  0  0  0  0  0  0
   21.7048  -20.5121  -12.1567 C   0  0  0  0  0  0  0  0  0  0  0  0
   20.9433  -19.7990  -13.0843 O   0  0  0  0  0  0  0  0  0  0  0  0
   25.8536  -21.0217  -10.4255 C   0  0  0  0  0  0  0  0  0  0  0  0
   27.2122  -21.3297  -10.3540 C   0  0  0  0  0  0  0  0  0  0  0  0
   21.0734  -20.8859  -11.1350 O   0  0  0  0  0  0  0  0  0  0  0  0
  2  1  1  6
  3  2  1  0
  4  2  1  0
  4  5  1  6
  6 14  1  0
  6  4  1  0
  7  6  2  0
  8  9  1  0
  9 10  2  0
 11 12  1  0
 11  9  1  0
 13 12  1  6
 13 14  1  0
 15 13  1  0
 16 15  2  0
 18 28  2  0
 18 17  1  0
 19 18  1  0
 20 21  1  0
 20 19  2  0
 21 27  2  0
 22 21  1  0
 23 22  1  1
 23 25  1  0
 23 24  1  0
 24 15  1  0
 25 26  1  0
 27 28  1  0
 29 25  2  0
M  END
$$$$
