VQY.pdb
     RDKit          3D

 29 29  0  0  1  0  0  0  0  0999 V2000
   22.2651  -15.9641  -18.0224 C   0  0  0  0  0  0  0  0  0  0  0  0
   22.6245  -17.3722  -17.6263 C   0  0  1  0  0  0  0  0  0  0  0  0
   21.4279  -18.2555  -17.5237 C   0  0  0  0  0  0  0  0  0  0  0  0
   23.6849  -17.8627  -18.5821 C   0  0  2  0  0  0  0  0  0  0  0  0
   23.2037  -17.9317  -19.9409 N   0  0  0  0  0  0  0  0  0  0  0  0
   24.2232  -19.1972  -18.2168 C   0  0  0  0  0  0  0  0  0  0  0  0
   23.6909  -20.2526  -18.6216 O   0  0  0  0  0  0  0  0  0  0  0  0
   29.0253  -21.4852  -18.2162 N   0  0  0  0  0  0  0  0  0  0  0  0
   29.0243  -21.9100  -16.8666 C   0  0  0  0  0  0  0  0  0  0  0  0
   29.7730  -22.8413  -16.5079 O   0  0  0  0  0  0  0  0  0  0  0  0
   28.1380  -21.2542  -15.8824 C   0  0  0  0  0  0  0  0  0  0  0  0
   27.2986  -20.1817  -16.4760 C   0  0  0  0  0  0  0  0  0  0  0  0
   25.8758  -20.5323  -16.8144 C   0  0  2  0  0  0  0  0  0  0  0  0
   25.3491  -19.2850  -17.4029 N   0  0  0  0  0  0  0  0  0  0  0  0
   25.0715  -20.9551  -15.6870 C   0  0  0  0  0  0  0  0  0  0  0  0
   24.5978  -22.1193  -15.6768 O   0  0  0  0  0  0  0  0  0  0  0  0
   22.2894  -21.2938   -7.3132 O   0  0  0  0  0  0  0  0  0  0  0  0
   22.8820  -20.9544   -8.5328 C   0  0  0  0  0  0  0  0  0  0  0  0
   24.2150  -21.2161   -8.7985 C   0  0  0  0  0  0  0  0  0  0  0  0
   24.7905  -20.8805   -9.9961 C   0  0  0  0  0  0  0  0  0  0  0  0
   24.0252  -20.2663  -10.9642 C   0  0  0  0  0  0  0  0  0  0  0  0
   24.5903  -19.8858  -12.2496 C   0  0  0  0  0  0  0  0  0  0  0  0
   24.1436  -20.7356  -13.4191 C   0  0  2  0  0  0  0  0  0  0  0  0
   24.8010  -20.1175  -14.5959 N   0  0  0  0  0  0  0  0  0  0  0  0
   22.6873  -20.5491  -13.6185 C   0  0  0  0  0  0  0  0  0  0  0  0
   21.7504  -21.4622  -13.1313 O   0  0  0  0  0  0  0  0  0  0  0  0
   22.6932  -19.9957  -10.7209 C   0  0  0  0  0  0  0  0  0  0  0  0
   22.1226  -20.3437   -9.4965 C   0  0  0  0  0  0  0  0  0  0  0  0
   22.1947  -19.5683  -14.2330 O   0  0  0  0  0  0  0  0  0  0  0  0
  2  1  1  6
  3  2  1  0
  4  2  1  0
  4  5  1  6
  6 14  1  0
  6  4  1  0
  7  6  2  0
  8  9  1  0
  9 10  2  0
 11 12  1  0
 11  9  1  0
 13 12  1  1
 13 14  1  0
 15 13  1  0
 16 15  2  0
 18 28  2  0
 18 17  1  0
 19 18  1  0
 20 21  1  0
 20 19  2  0
 21 27  2  0
 22 21  1  0
 23 22  1  1
 23 25  1  0
 23 24  1  0
 24 15  1  0
 25 26  1  0
 27 28  1  0
 29 25  2  0
M  END
$$$$
