VQY.pdb
     RDKit          3D

 29 29  0  0  1  0  0  0  0  0999 V2000
   19.1935  -13.3194  -15.7780 C   0  0  0  0  0  0  0  0  0  0  0  0
   19.3489  -11.8216  -15.7442 C   0  0  1  0  0  0  0  0  0  0  0  0
   20.5506  -11.3590  -16.4956 C   0  0  0  0  0  0  0  0  0  0  0  0
   18.0477  -11.2132  -16.2080 C   0  0  2  0  0  0  0  0  0  0  0  0
   17.6709  -11.6706  -17.5238 N   0  0  0  0  0  0  0  0  0  0  0  0
   18.0753   -9.7290  -16.2277 C   0  0  0  0  0  0  0  0  0  0  0  0
   18.3906   -9.0923  -17.2553 O   0  0  0  0  0  0  0  0  0  0  0  0
   15.0039   -5.6579  -16.1844 N   0  0  0  0  0  0  0  0  0  0  0  0
   15.4753   -5.0123  -15.0170 C   0  0  0  0  0  0  0  0  0  0  0  0
   15.2435   -3.7990  -14.8416 O   0  0  0  0  0  0  0  0  0  0  0  0
   16.2421   -5.7711  -14.0069 C   0  0  0  0  0  0  0  0  0  0  0  0
   16.4624   -7.1906  -14.3860 C   0  0  0  0  0  0  0  0  0  0  0  0
   17.8156   -7.5523  -14.9334 C   0  0  2  0  0  0  0  0  0  0  0  0
   17.7431   -9.0199  -15.0768 N   0  0  0  0  0  0  0  0  0  0  0  0
   18.9312   -7.1666  -14.0947 C   0  0  0  0  0  0  0  0  0  0  0  0
   19.0699   -7.7151  -12.9722 O   0  0  0  0  0  0  0  0  0  0  0  0
   22.9971   -4.5588  -19.5252 O   0  0  0  0  0  0  0  0  0  0  0  0
   22.8103   -5.0403  -18.2263 C   0  0  0  0  0  0  0  0  0  0  0  0
   23.2559   -4.3453  -17.1153 C   0  0  0  0  0  0  0  0  0  0  0  0
   23.0702   -4.8227  -15.8442 C   0  0  0  0  0  0  0  0  0  0  0  0
   22.4229   -6.0262  -15.6631 C   0  0  0  0  0  0  0  0  0  0  0  0
   22.2056   -6.5783  -14.3348 C   0  0  0  0  0  0  0  0  0  0  0  0
   21.0307   -5.9901  -13.5844 C   0  0  2  0  0  0  0  0  0  0  0  0
   19.8729   -6.2048  -14.4859 N   0  0  0  0  0  0  0  0  0  0  0  0
   21.2091   -4.5224  -13.4892 C   0  0  0  0  0  0  0  0  0  0  0  0
   22.2074   -3.9474  -12.7007 O   0  0  0  0  0  0  0  0  0  0  0  0
   21.9698   -6.7365  -16.7571 C   0  0  0  0  0  0  0  0  0  0  0  0
   22.1669   -6.2366  -18.0444 C   0  0  0  0  0  0  0  0  0  0  0  0
   20.4842   -3.6976  -14.1029 O   0  0  0  0  0  0  0  0  0  0  0  0
  2  1  1  6
  3  2  1  0
  4  2  1  0
  4  5  1  6
  6 14  1  0
  6  4  1  0
  7  6  2  0
  8  9  1  0
  9 10  2  0
 11 12  1  0
 11  9  1  0
 13 12  1  1
 13 14  1  0
 15 13  1  0
 16 15  2  0
 18 28  2  0
 18 17  1  0
 19 18  1  0
 20 21  1  0
 20 19  2  0
 21 27  2  0
 22 21  1  0
 23 22  1  6
 23 25  1  0
 23 24  1  0
 24 15  1  0
 25 26  1  0
 27 28  1  0
 29 25  2  0
M  END
$$$$
