VQY.pdb
     RDKit          3D

 29 29  0  0  1  0  0  0  0  0999 V2000
   32.3911  -34.4336  -26.0959 C   0  0  0  0  0  0  0  0  0  0  0  0
   32.3939  -34.3330  -24.5930 C   0  0  1  0  0  0  0  0  0  0  0  0
   31.2456  -35.0548  -23.9741 C   0  0  0  0  0  0  0  0  0  0  0  0
   33.7507  -34.7790  -24.1045 C   0  0  2  0  0  0  0  0  0  0  0  0
   34.0352  -36.1481  -24.4613 N   0  0  0  0  0  0  0  0  0  0  0  0
   33.9116  -34.6441  -22.6348 C   0  0  0  0  0  0  0  0  0  0  0  0
   33.7202  -35.6074  -21.8626 O   0  0  0  0  0  0  0  0  0  0  0  0
   35.3295  -29.4843  -20.3628 N   0  0  0  0  0  0  0  0  0  0  0  0
   35.8434  -30.1866  -19.2473 C   0  0  0  0  0  0  0  0  0  0  0  0
   36.1182  -29.5702  -18.1979 O   0  0  0  0  0  0  0  0  0  0  0  0
   36.0565  -31.6471  -19.3231 C   0  0  0  0  0  0  0  0  0  0  0  0
   35.6703  -32.2262  -20.6356 C   0  0  0  0  0  0  0  0  0  0  0  0
   34.4821  -33.1480  -20.6557 C   0  0  2  0  0  0  0  0  0  0  0  0
   34.2848  -33.4169  -22.0939 N   0  0  0  0  0  0  0  0  0  0  0  0
   33.2811  -32.6012  -20.0598 C   0  0  0  0  0  0  0  0  0  0  0  0
   32.6090  -31.7569  -20.7044 O   0  0  0  0  0  0  0  0  0  0  0  0
   25.8285  -32.1830  -15.4352 O   0  0  0  0  0  0  0  0  0  0  0  0
   27.0799  -32.5036  -15.9690 C   0  0  0  0  0  0  0  0  0  0  0  0
   27.2338  -32.9146  -17.2817 C   0  0  0  0  0  0  0  0  0  0  0  0
   28.4634  -33.2281  -17.7992 C   0  0  0  0  0  0  0  0  0  0  0  0
   29.5787  -33.1327  -16.9948 C   0  0  0  0  0  0  0  0  0  0  0  0
   30.9052  -33.4590  -17.4951 C   0  0  0  0  0  0  0  0  0  0  0  0
   31.5635  -32.3699  -18.3136 C   0  0  2  0  0  0  0  0  0  0  0  0
   32.8293  -32.9798  -18.7879 N   0  0  0  0  0  0  0  0  0  0  0  0
   31.9554  -31.2624  -17.4108 C   0  0  0  0  0  0  0  0  0  0  0  0
   31.2378  -30.0664  -17.3513 O   0  0  0  0  0  0  0  0  0  0  0  0
   29.4487  -32.7246  -15.6821 C   0  0  0  0  0  0  0  0  0  0  0  0
   28.1898  -32.4092  -15.1706 C   0  0  0  0  0  0  0  0  0  0  0  0
   32.9498  -31.3172  -16.6424 O   0  0  0  0  0  0  0  0  0  0  0  0
  2  1  1  6
  3  2  1  0
  4  2  1  0
  4  5  1  1
  6 14  1  0
  6  4  1  0
  7  6  2  0
  8  9  1  0
  9 10  2  0
 11 12  1  0
 11  9  1  0
 13 12  1  6
 13 14  1  0
 15 13  1  0
 16 15  2  0
 18 28  2  0
 18 17  1  0
 19 18  1  0
 20 21  1  0
 20 19  2  0
 21 27  2  0
 22 21  1  0
 23 22  1  1
 23 25  1  0
 23 24  1  0
 24 15  1  0
 25 26  1  0
 27 28  1  0
 29 25  2  0
M  END
$$$$
