VQY.pdb
     RDKit          3D

 29 29  0  0  1  0  0  0  0  0999 V2000
   22.8470   -9.1648  -21.7545 C   0  0  0  0  0  0  0  0  0  0  0  0
   22.2577  -10.3482  -22.4765 C   0  0  1  0  0  0  0  0  0  0  0  0
   23.1365  -10.8359  -23.5776 C   0  0  0  0  0  0  0  0  0  0  0  0
   21.9111  -11.3921  -21.4429 C   0  0  2  0  0  0  0  0  0  0  0  0
   21.3225  -12.5698  -22.0340 N   0  0  0  0  0  0  0  0  0  0  0  0
   20.9833  -10.8894  -20.3986 C   0  0  0  0  0  0  0  0  0  0  0  0
   19.7887  -10.6270  -20.6535 O   0  0  0  0  0  0  0  0  0  0  0  0
   17.9524  -12.1494  -16.6317 N   0  0  0  0  0  0  0  0  0  0  0  0
   18.5836  -11.4633  -15.5675 C   0  0  0  0  0  0  0  0  0  0  0  0
   17.9392  -11.1924  -14.5341 O   0  0  0  0  0  0  0  0  0  0  0  0
   20.0029  -11.0663  -15.6780 C   0  0  0  0  0  0  0  0  0  0  0  0
   20.5801  -11.3298  -17.0214 C   0  0  0  0  0  0  0  0  0  0  0  0
   20.6439  -10.1725  -17.9796 C   0  0  2  0  0  0  0  0  0  0  0  0
   21.4470  -10.7022  -19.0994 N   0  0  0  0  0  0  0  0  0  0  0  0
   21.2388   -8.9689  -17.4372 C   0  0  0  0  0  0  0  0  0  0  0  0
   22.4567   -8.9760  -17.1262 O   0  0  0  0  0  0  0  0  0  0  0  0
   22.2189   -0.7579  -14.3860 O   0  0  0  0  0  0  0  0  0  0  0  0
   21.7492   -1.9099  -15.0233 C   0  0  0  0  0  0  0  0  0  0  0  0
   20.6792   -1.8781  -15.9009 C   0  0  0  0  0  0  0  0  0  0  0  0
   20.2230   -3.0111  -16.5223 C   0  0  0  0  0  0  0  0  0  0  0  0
   20.8433   -4.2159  -16.2698 C   0  0  0  0  0  0  0  0  0  0  0  0
   20.3938   -5.4474  -16.9003 C   0  0  0  0  0  0  0  0  0  0  0  0
   21.1989   -6.6775  -16.5424 C   0  0  2  0  0  0  0  0  0  0  0  0
   20.5109   -7.7860  -17.2476 N   0  0  0  0  0  0  0  0  0  0  0  0
   21.0388   -6.9508  -15.0951 C   0  0  0  0  0  0  0  0  0  0  0  0
   22.0497   -6.6736  -14.1730 O   0  0  0  0  0  0  0  0  0  0  0  0
   21.9127   -4.2710  -15.3981 C   0  0  0  0  0  0  0  0  0  0  0  0
   22.3649   -3.1085  -14.7735 C   0  0  0  0  0  0  0  0  0  0  0  0
   19.9951   -7.4460  -14.5973 O   0  0  0  0  0  0  0  0  0  0  0  0
  2  1  1  1
  3  2  1  0
  4  2  1  0
  4  5  1  6
  6 14  1  0
  6  4  1  0
  7  6  2  0
  8  9  1  0
  9 10  2  0
 11 12  1  0
 11  9  1  0
 13 12  1  1
 13 14  1  0
 15 13  1  0
 16 15  2  0
 18 28  2  0
 18 17  1  0
 19 18  1  0
 20 21  1  0
 20 19  2  0
 21 27  2  0
 22 21  1  0
 23 22  1  1
 23 25  1  0
 23 24  1  0
 24 15  1  0
 25 26  1  0
 27 28  1  0
 29 25  2  0
M  END
$$$$
