NNE.pdb
     RDKit          3D

 26 25  0  0  1  0  0  0  0  0999 V2000
    7.0172  -12.3244   18.7634 N   0  0  0  0  0  0  0  0  0  0  0  0
    7.7953  -13.3748   18.2425 C   0  0  0  0  0  0  0  0  0  0  0  0
    7.3186  -14.0750   17.3151 O   0  0  0  0  0  0  0  0  0  0  0  0
    9.1523  -13.6711   18.7631 C   0  0  0  0  0  0  0  0  0  0  0  0
    9.2777  -15.0781   19.2981 C   0  0  2  0  0  0  0  0  0  0  0  0
    8.4316  -16.0031   18.6146 N   0  0  0  0  0  0  0  0  0  0  0  0
    9.0852  -15.0823   20.7608 C   0  0  0  0  0  0  0  0  0  0  0  0
    9.8412  -14.3948   21.5325 O   0  0  0  0  0  0  0  0  0  0  0  0
    7.8216  -16.3206   25.5525 N   0  0  0  0  0  0  0  0  0  0  0  0
    6.5878  -16.5038   24.8537 C   0  0  0  0  0  0  0  0  0  0  0  0
    5.5702  -16.7868   25.5291 O   0  0  0  0  0  0  0  0  0  0  0  0
    6.6256  -16.3425   23.3935 C   0  0  0  0  0  0  0  0  0  0  0  0
    8.0238  -16.0179   22.8594 C   0  0  2  0  0  0  0  0  0  0  0  0
    8.0852  -15.8160   21.4566 N   0  0  0  0  0  0  0  0  0  0  0  0
    8.9463  -17.0027   23.4255 C   0  0  0  0  0  0  0  0  0  0  0  0
    9.0241  -18.1052   22.7900 O   0  0  0  0  0  0  0  0  0  0  0  0
    9.7253  -16.8402   24.5694 N   0  0  0  0  0  0  0  0  0  0  0  0
   10.9880  -17.6001   24.6774 C   0  0  1  0  0  0  0  0  0  0  0  0
   12.0418  -16.9802   23.8304 C   0  0  0  0  0  0  0  0  0  0  0  0
   13.3509  -17.6650   23.9908 C   0  0  0  0  0  0  0  0  0  0  0  0
   14.4030  -17.0664   23.0991 C   0  0  0  0  0  0  0  0  0  0  0  0
   14.5417  -15.8224   23.1716 O   0  0  0  0  0  0  0  0  0  0  0  0
   11.3939  -17.5911   26.0954 C   0  0  0  0  0  0  0  0  0  0  0  0
   10.7574  -16.7427   27.0296 O   0  0  0  0  0  0  0  0  0  0  0  0
   15.1906  -17.7819   22.2416 O   0  0  0  0  0  0  0  0  0  0  0  0
   12.2981  -18.3017   26.5784 O   0  0  0  0  0  0  0  0  0  0  0  0
  2  1  1  0
  2  4  1  0
  3  2  2  0
  5  4  1  0
  5  6  1  6
  7  5  1  0
  8  7  2  0
  9 10  1  0
 10 12  1  0
 11 10  2  0
 13 12  1  6
 13 14  1  0
 14  7  1  0
 15 13  1  0
 15 16  2  0
 17 15  1  0
 18 17  1  0
 19 20  1  0
 18 19  1  6
 20 21  1  0
 21 25  1  0
 21 22  2  0
 23 18  1  0
 24 23  1  0
 26 23  2  0
M  END
$$$$
