NNE.pdb
     RDKit          3D

 26 25  0  0  1  0  0  0  0  0999 V2000
   11.3728  -18.9610   16.2697 N   0  0  0  0  0  0  0  0  0  0  0  0
   10.7522  -17.6987   16.3105 C   0  0  0  0  0  0  0  0  0  0  0  0
   10.6127  -17.0611   15.2373 O   0  0  0  0  0  0  0  0  0  0  0  0
   10.2671  -17.1101   17.5827 C   0  0  0  0  0  0  0  0  0  0  0  0
   10.6008  -17.9620   18.7845 C   0  0  2  0  0  0  0  0  0  0  0  0
    9.6687  -19.0259   18.9796 N   0  0  0  0  0  0  0  0  0  0  0  0
   10.7716  -17.1102   19.9769 C   0  0  0  0  0  0  0  0  0  0  0  0
   11.6738  -16.2025   20.0213 O   0  0  0  0  0  0  0  0  0  0  0  0
   10.6866  -15.0543   24.6343 N   0  0  0  0  0  0  0  0  0  0  0  0
    9.3044  -15.2702   24.3394 C   0  0  0  0  0  0  0  0  0  0  0  0
    8.4564  -14.7761   25.1195 O   0  0  0  0  0  0  0  0  0  0  0  0
    9.0010  -16.0595   23.1375 C   0  0  0  0  0  0  0  0  0  0  0  0
   10.2540  -16.5099   22.3805 C   0  0  2  0  0  0  0  0  0  0  0  0
    9.9929  -17.1913   21.1640 N   0  0  0  0  0  0  0  0  0  0  0  0
   11.1248  -17.1865   23.3423 C   0  0  0  0  0  0  0  0  0  0  0  0
   10.8100  -18.3932   23.6079 O   0  0  0  0  0  0  0  0  0  0  0  0
   12.2385  -16.6372   23.9744 N   0  0  0  0  0  0  0  0  0  0  0  0
   13.0714  -17.5132   24.8245 C   0  0  1  0  0  0  0  0  0  0  0  0
   14.5023  -17.1171   24.7341 C   0  0  0  0  0  0  0  0  0  0  0  0
   14.9696  -17.0591   23.3246 C   0  0  0  0  0  0  0  0  0  0  0  0
   16.3450  -16.4610   23.2204 C   0  0  0  0  0  0  0  0  0  0  0  0
   16.8690  -16.0971   24.2998 O   0  0  0  0  0  0  0  0  0  0  0  0
   12.5860  -17.3814   26.2110 C   0  0  0  0  0  0  0  0  0  0  0  0
   13.1726  -18.1230   27.2615 O   0  0  0  0  0  0  0  0  0  0  0  0
   17.0324  -16.2977   22.0507 O   0  0  0  0  0  0  0  0  0  0  0  0
   11.6526  -16.6346   26.5673 O   0  0  0  0  0  0  0  0  0  0  0  0
  2  1  1  0
  2  4  1  0
  3  2  2  0
  5  4  1  0
  5  6  1  1
  7  5  1  0
  8  7  2  0
  9 10  1  0
 10 12  1  0
 11 10  2  0
 13 12  1  1
 13 14  1  0
 14  7  1  0
 15 13  1  0
 15 16  2  0
 17 15  1  0
 18 17  1  0
 19 20  1  0
 18 19  1  1
 20 21  1  0
 21 25  1  0
 21 22  2  0
 23 18  1  0
 24 23  1  0
 26 23  2  0
M  END
$$$$
