NNE.pdb
     RDKit          3D

 26 25  0  0  1  0  0  0  0  0999 V2000
   11.8023  -16.5817   13.1587 N   0  0  0  0  0  0  0  0  0  0  0  0
   12.3656  -15.3183   13.4168 C   0  0  0  0  0  0  0  0  0  0  0  0
   12.9482  -14.7161   12.4810 O   0  0  0  0  0  0  0  0  0  0  0  0
   12.2890  -14.6907   14.7587 C   0  0  0  0  0  0  0  0  0  0  0  0
   11.5724  -15.5566   15.7678 C   0  0  2  0  0  0  0  0  0  0  0  0
   10.2168  -15.8180   15.4031 N   0  0  0  0  0  0  0  0  0  0  0  0
   11.7123  -14.9806   17.1188 C   0  0  0  0  0  0  0  0  0  0  0  0
   12.8273  -14.4978   17.5230 O   0  0  0  0  0  0  0  0  0  0  0  0
    9.0629  -12.6466   18.3647 N   0  0  0  0  0  0  0  0  0  0  0  0
    8.5782  -13.3158   19.5315 C   0  0  0  0  0  0  0  0  0  0  0  0
    7.4154  -13.0493   19.9172 O   0  0  0  0  0  0  0  0  0  0  0  0
    9.4960  -14.2638   20.1783 C   0  0  0  0  0  0  0  0  0  0  0  0
   10.8170  -14.4345   19.4222 C   0  0  2  0  0  0  0  0  0  0  0  0
   10.6756  -14.8971   18.0887 N   0  0  0  0  0  0  0  0  0  0  0  0
   11.7217  -15.1891   20.2902 C   0  0  0  0  0  0  0  0  0  0  0  0
   11.6187  -16.4576   20.2139 O   0  0  0  0  0  0  0  0  0  0  0  0
   12.6606  -14.6516   21.1685 N   0  0  0  0  0  0  0  0  0  0  0  0
   13.6547  -15.5575   21.7803 C   0  0  1  0  0  0  0  0  0  0  0  0
   14.9723  -14.8779   21.9007 C   0  0  0  0  0  0  0  0  0  0  0  0
   15.9966  -15.7663   22.5092 C   0  0  0  0  0  0  0  0  0  0  0  0
   17.3855  -15.2235   22.3183 C   0  0  0  0  0  0  0  0  0  0  0  0
   17.6281  -14.1267   22.8752 O   0  0  0  0  0  0  0  0  0  0  0  0
   13.1484  -15.9415   23.1114 C   0  0  0  0  0  0  0  0  0  0  0  0
   13.7344  -17.0053   23.8342 O   0  0  0  0  0  0  0  0  0  0  0  0
   18.3661  -15.8412   21.5940 O   0  0  0  0  0  0  0  0  0  0  0  0
   12.1969  -15.3853   23.6954 O   0  0  0  0  0  0  0  0  0  0  0  0
  2  1  1  0
  2  4  1  0
  3  2  2  0
  5  4  1  0
  5  6  1  6
  7  5  1  0
  8  7  2  0
  9 10  1  0
 10 12  1  0
 11 10  2  0
 13 12  1  1
 13 14  1  0
 14  7  1  0
 15 13  1  0
 15 16  2  0
 17 15  1  0
 18 17  1  0
 19 20  1  0
 18 19  1  1
 20 21  1  0
 21 25  1  0
 21 22  2  0
 23 18  1  0
 24 23  1  0
 26 23  2  0
M  END
$$$$
