NNE.pdb
     RDKit          3D

 26 25  0  0  1  0  0  0  0  0999 V2000
    7.1526  -16.4807   12.4976 N   0  0  0  0  0  0  0  0  0  0  0  0
    8.1626  -15.5469   12.7944 C   0  0  0  0  0  0  0  0  0  0  0  0
    7.9509  -14.3329   12.5510 O   0  0  0  0  0  0  0  0  0  0  0  0
    9.4604  -15.9629   13.3800 C   0  0  0  0  0  0  0  0  0  0  0  0
    9.3071  -16.6177   14.7325 C   0  0  2  0  0  0  0  0  0  0  0  0
    8.0640  -17.3061   14.8719 N   0  0  0  0  0  0  0  0  0  0  0  0
    9.5512  -15.6318   15.8026 C   0  0  0  0  0  0  0  0  0  0  0  0
   10.6609  -14.9977   15.8813 O   0  0  0  0  0  0  0  0  0  0  0  0
    8.1840  -11.7072   19.5514 N   0  0  0  0  0  0  0  0  0  0  0  0
    7.9448  -13.0903   19.8230 C   0  0  0  0  0  0  0  0  0  0  0  0
    8.0125  -13.4719   21.0153 O   0  0  0  0  0  0  0  0  0  0  0  0
    7.6389  -13.9467   18.6687 C   0  0  0  0  0  0  0  0  0  0  0  0
    8.8900  -14.4347   17.9323 C   0  0  2  0  0  0  0  0  0  0  0  0
    8.6279  -15.2842   16.8269 N   0  0  0  0  0  0  0  0  0  0  0  0
    9.8232  -14.9348   18.9424 C   0  0  0  0  0  0  0  0  0  0  0  0
    9.6810  -16.1624   19.2558 O   0  0  0  0  0  0  0  0  0  0  0  0
   10.8266  -14.2014   19.5726 N   0  0  0  0  0  0  0  0  0  0  0  0
   11.8997  -14.9334   20.2770 C   0  0  1  0  0  0  0  0  0  0  0  0
   13.1968  -14.2199   20.1326 C   0  0  0  0  0  0  0  0  0  0  0  0
   14.3262  -15.0138   20.6829 C   0  0  0  0  0  0  0  0  0  0  0  0
   15.6517  -14.3651   20.3960 C   0  0  0  0  0  0  0  0  0  0  0  0
   16.0492  -14.4292   19.2086 O   0  0  0  0  0  0  0  0  0  0  0  0
   11.5172  -15.0265   21.6984 C   0  0  0  0  0  0  0  0  0  0  0  0
   12.2107  -15.8816   22.5846 O   0  0  0  0  0  0  0  0  0  0  0  0
   16.4219  -13.7301   21.3294 O   0  0  0  0  0  0  0  0  0  0  0  0
   10.5857  -14.3857   22.2252 O   0  0  0  0  0  0  0  0  0  0  0  0
  2  1  1  0
  2  4  1  0
  3  2  2  0
  5  4  1  0
  5  6  1  1
  7  5  1  0
  8  7  2  0
  9 10  1  0
 10 12  1  0
 11 10  2  0
 13 12  1  1
 13 14  1  0
 14  7  1  0
 15 13  1  0
 15 16  2  0
 17 15  1  0
 18 17  1  0
 19 20  1  0
 18 19  1  1
 20 21  1  0
 21 25  1  0
 21 22  2  0
 23 18  1  0
 24 23  1  0
 26 23  2  0
M  END
$$$$
