NNE.pdb
     RDKit          3D

 26 25  0  0  1  0  0  0  0  0999 V2000
   10.4631  -16.5940   17.8810 N   0  0  0  0  0  0  0  0  0  0  0  0
    9.2408  -16.0818   18.3538 C   0  0  0  0  0  0  0  0  0  0  0  0
    8.4960  -15.4645   17.5525 O   0  0  0  0  0  0  0  0  0  0  0  0
    8.8193  -16.2513   19.7659 C   0  0  0  0  0  0  0  0  0  0  0  0
    9.8542  -16.9666   20.6019 C   0  0  2  0  0  0  0  0  0  0  0  0
   10.2567  -18.2118   20.0307 N   0  0  0  0  0  0  0  0  0  0  0  0
    9.3832  -17.0888   21.9946 C   0  0  0  0  0  0  0  0  0  0  0  0
    9.0932  -16.0541   22.6911 O   0  0  0  0  0  0  0  0  0  0  0  0
    6.4548  -19.6572   26.1534 N   0  0  0  0  0  0  0  0  0  0  0  0
    7.8099  -19.9472   25.8014 C   0  0  0  0  0  0  0  0  0  0  0  0
    8.5905  -20.2940   26.7190 O   0  0  0  0  0  0  0  0  0  0  0  0
    8.1673  -19.8106   24.3825 C   0  0  0  0  0  0  0  0  0  0  0  0
    8.7702  -18.4445   24.0421 C   0  0  2  0  0  0  0  0  0  0  0  0
    9.2040  -18.3117   22.6980 N   0  0  0  0  0  0  0  0  0  0  0  0
    9.7460  -18.1264   25.0851 C   0  0  0  0  0  0  0  0  0  0  0  0
   10.9106  -18.6148   24.9094 O   0  0  0  0  0  0  0  0  0  0  0  0
    9.5149  -17.3554   26.2226 N   0  0  0  0  0  0  0  0  0  0  0  0
   10.6656  -16.9946   27.0766 C   0  0  1  0  0  0  0  0  0  0  0  0
   10.6419  -15.5416   27.3937 C   0  0  0  0  0  0  0  0  0  0  0  0
    9.3905  -15.1509   28.0936 C   0  0  0  0  0  0  0  0  0  0  0  0
    9.3386  -13.6709   28.3525 C   0  0  0  0  0  0  0  0  0  0  0  0
   10.4090  -13.0436   28.1713 O   0  0  0  0  0  0  0  0  0  0  0  0
   10.5717  -17.7942   28.3124 C   0  0  0  0  0  0  0  0  0  0  0  0
    9.4801  -18.6637   28.5360 O   0  0  0  0  0  0  0  0  0  0  0  0
    8.2239  -12.9944   28.7615 O   0  0  0  0  0  0  0  0  0  0  0  0
   11.4123  -17.7763   29.2338 O   0  0  0  0  0  0  0  0  0  0  0  0
  2  1  1  0
  2  4  1  0
  3  2  2  0
  5  4  1  0
  5  6  1  6
  7  5  1  0
  8  7  2  0
  9 10  1  0
 10 12  1  0
 11 10  2  0
 13 12  1  1
 13 14  1  0
 14  7  1  0
 15 13  1  0
 15 16  2  0
 17 15  1  0
 18 17  1  0
 19 20  1  0
 18 19  1  1
 20 21  1  0
 21 25  1  0
 21 22  2  0
 23 18  1  0
 24 23  1  0
 26 23  2  0
M  END
$$$$
