NNE.pdb
     RDKit          3D

 26 25  0  0  1  0  0  0  0  0999 V2000
   11.7885  -18.0173   13.2592 N   0  0  0  0  0  0  0  0  0  0  0  0
   12.1186  -16.6544   13.1428 C   0  0  0  0  0  0  0  0  0  0  0  0
   12.8822  -16.2970   12.2116 O   0  0  0  0  0  0  0  0  0  0  0  0
   11.5914  -15.6416   14.0895 C   0  0  0  0  0  0  0  0  0  0  0  0
   11.1519  -16.2438   15.4032 C   0  0  2  0  0  0  0  0  0  0  0  0
   10.1041  -17.2009   15.2456 N   0  0  0  0  0  0  0  0  0  0  0  0
   10.8254  -15.1745   16.3659 C   0  0  0  0  0  0  0  0  0  0  0  0
   11.7441  -14.4715   16.9149 O   0  0  0  0  0  0  0  0  0  0  0  0
    8.4779  -12.1062   19.7200 N   0  0  0  0  0  0  0  0  0  0  0  0
    7.3705  -12.8018   19.1421 C   0  0  0  0  0  0  0  0  0  0  0  0
    6.2187  -12.4858   19.5231 O   0  0  0  0  0  0  0  0  0  0  0  0
    7.6866  -13.8339   18.1448 C   0  0  0  0  0  0  0  0  0  0  0  0
    9.1878  -13.9686   17.8725 C   0  0  2  0  0  0  0  0  0  0  0  0
    9.5139  -14.8139   16.7810 N   0  0  0  0  0  0  0  0  0  0  0  0
    9.8383  -14.2601   19.1504 C   0  0  0  0  0  0  0  0  0  0  0  0
    9.6750  -13.3801   20.0585 O   0  0  0  0  0  0  0  0  0  0  0  0
   10.5999  -15.3880   19.4493 N   0  0  0  0  0  0  0  0  0  0  0  0
   11.1750  -15.5127   20.8048 C   0  0  1  0  0  0  0  0  0  0  0  0
   10.9585  -16.8846   21.3371 C   0  0  0  0  0  0  0  0  0  0  0  0
   11.8466  -17.8775   20.6783 C   0  0  0  0  0  0  0  0  0  0  0  0
   11.6480  -19.2579   21.2399 C   0  0  0  0  0  0  0  0  0  0  0  0
   11.2735  -19.3161   22.4350 O   0  0  0  0  0  0  0  0  0  0  0  0
   12.6171  -15.2190   20.7060 C   0  0  0  0  0  0  0  0  0  0  0  0
   13.2469  -15.0777   19.4487 O   0  0  0  0  0  0  0  0  0  0  0  0
   11.8473  -20.4150   20.5406 O   0  0  0  0  0  0  0  0  0  0  0  0
   13.3796  -15.0748   21.6825 O   0  0  0  0  0  0  0  0  0  0  0  0
  2  1  1  0
  2  4  1  0
  3  2  2  0
  5  4  1  0
  5  6  1  6
  7  5  1  0
  8  7  2  0
  9 10  1  0
 10 12  1  0
 11 10  2  0
 13 12  1  1
 13 14  1  0
 14  7  1  0
 15 13  1  0
 15 16  2  0
 17 15  1  0
 18 17  1  0
 19 20  1  0
 18 19  1  6
 20 21  1  0
 21 25  1  0
 21 22  2  0
 23 18  1  0
 24 23  1  0
 26 23  2  0
M  END
$$$$
