NNE.pdb
     RDKit          3D

 26 25  0  0  1  0  0  0  0  0999 V2000
    7.5630  -18.5145   18.1375 N   0  0  0  0  0  0  0  0  0  0  0  0
    6.4719  -17.6922   18.4740 C   0  0  0  0  0  0  0  0  0  0  0  0
    5.3929  -17.8368   17.8474 O   0  0  0  0  0  0  0  0  0  0  0  0
    6.5696  -16.6662   19.5408 C   0  0  0  0  0  0  0  0  0  0  0  0
    7.9790  -16.4921   20.0555 C   0  0  2  0  0  0  0  0  0  0  0  0
    8.5801  -17.7288   20.4402 N   0  0  0  0  0  0  0  0  0  0  0  0
    8.0057  -15.4737   21.1227 C   0  0  0  0  0  0  0  0  0  0  0  0
    7.3419  -14.3837   21.0177 O   0  0  0  0  0  0  0  0  0  0  0  0
    7.7992  -13.2724   25.6345 N   0  0  0  0  0  0  0  0  0  0  0  0
    6.7364  -14.1154   25.1828 C   0  0  0  0  0  0  0  0  0  0  0  0
    5.6385  -14.0442   25.7838 O   0  0  0  0  0  0  0  0  0  0  0  0
    7.0310  -14.9969   24.0445 C   0  0  0  0  0  0  0  0  0  0  0  0
    8.4689  -14.8620   23.5345 C   0  0  2  0  0  0  0  0  0  0  0  0
    8.7376  -15.5746   22.3378 N   0  0  0  0  0  0  0  0  0  0  0  0
    9.3591  -15.1157   24.6679 C   0  0  0  0  0  0  0  0  0  0  0  0
    9.1828  -14.3599   25.6794 O   0  0  0  0  0  0  0  0  0  0  0  0
   10.3554  -16.0877   24.7320 N   0  0  0  0  0  0  0  0  0  0  0  0
   10.5705  -16.7950   26.0115 C   0  0  1  0  0  0  0  0  0  0  0  0
    9.6428  -17.9517   26.1283 C   0  0  0  0  0  0  0  0  0  0  0  0
    9.8668  -18.7126   27.3851 C   0  0  0  0  0  0  0  0  0  0  0  0
    9.0456  -19.9712   27.4253 C   0  0  0  0  0  0  0  0  0  0  0  0
    9.1031  -20.6308   28.4900 O   0  0  0  0  0  0  0  0  0  0  0  0
   11.9723  -17.2529   26.0377 C   0  0  0  0  0  0  0  0  0  0  0  0
   12.8150  -17.0828   24.9158 O   0  0  0  0  0  0  0  0  0  0  0  0
    8.2653  -20.4206   26.3973 O   0  0  0  0  0  0  0  0  0  0  0  0
   12.5184  -17.8086   27.0117 O   0  0  0  0  0  0  0  0  0  0  0  0
  2  1  1  0
  2  4  1  0
  3  2  2  0
  5  4  1  0
  5  6  1  1
  7  5  1  0
  8  7  2  0
  9 10  1  0
 10 12  1  0
 11 10  2  0
 13 12  1  1
 13 14  1  0
 14  7  1  0
 15 13  1  0
 15 16  2  0
 17 15  1  0
 18 17  1  0
 19 20  1  0
 18 19  1  6
 20 21  1  0
 21 25  1  0
 21 22  2  0
 23 18  1  0
 24 23  1  0
 26 23  2  0
M  END
$$$$
