NNE.pdb
     RDKit          3D

 26 25  0  0  1  0  0  0  0  0999 V2000
    8.8529  -14.7125   10.7043 N   0  0  0  0  0  0  0  0  0  0  0  0
    9.6463  -15.3376   11.6841 C   0  0  0  0  0  0  0  0  0  0  0  0
   10.2202  -16.4171   11.3957 O   0  0  0  0  0  0  0  0  0  0  0  0
    9.8145  -14.7554   13.0379 C   0  0  0  0  0  0  0  0  0  0  0  0
    9.4136  -15.7101   14.1377 C   0  0  2  0  0  0  0  0  0  0  0  0
    8.0895  -16.2173   13.9691 N   0  0  0  0  0  0  0  0  0  0  0  0
    9.6356  -15.0856   15.4557 C   0  0  0  0  0  0  0  0  0  0  0  0
   10.8104  -14.7586   15.8466 O   0  0  0  0  0  0  0  0  0  0  0  0
    8.0383  -11.9199   19.8463 N   0  0  0  0  0  0  0  0  0  0  0  0
    7.7872  -13.3261   19.7863 C   0  0  0  0  0  0  0  0  0  0  0  0
    7.7960  -13.9677   20.8634 O   0  0  0  0  0  0  0  0  0  0  0  0
    7.5397  -13.8966   18.4548 C   0  0  0  0  0  0  0  0  0  0  0  0
    8.8256  -14.2641   17.7084 C   0  0  2  0  0  0  0  0  0  0  0  0
    8.6205  -14.7868   16.4058 N   0  0  0  0  0  0  0  0  0  0  0  0
    9.6449  -15.0643   18.6193 C   0  0  0  0  0  0  0  0  0  0  0  0
    9.8707  -16.2607   18.2410 O   0  0  0  0  0  0  0  0  0  0  0  0
   10.1841  -14.6392   19.8319 N   0  0  0  0  0  0  0  0  0  0  0  0
   11.4547  -15.2395   20.2886 C   0  0  1  0  0  0  0  0  0  0  0  0
   12.5995  -14.6789   19.5221 C   0  0  0  0  0  0  0  0  0  0  0  0
   13.8908  -15.2849   19.9388 C   0  0  0  0  0  0  0  0  0  0  0  0
   15.0551  -14.6528   19.2282 C   0  0  0  0  0  0  0  0  0  0  0  0
   15.6826  -13.7785   19.8717 O   0  0  0  0  0  0  0  0  0  0  0  0
   11.5989  -14.9389   21.7254 C   0  0  0  0  0  0  0  0  0  0  0  0
   10.6389  -14.1554   22.4053 O   0  0  0  0  0  0  0  0  0  0  0  0
   15.4535  -14.9694   17.9599 O   0  0  0  0  0  0  0  0  0  0  0  0
   12.5418  -15.3324   22.4408 O   0  0  0  0  0  0  0  0  0  0  0  0
  2  1  1  0
  2  4  1  0
  3  2  2  0
  5  4  1  0
  5  6  1  6
  7  5  1  0
  8  7  2  0
  9 10  1  0
 10 12  1  0
 11 10  2  0
 13 12  1  1
 13 14  1  0
 14  7  1  0
 15 13  1  0
 15 16  2  0
 17 15  1  0
 18 17  1  0
 19 20  1  0
 18 19  1  6
 20 21  1  0
 21 25  1  0
 21 22  2  0
 23 18  1  0
 24 23  1  0
 26 23  2  0
M  END
$$$$
