NNE.pdb
     RDKit          3D

 26 25  0  0  1  0  0  0  0  0999 V2000
    8.9433  -18.9516   16.8433 N   0  0  0  0  0  0  0  0  0  0  0  0
    9.1851  -17.6567   17.3382 C   0  0  0  0  0  0  0  0  0  0  0  0
    9.3358  -16.7170   16.5183 O   0  0  0  0  0  0  0  0  0  0  0  0
    9.2679  -17.3819   18.7934 C   0  0  0  0  0  0  0  0  0  0  0  0
    9.0958  -18.6257   19.6329 C   0  0  2  0  0  0  0  0  0  0  0  0
    8.0223  -19.4506   19.1791 N   0  0  0  0  0  0  0  0  0  0  0  0
    8.9901  -18.2631   21.0591 C   0  0  0  0  0  0  0  0  0  0  0  0
    9.7986  -17.4261   21.5934 O   0  0  0  0  0  0  0  0  0  0  0  0
    6.9421  -19.2977   26.2342 N   0  0  0  0  0  0  0  0  0  0  0  0
    6.5217  -18.2245   25.3883 C   0  0  0  0  0  0  0  0  0  0  0  0
    6.1635  -17.1550   25.9357 O   0  0  0  0  0  0  0  0  0  0  0  0
    6.5479  -18.4755   23.9406 C   0  0  0  0  0  0  0  0  0  0  0  0
    7.9649  -18.5066   23.3602 C   0  0  2  0  0  0  0  0  0  0  0  0
    8.0245  -18.7755   21.9687 N   0  0  0  0  0  0  0  0  0  0  0  0
    8.7747  -19.3580   24.2324 C   0  0  0  0  0  0  0  0  0  0  0  0
    8.7809  -20.5970   23.9317 O   0  0  0  0  0  0  0  0  0  0  0  0
    9.5190  -18.9389   25.3333 N   0  0  0  0  0  0  0  0  0  0  0  0
   10.6802  -19.7517   25.7512 C   0  0  1  0  0  0  0  0  0  0  0  0
   11.8989  -19.3391   25.0051 C   0  0  0  0  0  0  0  0  0  0  0  0
   13.0792  -20.1601   25.3811 C   0  0  0  0  0  0  0  0  0  0  0  0
   14.3218  -19.7042   24.6683 C   0  0  0  0  0  0  0  0  0  0  0  0
   14.9334  -18.7425   25.1909 O   0  0  0  0  0  0  0  0  0  0  0  0
   10.8684  -19.5486   27.1999 C   0  0  0  0  0  0  0  0  0  0  0  0
   10.0444  -18.6568   27.9233 O   0  0  0  0  0  0  0  0  0  0  0  0
   14.8050  -20.2632   23.5186 O   0  0  0  0  0  0  0  0  0  0  0  0
   11.7357  -20.1217   27.8893 O   0  0  0  0  0  0  0  0  0  0  0  0
  2  1  1  0
  2  4  1  0
  3  2  2  0
  5  4  1  0
  5  6  1  6
  7  5  1  0
  8  7  2  0
  9 10  1  0
 10 12  1  0
 11 10  2  0
 13 12  1  1
 13 14  1  0
 14  7  1  0
 15 13  1  0
 15 16  2  0
 17 15  1  0
 18 17  1  0
 19 20  1  0
 18 19  1  6
 20 21  1  0
 21 25  1  0
 21 22  2  0
 23 18  1  0
 24 23  1  0
 26 23  2  0
M  END
$$$$
