NNE.pdb
     RDKit          3D

 26 25  0  0  1  0  0  0  0  0999 V2000
    7.3245  -12.5350   18.3680 N   0  0  0  0  0  0  0  0  0  0  0  0
    7.8669  -13.6798   17.7554 C   0  0  0  0  0  0  0  0  0  0  0  0
    7.1948  -14.2648   16.8701 O   0  0  0  0  0  0  0  0  0  0  0  0
    9.2014  -14.2064   18.1322 C   0  0  0  0  0  0  0  0  0  0  0  0
    9.1219  -15.5164   18.8800 C   0  0  2  0  0  0  0  0  0  0  0  0
    8.0197  -16.3219   18.4615 N   0  0  0  0  0  0  0  0  0  0  0  0
    9.1460  -15.2709   20.3346 C   0  0  0  0  0  0  0  0  0  0  0  0
   10.0964  -14.6092   20.8811 O   0  0  0  0  0  0  0  0  0  0  0  0
    6.1327  -17.9668   24.0883 N   0  0  0  0  0  0  0  0  0  0  0  0
    6.1281  -16.9042   23.1318 C   0  0  0  0  0  0  0  0  0  0  0  0
    5.4138  -17.0405   22.1105 O   0  0  0  0  0  0  0  0  0  0  0  0
    6.9694  -15.7383   23.4358 C   0  0  0  0  0  0  0  0  0  0  0  0
    8.2974  -15.7383   22.6727 C   0  0  2  0  0  0  0  0  0  0  0  0
    8.1641  -15.7190   21.2606 N   0  0  0  0  0  0  0  0  0  0  0  0
    9.1279  -16.7997   23.2429 C   0  0  0  0  0  0  0  0  0  0  0  0
    9.1237  -17.9003   22.5994 O   0  0  0  0  0  0  0  0  0  0  0  0
    9.9015  -16.7100   24.3984 N   0  0  0  0  0  0  0  0  0  0  0  0
   11.1451  -17.5040   24.4788 C   0  0  1  0  0  0  0  0  0  0  0  0
   12.2051  -16.8969   23.6301 C   0  0  0  0  0  0  0  0  0  0  0  0
   13.4802  -16.7323   24.3754 C   0  0  0  0  0  0  0  0  0  0  0  0
   14.6543  -16.6064   23.4448 C   0  0  0  0  0  0  0  0  0  0  0  0
   14.8084  -15.4862   22.9032 O   0  0  0  0  0  0  0  0  0  0  0  0
   11.5670  -17.5300   25.8919 C   0  0  0  0  0  0  0  0  0  0  0  0
   12.4929  -18.4909   26.3578 O   0  0  0  0  0  0  0  0  0  0  0  0
   15.5340  -17.6145   23.1664 O   0  0  0  0  0  0  0  0  0  0  0  0
   11.1619  -16.7392   26.7673 O   0  0  0  0  0  0  0  0  0  0  0  0
  2  1  1  0
  2  4  1  0
  3  2  2  0
  5  4  1  0
  5  6  1  1
  7  5  1  0
  8  7  2  0
  9 10  1  0
 10 12  1  0
 11 10  2  0
 13 12  1  1
 13 14  1  0
 14  7  1  0
 15 13  1  0
 15 16  2  0
 17 15  1  0
 18 17  1  0
 19 20  1  0
 18 19  1  6
 20 21  1  0
 21 25  1  0
 21 22  2  0
 23 18  1  0
 24 23  1  0
 26 23  2  0
M  END
$$$$
