NNE.pdb
     RDKit          3D

 26 25  0  0  1  0  0  0  0  0999 V2000
    9.9088  -18.8579   14.9897 N   0  0  0  0  0  0  0  0  0  0  0  0
   10.6731  -17.6765   15.0068 C   0  0  0  0  0  0  0  0  0  0  0  0
   11.3009  -17.3502   13.9690 O   0  0  0  0  0  0  0  0  0  0  0  0
   10.7544  -16.8188   16.2143 C   0  0  0  0  0  0  0  0  0  0  0  0
   10.0300  -17.4107   17.4003 C   0  0  2  0  0  0  0  0  0  0  0  0
    8.6881  -17.7886   17.0918 N   0  0  0  0  0  0  0  0  0  0  0  0
   10.1285  -16.5019   18.5584 C   0  0  0  0  0  0  0  0  0  0  0  0
   11.2630  -16.0840   18.9804 O   0  0  0  0  0  0  0  0  0  0  0  0
    7.6812  -12.1441   19.9351 N   0  0  0  0  0  0  0  0  0  0  0  0
    7.4578  -13.5428   19.7399 C   0  0  0  0  0  0  0  0  0  0  0  0
    6.9394  -13.9062   18.6578 O   0  0  0  0  0  0  0  0  0  0  0  0
    7.8599  -14.4351   20.8361 C   0  0  0  0  0  0  0  0  0  0  0  0
    9.1098  -15.2596   20.5140 C   0  0  2  0  0  0  0  0  0  0  0  0
    9.0282  -16.0053   19.3100 N   0  0  0  0  0  0  0  0  0  0  0  0
    9.4687  -15.9984   21.7250 C   0  0  0  0  0  0  0  0  0  0  0  0
    8.7260  -16.9993   21.9933 O   0  0  0  0  0  0  0  0  0  0  0  0
   10.5255  -15.7073   22.5854 N   0  0  0  0  0  0  0  0  0  0  0  0
   10.7640  -16.6005   23.7381 C   0  0  1  0  0  0  0  0  0  0  0  0
   12.2197  -16.6984   24.0272 C   0  0  0  0  0  0  0  0  0  0  0  0
   13.0075  -16.9800   22.7990 C   0  0  0  0  0  0  0  0  0  0  0  0
   14.4527  -16.6019   22.9680 C   0  0  0  0  0  0  0  0  0  0  0  0
   15.2608  -17.5544   23.0760 O   0  0  0  0  0  0  0  0  0  0  0  0
   10.0446  -16.0365   24.8956 C   0  0  0  0  0  0  0  0  0  0  0  0
    9.9836  -16.7321   26.1245 O   0  0  0  0  0  0  0  0  0  0  0  0
   14.9180  -15.3176   23.0091 O   0  0  0  0  0  0  0  0  0  0  0  0
    9.4497  -14.9402   24.8949 O   0  0  0  0  0  0  0  0  0  0  0  0
  2  1  1  0
  2  4  1  0
  3  2  2  0
  5  4  1  0
  5  6  1  6
  7  5  1  0
  8  7  2  0
  9 10  1  0
 10 12  1  0
 11 10  2  0
 13 12  1  1
 13 14  1  0
 14  7  1  0
 15 13  1  0
 15 16  2  0
 17 15  1  0
 18 17  1  0
 19 20  1  0
 18 19  1  1
 20 21  1  0
 21 25  1  0
 21 22  2  0
 23 18  1  0
 24 23  1  0
 26 23  2  0
M  END
$$$$
