PWM.pdb
     RDKit          3D

 30 32  0  0  1  0  0  0  0  0999 V2000
   28.1326  -19.2910  -15.0110 N   0  0  0  0  0  0  0  0  0  0  0  0
   28.9120  -19.2271  -16.2546 C   0  0  0  0  0  0  0  0  0  0  0  0
   29.7027  -20.5233  -16.2738 C   0  0  0  0  0  0  0  0  0  0  0  0
   28.9471  -21.4283  -15.3271 C   0  0  0  0  0  0  0  0  0  0  0  0
   27.6773  -20.6705  -15.0735 C   0  0  1  0  0  0  0  0  0  0  0  0
   26.9983  -21.0785  -13.8237 C   0  0  0  0  0  0  0  0  0  0  0  0
   26.4473  -22.2048  -13.7881 O   0  0  0  0  0  0  0  0  0  0  0  0
   26.9510  -20.2557  -12.6888 N   0  0  0  0  0  0  0  0  0  0  0  0
   26.3976  -20.7044  -11.3861 C   0  0  1  0  0  0  0  0  0  0  0  0
   27.2081  -20.0905  -10.2833 C   0  0  0  0  0  0  0  0  0  0  0  0
   26.6875  -20.4595   -8.9627 C   0  0  0  0  0  0  0  0  0  0  0  0
   25.4906  -21.1400   -8.7180 C   0  0  0  0  0  0  0  0  0  0  0  0
   25.3577  -21.2631   -7.3924 N   0  0  0  0  0  0  0  0  0  0  0  0
   26.3919  -20.7056   -6.7627 C   0  0  0  0  0  0  0  0  0  0  0  0
   26.7379  -20.5591   -5.4253 C   0  0  0  0  0  0  0  0  0  0  0  0
   27.8898  -19.9253   -5.0444 C   0  0  0  0  0  0  0  0  0  0  0  0
   28.7442  -19.4109   -5.9985 C   0  0  0  0  0  0  0  0  0  0  0  0
   28.3905  -19.5621   -7.3277 C   0  0  0  0  0  0  0  0  0  0  0  0
   27.2280  -20.2018   -7.7112 C   0  0  0  0  0  0  0  0  0  0  0  0
   24.9717  -20.3503  -11.3872 C   0  0  0  0  0  0  0  0  0  0  0  0
   24.6593  -19.1553  -11.7031 O   0  0  0  0  0  0  0  0  0  0  0  0
   20.6652  -24.3985  -13.8713 C   0  0  0  0  0  0  0  0  0  0  0  0
   19.5733  -23.4789  -12.7473 S   0  0  0  0  0  0  0  0  0  0  0  0
   20.3737  -21.9153  -12.2341 C   0  0  0  0  0  0  0  0  0  0  0  0
   21.8138  -22.1660  -11.8495 C   0  0  0  0  0  0  0  0  0  0  0  0
   22.5163  -20.8870  -11.4454 C   0  0  2  0  0  0  0  0  0  0  0  0
   23.8855  -21.2000  -11.0759 N   0  0  0  0  0  0  0  0  0  0  0  0
   21.7755  -20.1284  -10.4367 C   0  0  0  0  0  0  0  0  0  0  0  0
   22.1548  -20.2213   -9.2219 O   0  0  0  0  0  0  0  0  0  0  0  0
   20.6867  -19.3050  -10.6629 O   0  0  0  0  0  0  0  0  0  0  0  0
  1  2  1  0
  3  2  1  0
  4  3  1  0
  5  4  1  0
  5  1  1  0
  6  7  2  0
  5  6  1  1
  8  6  1  0
  9  8  1  0
 10 11  1  0
  9 10  1  1
 11 12  2  0
 11 19  1  0
 12 13  1  0
 13 14  1  0
 14 15  2  0
 15 16  1  0
 17 16  2  0
 18 17  1  0
 19 18  2  0
 19 14  1  0
 20 27  1  0
 20  9  1  0
 21 20  2  0
 22 23  1  0
 23 24  1  0
 26 25  1  1
 25 24  1  0
 26 27  1  0
 28 26  1  0
 29 28  2  0
 30 28  1  0
M  END
$$$$
