PWM.pdb
     RDKit          3D

 30 32  0  0  1  0  0  0  0  0999 V2000
   22.4734  -26.9028  -16.0177 N   0  0  0  0  0  0  0  0  0  0  0  0
   22.1402  -27.6442  -17.2414 C   0  0  0  0  0  0  0  0  0  0  0  0
   20.6240  -27.6016  -17.3098 C   0  0  0  0  0  0  0  0  0  0  0  0
   20.2491  -26.4349  -16.4240 C   0  0  0  0  0  0  0  0  0  0  0  0
   21.5689  -25.7729  -16.1574 C   0  0  1  0  0  0  0  0  0  0  0  0
   21.5588  -24.9280  -14.9427 C   0  0  0  0  0  0  0  0  0  0  0  0
   21.7516  -25.4812  -13.8335 O   0  0  0  0  0  0  0  0  0  0  0  0
   21.3431  -23.5430  -14.9901 N   0  0  0  0  0  0  0  0  0  0  0  0
   21.2708  -22.6929  -13.7749 C   0  0  1  0  0  0  0  0  0  0  0  0
   21.5207  -21.2677  -14.1705 C   0  0  0  0  0  0  0  0  0  0  0  0
   21.4265  -20.3646  -13.0187 C   0  0  0  0  0  0  0  0  0  0  0  0
   21.9446  -20.6112  -11.7434 C   0  0  0  0  0  0  0  0  0  0  0  0
   21.6316  -19.5658  -10.9693 N   0  0  0  0  0  0  0  0  0  0  0  0
   20.9436  -18.6578  -11.6616 C   0  0  0  0  0  0  0  0  0  0  0  0
   20.3908  -17.4235  -11.3446 C   0  0  0  0  0  0  0  0  0  0  0  0
   19.7149  -16.6772  -12.2719 C   0  0  0  0  0  0  0  0  0  0  0  0
   19.5674  -17.1453  -13.5620 C   0  0  0  0  0  0  0  0  0  0  0  0
   20.1218  -18.3757  -13.8675 C   0  0  0  0  0  0  0  0  0  0  0  0
   20.8037  -19.1281  -12.9312 C   0  0  0  0  0  0  0  0  0  0  0  0
   19.9642  -22.9509  -13.1547 C   0  0  0  0  0  0  0  0  0  0  0  0
   18.9733  -23.1615  -13.9287 O   0  0  0  0  0  0  0  0  0  0  0  0
   18.9701  -24.7973   -7.1164 C   0  0  0  0  0  0  0  0  0  0  0  0
   17.2174  -24.7072   -7.5865 S   0  0  0  0  0  0  0  0  0  0  0  0
   17.0566  -24.0537   -9.2882 C   0  0  0  0  0  0  0  0  0  0  0  0
   18.4093  -23.6378   -9.8194 C   0  0  0  0  0  0  0  0  0  0  0  0
   18.3280  -23.1769  -11.2594 C   0  0  2  0  0  0  0  0  0  0  0  0
   19.6750  -22.9972  -11.7716 N   0  0  0  0  0  0  0  0  0  0  0  0
   17.4541  -22.0160  -11.4339 C   0  0  0  0  0  0  0  0  0  0  0  0
   16.2483  -22.2252  -11.7953 O   0  0  0  0  0  0  0  0  0  0  0  0
   17.8014  -20.6900  -11.2453 O   0  0  0  0  0  0  0  0  0  0  0  0
  1  2  1  0
  3  2  1  0
  4  3  1  0
  5  4  1  0
  5  1  1  0
  6  7  2  0
  5  6  1  1
  8  6  1  0
  9  8  1  0
 10 11  1  0
  9 10  1  6
 11 12  2  0
 11 19  1  0
 12 13  1  0
 13 14  1  0
 14 15  2  0
 15 16  1  0
 17 16  2  0
 18 17  1  0
 19 18  2  0
 19 14  1  0
 20 27  1  0
 20  9  1  0
 21 20  2  0
 22 23  1  0
 23 24  1  0
 26 25  1  1
 25 24  1  0
 26 27  1  0
 28 26  1  0
 29 28  2  0
 30 28  1  0
M  END
$$$$
