PWM.pdb
     RDKit          3D

 30 32  0  0  1  0  0  0  0  0999 V2000
   27.4215  -19.0644  -15.0634 N   0  0  0  0  0  0  0  0  0  0  0  0
   28.5407  -18.7208  -15.9508 C   0  0  0  0  0  0  0  0  0  0  0  0
   29.7247  -19.4808  -15.3799 C   0  0  0  0  0  0  0  0  0  0  0  0
   29.0928  -20.5703  -14.5433 C   0  0  0  0  0  0  0  0  0  0  0  0
   27.6438  -20.4947  -14.9252 C   0  0  1  0  0  0  0  0  0  0  0  0
   26.7453  -21.0916  -13.9123 C   0  0  0  0  0  0  0  0  0  0  0  0
   26.5104  -22.3220  -13.9788 O   0  0  0  0  0  0  0  0  0  0  0  0
   26.1536  -20.3346  -12.8905 N   0  0  0  0  0  0  0  0  0  0  0  0
   25.2755  -20.9262  -11.8496 C   0  0  1  0  0  0  0  0  0  0  0  0
   25.5534  -20.2442  -10.5428 C   0  0  0  0  0  0  0  0  0  0  0  0
   26.8199  -20.6968   -9.9576 C   0  0  0  0  0  0  0  0  0  0  0  0
   27.8090  -21.4308  -10.6197 C   0  0  0  0  0  0  0  0  0  0  0  0
   28.7915  -21.6697   -9.7437 N   0  0  0  0  0  0  0  0  0  0  0  0
   28.5022  -21.1375   -8.5563 C   0  0  0  0  0  0  0  0  0  0  0  0
   29.1618  -21.0965   -7.3346 C   0  0  0  0  0  0  0  0  0  0  0  0
   28.6234  -20.4654   -6.2458 C   0  0  0  0  0  0  0  0  0  0  0  0
   27.3932  -19.8469   -6.3431 C   0  0  0  0  0  0  0  0  0  0  0  0
   26.7445  -19.8934   -7.5644 C   0  0  0  0  0  0  0  0  0  0  0  0
   27.2886  -20.5304   -8.6625 C   0  0  0  0  0  0  0  0  0  0  0  0
   23.8958  -20.8032  -12.3394 C   0  0  0  0  0  0  0  0  0  0  0  0
   23.5402  -19.6815  -12.8299 O   0  0  0  0  0  0  0  0  0  0  0  0
   17.3575  -24.2943  -15.1597 C   0  0  0  0  0  0  0  0  0  0  0  0
   18.9370  -24.4688  -14.2790 S   0  0  0  0  0  0  0  0  0  0  0  0
   19.6145  -22.8184  -13.8719 C   0  0  0  0  0  0  0  0  0  0  0  0
   20.9819  -22.9545  -13.2422 C   0  0  0  0  0  0  0  0  0  0  0  0
   21.5823  -21.6049  -12.9095 C   0  0  2  0  0  0  0  0  0  0  0  0
   22.8997  -21.8064  -12.3325 N   0  0  0  0  0  0  0  0  0  0  0  0
   20.6895  -20.7712  -12.1035 C   0  0  0  0  0  0  0  0  0  0  0  0
   19.7989  -20.0888  -12.7115 O   0  0  0  0  0  0  0  0  0  0  0  0
   20.7072  -20.6407  -10.7261 O   0  0  0  0  0  0  0  0  0  0  0  0
  1  2  1  0
  3  2  1  0
  4  3  1  0
  5  4  1  0
  5  1  1  0
  6  7  2  0
  5  6  1  1
  8  6  1  0
  9  8  1  0
 10 11  1  0
  9 10  1  1
 11 12  2  0
 11 19  1  0
 12 13  1  0
 13 14  1  0
 14 15  2  0
 15 16  1  0
 17 16  2  0
 18 17  1  0
 19 18  2  0
 19 14  1  0
 20 27  1  0
 20  9  1  0
 21 20  2  0
 22 23  1  0
 23 24  1  0
 26 25  1  1
 25 24  1  0
 26 27  1  0
 28 26  1  0
 29 28  2  0
 30 28  1  0
M  END
$$$$
