PWM.pdb
     RDKit          3D

 30 32  0  0  1  0  0  0  0  0999 V2000
   27.2362  -19.3089  -13.7512 N   0  0  0  0  0  0  0  0  0  0  0  0
   28.1412  -19.1410  -14.8962 C   0  0  0  0  0  0  0  0  0  0  0  0
   29.3763  -19.9420  -14.5244 C   0  0  0  0  0  0  0  0  0  0  0  0
   28.8881  -20.8952  -13.4570 C   0  0  0  0  0  0  0  0  0  0  0  0
   27.3975  -20.7344  -13.5138 C   0  0  1  0  0  0  0  0  0  0  0  0
   26.7204  -21.1607  -12.2691 C   0  0  0  0  0  0  0  0  0  0  0  0
   26.8228  -22.3609  -11.9190 O   0  0  0  0  0  0  0  0  0  0  0  0
   25.9754  -20.2760  -11.4757 N   0  0  0  0  0  0  0  0  0  0  0  0
   25.3265  -20.6804  -10.2029 C   0  0  1  0  0  0  0  0  0  0  0  0
   25.7531  -19.7302   -9.1235 C   0  0  0  0  0  0  0  0  0  0  0  0
   27.0457  -20.1150   -8.5471 C   0  0  0  0  0  0  0  0  0  0  0  0
   28.0305  -20.8752   -9.1856 C   0  0  0  0  0  0  0  0  0  0  0  0
   29.0434  -21.0316   -8.3256 N   0  0  0  0  0  0  0  0  0  0  0  0
   28.7775  -20.4215   -7.1706 C   0  0  0  0  0  0  0  0  0  0  0  0
   29.4718  -20.2805   -5.9757 C   0  0  0  0  0  0  0  0  0  0  0  0
   28.9520  -19.5838   -4.9183 C   0  0  0  0  0  0  0  0  0  0  0  0
   27.7065  -18.9979   -5.0213 C   0  0  0  0  0  0  0  0  0  0  0  0
   27.0233  -19.1442   -6.2156 C   0  0  0  0  0  0  0  0  0  0  0  0
   27.5485  -19.8474   -7.2821 C   0  0  0  0  0  0  0  0  0  0  0  0
   23.8809  -20.7273  -10.4608 C   0  0  0  0  0  0  0  0  0  0  0  0
   23.4382  -20.0803  -11.4662 O   0  0  0  0  0  0  0  0  0  0  0  0
   19.3619  -24.1419   -7.0388 C   0  0  0  0  0  0  0  0  0  0  0  0
   18.5710  -24.0127   -8.6693 S   0  0  0  0  0  0  0  0  0  0  0  0
   19.3555  -22.6770   -9.6436 C   0  0  0  0  0  0  0  0  0  0  0  0
   20.8282  -22.5851   -9.3153 C   0  0  0  0  0  0  0  0  0  0  0  0
   21.5120  -21.4924  -10.1096 C   0  0  2  0  0  0  0  0  0  0  0  0
   22.9065  -21.4239   -9.7098 N   0  0  0  0  0  0  0  0  0  0  0  0
   20.8003  -20.2153  -10.0448 C   0  0  0  0  0  0  0  0  0  0  0  0
   21.1763  -19.3658   -9.1700 O   0  0  0  0  0  0  0  0  0  0  0  0
   19.7429  -19.8219  -10.8460 O   0  0  0  0  0  0  0  0  0  0  0  0
  1  2  1  0
  3  2  1  0
  4  3  1  0
  5  4  1  0
  5  1  1  0
  6  7  2  0
  5  6  1  1
  8  6  1  0
  9  8  1  0
 10 11  1  0
  9 10  1  1
 11 12  2  0
 11 19  1  0
 12 13  1  0
 13 14  1  0
 14 15  2  0
 15 16  1  0
 17 16  2  0
 18 17  1  0
 19 18  2  0
 19 14  1  0
 20 27  1  0
 20  9  1  0
 21 20  2  0
 22 23  1  0
 23 24  1  0
 26 25  1  1
 25 24  1  0
 26 27  1  0
 28 26  1  0
 29 28  2  0
 30 28  1  0
M  END
$$$$
