PWM.pdb
     RDKit          3D

 30 32  0  0  1  0  0  0  0  0999 V2000
   14.5518  -11.1666  -15.6606 N   0  0  0  0  0  0  0  0  0  0  0  0
   13.6753  -12.1547  -16.3037 C   0  0  0  0  0  0  0  0  0  0  0  0
   14.3084  -13.4948  -15.9742 C   0  0  0  0  0  0  0  0  0  0  0  0
   15.1805  -13.2037  -14.7738 C   0  0  0  0  0  0  0  0  0  0  0  0
   14.7621  -11.8183  -14.3779 C   0  0  1  0  0  0  0  0  0  0  0  0
   15.7808  -11.1141  -13.5682 C   0  0  0  0  0  0  0  0  0  0  0  0
   16.0122  -11.5346  -12.4092 O   0  0  0  0  0  0  0  0  0  0  0  0
   16.4892  -10.0031  -14.0488 N   0  0  0  0  0  0  0  0  0  0  0  0
   17.5626   -9.3304  -13.2743 C   0  0  1  0  0  0  0  0  0  0  0  0
   18.5890   -8.8044  -14.2334 C   0  0  0  0  0  0  0  0  0  0  0  0
   19.6428   -8.0576  -13.5384 C   0  0  0  0  0  0  0  0  0  0  0  0
   20.6040   -8.6062  -12.6836 C   0  0  0  0  0  0  0  0  0  0  0  0
   21.3646   -7.6027  -12.2313 N   0  0  0  0  0  0  0  0  0  0  0  0
   20.9575   -6.4391  -12.7384 C   0  0  0  0  0  0  0  0  0  0  0  0
   21.3876   -5.1258  -12.5975 C   0  0  0  0  0  0  0  0  0  0  0  0
   20.7718   -4.0920  -13.2500 C   0  0  0  0  0  0  0  0  0  0  0  0
   19.6930   -4.3394  -14.0747 C   0  0  0  0  0  0  0  0  0  0  0  0
   19.2725   -5.6508  -14.2083 C   0  0  0  0  0  0  0  0  0  0  0  0
   19.8944   -6.6934  -13.5495 C   0  0  0  0  0  0  0  0  0  0  0  0
   16.9085   -8.3151  -12.4377 C   0  0  0  0  0  0  0  0  0  0  0  0
   15.9569   -7.6443  -12.9572 O   0  0  0  0  0  0  0  0  0  0  0  0
   12.2994   -7.9607   -9.2014 C   0  0  0  0  0  0  0  0  0  0  0  0
   13.2013   -6.8397   -8.0919 S   0  0  0  0  0  0  0  0  0  0  0  0
   14.7108   -6.2182   -8.9189 C   0  0  0  0  0  0  0  0  0  0  0  0
   15.4603   -7.3595   -9.5672 C   0  0  0  0  0  0  0  0  0  0  0  0
   16.6198   -6.8638  -10.4053 C   0  0  2  0  0  0  0  0  0  0  0  0
   17.2166   -7.9933  -11.0960 N   0  0  0  0  0  0  0  0  0  0  0  0
   17.5672   -6.0538   -9.6385 C   0  0  0  0  0  0  0  0  0  0  0  0
   18.6622   -6.5993   -9.2755 O   0  0  0  0  0  0  0  0  0  0  0  0
   17.4004   -4.7341   -9.2573 O   0  0  0  0  0  0  0  0  0  0  0  0
  1  2  1  0
  3  2  1  0
  4  3  1  0
  5  4  1  0
  5  1  1  0
  6  7  2  0
  5  6  1  6
  8  6  1  0
  9  8  1  0
 10 11  1  0
  9 10  1  6
 11 12  2  0
 11 19  1  0
 12 13  1  0
 13 14  1  0
 14 15  2  0
 15 16  1  0
 17 16  2  0
 18 17  1  0
 19 18  2  0
 19 14  1  0
 20 27  1  0
 20  9  1  0
 21 20  2  0
 22 23  1  0
 23 24  1  0
 26 25  1  1
 25 24  1  0
 26 27  1  0
 28 26  1  0
 29 28  2  0
 30 28  1  0
M  END
$$$$
