PWM.pdb
     RDKit          3D

 30 32  0  0  1  0  0  0  0  0999 V2000
   26.3480  -24.6558  -17.1760 N   0  0  0  0  0  0  0  0  0  0  0  0
   26.4520  -25.9928  -17.7759 C   0  0  0  0  0  0  0  0  0  0  0  0
   27.7994  -25.9908  -18.4759 C   0  0  0  0  0  0  0  0  0  0  0  0
   28.5591  -24.8677  -17.8069 C   0  0  0  0  0  0  0  0  0  0  0  0
   27.6904  -24.5217  -16.6335 C   0  0  1  0  0  0  0  0  0  0  0  0
   27.9352  -23.1584  -16.1129 C   0  0  0  0  0  0  0  0  0  0  0  0
   28.9701  -22.9599  -15.4325 O   0  0  0  0  0  0  0  0  0  0  0  0
   27.0570  -22.0914  -16.3526 N   0  0  0  0  0  0  0  0  0  0  0  0
   27.3606  -20.6904  -15.9658 C   0  0  1  0  0  0  0  0  0  0  0  0
   27.1837  -19.8113  -17.1683 C   0  0  0  0  0  0  0  0  0  0  0  0
   27.3930  -18.3978  -16.8377 C   0  0  0  0  0  0  0  0  0  0  0  0
   28.6198  -17.7271  -16.8602 C   0  0  0  0  0  0  0  0  0  0  0  0
   28.3996  -16.4657  -16.4725 N   0  0  0  0  0  0  0  0  0  0  0  0
   27.1086  -16.2764  -16.2001 C   0  0  0  0  0  0  0  0  0  0  0  0
   26.3670  -15.1836  -15.7694 C   0  0  0  0  0  0  0  0  0  0  0  0
   25.0166  -15.2661  -15.5613 C   0  0  0  0  0  0  0  0  0  0  0  0
   24.3547  -16.4576  -15.7793 C   0  0  0  0  0  0  0  0  0  0  0  0
   25.1024  -17.5399  -16.2083 C   0  0  0  0  0  0  0  0  0  0  0  0
   26.4650  -17.4558  -16.4180 C   0  0  0  0  0  0  0  0  0  0  0  0
   26.4953  -20.3696  -14.8227 C   0  0  0  0  0  0  0  0  0  0  0  0
   26.8309  -19.3859  -14.0845 O   0  0  0  0  0  0  0  0  0  0  0  0
   19.6347  -18.5731  -12.6714 C   0  0  0  0  0  0  0  0  0  0  0  0
   20.4096  -20.1575  -13.1075 S   0  0  0  0  0  0  0  0  0  0  0  0
   22.1587  -20.1701  -12.5694 C   0  0  0  0  0  0  0  0  0  0  0  0
   23.0609  -20.5231  -13.7296 C   0  0  0  0  0  0  0  0  0  0  0  0
   24.5097  -20.6246  -13.3018 C   0  0  2  0  0  0  0  0  0  0  0  0
   25.3084  -21.0370  -14.4425 N   0  0  0  0  0  0  0  0  0  0  0  0
   24.6907  -21.4491  -12.1063 C   0  0  0  0  0  0  0  0  0  0  0  0
   24.1636  -21.0450  -11.0168 O   0  0  0  0  0  0  0  0  0  0  0  0
   25.3853  -22.6433  -12.0288 O   0  0  0  0  0  0  0  0  0  0  0  0
  1  2  1  0
  3  2  1  0
  4  3  1  0
  5  4  1  0
  5  1  1  0
  6  7  2  0
  5  6  1  6
  8  6  1  0
  9  8  1  0
 10 11  1  0
  9 10  1  6
 11 12  2  0
 11 19  1  0
 12 13  1  0
 13 14  1  0
 14 15  2  0
 15 16  1  0
 17 16  2  0
 18 17  1  0
 19 18  2  0
 19 14  1  0
 20 27  1  0
 20  9  1  0
 21 20  2  0
 22 23  1  0
 23 24  1  0
 26 25  1  6
 25 24  1  0
 26 27  1  0
 28 26  1  0
 29 28  2  0
 30 28  1  0
M  END
$$$$
