PWM.pdb
     RDKit          3D

 30 32  0  0  1  0  0  0  0  0999 V2000
   27.2817  -18.7847  -14.2370 N   0  0  0  0  0  0  0  0  0  0  0  0
   28.3257  -18.4224  -15.2049 C   0  0  0  0  0  0  0  0  0  0  0  0
   29.4689  -19.3755  -14.9043 C   0  0  0  0  0  0  0  0  0  0  0  0
   28.8118  -20.5119  -14.1540 C   0  0  0  0  0  0  0  0  0  0  0  0
   27.3480  -20.2342  -14.3306 C   0  0  1  0  0  0  0  0  0  0  0  0
   26.5060  -20.8868  -13.3036 C   0  0  0  0  0  0  0  0  0  0  0  0
   26.2650  -22.1119  -13.4247 O   0  0  0  0  0  0  0  0  0  0  0  0
   25.9739  -20.1879  -12.2103 N   0  0  0  0  0  0  0  0  0  0  0  0
   25.1829  -20.8431  -11.1380 C   0  0  1  0  0  0  0  0  0  0  0  0
   25.5422  -20.2146   -9.8243 C   0  0  0  0  0  0  0  0  0  0  0  0
   26.9464  -20.4571   -9.4774 C   0  0  0  0  0  0  0  0  0  0  0  0
   27.8516  -21.2194  -10.2225 C   0  0  0  0  0  0  0  0  0  0  0  0
   29.0169  -21.2222   -9.5653 N   0  0  0  0  0  0  0  0  0  0  0  0
   28.9246  -20.5105   -8.4420 C   0  0  0  0  0  0  0  0  0  0  0  0
   29.8171  -20.2018   -7.4232 C   0  0  0  0  0  0  0  0  0  0  0  0
   29.4509  -19.4299   -6.3538 C   0  0  0  0  0  0  0  0  0  0  0  0
   28.1654  -18.9349   -6.2660 C   0  0  0  0  0  0  0  0  0  0  0  0
   27.2842  -19.2480   -7.2859 C   0  0  0  0  0  0  0  0  0  0  0  0
   27.6546  -20.0270   -8.3646 C   0  0  0  0  0  0  0  0  0  0  0  0
   23.7697  -20.7261  -11.5226 C   0  0  0  0  0  0  0  0  0  0  0  0
   22.8918  -20.9983  -10.6391 O   0  0  0  0  0  0  0  0  0  0  0  0
   21.5006  -16.7588  -15.9716 C   0  0  0  0  0  0  0  0  0  0  0  0
   19.9613  -17.6941  -15.7334 S   0  0  0  0  0  0  0  0  0  0  0  0
   20.1665  -18.9064  -14.3780 C   0  0  0  0  0  0  0  0  0  0  0  0
   21.6335  -19.1820  -14.1397 C   0  0  0  0  0  0  0  0  0  0  0  0
   21.8400  -20.2126  -13.0499 C   0  0  2  0  0  0  0  0  0  0  0  0
   23.2622  -20.3352  -12.7829 N   0  0  0  0  0  0  0  0  0  0  0  0
   21.1661  -21.4803  -13.3344 C   0  0  0  0  0  0  0  0  0  0  0  0
   21.7762  -22.3300  -14.0652 O   0  0  0  0  0  0  0  0  0  0  0  0
   19.9141  -21.8641  -12.8874 O   0  0  0  0  0  0  0  0  0  0  0  0
  1  2  1  0
  3  2  1  0
  4  3  1  0
  5  4  1  0
  5  1  1  0
  6  7  2  0
  5  6  1  1
  8  6  1  0
  9  8  1  0
 10 11  1  0
  9 10  1  1
 11 12  2  0
 11 19  1  0
 12 13  1  0
 13 14  1  0
 14 15  2  0
 15 16  1  0
 17 16  2  0
 18 17  1  0
 19 18  2  0
 19 14  1  0
 20 27  1  0
 20  9  1  0
 21 20  2  0
 22 23  1  0
 23 24  1  0
 26 25  1  6
 25 24  1  0
 26 27  1  0
 28 26  1  0
 29 28  2  0
 30 28  1  0
M  END
$$$$
