PWM.pdb
     RDKit          3D

 30 32  0  0  1  0  0  0  0  0999 V2000
   26.7865  -23.2674  -16.2482 N   0  0  0  0  0  0  0  0  0  0  0  0
   26.8847  -23.8507  -17.5930 C   0  0  0  0  0  0  0  0  0  0  0  0
   27.3640  -22.7066  -18.4687 C   0  0  0  0  0  0  0  0  0  0  0  0
   27.9762  -21.7282  -17.4920 C   0  0  0  0  0  0  0  0  0  0  0  0
   28.0284  -22.5118  -16.2136 C   0  0  1  0  0  0  0  0  0  0  0  0
   28.1124  -21.6542  -15.0107 C   0  0  0  0  0  0  0  0  0  0  0  0
   29.1265  -20.9297  -14.8681 O   0  0  0  0  0  0  0  0  0  0  0  0
   27.1057  -21.6248  -14.0346 N   0  0  0  0  0  0  0  0  0  0  0  0
   26.7635  -20.4045  -13.2611 C   0  0  1  0  0  0  0  0  0  0  0  0
   25.6228  -19.7084  -13.9425 C   0  0  0  0  0  0  0  0  0  0  0  0
   26.0539  -18.4542  -14.5688 C   0  0  0  0  0  0  0  0  0  0  0  0
   27.3544  -17.9403  -14.5562 C   0  0  0  0  0  0  0  0  0  0  0  0
   27.3354  -16.7725  -15.2087 N   0  0  0  0  0  0  0  0  0  0  0  0
   26.1057  -16.4968  -15.6430 C   0  0  0  0  0  0  0  0  0  0  0  0
   25.5517  -15.4404  -16.3548 C   0  0  0  0  0  0  0  0  0  0  0  0
   24.2215  -15.4072  -16.6764 C   0  0  0  0  0  0  0  0  0  0  0  0
   23.3912  -16.4409  -16.2927 C   0  0  0  0  0  0  0  0  0  0  0  0
   23.9529  -17.4883  -15.5842 C   0  0  0  0  0  0  0  0  0  0  0  0
   25.2951  -17.5211  -15.2601 C   0  0  0  0  0  0  0  0  0  0  0  0
   26.4993  -20.8373  -11.8822 C   0  0  0  0  0  0  0  0  0  0  0  0
   25.8325  -21.9113  -11.7168 O   0  0  0  0  0  0  0  0  0  0  0  0
   28.2742  -20.2358   -4.2912 C   0  0  0  0  0  0  0  0  0  0  0  0
   27.7661  -19.2142   -5.7051 S   0  0  0  0  0  0  0  0  0  0  0  0
   26.8702  -20.2375   -6.9294 C   0  0  0  0  0  0  0  0  0  0  0  0
   27.2529  -19.8291   -8.3335 C   0  0  0  0  0  0  0  0  0  0  0  0
   26.5369  -20.6636   -9.3744 C   0  0  2  0  0  0  0  0  0  0  0  0
   26.9110  -20.1892  -10.6951 N   0  0  0  0  0  0  0  0  0  0  0  0
   25.0935  -20.7390   -9.1448 C   0  0  0  0  0  0  0  0  0  0  0  0
   24.3463  -19.9098   -9.7633 O   0  0  0  0  0  0  0  0  0  0  0  0
   24.4389  -21.6302   -8.3130 O   0  0  0  0  0  0  0  0  0  0  0  0
  1  2  1  0
  3  2  1  0
  4  3  1  0
  5  4  1  0
  5  1  1  0
  6  7  2  0
  5  6  1  1
  8  6  1  0
  9  8  1  0
 10 11  1  0
  9 10  1  6
 11 12  2  0
 11 19  1  0
 12 13  1  0
 13 14  1  0
 14 15  2  0
 15 16  1  0
 17 16  2  0
 18 17  1  0
 19 18  2  0
 19 14  1  0
 20 27  1  0
 20  9  1  0
 21 20  2  0
 22 23  1  0
 23 24  1  0
 26 25  1  1
 25 24  1  0
 26 27  1  0
 28 26  1  0
 29 28  2  0
 30 28  1  0
M  END
$$$$
