PWM.pdb
     RDKit          3D

 30 32  0  0  1  0  0  0  0  0999 V2000
   28.0796  -20.9065  -15.3621 N   0  0  0  0  0  0  0  0  0  0  0  0
   28.4859  -20.0625  -16.4937 C   0  0  0  0  0  0  0  0  0  0  0  0
   27.5948  -18.8373  -16.3924 C   0  0  0  0  0  0  0  0  0  0  0  0
   27.1217  -18.8452  -14.9563 C   0  0  0  0  0  0  0  0  0  0  0  0
   27.9829  -19.8965  -14.3206 C   0  0  1  0  0  0  0  0  0  0  0  0
   27.4014  -20.4484  -13.0770 C   0  0  0  0  0  0  0  0  0  0  0  0
   26.8917  -21.5939  -13.1176 O   0  0  0  0  0  0  0  0  0  0  0  0
   27.4011  -19.7402  -11.8663 N   0  0  0  0  0  0  0  0  0  0  0  0
   26.6943  -20.2159  -10.6503 C   0  0  1  0  0  0  0  0  0  0  0  0
   27.0926  -19.3483   -9.4933 C   0  0  0  0  0  0  0  0  0  0  0  0
   26.6363  -19.9092   -8.2173 C   0  0  0  0  0  0  0  0  0  0  0  0
   25.4835  -20.6782   -8.0292 C   0  0  0  0  0  0  0  0  0  0  0  0
   25.4023  -20.9756   -6.7273 N   0  0  0  0  0  0  0  0  0  0  0  0
   26.4287  -20.4483   -6.0599 C   0  0  0  0  0  0  0  0  0  0  0  0
   26.8127  -20.4548   -4.7249 C   0  0  0  0  0  0  0  0  0  0  0  0
   27.9443  -19.8141   -4.2976 C   0  0  0  0  0  0  0  0  0  0  0  0
   28.7392  -19.1378   -5.2009 C   0  0  0  0  0  0  0  0  0  0  0  0
   28.3480  -19.1375   -6.5282 C   0  0  0  0  0  0  0  0  0  0  0  0
   27.2059  -19.7842   -6.9585 C   0  0  0  0  0  0  0  0  0  0  0  0
   25.2598  -20.2173  -10.9676 C   0  0  0  0  0  0  0  0  0  0  0  0
   24.7388  -19.1204  -11.3558 O   0  0  0  0  0  0  0  0  0  0  0  0
   24.2584  -25.1109  -13.5931 C   0  0  0  0  0  0  0  0  0  0  0  0
   23.6612  -23.7563  -14.6464 S   0  0  0  0  0  0  0  0  0  0  0  0
   23.5795  -22.2020  -13.6840 C   0  0  0  0  0  0  0  0  0  0  0  0
   22.8377  -22.4279  -12.3865 C   0  0  0  0  0  0  0  0  0  0  0  0
   23.0244  -21.2723  -11.4261 C   0  0  2  0  0  0  0  0  0  0  0  0
   24.3749  -21.3174  -10.8940 N   0  0  0  0  0  0  0  0  0  0  0  0
   21.9747  -21.2067  -10.4084 C   0  0  0  0  0  0  0  0  0  0  0  0
   20.7713  -21.0465  -10.8012 O   0  0  0  0  0  0  0  0  0  0  0  0
   22.1502  -21.3016   -9.0391 O   0  0  0  0  0  0  0  0  0  0  0  0
  1  2  1  0
  3  2  1  0
  4  3  1  0
  5  4  1  0
  5  1  1  0
  6  7  2  0
  5  6  1  1
  8  6  1  0
  9  8  1  0
 10 11  1  0
  9 10  1  1
 11 12  2  0
 11 19  1  0
 12 13  1  0
 13 14  1  0
 14 15  2  0
 15 16  1  0
 17 16  2  0
 18 17  1  0
 19 18  2  0
 19 14  1  0
 20 27  1  0
 20  9  1  0
 21 20  2  0
 22 23  1  0
 23 24  1  0
 26 25  1  1
 25 24  1  0
 26 27  1  0
 28 26  1  0
 29 28  2  0
 30 28  1  0
M  END
$$$$
