PWM.pdb
     RDKit          3D

 30 32  0  0  1  0  0  0  0  0999 V2000
   26.7162  -17.1565  -17.9650 N   0  0  0  0  0  0  0  0  0  0  0  0
   27.7625  -16.2578  -18.4706 C   0  0  0  0  0  0  0  0  0  0  0  0
   28.8540  -16.3154  -17.4167 C   0  0  0  0  0  0  0  0  0  0  0  0
   28.5752  -17.5998  -16.6692 C   0  0  0  0  0  0  0  0  0  0  0  0
   27.5385  -18.2707  -17.5214 C   0  0  1  0  0  0  0  0  0  0  0  0
   26.7430  -19.2763  -16.7828 C   0  0  0  0  0  0  0  0  0  0  0  0
   26.5392  -20.3880  -17.3271 O   0  0  0  0  0  0  0  0  0  0  0  0
   26.2146  -19.0301  -15.5072 N   0  0  0  0  0  0  0  0  0  0  0  0
   25.7652  -20.1115  -14.5945 C   0  0  1  0  0  0  0  0  0  0  0  0
   26.3944  -19.8972  -13.2498 C   0  0  0  0  0  0  0  0  0  0  0  0
   26.0190  -20.9542  -12.3048 C   0  0  0  0  0  0  0  0  0  0  0  0
   26.1109  -22.3296  -12.5397 C   0  0  0  0  0  0  0  0  0  0  0  0
   25.6507  -22.9585  -11.4522 N   0  0  0  0  0  0  0  0  0  0  0  0
   25.2665  -22.0783  -10.5278 C   0  0  0  0  0  0  0  0  0  0  0  0
   24.7287  -22.1964   -9.2524 C   0  0  0  0  0  0  0  0  0  0  0  0
   24.4158  -21.0980   -8.4979 C   0  0  0  0  0  0  0  0  0  0  0  0
   24.6325  -19.8302   -8.9988 C   0  0  0  0  0  0  0  0  0  0  0  0
   25.1685  -19.7235  -10.2700 C   0  0  0  0  0  0  0  0  0  0  0  0
   25.4840  -20.8323  -11.0307 C   0  0  0  0  0  0  0  0  0  0  0  0
   24.2962  -20.0944  -14.6086 C   0  0  0  0  0  0  0  0  0  0  0  0
   23.7162  -18.9703  -14.4491 O   0  0  0  0  0  0  0  0  0  0  0  0
   19.9350  -25.2729  -15.7789 C   0  0  0  0  0  0  0  0  0  0  0  0
   19.2484  -23.6209  -16.0960 S   0  0  0  0  0  0  0  0  0  0  0  0
   19.8813  -22.4299  -14.8592 C   0  0  0  0  0  0  0  0  0  0  0  0
   21.3909  -22.4835  -14.8054 C   0  0  0  0  0  0  0  0  0  0  0  0
   21.9946  -21.1054  -14.6346 C   0  0  2  0  0  0  0  0  0  0  0  0
   23.4357  -21.2020  -14.7859 N   0  0  0  0  0  0  0  0  0  0  0  0
   21.5580  -20.4446  -13.4039 C   0  0  0  0  0  0  0  0  0  0  0  0
   22.1364  -20.7700  -12.3140 O   0  0  0  0  0  0  0  0  0  0  0  0
   20.5664  -19.4860  -13.2928 O   0  0  0  0  0  0  0  0  0  0  0  0
  1  2  1  0
  3  2  1  0
  4  3  1  0
  5  4  1  0
  5  1  1  0
  6  7  2  0
  5  6  1  1
  8  6  1  0
  9  8  1  0
 10 11  1  0
  9 10  1  1
 11 12  2  0
 11 19  1  0
 12 13  1  0
 13 14  1  0
 14 15  2  0
 15 16  1  0
 17 16  2  0
 18 17  1  0
 19 18  2  0
 19 14  1  0
 20 27  1  0
 20  9  1  0
 21 20  2  0
 22 23  1  0
 23 24  1  0
 26 25  1  1
 25 24  1  0
 26 27  1  0
 28 26  1  0
 29 28  2  0
 30 28  1  0
M  END
$$$$
