PWM.pdb
     RDKit          3D

 30 32  0  0  1  0  0  0  0  0999 V2000
   27.4226  -19.7663  -14.9628 N   0  0  0  0  0  0  0  0  0  0  0  0
   28.3596  -19.7890  -16.0940 C   0  0  0  0  0  0  0  0  0  0  0  0
   29.3877  -20.8398  -15.7140 C   0  0  0  0  0  0  0  0  0  0  0  0
   28.6896  -21.6731  -14.6630 C   0  0  0  0  0  0  0  0  0  0  0  0
   27.2696  -21.1947  -14.7380 C   0  0  1  0  0  0  0  0  0  0  0  0
   26.4979  -21.4740  -13.5067 C   0  0  0  0  0  0  0  0  0  0  0  0
   26.1363  -22.6551  -13.2882 O   0  0  0  0  0  0  0  0  0  0  0  0
   26.1607  -20.4719  -12.5853 N   0  0  0  0  0  0  0  0  0  0  0  0
   25.3249  -20.7244  -11.3843 C   0  0  1  0  0  0  0  0  0  0  0  0
   25.8312  -19.8714  -10.2591 C   0  0  0  0  0  0  0  0  0  0  0  0
   27.0727  -20.4087   -9.6924 C   0  0  0  0  0  0  0  0  0  0  0  0
   27.9922  -21.2208  -10.3637 C   0  0  0  0  0  0  0  0  0  0  0  0
   28.9721  -21.5208   -9.5036 N   0  0  0  0  0  0  0  0  0  0  0  0
   28.7461  -20.9551   -8.3180 C   0  0  0  0  0  0  0  0  0  0  0  0
   29.4313  -20.9485   -7.1096 C   0  0  0  0  0  0  0  0  0  0  0  0
   28.9622  -20.2672   -6.0190 C   0  0  0  0  0  0  0  0  0  0  0  0
   27.7788  -19.5614   -6.1009 C   0  0  0  0  0  0  0  0  0  0  0  0
   27.1041  -19.5744   -7.3088 C   0  0  0  0  0  0  0  0  0  0  0  0
   27.5781  -20.2622   -8.4088 C   0  0  0  0  0  0  0  0  0  0  0  0
   23.9312  -20.4782  -11.7788 C   0  0  0  0  0  0  0  0  0  0  0  0
   23.7261  -19.7259  -12.7874 O   0  0  0  0  0  0  0  0  0  0  0  0
   21.7580  -23.3198  -15.6281 C   0  0  0  0  0  0  0  0  0  0  0  0
   20.3445  -22.1810  -15.5508 S   0  0  0  0  0  0  0  0  0  0  0  0
   20.1988  -21.4742  -13.8691 C   0  0  0  0  0  0  0  0  0  0  0  0
   21.5399  -21.5004  -13.1722 C   0  0  0  0  0  0  0  0  0  0  0  0
   21.4567  -20.9219  -11.7754 C   0  0  2  0  0  0  0  0  0  0  0  0
   22.7697  -20.9929  -11.1588 N   0  0  0  0  0  0  0  0  0  0  0  0
   20.3814  -21.5157  -10.9798 C   0  0  0  0  0  0  0  0  0  0  0  0
   20.6769  -22.4869  -10.2067 O   0  0  0  0  0  0  0  0  0  0  0  0
   19.0527  -21.1296  -10.9754 O   0  0  0  0  0  0  0  0  0  0  0  0
  1  2  1  0
  3  2  1  0
  4  3  1  0
  5  4  1  0
  5  1  1  0
  6  7  2  0
  5  6  1  1
  8  6  1  0
  9  8  1  0
 10 11  1  0
  9 10  1  1
 11 12  2  0
 11 19  1  0
 12 13  1  0
 13 14  1  0
 14 15  2  0
 15 16  1  0
 17 16  2  0
 18 17  1  0
 19 18  2  0
 19 14  1  0
 20 27  1  0
 20  9  1  0
 21 20  2  0
 22 23  1  0
 23 24  1  0
 26 25  1  6
 25 24  1  0
 26 27  1  0
 28 26  1  0
 29 28  2  0
 30 28  1  0
M  END
$$$$
