PWM.pdb
     RDKit          3D

 30 32  0  0  1  0  0  0  0  0999 V2000
   27.8443  -21.5649  -15.5999 N   0  0  0  0  0  0  0  0  0  0  0  0
   28.4115  -20.8295  -16.7381 C   0  0  0  0  0  0  0  0  0  0  0  0
   27.8956  -19.4115  -16.5687 C   0  0  0  0  0  0  0  0  0  0  0  0
   27.5075  -19.3339  -15.1094 C   0  0  0  0  0  0  0  0  0  0  0  0
   28.0775  -20.5988  -14.5385 C   0  0  1  0  0  0  0  0  0  0  0  0
   27.4272  -21.0090  -13.2742 C   0  0  0  0  0  0  0  0  0  0  0  0
   26.6367  -21.9826  -13.3022 O   0  0  0  0  0  0  0  0  0  0  0  0
   27.6631  -20.3518  -12.0578 N   0  0  0  0  0  0  0  0  0  0  0  0
   26.9478  -20.6919  -10.8019 C   0  0  1  0  0  0  0  0  0  0  0  0
   27.6487  -20.0262   -9.6550 C   0  0  0  0  0  0  0  0  0  0  0  0
   26.9154  -20.2067   -8.3977 C   0  0  0  0  0  0  0  0  0  0  0  0
   25.6100  -20.6934   -8.2765 C   0  0  0  0  0  0  0  0  0  0  0  0
   25.2925  -20.6839   -6.9769 N   0  0  0  0  0  0  0  0  0  0  0  0
   26.3087  -20.2220   -6.2483 C   0  0  0  0  0  0  0  0  0  0  0  0
   26.4992  -20.0112   -4.8886 C   0  0  0  0  0  0  0  0  0  0  0  0
   27.6738  -19.5112   -4.3945 C   0  0  0  0  0  0  0  0  0  0  0  0
   28.7093  -19.2018   -5.2532 C   0  0  0  0  0  0  0  0  0  0  0  0
   28.5095  -19.4156   -6.6056 C   0  0  0  0  0  0  0  0  0  0  0  0
   27.3239  -19.9201   -7.1032 C   0  0  0  0  0  0  0  0  0  0  0  0
   25.5455  -20.2974  -10.9931 C   0  0  0  0  0  0  0  0  0  0  0  0
   25.3145  -19.1079  -11.3897 O   0  0  0  0  0  0  0  0  0  0  0  0
   21.9387  -24.0227  -14.1411 C   0  0  0  0  0  0  0  0  0  0  0  0
   20.5613  -22.9198  -13.7084 S   0  0  0  0  0  0  0  0  0  0  0  0
   21.1616  -21.5487  -12.6555 C   0  0  0  0  0  0  0  0  0  0  0  0
   22.5495  -21.8534  -12.1401 C   0  0  0  0  0  0  0  0  0  0  0  0
   23.0855  -20.7307  -11.2770 C   0  0  2  0  0  0  0  0  0  0  0  0
   24.4014  -21.1020  -10.7875 N   0  0  0  0  0  0  0  0  0  0  0  0
   22.1450  -20.3204  -10.2334 C   0  0  0  0  0  0  0  0  0  0  0  0
   22.1938  -20.9288   -9.1128 O   0  0  0  0  0  0  0  0  0  0  0  0
   21.1900  -19.3241  -10.3329 O   0  0  0  0  0  0  0  0  0  0  0  0
  1  2  1  0
  3  2  1  0
  4  3  1  0
  5  4  1  0
  5  1  1  0
  6  7  2  0
  5  6  1  1
  8  6  1  0
  9  8  1  0
 10 11  1  0
  9 10  1  1
 11 12  2  0
 11 19  1  0
 12 13  1  0
 13 14  1  0
 14 15  2  0
 15 16  1  0
 17 16  2  0
 18 17  1  0
 19 18  2  0
 19 14  1  0
 20 27  1  0
 20  9  1  0
 21 20  2  0
 22 23  1  0
 23 24  1  0
 26 25  1  1
 25 24  1  0
 26 27  1  0
 28 26  1  0
 29 28  2  0
 30 28  1  0
M  END
$$$$
