PWM.pdb
     RDKit          3D

 30 32  0  0  1  0  0  0  0  0999 V2000
   26.8296  -19.7716  -14.8731 N   0  0  0  0  0  0  0  0  0  0  0  0
   27.7286  -19.7111  -16.0334 C   0  0  0  0  0  0  0  0  0  0  0  0
   29.1013  -20.0273  -15.4667 C   0  0  0  0  0  0  0  0  0  0  0  0
   28.8064  -20.7280  -14.1597 C   0  0  0  0  0  0  0  0  0  0  0  0
   27.3290  -20.9786  -14.2343 C   0  0  1  0  0  0  0  0  0  0  0  0
   26.7091  -21.1906  -12.9075 C   0  0  0  0  0  0  0  0  0  0  0  0
   25.7827  -22.0310  -12.8129 O   0  0  0  0  0  0  0  0  0  0  0  0
   27.1191  -20.4901  -11.7638 N   0  0  0  0  0  0  0  0  0  0  0  0
   26.5384  -20.7268  -10.4179 C   0  0  1  0  0  0  0  0  0  0  0  0
   27.5205  -20.2636   -9.3831 C   0  0  0  0  0  0  0  0  0  0  0  0
   26.9840  -20.4131   -8.0263 C   0  0  0  0  0  0  0  0  0  0  0  0
   25.7686  -21.0179   -7.6910 C   0  0  0  0  0  0  0  0  0  0  0  0
   25.6261  -20.9334   -6.3634 N   0  0  0  0  0  0  0  0  0  0  0  0
   26.6715  -20.3124   -5.8172 C   0  0  0  0  0  0  0  0  0  0  0  0
   27.0147  -19.9719   -4.5149 C   0  0  0  0  0  0  0  0  0  0  0  0
   28.1810  -19.3164   -4.2251 C   0  0  0  0  0  0  0  0  0  0  0  0
   29.0532  -18.9756   -5.2391 C   0  0  0  0  0  0  0  0  0  0  0  0
   28.7021  -19.3194   -6.5326 C   0  0  0  0  0  0  0  0  0  0  0  0
   27.5250  -19.9807   -6.8242 C   0  0  0  0  0  0  0  0  0  0  0  0
   25.2357  -20.0480  -10.3933 C   0  0  0  0  0  0  0  0  0  0  0  0
   25.1823  -18.8543  -10.8380 O   0  0  0  0  0  0  0  0  0  0  0  0
   22.5961  -21.7039  -14.8875 C   0  0  0  0  0  0  0  0  0  0  0  0
   21.6439  -20.2076  -14.4933 S   0  0  0  0  0  0  0  0  0  0  0  0
   21.5008  -20.0142  -12.6793 C   0  0  0  0  0  0  0  0  0  0  0  0
   22.8033  -20.3865  -12.0086 C   0  0  0  0  0  0  0  0  0  0  0  0
   22.7296  -20.2124  -10.5064 C   0  0  2  0  0  0  0  0  0  0  0  0
   24.0105  -20.5781   -9.9279 N   0  0  0  0  0  0  0  0  0  0  0  0
   21.5800  -20.8965   -9.9128 C   0  0  0  0  0  0  0  0  0  0  0  0
   21.7337  -22.1062   -9.5370 O   0  0  0  0  0  0  0  0  0  0  0  0
   20.3196  -20.3622   -9.7112 O   0  0  0  0  0  0  0  0  0  0  0  0
  1  2  1  0
  3  2  1  0
  4  3  1  0
  5  4  1  0
  5  1  1  0
  6  7  2  0
  5  6  1  1
  8  6  1  0
  9  8  1  0
 10 11  1  0
  9 10  1  1
 11 12  2  0
 11 19  1  0
 12 13  1  0
 13 14  1  0
 14 15  2  0
 15 16  1  0
 17 16  2  0
 18 17  1  0
 19 18  2  0
 19 14  1  0
 20 27  1  0
 20  9  1  0
 21 20  2  0
 22 23  1  0
 23 24  1  0
 26 25  1  6
 25 24  1  0
 26 27  1  0
 28 26  1  0
 29 28  2  0
 30 28  1  0
M  END
$$$$
