PWM.pdb
     RDKit          3D

 30 32  0  0  1  0  0  0  0  0999 V2000
   27.9027  -17.6301  -15.2405 N   0  0  0  0  0  0  0  0  0  0  0  0
   27.5821  -16.2296  -15.5472 C   0  0  0  0  0  0  0  0  0  0  0  0
   26.0672  -16.1998  -15.6453 C   0  0  0  0  0  0  0  0  0  0  0  0
   25.6267  -17.4401  -14.9011 C   0  0  0  0  0  0  0  0  0  0  0  0
   26.8888  -17.9026  -14.2345 C   0  0  1  0  0  0  0  0  0  0  0  0
   26.8578  -19.3350  -13.8647 C   0  0  0  0  0  0  0  0  0  0  0  0
   27.7063  -20.1001  -14.3826 O   0  0  0  0  0  0  0  0  0  0  0  0
   25.9204  -19.8603  -12.9632 N   0  0  0  0  0  0  0  0  0  0  0  0
   25.8877  -21.2923  -12.5721 C   0  0  1  0  0  0  0  0  0  0  0  0
   25.2609  -21.4047  -11.2140 C   0  0  0  0  0  0  0  0  0  0  0  0
   26.1599  -20.9151  -10.1637 C   0  0  0  0  0  0  0  0  0  0  0  0
   25.8308  -19.9789   -9.1784 C   0  0  0  0  0  0  0  0  0  0  0  0
   26.9214  -19.7772   -8.4301 N   0  0  0  0  0  0  0  0  0  0  0  0
   27.9360  -20.5227   -8.8678 C   0  0  0  0  0  0  0  0  0  0  0  0
   29.2540  -20.6869   -8.4608 C   0  0  0  0  0  0  0  0  0  0  0  0
   30.1065  -21.5410   -9.1069 C   0  0  0  0  0  0  0  0  0  0  0  0
   29.6648  -22.2680  -10.1939 C   0  0  0  0  0  0  0  0  0  0  0  0
   28.3504  -22.0973  -10.5912 C   0  0  0  0  0  0  0  0  0  0  0  0
   27.4909  -21.2352   -9.9386 C   0  0  0  0  0  0  0  0  0  0  0  0
   25.1872  -22.0088  -13.6465 C   0  0  0  0  0  0  0  0  0  0  0  0
   24.2814  -21.3785  -14.2851 O   0  0  0  0  0  0  0  0  0  0  0  0
   27.5948  -26.6239  -17.4725 C   0  0  0  0  0  0  0  0  0  0  0  0
   25.8472  -27.1179  -17.5256 S   0  0  0  0  0  0  0  0  0  0  0  0
   24.7944  -25.7735  -16.8678 C   0  0  0  0  0  0  0  0  0  0  0  0
   25.4157  -25.1836  -15.6225 C   0  0  0  0  0  0  0  0  0  0  0  0
   24.6675  -23.9544  -15.1515 C   0  0  2  0  0  0  0  0  0  0  0  0
   25.4093  -23.3411  -14.0639 N   0  0  0  0  0  0  0  0  0  0  0  0
   23.2626  -24.2289  -14.8468 C   0  0  0  0  0  0  0  0  0  0  0  0
   22.9655  -24.5666  -13.6526 O   0  0  0  0  0  0  0  0  0  0  0  0
   22.2009  -24.1600  -15.7314 O   0  0  0  0  0  0  0  0  0  0  0  0
  1  2  1  0
  3  2  1  0
  4  3  1  0
  5  4  1  0
  5  1  1  0
  6  7  2  0
  5  6  1  6
  8  6  1  0
  9  8  1  0
 10 11  1  0
  9 10  1  1
 11 12  2  0
 11 19  1  0
 12 13  1  0
 13 14  1  0
 14 15  2  0
 15 16  1  0
 17 16  2  0
 18 17  1  0
 19 18  2  0
 19 14  1  0
 20 27  1  0
 20  9  1  0
 21 20  2  0
 22 23  1  0
 23 24  1  0
 26 25  1  1
 25 24  1  0
 26 27  1  0
 28 26  1  0
 29 28  2  0
 30 28  1  0
M  END
$$$$
