QRE.pdb
     RDKit          3D

 30 29  0  0  1  0  0  0  0  0999 V2000
   22.9517   -7.0364  -13.0704 N   0  0  0  0  0  0  0  0  0  0  0  0
   21.9266   -6.4557  -13.8658 C   0  0  0  0  0  0  0  0  0  0  0  0
   22.0144   -5.2276  -14.0783 O   0  0  0  0  0  0  0  0  0  0  0  0
   20.8280   -7.2809  -14.4032 C   0  0  0  0  0  0  0  0  0  0  0  0
   20.9062   -8.7238  -13.9915 C   0  0  0  0  0  0  0  0  0  0  0  0
   19.6969   -9.4449  -14.4713 C   0  0  2  0  0  0  0  0  0  0  0  0
   19.5877   -9.4539  -15.9185 N   0  0  0  0  0  0  0  0  0  0  0  0
   18.4347   -8.8697  -13.8747 C   0  0  0  0  0  0  0  0  0  0  0  0
   17.7005   -8.1793  -14.5974 O   0  0  0  0  0  0  0  0  0  0  0  0
   12.2060  -13.2077   -9.6674 N   0  0  0  0  0  0  0  0  0  0  0  0
   11.6820  -11.9126   -9.9180 C   0  0  0  0  0  0  0  0  0  0  0  0
   10.4012  -11.6511   -9.8655 N   0  0  0  0  0  0  0  0  0  0  0  0
   12.5650  -10.8621  -10.2361 N   0  0  0  0  0  0  0  0  0  0  0  0
   13.9359  -11.1274  -10.6809 C   0  0  0  0  0  0  0  0  0  0  0  0
   14.6606   -9.8435  -10.9553 C   0  0  0  0  0  0  0  0  0  0  0  0
   15.9966   -9.9734  -11.5566 C   0  0  0  0  0  0  0  0  0  0  0  0
   16.7537   -8.7834  -11.9822 C   0  0  2  0  0  0  0  0  0  0  0  0
   18.0637   -9.0898  -12.5334 N   0  0  0  0  0  0  0  0  0  0  0  0
   16.8664   -7.7626  -10.9625 C   0  0  0  0  0  0  0  0  0  0  0  0
   17.7358   -7.9678  -10.0416 O   0  0  0  0  0  0  0  0  0  0  0  0
   10.1197  -10.6693  -10.1356 N   0  0  0  0  0  0  0  0  0  0  0  0
   16.0900   -6.5650  -10.9068 C   0  0  2  0  0  0  0  0  0  0  0  0
   16.3796   -5.6045   -9.8297 C   0  0  0  0  0  0  0  0  0  0  0  0
   15.8077   -4.2807  -10.1860 C   0  0  0  0  0  0  0  0  0  0  0  0
   16.0650   -3.2591   -9.1203 C   0  0  0  0  0  0  0  0  0  0  0  0
   15.4307   -1.9432   -9.4629 O   0  0  0  0  0  0  0  0  0  0  0  0
   15.5061   -0.9248   -8.7441 C   0  0  0  0  0  0  0  0  0  0  0  0
   15.7613   -6.1081   -8.5793 O   0  0  0  0  0  0  0  0  0  0  0  0
   14.8792   -6.9749   -8.5064 O   0  0  0  0  0  0  0  0  0  0  0  0
   14.7150   -1.8374  -10.6463 O   0  0  0  0  0  0  0  0  0  0  0  0
  2  3  2  0
  2  1  1  0
  4  2  1  0
  5  4  1  0
  5  6  1  0
  6  7  1  6
  6  8  1  0
  8 18  1  0
  9  8  2  0
 10 11  1  0
 11 12  2  0
 11 13  1  0
 13 14  1  0
 15 14  1  0
 16 15  1  0
 17 19  1  0
 17 16  1  1
 18 17  1  0
 19 20  2  0
 21 19  1  0
 21 22  1  0
 22 23  1  6
 23 24  1  0
 25 26  2  0
 25 24  1  0
 27 30  1  0
 27 22  1  0
 28 27  2  0
 29 25  1  0
M  END
$$$$
