QRE.pdb
     RDKit          3D

 30 29  0  0  1  0  0  0  0  0999 V2000
   15.9482  -26.7323   -8.7027 N   0  0  0  0  0  0  0  0  0  0  0  0
   15.8417  -27.8126   -9.6206 C   0  0  0  0  0  0  0  0  0  0  0  0
   15.3102  -28.8585   -9.1910 O   0  0  0  0  0  0  0  0  0  0  0  0
   16.3378  -27.6809  -11.0038 C   0  0  0  0  0  0  0  0  0  0  0  0
   16.8675  -26.3114  -11.3222 C   0  0  0  0  0  0  0  0  0  0  0  0
   18.2979  -26.4101  -11.7178 C   0  0  2  0  0  0  0  0  0  0  0  0
   19.1456  -26.8853  -10.6399 N   0  0  0  0  0  0  0  0  0  0  0  0
   18.8248  -25.0901  -12.2280 C   0  0  0  0  0  0  0  0  0  0  0  0
   19.2647  -24.2718  -11.4065 O   0  0  0  0  0  0  0  0  0  0  0  0
   25.3574  -24.3939  -16.8675 N   0  0  0  0  0  0  0  0  0  0  0  0
   24.5863  -25.0107  -15.8479 C   0  0  0  0  0  0  0  0  0  0  0  0
   24.9276  -26.1492  -15.3011 N   0  0  0  0  0  0  0  0  0  0  0  0
   23.4078  -24.3822  -15.4001 N   0  0  0  0  0  0  0  0  0  0  0  0
   22.8289  -23.2459  -16.1220 C   0  0  0  0  0  0  0  0  0  0  0  0
   21.5352  -22.8229  -15.4923 C   0  0  0  0  0  0  0  0  0  0  0  0
   20.7858  -23.8757  -14.7900 C   0  0  0  0  0  0  0  0  0  0  0  0
   19.4890  -23.5853  -14.1539 C   0  0  2  0  0  0  0  0  0  0  0  0
   18.8347  -24.7583  -13.5974 N   0  0  0  0  0  0  0  0  0  0  0  0
   18.5701  -22.8540  -14.9996 C   0  0  0  0  0  0  0  0  0  0  0  0
   17.9053  -23.5444  -15.8527 O   0  0  0  0  0  0  0  0  0  0  0  0
   24.2513  -26.5400  -14.5898 N   0  0  0  0  0  0  0  0  0  0  0  0
   18.3561  -21.4425  -14.9559 C   0  0  2  0  0  0  0  0  0  0  0  0
   17.3870  -20.8621  -15.8995 C   0  0  0  0  0  0  0  0  0  0  0  0
   16.8805  -19.5766  -15.3540 C   0  0  0  0  0  0  0  0  0  0  0  0
   15.9022  -18.9254  -16.2836 C   0  0  0  0  0  0  0  0  0  0  0  0
   15.3623  -17.6522  -15.7012 O   0  0  0  0  0  0  0  0  0  0  0  0
   15.5087  -16.5285  -16.2259 C   0  0  0  0  0  0  0  0  0  0  0  0
   18.0774  -20.6317  -17.1918 O   0  0  0  0  0  0  0  0  0  0  0  0
   19.2974  -20.4787  -17.3432 O   0  0  0  0  0  0  0  0  0  0  0  0
   14.6558  -17.7127  -14.5092 O   0  0  0  0  0  0  0  0  0  0  0  0
  2  3  2  0
  2  1  1  0
  4  2  1  0
  5  4  1  0
  5  6  1  0
  6  7  1  1
  6  8  1  0
  8 18  1  0
  9  8  2  0
 10 11  1  0
 11 12  2  0
 11 13  1  0
 13 14  1  0
 15 14  1  0
 16 15  1  0
 17 19  1  0
 17 16  1  6
 18 17  1  0
 19 20  2  0
 21 19  1  0
 21 22  1  0
 22 23  1  1
 23 24  1  0
 25 26  2  0
 25 24  1  0
 27 30  1  0
 27 22  1  0
 28 27  2  0
 29 25  1  0
M  END
$$$$
