QRE.pdb
     RDKit          3D

 30 29  0  0  1  0  0  0  0  0999 V2000
   26.7011  -18.1625  -19.1891 N   0  0  0  0  0  0  0  0  0  0  0  0
   28.0087  -18.6009  -18.8444 C   0  0  0  0  0  0  0  0  0  0  0  0
   28.9491  -18.1369  -19.5236 O   0  0  0  0  0  0  0  0  0  0  0  0
   28.2194  -19.5527  -17.7370 C   0  0  0  0  0  0  0  0  0  0  0  0
   26.9446  -19.9916  -17.0739 C   0  0  0  0  0  0  0  0  0  0  0  0
   27.2545  -20.9682  -15.9956 C   0  0  2  0  0  0  0  0  0  0  0  0
   27.8195  -22.2042  -16.5049 N   0  0  0  0  0  0  0  0  0  0  0  0
   26.0352  -21.2784  -15.1607 C   0  0  0  0  0  0  0  0  0  0  0  0
   25.3801  -22.2972  -15.4267 O   0  0  0  0  0  0  0  0  0  0  0  0
   23.5599  -20.8163   -8.4086 N   0  0  0  0  0  0  0  0  0  0  0  0
   24.8668  -20.7308   -7.8615 C   0  0  0  0  0  0  0  0  0  0  0  0
   25.1947  -21.3061   -6.7331 N   0  0  0  0  0  0  0  0  0  0  0  0
   25.8558  -20.0019   -8.5509 N   0  0  0  0  0  0  0  0  0  0  0  0
   25.5625  -19.3336   -9.8217 C   0  0  0  0  0  0  0  0  0  0  0  0
   25.4018  -20.3387  -10.9229 C   0  0  0  0  0  0  0  0  0  0  0  0
   24.4563  -19.9792  -11.9907 C   0  0  0  0  0  0  0  0  0  0  0  0
   24.4481  -20.7080  -13.2710 C   0  0  2  0  0  0  0  0  0  0  0  0
   25.6189  -20.4556  -14.0953 N   0  0  0  0  0  0  0  0  0  0  0  0
   23.2407  -20.5205  -14.0464 C   0  0  0  0  0  0  0  0  0  0  0  0
   23.0982  -19.3797  -14.6161 O   0  0  0  0  0  0  0  0  0  0  0  0
   26.1408  -21.0466   -6.3413 N   0  0  0  0  0  0  0  0  0  0  0  0
   22.2120  -21.4965  -14.2175 C   0  0  2  0  0  0  0  0  0  0  0  0
   20.9607  -21.0735  -14.8672 C   0  0  0  0  0  0  0  0  0  0  0  0
   20.0685  -22.2504  -15.0268 C   0  0  0  0  0  0  0  0  0  0  0  0
   18.8559  -21.9218  -15.8436 C   0  0  0  0  0  0  0  0  0  0  0  0
   17.9485  -23.1098  -15.9732 O   0  0  0  0  0  0  0  0  0  0  0  0
   18.1447  -24.2026  -15.4015 C   0  0  0  0  0  0  0  0  0  0  0  0
   20.3123  -20.0539  -14.0074 O   0  0  0  0  0  0  0  0  0  0  0  0
   20.3535  -20.0188  -12.7697 O   0  0  0  0  0  0  0  0  0  0  0  0
   16.8201  -23.0013  -16.7724 O   0  0  0  0  0  0  0  0  0  0  0  0
  2  3  2  0
  2  1  1  0
  4  2  1  0
  5  4  1  0
  5  6  1  0
  6  7  1  6
  6  8  1  0
  8 18  1  0
  9  8  2  0
 10 11  1  0
 11 12  2  0
 11 13  1  0
 13 14  1  0
 15 14  1  0
 16 15  1  0
 17 19  1  0
 17 16  1  1
 18 17  1  0
 19 20  2  0
 21 19  1  0
 21 22  1  0
 22 23  1  6
 23 24  1  0
 25 26  2  0
 25 24  1  0
 27 30  1  0
 27 22  1  0
 28 27  2  0
 29 25  1  0
M  END
$$$$
