QRE.pdb
     RDKit          3D

 30 29  0  0  1  0  0  0  0  0999 V2000
   22.6627  -12.3796  -18.1330 N   0  0  0  0  0  0  0  0  0  0  0  0
   22.0255  -13.6503  -18.1201 C   0  0  0  0  0  0  0  0  0  0  0  0
   22.7719  -14.6488  -18.2029 O   0  0  0  0  0  0  0  0  0  0  0  0
   20.5581  -13.7589  -18.0117 C   0  0  0  0  0  0  0  0  0  0  0  0
   19.8602  -12.4289  -17.9752 C   0  0  0  0  0  0  0  0  0  0  0  0
   19.8518  -11.9087  -16.5817 C   0  0  2  0  0  0  0  0  0  0  0  0
   19.1402  -12.7788  -15.6636 N   0  0  0  0  0  0  0  0  0  0  0  0
   19.2678  -10.5179  -16.5122 C   0  0  0  0  0  0  0  0  0  0  0  0
   19.7652   -9.6316  -17.2228 O   0  0  0  0  0  0  0  0  0  0  0  0
   11.2673   -7.6253  -13.5647 N   0  0  0  0  0  0  0  0  0  0  0  0
   11.9967   -6.4438  -13.8588 C   0  0  0  0  0  0  0  0  0  0  0  0
   11.4860   -5.2483  -13.7116 N   0  0  0  0  0  0  0  0  0  0  0  0
   13.3209   -6.5505  -14.3275 N   0  0  0  0  0  0  0  0  0  0  0  0
   13.9741   -7.8540  -14.4750 C   0  0  0  0  0  0  0  0  0  0  0  0
   15.3730   -7.6893  -14.9895 C   0  0  0  0  0  0  0  0  0  0  0  0
   16.1546   -8.9262  -15.1389 C   0  0  0  0  0  0  0  0  0  0  0  0
   17.5468   -8.8882  -15.6195 C   0  0  2  0  0  0  0  0  0  0  0  0
   18.1830  -10.1944  -15.6733 N   0  0  0  0  0  0  0  0  0  0  0  0
   18.3889   -7.9506  -14.9082 C   0  0  0  0  0  0  0  0  0  0  0  0
   18.8330   -8.3328  -13.7668 O   0  0  0  0  0  0  0  0  0  0  0  0
   12.1144   -4.4424  -13.9790 N   0  0  0  0  0  0  0  0  0  0  0  0
   18.7522   -6.6509  -15.3760 C   0  0  2  0  0  0  0  0  0  0  0  0
   19.7114   -5.8726  -14.5755 C   0  0  0  0  0  0  0  0  0  0  0  0
   21.0721   -6.0306  -15.1502 C   0  0  0  0  0  0  0  0  0  0  0  0
   22.0825   -5.1959  -14.4237 C   0  0  0  0  0  0  0  0  0  0  0  0
   23.4284   -5.2742  -15.0826 O   0  0  0  0  0  0  0  0  0  0  0  0
   23.7286   -6.1136  -15.9571 C   0  0  0  0  0  0  0  0  0  0  0  0
   19.3023   -4.4477  -14.6160 O   0  0  0  0  0  0  0  0  0  0  0  0
   18.4898   -3.9503  -15.4080 O   0  0  0  0  0  0  0  0  0  0  0  0
   24.4069   -4.3655  -14.7077 O   0  0  0  0  0  0  0  0  0  0  0  0
  2  3  2  0
  2  1  1  0
  4  2  1  0
  5  4  1  0
  5  6  1  0
  6  7  1  1
  6  8  1  0
  8 18  1  0
  9  8  2  0
 10 11  1  0
 11 12  2  0
 11 13  1  0
 13 14  1  0
 15 14  1  0
 16 15  1  0
 17 19  1  0
 17 16  1  1
 18 17  1  0
 19 20  2  0
 21 19  1  0
 21 22  1  0
 22 23  1  6
 23 24  1  0
 25 26  2  0
 25 24  1  0
 27 30  1  0
 27 22  1  0
 28 27  2  0
 29 25  1  0
M  END
$$$$
