QRE.pdb
     RDKit          3D

 30 29  0  0  1  0  0  0  0  0999 V2000
   22.1969  -20.3672  -21.3427 N   0  0  0  0  0  0  0  0  0  0  0  0
   22.9025  -19.1373  -21.2414 C   0  0  0  0  0  0  0  0  0  0  0  0
   23.2001  -18.5755  -22.3170 O   0  0  0  0  0  0  0  0  0  0  0  0
   23.2519  -18.5726  -19.9240 C   0  0  0  0  0  0  0  0  0  0  0  0
   22.7169  -19.3711  -18.7692 C   0  0  0  0  0  0  0  0  0  0  0  0
   23.6996  -19.3522  -17.6527 C   0  0  2  0  0  0  0  0  0  0  0  0
   25.0452  -19.6810  -18.0856 N   0  0  0  0  0  0  0  0  0  0  0  0
   23.2886  -20.2818  -16.5360 C   0  0  0  0  0  0  0  0  0  0  0  0
   23.1437  -21.4864  -16.7927 O   0  0  0  0  0  0  0  0  0  0  0  0
   26.3134  -20.3831   -8.4347 N   0  0  0  0  0  0  0  0  0  0  0  0
   26.6735  -21.0307   -9.6452 C   0  0  0  0  0  0  0  0  0  0  0  0
   27.9077  -21.3649   -9.9226 N   0  0  0  0  0  0  0  0  0  0  0  0
   25.6728  -21.3299  -10.5905 N   0  0  0  0  0  0  0  0  0  0  0  0
   24.3424  -20.7207  -10.5101 C   0  0  0  0  0  0  0  0  0  0  0  0
   23.4875  -21.1640  -11.6597 C   0  0  0  0  0  0  0  0  0  0  0  0
   23.5518  -20.3303  -12.8697 C   0  0  0  0  0  0  0  0  0  0  0  0
   22.8070  -20.7021  -14.0853 C   0  0  2  0  0  0  0  0  0  0  0  0
   23.0664  -19.8307  -15.2198 N   0  0  0  0  0  0  0  0  0  0  0  0
   21.3816  -20.8458  -13.8805 C   0  0  0  0  0  0  0  0  0  0  0  0
   20.6871  -19.7676  -13.9170 O   0  0  0  0  0  0  0  0  0  0  0  0
   28.0682  -21.7827  -10.8795 N   0  0  0  0  0  0  0  0  0  0  0  0
   20.7043  -22.0803  -13.6413 C   0  0  2  0  0  0  0  0  0  0  0  0
   19.2547  -22.0346  -13.3901 C   0  0  0  0  0  0  0  0  0  0  0  0
   18.7378  -23.4196  -13.2451 C   0  0  0  0  0  0  0  0  0  0  0  0
   17.2445  -23.4457  -13.1241 C   0  0  0  0  0  0  0  0  0  0  0  0
   16.7325  -24.8510  -13.0027 O   0  0  0  0  0  0  0  0  0  0  0  0
   17.4682  -25.8586  -12.9479 C   0  0  0  0  0  0  0  0  0  0  0  0
   19.0234  -21.2697  -12.1407 O   0  0  0  0  0  0  0  0  0  0  0  0
   17.9986  -20.6318  -11.8619 O   0  0  0  0  0  0  0  0  0  0  0  0
   15.3622  -25.0576  -12.9465 O   0  0  0  0  0  0  0  0  0  0  0  0
  2  3  2  0
  2  1  1  0
  4  2  1  0
  5  4  1  0
  5  6  1  0
  6  7  1  6
  6  8  1  0
  8 18  1  0
  9  8  2  0
 10 11  1  0
 11 12  2  0
 11 13  1  0
 13 14  1  0
 15 14  1  0
 16 15  1  0
 17 19  1  0
 17 16  1  1
 18 17  1  0
 19 20  2  0
 21 19  1  0
 21 22  1  0
 22 23  1  6
 23 24  1  0
 25 26  2  0
 25 24  1  0
 27 30  1  0
 27 22  1  0
 28 27  2  0
 29 25  1  0
M  END
$$$$
