QRE.pdb
     RDKit          3D

 30 29  0  0  1  0  0  0  0  0999 V2000
   38.8743   -3.0897  -12.3555 N   0  0  0  0  0  0  0  0  0  0  0  0
   38.2612   -4.2643  -12.8706 C   0  0  0  0  0  0  0  0  0  0  0  0
   38.5250   -4.5563  -14.0565 O   0  0  0  0  0  0  0  0  0  0  0  0
   37.3658   -5.0808  -12.0291 C   0  0  0  0  0  0  0  0  0  0  0  0
   37.9505   -5.4215  -10.6876 C   0  0  0  0  0  0  0  0  0  0  0  0
   38.8686   -6.5837  -10.8250 C   0  0  2  0  0  0  0  0  0  0  0  0
   38.1796   -7.7976  -11.2225 N   0  0  0  0  0  0  0  0  0  0  0  0
   39.6386   -6.8361   -9.5508 C   0  0  0  0  0  0  0  0  0  0  0  0
   39.0623   -7.4126   -8.6161 O   0  0  0  0  0  0  0  0  0  0  0  0
   45.4871  -12.0808   -8.6410 N   0  0  0  0  0  0  0  0  0  0  0  0
   44.1964  -12.0181   -8.0539 C   0  0  0  0  0  0  0  0  0  0  0  0
   43.5082  -13.0899   -7.7548 N   0  0  0  0  0  0  0  0  0  0  0  0
   43.6253  -10.7601   -7.7784 N   0  0  0  0  0  0  0  0  0  0  0  0
   44.4512   -9.5535   -7.6808 C   0  0  0  0  0  0  0  0  0  0  0  0
   43.6041   -8.3572   -7.3642 C   0  0  0  0  0  0  0  0  0  0  0  0
   42.6952   -7.9105   -8.4308 C   0  0  0  0  0  0  0  0  0  0  0  0
   41.7966   -6.7610   -8.2271 C   0  0  2  0  0  0  0  0  0  0  0  0
   40.9817   -6.4425   -9.3883 N   0  0  0  0  0  0  0  0  0  0  0  0
   42.4640   -5.5716   -7.7431 C   0  0  0  0  0  0  0  0  0  0  0  0
   42.9766   -4.8016   -8.6322 O   0  0  0  0  0  0  0  0  0  0  0  0
   42.5792  -12.9236   -7.2803 N   0  0  0  0  0  0  0  0  0  0  0  0
   42.5939   -5.2014   -6.3697 C   0  0  2  0  0  0  0  0  0  0  0  0
   43.3274   -3.9646   -6.0549 C   0  0  0  0  0  0  0  0  0  0  0  0
   42.4689   -2.7927   -6.3649 C   0  0  0  0  0  0  0  0  0  0  0  0
   41.1456   -2.8729   -5.6665 C   0  0  0  0  0  0  0  0  0  0  0  0
   40.3427   -1.6227   -5.8758 O   0  0  0  0  0  0  0  0  0  0  0  0
   40.4069   -0.6205   -5.1335 C   0  0  0  0  0  0  0  0  0  0  0  0
   43.6678   -3.9808   -4.6115 O   0  0  0  0  0  0  0  0  0  0  0  0
   43.2709   -4.8125   -3.7837 O   0  0  0  0  0  0  0  0  0  0  0  0
   39.4735   -1.5627   -6.9550 O   0  0  0  0  0  0  0  0  0  0  0  0
  2  3  2  0
  2  1  1  0
  4  2  1  0
  5  4  1  0
  5  6  1  0
  6  7  1  1
  6  8  1  0
  8 18  1  0
  9  8  2  0
 10 11  1  0
 11 12  2  0
 11 13  1  0
 13 14  1  0
 15 14  1  0
 16 15  1  0
 17 19  1  0
 17 16  1  6
 18 17  1  0
 19 20  2  0
 21 19  1  0
 21 22  1  0
 22 23  1  6
 23 24  1  0
 25 26  2  0
 25 24  1  0
 27 30  1  0
 27 22  1  0
 28 27  2  0
 29 25  1  0
M  END
$$$$
