QRE.pdb
     RDKit          3D

 30 29  0  0  1  0  0  0  0  0999 V2000
   25.7267  -22.5202  -20.9876 N   0  0  0  0  0  0  0  0  0  0  0  0
   26.4949  -21.3265  -21.0640 C   0  0  0  0  0  0  0  0  0  0  0  0
   26.9181  -21.0077  -22.1955 O   0  0  0  0  0  0  0  0  0  0  0  0
   26.7631  -20.5217  -19.8570 C   0  0  0  0  0  0  0  0  0  0  0  0
   26.1888  -21.1151  -18.6018 C   0  0  0  0  0  0  0  0  0  0  0  0
   25.6093  -20.0345  -17.7598 C   0  0  2  0  0  0  0  0  0  0  0  0
   26.5913  -19.0381  -17.3735 N   0  0  0  0  0  0  0  0  0  0  0  0
   24.9435  -20.5907  -16.5239 C   0  0  0  0  0  0  0  0  0  0  0  0
   24.0046  -21.3883  -16.6663 O   0  0  0  0  0  0  0  0  0  0  0  0
   25.3785  -19.4238   -9.7157 N   0  0  0  0  0  0  0  0  0  0  0  0
   25.7560  -20.7013   -9.2257 C   0  0  0  0  0  0  0  0  0  0  0  0
   25.2588  -21.2067   -8.1261 N   0  0  0  0  0  0  0  0  0  0  0  0
   26.7007  -21.4622   -9.9421 N   0  0  0  0  0  0  0  0  0  0  0  0
   27.3055  -20.9581  -11.1781 C   0  0  0  0  0  0  0  0  0  0  0  0
   26.4874  -21.3596  -12.3690 C   0  0  0  0  0  0  0  0  0  0  0  0
   25.4381  -20.4138  -12.7787 C   0  0  0  0  0  0  0  0  0  0  0  0
   24.6569  -20.6363  -14.0078 C   0  0  2  0  0  0  0  0  0  0  0  0
   25.3503  -20.2376  -15.2219 N   0  0  0  0  0  0  0  0  0  0  0  0
   23.3316  -20.0559  -13.9751 C   0  0  0  0  0  0  0  0  0  0  0  0
   23.2050  -18.8899  -14.4954 O   0  0  0  0  0  0  0  0  0  0  0  0
   25.6207  -22.1606   -7.8524 N   0  0  0  0  0  0  0  0  0  0  0  0
   22.1747  -20.6758  -13.4119 C   0  0  1  0  0  0  0  0  0  0  0  0
   20.8539  -20.2301  -13.8846 C   0  0  0  0  0  0  0  0  0  0  0  0
   20.8542  -20.1837  -15.3693 C   0  0  0  0  0  0  0  0  0  0  0  0
   19.5315  -19.7344  -15.9116 C   0  0  0  0  0  0  0  0  0  0  0  0
   19.7066  -18.8521  -17.1126 O   0  0  0  0  0  0  0  0  0  0  0  0
   18.7890  -18.1724  -17.6180 C   0  0  0  0  0  0  0  0  0  0  0  0
   19.8376  -21.1975  -13.4042 O   0  0  0  0  0  0  0  0  0  0  0  0
   20.0614  -22.3589  -13.0355 O   0  0  0  0  0  0  0  0  0  0  0  0
   20.9577  -18.7772  -17.7066 O   0  0  0  0  0  0  0  0  0  0  0  0
  2  3  2  0
  2  1  1  0
  4  2  1  0
  5  4  1  0
  5  6  1  0
  6  7  1  1
  6  8  1  0
  8 18  1  0
  9  8  2  0
 10 11  1  0
 11 12  2  0
 11 13  1  0
 13 14  1  0
 15 14  1  0
 16 15  1  0
 17 19  1  0
 17 16  1  1
 18 17  1  0
 19 20  2  0
 21 19  1  0
 21 22  1  0
 22 23  1  1
 23 24  1  0
 25 26  2  0
 25 24  1  0
 27 30  1  0
 27 22  1  0
 28 27  2  0
 29 25  1  0
M  END
$$$$
