QRE.pdb
     RDKit          3D

 30 29  0  0  1  0  0  0  0  0999 V2000
   13.4702  -12.7652  -16.7879 N   0  0  0  0  0  0  0  0  0  0  0  0
   14.8541  -13.0895  -16.8086 C   0  0  0  0  0  0  0  0  0  0  0  0
   15.2776  -13.6591  -17.8369 O   0  0  0  0  0  0  0  0  0  0  0  0
   15.7251  -12.7588  -15.6647 C   0  0  0  0  0  0  0  0  0  0  0  0
   16.4916  -11.4793  -15.8460 C   0  0  0  0  0  0  0  0  0  0  0  0
   17.3508  -11.2403  -14.6555 C   0  0  2  0  0  0  0  0  0  0  0  0
   17.4055  -12.3855  -13.7655 N   0  0  0  0  0  0  0  0  0  0  0  0
   16.9020  -10.0232  -13.8827 C   0  0  0  0  0  0  0  0  0  0  0  0
   16.8066   -8.9429  -14.4842 O   0  0  0  0  0  0  0  0  0  0  0  0
   10.8483   -9.5714   -7.8851 N   0  0  0  0  0  0  0  0  0  0  0  0
   11.1682   -9.9134   -9.2249 C   0  0  0  0  0  0  0  0  0  0  0  0
   10.4191  -10.7087   -9.9446 N   0  0  0  0  0  0  0  0  0  0  0  0
   12.3335   -9.3823   -9.8119 N   0  0  0  0  0  0  0  0  0  0  0  0
   13.3533   -8.7070   -9.0047 C   0  0  0  0  0  0  0  0  0  0  0  0
   14.5014   -8.2671   -9.8633 C   0  0  0  0  0  0  0  0  0  0  0  0
   15.0065   -9.2609  -10.8228 C   0  0  0  0  0  0  0  0  0  0  0  0
   16.1186   -8.9367  -11.7331 C   0  0  2  0  0  0  0  0  0  0  0  0
   16.5888  -10.0722  -12.5098 N   0  0  0  0  0  0  0  0  0  0  0  0
   17.2329   -8.2761  -11.0879 C   0  0  0  0  0  0  0  0  0  0  0  0
   17.8638   -8.9545  -10.2003 O   0  0  0  0  0  0  0  0  0  0  0  0
   10.7397  -10.8698  -10.9383 N   0  0  0  0  0  0  0  0  0  0  0  0
   17.6712   -6.9445  -11.3613 C   0  0  1  0  0  0  0  0  0  0  0  0
   18.7640   -6.3960  -10.5418 C   0  0  0  0  0  0  0  0  0  0  0  0
   19.7713   -5.7602  -11.4293 C   0  0  0  0  0  0  0  0  0  0  0  0
   20.5347   -6.7774  -12.2217 C   0  0  0  0  0  0  0  0  0  0  0  0
   21.6526   -6.1395  -12.9932 O   0  0  0  0  0  0  0  0  0  0  0  0
   21.8675   -4.9097  -13.0208 C   0  0  0  0  0  0  0  0  0  0  0  0
   18.1906   -5.3888   -9.6164 O   0  0  0  0  0  0  0  0  0  0  0  0
   17.0489   -4.9124   -9.6827 O   0  0  0  0  0  0  0  0  0  0  0  0
   22.5062   -6.9530  -13.7235 O   0  0  0  0  0  0  0  0  0  0  0  0
  2  3  2  0
  2  1  1  0
  4  2  1  0
  5  4  1  0
  5  6  1  0
  6  7  1  1
  6  8  1  0
  8 18  1  0
  9  8  2  0
 10 11  1  0
 11 12  2  0
 11 13  1  0
 13 14  1  0
 15 14  1  0
 16 15  1  0
 17 19  1  0
 17 16  1  1
 18 17  1  0
 19 20  2  0
 21 19  1  0
 21 22  1  0
 22 23  1  1
 23 24  1  0
 25 26  2  0
 25 24  1  0
 27 30  1  0
 27 22  1  0
 28 27  2  0
 29 25  1  0
M  END
$$$$
