QRE.pdb
     RDKit          3D

 30 29  0  0  1  0  0  0  0  0999 V2000
   24.8631  -20.5836   -7.5771 N   0  0  0  0  0  0  0  0  0  0  0  0
   23.6030  -20.6850   -8.2271 C   0  0  0  0  0  0  0  0  0  0  0  0
   22.5918  -20.5313   -7.5095 O   0  0  0  0  0  0  0  0  0  0  0  0
   23.5190  -20.9560   -9.6749 C   0  0  0  0  0  0  0  0  0  0  0  0
   24.8558  -21.1936  -10.3182 C   0  0  0  0  0  0  0  0  0  0  0  0
   24.6709  -21.4483  -11.7720 C   0  0  2  0  0  0  0  0  0  0  0  0
   24.8722  -22.8412  -12.1265 N   0  0  0  0  0  0  0  0  0  0  0  0
   25.5804  -20.5796  -12.6076 C   0  0  0  0  0  0  0  0  0  0  0  0
   25.2941  -19.3804  -12.7410 O   0  0  0  0  0  0  0  0  0  0  0  0
   30.9425  -21.3705   -9.4943 N   0  0  0  0  0  0  0  0  0  0  0  0
   31.5678  -22.0810  -10.5521 C   0  0  0  0  0  0  0  0  0  0  0  0
   32.1467  -23.2405  -10.3733 N   0  0  0  0  0  0  0  0  0  0  0  0
   31.5712  -21.5263  -11.8470 N   0  0  0  0  0  0  0  0  0  0  0  0
   31.0371  -20.1858  -12.1029 C   0  0  0  0  0  0  0  0  0  0  0  0
   29.5495  -20.2353  -12.2856 C   0  0  0  0  0  0  0  0  0  0  0  0
   29.0764  -20.4816  -13.6564 C   0  0  0  0  0  0  0  0  0  0  0  0
   27.6628  -20.2765  -14.0172 C   0  0  2  0  0  0  0  0  0  0  0  0
   26.7372  -21.0813  -13.2366 N   0  0  0  0  0  0  0  0  0  0  0  0
   27.3887  -20.4280  -15.4300 C   0  0  0  0  0  0  0  0  0  0  0  0
   26.8031  -21.5128  -15.7858 O   0  0  0  0  0  0  0  0  0  0  0  0
   32.6099  -23.6607  -11.2246 N   0  0  0  0  0  0  0  0  0  0  0  0
   27.7208  -19.4745  -16.4403 C   0  0  1  0  0  0  0  0  0  0  0  0
   26.7720  -19.2860  -17.5497 C   0  0  0  0  0  0  0  0  0  0  0  0
   25.4561  -18.8654  -17.0039 C   0  0  0  0  0  0  0  0  0  0  0  0
   24.4400  -18.6739  -18.0886 C   0  0  0  0  0  0  0  0  0  0  0  0
   23.1157  -18.2492  -17.5253 O   0  0  0  0  0  0  0  0  0  0  0  0
   22.9825  -17.6261  -16.4513 C   0  0  0  0  0  0  0  0  0  0  0  0
   27.3109  -18.2369  -18.4489 O   0  0  0  0  0  0  0  0  0  0  0  0
   28.0297  -17.2883  -18.1049 O   0  0  0  0  0  0  0  0  0  0  0  0
   21.9622  -18.5604  -18.2298 O   0  0  0  0  0  0  0  0  0  0  0  0
  2  3  2  0
  2  1  1  0
  4  2  1  0
  5  4  1  0
  5  6  1  0
  6  7  1  1
  6  8  1  0
  8 18  1  0
  9  8  2  0
 10 11  1  0
 11 12  2  0
 11 13  1  0
 13 14  1  0
 15 14  1  0
 16 15  1  0
 17 19  1  0
 17 16  1  6
 18 17  1  0
 19 20  2  0
 21 19  1  0
 21 22  1  0
 22 23  1  6
 23 24  1  0
 25 26  2  0
 25 24  1  0
 27 30  1  0
 27 22  1  0
 28 27  2  0
 29 25  1  0
M  END
$$$$
