QRE.pdb
     RDKit          3D

 30 29  0  0  1  0  0  0  0  0999 V2000
   26.9441  -15.4606  -19.3170 N   0  0  0  0  0  0  0  0  0  0  0  0
   25.6124  -15.4635  -19.8145 C   0  0  0  0  0  0  0  0  0  0  0  0
   25.3800  -14.7169  -20.7890 O   0  0  0  0  0  0  0  0  0  0  0  0
   24.5768  -16.3138  -19.1971 C   0  0  0  0  0  0  0  0  0  0  0  0
   25.0574  -17.0564  -17.9827 C   0  0  0  0  0  0  0  0  0  0  0  0
   25.2342  -18.4952  -18.3161 C   0  0  2  0  0  0  0  0  0  0  0  0
   24.5458  -18.8760  -19.5357 N   0  0  0  0  0  0  0  0  0  0  0  0
   24.7831  -19.3867  -17.1840 C   0  0  0  0  0  0  0  0  0  0  0  0
   23.8176  -20.1413  -17.3744 O   0  0  0  0  0  0  0  0  0  0  0  0
   24.6752  -19.3448   -9.6850 N   0  0  0  0  0  0  0  0  0  0  0  0
   25.1418  -20.6247   -9.2865 C   0  0  0  0  0  0  0  0  0  0  0  0
   24.6769  -21.2446   -8.2323 N   0  0  0  0  0  0  0  0  0  0  0  0
   26.1426  -21.2606  -10.0471 N   0  0  0  0  0  0  0  0  0  0  0  0
   26.6304  -20.6804  -11.3013 C   0  0  0  0  0  0  0  0  0  0  0  0
   25.5822  -20.7732  -12.3697 C   0  0  0  0  0  0  0  0  0  0  0  0
   25.9516  -20.2263  -13.6842 C   0  0  0  0  0  0  0  0  0  0  0  0
   24.9722  -20.1720  -14.7835 C   0  0  2  0  0  0  0  0  0  0  0  0
   25.4182  -19.3915  -15.9262 N   0  0  0  0  0  0  0  0  0  0  0  0
   23.6508  -19.7480  -14.3732 C   0  0  0  0  0  0  0  0  0  0  0  0
   23.4519  -18.4823  -14.3050 O   0  0  0  0  0  0  0  0  0  0  0  0
   25.0388  -22.2249   -8.0770 N   0  0  0  0  0  0  0  0  0  0  0  0
   22.5715  -20.6225  -14.0410 C   0  0  1  0  0  0  0  0  0  0  0  0
   21.2566  -20.0214  -13.7645 C   0  0  0  0  0  0  0  0  0  0  0  0
   20.6890  -19.4809  -15.0263 C   0  0  0  0  0  0  0  0  0  0  0  0
   19.9121  -18.2212  -14.7915 C   0  0  0  0  0  0  0  0  0  0  0  0
   19.7481  -17.4380  -16.0608 O   0  0  0  0  0  0  0  0  0  0  0  0
   20.1431  -17.8310  -17.1784 C   0  0  0  0  0  0  0  0  0  0  0  0
   20.3696  -21.0760  -13.2161 O   0  0  0  0  0  0  0  0  0  0  0  0
   20.5490  -22.2976  -13.3181 O   0  0  0  0  0  0  0  0  0  0  0  0
   19.1216  -16.2019  -16.0039 O   0  0  0  0  0  0  0  0  0  0  0  0
  2  3  2  0
  2  1  1  0
  4  2  1  0
  5  4  1  0
  5  6  1  0
  6  7  1  6
  6  8  1  0
  8 18  1  0
  9  8  2  0
 10 11  1  0
 11 12  2  0
 11 13  1  0
 13 14  1  0
 15 14  1  0
 16 15  1  0
 17 19  1  0
 17 16  1  1
 18 17  1  0
 19 20  2  0
 21 19  1  0
 21 22  1  0
 22 23  1  1
 23 24  1  0
 25 26  2  0
 25 24  1  0
 27 30  1  0
 27 22  1  0
 28 27  2  0
 29 25  1  0
M  END
$$$$
