QRE.pdb
     RDKit          3D

 30 29  0  0  1  0  0  0  0  0999 V2000
   20.9097  -14.5635  -18.4454 N   0  0  0  0  0  0  0  0  0  0  0  0
   22.2769  -14.1768  -18.4924 C   0  0  0  0  0  0  0  0  0  0  0  0
   22.5087  -12.9825  -18.7769 O   0  0  0  0  0  0  0  0  0  0  0  0
   23.3482  -15.1520  -18.2136 C   0  0  0  0  0  0  0  0  0  0  0  0
   22.8358  -16.5148  -17.8423 C   0  0  0  0  0  0  0  0  0  0  0  0
   23.9765  -17.3877  -17.4559 C   0  0  2  0  0  0  0  0  0  0  0  0
   24.8500  -17.6951  -18.5735 N   0  0  0  0  0  0  0  0  0  0  0  0
   23.5016  -18.6722  -16.8199 C   0  0  0  0  0  0  0  0  0  0  0  0
   22.8014  -19.4422  -17.4943 O   0  0  0  0  0  0  0  0  0  0  0  0
   24.1097  -25.3503  -14.3946 N   0  0  0  0  0  0  0  0  0  0  0  0
   25.0126  -24.3938  -14.9280 C   0  0  0  0  0  0  0  0  0  0  0  0
   25.6612  -24.5884  -16.0475 N   0  0  0  0  0  0  0  0  0  0  0  0
   25.2259  -23.1863  -14.2346 N   0  0  0  0  0  0  0  0  0  0  0  0
   24.6935  -22.9785  -12.8851 C   0  0  0  0  0  0  0  0  0  0  0  0
   23.7734  -21.7947  -12.8562 C   0  0  0  0  0  0  0  0  0  0  0  0
   24.1676  -20.6514  -13.6933 C   0  0  0  0  0  0  0  0  0  0  0  0
   23.3182  -20.2030  -14.8104 C   0  0  2  0  0  0  0  0  0  0  0  0
   23.8255  -19.0248  -15.4947 N   0  0  0  0  0  0  0  0  0  0  0  0
   21.9285  -20.0144  -14.4533 C   0  0  0  0  0  0  0  0  0  0  0  0
   21.6748  -19.0713  -13.6213 O   0  0  0  0  0  0  0  0  0  0  0  0
   26.2728  -23.7900  -16.3706 N   0  0  0  0  0  0  0  0  0  0  0  0
   20.8379  -20.7918  -14.9496 C   0  0  2  0  0  0  0  0  0  0  0  0
   19.4864  -20.4764  -14.4592 C   0  0  0  0  0  0  0  0  0  0  0  0
   18.4805  -21.0816  -15.3694 C   0  0  0  0  0  0  0  0  0  0  0  0
   17.0841  -20.6859  -14.9964 C   0  0  0  0  0  0  0  0  0  0  0  0
   16.0737  -21.3566  -15.8799 O   0  0  0  0  0  0  0  0  0  0  0  0
   16.3650  -22.1840  -16.7688 C   0  0  0  0  0  0  0  0  0  0  0  0
   19.3441  -21.0392  -13.0944 O   0  0  0  0  0  0  0  0  0  0  0  0
   19.8771  -22.0784  -12.6810 O   0  0  0  0  0  0  0  0  0  0  0  0
   14.7321  -21.0488  -15.7096 O   0  0  0  0  0  0  0  0  0  0  0  0
  2  3  2  0
  2  1  1  0
  4  2  1  0
  5  4  1  0
  5  6  1  0
  6  7  1  6
  6  8  1  0
  8 18  1  0
  9  8  2  0
 10 11  1  0
 11 12  2  0
 11 13  1  0
 13 14  1  0
 15 14  1  0
 16 15  1  0
 17 19  1  0
 17 16  1  1
 18 17  1  0
 19 20  2  0
 21 19  1  0
 21 22  1  0
 22 23  1  6
 23 24  1  0
 25 26  2  0
 25 24  1  0
 27 30  1  0
 27 22  1  0
 28 27  2  0
 29 25  1  0
M  END
$$$$
