QRE.pdb
     RDKit          3D

 30 29  0  0  1  0  0  0  0  0999 V2000
   31.0859  -22.4816  -14.1913 N   0  0  0  0  0  0  0  0  0  0  0  0
   31.4578  -21.1315  -13.9463 C   0  0  0  0  0  0  0  0  0  0  0  0
   32.6747  -20.8635  -14.0376 O   0  0  0  0  0  0  0  0  0  0  0  0
   30.4417  -20.1175  -13.6061 C   0  0  0  0  0  0  0  0  0  0  0  0
   29.0302  -20.6065  -13.7672 C   0  0  0  0  0  0  0  0  0  0  0  0
   28.4042  -20.7711  -12.4279 C   0  0  2  0  0  0  0  0  0  0  0  0
   29.0899  -21.7511  -11.6059 N   0  0  0  0  0  0  0  0  0  0  0  0
   26.9444  -21.1406  -12.5395 C   0  0  0  0  0  0  0  0  0  0  0  0
   26.6492  -22.2457  -13.0184 O   0  0  0  0  0  0  0  0  0  0  0  0
   20.8579  -20.6031   -6.8313 N   0  0  0  0  0  0  0  0  0  0  0  0
   20.9187  -21.7536   -7.6602 C   0  0  0  0  0  0  0  0  0  0  0  0
   20.4161  -22.9064   -7.2994 N   0  0  0  0  0  0  0  0  0  0  0  0
   21.5412  -21.6624   -8.9206 N   0  0  0  0  0  0  0  0  0  0  0  0
   21.6134  -20.3902   -9.6443 C   0  0  0  0  0  0  0  0  0  0  0  0
   22.2738  -20.5771  -10.9777 C   0  0  0  0  0  0  0  0  0  0  0  0
   23.7361  -20.4211  -11.0001 C   0  0  0  0  0  0  0  0  0  0  0  0
   24.4936  -20.5681  -12.2552 C   0  0  2  0  0  0  0  0  0  0  0  0
   25.9119  -20.2785  -12.1197 N   0  0  0  0  0  0  0  0  0  0  0  0
   23.9364  -19.8296  -13.3681 C   0  0  0  0  0  0  0  0  0  0  0  0
   24.0706  -18.5541  -13.3325 O   0  0  0  0  0  0  0  0  0  0  0  0
   20.5158  -23.6919   -7.9986 N   0  0  0  0  0  0  0  0  0  0  0  0
   23.2563  -20.4086  -14.4826 C   0  0  1  0  0  0  0  0  0  0  0  0
   22.7109  -19.5013  -15.5053 C   0  0  0  0  0  0  0  0  0  0  0  0
   23.1252  -19.9735  -16.8514 C   0  0  0  0  0  0  0  0  0  0  0  0
   24.5709  -19.6855  -17.1207 C   0  0  0  0  0  0  0  0  0  0  0  0
   24.7722  -18.2605  -17.5454 O   0  0  0  0  0  0  0  0  0  0  0  0
   23.9156  -17.5872  -18.1556 C   0  0  0  0  0  0  0  0  0  0  0  0
   21.2320  -19.5105  -15.3938 O   0  0  0  0  0  0  0  0  0  0  0  0
   20.5253  -20.5140  -15.2252 O   0  0  0  0  0  0  0  0  0  0  0  0
   25.9773  -17.6414  -17.2484 O   0  0  0  0  0  0  0  0  0  0  0  0
  2  3  2  0
  2  1  1  0
  4  2  1  0
  5  4  1  0
  5  6  1  0
  6  7  1  6
  6  8  1  0
  8 18  1  0
  9  8  2  0
 10 11  1  0
 11 12  2  0
 11 13  1  0
 13 14  1  0
 15 14  1  0
 16 15  1  0
 17 19  1  0
 17 16  1  1
 18 17  1  0
 19 20  2  0
 21 19  1  0
 21 22  1  0
 22 23  1  6
 23 24  1  0
 25 26  2  0
 25 24  1  0
 27 30  1  0
 27 22  1  0
 28 27  2  0
 29 25  1  0
M  END
$$$$
