WVH.pdb
     RDKit          3D

 32 34  0  0  1  0  0  0  0  0999 V2000
    6.4595  -18.7749   24.4929 N   0  0  0  0  0  0  0  0  0  0  0  0
    6.3105  -17.3391   24.4047 C   0  0  1  0  0  0  0  0  0  0  0  0
    7.2025  -16.6559   25.4223 C   0  0  0  0  0  0  0  0  0  0  0  0
    6.6602  -15.3885   25.9151 C   0  0  0  0  0  0  0  0  0  0  0  0
    5.3235  -15.0907   26.1709 C   0  0  0  0  0  0  0  0  0  0  0  0
    5.2458  -13.8239   26.6100 N   0  0  0  0  0  0  0  0  0  0  0  0
    6.4771  -13.2852   26.6503 C   0  0  0  0  0  0  0  0  0  0  0  0
    6.9388  -12.0357   27.0201 C   0  0  0  0  0  0  0  0  0  0  0  0
    8.2784  -11.7400   26.9645 C   0  0  0  0  0  0  0  0  0  0  0  0
    9.1555  -12.7192   26.5306 C   0  0  0  0  0  0  0  0  0  0  0  0
    8.7312  -13.9563   26.1607 C   0  0  0  0  0  0  0  0  0  0  0  0
    7.3700  -14.2358   26.2243 C   0  0  0  0  0  0  0  0  0  0  0  0
    6.6278  -16.9144   23.0253 C   0  0  0  0  0  0  0  0  0  0  0  0
    5.7311  -16.6605   22.1688 O   0  0  0  0  0  0  0  0  0  0  0  0
    6.4984  -14.3260   21.9928 C   0  0  0  0  0  0  0  0  0  0  0  0
    7.9825  -14.4626   21.8854 C   0  0  2  0  0  0  0  0  0  0  0  0
    8.5063  -13.5006   20.8388 C   0  0  0  0  0  0  0  0  0  0  0  0
    8.3988  -15.8896   21.5756 C   0  0  2  0  0  0  0  0  0  0  0  0
    7.9789  -16.7798   22.6269 N   0  0  0  0  0  0  0  0  0  0  0  0
    9.8858  -15.9668   21.3877 C   0  0  0  0  0  0  0  0  0  0  0  0
   10.4500  -15.2362   20.5476 O   0  0  0  0  0  0  0  0  0  0  0  0
   10.6872  -16.8543   22.1434 N   0  0  0  0  0  0  0  0  0  0  0  0
   12.1204  -16.8416   21.9632 C   0  0  1  0  0  0  0  0  0  0  0  0
   12.8306  -17.5724   23.0716 C   0  0  0  0  0  0  0  0  0  0  0  0
   12.1561  -17.2796   24.3523 C   0  0  0  0  0  0  0  0  0  0  0  0
   12.1528  -16.0135   24.9447 C   0  0  0  0  0  0  0  0  0  0  0  0
   11.4688  -16.0413   26.0952 N   0  0  0  0  0  0  0  0  0  0  0  0
   11.0416  -17.2981   26.2397 C   0  0  0  0  0  0  0  0  0  0  0  0
   11.4523  -18.0422   25.1964 N   0  0  0  0  0  0  0  0  0  0  0  0
   12.4029  -17.4108   20.6379 C   0  0  0  0  0  0  0  0  0  0  0  0
   11.4570  -17.7345   19.8896 O   0  0  0  0  0  0  0  0  0  0  0  0
   13.6946  -17.5971   20.1979 O   0  0  0  0  0  0  0  0  0  0  0  0
  2  1  1  6
  2  3  1  0
  4  5  2  0
  4  3  1  0
  6  5  1  0
  7 12  2  0
  7  6  1  0
  8  7  1  0
  9 10  1  0
  9  8  2  0
 10 11  2  0
 11 12  1  0
 12  4  1  0
 13  2  1  0
 13 14  2  0
 16 15  1  6
 16 18  1  0
 17 16  1  0
 18 19  1  1
 19 13  1  0
 20 18  1  0
 21 20  2  0
 22 20  1  0
 23 22  1  0
 23 30  1  0
 24 25  1  0
 23 24  1  1
 25 29  1  0
 26 27  1  0
 26 25  2  0
 27 28  1  0
 28 29  2  0
 30 32  1  0
 31 30  2  0
M  END
$$$$
