WVH.pdb
     RDKit          3D

 32 34  0  0  1  0  0  0  0  0999 V2000
    8.3105  -18.0065   20.0185 N   0  0  0  0  0  0  0  0  0  0  0  0
    9.1188  -17.2625   20.9589 C   0  0  1  0  0  0  0  0  0  0  0  0
    8.2624  -16.2630   21.7108 C   0  0  0  0  0  0  0  0  0  0  0  0
    7.7057  -15.2129   20.8561 C   0  0  0  0  0  0  0  0  0  0  0  0
    6.3644  -15.0158   20.5348 C   0  0  0  0  0  0  0  0  0  0  0  0
    6.2727  -13.9469   19.7268 N   0  0  0  0  0  0  0  0  0  0  0  0
    7.4991  -13.4405   19.5093 C   0  0  0  0  0  0  0  0  0  0  0  0
    7.9475  -12.3650   18.7655 C   0  0  0  0  0  0  0  0  0  0  0  0
    9.2853  -12.0605   18.7117 C   0  0  0  0  0  0  0  0  0  0  0  0
   10.1740  -12.8531   19.4177 C   0  0  0  0  0  0  0  0  0  0  0  0
    9.7628  -13.9167   20.1574 C   0  0  0  0  0  0  0  0  0  0  0  0
    8.4033  -14.2083   20.1987 C   0  0  0  0  0  0  0  0  0  0  0  0
    9.7785  -18.2168   21.8743 C   0  0  0  0  0  0  0  0  0  0  0  0
    9.3124  -19.3707   22.1051 O   0  0  0  0  0  0  0  0  0  0  0  0
   13.7077  -18.7395   22.1338 C   0  0  0  0  0  0  0  0  0  0  0  0
   13.1274  -18.4665   23.4835 C   0  0  2  0  0  0  0  0  0  0  0  0
   13.8193  -19.3308   24.5177 C   0  0  0  0  0  0  0  0  0  0  0  0
   11.6243  -18.6803   23.5074 C   0  0  2  0  0  0  0  0  0  0  0  0
   10.9780  -17.8462   22.5273 N   0  0  0  0  0  0  0  0  0  0  0  0
   11.0816  -18.3944   24.8771 C   0  0  0  0  0  0  0  0  0  0  0  0
   11.2160  -17.2600   25.3801 O   0  0  0  0  0  0  0  0  0  0  0  0
   10.4096  -19.3828   25.6336 N   0  0  0  0  0  0  0  0  0  0  0  0
   10.0048  -19.0841   26.9877 C   0  0  1  0  0  0  0  0  0  0  0  0
    8.5467  -19.3830   27.2151 C   0  0  0  0  0  0  0  0  0  0  0  0
    7.7357  -18.5524   26.3023 C   0  0  0  0  0  0  0  0  0  0  0  0
    7.5651  -17.1749   26.4678 C   0  0  0  0  0  0  0  0  0  0  0  0
    6.7835  -16.6843   25.4979 N   0  0  0  0  0  0  0  0  0  0  0  0
    6.4584  -17.7238   24.7254 C   0  0  0  0  0  0  0  0  0  0  0  0
    7.0279  -18.8445   25.2055 N   0  0  0  0  0  0  0  0  0  0  0  0
   10.8852  -19.8420   27.8881 C   0  0  0  0  0  0  0  0  0  0  0  0
   11.7025  -20.6574   27.4118 O   0  0  0  0  0  0  0  0  0  0  0  0
   10.8306  -19.6738   29.2538 O   0  0  0  0  0  0  0  0  0  0  0  0
  2  1  1  6
  2  3  1  0
  4  5  2  0
  4  3  1  0
  6  5  1  0
  7 12  2  0
  7  6  1  0
  8  7  1  0
  9 10  1  0
  9  8  2  0
 10 11  2  0
 11 12  1  0
 12  4  1  0
 13  2  1  0
 13 14  2  0
 16 15  1  6
 16 18  1  0
 17 16  1  0
 18 19  1  6
 19 13  1  0
 20 18  1  0
 21 20  2  0
 22 20  1  0
 23 22  1  0
 23 30  1  0
 24 25  1  0
 23 24  1  6
 25 29  1  0
 26 27  1  0
 26 25  2  0
 27 28  1  0
 28 29  2  0
 30 32  1  0
 31 30  2  0
M  END
$$$$
