WVH.pdb
     RDKit          3D

 32 34  0  0  1  0  0  0  0  0999 V2000
    6.2741  -18.1763   24.2704 N   0  0  0  0  0  0  0  0  0  0  0  0
    6.6811  -16.7975   24.1135 C   0  0  1  0  0  0  0  0  0  0  0  0
    7.4522  -16.3362   25.3344 C   0  0  0  0  0  0  0  0  0  0  0  0
    6.8713  -15.1576   25.9798 C   0  0  0  0  0  0  0  0  0  0  0  0
    5.5751  -15.0242   26.4727 C   0  0  0  0  0  0  0  0  0  0  0  0
    5.4399  -13.7909   26.9871 N   0  0  0  0  0  0  0  0  0  0  0  0
    6.5948  -13.1166   26.8492 C   0  0  0  0  0  0  0  0  0  0  0  0
    6.9775  -11.8363   27.2037 C   0  0  0  0  0  0  0  0  0  0  0  0
    8.2479  -11.3874   26.9398 C   0  0  0  0  0  0  0  0  0  0  0  0
    9.1361  -12.2436   26.3118 C   0  0  0  0  0  0  0  0  0  0  0  0
    8.7886  -13.5073   25.9515 C   0  0  0  0  0  0  0  0  0  0  0  0
    7.4967  -13.9429   26.2277 C   0  0  0  0  0  0  0  0  0  0  0  0
    7.4863  -16.6792   22.8801 C   0  0  0  0  0  0  0  0  0  0  0  0
    8.0274  -17.6786   22.3228 O   0  0  0  0  0  0  0  0  0  0  0  0
    6.4658  -14.2506   19.8901 C   0  0  0  0  0  0  0  0  0  0  0  0
    7.8929  -14.0437   20.2819 C   0  0  2  0  0  0  0  0  0  0  0  0
    8.7276  -13.7899   19.0434 C   0  0  0  0  0  0  0  0  0  0  0  0
    8.4370  -15.2162   21.0788 C   0  0  2  0  0  0  0  0  0  0  0  0
    7.6711  -15.4096   22.2830 N   0  0  0  0  0  0  0  0  0  0  0  0
    9.8836  -14.9918   21.4094 C   0  0  0  0  0  0  0  0  0  0  0  0
   10.2461  -13.9226   21.9417 O   0  0  0  0  0  0  0  0  0  0  0  0
   10.8706  -15.9672   21.1349 N   0  0  0  0  0  0  0  0  0  0  0  0
   11.6545  -16.5063   22.2220 C   0  0  1  0  0  0  0  0  0  0  0  0
   10.7846  -17.0378   23.3299 C   0  0  0  0  0  0  0  0  0  0  0  0
   11.6447  -17.5353   24.4224 C   0  0  0  0  0  0  0  0  0  0  0  0
   13.0413  -17.5124   24.3691 C   0  0  0  0  0  0  0  0  0  0  0  0
   13.5571  -18.0252   25.4931 N   0  0  0  0  0  0  0  0  0  0  0  0
   12.5147  -18.3705   26.2528 C   0  0  0  0  0  0  0  0  0  0  0  0
   11.3675  -18.0779   25.6133 N   0  0  0  0  0  0  0  0  0  0  0  0
   12.5429  -17.5323   21.6579 C   0  0  0  0  0  0  0  0  0  0  0  0
   13.3922  -18.0842   22.3885 O   0  0  0  0  0  0  0  0  0  0  0  0
   12.4610  -17.9028   20.3340 O   0  0  0  0  0  0  0  0  0  0  0  0
  2  1  1  1
  2  3  1  0
  4  5  2  0
  4  3  1  0
  6  5  1  0
  7 12  2  0
  7  6  1  0
  8  7  1  0
  9 10  1  0
  9  8  2  0
 10 11  2  0
 11 12  1  0
 12  4  1  0
 13  2  1  0
 13 14  2  0
 16 15  1  6
 16 18  1  0
 17 16  1  0
 18 19  1  1
 19 13  1  0
 20 18  1  0
 21 20  2  0
 22 20  1  0
 23 22  1  0
 23 30  1  0
 24 25  1  0
 23 24  1  1
 25 29  1  0
 26 27  1  0
 26 25  2  0
 27 28  1  0
 28 29  2  0
 30 32  1  0
 31 30  2  0
M  END
$$$$
