WVH.pdb
     RDKit          3D

 32 34  0  0  1  0  0  0  0  0999 V2000
    5.9753  -16.7957   25.0633 N   0  0  0  0  0  0  0  0  0  0  0  0
    6.8826  -15.7550   24.6330 C   0  0  1  0  0  0  0  0  0  0  0  0
    8.0880  -15.6980   25.5504 C   0  0  0  0  0  0  0  0  0  0  0  0
    7.9009  -14.8175   26.7049 C   0  0  0  0  0  0  0  0  0  0  0  0
    8.2267  -15.0923   28.0313 C   0  0  0  0  0  0  0  0  0  0  0  0
    7.8978  -14.0270   28.7802 N   0  0  0  0  0  0  0  0  0  0  0  0
    7.3714  -13.0705   27.9955 C   0  0  0  0  0  0  0  0  0  0  0  0
    6.8817  -11.8059   28.2644 C   0  0  0  0  0  0  0  0  0  0  0  0
    6.3890  -11.0170   27.2544 C   0  0  0  0  0  0  0  0  0  0  0  0
    6.3935  -11.5148   25.9627 C   0  0  0  0  0  0  0  0  0  0  0  0
    6.8683  -12.7538   25.6679 C   0  0  0  0  0  0  0  0  0  0  0  0
    7.3630  -13.5373   26.7054 C   0  0  0  0  0  0  0  0  0  0  0  0
    7.2724  -16.0168   23.2319 C   0  0  0  0  0  0  0  0  0  0  0  0
    7.2698  -17.1792   22.7311 O   0  0  0  0  0  0  0  0  0  0  0  0
    6.8804  -13.0916   20.3112 C   0  0  0  0  0  0  0  0  0  0  0  0
    8.1999  -13.7928   20.3238 C   0  0  2  0  0  0  0  0  0  0  0  0
    8.6938  -13.9706   18.9027 C   0  0  0  0  0  0  0  0  0  0  0  0
    8.1265  -15.1247   21.0493 C   0  0  2  0  0  0  0  0  0  0  0  0
    7.6662  -14.9407   22.4015 N   0  0  0  0  0  0  0  0  0  0  0  0
    9.4694  -15.7947   21.0406 C   0  0  0  0  0  0  0  0  0  0  0  0
   10.3779  -15.3870   21.7931 O   0  0  0  0  0  0  0  0  0  0  0  0
    9.7485  -16.8933   20.1944 N   0  0  0  0  0  0  0  0  0  0  0  0
   10.9808  -17.6265   20.3696 C   0  0  1  0  0  0  0  0  0  0  0  0
   10.7678  -19.1132   20.2626 C   0  0  0  0  0  0  0  0  0  0  0  0
   12.0773  -19.7936   20.3197 C   0  0  0  0  0  0  0  0  0  0  0  0
   13.1369  -19.3507   21.1167 C   0  0  0  0  0  0  0  0  0  0  0  0
   14.1964  -20.1556   20.9691 N   0  0  0  0  0  0  0  0  0  0  0  0
   13.8263  -21.0958   20.0962 C   0  0  0  0  0  0  0  0  0  0  0  0
   12.5567  -20.8809   19.7054 N   0  0  0  0  0  0  0  0  0  0  0  0
   11.9400  -17.1192   19.3784 C   0  0  0  0  0  0  0  0  0  0  0  0
   11.5538  -16.8641   18.2185 O   0  0  0  0  0  0  0  0  0  0  0  0
   13.2638  -16.9166   19.6997 O   0  0  0  0  0  0  0  0  0  0  0  0
  2  1  1  1
  2  3  1  0
  4  5  2  0
  4  3  1  0
  6  5  1  0
  7 12  2  0
  7  6  1  0
  8  7  1  0
  9 10  1  0
  9  8  2  0
 10 11  2  0
 11 12  1  0
 12  4  1  0
 13  2  1  0
 13 14  2  0
 16 15  1  6
 16 18  1  0
 17 16  1  0
 18 19  1  1
 19 13  1  0
 20 18  1  0
 21 20  2  0
 22 20  1  0
 23 22  1  0
 23 30  1  0
 24 25  1  0
 23 24  1  6
 25 29  1  0
 26 27  1  0
 26 25  2  0
 27 28  1  0
 28 29  2  0
 30 32  1  0
 31 30  2  0
M  END
$$$$
