WVH.pdb
     RDKit          3D

 32 34  0  0  1  0  0  0  0  0999 V2000
    6.4908  -17.7782   24.1371 N   0  0  0  0  0  0  0  0  0  0  0  0
    7.5321  -16.8206   23.8367 C   0  0  1  0  0  0  0  0  0  0  0  0
    7.9201  -16.0580   25.0879 C   0  0  0  0  0  0  0  0  0  0  0  0
    6.9143  -15.0822   25.5114 C   0  0  0  0  0  0  0  0  0  0  0  0
    5.6266  -15.3502   25.9709 C   0  0  0  0  0  0  0  0  0  0  0  0
    5.0249  -14.1839   26.2562 N   0  0  0  0  0  0  0  0  0  0  0  0
    5.8681  -13.1681   26.0013 C   0  0  0  0  0  0  0  0  0  0  0  0
    5.7425  -11.7967   26.1216 C   0  0  0  0  0  0  0  0  0  0  0  0
    6.7824  -10.9664   25.7832 C   0  0  0  0  0  0  0  0  0  0  0  0
    7.9578  -11.5319   25.3195 C   0  0  0  0  0  0  0  0  0  0  0  0
    8.1106  -12.8763   25.1906 C   0  0  0  0  0  0  0  0  0  0  0  0
    7.0452  -13.7002   25.5388 C   0  0  0  0  0  0  0  0  0  0  0  0
    8.6837  -17.5410   23.2549 C   0  0  0  0  0  0  0  0  0  0  0  0
    8.7646  -18.8041   23.2518 O   0  0  0  0  0  0  0  0  0  0  0  0
   10.1027  -17.4632   19.8142 C   0  0  0  0  0  0  0  0  0  0  0  0
   11.1949  -17.0133   20.7294 C   0  0  2  0  0  0  0  0  0  0  0  0
   12.5244  -17.5423   20.2316 C   0  0  0  0  0  0  0  0  0  0  0  0
   10.9400  -17.4354   22.1656 C   0  0  2  0  0  0  0  0  0  0  0  0
    9.7466  -16.8096   22.6736 N   0  0  0  0  0  0  0  0  0  0  0  0
   12.1197  -17.0873   23.0255 C   0  0  0  0  0  0  0  0  0  0  0  0
   12.7194  -16.0055   22.8584 O   0  0  0  0  0  0  0  0  0  0  0  0
   12.5857  -17.9573   24.0388 N   0  0  0  0  0  0  0  0  0  0  0  0
   12.5347  -17.5295   25.4176 C   0  0  1  0  0  0  0  0  0  0  0  0
   11.1480  -17.1035   25.8208 C   0  0  0  0  0  0  0  0  0  0  0  0
   11.1639  -16.6867   27.2375 C   0  0  0  0  0  0  0  0  0  0  0  0
   11.3402  -17.5809   28.2974 C   0  0  0  0  0  0  0  0  0  0  0  0
   11.3100  -16.9276   29.4656 N   0  0  0  0  0  0  0  0  0  0  0  0
   11.1184  -15.6412   29.1635 C   0  0  0  0  0  0  0  0  0  0  0  0
   11.0305  -15.4943   27.8288 N   0  0  0  0  0  0  0  0  0  0  0  0
   13.0497  -18.6329   26.2407 C   0  0  0  0  0  0  0  0  0  0  0  0
   12.8856  -19.8127   25.8657 O   0  0  0  0  0  0  0  0  0  0  0  0
   13.7138  -18.3958   27.4236 O   0  0  0  0  0  0  0  0  0  0  0  0
  2  1  1  1
  2  3  1  0
  4  5  2  0
  4  3  1  0
  6  5  1  0
  7 12  2  0
  7  6  1  0
  8  7  1  0
  9 10  1  0
  9  8  2  0
 10 11  2  0
 11 12  1  0
 12  4  1  0
 13  2  1  0
 13 14  2  0
 16 15  1  6
 16 18  1  0
 17 16  1  0
 18 19  1  1
 19 13  1  0
 20 18  1  0
 21 20  2  0
 22 20  1  0
 23 22  1  0
 23 30  1  0
 24 25  1  0
 23 24  1  1
 25 29  1  0
 26 27  1  0
 26 25  2  0
 27 28  1  0
 28 29  2  0
 30 32  1  0
 31 30  2  0
M  END
$$$$
