WVH.pdb
     RDKit          3D

 32 34  0  0  1  0  0  0  0  0999 V2000
    6.5197  -17.0063   24.6270 N   0  0  0  0  0  0  0  0  0  0  0  0
    7.8837  -16.9675   24.1478 C   0  0  1  0  0  0  0  0  0  0  0  0
    8.5492  -15.6708   24.5645 C   0  0  0  0  0  0  0  0  0  0  0  0
    7.6424  -14.5216   24.5576 C   0  0  0  0  0  0  0  0  0  0  0  0
    6.7975  -14.1257   23.5230 C   0  0  0  0  0  0  0  0  0  0  0  0
    6.1334  -13.0253   23.9128 N   0  0  0  0  0  0  0  0  0  0  0  0
    6.5115  -12.6891   25.1585 C   0  0  0  0  0  0  0  0  0  0  0  0
    6.1386  -11.6596   26.0024 C   0  0  0  0  0  0  0  0  0  0  0  0
    6.6938  -11.5439   27.2528 C   0  0  0  0  0  0  0  0  0  0  0  0
    7.6338  -12.4794   27.6495 C   0  0  0  0  0  0  0  0  0  0  0  0
    8.0202  -13.5022   26.8420 C   0  0  0  0  0  0  0  0  0  0  0  0
    7.4458  -13.6017   25.5789 C   0  0  0  0  0  0  0  0  0  0  0  0
    8.6034  -18.1463   24.6732 C   0  0  0  0  0  0  0  0  0  0  0  0
    8.2337  -18.7594   25.7170 O   0  0  0  0  0  0  0  0  0  0  0  0
   10.9280  -20.4501   22.0682 C   0  0  0  0  0  0  0  0  0  0  0  0
   11.5361  -20.1675   23.4035 C   0  0  2  0  0  0  0  0  0  0  0  0
   12.3371  -21.3692   23.8611 C   0  0  0  0  0  0  0  0  0  0  0  0
   10.4882  -19.7830   24.4330 C   0  0  2  0  0  0  0  0  0  0  0  0
    9.7518  -18.6242   23.9983 N   0  0  0  0  0  0  0  0  0  0  0  0
   11.1370  -19.5224   25.7610 C   0  0  0  0  0  0  0  0  0  0  0  0
   11.8463  -18.5084   25.9235 O   0  0  0  0  0  0  0  0  0  0  0  0
   10.9703  -20.4011   26.8568 N   0  0  0  0  0  0  0  0  0  0  0  0
   11.6588  -20.1251   28.0965 C   0  0  1  0  0  0  0  0  0  0  0  0
   10.7417  -19.5135   29.1221 C   0  0  0  0  0  0  0  0  0  0  0  0
   11.4481  -19.4375   30.4168 C   0  0  0  0  0  0  0  0  0  0  0  0
   12.7942  -19.0797   30.5354 C   0  0  0  0  0  0  0  0  0  0  0  0
   13.1670  -19.0954   31.8212 N   0  0  0  0  0  0  0  0  0  0  0  0
   12.0841  -19.4555   32.5144 C   0  0  0  0  0  0  0  0  0  0  0  0
   11.0526  -19.6611   31.6750 N   0  0  0  0  0  0  0  0  0  0  0  0
   12.2618  -21.3844   28.5554 C   0  0  0  0  0  0  0  0  0  0  0  0
   11.8153  -22.4726   28.1359 O   0  0  0  0  0  0  0  0  0  0  0  0
   13.3148  -21.3938   29.4430 O   0  0  0  0  0  0  0  0  0  0  0  0
  2  1  1  1
  2  3  1  0
  4  5  2  0
  4  3  1  0
  6  5  1  0
  7 12  2  0
  7  6  1  0
  8  7  1  0
  9 10  1  0
  9  8  2  0
 10 11  2  0
 11 12  1  0
 12  4  1  0
 13  2  1  0
 13 14  2  0
 16 15  1  6
 16 18  1  0
 17 16  1  0
 18 19  1  6
 19 13  1  0
 20 18  1  0
 21 20  2  0
 22 20  1  0
 23 22  1  0
 23 30  1  0
 24 25  1  0
 23 24  1  1
 25 29  1  0
 26 27  1  0
 26 25  2  0
 27 28  1  0
 28 29  2  0
 30 32  1  0
 31 30  2  0
M  END
$$$$
