WVH.pdb
     RDKit          3D

 32 34  0  0  1  0  0  0  0  0999 V2000
    6.3459  -17.2151   23.8563 N   0  0  0  0  0  0  0  0  0  0  0  0
    7.5670  -16.4732   24.0800 C   0  0  1  0  0  0  0  0  0  0  0  0
    7.6900  -16.0943   25.5426 C   0  0  0  0  0  0  0  0  0  0  0  0
    6.8277  -14.9764   25.9297 C   0  0  0  0  0  0  0  0  0  0  0  0
    5.5190  -15.0505   26.4016 C   0  0  0  0  0  0  0  0  0  0  0  0
    5.0818  -13.8037   26.6426 N   0  0  0  0  0  0  0  0  0  0  0  0
    6.0523  -12.9214   26.3467 C   0  0  0  0  0  0  0  0  0  0  0  0
    6.1134  -11.5420   26.4138 C   0  0  0  0  0  0  0  0  0  0  0  0
    7.2531  -10.8730   26.0414 C   0  0  0  0  0  0  0  0  0  0  0  0
    8.3384  -11.6091   25.5978 C   0  0  0  0  0  0  0  0  0  0  0  0
    8.3079  -12.9658   25.5211 C   0  0  0  0  0  0  0  0  0  0  0  0
    7.1437  -13.6246   25.9030 C   0  0  0  0  0  0  0  0  0  0  0  0
    8.7093  -17.2950   23.6290 C   0  0  0  0  0  0  0  0  0  0  0  0
    8.6218  -18.5464   23.4596 O   0  0  0  0  0  0  0  0  0  0  0  0
   11.1386  -16.3185   20.7989 C   0  0  0  0  0  0  0  0  0  0  0  0
   11.9606  -16.6881   21.9908 C   0  0  2  0  0  0  0  0  0  0  0  0
   13.1532  -17.5115   21.5493 C   0  0  0  0  0  0  0  0  0  0  0  0
   11.1425  -17.4251   23.0364 C   0  0  2  0  0  0  0  0  0  0  0  0
    9.9568  -16.6791   23.3707 N   0  0  0  0  0  0  0  0  0  0  0  0
   11.9699  -17.6698   24.2643 C   0  0  0  0  0  0  0  0  0  0  0  0
   12.2414  -16.7264   25.0352 O   0  0  0  0  0  0  0  0  0  0  0  0
   12.4627  -18.9559   24.5866 N   0  0  0  0  0  0  0  0  0  0  0  0
   13.2190  -19.1396   25.8036 C   0  0  1  0  0  0  0  0  0  0  0  0
   14.3792  -18.1840   25.8916 C   0  0  0  0  0  0  0  0  0  0  0  0
   15.4436  -18.6312   24.9709 C   0  0  0  0  0  0  0  0  0  0  0  0
   15.3378  -19.7759   24.1755 C   0  0  0  0  0  0  0  0  0  0  0  0
   16.4478  -19.9373   23.4445 N   0  0  0  0  0  0  0  0  0  0  0  0
   17.2501  -18.9185   23.7628 C   0  0  0  0  0  0  0  0  0  0  0  0
   16.6505  -18.1344   24.6775 N   0  0  0  0  0  0  0  0  0  0  0  0
   12.2838  -18.9998   26.9288 C   0  0  0  0  0  0  0  0  0  0  0  0
   11.0757  -18.7768   26.7046 O   0  0  0  0  0  0  0  0  0  0  0  0
   12.7103  -19.1097   28.2337 O   0  0  0  0  0  0  0  0  0  0  0  0
  2  1  1  1
  2  3  1  0
  4  5  2  0
  4  3  1  0
  6  5  1  0
  7 12  2  0
  7  6  1  0
  8  7  1  0
  9 10  1  0
  9  8  2  0
 10 11  2  0
 11 12  1  0
 12  4  1  0
 13  2  1  0
 13 14  2  0
 16 15  1  6
 16 18  1  0
 17 16  1  0
 18 19  1  1
 19 13  1  0
 20 18  1  0
 21 20  2  0
 22 20  1  0
 23 22  1  0
 23 30  1  0
 24 25  1  0
 23 24  1  1
 25 29  1  0
 26 27  1  0
 26 25  2  0
 27 28  1  0
 28 29  2  0
 30 32  1  0
 31 30  2  0
M  END
$$$$
