WVH.pdb
     RDKit          3D

 32 34  0  0  1  0  0  0  0  0999 V2000
    6.8213  -16.7319   25.4637 N   0  0  0  0  0  0  0  0  0  0  0  0
    7.1413  -15.6918   24.5112 C   0  0  1  0  0  0  0  0  0  0  0  0
    8.3804  -14.9388   24.9535 C   0  0  0  0  0  0  0  0  0  0  0  0
    8.2583  -14.3478   26.2872 C   0  0  0  0  0  0  0  0  0  0  0  0
    8.8609  -14.7945   27.4612 C   0  0  0  0  0  0  0  0  0  0  0  0
    8.4967  -13.9787   28.4640 N   0  0  0  0  0  0  0  0  0  0  0  0
    7.6819  -13.0196   27.9907 C   0  0  0  0  0  0  0  0  0  0  0  0
    7.0411  -11.9550   28.5965 C   0  0  0  0  0  0  0  0  0  0  0  0
    6.2467  -11.1078   27.8642 C   0  0  0  0  0  0  0  0  0  0  0  0
    6.1017  -11.3426   26.5077 C   0  0  0  0  0  0  0  0  0  0  0  0
    6.7191  -12.3809   25.8845 C   0  0  0  0  0  0  0  0  0  0  0  0
    7.5196  -13.2276   26.6443 C   0  0  0  0  0  0  0  0  0  0  0  0
    7.3206  -16.3080   23.1801 C   0  0  0  0  0  0  0  0  0  0  0  0
    6.3905  -16.9291   22.5874 O   0  0  0  0  0  0  0  0  0  0  0  0
    6.6622  -14.2807   21.3068 C   0  0  0  0  0  0  0  0  0  0  0  0
    8.1413  -14.2912   21.0948 C   0  0  2  0  0  0  0  0  0  0  0  0
    8.4671  -13.6557   19.7587 C   0  0  0  0  0  0  0  0  0  0  0  0
    8.7171  -15.6930   21.1901 C   0  0  2  0  0  0  0  0  0  0  0  0
    8.5717  -16.2111   22.5259 N   0  0  0  0  0  0  0  0  0  0  0  0
   10.1623  -15.6886   20.7853 C   0  0  0  0  0  0  0  0  0  0  0  0
   10.4781  -15.5049   19.5919 O   0  0  0  0  0  0  0  0  0  0  0  0
   11.2000  -15.8885   21.7256 N   0  0  0  0  0  0  0  0  0  0  0  0
   12.2349  -16.8558   21.4425 C   0  0  1  0  0  0  0  0  0  0  0  0
   13.6078  -16.2405   21.5016 C   0  0  0  0  0  0  0  0  0  0  0  0
   13.7498  -15.2706   20.3971 C   0  0  0  0  0  0  0  0  0  0  0  0
   12.9019  -15.2449   19.2860 C   0  0  0  0  0  0  0  0  0  0  0  0
   13.2648  -14.2660   18.4479 N   0  0  0  0  0  0  0  0  0  0  0  0
   14.3232  -13.6750   19.0078 C   0  0  0  0  0  0  0  0  0  0  0  0
   14.6158  -14.2753   20.1760 N   0  0  0  0  0  0  0  0  0  0  0  0
   12.0710  -17.9666   22.3910 C   0  0  0  0  0  0  0  0  0  0  0  0
   11.1802  -17.9077   23.2641 O   0  0  0  0  0  0  0  0  0  0  0  0
   12.8816  -19.0788   22.3398 O   0  0  0  0  0  0  0  0  0  0  0  0
  2  1  1  1
  2  3  1  0
  4  5  2  0
  4  3  1  0
  6  5  1  0
  7 12  2  0
  7  6  1  0
  8  7  1  0
  9 10  1  0
  9  8  2  0
 10 11  2  0
 11 12  1  0
 12  4  1  0
 13  2  1  0
 13 14  2  0
 16 15  1  6
 16 18  1  0
 17 16  1  0
 18 19  1  1
 19 13  1  0
 20 18  1  0
 21 20  2  0
 22 20  1  0
 23 22  1  0
 23 30  1  0
 24 25  1  0
 23 24  1  1
 25 29  1  0
 26 27  1  0
 26 25  2  0
 27 28  1  0
 28 29  2  0
 30 32  1  0
 31 30  2  0
M  END
$$$$
