WVH.pdb
     RDKit          3D

 32 34  0  0  1  0  0  0  0  0999 V2000
    6.4261  -17.7378   24.5737 N   0  0  0  0  0  0  0  0  0  0  0  0
    6.9404  -16.4725   24.0984 C   0  0  1  0  0  0  0  0  0  0  0  0
    7.7139  -15.7740   25.1992 C   0  0  0  0  0  0  0  0  0  0  0  0
    6.9084  -14.8185   25.9617 C   0  0  0  0  0  0  0  0  0  0  0  0
    5.7408  -15.0852   26.6734 C   0  0  0  0  0  0  0  0  0  0  0  0
    5.3114  -13.9414   27.2313 N   0  0  0  0  0  0  0  0  0  0  0  0
    6.1517  -12.9416   26.9118 C   0  0  0  0  0  0  0  0  0  0  0  0
    6.1634  -11.5950   27.2241 C   0  0  0  0  0  0  0  0  0  0  0  0
    7.1614  -10.7766   26.7556 C   0  0  0  0  0  0  0  0  0  0  0  0
    8.1543  -11.3288   25.9646 C   0  0  0  0  0  0  0  0  0  0  0  0
    8.1692  -12.6488   25.6409 C   0  0  0  0  0  0  0  0  0  0  0  0
    7.1491  -13.4609   26.1257 C   0  0  0  0  0  0  0  0  0  0  0  0
    7.7825  -16.7205   22.9097 C   0  0  0  0  0  0  0  0  0  0  0  0
    7.9586  -17.8789   22.4308 O   0  0  0  0  0  0  0  0  0  0  0  0
    7.0753  -13.5699   20.6005 C   0  0  0  0  0  0  0  0  0  0  0  0
    8.4486  -14.1121   20.3704 C   0  0  2  0  0  0  0  0  0  0  0  0
    8.8078  -13.9792   18.9046 C   0  0  0  0  0  0  0  0  0  0  0  0
    8.5747  -15.5515   20.8374 C   0  0  2  0  0  0  0  0  0  0  0  0
    8.4248  -15.6355   22.2672 N   0  0  0  0  0  0  0  0  0  0  0  0
    9.8985  -16.1193   20.4161 C   0  0  0  0  0  0  0  0  0  0  0  0
   10.2366  -16.0957   19.2148 O   0  0  0  0  0  0  0  0  0  0  0  0
   10.7949  -16.6910   21.3491 N   0  0  0  0  0  0  0  0  0  0  0  0
   12.0317  -17.2705   20.8787 C   0  0  1  0  0  0  0  0  0  0  0  0
   11.8179  -18.1407   19.6688 C   0  0  0  0  0  0  0  0  0  0  0  0
   10.9638  -19.2859   20.0429 C   0  0  0  0  0  0  0  0  0  0  0  0
   10.5091  -19.5094   21.3457 C   0  0  0  0  0  0  0  0  0  0  0  0
    9.7584  -20.6169   21.3916 N   0  0  0  0  0  0  0  0  0  0  0  0
    9.7310  -21.0955   20.1454 C   0  0  0  0  0  0  0  0  0  0  0  0
   10.4528  -20.2995   19.3352 N   0  0  0  0  0  0  0  0  0  0  0  0
   12.9668  -16.1657   20.6234 C   0  0  0  0  0  0  0  0  0  0  0  0
   12.5971  -14.9874   20.8090 O   0  0  0  0  0  0  0  0  0  0  0  0
   14.2499  -16.3998   20.1813 O   0  0  0  0  0  0  0  0  0  0  0  0
  2  1  1  1
  2  3  1  0
  4  5  2  0
  4  3  1  0
  6  5  1  0
  7 12  2  0
  7  6  1  0
  8  7  1  0
  9 10  1  0
  9  8  2  0
 10 11  2  0
 11 12  1  0
 12  4  1  0
 13  2  1  0
 13 14  2  0
 16 15  1  6
 16 18  1  0
 17 16  1  0
 18 19  1  1
 19 13  1  0
 20 18  1  0
 21 20  2  0
 22 20  1  0
 23 22  1  0
 23 30  1  0
 24 25  1  0
 23 24  1  6
 25 29  1  0
 26 27  1  0
 26 25  2  0
 27 28  1  0
 28 29  2  0
 30 32  1  0
 31 30  2  0
M  END
$$$$
