WVH.pdb
     RDKit          3D

 32 34  0  0  1  0  0  0  0  0999 V2000
    6.6657  -17.3851   23.5135 N   0  0  0  0  0  0  0  0  0  0  0  0
    7.1786  -16.0875   23.1333 C   0  0  1  0  0  0  0  0  0  0  0  0
    8.1279  -15.5674   24.1944 C   0  0  0  0  0  0  0  0  0  0  0  0
    7.4467  -14.9606   25.3393 C   0  0  0  0  0  0  0  0  0  0  0  0
    6.6103  -15.5988   26.2526 C   0  0  0  0  0  0  0  0  0  0  0  0
    6.1891  -14.6924   27.1499 N   0  0  0  0  0  0  0  0  0  0  0  0
    6.7171  -13.4909   26.8578 C   0  0  0  0  0  0  0  0  0  0  0  0
    6.6022  -12.2495   27.4551 C   0  0  0  0  0  0  0  0  0  0  0  0
    7.2627  -11.1615   26.9403 C   0  0  0  0  0  0  0  0  0  0  0  0
    8.0453  -11.3344   25.8116 C   0  0  0  0  0  0  0  0  0  0  0  0
    8.1773  -12.5425   25.2027 C   0  0  0  0  0  0  0  0  0  0  0  0
    7.4999  -13.6322   25.7399 C   0  0  0  0  0  0  0  0  0  0  0  0
    7.8402  -16.2073   21.8174 C   0  0  0  0  0  0  0  0  0  0  0  0
    8.1272  -17.3262   21.2999 O   0  0  0  0  0  0  0  0  0  0  0  0
    9.5760  -12.7170   19.8905 C   0  0  0  0  0  0  0  0  0  0  0  0
    8.7368  -13.6997   19.1403 C   0  0  2  0  0  0  0  0  0  0  0  0
    7.3183  -13.1784   19.0332 C   0  0  0  0  0  0  0  0  0  0  0  0
    8.7681  -15.0762   19.7806 C   0  0  2  0  0  0  0  0  0  0  0  0
    8.1737  -15.0390   21.0918 N   0  0  0  0  0  0  0  0  0  0  0  0
   10.1799  -15.5790   19.8605 C   0  0  0  0  0  0  0  0  0  0  0  0
   10.6768  -16.2060   18.9024 O   0  0  0  0  0  0  0  0  0  0  0  0
   10.9839  -15.3635   21.0041 N   0  0  0  0  0  0  0  0  0  0  0  0
   12.3152  -15.9227   21.0489 C   0  0  1  0  0  0  0  0  0  0  0  0
   13.3610  -14.8619   21.2677 C   0  0  0  0  0  0  0  0  0  0  0  0
   13.9576  -14.4969   19.9671 C   0  0  0  0  0  0  0  0  0  0  0  0
   13.7616  -15.2390   18.7988 C   0  0  0  0  0  0  0  0  0  0  0  0
   14.4195  -14.6779   17.7767 N   0  0  0  0  0  0  0  0  0  0  0  0
   15.0255  -13.5983   18.2768 C   0  0  0  0  0  0  0  0  0  0  0  0
   14.7503  -13.4877   19.5893 N   0  0  0  0  0  0  0  0  0  0  0  0
   12.3254  -16.9526   22.0974 C   0  0  0  0  0  0  0  0  0  0  0  0
   11.2787  -17.1986   22.7326 O   0  0  0  0  0  0  0  0  0  0  0  0
   13.4691  -17.6581   22.3986 O   0  0  0  0  0  0  0  0  0  0  0  0
  2  1  1  1
  2  3  1  0
  4  5  2  0
  4  3  1  0
  6  5  1  0
  7 12  2  0
  7  6  1  0
  8  7  1  0
  9 10  1  0
  9  8  2  0
 10 11  2  0
 11 12  1  0
 12  4  1  0
 13  2  1  0
 13 14  2  0
 16 15  1  1
 16 18  1  0
 17 16  1  0
 18 19  1  1
 19 13  1  0
 20 18  1  0
 21 20  2  0
 22 20  1  0
 23 22  1  0
 23 30  1  0
 24 25  1  0
 23 24  1  1
 25 29  1  0
 26 27  1  0
 26 25  2  0
 27 28  1  0
 28 29  2  0
 30 32  1  0
 31 30  2  0
M  END
$$$$
