WVH.pdb
     RDKit          3D

 32 34  0  0  1  0  0  0  0  0999 V2000
    6.1367  -16.9884   21.6783 N   0  0  0  0  0  0  0  0  0  0  0  0
    7.1306  -16.4081   22.5540 C   0  0  1  0  0  0  0  0  0  0  0  0
    6.8898  -14.9193   22.7067 C   0  0  0  0  0  0  0  0  0  0  0  0
    7.0728  -14.1687   21.4633 C   0  0  0  0  0  0  0  0  0  0  0  0
    6.0793  -13.5751   20.6876 C   0  0  0  0  0  0  0  0  0  0  0  0
    6.6602  -12.9847   19.6304 N   0  0  0  0  0  0  0  0  0  0  0  0
    7.9908  -13.1698   19.6863 C   0  0  0  0  0  0  0  0  0  0  0  0
    9.0249  -12.7741   18.8585 C   0  0  0  0  0  0  0  0  0  0  0  0
   10.3240  -13.1057   19.1544 C   0  0  0  0  0  0  0  0  0  0  0  0
   10.5753  -13.8438   20.2983 C   0  0  0  0  0  0  0  0  0  0  0  0
    9.5795  -14.2468   21.1310 C   0  0  0  0  0  0  0  0  0  0  0  0
    8.2702  -13.9007   20.8133 C   0  0  0  0  0  0  0  0  0  0  0  0
    7.0810  -17.1074   23.8549 C   0  0  0  0  0  0  0  0  0  0  0  0
    6.1521  -16.9182   24.6937 O   0  0  0  0  0  0  0  0  0  0  0  0
    6.9870  -20.6908   24.4241 C   0  0  0  0  0  0  0  0  0  0  0  0
    8.1579  -20.2291   25.2296 C   0  0  2  0  0  0  0  0  0  0  0  0
    8.1952  -20.9776   26.5462 C   0  0  0  0  0  0  0  0  0  0  0  0
    8.1343  -18.7273   25.4534 C   0  0  2  0  0  0  0  0  0  0  0  0
    8.1007  -18.0278   24.1950 N   0  0  0  0  0  0  0  0  0  0  0  0
    9.3301  -18.3038   26.2553 C   0  0  0  0  0  0  0  0  0  0  0  0
   10.4699  -18.3413   25.7482 O   0  0  0  0  0  0  0  0  0  0  0  0
    9.2101  -17.8542   27.5911 N   0  0  0  0  0  0  0  0  0  0  0  0
   10.3942  -17.4412   28.3080 C   0  0  1  0  0  0  0  0  0  0  0  0
   10.1137  -16.2894   29.2362 C   0  0  0  0  0  0  0  0  0  0  0  0
    9.5949  -15.1517   28.4505 C   0  0  0  0  0  0  0  0  0  0  0  0
    9.4785  -15.1721   27.0576 C   0  0  0  0  0  0  0  0  0  0  0  0
    8.9821  -14.0097   26.6164 N   0  0  0  0  0  0  0  0  0  0  0  0
    8.7835  -13.2579   27.7020 C   0  0  0  0  0  0  0  0  0  0  0  0
    9.1501  -13.9402   28.8024 N   0  0  0  0  0  0  0  0  0  0  0  0
   10.9172  -18.6209   29.0116 C   0  0  0  0  0  0  0  0  0  0  0  0
   11.9530  -18.5202   29.7019 O   0  0  0  0  0  0  0  0  0  0  0  0
   10.2884  -19.8432   28.9276 O   0  0  0  0  0  0  0  0  0  0  0  0
  2  1  1  6
  2  3  1  0
  4  5  2  0
  4  3  1  0
  6  5  1  0
  7 12  2  0
  7  6  1  0
  8  7  1  0
  9 10  1  0
  9  8  2  0
 10 11  2  0
 11 12  1  0
 12  4  1  0
 13  2  1  0
 13 14  2  0
 16 15  1  1
 16 18  1  0
 17 16  1  0
 18 19  1  6
 19 13  1  0
 20 18  1  0
 21 20  2  0
 22 20  1  0
 23 22  1  0
 23 30  1  0
 24 25  1  0
 23 24  1  1
 25 29  1  0
 26 27  1  0
 26 25  2  0
 27 28  1  0
 28 29  2  0
 30 32  1  0
 31 30  2  0
M  END
$$$$
