KYK.pdb
     RDKit          3D

 31 31  0  0  1  0  0  0  0  0999 V2000
   29.5921  -19.6689  -19.8952 N   0  0  0  0  0  0  0  0  0  0  0  0
   28.7956  -20.6604  -19.2528 C   0  0  1  0  0  0  0  0  0  0  0  0
   29.5883  -21.6334  -18.4547 C   0  0  0  0  0  0  0  0  0  0  0  0
   30.5511  -22.4661  -19.2289 C   0  0  0  0  0  0  0  0  0  0  0  0
   31.3156  -23.4843  -18.4553 C   0  0  0  0  0  0  0  0  0  0  0  0
   32.2244  -24.2328  -19.4454 C   0  0  0  0  0  0  0  0  0  0  0  0
   32.9074  -25.2878  -18.7219 N   0  0  0  0  0  0  0  0  0  0  0  0
   27.6932  -20.0373  -18.4759 C   0  0  0  0  0  0  0  0  0  0  0  0
   27.9718  -19.0631  -17.7401 O   0  0  0  0  0  0  0  0  0  0  0  0
   19.4135  -18.3715  -15.4879 O   0  0  0  0  0  0  0  0  0  0  0  0
   20.5350  -18.6986  -16.2500 C   0  0  0  0  0  0  0  0  0  0  0  0
   20.8059  -20.0022  -16.6072 C   0  0  0  0  0  0  0  0  0  0  0  0
   21.9180  -20.3090  -17.3603 C   0  0  0  0  0  0  0  0  0  0  0  0
   22.8242  -19.3331  -17.8007 C   0  0  0  0  0  0  0  0  0  0  0  0
   23.9781  -19.7767  -18.6087 C   0  0  0  0  0  0  0  0  0  0  0  0
   25.2406  -19.9970  -17.8003 C   0  0  2  0  0  0  0  0  0  0  0  0
   26.3567  -20.4970  -18.5349 N   0  0  0  0  0  0  0  0  0  0  0  0
   24.9392  -20.7185  -16.5494 C   0  0  0  0  0  0  0  0  0  0  0  0
   24.7432  -21.9689  -16.6626 O   0  0  0  0  0  0  0  0  0  0  0  0
   22.5419  -18.0403  -17.4380 C   0  0  0  0  0  0  0  0  0  0  0  0
   21.4116  -17.7247  -16.6719 C   0  0  0  0  0  0  0  0  0  0  0  0
   24.8641  -20.0952  -15.2849 N   0  0  0  0  0  0  0  0  0  0  0  0
   24.5630  -20.8883  -14.1101 C   0  0  1  0  0  0  0  0  0  0  0  0
   25.3593  -20.3571  -12.9692 C   0  0  0  0  0  0  0  0  0  0  0  0
   25.1019  -21.0156  -11.6573 C   0  0  0  0  0  0  0  0  0  0  0  0
   25.9853  -20.4099  -10.5854 C   0  0  0  0  0  0  0  0  0  0  0  0
   25.9813  -21.2816   -9.3299 C   0  0  0  0  0  0  0  0  0  0  0  0
   24.6013  -21.2610   -8.8442 N   0  0  0  0  0  0  0  0  0  0  0  0
   23.0943  -20.8575  -13.8878 C   0  0  0  0  0  0  0  0  0  0  0  0
   22.4819  -21.9511  -13.8454 O   0  0  0  0  0  0  0  0  0  0  0  0
   22.3597  -19.7014  -13.7263 O   0  0  0  0  0  0  0  0  0  0  0  0
  2  1  1  1
  3  2  1  0
  4  3  1  0
  5  4  1  0
  6  5  1  0
  7  6  1  0
  8  2  1  0
  8  9  2  0
 10 11  1  0
 11 12  2  0
 12 13  1  0
 14 13  2  0
 14 15  1  0
 16 15  1  6
 16 17  1  0
 17  8  1  0
 18 16  1  0
 19 18  2  0
 20 14  1  0
 21 11  1  0
 21 20  2  0
 22 18  1  0
 23 24  1  1
 23 22  1  0
 24 25  1  0
 25 26  1  0
 26 27  1  0
 27 28  1  0
 29 23  1  0
 30 29  2  0
 31 29  1  0
M  END
$$$$
