KYK.pdb
     RDKit          3D

 31 31  0  0  1  0  0  0  0  0999 V2000
   28.6740  -22.7638  -17.8210 N   0  0  0  0  0  0  0  0  0  0  0  0
   28.4962  -21.5164  -17.1559 C   0  0  1  0  0  0  0  0  0  0  0  0
   28.0754  -20.4149  -18.0624 C   0  0  0  0  0  0  0  0  0  0  0  0
   28.3496  -20.6343  -19.5104 C   0  0  0  0  0  0  0  0  0  0  0  0
   29.3519  -19.7283  -20.1381 C   0  0  0  0  0  0  0  0  0  0  0  0
   29.4030  -20.0620  -21.6390 C   0  0  0  0  0  0  0  0  0  0  0  0
   30.4651  -19.2782  -22.2395 N   0  0  0  0  0  0  0  0  0  0  0  0
   27.6079  -21.6642  -15.9744 C   0  0  0  0  0  0  0  0  0  0  0  0
   26.5274  -22.2787  -16.1260 O   0  0  0  0  0  0  0  0  0  0  0  0
   24.4536  -20.6068   -7.6273 O   0  0  0  0  0  0  0  0  0  0  0  0
   25.2618  -20.6330   -8.7638 C   0  0  0  0  0  0  0  0  0  0  0  0
   25.7684  -19.4742   -9.3123 C   0  0  0  0  0  0  0  0  0  0  0  0
   26.5652  -19.5169  -10.4354 C   0  0  0  0  0  0  0  0  0  0  0  0
   26.9026  -20.7181  -11.0764 C   0  0  0  0  0  0  0  0  0  0  0  0
   27.7701  -20.6443  -12.2694 C   0  0  0  0  0  0  0  0  0  0  0  0
   27.0978  -21.1160  -13.5428 C   0  0  2  0  0  0  0  0  0  0  0  0
   27.9322  -21.1435  -14.6997 N   0  0  0  0  0  0  0  0  0  0  0  0
   25.7963  -20.4458  -13.7241 C   0  0  0  0  0  0  0  0  0  0  0  0
   25.8284  -19.3195  -14.3117 O   0  0  0  0  0  0  0  0  0  0  0  0
   26.3916  -21.8632  -10.5194 C   0  0  0  0  0  0  0  0  0  0  0  0
   25.5807  -21.8233   -9.3771 C   0  0  0  0  0  0  0  0  0  0  0  0
   24.5687  -20.9886  -13.2865 N   0  0  0  0  0  0  0  0  0  0  0  0
   23.3366  -20.2656  -13.5296 C   0  0  1  0  0  0  0  0  0  0  0  0
   23.0561  -20.2956  -14.9918 C   0  0  0  0  0  0  0  0  0  0  0  0
   21.7552  -19.6931  -15.3989 C   0  0  0  0  0  0  0  0  0  0  0  0
   21.5456  -19.8588  -16.8904 C   0  0  0  0  0  0  0  0  0  0  0  0
   20.2289  -19.2142  -17.3229 C   0  0  0  0  0  0  0  0  0  0  0  0
   20.1041  -19.5012  -18.7521 N   0  0  0  0  0  0  0  0  0  0  0  0
   22.2658  -20.8714  -12.6965 C   0  0  0  0  0  0  0  0  0  0  0  0
   22.4469  -22.0321  -12.2574 O   0  0  0  0  0  0  0  0  0  0  0  0
   21.0829  -20.2388  -12.3759 O   0  0  0  0  0  0  0  0  0  0  0  0
  2  1  1  6
  3  2  1  0
  4  3  1  0
  5  4  1  0
  6  5  1  0
  7  6  1  0
  8  2  1  0
  8  9  2  0
 10 11  1  0
 11 12  2  0
 12 13  1  0
 14 13  2  0
 14 15  1  0
 16 15  1  1
 16 17  1  0
 17  8  1  0
 18 16  1  0
 19 18  2  0
 20 14  1  0
 21 11  1  0
 21 20  2  0
 22 18  1  0
 23 24  1  6
 23 22  1  0
 24 25  1  0
 25 26  1  0
 26 27  1  0
 27 28  1  0
 29 23  1  0
 30 29  2  0
 31 29  1  0
M  END
$$$$
