KYK.pdb
     RDKit          3D

 31 31  0  0  1  0  0  0  0  0999 V2000
   27.7248  -30.3836  -16.6160 N   0  0  0  0  0  0  0  0  0  0  0  0
   26.9933  -31.6042  -16.6870 C   0  0  1  0  0  0  0  0  0  0  0  0
   27.3398  -32.5677  -15.6082 C   0  0  0  0  0  0  0  0  0  0  0  0
   28.7572  -33.0267  -15.5876 C   0  0  0  0  0  0  0  0  0  0  0  0
   29.2082  -33.8322  -16.7569 C   0  0  0  0  0  0  0  0  0  0  0  0
   30.6752  -34.2252  -16.5112 C   0  0  0  0  0  0  0  0  0  0  0  0
   31.1044  -35.0734  -17.6062 N   0  0  0  0  0  0  0  0  0  0  0  0
   25.5336  -31.3458  -16.7845 C   0  0  0  0  0  0  0  0  0  0  0  0
   25.0380  -30.4849  -16.0221 O   0  0  0  0  0  0  0  0  0  0  0  0
   24.4676  -25.5970  -19.1260 O   0  0  0  0  0  0  0  0  0  0  0  0
   24.0695  -26.9338  -19.1217 C   0  0  0  0  0  0  0  0  0  0  0  0
   24.8367  -27.9141  -19.7139 C   0  0  0  0  0  0  0  0  0  0  0  0
   24.4295  -29.2302  -19.7012 C   0  0  0  0  0  0  0  0  0  0  0  0
   23.2333  -29.6445  -19.0970 C   0  0  0  0  0  0  0  0  0  0  0  0
   22.9010  -31.0830  -19.1379 C   0  0  0  0  0  0  0  0  0  0  0  0
   23.2908  -31.8352  -17.8817 C   0  0  2  0  0  0  0  0  0  0  0  0
   24.6921  -32.0272  -17.6948 N   0  0  0  0  0  0  0  0  0  0  0  0
   22.4652  -33.0474  -17.7228 C   0  0  0  0  0  0  0  0  0  0  0  0
   23.0061  -34.1393  -18.0834 O   0  0  0  0  0  0  0  0  0  0  0  0
   22.4802  -28.6583  -18.5115 C   0  0  0  0  0  0  0  0  0  0  0  0
   22.8914  -27.3186  -18.5226 C   0  0  0  0  0  0  0  0  0  0  0  0
   21.1514  -33.0374  -17.2062 N   0  0  0  0  0  0  0  0  0  0  0  0
   20.4609  -34.2904  -16.9756 C   0  0  1  0  0  0  0  0  0  0  0  0
   19.4042  -34.0616  -15.9515 C   0  0  0  0  0  0  0  0  0  0  0  0
   18.6273  -35.2725  -15.5629 C   0  0  0  0  0  0  0  0  0  0  0  0
   17.6251  -34.9263  -14.4803 C   0  0  0  0  0  0  0  0  0  0  0  0
   16.8718  -36.1761  -14.0258 C   0  0  0  0  0  0  0  0  0  0  0  0
   15.9896  -35.7301  -12.9472 N   0  0  0  0  0  0  0  0  0  0  0  0
   19.9436  -34.7867  -18.2770 C   0  0  0  0  0  0  0  0  0  0  0  0
   19.7950  -36.0239  -18.4186 O   0  0  0  0  0  0  0  0  0  0  0  0
   19.6170  -33.9728  -19.3415 O   0  0  0  0  0  0  0  0  0  0  0  0
  2  1  1  1
  3  2  1  0
  4  3  1  0
  5  4  1  0
  6  5  1  0
  7  6  1  0
  8  2  1  0
  8  9  2  0
 10 11  1  0
 11 12  2  0
 12 13  1  0
 14 13  2  0
 14 15  1  0
 16 15  1  6
 16 17  1  0
 17  8  1  0
 18 16  1  0
 19 18  2  0
 20 14  1  0
 21 11  1  0
 21 20  2  0
 22 18  1  0
 23 24  1  1
 23 22  1  0
 24 25  1  0
 25 26  1  0
 26 27  1  0
 27 28  1  0
 29 23  1  0
 30 29  2  0
 31 29  1  0
M  END
$$$$
