KYK.pdb
     RDKit          3D

 31 31  0  0  1  0  0  0  0  0999 V2000
   24.6897  -14.3432  -18.1105 N   0  0  0  0  0  0  0  0  0  0  0  0
   24.0942  -13.0921  -18.4424 C   0  0  1  0  0  0  0  0  0  0  0  0
   22.8615  -13.2208  -19.2645 C   0  0  0  0  0  0  0  0  0  0  0  0
   22.9232  -14.2267  -20.3619 C   0  0  0  0  0  0  0  0  0  0  0  0
   21.8337  -15.2424  -20.3897 C   0  0  0  0  0  0  0  0  0  0  0  0
   22.0471  -16.1175  -21.6368 C   0  0  0  0  0  0  0  0  0  0  0  0
   20.9482  -17.0600  -21.7200 N   0  0  0  0  0  0  0  0  0  0  0  0
   23.8957  -12.2578  -17.2293 C   0  0  0  0  0  0  0  0  0  0  0  0
   23.3366  -12.7842  -16.2403 O   0  0  0  0  0  0  0  0  0  0  0  0
   29.8036  -13.1597  -16.7497 O   0  0  0  0  0  0  0  0  0  0  0  0
   28.7444  -12.3233  -16.3974 C   0  0  0  0  0  0  0  0  0  0  0  0
   27.8824  -12.6484  -15.3720 C   0  0  0  0  0  0  0  0  0  0  0  0
   26.8408  -11.8116  -15.0362 C   0  0  0  0  0  0  0  0  0  0  0  0
   26.5988  -10.6019  -15.7039 C   0  0  0  0  0  0  0  0  0  0  0  0
   25.4568   -9.7808  -15.2534 C   0  0  0  0  0  0  0  0  0  0  0  0
   24.1807  -10.0315  -16.0310 C   0  0  2  0  0  0  0  0  0  0  0  0
   24.3094  -10.9073  -17.1498 N   0  0  0  0  0  0  0  0  0  0  0  0
   23.4799   -8.7627  -16.3054 C   0  0  0  0  0  0  0  0  0  0  0  0
   23.8221   -8.1576  -17.3691 O   0  0  0  0  0  0  0  0  0  0  0  0
   27.4647  -10.2913  -16.7219 C   0  0  0  0  0  0  0  0  0  0  0  0
   28.5252  -11.1403  -17.0662 C   0  0  0  0  0  0  0  0  0  0  0  0
   22.4848   -8.2204  -15.4635 N   0  0  0  0  0  0  0  0  0  0  0  0
   21.7853   -7.0155  -15.8623 C   0  0  1  0  0  0  0  0  0  0  0  0
   20.5904   -7.4092  -16.6592 C   0  0  0  0  0  0  0  0  0  0  0  0
   19.7204   -6.2803  -17.0947 C   0  0  0  0  0  0  0  0  0  0  0  0
   18.5209   -6.8073  -17.8559 C   0  0  0  0  0  0  0  0  0  0  0  0
   17.6447   -5.6537  -18.3434 C   0  0  0  0  0  0  0  0  0  0  0  0
   16.4899   -6.2837  -18.9840 N   0  0  0  0  0  0  0  0  0  0  0  0
   21.4654   -6.2333  -14.6403 C   0  0  0  0  0  0  0  0  0  0  0  0
   21.4301   -6.8415  -13.5441 O   0  0  0  0  0  0  0  0  0  0  0  0
   21.2031   -4.8792  -14.6343 O   0  0  0  0  0  0  0  0  0  0  0  0
  2  1  1  1
  3  2  1  0
  4  3  1  0
  5  4  1  0
  6  5  1  0
  7  6  1  0
  8  2  1  0
  8  9  2  0
 10 11  1  0
 11 12  2  0
 12 13  1  0
 14 13  2  0
 14 15  1  0
 16 15  1  6
 16 17  1  0
 17  8  1  0
 18 16  1  0
 19 18  2  0
 20 14  1  0
 21 11  1  0
 21 20  2  0
 22 18  1  0
 23 24  1  1
 23 22  1  0
 24 25  1  0
 25 26  1  0
 26 27  1  0
 27 28  1  0
 29 23  1  0
 30 29  2  0
 31 29  1  0
M  END
$$$$
