KYK.pdb
     RDKit          3D

 31 31  0  0  1  0  0  0  0  0999 V2000
   22.1555  -20.4853  -10.2221 N   0  0  0  0  0  0  0  0  0  0  0  0
   23.1661  -21.2675  -10.8520 C   0  0  1  0  0  0  0  0  0  0  0  0
   22.7663  -21.7919  -12.1852 C   0  0  0  0  0  0  0  0  0  0  0  0
   21.3006  -21.9532  -12.3990 C   0  0  0  0  0  0  0  0  0  0  0  0
   20.5448  -20.7197  -12.7550 C   0  0  0  0  0  0  0  0  0  0  0  0
   19.0953  -21.1356  -13.0596 C   0  0  0  0  0  0  0  0  0  0  0  0
   18.3417  -19.9399  -13.3839 N   0  0  0  0  0  0  0  0  0  0  0  0
   24.4616  -20.5410  -10.8812 C   0  0  0  0  0  0  0  0  0  0  0  0
   24.4398  -19.3120  -11.1199 O   0  0  0  0  0  0  0  0  0  0  0  0
   27.6913  -18.6489   -4.7487 O   0  0  0  0  0  0  0  0  0  0  0  0
   27.7702  -19.2214   -6.0181 C   0  0  0  0  0  0  0  0  0  0  0  0
   28.8923  -19.9096   -6.4277 C   0  0  0  0  0  0  0  0  0  0  0  0
   28.9548  -20.4693   -7.6850 C   0  0  0  0  0  0  0  0  0  0  0  0
   27.9015  -20.3749   -8.6065 C   0  0  0  0  0  0  0  0  0  0  0  0
   28.0762  -21.0202   -9.9235 C   0  0  0  0  0  0  0  0  0  0  0  0
   27.0029  -20.6553  -10.9289 C   0  0  2  0  0  0  0  0  0  0  0  0
   25.7042  -21.1771  -10.6523 N   0  0  0  0  0  0  0  0  0  0  0  0
   27.4846  -20.8702  -12.3066 C   0  0  0  0  0  0  0  0  0  0  0  0
   28.4518  -21.6841  -12.4364 O   0  0  0  0  0  0  0  0  0  0  0  0
   26.7912  -19.6875   -8.1852 C   0  0  0  0  0  0  0  0  0  0  0  0
   26.7244  -19.1169   -6.9070 C   0  0  0  0  0  0  0  0  0  0  0  0
   26.9323  -20.2308  -13.4375 N   0  0  0  0  0  0  0  0  0  0  0  0
   27.1963  -20.7584  -14.7611 C   0  0  1  0  0  0  0  0  0  0  0  0
   26.6842  -22.1555  -14.8195 C   0  0  0  0  0  0  0  0  0  0  0  0
   26.8750  -22.8450  -16.1269 C   0  0  0  0  0  0  0  0  0  0  0  0
   26.2696  -24.2334  -16.0797 C   0  0  0  0  0  0  0  0  0  0  0  0
   26.3981  -24.9221  -17.4381 C   0  0  0  0  0  0  0  0  0  0  0  0
   25.7810  -26.2379  -17.2692 N   0  0  0  0  0  0  0  0  0  0  0  0
   26.5805  -19.8471  -15.7601 C   0  0  0  0  0  0  0  0  0  0  0  0
   25.6045  -19.1483  -15.3970 O   0  0  0  0  0  0  0  0  0  0  0  0
   27.0133  -19.7211  -17.0636 O   0  0  0  0  0  0  0  0  0  0  0  0
  2  1  1  6
  3  2  1  0
  4  3  1  0
  5  4  1  0
  6  5  1  0
  7  6  1  0
  8  2  1  0
  8  9  2  0
 10 11  1  0
 11 12  2  0
 12 13  1  0
 14 13  2  0
 14 15  1  0
 16 15  1  1
 16 17  1  0
 17  8  1  0
 18 16  1  0
 19 18  2  0
 20 14  1  0
 21 11  1  0
 21 20  2  0
 22 18  1  0
 23 24  1  1
 23 22  1  0
 24 25  1  0
 25 26  1  0
 26 27  1  0
 27 28  1  0
 29 23  1  0
 30 29  2  0
 31 29  1  0
M  END
$$$$
