KYK.pdb
     RDKit          3D

 31 31  0  0  1  0  0  0  0  0999 V2000
   29.4252  -21.5105  -17.7558 N   0  0  0  0  0  0  0  0  0  0  0  0
   28.4921  -22.5865  -17.7174 C   0  0  1  0  0  0  0  0  0  0  0  0
   29.1266  -23.9269  -17.8316 C   0  0  0  0  0  0  0  0  0  0  0  0
   29.8828  -24.1745  -19.0913 C   0  0  0  0  0  0  0  0  0  0  0  0
   31.1338  -23.3871  -19.2771 C   0  0  0  0  0  0  0  0  0  0  0  0
   31.7559  -23.8143  -20.6176 C   0  0  0  0  0  0  0  0  0  0  0  0
   33.0002  -23.0895  -20.7888 N   0  0  0  0  0  0  0  0  0  0  0  0
   27.5931  -22.4707  -16.5404 C   0  0  0  0  0  0  0  0  0  0  0  0
   26.6596  -23.2982  -16.4315 O   0  0  0  0  0  0  0  0  0  0  0  0
   24.4680  -20.3853   -8.4858 O   0  0  0  0  0  0  0  0  0  0  0  0
   25.2271  -20.4067   -9.6558 C   0  0  0  0  0  0  0  0  0  0  0  0
   26.1645  -21.3908   -9.8864 C   0  0  0  0  0  0  0  0  0  0  0  0
   26.9065  -21.3979  -11.0472 C   0  0  0  0  0  0  0  0  0  0  0  0
   26.7562  -20.4237  -12.0452 C   0  0  0  0  0  0  0  0  0  0  0  0
   27.6005  -20.5352  -13.2518 C   0  0  0  0  0  0  0  0  0  0  0  0
   26.9327  -21.2671  -14.3983 C   0  0  2  0  0  0  0  0  0  0  0  0
   27.7497  -21.4733  -15.5496 N   0  0  0  0  0  0  0  0  0  0  0  0
   25.5974  -20.7021  -14.6700 C   0  0  0  0  0  0  0  0  0  0  0  0
   25.5790  -19.5926  -15.2892 O   0  0  0  0  0  0  0  0  0  0  0  0
   25.8197  -19.4509  -11.8023 C   0  0  0  0  0  0  0  0  0  0  0  0
   25.0633  -19.4406  -10.6225 C   0  0  0  0  0  0  0  0  0  0  0  0
   24.3907  -21.3243  -14.2829 N   0  0  0  0  0  0  0  0  0  0  0  0
   23.1263  -20.6708  -14.5553 C   0  0  1  0  0  0  0  0  0  0  0  0
   22.5230  -21.3017  -15.7619 C   0  0  0  0  0  0  0  0  0  0  0  0
   21.1879  -20.7681  -16.1540 C   0  0  0  0  0  0  0  0  0  0  0  0
   20.6309  -21.5577  -17.3213 C   0  0  0  0  0  0  0  0  0  0  0  0
   19.3560  -20.9035  -17.8529 C   0  0  0  0  0  0  0  0  0  0  0  0
   18.8162  -21.8421  -18.8371 N   0  0  0  0  0  0  0  0  0  0  0  0
   22.2794  -20.7632  -13.3380 C   0  0  0  0  0  0  0  0  0  0  0  0
   21.6676  -19.7334  -12.9665 O   0  0  0  0  0  0  0  0  0  0  0  0
   22.1237  -21.9103  -12.5882 O   0  0  0  0  0  0  0  0  0  0  0  0
  2  1  1  1
  3  2  1  0
  4  3  1  0
  5  4  1  0
  6  5  1  0
  7  6  1  0
  8  2  1  0
  8  9  2  0
 10 11  1  0
 11 12  2  0
 12 13  1  0
 14 13  2  0
 14 15  1  0
 16 15  1  1
 16 17  1  0
 17  8  1  0
 18 16  1  0
 19 18  2  0
 20 14  1  0
 21 11  1  0
 21 20  2  0
 22 18  1  0
 23 24  1  6
 23 22  1  0
 24 25  1  0
 25 26  1  0
 26 27  1  0
 27 28  1  0
 29 23  1  0
 30 29  2  0
 31 29  1  0
M  END
$$$$
