KYK.pdb
     RDKit          3D

 31 31  0  0  1  0  0  0  0  0999 V2000
   29.0791  -21.1147  -17.4274 N   0  0  0  0  0  0  0  0  0  0  0  0
   28.0261  -22.0742  -17.4532 C   0  0  1  0  0  0  0  0  0  0  0  0
   28.4586  -23.4179  -17.9220 C   0  0  0  0  0  0  0  0  0  0  0  0
   28.4564  -23.6144  -19.3989 C   0  0  0  0  0  0  0  0  0  0  0  0
   27.3877  -22.9070  -20.1584 C   0  0  0  0  0  0  0  0  0  0  0  0
   27.5036  -23.3362  -21.6312 C   0  0  0  0  0  0  0  0  0  0  0  0
   26.4341  -22.6968  -22.3729 N   0  0  0  0  0  0  0  0  0  0  0  0
   27.3131  -22.1182  -16.1506 C   0  0  0  0  0  0  0  0  0  0  0  0
   26.3555  -22.9163  -16.0325 O   0  0  0  0  0  0  0  0  0  0  0  0
   24.9854  -20.0272   -7.7382 O   0  0  0  0  0  0  0  0  0  0  0  0
   25.6720  -20.1882   -8.9416 C   0  0  0  0  0  0  0  0  0  0  0  0
   26.0399  -19.1042   -9.7097 C   0  0  0  0  0  0  0  0  0  0  0  0
   26.7176  -19.2799  -10.8961 C   0  0  0  0  0  0  0  0  0  0  0  0
   27.0677  -20.5472  -11.3851 C   0  0  0  0  0  0  0  0  0  0  0  0
   27.8005  -20.6152  -12.6655 C   0  0  0  0  0  0  0  0  0  0  0  0
   26.9825  -21.1836  -13.8073 C   0  0  2  0  0  0  0  0  0  0  0  0
   27.6705  -21.3025  -15.0515 N   0  0  0  0  0  0  0  0  0  0  0  0
   25.6633  -20.5273  -13.8806 C   0  0  0  0  0  0  0  0  0  0  0  0
   25.6402  -19.3873  -14.4414 O   0  0  0  0  0  0  0  0  0  0  0  0
   26.6954  -21.6166  -10.6102 C   0  0  0  0  0  0  0  0  0  0  0  0
   26.0058  -21.4414   -9.4029 C   0  0  0  0  0  0  0  0  0  0  0  0
   24.4764  -21.0971  -13.3712 N   0  0  0  0  0  0  0  0  0  0  0  0
   23.2154  -20.4043  -13.5442 C   0  0  1  0  0  0  0  0  0  0  0  0
   22.7877  -20.5565  -14.9624 C   0  0  0  0  0  0  0  0  0  0  0  0
   22.7260  -19.2892  -15.7441 C   0  0  0  0  0  0  0  0  0  0  0  0
   22.2771  -19.5711  -17.1637 C   0  0  0  0  0  0  0  0  0  0  0  0
   22.2177  -18.2773  -17.9754 C   0  0  0  0  0  0  0  0  0  0  0  0
   21.8012  -18.6780  -19.3195 N   0  0  0  0  0  0  0  0  0  0  0  0
   22.2442  -20.9458  -12.5588 C   0  0  0  0  0  0  0  0  0  0  0  0
   22.5177  -22.0345  -11.9995 O   0  0  0  0  0  0  0  0  0  0  0  0
   21.0586  -20.3278  -12.2201 O   0  0  0  0  0  0  0  0  0  0  0  0
  2  1  1  1
  3  2  1  0
  4  3  1  0
  5  4  1  0
  6  5  1  0
  7  6  1  0
  8  2  1  0
  8  9  2  0
 10 11  1  0
 11 12  2  0
 12 13  1  0
 14 13  2  0
 14 15  1  0
 16 15  1  1
 16 17  1  0
 17  8  1  0
 18 16  1  0
 19 18  2  0
 20 14  1  0
 21 11  1  0
 21 20  2  0
 22 18  1  0
 23 24  1  6
 23 22  1  0
 24 25  1  0
 25 26  1  0
 26 27  1  0
 27 28  1  0
 29 23  1  0
 30 29  2  0
 31 29  1  0
M  END
$$$$
