KYK.pdb
     RDKit          3D

 31 31  0  0  1  0  0  0  0  0999 V2000
   28.0436  -20.8079  -17.1295 N   0  0  0  0  0  0  0  0  0  0  0  0
   27.0249  -21.8040  -17.1310 C   0  0  1  0  0  0  0  0  0  0  0  0
   27.4401  -23.0768  -17.7788 C   0  0  0  0  0  0  0  0  0  0  0  0
   28.6721  -23.0010  -18.6133 C   0  0  0  0  0  0  0  0  0  0  0  0
   28.5766  -22.1926  -19.8611 C   0  0  0  0  0  0  0  0  0  0  0  0
   29.9027  -22.3579  -20.6233 C   0  0  0  0  0  0  0  0  0  0  0  0
   29.9048  -21.4239  -21.7326 N   0  0  0  0  0  0  0  0  0  0  0  0
   26.4722  -22.0031  -15.7665 C   0  0  0  0  0  0  0  0  0  0  0  0
   25.5417  -22.8291  -15.6251 O   0  0  0  0  0  0  0  0  0  0  0  0
   24.3532  -20.4018   -7.2979 O   0  0  0  0  0  0  0  0  0  0  0  0
   25.0293  -20.4047   -8.5179 C   0  0  0  0  0  0  0  0  0  0  0  0
   25.3423  -21.5819   -9.1633 C   0  0  0  0  0  0  0  0  0  0  0  0
   26.0107  -21.5679  -10.3679 C   0  0  0  0  0  0  0  0  0  0  0  0
   26.4055  -20.3787  -10.9985 C   0  0  0  0  0  0  0  0  0  0  0  0
   27.1102  -20.4840  -12.2921 C   0  0  0  0  0  0  0  0  0  0  0  0
   26.2776  -21.1124  -13.3911 C   0  0  2  0  0  0  0  0  0  0  0  0
   26.9513  -21.3035  -14.6341 N   0  0  0  0  0  0  0  0  0  0  0  0
   24.9598  -20.4563  -13.4866 C   0  0  0  0  0  0  0  0  0  0  0  0
   24.9513  -19.3010  -14.0157 O   0  0  0  0  0  0  0  0  0  0  0  0
   26.0872  -19.2151  -10.3449 C   0  0  0  0  0  0  0  0  0  0  0  0
   25.4075  -19.2257   -9.1194 C   0  0  0  0  0  0  0  0  0  0  0  0
   23.7590  -21.0419  -13.0302 N   0  0  0  0  0  0  0  0  0  0  0  0
   22.5137  -20.3100  -13.1464 C   0  0  1  0  0  0  0  0  0  0  0  0
   21.7685  -20.8367  -14.3232 C   0  0  0  0  0  0  0  0  0  0  0  0
   20.4288  -20.2245  -14.5494 C   0  0  0  0  0  0  0  0  0  0  0  0
   19.7494  -20.8758  -15.7371 C   0  0  0  0  0  0  0  0  0  0  0  0
   18.4579  -20.1378  -16.0885 C   0  0  0  0  0  0  0  0  0  0  0  0
   17.9004  -20.8514  -17.2378 N   0  0  0  0  0  0  0  0  0  0  0  0
   21.7774  -20.4311  -11.8616 C   0  0  0  0  0  0  0  0  0  0  0  0
   20.8646  -19.6042  -11.6256 O   0  0  0  0  0  0  0  0  0  0  0  0
   22.0349  -21.3953  -10.9095 O   0  0  0  0  0  0  0  0  0  0  0  0
  2  1  1  1
  3  2  1  0
  4  3  1  0
  5  4  1  0
  6  5  1  0
  7  6  1  0
  8  2  1  0
  8  9  2  0
 10 11  1  0
 11 12  2  0
 12 13  1  0
 14 13  2  0
 14 15  1  0
 16 15  1  1
 16 17  1  0
 17  8  1  0
 18 16  1  0
 19 18  2  0
 20 14  1  0
 21 11  1  0
 21 20  2  0
 22 18  1  0
 23 24  1  6
 23 22  1  0
 24 25  1  0
 25 26  1  0
 26 27  1  0
 27 28  1  0
 29 23  1  0
 30 29  2  0
 31 29  1  0
M  END
$$$$
