KYK.pdb
     RDKit          3D

 31 31  0  0  1  0  0  0  0  0999 V2000
   21.6291  -21.8416  -14.9177 N   0  0  0  0  0  0  0  0  0  0  0  0
   20.2932  -22.1336  -14.5175 C   0  0  1  0  0  0  0  0  0  0  0  0
   19.4496  -22.6761  -15.6157 C   0  0  0  0  0  0  0  0  0  0  0  0
   20.0448  -22.6023  -16.9796 C   0  0  0  0  0  0  0  0  0  0  0  0
   20.6964  -23.8432  -17.4845 C   0  0  0  0  0  0  0  0  0  0  0  0
   21.1478  -23.5746  -18.9305 C   0  0  0  0  0  0  0  0  0  0  0  0
   21.9020  -24.7253  -19.3887 N   0  0  0  0  0  0  0  0  0  0  0  0
   20.2756  -22.9850  -13.3002 C   0  0  0  0  0  0  0  0  0  0  0  0
   21.3724  -23.2690  -12.7670 O   0  0  0  0  0  0  0  0  0  0  0  0
   17.3241  -24.9432   -5.2205 O   0  0  0  0  0  0  0  0  0  0  0  0
   17.6294  -24.4259   -6.4794 C   0  0  0  0  0  0  0  0  0  0  0  0
   18.9158  -24.4516   -6.9742 C   0  0  0  0  0  0  0  0  0  0  0  0
   19.2012  -23.9365   -8.2196 C   0  0  0  0  0  0  0  0  0  0  0  0
   18.2199  -23.3660   -9.0436 C   0  0  0  0  0  0  0  0  0  0  0  0
   18.6395  -22.8517  -10.3629 C   0  0  0  0  0  0  0  0  0  0  0  0
   18.8926  -23.9377  -11.3888 C   0  0  2  0  0  0  0  0  0  0  0  0
   19.0812  -23.4813  -12.7273 N   0  0  0  0  0  0  0  0  0  0  0  0
   17.9232  -25.0386  -11.2325 C   0  0  0  0  0  0  0  0  0  0  0  0
   16.7192  -24.7658  -11.5337 O   0  0  0  0  0  0  0  0  0  0  0  0
   16.9443  -23.3475   -8.5384 C   0  0  0  0  0  0  0  0  0  0  0  0
   16.6505  -23.8705   -7.2718 C   0  0  0  0  0  0  0  0  0  0  0  0
   18.2713  -26.3295  -10.7792 N   0  0  0  0  0  0  0  0  0  0  0  0
   17.2651  -27.3715  -10.7374 C   0  0  1  0  0  0  0  0  0  0  0  0
   17.9119  -28.6625  -11.1013 C   0  0  0  0  0  0  0  0  0  0  0  0
   19.3127  -28.8261  -10.6196 C   0  0  0  0  0  0  0  0  0  0  0  0
   19.7788  -30.2511  -10.8398 C   0  0  0  0  0  0  0  0  0  0  0  0
   21.1888  -30.4472  -10.2834 C   0  0  0  0  0  0  0  0  0  0  0  0
   21.4783  -31.8722  -10.4454 N   0  0  0  0  0  0  0  0  0  0  0  0
   16.6418  -27.3670   -9.3886 C   0  0  0  0  0  0  0  0  0  0  0  0
   17.3604  -27.0565   -8.4088 O   0  0  0  0  0  0  0  0  0  0  0  0
   15.3220  -27.6844   -9.1444 O   0  0  0  0  0  0  0  0  0  0  0  0
  2  1  1  6
  3  2  1  0
  4  3  1  0
  5  4  1  0
  6  5  1  0
  7  6  1  0
  8  2  1  0
  8  9  2  0
 10 11  1  0
 11 12  2  0
 12 13  1  0
 14 13  2  0
 14 15  1  0
 16 15  1  1
 16 17  1  0
 17  8  1  0
 18 16  1  0
 19 18  2  0
 20 14  1  0
 21 11  1  0
 21 20  2  0
 22 18  1  0
 23 24  1  1
 23 22  1  0
 24 25  1  0
 25 26  1  0
 26 27  1  0
 27 28  1  0
 29 23  1  0
 30 29  2  0
 31 29  1  0
M  END
$$$$
