KYK.pdb
     RDKit          3D

 31 31  0  0  1  0  0  0  0  0999 V2000
   24.4619  -19.2952  -15.5450 N   0  0  0  0  0  0  0  0  0  0  0  0
   23.5152  -20.3549  -15.6496 C   0  0  1  0  0  0  0  0  0  0  0  0
   24.1399  -21.6995  -15.7677 C   0  0  0  0  0  0  0  0  0  0  0  0
   25.1985  -21.8271  -16.8084 C   0  0  0  0  0  0  0  0  0  0  0  0
   25.6992  -23.2043  -17.0767 C   0  0  0  0  0  0  0  0  0  0  0  0
   27.1876  -23.2403  -16.6896 C   0  0  0  0  0  0  0  0  0  0  0  0
   27.7014  -24.5615  -16.9951 N   0  0  0  0  0  0  0  0  0  0  0  0
   22.5077  -20.2790  -14.5605 C   0  0  0  0  0  0  0  0  0  0  0  0
   22.8791  -19.8421  -13.4473 O   0  0  0  0  0  0  0  0  0  0  0  0
   20.5527  -14.0481  -14.2301 O   0  0  0  0  0  0  0  0  0  0  0  0
   20.1818  -15.3925  -14.2525 C   0  0  0  0  0  0  0  0  0  0  0  0
   19.5160  -15.9721  -13.1937 C   0  0  0  0  0  0  0  0  0  0  0  0
   19.1567  -17.3016  -13.2311 C   0  0  0  0  0  0  0  0  0  0  0  0
   19.4407  -18.1298  -14.3270 C   0  0  0  0  0  0  0  0  0  0  0  0
   19.0012  -19.5382  -14.2605 C   0  0  0  0  0  0  0  0  0  0  0  0
   20.0862  -20.4954  -13.8104 C   0  0  2  0  0  0  0  0  0  0  0  0
   21.1609  -20.6767  -14.7309 N   0  0  0  0  0  0  0  0  0  0  0  0
   19.4966  -21.7401  -13.2818 C   0  0  0  0  0  0  0  0  0  0  0  0
   19.3910  -22.6996  -14.1082 O   0  0  0  0  0  0  0  0  0  0  0  0
   20.1034  -17.5395  -15.3734 C   0  0  0  0  0  0  0  0  0  0  0  0
   20.4705  -16.1874  -15.3385 C   0  0  0  0  0  0  0  0  0  0  0  0
   19.0642  -21.8959  -11.9469 N   0  0  0  0  0  0  0  0  0  0  0  0
   18.5613  -23.1795  -11.5003 C   0  0  1  0  0  0  0  0  0  0  0  0
   18.5043  -23.1686  -10.0122 C   0  0  0  0  0  0  0  0  0  0  0  0
   17.9531  -24.4061   -9.3912 C   0  0  0  0  0  0  0  0  0  0  0  0
   18.0820  -24.3370   -7.8829 C   0  0  0  0  0  0  0  0  0  0  0  0
   17.5974  -25.6372   -7.2421 C   0  0  0  0  0  0  0  0  0  0  0  0
   17.8175  -25.4705   -5.8053 N   0  0  0  0  0  0  0  0  0  0  0  0
   17.2489  -23.4215  -12.1534 C   0  0  0  0  0  0  0  0  0  0  0  0
   17.0288  -24.5608  -12.6290 O   0  0  0  0  0  0  0  0  0  0  0  0
   16.2560  -22.4715  -12.2716 O   0  0  0  0  0  0  0  0  0  0  0  0
  2  1  1  1
  3  2  1  0
  4  3  1  0
  5  4  1  0
  6  5  1  0
  7  6  1  0
  8  2  1  0
  8  9  2  0
 10 11  1  0
 11 12  2  0
 12 13  1  0
 14 13  2  0
 14 15  1  0
 16 15  1  6
 16 17  1  0
 17  8  1  0
 18 16  1  0
 19 18  2  0
 20 14  1  0
 21 11  1  0
 21 20  2  0
 22 18  1  0
 23 24  1  1
 23 22  1  0
 24 25  1  0
 25 26  1  0
 26 27  1  0
 27 28  1  0
 29 23  1  0
 30 29  2  0
 31 29  1  0
M  END
$$$$
