KYK.pdb
     RDKit          3D

 31 31  0  0  1  0  0  0  0  0999 V2000
   26.6123  -22.3958  -19.7492 N   0  0  0  0  0  0  0  0  0  0  0  0
   26.2019  -22.2136  -18.3970 C   0  0  1  0  0  0  0  0  0  0  0  0
   27.3287  -21.9352  -17.4670 C   0  0  0  0  0  0  0  0  0  0  0  0
   28.5391  -22.7842  -17.6518 C   0  0  0  0  0  0  0  0  0  0  0  0
   28.3516  -24.2510  -17.4707 C   0  0  0  0  0  0  0  0  0  0  0  0
   29.7330  -24.9150  -17.6033 C   0  0  0  0  0  0  0  0  0  0  0  0
   30.3613  -24.9139  -16.2964 N   0  0  0  0  0  0  0  0  0  0  0  0
   25.1118  -21.2088  -18.3016 C   0  0  0  0  0  0  0  0  0  0  0  0
   24.6896  -20.9077  -17.1619 O   0  0  0  0  0  0  0  0  0  0  0  0
   19.2703  -14.8056  -20.1582 O   0  0  0  0  0  0  0  0  0  0  0  0
   20.2833  -15.7574  -20.2736 C   0  0  0  0  0  0  0  0  0  0  0  0
   21.4604  -15.6437  -19.5652 C   0  0  0  0  0  0  0  0  0  0  0  0
   22.4516  -16.5923  -19.6902 C   0  0  0  0  0  0  0  0  0  0  0  0
   22.3259  -17.7094  -20.5292 C   0  0  0  0  0  0  0  0  0  0  0  0
   23.4500  -18.6660  -20.5787 C   0  0  0  0  0  0  0  0  0  0  0  0
   23.4338  -19.6852  -19.4576 C   0  0  2  0  0  0  0  0  0  0  0  0
   24.5393  -20.5867  -19.4358 N   0  0  0  0  0  0  0  0  0  0  0  0
   22.1060  -20.3186  -19.3483 C   0  0  0  0  0  0  0  0  0  0  0  0
   21.8888  -21.2931  -20.1344 O   0  0  0  0  0  0  0  0  0  0  0  0
   21.1492  -17.8097  -21.2278 C   0  0  0  0  0  0  0  0  0  0  0  0
   20.1390  -16.8465  -21.1030 C   0  0  0  0  0  0  0  0  0  0  0  0
   21.1106  -19.8981  -18.4398 N   0  0  0  0  0  0  0  0  0  0  0  0
   19.8792  -20.6531  -18.3236 C   0  0  1  0  0  0  0  0  0  0  0  0
   19.7637  -21.1491  -16.9242 C   0  0  0  0  0  0  0  0  0  0  0  0
   18.7170  -22.1871  -16.7053 C   0  0  0  0  0  0  0  0  0  0  0  0
   18.6467  -22.5583  -15.2378 C   0  0  0  0  0  0  0  0  0  0  0  0
   17.6642  -23.7088  -15.0210 C   0  0  0  0  0  0  0  0  0  0  0  0
   17.5598  -23.8655  -13.5701 N   0  0  0  0  0  0  0  0  0  0  0  0
   18.7536  -19.7823  -18.7507 C   0  0  0  0  0  0  0  0  0  0  0  0
   17.9949  -20.2024  -19.6566 O   0  0  0  0  0  0  0  0  0  0  0  0
   18.4902  -18.5390  -18.2150 O   0  0  0  0  0  0  0  0  0  0  0  0
  2  1  1  6
  3  2  1  0
  4  3  1  0
  5  4  1  0
  6  5  1  0
  7  6  1  0
  8  2  1  0
  8  9  2  0
 10 11  1  0
 11 12  2  0
 12 13  1  0
 14 13  2  0
 14 15  1  0
 16 15  1  6
 16 17  1  0
 17  8  1  0
 18 16  1  0
 19 18  2  0
 20 14  1  0
 21 11  1  0
 21 20  2  0
 22 18  1  0
 23 24  1  1
 23 22  1  0
 24 25  1  0
 25 26  1  0
 26 27  1  0
 27 28  1  0
 29 23  1  0
 30 29  2  0
 31 29  1  0
M  END
$$$$
