KYK.pdb
     RDKit          3D

 31 31  0  0  1  0  0  0  0  0999 V2000
   28.1657  -23.4606  -16.8901 N   0  0  0  0  0  0  0  0  0  0  0  0
   27.3774  -22.2751  -16.9472 C   0  0  1  0  0  0  0  0  0  0  0  0
   26.7609  -22.0357  -18.2794 C   0  0  0  0  0  0  0  0  0  0  0  0
   27.7008  -21.6148  -19.3561 C   0  0  0  0  0  0  0  0  0  0  0  0
   28.0953  -20.1782  -19.3650 C   0  0  0  0  0  0  0  0  0  0  0  0
   29.0073  -19.9552  -20.5837 C   0  0  0  0  0  0  0  0  0  0  0  0
   29.5144  -18.5979  -20.5253 N   0  0  0  0  0  0  0  0  0  0  0  0
   26.3899  -22.2377  -15.8379 C   0  0  0  0  0  0  0  0  0  0  0  0
   25.3656  -22.9507  -15.9400 O   0  0  0  0  0  0  0  0  0  0  0  0
   22.6003  -20.4456   -7.9520 O   0  0  0  0  0  0  0  0  0  0  0  0
   23.4636  -20.4515   -9.0475 C   0  0  0  0  0  0  0  0  0  0  0  0
   24.5525  -21.2952   -9.0999 C   0  0  0  0  0  0  0  0  0  0  0  0
   25.3959  -21.2889  -10.1892 C   0  0  0  0  0  0  0  0  0  0  0  0
   25.2019  -20.4406  -11.2893 C   0  0  0  0  0  0  0  0  0  0  0  0
   26.1657  -20.5253  -12.4052 C   0  0  0  0  0  0  0  0  0  0  0  0
   25.6236  -21.2387  -13.6270 C   0  0  2  0  0  0  0  0  0  0  0  0
   26.5606  -21.4369  -14.6844 N   0  0  0  0  0  0  0  0  0  0  0  0
   24.3294  -20.6609  -14.0364 C   0  0  0  0  0  0  0  0  0  0  0  0
   24.3890  -19.5796  -14.7011 O   0  0  0  0  0  0  0  0  0  0  0  0
   24.1143  -19.6068  -11.2235 C   0  0  0  0  0  0  0  0  0  0  0  0
   23.2544  -19.6105  -10.1169 C   0  0  0  0  0  0  0  0  0  0  0  0
   23.0803  -21.2425  -13.7287 N   0  0  0  0  0  0  0  0  0  0  0  0
   21.8584  -20.5604  -14.1049 C   0  0  1  0  0  0  0  0  0  0  0  0
   21.3146  -21.2134  -15.3279 C   0  0  0  0  0  0  0  0  0  0  0  0
   19.9985  -20.6904  -15.7921 C   0  0  0  0  0  0  0  0  0  0  0  0
   19.5543  -21.4251  -17.0408 C   0  0  0  0  0  0  0  0  0  0  0  0
   18.2375  -20.8507  -17.5624 C   0  0  0  0  0  0  0  0  0  0  0  0
   17.8776  -21.6802  -18.7126 N   0  0  0  0  0  0  0  0  0  0  0  0
   20.9316  -20.5850  -12.9440 C   0  0  0  0  0  0  0  0  0  0  0  0
   20.9823  -21.5710  -12.1706 O   0  0  0  0  0  0  0  0  0  0  0  0
   20.0165  -19.5923  -12.6625 O   0  0  0  0  0  0  0  0  0  0  0  0
  2  1  1  6
  3  2  1  0
  4  3  1  0
  5  4  1  0
  6  5  1  0
  7  6  1  0
  8  2  1  0
  8  9  2  0
 10 11  1  0
 11 12  2  0
 12 13  1  0
 14 13  2  0
 14 15  1  0
 16 15  1  1
 16 17  1  0
 17  8  1  0
 18 16  1  0
 19 18  2  0
 20 14  1  0
 21 11  1  0
 21 20  2  0
 22 18  1  0
 23 24  1  6
 23 22  1  0
 24 25  1  0
 25 26  1  0
 26 27  1  0
 27 28  1  0
 29 23  1  0
 30 29  2  0
 31 29  1  0
M  END
$$$$
