VCK.pdb
     RDKit          3D

 23 22  0  0  1  0  0  0  0  0999 V2000
    6.6721  -15.1651   18.7377 C   0  0  0  0  0  0  0  0  0  0  0  0
    7.6537  -15.2428   19.9015 C   0  0  2  0  0  0  0  0  0  0  0  0
    7.1547  -16.3592   20.7890 C   0  0  0  0  0  0  0  0  0  0  0  0
    7.5139  -13.9301   20.6774 C   0  0  2  0  0  0  0  0  0  0  0  0
    7.9946  -12.8350   19.7898 N   0  0  0  0  0  0  0  0  0  0  0  0
    8.2880  -13.9183   21.9310 C   0  0  0  0  0  0  0  0  0  0  0  0
    9.5590  -13.8376   21.8453 O   0  0  0  0  0  0  0  0  0  0  0  0
    7.7576  -13.9857   23.2145 N   0  0  0  0  0  0  0  0  0  0  0  0
    8.5398  -14.1358   24.4260 C   0  0  1  0  0  0  0  0  0  0  0  0
    7.8281  -13.5176   25.6235 C   0  0  0  0  0  0  0  0  0  0  0  0
    6.1243  -13.0875   25.2488 S   0  0  0  0  0  0  0  0  0  0  0  0
    8.7388  -15.5710   24.7600 C   0  0  0  0  0  0  0  0  0  0  0  0
    7.7334  -16.3245   24.7132 O   0  0  0  0  0  0  0  0  0  0  0  0
    9.9693  -16.1313   25.1211 N   0  0  0  0  0  0  0  0  0  0  0  0
   10.2044  -17.5370   25.3705 C   0  0  1  0  0  0  0  0  0  0  0  0
   11.5486  -17.8681   24.7161 C   0  0  0  0  0  0  0  0  0  0  0  0
   11.4369  -17.8493   23.2106 C   0  0  0  0  0  0  0  0  0  0  0  0
   12.7918  -18.1963   22.6470 C   0  0  0  0  0  0  0  0  0  0  0  0
   12.7950  -18.1437   21.1281 C   0  0  0  0  0  0  0  0  0  0  0  0
   14.1664  -18.3551   20.7022 N   0  0  0  0  0  0  0  0  0  0  0  0
   10.4039  -17.7941   26.8371 C   0  0  0  0  0  0  0  0  0  0  0  0
   10.4812  -16.8376   27.6502 O   0  0  0  0  0  0  0  0  0  0  0  0
   10.5080  -19.0773   27.3366 O   0  0  0  0  0  0  0  0  0  0  0  0
  2  1  1  6
  3  2  1  0
  4  5  1  6
  4  2  1  0
  6  4  1  0
  6  7  2  0
  8  6  1  0
  9  8  1  0
  9 12  1  0
  9 10  1  1
 11 10  1  0
 12 13  2  0
 12 14  1  0
 14 15  1  0
 15 21  1  0
 15 16  1  6
 16 17  1  0
 18 19  1  0
 18 17  1  0
 20 19  1  0
 21 22  2  0
 21 23  1  0
M  END
$$$$
