VCK.pdb
     RDKit          3D

 23 22  0  0  1  0  0  0  0  0999 V2000
    6.6247  -14.8676   19.3205 C   0  0  0  0  0  0  0  0  0  0  0  0
    7.5275  -15.0102   20.5406 C   0  0  2  0  0  0  0  0  0  0  0  0
    6.9022  -16.0894   21.3933 C   0  0  0  0  0  0  0  0  0  0  0  0
    7.4305  -13.6902   21.3107 C   0  0  2  0  0  0  0  0  0  0  0  0
    8.0385  -12.6315   20.4577 N   0  0  0  0  0  0  0  0  0  0  0  0
    8.1253  -13.7302   22.6094 C   0  0  0  0  0  0  0  0  0  0  0  0
    9.3830  -13.9479   22.6054 O   0  0  0  0  0  0  0  0  0  0  0  0
    7.5328  -13.5489   23.8541 N   0  0  0  0  0  0  0  0  0  0  0  0
    8.2185  -13.6845   25.1243 C   0  0  1  0  0  0  0  0  0  0  0  0
    7.4210  -13.0437   26.2539 C   0  0  0  0  0  0  0  0  0  0  0  0
    5.6488  -13.2038   26.0054 S   0  0  0  0  0  0  0  0  0  0  0  0
    8.3816  -15.1154   25.4943 C   0  0  0  0  0  0  0  0  0  0  0  0
    7.3461  -15.8272   25.5374 O   0  0  0  0  0  0  0  0  0  0  0  0
    9.6097  -15.7149   25.7956 N   0  0  0  0  0  0  0  0  0  0  0  0
    9.7853  -17.0845   26.2279 C   0  0  1  0  0  0  0  0  0  0  0  0
   10.9388  -17.6510   25.3952 C   0  0  0  0  0  0  0  0  0  0  0  0
   10.6729  -17.4844   23.9183 C   0  0  0  0  0  0  0  0  0  0  0  0
   11.8508  -18.0603   23.1738 C   0  0  0  0  0  0  0  0  0  0  0  0
   11.7801  -17.7469   21.6883 C   0  0  0  0  0  0  0  0  0  0  0  0
   13.0157  -18.2269   21.0972 N   0  0  0  0  0  0  0  0  0  0  0  0
   10.2607  -17.1392   27.6520 C   0  0  0  0  0  0  0  0  0  0  0  0
   10.5952  -16.0880   28.2562 O   0  0  0  0  0  0  0  0  0  0  0  0
   10.3455  -18.3344   28.3384 O   0  0  0  0  0  0  0  0  0  0  0  0
  2  1  1  6
  3  2  1  0
  4  5  1  6
  4  2  1  0
  6  4  1  0
  6  7  2  0
  8  6  1  0
  9  8  1  0
  9 12  1  0
  9 10  1  1
 11 10  1  0
 12 13  2  0
 12 14  1  0
 14 15  1  0
 15 21  1  0
 15 16  1  6
 16 17  1  0
 18 19  1  0
 18 17  1  0
 20 19  1  0
 21 22  2  0
 21 23  1  0
M  END
$$$$
