VCK.pdb
     RDKit          3D

 23 22  0  0  1  0  0  0  0  0999 V2000
    7.6804  -15.4548   20.6520 C   0  0  0  0  0  0  0  0  0  0  0  0
    7.0026  -14.0914   20.7289 C   0  0  2  0  0  0  0  0  0  0  0  0
    6.8261  -13.6364   19.2990 C   0  0  0  0  0  0  0  0  0  0  0  0
    8.0021  -13.1457   21.4010 C   0  0  2  0  0  0  0  0  0  0  0  0
    9.2764  -13.2268   20.6345 N   0  0  0  0  0  0  0  0  0  0  0  0
    8.2577  -13.4875   22.8113 C   0  0  0  0  0  0  0  0  0  0  0  0
    9.3262  -14.1303   23.0839 O   0  0  0  0  0  0  0  0  0  0  0  0
    7.4351  -13.1703   23.8865 N   0  0  0  0  0  0  0  0  0  0  0  0
    7.6991  -13.5329   25.2652 C   0  0  1  0  0  0  0  0  0  0  0  0
    6.5457  -13.1257   26.1743 C   0  0  0  0  0  0  0  0  0  0  0  0
    6.5128  -11.3541   26.4719 S   0  0  0  0  0  0  0  0  0  0  0  0
    7.8413  -15.0056   25.4134 C   0  0  0  0  0  0  0  0  0  0  0  0
    7.0407  -15.7349   24.7748 O   0  0  0  0  0  0  0  0  0  0  0  0
    8.8059  -15.6260   26.2153 N   0  0  0  0  0  0  0  0  0  0  0  0
    9.1901  -17.0184   26.1312 C   0  0  1  0  0  0  0  0  0  0  0  0
    9.9918  -17.1630   24.8346 C   0  0  0  0  0  0  0  0  0  0  0  0
   10.3728  -18.6036   24.5917 C   0  0  0  0  0  0  0  0  0  0  0  0
   11.1967  -18.6522   23.3297 C   0  0  0  0  0  0  0  0  0  0  0  0
   11.6270  -20.0715   22.9980 C   0  0  0  0  0  0  0  0  0  0  0  0
   12.3679  -20.0067   21.7515 N   0  0  0  0  0  0  0  0  0  0  0  0
   10.1484  -17.3764   27.2314 C   0  0  0  0  0  0  0  0  0  0  0  0
   10.7119  -16.4777   27.9073 O   0  0  0  0  0  0  0  0  0  0  0  0
   10.4397  -18.6917   27.5342 O   0  0  0  0  0  0  0  0  0  0  0  0
  2  1  1  6
  3  2  1  0
  4  5  1  6
  4  2  1  0
  6  4  1  0
  6  7  2  0
  8  6  1  0
  9  8  1  0
  9 12  1  0
  9 10  1  1
 11 10  1  0
 12 13  2  0
 12 14  1  0
 14 15  1  0
 15 21  1  0
 15 16  1  6
 16 17  1  0
 18 19  1  0
 18 17  1  0
 20 19  1  0
 21 22  2  0
 21 23  1  0
M  END
$$$$
