VCK.pdb
     RDKit          3D

 23 22  0  0  1  0  0  0  0  0999 V2000
    8.2293  -15.4372   20.4355 C   0  0  0  0  0  0  0  0  0  0  0  0
    7.0586  -14.4626   20.4956 C   0  0  2  0  0  0  0  0  0  0  0  0
    6.6989  -14.1597   19.0597 C   0  0  0  0  0  0  0  0  0  0  0  0
    7.5963  -13.1744   21.1252 C   0  0  2  0  0  0  0  0  0  0  0  0
    8.7330  -12.7083   20.2833 N   0  0  0  0  0  0  0  0  0  0  0  0
    8.0597  -13.3621   22.5112 C   0  0  0  0  0  0  0  0  0  0  0  0
    9.2942  -13.6293   22.6953 O   0  0  0  0  0  0  0  0  0  0  0  0
    7.2693  -13.2725   23.6516 N   0  0  0  0  0  0  0  0  0  0  0  0
    7.6907  -13.6627   24.9829 C   0  0  1  0  0  0  0  0  0  0  0  0
    6.6276  -13.3230   26.0207 C   0  0  0  0  0  0  0  0  0  0  0  0
    6.2908  -11.5595   26.0908 S   0  0  0  0  0  0  0  0  0  0  0  0
    7.8971  -15.1327   25.0693 C   0  0  0  0  0  0  0  0  0  0  0  0
    7.1780  -15.8652   24.3435 O   0  0  0  0  0  0  0  0  0  0  0  0
    8.8372  -15.7472   25.9042 N   0  0  0  0  0  0  0  0  0  0  0  0
    9.4044  -17.0618   25.6957 C   0  0  1  0  0  0  0  0  0  0  0  0
   10.4180  -16.9144   24.5574 C   0  0  0  0  0  0  0  0  0  0  0  0
   11.1754  -18.2018   24.3369 C   0  0  0  0  0  0  0  0  0  0  0  0
   12.0950  -17.9955   23.1600 C   0  0  0  0  0  0  0  0  0  0  0  0
   12.8514  -19.2671   22.8126 C   0  0  0  0  0  0  0  0  0  0  0  0
   13.7839  -18.9268   21.7537 N   0  0  0  0  0  0  0  0  0  0  0  0
   10.2089  -17.4929   26.8890 C   0  0  0  0  0  0  0  0  0  0  0  0
   10.7014  -18.6488   26.9455 O   0  0  0  0  0  0  0  0  0  0  0  0
   10.4323  -16.6421   27.9534 O   0  0  0  0  0  0  0  0  0  0  0  0
  2  1  1  6
  3  2  1  0
  4  5  1  6
  4  2  1  0
  6  4  1  0
  6  7  2  0
  8  6  1  0
  9  8  1  0
  9 12  1  0
  9 10  1  1
 11 10  1  0
 12 13  2  0
 12 14  1  0
 14 15  1  0
 15 21  1  0
 15 16  1  6
 16 17  1  0
 18 19  1  0
 18 17  1  0
 20 19  1  0
 21 22  2  0
 21 23  1  0
M  END
$$$$
