VCK.pdb
     RDKit          3D

 23 22  0  0  1  0  0  0  0  0999 V2000
    8.0448  -16.0461   20.4786 C   0  0  0  0  0  0  0  0  0  0  0  0
    6.7579  -15.2732   20.7443 C   0  0  2  0  0  0  0  0  0  0  0  0
    6.1150  -15.0642   19.3930 C   0  0  0  0  0  0  0  0  0  0  0  0
    7.1768  -13.9013   21.2805 C   0  0  2  0  0  0  0  0  0  0  0  0
    8.0345  -13.2615   20.2447 N   0  0  0  0  0  0  0  0  0  0  0  0
    7.9216  -13.9832   22.5491 C   0  0  0  0  0  0  0  0  0  0  0  0
    9.1805  -14.1854   22.4886 O   0  0  0  0  0  0  0  0  0  0  0  0
    7.3757  -13.8575   23.8217 N   0  0  0  0  0  0  0  0  0  0  0  0
    8.1110  -14.0356   25.0586 C   0  0  1  0  0  0  0  0  0  0  0  0
    7.3152  -13.5235   26.2532 C   0  0  0  0  0  0  0  0  0  0  0  0
    6.1422  -12.2452   25.7859 S   0  0  0  0  0  0  0  0  0  0  0  0
    8.3722  -15.4753   25.3232 C   0  0  0  0  0  0  0  0  0  0  0  0
    7.4112  -16.2751   25.1915 O   0  0  0  0  0  0  0  0  0  0  0  0
    9.6148  -15.9915   25.7075 N   0  0  0  0  0  0  0  0  0  0  0  0
    9.8899  -17.3852   25.9823 C   0  0  1  0  0  0  0  0  0  0  0  0
   11.2378  -17.6927   25.3239 C   0  0  0  0  0  0  0  0  0  0  0  0
   11.0529  -18.1286   23.8902 C   0  0  0  0  0  0  0  0  0  0  0  0
   11.9137  -17.2406   23.0276 C   0  0  0  0  0  0  0  0  0  0  0  0
   11.7790  -17.5920   21.5551 C   0  0  0  0  0  0  0  0  0  0  0  0
   12.5382  -16.6013   20.8143 N   0  0  0  0  0  0  0  0  0  0  0  0
   10.1072  -17.6080   27.4520 C   0  0  0  0  0  0  0  0  0  0  0  0
   10.1130  -16.6380   28.2527 O   0  0  0  0  0  0  0  0  0  0  0  0
   10.3057  -18.8734   27.9679 O   0  0  0  0  0  0  0  0  0  0  0  0
  2  1  1  6
  3  2  1  0
  4  5  1  6
  4  2  1  0
  6  4  1  0
  6  7  2  0
  8  6  1  0
  9  8  1  0
  9 12  1  0
  9 10  1  1
 11 10  1  0
 12 13  2  0
 12 14  1  0
 14 15  1  0
 15 21  1  0
 15 16  1  6
 16 17  1  0
 18 19  1  0
 18 17  1  0
 20 19  1  0
 21 22  2  0
 21 23  1  0
M  END
$$$$
