VCK.pdb
     RDKit          3D

 23 22  0  0  1  0  0  0  0  0999 V2000
    8.2324  -15.6584   20.3058 C   0  0  0  0  0  0  0  0  0  0  0  0
    6.9479  -14.8579   20.4882 C   0  0  2  0  0  0  0  0  0  0  0  0
    6.4370  -14.5735   19.0950 C   0  0  0  0  0  0  0  0  0  0  0  0
    7.3528  -13.5229   21.1198 C   0  0  2  0  0  0  0  0  0  0  0  0
    8.3394  -12.8801   20.2080 N   0  0  0  0  0  0  0  0  0  0  0  0
    7.9521  -13.6782   22.4568 C   0  0  0  0  0  0  0  0  0  0  0  0
    9.2089  -13.8907   22.5250 O   0  0  0  0  0  0  0  0  0  0  0  0
    7.2694  -13.6122   23.6663 N   0  0  0  0  0  0  0  0  0  0  0  0
    7.8427  -13.9338   24.9585 C   0  0  1  0  0  0  0  0  0  0  0  0
    6.8565  -13.6531   26.0860 C   0  0  0  0  0  0  0  0  0  0  0  0
    6.4396  -11.9091   26.2006 S   0  0  0  0  0  0  0  0  0  0  0  0
    8.1751  -15.3801   25.0514 C   0  0  0  0  0  0  0  0  0  0  0  0
    7.2717  -16.2048   24.7608 O   0  0  0  0  0  0  0  0  0  0  0  0
    9.4243  -15.8767   25.4403 N   0  0  0  0  0  0  0  0  0  0  0  0
    9.7571  -17.2775   25.5832 C   0  0  1  0  0  0  0  0  0  0  0  0
   11.1157  -17.4657   24.9023 C   0  0  0  0  0  0  0  0  0  0  0  0
   10.9843  -17.3842   23.4004 C   0  0  0  0  0  0  0  0  0  0  0  0
   12.3546  -17.5992   22.8092 C   0  0  0  0  0  0  0  0  0  0  0  0
   12.3335  -17.4839   21.2939 C   0  0  0  0  0  0  0  0  0  0  0  0
   13.7164  -17.4509   20.8545 N   0  0  0  0  0  0  0  0  0  0  0  0
    9.9852  -17.6287   27.0260 C   0  0  0  0  0  0  0  0  0  0  0  0
   10.0092  -16.7316   27.9073 O   0  0  0  0  0  0  0  0  0  0  0  0
   10.1742  -18.9360   27.4287 O   0  0  0  0  0  0  0  0  0  0  0  0
  2  1  1  6
  3  2  1  0
  4  5  1  6
  4  2  1  0
  6  4  1  0
  6  7  2  0
  8  6  1  0
  9  8  1  0
  9 12  1  0
  9 10  1  1
 11 10  1  0
 12 13  2  0
 12 14  1  0
 14 15  1  0
 15 21  1  0
 15 16  1  6
 16 17  1  0
 18 19  1  0
 18 17  1  0
 20 19  1  0
 21 22  2  0
 21 23  1  0
M  END
$$$$
