VCK.pdb
     RDKit          3D

 23 22  0  0  1  0  0  0  0  0999 V2000
    7.6833  -12.3181   20.7682 C   0  0  0  0  0  0  0  0  0  0  0  0
    8.1694  -13.6802   20.2860 C   0  0  2  0  0  0  0  0  0  0  0  0
    7.3590  -13.9942   19.0501 C   0  0  0  0  0  0  0  0  0  0  0  0
    7.7807  -14.6899   21.3697 C   0  0  2  0  0  0  0  0  0  0  0  0
    6.2936  -14.7075   21.4489 N   0  0  0  0  0  0  0  0  0  0  0  0
    8.3365  -14.3554   22.6927 C   0  0  0  0  0  0  0  0  0  0  0  0
    9.6050  -14.3864   22.8308 O   0  0  0  0  0  0  0  0  0  0  0  0
    7.6000  -14.0029   23.8182 N   0  0  0  0  0  0  0  0  0  0  0  0
    8.1643  -13.7445   25.1285 C   0  0  1  0  0  0  0  0  0  0  0  0
    7.2227  -12.9002   25.9789 C   0  0  0  0  0  0  0  0  0  0  0  0
    5.5487  -13.5526   25.9841 S   0  0  0  0  0  0  0  0  0  0  0  0
    8.3753  -15.0104   25.8793 C   0  0  0  0  0  0  0  0  0  0  0  0
    7.3981  -15.7943   25.9852 O   0  0  0  0  0  0  0  0  0  0  0  0
    9.5879  -15.3808   26.4718 N   0  0  0  0  0  0  0  0  0  0  0  0
    9.8094  -16.5927   27.2305 C   0  0  1  0  0  0  0  0  0  0  0  0
   10.5702  -17.5445   26.3031 C   0  0  0  0  0  0  0  0  0  0  0  0
   10.9187  -18.8298   27.0145 C   0  0  0  0  0  0  0  0  0  0  0  0
   11.5993  -19.7339   26.0180 C   0  0  0  0  0  0  0  0  0  0  0  0
   11.9533  -21.0775   26.6338 C   0  0  0  0  0  0  0  0  0  0  0  0
   12.5491  -21.8797   25.5810 N   0  0  0  0  0  0  0  0  0  0  0  0
   10.7367  -16.3392   28.3850 C   0  0  0  0  0  0  0  0  0  0  0  0
   11.5846  -15.4115   28.3334 O   0  0  0  0  0  0  0  0  0  0  0  0
   10.6894  -17.1090   29.5303 O   0  0  0  0  0  0  0  0  0  0  0  0
  2  1  1  1
  3  2  1  0
  4  5  1  1
  4  2  1  0
  6  4  1  0
  6  7  2  0
  8  6  1  0
  9  8  1  0
  9 12  1  0
  9 10  1  1
 11 10  1  0
 12 13  2  0
 12 14  1  0
 14 15  1  0
 15 21  1  0
 15 16  1  6
 16 17  1  0
 18 19  1  0
 18 17  1  0
 20 19  1  0
 21 22  2  0
 21 23  1  0
M  END
$$$$
