VCK.pdb
     RDKit          3D

 23 22  0  0  1  0  0  0  0  0999 V2000
    8.1568  -14.6567   18.6689 C   0  0  0  0  0  0  0  0  0  0  0  0
    7.8045  -13.7110   19.8115 C   0  0  2  0  0  0  0  0  0  0  0  0
    7.8156  -12.3222   19.2166 C   0  0  0  0  0  0  0  0  0  0  0  0
    8.9544  -13.7978   20.8190 C   0  0  2  0  0  0  0  0  0  0  0  0
   10.2118  -13.4773   20.0880 N   0  0  0  0  0  0  0  0  0  0  0  0
    9.0756  -15.1288   21.4393 C   0  0  0  0  0  0  0  0  0  0  0  0
    8.0176  -15.6642   21.9117 O   0  0  0  0  0  0  0  0  0  0  0  0
   10.2483  -15.8664   21.5581 N   0  0  0  0  0  0  0  0  0  0  0  0
   10.3457  -17.1698   22.1856 C   0  0  1  0  0  0  0  0  0  0  0  0
   11.0904  -18.1574   21.2951 C   0  0  0  0  0  0  0  0  0  0  0  0
   10.1672  -18.5531   19.8054 S   0  0  0  0  0  0  0  0  0  0  0  0
   11.1165  -17.0963   23.4550 C   0  0  0  0  0  0  0  0  0  0  0  0
   11.9450  -16.1590   23.5796 O   0  0  0  0  0  0  0  0  0  0  0  0
   10.9770  -18.0011   24.5134 N   0  0  0  0  0  0  0  0  0  0  0  0
   11.7033  -17.9407   25.7633 C   0  0  1  0  0  0  0  0  0  0  0  0
   11.0679  -18.9917   26.6780 C   0  0  0  0  0  0  0  0  0  0  0  0
   11.7792  -19.0524   28.0084 C   0  0  0  0  0  0  0  0  0  0  0  0
   11.1705  -20.1812   28.8014 C   0  0  0  0  0  0  0  0  0  0  0  0
   11.7838  -20.2838   30.1881 C   0  0  0  0  0  0  0  0  0  0  0  0
   11.0565  -21.3223   30.8947 N   0  0  0  0  0  0  0  0  0  0  0  0
   13.1261  -18.3857   25.5774 C   0  0  0  0  0  0  0  0  0  0  0  0
   13.4130  -19.2809   24.7418 O   0  0  0  0  0  0  0  0  0  0  0  0
   14.1565  -17.8317   26.3110 O   0  0  0  0  0  0  0  0  0  0  0  0
  2  1  1  6
  3  2  1  0
  4  5  1  6
  4  2  1  0
  6  4  1  0
  6  7  2  0
  8  6  1  0
  9  8  1  0
  9 12  1  0
  9 10  1  6
 11 10  1  0
 12 13  2  0
 12 14  1  0
 14 15  1  0
 15 21  1  0
 15 16  1  1
 16 17  1  0
 18 19  1  0
 18 17  1  0
 20 19  1  0
 21 22  2  0
 21 23  1  0
M  END
$$$$
