VCK.pdb
     RDKit          3D

 23 22  0  0  1  0  0  0  0  0999 V2000
    8.2992  -16.3343   21.0983 C   0  0  0  0  0  0  0  0  0  0  0  0
    7.0319  -15.4906   21.0193 C   0  0  2  0  0  0  0  0  0  0  0  0
    6.5377  -15.6194   19.5973 C   0  0  0  0  0  0  0  0  0  0  0  0
    7.4625  -14.0370   21.2353 C   0  0  2  0  0  0  0  0  0  0  0  0
    8.4723  -13.7119   20.1901 N   0  0  0  0  0  0  0  0  0  0  0  0
    8.0457  -13.8024   22.5679 C   0  0  0  0  0  0  0  0  0  0  0  0
    9.3103  -13.9219   22.6939 O   0  0  0  0  0  0  0  0  0  0  0  0
    7.3396  -13.4571   23.7149 N   0  0  0  0  0  0  0  0  0  0  0  0
    7.9049  -13.4011   25.0488 C   0  0  1  0  0  0  0  0  0  0  0  0
    6.9709  -12.6823   26.0150 C   0  0  0  0  0  0  0  0  0  0  0  0
    7.6015  -12.6913   27.6974 S   0  0  0  0  0  0  0  0  0  0  0  0
    8.1021  -14.7663   25.6041 C   0  0  0  0  0  0  0  0  0  0  0  0
    7.0901  -15.5053   25.7056 O   0  0  0  0  0  0  0  0  0  0  0  0
    9.3379  -15.2760   26.0182 N   0  0  0  0  0  0  0  0  0  0  0  0
    9.5387  -16.5570   26.6601 C   0  0  1  0  0  0  0  0  0  0  0  0
   10.7001  -17.2280   25.9213 C   0  0  0  0  0  0  0  0  0  0  0  0
   10.2786  -17.6734   24.5416 C   0  0  0  0  0  0  0  0  0  0  0  0
   11.4838  -18.2809   23.8692 C   0  0  0  0  0  0  0  0  0  0  0  0
   11.1633  -18.7386   22.4558 C   0  0  0  0  0  0  0  0  0  0  0  0
   12.4274  -19.0660   21.8221 N   0  0  0  0  0  0  0  0  0  0  0  0
   10.0183  -16.3784   28.0726 C   0  0  0  0  0  0  0  0  0  0  0  0
   10.3126  -15.2361   28.5092 O   0  0  0  0  0  0  0  0  0  0  0  0
   10.1507  -17.4524   28.9304 O   0  0  0  0  0  0  0  0  0  0  0  0
  2  1  1  6
  3  2  1  0
  4  5  1  6
  4  2  1  0
  6  4  1  0
  6  7  2  0
  8  6  1  0
  9  8  1  0
  9 12  1  0
  9 10  1  1
 11 10  1  0
 12 13  2  0
 12 14  1  0
 14 15  1  0
 15 21  1  0
 15 16  1  6
 16 17  1  0
 18 19  1  0
 18 17  1  0
 20 19  1  0
 21 22  2  0
 21 23  1  0
M  END
$$$$
