VCK.pdb
     RDKit          3D

 23 22  0  0  1  0  0  0  0  0999 V2000
    8.0260  -12.7038   18.1836 C   0  0  0  0  0  0  0  0  0  0  0  0
    7.9448  -13.4143   19.5299 C   0  0  2  0  0  0  0  0  0  0  0  0
    8.9947  -12.7671   20.4026 C   0  0  0  0  0  0  0  0  0  0  0  0
    8.3701  -14.8645   19.2833 C   0  0  2  0  0  0  0  0  0  0  0  0
    7.3290  -15.4938   18.4241 N   0  0  0  0  0  0  0  0  0  0  0  0
    8.5118  -15.6413   20.5273 C   0  0  0  0  0  0  0  0  0  0  0  0
    7.4605  -15.8547   21.2191 O   0  0  0  0  0  0  0  0  0  0  0  0
    9.6972  -16.1719   21.0237 N   0  0  0  0  0  0  0  0  0  0  0  0
    9.8004  -16.9997   22.2095 C   0  0  1  0  0  0  0  0  0  0  0  0
   11.0206  -17.9104   22.1432 C   0  0  0  0  0  0  0  0  0  0  0  0
   11.2047  -18.9029   23.6296 S   0  0  0  0  0  0  0  0  0  0  0  0
    9.9724  -16.1675   23.4297 C   0  0  0  0  0  0  0  0  0  0  0  0
   10.9026  -15.3217   23.4312 O   0  0  0  0  0  0  0  0  0  0  0  0
    9.1670  -16.2673   24.5698 N   0  0  0  0  0  0  0  0  0  0  0  0
    9.3575  -15.5191   25.7934 C   0  0  1  0  0  0  0  0  0  0  0  0
    7.9705  -15.0219   26.2107 C   0  0  0  0  0  0  0  0  0  0  0  0
    7.8643  -13.5236   26.0586 C   0  0  0  0  0  0  0  0  0  0  0  0
    6.5149  -13.1050   26.5855 C   0  0  0  0  0  0  0  0  0  0  0  0
    6.3414  -11.5958   26.5404 C   0  0  0  0  0  0  0  0  0  0  0  0
    5.0801  -11.2970   27.1936 N   0  0  0  0  0  0  0  0  0  0  0  0
    9.8067  -16.4211   26.9077 C   0  0  0  0  0  0  0  0  0  0  0  0
    9.7061  -17.6702   26.8002 O   0  0  0  0  0  0  0  0  0  0  0  0
   10.3399  -15.9134   28.0759 O   0  0  0  0  0  0  0  0  0  0  0  0
  2  1  1  6
  3  2  1  0
  4  5  1  6
  4  2  1  0
  6  4  1  0
  6  7  2  0
  8  6  1  0
  9  8  1  0
  9 12  1  0
  9 10  1  6
 11 10  1  0
 12 13  2  0
 12 14  1  0
 14 15  1  0
 15 21  1  0
 15 16  1  1
 16 17  1  0
 18 19  1  0
 18 17  1  0
 20 19  1  0
 21 22  2  0
 21 23  1  0
M  END
$$$$
