HGT.pdb
     RDKit          3D

 22 22  0  0  1  0  0  0  0  0999 V2000
   20.2015  -18.8189  -17.8135 N   0  0  0  0  0  0  0  0  0  0  0  0
   21.0352  -18.1100  -16.8683 C   0  0  1  0  0  0  0  0  0  0  0  0
   20.3572  -16.8432  -16.3999 C   0  0  0  0  0  0  0  0  0  0  0  0
   20.5743  -15.7954  -17.4591 C   0  0  0  0  0  0  0  0  0  0  0  0
   20.0002  -15.7826  -18.7073 C   0  0  0  0  0  0  0  0  0  0  0  0
   20.4581  -14.6841  -19.3245 N   0  0  0  0  0  0  0  0  0  0  0  0
   21.2938  -14.0109  -18.5140 C   0  0  0  0  0  0  0  0  0  0  0  0
   21.3503  -14.7081  -17.3786 N   0  0  0  0  0  0  0  0  0  0  0  0
   21.3998  -18.9911  -15.7361 C   0  0  0  0  0  0  0  0  0  0  0  0
   20.5291  -19.7697  -15.2985 O   0  0  0  0  0  0  0  0  0  0  0  0
   22.6981  -18.9522  -15.1659 N   0  0  0  0  0  0  0  0  0  0  0  0
   23.0659  -19.8363  -14.1047 C   0  0  0  0  0  0  0  0  0  0  0  0
   24.4666  -19.6828  -13.6722 C   0  0  0  0  0  0  0  0  0  0  0  0
   25.1798  -18.7890  -14.1947 O   0  0  0  0  0  0  0  0  0  0  0  0
   26.1715  -20.6475   -9.9404 C   0  0  0  0  0  0  0  0  0  0  0  0
   26.7673  -21.3072  -11.1760 C   0  0  1  0  0  0  0  0  0  0  0  0
   26.1830  -22.5477  -11.3633 O   0  0  0  0  0  0  0  0  0  0  0  0
   26.4985  -20.4085  -12.3756 C   0  0  2  0  0  0  0  0  0  0  0  0
   25.0745  -20.4983  -12.6811 N   0  0  0  0  0  0  0  0  0  0  0  0
   27.3086  -20.9056  -13.5144 C   0  0  0  0  0  0  0  0  0  0  0  0
   26.7819  -21.7169  -14.3131 O   0  0  0  0  0  0  0  0  0  0  0  0
   28.6177  -20.5220  -13.7445 O   0  0  0  0  0  0  0  0  0  0  0  0
  2  1  1  6
  3  2  1  0
  3  4  1  0
  4  5  2  0
  5  6  1  0
  7  6  1  0
  8  4  1  0
  8  7  2  0
  9  2  1  0
  9 10  2  0
 11  9  1  0
 12 11  1  0
 12 13  1  0
 13 19  1  0
 14 13  2  0
 16 15  1  1
 16 17  1  0
 18 16  1  0
 18 20  1  0
 18 19  1  6
 20 22  1  0
 21 20  2  0
M  END
$$$$
