HGT.pdb
     RDKit          3D

 22 22  0  0  1  0  0  0  0  0999 V2000
   22.8947  -21.9893  -15.7313 N   0  0  0  0  0  0  0  0  0  0  0  0
   23.6589  -20.7874  -15.9812 C   0  0  1  0  0  0  0  0  0  0  0  0
   22.7613  -19.5716  -15.9821 C   0  0  0  0  0  0  0  0  0  0  0  0
   21.9144  -19.6332  -14.7388 C   0  0  0  0  0  0  0  0  0  0  0  0
   21.8985  -18.7009  -13.7296 C   0  0  0  0  0  0  0  0  0  0  0  0
   21.0129  -19.1380  -12.8230 N   0  0  0  0  0  0  0  0  0  0  0  0
   20.4756  -20.3038  -13.2239 C   0  0  0  0  0  0  0  0  0  0  0  0
   21.0410  -20.5880  -14.3977 N   0  0  0  0  0  0  0  0  0  0  0  0
   24.7593  -20.6594  -14.9994 C   0  0  0  0  0  0  0  0  0  0  0  0
   25.5231  -19.6788  -15.1033 O   0  0  0  0  0  0  0  0  0  0  0  0
   24.9406  -21.6210  -13.9723 N   0  0  0  0  0  0  0  0  0  0  0  0
   25.9700  -21.4702  -12.9923 C   0  0  0  0  0  0  0  0  0  0  0  0
   25.5380  -20.7219  -11.7982 C   0  0  0  0  0  0  0  0  0  0  0  0
   25.0083  -19.5902  -11.9367 O   0  0  0  0  0  0  0  0  0  0  0  0
   24.4470  -20.2810   -7.0659 C   0  0  0  0  0  0  0  0  0  0  0  0
   24.6286  -21.1345   -8.3131 C   0  0  1  0  0  0  0  0  0  0  0  0
   23.3897  -21.4237   -8.8580 O   0  0  0  0  0  0  0  0  0  0  0  0
   25.4760  -20.3540   -9.3087 C   0  0  2  0  0  0  0  0  0  0  0  0
   25.6855  -21.2091  -10.4723 N   0  0  0  0  0  0  0  0  0  0  0  0
   26.7698  -20.0311   -8.6590 C   0  0  0  0  0  0  0  0  0  0  0  0
   27.7586  -20.7647   -8.8996 O   0  0  0  0  0  0  0  0  0  0  0  0
   26.9463  -18.9617   -7.7995 O   0  0  0  0  0  0  0  0  0  0  0  0
  2  1  1  1
  3  2  1  0
  3  4  1  0
  4  5  2  0
  5  6  1  0
  7  6  1  0
  8  4  1  0
  8  7  2  0
  9  2  1  0
  9 10  2  0
 11  9  1  0
 12 11  1  0
 12 13  1  0
 13 19  1  0
 14 13  2  0
 16 15  1  1
 16 17  1  0
 18 16  1  0
 18 20  1  0
 18 19  1  6
 20 22  1  0
 21 20  2  0
M  END
$$$$
