HGT.pdb
     RDKit          3D

 22 22  0  0  1  0  0  0  0  0999 V2000
   18.5870  -14.2124  -19.8885 N   0  0  0  0  0  0  0  0  0  0  0  0
   19.6607  -13.9596  -18.9536 C   0  0  1  0  0  0  0  0  0  0  0  0
   20.8553  -14.8333  -19.2598 C   0  0  0  0  0  0  0  0  0  0  0  0
   20.4096  -16.2666  -19.1428 C   0  0  0  0  0  0  0  0  0  0  0  0
   20.1936  -17.1297  -20.1898 C   0  0  0  0  0  0  0  0  0  0  0  0
   19.8105  -18.2948  -19.6485 N   0  0  0  0  0  0  0  0  0  0  0  0
   19.7784  -18.1951  -18.3077 C   0  0  0  0  0  0  0  0  0  0  0  0
   20.1483  -16.9466  -18.0202 N   0  0  0  0  0  0  0  0  0  0  0  0
   20.0157  -12.5226  -18.9481 C   0  0  0  0  0  0  0  0  0  0  0  0
   20.4020  -12.0127  -20.0189 O   0  0  0  0  0  0  0  0  0  0  0  0
   19.9198  -11.7486  -17.7632 N   0  0  0  0  0  0  0  0  0  0  0  0
   20.2329  -10.3540  -17.7642 C   0  0  0  0  0  0  0  0  0  0  0  0
   20.0253   -9.7053  -16.4571 C   0  0  0  0  0  0  0  0  0  0  0  0
   19.2202  -10.2138  -15.6362 O   0  0  0  0  0  0  0  0  0  0  0  0
   22.0407   -9.6118  -13.7340 C   0  0  0  0  0  0  0  0  0  0  0  0
   21.8270   -8.1240  -13.9739 C   0  0  1  0  0  0  0  0  0  0  0  0
   22.8815   -7.6206  -14.7154 O   0  0  0  0  0  0  0  0  0  0  0  0
   20.5160   -7.9436  -14.7272 C   0  0  2  0  0  0  0  0  0  0  0  0
   20.6917   -8.5164  -16.0577 N   0  0  0  0  0  0  0  0  0  0  0  0
   20.2331   -6.4903  -14.8184 C   0  0  0  0  0  0  0  0  0  0  0  0
   20.4249   -5.9120  -15.9149 O   0  0  0  0  0  0  0  0  0  0  0  0
   19.7678   -5.7355  -13.7566 O   0  0  0  0  0  0  0  0  0  0  0  0
  2  1  1  6
  3  2  1  0
  3  4  1  0
  4  5  2  0
  5  6  1  0
  7  6  1  0
  8  4  1  0
  8  7  2  0
  9  2  1  0
  9 10  2  0
 11  9  1  0
 12 11  1  0
 12 13  1  0
 13 19  1  0
 14 13  2  0
 16 15  1  6
 16 17  1  0
 18 16  1  0
 18 20  1  0
 18 19  1  6
 20 22  1  0
 21 20  2  0
M  END
$$$$
