HGT.pdb
     RDKit          3D

 22 22  0  0  1  0  0  0  0  0999 V2000
   20.0606  -12.8471  -16.9126 N   0  0  0  0  0  0  0  0  0  0  0  0
   19.3951  -11.6100  -17.2553 C   0  0  1  0  0  0  0  0  0  0  0  0
   18.0282  -11.8805  -17.8406 C   0  0  0  0  0  0  0  0  0  0  0  0
   18.2273  -12.6554  -19.1160 C   0  0  0  0  0  0  0  0  0  0  0  0
   18.0054  -14.0012  -19.2824 C   0  0  0  0  0  0  0  0  0  0  0  0
   18.3037  -14.2800  -20.5593 N   0  0  0  0  0  0  0  0  0  0  0  0
   18.7024  -13.1650  -21.1967 C   0  0  0  0  0  0  0  0  0  0  0  0
   18.6481  -12.1837  -20.2955 N   0  0  0  0  0  0  0  0  0  0  0  0
   19.3233  -10.7164  -16.0773 C   0  0  0  0  0  0  0  0  0  0  0  0
   18.6567  -11.0984  -15.0947 O   0  0  0  0  0  0  0  0  0  0  0  0
   19.9912   -9.4650  -16.0651 N   0  0  0  0  0  0  0  0  0  0  0  0
   19.8861   -8.5823  -14.9459 C   0  0  0  0  0  0  0  0  0  0  0  0
   20.6235   -7.3185  -15.1243 C   0  0  0  0  0  0  0  0  0  0  0  0
   21.4550   -7.2158  -16.0616 O   0  0  0  0  0  0  0  0  0  0  0  0
   21.1366   -2.5079  -14.2361 C   0  0  0  0  0  0  0  0  0  0  0  0
   20.3745   -3.8005  -13.9813 C   0  0  1  0  0  0  0  0  0  0  0  0
   19.1698   -3.7670  -14.6617 O   0  0  0  0  0  0  0  0  0  0  0  0
   21.2268   -4.9637  -14.4705 C   0  0  2  0  0  0  0  0  0  0  0  0
   20.4502   -6.1852  -14.2862 N   0  0  0  0  0  0  0  0  0  0  0  0
   22.4641   -5.0040  -13.6533 C   0  0  0  0  0  0  0  0  0  0  0  0
   23.4549   -4.3368  -14.0362 O   0  0  0  0  0  0  0  0  0  0  0  0
   22.5853   -5.7396  -12.4881 O   0  0  0  0  0  0  0  0  0  0  0  0
  2  1  1  1
  3  2  1  0
  3  4  1  0
  4  5  2  0
  5  6  1  0
  7  6  1  0
  8  4  1  0
  8  7  2  0
  9  2  1  0
  9 10  2  0
 11  9  1  0
 12 11  1  0
 12 13  1  0
 13 19  1  0
 14 13  2  0
 16 15  1  6
 16 17  1  0
 18 16  1  0
 18 20  1  0
 18 19  1  1
 20 22  1  0
 21 20  2  0
M  END
$$$$
