HGT.pdb
     RDKit          3D

 22 22  0  0  1  0  0  0  0  0999 V2000
   18.1913  -13.3703  -17.9537 N   0  0  0  0  0  0  0  0  0  0  0  0
   18.1811  -13.6707  -16.5393 C   0  0  1  0  0  0  0  0  0  0  0  0
   19.5734  -13.9967  -16.0503 C   0  0  0  0  0  0  0  0  0  0  0  0
   20.3655  -14.4867  -17.2332 C   0  0  0  0  0  0  0  0  0  0  0  0
   20.8493  -13.7070  -18.2559 C   0  0  0  0  0  0  0  0  0  0  0  0
   21.4904  -14.5344  -19.0935 N   0  0  0  0  0  0  0  0  0  0  0  0
   21.4270  -15.7977  -18.6365 C   0  0  0  0  0  0  0  0  0  0  0  0
   20.7347  -15.7454  -17.4980 N   0  0  0  0  0  0  0  0  0  0  0  0
   17.5761  -12.5554  -15.7769 C   0  0  0  0  0  0  0  0  0  0  0  0
   17.3744  -12.7236  -14.5576 O   0  0  0  0  0  0  0  0  0  0  0  0
   17.2359  -11.3333  -16.4119 N   0  0  0  0  0  0  0  0  0  0  0  0
   16.7557  -10.2178  -15.6584 C   0  0  0  0  0  0  0  0  0  0  0  0
   17.2819   -8.9232  -16.1269 C   0  0  0  0  0  0  0  0  0  0  0  0
   18.0709   -8.8949  -17.1054 O   0  0  0  0  0  0  0  0  0  0  0  0
   15.0657   -5.7372  -16.5802 C   0  0  0  0  0  0  0  0  0  0  0  0
   16.3163   -5.3726  -15.7930 C   0  0  1  0  0  0  0  0  0  0  0  0
   16.0230   -5.3625  -14.4405 O   0  0  0  0  0  0  0  0  0  0  0  0
   17.3911   -6.4084  -16.0942 C   0  0  2  0  0  0  0  0  0  0  0  0
   16.9469   -7.6788  -15.5301 N   0  0  0  0  0  0  0  0  0  0  0  0
   18.6519   -5.9647  -15.4510 C   0  0  0  0  0  0  0  0  0  0  0  0
   19.0015   -6.5147  -14.3791 O   0  0  0  0  0  0  0  0  0  0  0  0
   19.4660   -4.9742  -15.9704 O   0  0  0  0  0  0  0  0  0  0  0  0
  2  1  1  6
  3  2  1  0
  3  4  1  0
  4  5  2  0
  5  6  1  0
  7  6  1  0
  8  4  1  0
  8  7  2  0
  9  2  1  0
  9 10  2  0
 11  9  1  0
 12 11  1  0
 12 13  1  0
 13 19  1  0
 14 13  2  0
 16 15  1  6
 16 17  1  0
 18 16  1  0
 18 20  1  0
 18 19  1  1
 20 22  1  0
 21 20  2  0
M  END
$$$$
