HGT.pdb
     RDKit          3D

 22 22  0  0  1  0  0  0  0  0999 V2000
   18.7451  -12.8650  -15.7224 N   0  0  0  0  0  0  0  0  0  0  0  0
   18.3839  -11.7985  -16.6295 C   0  0  1  0  0  0  0  0  0  0  0  0
   17.1462  -12.1608  -17.4176 C   0  0  0  0  0  0  0  0  0  0  0  0
   17.4427  -13.4330  -18.1663 C   0  0  0  0  0  0  0  0  0  0  0  0
   18.0151  -13.5180  -19.4124 C   0  0  0  0  0  0  0  0  0  0  0  0
   18.0987  -14.8240  -19.7035 N   0  0  0  0  0  0  0  0  0  0  0  0
   17.6026  -15.5575  -18.6913 C   0  0  0  0  0  0  0  0  0  0  0  0
   17.2071  -14.6867  -17.7620 N   0  0  0  0  0  0  0  0  0  0  0  0
   18.2152  -10.5259  -15.8925 C   0  0  0  0  0  0  0  0  0  0  0  0
   17.4238  -10.5101  -14.9286 O   0  0  0  0  0  0  0  0  0  0  0  0
   18.9306   -9.3604  -16.2695 N   0  0  0  0  0  0  0  0  0  0  0  0
   18.8439   -8.1590  -15.5001 C   0  0  0  0  0  0  0  0  0  0  0  0
   20.1234   -7.7630  -14.8847 C   0  0  0  0  0  0  0  0  0  0  0  0
   20.7682   -8.6023  -14.2061 O   0  0  0  0  0  0  0  0  0  0  0  0
   23.1204   -6.7715  -16.5073 C   0  0  0  0  0  0  0  0  0  0  0  0
   22.8756   -5.6215  -15.5407 C   0  0  1  0  0  0  0  0  0  0  0  0
   22.2709   -4.5743  -16.2138 O   0  0  0  0  0  0  0  0  0  0  0  0
   21.9743   -6.1214  -14.4198 C   0  0  2  0  0  0  0  0  0  0  0  0
   20.6861   -6.4653  -15.0125 N   0  0  0  0  0  0  0  0  0  0  0  0
   21.8178   -5.0266  -13.4313 C   0  0  0  0  0  0  0  0  0  0  0  0
   22.7860   -4.7566  -12.6807 O   0  0  0  0  0  0  0  0  0  0  0  0
   20.6587   -4.2846  -13.2914 O   0  0  0  0  0  0  0  0  0  0  0  0
  2  1  1  1
  3  2  1  0
  3  4  1  0
  4  5  2  0
  5  6  1  0
  7  6  1  0
  8  4  1  0
  8  7  2  0
  9  2  1  0
  9 10  2  0
 11  9  1  0
 12 11  1  0
 12 13  1  0
 13 19  1  0
 14 13  2  0
 16 15  1  6
 16 17  1  0
 18 16  1  0
 18 20  1  0
 18 19  1  6
 20 22  1  0
 21 20  2  0
M  END
$$$$
