HGT.pdb
     RDKit          3D

 22 22  0  0  1  0  0  0  0  0999 V2000
   20.3379  -15.0575  -16.4897 N   0  0  0  0  0  0  0  0  0  0  0  0
   19.3608  -14.1380  -17.0287 C   0  0  1  0  0  0  0  0  0  0  0  0
   18.0597  -14.8489  -17.3215 C   0  0  0  0  0  0  0  0  0  0  0  0
   18.3644  -15.9785  -18.2691 C   0  0  0  0  0  0  0  0  0  0  0  0
   18.4736  -15.8753  -19.6348 C   0  0  0  0  0  0  0  0  0  0  0  0
   18.7509  -17.1063  -20.0876 N   0  0  0  0  0  0  0  0  0  0  0  0
   18.8193  -17.9733  -19.0618 C   0  0  0  0  0  0  0  0  0  0  0  0
   18.5798  -17.2624  -17.9594 N   0  0  0  0  0  0  0  0  0  0  0  0
   19.1683  -12.9907  -16.1133 C   0  0  0  0  0  0  0  0  0  0  0  0
   19.1636  -13.2171  -14.8868 O   0  0  0  0  0  0  0  0  0  0  0  0
   18.9946  -11.6749  -16.6140 N   0  0  0  0  0  0  0  0  0  0  0  0
   18.8178  -10.5655  -15.7304 C   0  0  0  0  0  0  0  0  0  0  0  0
   18.7991   -9.2632  -16.4205 C   0  0  0  0  0  0  0  0  0  0  0  0
   19.3279   -9.1585  -17.5562 O   0  0  0  0  0  0  0  0  0  0  0  0
   15.5757   -6.9693  -16.2121 C   0  0  0  0  0  0  0  0  0  0  0  0
   16.8341   -6.1284  -16.0510 C   0  0  1  0  0  0  0  0  0  0  0  0
   17.0660   -5.8989  -14.7061 O   0  0  0  0  0  0  0  0  0  0  0  0
   18.0006   -6.8887  -16.6675 C   0  0  2  0  0  0  0  0  0  0  0  0
   18.2088   -8.0939  -15.8716 N   0  0  0  0  0  0  0  0  0  0  0  0
   19.1987   -6.0158  -16.6152 C   0  0  0  0  0  0  0  0  0  0  0  0
   20.0685   -6.2467  -15.7412 O   0  0  0  0  0  0  0  0  0  0  0  0
   19.4101   -4.9574  -17.4805 O   0  0  0  0  0  0  0  0  0  0  0  0
  2  1  1  1
  3  2  1  0
  3  4  1  0
  4  5  2  0
  5  6  1  0
  7  6  1  0
  8  4  1  0
  8  7  2  0
  9  2  1  0
  9 10  2  0
 11  9  1  0
 12 11  1  0
 12 13  1  0
 13 19  1  0
 14 13  2  0
 16 15  1  1
 16 17  1  0
 18 16  1  0
 18 20  1  0
 18 19  1  1
 20 22  1  0
 21 20  2  0
M  END
$$$$
