HGT.pdb
     RDKit          3D

 22 22  0  0  1  0  0  0  0  0999 V2000
   21.6135  -13.0960  -19.9965 N   0  0  0  0  0  0  0  0  0  0  0  0
   22.0242  -13.7627  -18.7809 C   0  0  1  0  0  0  0  0  0  0  0  0
   23.1249  -14.7596  -19.0617 C   0  0  0  0  0  0  0  0  0  0  0  0
   22.6005  -15.7384  -20.0784 C   0  0  0  0  0  0  0  0  0  0  0  0
   22.9471  -15.7808  -21.4073 C   0  0  0  0  0  0  0  0  0  0  0  0
   22.2564  -16.7948  -21.9477 N   0  0  0  0  0  0  0  0  0  0  0  0
   21.4934  -17.3870  -21.0118 C   0  0  0  0  0  0  0  0  0  0  0  0
   21.7193  -16.7251  -19.8765 N   0  0  0  0  0  0  0  0  0  0  0  0
   22.4256  -12.7722  -17.7567 C   0  0  0  0  0  0  0  0  0  0  0  0
   22.7344  -13.1955  -16.6248 O   0  0  0  0  0  0  0  0  0  0  0  0
   22.4585  -11.3851  -18.0520 N   0  0  0  0  0  0  0  0  0  0  0  0
   22.7351  -10.4196  -17.0351 C   0  0  0  0  0  0  0  0  0  0  0  0
   21.5934   -9.5355  -16.7395 C   0  0  0  0  0  0  0  0  0  0  0  0
   20.6739   -9.4098  -17.5877 O   0  0  0  0  0  0  0  0  0  0  0  0
   19.1116   -9.8714  -14.2306 C   0  0  0  0  0  0  0  0  0  0  0  0
   19.6610   -8.4757  -13.9720 C   0  0  1  0  0  0  0  0  0  0  0  0
   20.6009   -8.5311  -12.9577 O   0  0  0  0  0  0  0  0  0  0  0  0
   20.2984   -7.9659  -15.2575 C   0  0  2  0  0  0  0  0  0  0  0  0
   21.4634   -8.8008  -15.5311 N   0  0  0  0  0  0  0  0  0  0  0  0
   20.7061   -6.5561  -15.0421 C   0  0  0  0  0  0  0  0  0  0  0  0
   21.9282   -6.2991  -14.9234 O   0  0  0  0  0  0  0  0  0  0  0  0
   19.8093   -5.5057  -14.9647 O   0  0  0  0  0  0  0  0  0  0  0  0
  2  1  1  6
  3  2  1  0
  3  4  1  0
  4  5  2  0
  5  6  1  0
  7  6  1  0
  8  4  1  0
  8  7  2  0
  9  2  1  0
  9 10  2  0
 11  9  1  0
 12 11  1  0
 12 13  1  0
 13 19  1  0
 14 13  2  0
 16 15  1  6
 16 17  1  0
 18 16  1  0
 18 20  1  0
 18 19  1  1
 20 22  1  0
 21 20  2  0
M  END
$$$$
