HGT.pdb
     RDKit          3D

 22 22  0  0  1  0  0  0  0  0999 V2000
   28.9433  -34.1939   -1.6462 N   0  0  0  0  0  0  0  0  0  0  0  0
   30.1517  -34.9001   -2.0096 C   0  0  1  0  0  0  0  0  0  0  0  0
   30.6549  -34.4425   -3.3592 C   0  0  0  0  0  0  0  0  0  0  0  0
   29.4906  -34.4807   -4.3131 C   0  0  0  0  0  0  0  0  0  0  0  0
   28.2150  -34.8910   -4.0093 C   0  0  0  0  0  0  0  0  0  0  0  0
   27.4981  -34.7674   -5.1353 N   0  0  0  0  0  0  0  0  0  0  0  0
   28.2726  -34.2971   -6.1291 C   0  0  0  0  0  0  0  0  0  0  0  0
   29.4869  -34.1289   -5.6043 N   0  0  0  0  0  0  0  0  0  0  0  0
   31.1798  -34.7443   -0.9562 C   0  0  0  0  0  0  0  0  0  0  0  0
   31.2339  -33.6556   -0.3498 O   0  0  0  0  0  0  0  0  0  0  0  0
   32.0759  -35.7991   -0.6451 N   0  0  0  0  0  0  0  0  0  0  0  0
   33.0788  -35.6440    0.3614 C   0  0  0  0  0  0  0  0  0  0  0  0
   32.5889  -35.9165    1.7246 C   0  0  0  0  0  0  0  0  0  0  0  0
   31.3931  -36.2664    1.8926 O   0  0  0  0  0  0  0  0  0  0  0  0
   33.6056  -36.5818    6.5323 C   0  0  0  0  0  0  0  0  0  0  0  0
   34.0563  -36.0265    5.1887 C   0  0  1  0  0  0  0  0  0  0  0  0
   35.1313  -36.7632    4.7228 O   0  0  0  0  0  0  0  0  0  0  0  0
   32.8888  -36.1199    4.2157 C   0  0  2  0  0  0  0  0  0  0  0  0
   33.3998  -35.8065    2.8853 N   0  0  0  0  0  0  0  0  0  0  0  0
   31.8650  -35.1288    4.6279 C   0  0  0  0  0  0  0  0  0  0  0  0
   31.9293  -33.9701    4.1515 O   0  0  0  0  0  0  0  0  0  0  0  0
   30.8398  -35.4134    5.5119 O   0  0  0  0  0  0  0  0  0  0  0  0
  2  1  1  1
  3  2  1  0
  3  4  1  0
  4  5  2  0
  5  6  1  0
  7  6  1  0
  8  4  1  0
  8  7  2  0
  9  2  1  0
  9 10  2  0
 11  9  1  0
 12 11  1  0
 12 13  1  0
 13 19  1  0
 14 13  2  0
 16 15  1  1
 16 17  1  0
 18 16  1  0
 18 20  1  0
 18 19  1  6
 20 22  1  0
 21 20  2  0
M  END
$$$$
