HGT.pdb
     RDKit          3D

 22 22  0  0  1  0  0  0  0  0999 V2000
   23.6328  -19.9449  -17.8265 N   0  0  0  0  0  0  0  0  0  0  0  0
   24.8549  -19.2176  -18.0883 C   0  0  1  0  0  0  0  0  0  0  0  0
   24.5898  -17.7315  -18.1601 C   0  0  0  0  0  0  0  0  0  0  0  0
   23.6792  -17.4904  -19.3346 C   0  0  0  0  0  0  0  0  0  0  0  0
   22.3095  -17.3931  -19.2838 C   0  0  0  0  0  0  0  0  0  0  0  0
   21.8973  -17.1781  -20.5412 N   0  0  0  0  0  0  0  0  0  0  0  0
   22.9520  -17.1371  -21.3746 C   0  0  0  0  0  0  0  0  0  0  0  0
   24.0314  -17.3304  -20.6157 N   0  0  0  0  0  0  0  0  0  0  0  0
   25.8811  -19.5461  -17.0733 C   0  0  0  0  0  0  0  0  0  0  0  0
   27.0351  -19.1054  -17.2463 O   0  0  0  0  0  0  0  0  0  0  0  0
   25.5634  -20.3369  -15.9394 N   0  0  0  0  0  0  0  0  0  0  0  0
   26.5219  -20.5616  -14.9032 C   0  0  0  0  0  0  0  0  0  0  0  0
   25.9447  -21.1733  -13.6927 C   0  0  0  0  0  0  0  0  0  0  0  0
   25.2292  -22.2013  -13.8015 O   0  0  0  0  0  0  0  0  0  0  0  0
   25.0795  -20.8881   -8.8047 C   0  0  0  0  0  0  0  0  0  0  0  0
   25.8987  -20.4290  -10.0026 C   0  0  1  0  0  0  0  0  0  0  0  0
   27.2232  -20.7857   -9.8191 O   0  0  0  0  0  0  0  0  0  0  0  0
   25.3382  -21.0973  -11.2508 C   0  0  2  0  0  0  0  0  0  0  0  0
   26.1502  -20.6639  -12.3831 N   0  0  0  0  0  0  0  0  0  0  0  0
   23.9321  -20.6556  -11.4180 C   0  0  0  0  0  0  0  0  0  0  0  0
   23.7169  -19.5071  -11.8744 O   0  0  0  0  0  0  0  0  0  0  0  0
   22.8414  -21.4437  -11.0972 O   0  0  0  0  0  0  0  0  0  0  0  0
  2  1  1  1
  3  2  1  0
  3  4  1  0
  4  5  2  0
  5  6  1  0
  7  6  1  0
  8  4  1  0
  8  7  2  0
  9  2  1  0
  9 10  2  0
 11  9  1  0
 12 11  1  0
 12 13  1  0
 13 19  1  0
 14 13  2  0
 16 15  1  1
 16 17  1  0
 18 16  1  0
 18 20  1  0
 18 19  1  6
 20 22  1  0
 21 20  2  0
M  END
$$$$
