HGT.pdb
     RDKit          3D

 22 22  0  0  1  0  0  0  0  0999 V2000
   17.5519  -12.9051  -15.7463 N   0  0  0  0  0  0  0  0  0  0  0  0
   18.7537  -12.4503  -16.4094 C   0  0  1  0  0  0  0  0  0  0  0  0
   18.9325  -13.1520  -17.7359 C   0  0  0  0  0  0  0  0  0  0  0  0
   19.1888  -14.6073  -17.4473 C   0  0  0  0  0  0  0  0  0  0  0  0
   20.4233  -15.2034  -17.3543 C   0  0  0  0  0  0  0  0  0  0  0  0
   20.2004  -16.4982  -17.0875 N   0  0  0  0  0  0  0  0  0  0  0  0
   18.8789  -16.7350  -17.0100 C   0  0  0  0  0  0  0  0  0  0  0  0
   18.2792  -15.5651  -17.2332 N   0  0  0  0  0  0  0  0  0  0  0  0
   18.7358  -10.9781  -16.5624 C   0  0  0  0  0  0  0  0  0  0  0  0
   17.7962  -10.4696  -17.2060 O   0  0  0  0  0  0  0  0  0  0  0  0
   19.7547  -10.1701  -15.9956 N   0  0  0  0  0  0  0  0  0  0  0  0
   19.8020   -8.7623  -16.2383 C   0  0  0  0  0  0  0  0  0  0  0  0
   20.8214   -8.0627  -15.4359 C   0  0  0  0  0  0  0  0  0  0  0  0
   21.4246   -8.6851  -14.5252 O   0  0  0  0  0  0  0  0  0  0  0  0
   23.2324   -5.2863  -17.0452 C   0  0  0  0  0  0  0  0  0  0  0  0
   22.6966   -4.8405  -15.6921 C   0  0  1  0  0  0  0  0  0  0  0  0
   21.6121   -4.0015  -15.8795 O   0  0  0  0  0  0  0  0  0  0  0  0
   22.2793   -6.0790  -14.9105 C   0  0  2  0  0  0  0  0  0  0  0  0
   21.1729   -6.7005  -15.6306 N   0  0  0  0  0  0  0  0  0  0  0  0
   21.8450   -5.6467  -13.5596 C   0  0  0  0  0  0  0  0  0  0  0  0
   20.6159   -5.6038  -13.3125 O   0  0  0  0  0  0  0  0  0  0  0  0
   22.7244   -5.2870  -12.5541 O   0  0  0  0  0  0  0  0  0  0  0  0
  2  1  1  6
  3  2  1  0
  3  4  1  0
  4  5  2  0
  5  6  1  0
  7  6  1  0
  8  4  1  0
  8  7  2  0
  9  2  1  0
  9 10  2  0
 11  9  1  0
 12 11  1  0
 12 13  1  0
 13 19  1  0
 14 13  2  0
 16 15  1  6
 16 17  1  0
 18 16  1  0
 18 20  1  0
 18 19  1  6
 20 22  1  0
 21 20  2  0
M  END
$$$$
