HGT.pdb
     RDKit          3D

 22 22  0  0  1  0  0  0  0  0999 V2000
   17.3752  -11.9001  -15.3661 N   0  0  0  0  0  0  0  0  0  0  0  0
   18.6540  -12.0618  -16.0212 C   0  0  1  0  0  0  0  0  0  0  0  0
   18.5222  -12.9371  -17.2462 C   0  0  0  0  0  0  0  0  0  0  0  0
   18.0407  -14.2879  -16.7875 C   0  0  0  0  0  0  0  0  0  0  0  0
   16.7568  -14.7645  -16.8990 C   0  0  0  0  0  0  0  0  0  0  0  0
   16.7622  -15.9969  -16.3714 N   0  0  0  0  0  0  0  0  0  0  0  0
   17.9954  -16.3094  -15.9354 C   0  0  0  0  0  0  0  0  0  0  0  0
   18.7612  -15.2503  -16.1998 N   0  0  0  0  0  0  0  0  0  0  0  0
   19.2400  -10.7421  -16.3472 C   0  0  0  0  0  0  0  0  0  0  0  0
   20.3688  -10.7195  -16.8773 O   0  0  0  0  0  0  0  0  0  0  0  0
   18.5407   -9.5403  -16.0661 N   0  0  0  0  0  0  0  0  0  0  0  0
   19.0504   -8.2731  -16.4872 C   0  0  0  0  0  0  0  0  0  0  0  0
   19.4042   -7.3818  -15.3678 C   0  0  0  0  0  0  0  0  0  0  0  0
   18.8771   -7.5661  -14.2414 O   0  0  0  0  0  0  0  0  0  0  0  0
   22.1408   -7.3098  -13.4882 C   0  0  0  0  0  0  0  0  0  0  0  0
   22.1326   -5.8635  -13.9624 C   0  0  1  0  0  0  0  0  0  0  0  0
   22.9662   -5.7333  -15.0595 O   0  0  0  0  0  0  0  0  0  0  0  0
   20.7043   -5.4896  -14.3352 C   0  0  2  0  0  0  0  0  0  0  0  0
   20.3226   -6.3047  -15.4837 N   0  0  0  0  0  0  0  0  0  0  0  0
   20.6821   -4.0490  -14.6877 C   0  0  0  0  0  0  0  0  0  0  0  0
   20.8774   -3.2081  -13.7775 O   0  0  0  0  0  0  0  0  0  0  0  0
   20.4570   -3.5805  -15.9697 O   0  0  0  0  0  0  0  0  0  0  0  0
  2  1  1  6
  3  2  1  0
  3  4  1  0
  4  5  2  0
  5  6  1  0
  7  6  1  0
  8  4  1  0
  8  7  2  0
  9  2  1  0
  9 10  2  0
 11  9  1  0
 12 11  1  0
 12 13  1  0
 13 19  1  0
 14 13  2  0
 16 15  1  6
 16 17  1  0
 18 16  1  0
 18 20  1  0
 18 19  1  6
 20 22  1  0
 21 20  2  0
M  END
$$$$
