HGT.pdb
     RDKit          3D

 22 22  0  0  1  0  0  0  0  0999 V2000
   19.9694  -16.7420  -17.1272 N   0  0  0  0  0  0  0  0  0  0  0  0
   20.4872  -15.8481  -16.1154 C   0  0  1  0  0  0  0  0  0  0  0  0
   21.6760  -16.4633  -15.4139 C   0  0  0  0  0  0  0  0  0  0  0  0
   21.2200  -17.7629  -14.8056 C   0  0  0  0  0  0  0  0  0  0  0  0
   21.5444  -19.0196  -15.2566 C   0  0  0  0  0  0  0  0  0  0  0  0
   20.9346  -19.8867  -14.4359 N   0  0  0  0  0  0  0  0  0  0  0  0
   20.2432  -19.2239  -13.4917 C   0  0  0  0  0  0  0  0  0  0  0  0
   20.4317  -17.9267  -13.7367 N   0  0  0  0  0  0  0  0  0  0  0  0
   20.8164  -14.5315  -16.7062 C   0  0  0  0  0  0  0  0  0  0  0  0
   21.3997  -14.5158  -17.8087 O   0  0  0  0  0  0  0  0  0  0  0  0
   20.4798  -13.3248  -16.0407 N   0  0  0  0  0  0  0  0  0  0  0  0
   20.8188  -12.0535  -16.5992 C   0  0  0  0  0  0  0  0  0  0  0  0
   20.4101  -10.9151  -15.7569 C   0  0  0  0  0  0  0  0  0  0  0  0
   19.6240  -11.1092  -14.7952 O   0  0  0  0  0  0  0  0  0  0  0  0
   22.4721   -8.9151  -13.6311 C   0  0  0  0  0  0  0  0  0  0  0  0
   21.7996   -7.8943  -14.5380 C   0  0  1  0  0  0  0  0  0  0  0  0
   22.6443   -7.5850  -15.5898 O   0  0  0  0  0  0  0  0  0  0  0  0
   20.5028   -8.4979  -15.0601 C   0  0  2  0  0  0  0  0  0  0  0  0
   20.8580   -9.5839  -15.9676 N   0  0  0  0  0  0  0  0  0  0  0  0
   19.7586   -7.4372  -15.7822 C   0  0  0  0  0  0  0  0  0  0  0  0
   19.7711   -7.4470  -17.0365 O   0  0  0  0  0  0  0  0  0  0  0  0
   19.0494   -6.4344  -15.1458 O   0  0  0  0  0  0  0  0  0  0  0  0
  2  1  1  6
  3  2  1  0
  3  4  1  0
  4  5  2  0
  5  6  1  0
  7  6  1  0
  8  4  1  0
  8  7  2  0
  9  2  1  0
  9 10  2  0
 11  9  1  0
 12 11  1  0
 12 13  1  0
 13 19  1  0
 14 13  2  0
 16 15  1  1
 16 17  1  0
 18 16  1  0
 18 20  1  0
 18 19  1  6
 20 22  1  0
 21 20  2  0
M  END
$$$$
