HGT.pdb
     RDKit          3D

 22 22  0  0  1  0  0  0  0  0999 V2000
   22.7521  -21.6144  -15.9285 N   0  0  0  0  0  0  0  0  0  0  0  0
   22.9813  -20.5486  -14.9785 C   0  0  1  0  0  0  0  0  0  0  0  0
   22.9359  -19.2017  -15.6625 C   0  0  0  0  0  0  0  0  0  0  0  0
   23.9078  -19.2446  -16.8116 C   0  0  0  0  0  0  0  0  0  0  0  0
   25.2567  -19.4874  -16.7155 C   0  0  0  0  0  0  0  0  0  0  0  0
   25.7417  -19.4357  -17.9643 N   0  0  0  0  0  0  0  0  0  0  0  0
   24.7521  -19.1709  -18.8356 C   0  0  0  0  0  0  0  0  0  0  0  0
   23.6395  -19.0579  -18.1093 N   0  0  0  0  0  0  0  0  0  0  0  0
   22.0134  -20.6326  -13.8617 C   0  0  0  0  0  0  0  0  0  0  0  0
   21.8516  -19.6196  -13.1522 O   0  0  0  0  0  0  0  0  0  0  0  0
   21.2920  -21.8269  -13.6055 N   0  0  0  0  0  0  0  0  0  0  0  0
   20.3858  -21.9209  -12.5043 C   0  0  0  0  0  0  0  0  0  0  0  0
   19.5736  -23.1508  -12.5163 C   0  0  0  0  0  0  0  0  0  0  0  0
   19.5026  -23.8337  -13.5695 O   0  0  0  0  0  0  0  0  0  0  0  0
   19.3221  -25.9298   -9.6249 C   0  0  0  0  0  0  0  0  0  0  0  0
   17.9559  -25.3897  -10.0233 C   0  0  1  0  0  0  0  0  0  0  0  0
   17.5828  -24.3871   -9.1453 O   0  0  0  0  0  0  0  0  0  0  0  0
   18.0516  -24.8434  -11.4414 C   0  0  2  0  0  0  0  0  0  0  0  0
   18.8506  -23.6236  -11.3890 N   0  0  0  0  0  0  0  0  0  0  0  0
   16.6774  -24.5468  -11.9146 C   0  0  0  0  0  0  0  0  0  0  0  0
   16.2460  -23.3745  -11.7996 O   0  0  0  0  0  0  0  0  0  0  0  0
   15.8428  -25.4954  -12.4777 O   0  0  0  0  0  0  0  0  0  0  0  0
  2  1  1  6
  3  2  1  0
  3  4  1  0
  4  5  2  0
  5  6  1  0
  7  6  1  0
  8  4  1  0
  8  7  2  0
  9  2  1  0
  9 10  2  0
 11  9  1  0
 12 11  1  0
 12 13  1  0
 13 19  1  0
 14 13  2  0
 16 15  1  1
 16 17  1  0
 18 16  1  0
 18 20  1  0
 18 19  1  1
 20 22  1  0
 21 20  2  0
M  END
$$$$
