CGR.pdb
     RDKit          3D

 22 21  0  0  1  0  0  0  0  0999 V2000
    6.8013  -14.8155   19.4878 N   0  0  0  0  0  0  0  0  0  0  0  0
    8.1779  -14.4484   19.7308 C   0  0  1  0  0  0  0  0  0  0  0  0
    8.5772  -13.2504   18.8829 C   0  0  0  0  0  0  0  0  0  0  0  0
    8.1635  -13.6026   17.1478 S   0  0  0  0  0  0  0  0  0  0  0  0
    8.3526  -14.1724   21.1709 C   0  0  0  0  0  0  0  0  0  0  0  0
    9.5097  -14.0314   21.6319 O   0  0  0  0  0  0  0  0  0  0  0  0
    7.2093  -14.0724   22.0021 N   0  0  0  0  0  0  0  0  0  0  0  0
    7.3832  -13.6863   23.3871 C   0  0  0  0  0  0  0  0  0  0  0  0
    7.3392  -14.8959   24.2725 C   0  0  0  0  0  0  0  0  0  0  0  0
    6.2293  -15.2586   24.7758 O   0  0  0  0  0  0  0  0  0  0  0  0
    6.4795  -21.2428   23.1408 N   0  0  0  0  0  0  0  0  0  0  0  0
    5.9577  -21.6057   24.4095 C   0  0  0  0  0  0  0  0  0  0  0  0
    5.2334  -22.6665   24.5369 N   0  0  0  0  0  0  0  0  0  0  0  0
    6.2003  -20.8365   25.5841 N   0  0  0  0  0  0  0  0  0  0  0  0
    7.3437  -19.9929   25.7356 C   0  0  0  0  0  0  0  0  0  0  0  0
    7.5354  -18.9911   24.6418 C   0  0  0  0  0  0  0  0  0  0  0  0
    8.7296  -18.1026   24.8240 C   0  0  0  0  0  0  0  0  0  0  0  0
    8.4277  -16.8055   25.4937 C   0  0  2  0  0  0  0  0  0  0  0  0
    8.4800  -15.6745   24.5889 N   0  0  0  0  0  0  0  0  0  0  0  0
    9.4875  -16.5911   26.5410 C   0  0  0  0  0  0  0  0  0  0  0  0
   10.5097  -15.8858   26.3172 O   0  0  0  0  0  0  0  0  0  0  0  0
    9.3537  -17.1718   27.7782 O   0  0  0  0  0  0  0  0  0  0  0  0
  2  1  1  1
  2  5  1  0
  2  3  1  0
  4  3  1  0
  5  6  2  0
  7  5  1  0
  7  8  1  0
  8  9  1  0
  9 19  1  0
  9 10  2  0
 11 12  1  0
 12 13  2  0
 14 12  1  0
 14 15  1  0
 16 17  1  0
 16 15  1  0
 18 17  1  6
 18 20  1  0
 19 18  1  0
 20 22  1  0
 21 20  2  0
M  END
$$$$
