CGR.pdb
     RDKit          3D

 22 21  0  0  1  0  0  0  0  0999 V2000
    4.6849  -20.5528   21.4394 N   0  0  0  0  0  0  0  0  0  0  0  0
    4.7830  -19.2462   20.8294 C   0  0  1  0  0  0  0  0  0  0  0  0
    4.2270  -18.1735   21.7534 C   0  0  0  0  0  0  0  0  0  0  0  0
    2.7347  -18.8219   22.5649 S   0  0  0  0  0  0  0  0  0  0  0  0
    6.1949  -18.9834   20.4857 C   0  0  0  0  0  0  0  0  0  0  0  0
    6.4781  -17.9895   19.7763 O   0  0  0  0  0  0  0  0  0  0  0  0
    7.2005  -19.8594   20.9648 N   0  0  0  0  0  0  0  0  0  0  0  0
    8.5722  -19.6401   20.5551 C   0  0  0  0  0  0  0  0  0  0  0  0
    9.1914  -18.5495   21.3775 C   0  0  0  0  0  0  0  0  0  0  0  0
   10.3516  -18.1254   21.0760 O   0  0  0  0  0  0  0  0  0  0  0  0
    7.6725  -11.9474   21.0788 N   0  0  0  0  0  0  0  0  0  0  0  0
    8.0170  -12.7282   19.9450 C   0  0  0  0  0  0  0  0  0  0  0  0
    8.2950  -12.1575   18.8211 N   0  0  0  0  0  0  0  0  0  0  0  0
    8.0739  -14.1513   19.9858 N   0  0  0  0  0  0  0  0  0  0  0  0
    7.7742  -14.9055   21.1619 C   0  0  0  0  0  0  0  0  0  0  0  0
    8.7865  -14.7917   22.2569 C   0  0  0  0  0  0  0  0  0  0  0  0
    8.5253  -15.6865   23.4315 C   0  0  0  0  0  0  0  0  0  0  0  0
    9.2197  -17.0037   23.3605 C   0  0  2  0  0  0  0  0  0  0  0  0
    8.5512  -17.9511   22.4909 N   0  0  0  0  0  0  0  0  0  0  0  0
    9.2088  -17.5850   24.7491 C   0  0  0  0  0  0  0  0  0  0  0  0
    8.5111  -18.5951   25.0410 O   0  0  0  0  0  0  0  0  0  0  0  0
    9.9728  -17.0123   25.7361 O   0  0  0  0  0  0  0  0  0  0  0  0
  2  1  1  1
  2  5  1  0
  2  3  1  0
  4  3  1  0
  5  6  2  0
  7  5  1  0
  7  8  1  0
  8  9  1  0
  9 19  1  0
  9 10  2  0
 11 12  1  0
 12 13  2  0
 14 12  1  0
 14 15  1  0
 16 17  1  0
 16 15  1  0
 18 17  1  1
 18 20  1  0
 19 18  1  0
 20 22  1  0
 21 20  2  0
M  END
$$$$
