CGR.pdb
     RDKit          3D

 22 21  0  0  1  0  0  0  0  0999 V2000
    9.1101  -14.4117   17.4541 N   0  0  0  0  0  0  0  0  0  0  0  0
    8.4835  -14.0474   18.7045 C   0  0  1  0  0  0  0  0  0  0  0  0
    7.0477  -13.5982   18.4808 C   0  0  0  0  0  0  0  0  0  0  0  0
    7.0581  -12.1343   17.4025 S   0  0  0  0  0  0  0  0  0  0  0  0
    8.5511  -15.1986   19.6269 C   0  0  0  0  0  0  0  0  0  0  0  0
    8.1585  -15.0604   20.8093 O   0  0  0  0  0  0  0  0  0  0  0  0
    9.0581  -16.4357   19.1570 N   0  0  0  0  0  0  0  0  0  0  0  0
    9.1221  -17.5576   20.0706 C   0  0  0  0  0  0  0  0  0  0  0  0
    9.8818  -17.1778   21.3065 C   0  0  0  0  0  0  0  0  0  0  0  0
   11.1037  -16.8404   21.2067 O   0  0  0  0  0  0  0  0  0  0  0  0
   10.8493  -14.7877   30.6431 N   0  0  0  0  0  0  0  0  0  0  0  0
   10.2631  -14.5635   29.3704 C   0  0  0  0  0  0  0  0  0  0  0  0
    9.2271  -13.8022   29.2553 N   0  0  0  0  0  0  0  0  0  0  0  0
   10.7754  -15.1527   28.1785 N   0  0  0  0  0  0  0  0  0  0  0  0
   10.0513  -15.1644   26.9467 C   0  0  0  0  0  0  0  0  0  0  0  0
    9.9825  -16.4966   26.2703 C   0  0  0  0  0  0  0  0  0  0  0  0
    9.2598  -16.4827   24.9565 C   0  0  0  0  0  0  0  0  0  0  0  0
   10.0912  -16.9204   23.7991 C   0  0  2  0  0  0  0  0  0  0  0  0
    9.3112  -17.1714   22.6035 N   0  0  0  0  0  0  0  0  0  0  0  0
   10.7439  -18.2195   24.1893 C   0  0  0  0  0  0  0  0  0  0  0  0
   10.2237  -19.3347   23.9098 O   0  0  0  0  0  0  0  0  0  0  0  0
   11.9375  -18.2082   24.8683 O   0  0  0  0  0  0  0  0  0  0  0  0
  2  1  1  6
  2  5  1  0
  2  3  1  0
  4  3  1  0
  5  6  2  0
  7  5  1  0
  7  8  1  0
  8  9  1  0
  9 19  1  0
  9 10  2  0
 11 12  1  0
 12 13  2  0
 14 12  1  0
 14 15  1  0
 16 17  1  0
 16 15  1  0
 18 17  1  1
 18 20  1  0
 19 18  1  0
 20 22  1  0
 21 20  2  0
M  END
$$$$
