CGR.pdb
     RDKit          3D

 22 21  0  0  1  0  0  0  0  0999 V2000
    7.6434  -16.2192   19.7938 N   0  0  0  0  0  0  0  0  0  0  0  0
    8.2107  -14.9024   19.6117 C   0  0  1  0  0  0  0  0  0  0  0  0
    7.5205  -14.1676   18.4727 C   0  0  0  0  0  0  0  0  0  0  0  0
    8.1789  -12.4748   18.3896 S   0  0  0  0  0  0  0  0  0  0  0  0
    8.1019  -14.1548   20.8804 C   0  0  0  0  0  0  0  0  0  0  0  0
    8.9773  -13.3048   21.1679 O   0  0  0  0  0  0  0  0  0  0  0  0
    7.0107  -14.4131   21.7469 N   0  0  0  0  0  0  0  0  0  0  0  0
    6.9091  -13.6681   22.9848 C   0  0  0  0  0  0  0  0  0  0  0  0
    7.7101  -14.3384   24.0610 C   0  0  0  0  0  0  0  0  0  0  0  0
    8.4182  -13.6285   24.8431 O   0  0  0  0  0  0  0  0  0  0  0  0
    8.8368  -20.2190   28.8528 N   0  0  0  0  0  0  0  0  0  0  0  0
    7.7593  -20.8773   28.2053 C   0  0  0  0  0  0  0  0  0  0  0  0
    7.7431  -22.1648   28.1135 N   0  0  0  0  0  0  0  0  0  0  0  0
    6.6623  -20.1688   27.6355 N   0  0  0  0  0  0  0  0  0  0  0  0
    6.6954  -19.6197   26.3167 C   0  0  0  0  0  0  0  0  0  0  0  0
    7.0107  -18.1592   26.2514 C   0  0  0  0  0  0  0  0  0  0  0  0
    8.2318  -17.8291   25.4460 C   0  0  0  0  0  0  0  0  0  0  0  0
    8.5003  -16.3684   25.3169 C   0  0  2  0  0  0  0  0  0  0  0  0
    7.7268  -15.7406   24.2642 N   0  0  0  0  0  0  0  0  0  0  0  0
    9.9540  -16.2158   24.9570 C   0  0  0  0  0  0  0  0  0  0  0  0
   10.8626  -16.2547   25.8318 O   0  0  0  0  0  0  0  0  0  0  0  0
   10.3178  -16.0284   23.6462 O   0  0  0  0  0  0  0  0  0  0  0  0
  2  1  1  1
  2  5  1  0
  2  3  1  0
  4  3  1  0
  5  6  2  0
  7  5  1  0
  7  8  1  0
  8  9  1  0
  9 19  1  0
  9 10  2  0
 11 12  1  0
 12 13  2  0
 14 12  1  0
 14 15  1  0
 16 17  1  0
 16 15  1  0
 18 17  1  6
 18 20  1  0
 19 18  1  0
 20 22  1  0
 21 20  2  0
M  END
$$$$
