CGR.pdb
     RDKit          3D

 22 21  0  0  1  0  0  0  0  0999 V2000
    9.6425  -15.2216   19.7948 N   0  0  0  0  0  0  0  0  0  0  0  0
    9.1985  -13.8606   19.5957 C   0  0  1  0  0  0  0  0  0  0  0  0
    8.2392  -13.7700   18.4189 C   0  0  0  0  0  0  0  0  0  0  0  0
    6.6146  -14.3952   18.9439 S   0  0  0  0  0  0  0  0  0  0  0  0
    8.5718  -13.3746   20.8414 C   0  0  0  0  0  0  0  0  0  0  0  0
    8.1397  -12.1990   20.8918 O   0  0  0  0  0  0  0  0  0  0  0  0
    8.4714  -14.2467   21.9539 N   0  0  0  0  0  0  0  0  0  0  0  0
    7.7669  -13.7943   23.1357 C   0  0  0  0  0  0  0  0  0  0  0  0
    7.5946  -14.9276   24.1027 C   0  0  0  0  0  0  0  0  0  0  0  0
    6.9402  -14.7356   25.1759 O   0  0  0  0  0  0  0  0  0  0  0  0
    4.3030  -17.5850   20.7995 N   0  0  0  0  0  0  0  0  0  0  0  0
    3.5448  -18.5049   21.5694 C   0  0  0  0  0  0  0  0  0  0  0  0
    2.2632  -18.5704   21.4298 N   0  0  0  0  0  0  0  0  0  0  0  0
    4.1438  -19.3858   22.5156 N   0  0  0  0  0  0  0  0  0  0  0  0
    5.5466  -19.3934   22.7874 C   0  0  0  0  0  0  0  0  0  0  0  0
    5.9658  -18.5553   23.9531 C   0  0  0  0  0  0  0  0  0  0  0  0
    7.4428  -18.5568   24.2121 C   0  0  0  0  0  0  0  0  0  0  0  0
    7.9527  -17.3047   24.8401 C   0  0  2  0  0  0  0  0  0  0  0  0
    8.1260  -16.2238   23.8902 N   0  0  0  0  0  0  0  0  0  0  0  0
    9.3084  -17.6181   25.4146 C   0  0  0  0  0  0  0  0  0  0  0  0
   10.3544  -17.0480   24.9982 O   0  0  0  0  0  0  0  0  0  0  0  0
    9.4274  -18.5470   26.4189 O   0  0  0  0  0  0  0  0  0  0  0  0
  2  1  1  1
  2  5  1  0
  2  3  1  0
  4  3  1  0
  5  6  2  0
  7  5  1  0
  7  8  1  0
  8  9  1  0
  9 19  1  0
  9 10  2  0
 11 12  1  0
 12 13  2  0
 14 12  1  0
 14 15  1  0
 16 17  1  0
 16 15  1  0
 18 17  1  6
 18 20  1  0
 19 18  1  0
 20 22  1  0
 21 20  2  0
M  END
$$$$
