CGR.pdb
     RDKit          3D

 22 21  0  0  1  0  0  0  0  0999 V2000
    9.2279  -21.7767   20.9878 N   0  0  0  0  0  0  0  0  0  0  0  0
    8.6173  -20.9623   19.9616 C   0  0  1  0  0  0  0  0  0  0  0  0
    7.3080  -20.3636   20.4523 C   0  0  0  0  0  0  0  0  0  0  0  0
    6.9205  -21.0703   22.0821 S   0  0  0  0  0  0  0  0  0  0  0  0
    9.5715  -19.9118   19.5535 C   0  0  0  0  0  0  0  0  0  0  0  0
    9.2784  -19.1553   18.5980 O   0  0  0  0  0  0  0  0  0  0  0  0
   10.7986  -19.7802   20.2500 N   0  0  0  0  0  0  0  0  0  0  0  0
   11.6525  -18.6483   19.9546 C   0  0  0  0  0  0  0  0  0  0  0  0
   11.3468  -17.5112   20.8835 C   0  0  0  0  0  0  0  0  0  0  0  0
   12.0117  -16.4318   20.7855 O   0  0  0  0  0  0  0  0  0  0  0  0
    8.9218  -12.4351   18.9258 N   0  0  0  0  0  0  0  0  0  0  0  0
    8.2687  -12.5187   20.1829 C   0  0  0  0  0  0  0  0  0  0  0  0
    7.7100  -11.4750   20.6974 N   0  0  0  0  0  0  0  0  0  0  0  0
    8.1957  -13.7315   20.9271 N   0  0  0  0  0  0  0  0  0  0  0  0
    7.5094  -13.8342   22.1762 C   0  0  0  0  0  0  0  0  0  0  0  0
    8.1366  -14.7661   23.1636 C   0  0  0  0  0  0  0  0  0  0  0  0
    8.5101  -16.1030   22.5963 C   0  0  0  0  0  0  0  0  0  0  0  0
    9.9659  -16.4135   22.6754 C   0  0  2  0  0  0  0  0  0  0  0  0
   10.3437  -17.5666   21.8827 N   0  0  0  0  0  0  0  0  0  0  0  0
   10.2715  -16.7384   24.1132 C   0  0  0  0  0  0  0  0  0  0  0  0
   10.5713  -17.9077   24.4808 O   0  0  0  0  0  0  0  0  0  0  0  0
   10.2270  -15.7472   25.0625 O   0  0  0  0  0  0  0  0  0  0  0  0
  2  1  1  1
  2  5  1  0
  2  3  1  0
  4  3  1  0
  5  6  2  0
  7  5  1  0
  7  8  1  0
  8  9  1  0
  9 19  1  0
  9 10  2  0
 11 12  1  0
 12 13  2  0
 14 12  1  0
 14 15  1  0
 16 17  1  0
 16 15  1  0
 18 17  1  1
 18 20  1  0
 19 18  1  0
 20 22  1  0
 21 20  2  0
M  END
$$$$
