CGR.pdb
     RDKit          3D

 22 21  0  0  1  0  0  0  0  0999 V2000
    9.2447  -12.5329   18.8872 N   0  0  0  0  0  0  0  0  0  0  0  0
    8.1885  -13.0806   19.7078 C   0  0  1  0  0  0  0  0  0  0  0  0
    6.8831  -13.1577   18.9310 C   0  0  0  0  0  0  0  0  0  0  0  0
    7.1977  -13.9934   17.3472 S   0  0  0  0  0  0  0  0  0  0  0  0
    8.6040  -14.4102   20.1979 C   0  0  0  0  0  0  0  0  0  0  0  0
    7.8414  -15.0476   20.9618 O   0  0  0  0  0  0  0  0  0  0  0  0
    9.8557  -14.9385   19.7950 N   0  0  0  0  0  0  0  0  0  0  0  0
   10.2025  -16.2896   20.1844 C   0  0  0  0  0  0  0  0  0  0  0  0
   10.8871  -16.2856   21.5187 C   0  0  0  0  0  0  0  0  0  0  0  0
   11.9807  -15.6511   21.6550 O   0  0  0  0  0  0  0  0  0  0  0  0
    9.1222  -13.5405   27.6791 N   0  0  0  0  0  0  0  0  0  0  0  0
    9.7322  -14.5252   28.4989 C   0  0  0  0  0  0  0  0  0  0  0  0
   10.4791  -14.1749   29.4916 N   0  0  0  0  0  0  0  0  0  0  0  0
    9.5562  -15.9214   28.2757 N   0  0  0  0  0  0  0  0  0  0  0  0
    9.3516  -16.4788   26.9760 C   0  0  0  0  0  0  0  0  0  0  0  0
   10.5664  -17.0933   26.3569 C   0  0  0  0  0  0  0  0  0  0  0  0
   10.3320  -17.6863   24.9997 C   0  0  0  0  0  0  0  0  0  0  0  0
   11.1119  -17.0368   23.9078 C   0  0  2  0  0  0  0  0  0  0  0  0
   10.3810  -16.9579   22.6587 N   0  0  0  0  0  0  0  0  0  0  0  0
   12.3267  -17.8914   23.6631 C   0  0  0  0  0  0  0  0  0  0  0  0
   12.2687  -18.9466   22.9735 O   0  0  0  0  0  0  0  0  0  0  0  0
   13.5380  -17.5270   24.1976 O   0  0  0  0  0  0  0  0  0  0  0  0
  2  1  1  6
  2  5  1  0
  2  3  1  0
  4  3  1  0
  5  6  2  0
  7  5  1  0
  7  8  1  0
  8  9  1  0
  9 19  1  0
  9 10  2  0
 11 12  1  0
 12 13  2  0
 14 12  1  0
 14 15  1  0
 16 17  1  0
 16 15  1  0
 18 17  1  1
 18 20  1  0
 19 18  1  0
 20 22  1  0
 21 20  2  0
M  END
$$$$
