CGR.pdb
     RDKit          3D

 22 21  0  0  1  0  0  0  0  0999 V2000
    9.3729  -12.8489   18.5256 N   0  0  0  0  0  0  0  0  0  0  0  0
    8.8224  -13.8248   19.4386 C   0  0  1  0  0  0  0  0  0  0  0  0
    7.3021  -13.7781   19.4300 C   0  0  0  0  0  0  0  0  0  0  0  0
    6.7667  -12.1614   20.0666 S   0  0  0  0  0  0  0  0  0  0  0  0
    9.3232  -15.1634   19.0673 C   0  0  0  0  0  0  0  0  0  0  0  0
   10.1202  -15.2747   18.1061 O   0  0  0  0  0  0  0  0  0  0  0  0
    8.8931  -16.2945   19.8047 N   0  0  0  0  0  0  0  0  0  0  0  0
    9.7838  -17.4301   19.9263 C   0  0  0  0  0  0  0  0  0  0  0  0
   10.4542  -17.4225   21.2678 C   0  0  0  0  0  0  0  0  0  0  0  0
   11.7207  -17.3275   21.3298 O   0  0  0  0  0  0  0  0  0  0  0  0
    9.3831  -13.6103   28.8219 N   0  0  0  0  0  0  0  0  0  0  0  0
   10.2077  -14.7110   29.1715 C   0  0  0  0  0  0  0  0  0  0  0  0
   10.8069  -14.7391   30.3145 N   0  0  0  0  0  0  0  0  0  0  0  0
   10.4133  -15.8192   28.2998 N   0  0  0  0  0  0  0  0  0  0  0  0
    9.8756  -15.8748   26.9770 C   0  0  0  0  0  0  0  0  0  0  0  0
   10.1001  -17.1685   26.2609 C   0  0  0  0  0  0  0  0  0  0  0  0
    9.4489  -17.2461   24.9124 C   0  0  0  0  0  0  0  0  0  0  0  0
   10.4063  -17.4114   23.7818 C   0  0  2  0  0  0  0  0  0  0  0  0
    9.7500  -17.5164   22.4938 N   0  0  0  0  0  0  0  0  0  0  0  0
   11.1467  -18.7014   24.0141 C   0  0  0  0  0  0  0  0  0  0  0  0
   10.6811  -19.8119   23.6366 O   0  0  0  0  0  0  0  0  0  0  0  0
   12.3623  -18.6866   24.6526 O   0  0  0  0  0  0  0  0  0  0  0  0
  2  1  1  6
  2  5  1  0
  2  3  1  0
  4  3  1  0
  5  6  2  0
  7  5  1  0
  7  8  1  0
  8  9  1  0
  9 19  1  0
  9 10  2  0
 11 12  1  0
 12 13  2  0
 14 12  1  0
 14 15  1  0
 16 17  1  0
 16 15  1  0
 18 17  1  1
 18 20  1  0
 19 18  1  0
 20 22  1  0
 21 20  2  0
M  END
$$$$
