CGR.pdb
     RDKit          3D

 22 21  0  0  1  0  0  0  0  0999 V2000
    9.8426  -16.0656   17.5758 N   0  0  0  0  0  0  0  0  0  0  0  0
    9.7313  -17.4904   17.3604 C   0  0  1  0  0  0  0  0  0  0  0  0
   10.4171  -17.8980   16.0653 C   0  0  0  0  0  0  0  0  0  0  0  0
   11.8321  -16.7916   15.7838 S   0  0  0  0  0  0  0  0  0  0  0  0
   10.3082  -18.1965   18.5219 C   0  0  0  0  0  0  0  0  0  0  0  0
   10.1954  -19.4426   18.5995 O   0  0  0  0  0  0  0  0  0  0  0  0
   10.9774  -17.4517   19.5247 N   0  0  0  0  0  0  0  0  0  0  0  0
   11.5034  -18.1491   20.6799 C   0  0  0  0  0  0  0  0  0  0  0  0
   11.3156  -17.3209   21.9160 C   0  0  0  0  0  0  0  0  0  0  0  0
   12.3369  -16.8602   22.5173 O   0  0  0  0  0  0  0  0  0  0  0  0
    9.5431  -13.9754   18.4908 N   0  0  0  0  0  0  0  0  0  0  0  0
    8.8649  -13.0704   19.3480 C   0  0  0  0  0  0  0  0  0  0  0  0
    9.0259  -11.7972   19.2097 N   0  0  0  0  0  0  0  0  0  0  0  0
    7.9895  -13.5087   20.3833 N   0  0  0  0  0  0  0  0  0  0  0  0
    8.2906  -14.6148   21.2363 C   0  0  0  0  0  0  0  0  0  0  0  0
    8.1962  -14.3237   22.7003 C   0  0  0  0  0  0  0  0  0  0  0  0
    8.4660  -15.5068   23.5812 C   0  0  0  0  0  0  0  0  0  0  0  0
    9.8639  -16.0187   23.5032 C   0  0  2  0  0  0  0  0  0  0  0  0
   10.0462  -17.0141   22.4657 N   0  0  0  0  0  0  0  0  0  0  0  0
   10.1659  -16.6831   24.8199 C   0  0  0  0  0  0  0  0  0  0  0  0
   10.0383  -17.9283   24.9803 O   0  0  0  0  0  0  0  0  0  0  0  0
   10.5923  -15.9283   25.8848 O   0  0  0  0  0  0  0  0  0  0  0  0
  2  1  1  1
  2  5  1  0
  2  3  1  0
  4  3  1  0
  5  6  2  0
  7  5  1  0
  7  8  1  0
  8  9  1  0
  9 19  1  0
  9 10  2  0
 11 12  1  0
 12 13  2  0
 14 12  1  0
 14 15  1  0
 16 17  1  0
 16 15  1  0
 18 17  1  1
 18 20  1  0
 19 18  1  0
 20 22  1  0
 21 20  2  0
M  END
$$$$
