CGR.pdb
     RDKit          3D

 22 21  0  0  1  0  0  0  0  0999 V2000
    7.6581  -14.2127   18.4699 N   0  0  0  0  0  0  0  0  0  0  0  0
    8.6203  -13.7782   19.4569 C   0  0  1  0  0  0  0  0  0  0  0  0
    8.1070  -12.5648   20.2169 C   0  0  0  0  0  0  0  0  0  0  0  0
    6.6901  -13.0740   21.2362 S   0  0  0  0  0  0  0  0  0  0  0  0
    8.9113  -14.9026   20.3689 C   0  0  0  0  0  0  0  0  0  0  0  0
    8.1260  -15.8788   20.4082 O   0  0  0  0  0  0  0  0  0  0  0  0
   10.0719  -14.8553   21.1807 N   0  0  0  0  0  0  0  0  0  0  0  0
   10.4355  -16.0273   21.9499 C   0  0  0  0  0  0  0  0  0  0  0  0
    9.8320  -15.9559   23.3210 C   0  0  0  0  0  0  0  0  0  0  0  0
    9.7480  -14.8300   23.9059 O   0  0  0  0  0  0  0  0  0  0  0  0
    5.1578  -21.7650   25.0170 N   0  0  0  0  0  0  0  0  0  0  0  0
    5.5300  -21.5308   23.6678 C   0  0  0  0  0  0  0  0  0  0  0  0
    5.1449  -22.3373   22.7364 N   0  0  0  0  0  0  0  0  0  0  0  0
    6.3298  -20.4180   23.2778 N   0  0  0  0  0  0  0  0  0  0  0  0
    7.4003  -19.9143   24.0791 C   0  0  0  0  0  0  0  0  0  0  0  0
    7.0575  -18.7153   24.9047 C   0  0  0  0  0  0  0  0  0  0  0  0
    8.1578  -18.2618   25.8170 C   0  0  0  0  0  0  0  0  0  0  0  0
    8.8387  -17.0111   25.3759 C   0  0  2  0  0  0  0  0  0  0  0  0
    9.3402  -17.0872   24.0182 N   0  0  0  0  0  0  0  0  0  0  0  0
   10.0245  -16.8100   26.2812 C   0  0  0  0  0  0  0  0  0  0  0  0
   11.2075  -16.8396   25.8429 O   0  0  0  0  0  0  0  0  0  0  0  0
    9.8309  -16.5876   27.6223 O   0  0  0  0  0  0  0  0  0  0  0  0
  2  1  1  6
  2  5  1  0
  2  3  1  0
  4  3  1  0
  5  6  2  0
  7  5  1  0
  7  8  1  0
  8  9  1  0
  9 19  1  0
  9 10  2  0
 11 12  1  0
 12 13  2  0
 14 12  1  0
 14 15  1  0
 16 17  1  0
 16 15  1  0
 18 17  1  1
 18 20  1  0
 19 18  1  0
 20 22  1  0
 21 20  2  0
M  END
$$$$
