CGR.pdb
     RDKit          3D

 22 21  0  0  1  0  0  0  0  0999 V2000
    5.5209  -20.6263   20.9545 N   0  0  0  0  0  0  0  0  0  0  0  0
    4.6333  -19.5158   21.2148 C   0  0  1  0  0  0  0  0  0  0  0  0
    3.1788  -19.9474   21.1059 C   0  0  0  0  0  0  0  0  0  0  0  0
    2.1190  -18.5081   21.4393 S   0  0  0  0  0  0  0  0  0  0  0  0
    4.9342  -18.9658   22.5518 C   0  0  0  0  0  0  0  0  0  0  0  0
    4.6520  -17.7700   22.8003 O   0  0  0  0  0  0  0  0  0  0  0  0
    5.5354  -19.8006   23.5265 N   0  0  0  0  0  0  0  0  0  0  0  0
    5.7786  -19.2666   24.8506 C   0  0  0  0  0  0  0  0  0  0  0  0
    7.1331  -18.6255   24.9109 C   0  0  0  0  0  0  0  0  0  0  0  0
    8.1422  -19.3318   25.2267 O   0  0  0  0  0  0  0  0  0  0  0  0
    7.9568  -11.6938   20.0355 N   0  0  0  0  0  0  0  0  0  0  0  0
    7.9849  -13.0030   19.4886 C   0  0  0  0  0  0  0  0  0  0  0  0
    7.9088  -13.1775   18.2119 N   0  0  0  0  0  0  0  0  0  0  0  0
    8.0968  -14.1683   20.3008 N   0  0  0  0  0  0  0  0  0  0  0  0
    8.3912  -14.1137   21.6981 C   0  0  0  0  0  0  0  0  0  0  0  0
    8.4636  -15.4439   22.3778 C   0  0  0  0  0  0  0  0  0  0  0  0
    8.7196  -15.3675   23.8534 C   0  0  0  0  0  0  0  0  0  0  0  0
    8.6928  -16.6873   24.5458 C   0  0  2  0  0  0  0  0  0  0  0  0
    7.3621  -17.2553   24.6323 N   0  0  0  0  0  0  0  0  0  0  0  0
    9.1747  -16.4583   25.9534 C   0  0  0  0  0  0  0  0  0  0  0  0
    8.3807  -16.4485   26.9342 O   0  0  0  0  0  0  0  0  0  0  0  0
   10.5110  -16.2528   26.1937 O   0  0  0  0  0  0  0  0  0  0  0  0
  2  1  1  1
  2  5  1  0
  2  3  1  0
  4  3  1  0
  5  6  2  0
  7  5  1  0
  7  8  1  0
  8  9  1  0
  9 19  1  0
  9 10  2  0
 11 12  1  0
 12 13  2  0
 14 12  1  0
 14 15  1  0
 16 17  1  0
 16 15  1  0
 18 17  1  6
 18 20  1  0
 19 18  1  0
 20 22  1  0
 21 20  2  0
M  END
$$$$
