CGR.pdb
     RDKit          3D

 22 21  0  0  1  0  0  0  0  0999 V2000
    6.9406  -13.6192   19.4310 N   0  0  0  0  0  0  0  0  0  0  0  0
    8.2736  -14.1744   19.4918 C   0  0  1  0  0  0  0  0  0  0  0  0
    9.3018  -13.0872   19.7644 C   0  0  0  0  0  0  0  0  0  0  0  0
    9.1794  -11.8304   18.4563 S   0  0  0  0  0  0  0  0  0  0  0  0
    8.3084  -15.2228   20.5312 C   0  0  0  0  0  0  0  0  0  0  0  0
    7.5044  -15.1611   21.4910 O   0  0  0  0  0  0  0  0  0  0  0  0
    9.2494  -16.2768   20.4227 N   0  0  0  0  0  0  0  0  0  0  0  0
    9.1995  -17.3604   21.3823 C   0  0  0  0  0  0  0  0  0  0  0  0
    9.9056  -16.9676   22.6458 C   0  0  0  0  0  0  0  0  0  0  0  0
   11.0206  -16.3607   22.5725 O   0  0  0  0  0  0  0  0  0  0  0  0
    5.1701  -12.9479   25.5963 N   0  0  0  0  0  0  0  0  0  0  0  0
    6.3206  -12.3886   26.2104 C   0  0  0  0  0  0  0  0  0  0  0  0
    6.2436  -11.2602   26.8324 N   0  0  0  0  0  0  0  0  0  0  0  0
    7.5932  -13.0284   26.1749 N   0  0  0  0  0  0  0  0  0  0  0  0
    7.7470  -14.4491   26.1855 C   0  0  0  0  0  0  0  0  0  0  0  0
    9.1629  -14.9279   26.2369 C   0  0  0  0  0  0  0  0  0  0  0  0
    9.3072  -16.4204   26.2516 C   0  0  0  0  0  0  0  0  0  0  0  0
   10.1507  -16.9621   25.1483 C   0  0  2  0  0  0  0  0  0  0  0  0
    9.3973  -17.2362   23.9408 N   0  0  0  0  0  0  0  0  0  0  0  0
   10.7201  -18.2704   25.6281 C   0  0  0  0  0  0  0  0  0  0  0  0
   10.3765  -19.3718   25.1169 O   0  0  0  0  0  0  0  0  0  0  0  0
   11.6388  -18.2831   26.6486 O   0  0  0  0  0  0  0  0  0  0  0  0
  2  1  1  1
  2  5  1  0
  2  3  1  0
  4  3  1  0
  5  6  2  0
  7  5  1  0
  7  8  1  0
  8  9  1  0
  9 19  1  0
  9 10  2  0
 11 12  1  0
 12 13  2  0
 14 12  1  0
 14 15  1  0
 16 17  1  0
 16 15  1  0
 18 17  1  1
 18 20  1  0
 19 18  1  0
 20 22  1  0
 21 20  2  0
M  END
$$$$
