CGR.pdb
     RDKit          3D

 22 21  0  0  1  0  0  0  0  0999 V2000
    8.4662  -13.6767   17.7772 N   0  0  0  0  0  0  0  0  0  0  0  0
    8.2698  -13.5101   19.1993 C   0  0  1  0  0  0  0  0  0  0  0  0
    7.4826  -12.2423   19.4931 C   0  0  0  0  0  0  0  0  0  0  0  0
    8.5931  -10.8138   19.3132 S   0  0  0  0  0  0  0  0  0  0  0  0
    7.5853  -14.7056   19.7312 C   0  0  0  0  0  0  0  0  0  0  0  0
    7.0223  -15.4941   18.9357 O   0  0  0  0  0  0  0  0  0  0  0  0
    7.5788  -14.9373   21.1292 N   0  0  0  0  0  0  0  0  0  0  0  0
    6.8438  -16.0730   21.6464 C   0  0  0  0  0  0  0  0  0  0  0  0
    7.0316  -16.1804   23.1305 C   0  0  0  0  0  0  0  0  0  0  0  0
    7.1224  -15.1189   23.8246 O   0  0  0  0  0  0  0  0  0  0  0  0
    8.3399  -21.0481   29.9127 N   0  0  0  0  0  0  0  0  0  0  0  0
    7.1301  -21.1787   29.1826 C   0  0  0  0  0  0  0  0  0  0  0  0
    6.4979  -22.3040   29.1651 N   0  0  0  0  0  0  0  0  0  0  0  0
    6.5610  -20.0992   28.4471 N   0  0  0  0  0  0  0  0  0  0  0  0
    7.2916  -18.9165   28.1162 C   0  0  0  0  0  0  0  0  0  0  0  0
    8.2975  -19.0842   27.0222 C   0  0  0  0  0  0  0  0  0  0  0  0
    7.7335  -18.9378   25.6405 C   0  0  0  0  0  0  0  0  0  0  0  0
    7.6848  -17.5317   25.1479 C   0  0  2  0  0  0  0  0  0  0  0  0
    7.1156  -17.4154   23.8201 N   0  0  0  0  0  0  0  0  0  0  0  0
    9.1056  -17.0402   25.0712 C   0  0  0  0  0  0  0  0  0  0  0  0
    9.8227  -17.2376   24.0518 O   0  0  0  0  0  0  0  0  0  0  0  0
    9.6511  -16.3575   26.1304 O   0  0  0  0  0  0  0  0  0  0  0  0
  2  1  1  6
  2  5  1  0
  2  3  1  0
  4  3  1  0
  5  6  2  0
  7  5  1  0
  7  8  1  0
  8  9  1  0
  9 19  1  0
  9 10  2  0
 11 12  1  0
 12 13  2  0
 14 12  1  0
 14 15  1  0
 16 17  1  0
 16 15  1  0
 18 17  1  6
 18 20  1  0
 19 18  1  0
 20 22  1  0
 21 20  2  0
M  END
$$$$
