EKK.pdb
     RDKit          3D

 28 27  0  0  1  0  0  0  0  0999 V2000
   18.4928  -10.8715  -14.1372 N   0  0  0  0  0  0  0  0  0  0  0  0
   17.4653  -10.2468  -15.0160 C   0  0  1  0  0  0  0  0  0  0  0  0
   16.1863  -11.0357  -14.8271 C   0  0  0  0  0  0  0  0  0  0  0  0
   16.3277  -12.3875  -15.4438 C   0  0  0  0  0  0  0  0  0  0  0  0
   15.0318  -13.1215  -15.2287 C   0  0  0  0  0  0  0  0  0  0  0  0
   14.1463  -12.6479  -14.4688 O   0  0  0  0  0  0  0  0  0  0  0  0
   17.2496   -8.8865  -14.4845 C   0  0  0  0  0  0  0  0  0  0  0  0
   17.3646   -8.6879  -13.2400 O   0  0  0  0  0  0  0  0  0  0  0  0
   14.8591  -14.3166  -15.8900 O   0  0  0  0  0  0  0  0  0  0  0  0
   16.9192   -7.7401  -15.2556 N   0  0  0  0  0  0  0  0  0  0  0  0
   16.7824   -6.4416  -14.6220 C   0  0  1  0  0  0  0  0  0  0  0  0
   17.2525   -5.3522  -15.5970 C   0  0  0  0  0  0  0  0  0  0  0  0
   17.1593   -4.0401  -14.8580 C   0  0  0  0  0  0  0  0  0  0  0  0
   17.6209   -2.8693  -15.6592 C   0  0  0  0  0  0  0  0  0  0  0  0
   17.5991   -1.6272  -14.7953 C   0  0  0  0  0  0  0  0  0  0  0  0
   17.9795   -0.5110  -15.6594 N   0  0  0  0  0  0  0  0  0  0  0  0
   15.3757   -6.1686  -14.2024 C   0  0  0  0  0  0  0  0  0  0  0  0
   14.4145   -6.3014  -15.0167 O   0  0  0  0  0  0  0  0  0  0  0  0
   15.0676   -5.7580  -12.9004 N   0  0  0  0  0  0  0  0  0  0  0  0
   13.6269   -5.4463  -12.4955 C   0  0  1  0  0  0  0  0  0  0  0  0
   13.3304   -6.5914  -11.6277 C   0  0  0  0  0  0  0  0  0  0  0  0
   12.1217   -6.8223  -10.8917 C   0  0  0  0  0  0  0  0  0  0  0  0
   11.8833   -7.9434  -10.0191 C   0  0  0  0  0  0  0  0  0  0  0  0
   10.7047   -8.0688   -9.1785 C   0  0  0  0  0  0  0  0  0  0  0  0
   10.7711   -9.4424   -8.5562 N   0  0  0  0  0  0  0  0  0  0  0  0
   13.7008   -4.0759  -12.0847 C   0  0  0  0  0  0  0  0  0  0  0  0
   12.6176   -3.2468  -11.7843 O   0  0  0  0  0  0  0  0  0  0  0  0
   14.8312   -3.4816  -11.9715 O   0  0  0  0  0  0  0  0  0  0  0  0
  2  7  1  0
  2  1  1  1
  3  2  1  0
  3  4  1  0
  4  5  1  0
  5  6  2  0
  7  8  2  0
  9  5  1  0
 10 11  1  0
 10  7  1  0
 11 12  1  6
 13 12  1  0
 14 15  1  0
 14 13  1  0
 16 15  1  0
 17 11  1  0
 17 19  1  0
 18 17  2  0
 20 19  1  0
 20 21  1  1
 22 21  1  0
 23 24  1  0
 23 22  1  0
 24 25  1  0
 26 20  1  0
 27 26  1  0
 28 26  2  0
M  END
$$$$
