EKK.pdb
     RDKit          3D

 28 27  0  0  1  0  0  0  0  0999 V2000
   18.7965  -10.9506  -19.1417 N   0  0  0  0  0  0  0  0  0  0  0  0
   19.9239  -10.0236  -19.4376 C   0  0  1  0  0  0  0  0  0  0  0  0
   19.3136   -8.7456  -19.9745 C   0  0  0  0  0  0  0  0  0  0  0  0
   19.0639   -8.8786  -21.4399 C   0  0  0  0  0  0  0  0  0  0  0  0
   20.4026   -8.9688  -22.1213 C   0  0  0  0  0  0  0  0  0  0  0  0
   20.9701  -10.0827  -22.2727 O   0  0  0  0  0  0  0  0  0  0  0  0
   20.5533   -9.7219  -18.1368 C   0  0  0  0  0  0  0  0  0  0  0  0
   19.8312   -9.6881  -17.0982 O   0  0  0  0  0  0  0  0  0  0  0  0
   20.9716   -7.7965  -22.5658 O   0  0  0  0  0  0  0  0  0  0  0  0
   21.9339   -9.4614  -17.9266 N   0  0  0  0  0  0  0  0  0  0  0  0
   22.4256   -9.1214  -16.6041 C   0  0  1  0  0  0  0  0  0  0  0  0
   23.8516   -9.6673  -16.4401 C   0  0  0  0  0  0  0  0  0  0  0  0
   23.7329  -11.1688  -16.3514 C   0  0  0  0  0  0  0  0  0  0  0  0
   25.0327  -11.8568  -16.1007 C   0  0  0  0  0  0  0  0  0  0  0  0
   24.8208  -13.3551  -16.1138 C   0  0  0  0  0  0  0  0  0  0  0  0
   26.1163  -13.9626  -15.8139 N   0  0  0  0  0  0  0  0  0  0  0  0
   22.4204   -7.6474  -16.3665 C   0  0  0  0  0  0  0  0  0  0  0  0
   23.1317   -6.8706  -17.0702 O   0  0  0  0  0  0  0  0  0  0  0  0
   21.6335   -7.0713  -15.3627 N   0  0  0  0  0  0  0  0  0  0  0  0
   21.6331   -5.5596  -15.1357 C   0  0  1  0  0  0  0  0  0  0  0  0
   20.2788   -5.2141  -15.5814 C   0  0  0  0  0  0  0  0  0  0  0  0
   19.0869   -5.2067  -14.7843 C   0  0  0  0  0  0  0  0  0  0  0  0
   17.7682   -4.8852  -15.2670 C   0  0  0  0  0  0  0  0  0  0  0  0
   16.5708   -4.9752  -14.4488 C   0  0  0  0  0  0  0  0  0  0  0  0
   15.4114   -4.6371  -15.3542 N   0  0  0  0  0  0  0  0  0  0  0  0
   22.1363   -5.4379  -13.7999 C   0  0  0  0  0  0  0  0  0  0  0  0
   22.3106   -6.4812  -12.8876 O   0  0  0  0  0  0  0  0  0  0  0  0
   22.4670   -4.2954  -13.3216 O   0  0  0  0  0  0  0  0  0  0  0  0
  2  7  1  0
  2  1  1  1
  3  2  1  0
  3  4  1  0
  4  5  1  0
  5  6  2  0
  7  8  2  0
  9  5  1  0
 10 11  1  0
 10  7  1  0
 11 12  1  6
 13 12  1  0
 14 15  1  0
 14 13  1  0
 16 15  1  0
 17 11  1  0
 17 19  1  0
 18 17  2  0
 20 19  1  0
 20 21  1  1
 22 21  1  0
 23 24  1  0
 23 22  1  0
 24 25  1  0
 26 20  1  0
 27 26  1  0
 28 26  2  0
M  END
$$$$
