EKK.pdb
     RDKit          3D

 28 27  0  0  1  0  0  0  0  0999 V2000
   15.3817  -11.7017  -17.5017 N   0  0  0  0  0  0  0  0  0  0  0  0
   15.0796  -10.9734  -16.2381 C   0  0  1  0  0  0  0  0  0  0  0  0
   15.5097  -11.8728  -15.0981 C   0  0  0  0  0  0  0  0  0  0  0  0
   14.8144  -13.1895  -15.1999 C   0  0  0  0  0  0  0  0  0  0  0  0
   15.2089  -14.0045  -13.9981 C   0  0  0  0  0  0  0  0  0  0  0  0
   14.9761  -15.2415  -13.9589 O   0  0  0  0  0  0  0  0  0  0  0  0
   15.9512   -9.7819  -16.2383 C   0  0  0  0  0  0  0  0  0  0  0  0
   16.9745   -9.7695  -16.9827 O   0  0  0  0  0  0  0  0  0  0  0  0
   15.8270  -13.3477  -12.9578 O   0  0  0  0  0  0  0  0  0  0  0  0
   15.7476   -8.6082  -15.4644 N   0  0  0  0  0  0  0  0  0  0  0  0
   16.6073   -7.4522  -15.6407 C   0  0  1  0  0  0  0  0  0  0  0  0
   15.8653   -6.1943  -15.1658 C   0  0  0  0  0  0  0  0  0  0  0  0
   14.4762   -6.2642  -15.7508 C   0  0  0  0  0  0  0  0  0  0  0  0
   13.5399   -5.2474  -15.1895 C   0  0  0  0  0  0  0  0  0  0  0  0
   12.1661   -5.4388  -15.7943 C   0  0  0  0  0  0  0  0  0  0  0  0
   11.2790   -4.4896  -15.1242 N   0  0  0  0  0  0  0  0  0  0  0  0
   17.8924   -7.5908  -14.8934 C   0  0  0  0  0  0  0  0  0  0  0  0
   17.9097   -8.0053  -13.6965 O   0  0  0  0  0  0  0  0  0  0  0  0
   19.1200   -7.2699  -15.4839 N   0  0  0  0  0  0  0  0  0  0  0  0
   20.4358   -7.5269  -14.7495 C   0  0  1  0  0  0  0  0  0  0  0  0
   21.0999   -8.4411  -15.6851 C   0  0  0  0  0  0  0  0  0  0  0  0
   22.2527   -9.2522  -15.4225 C   0  0  0  0  0  0  0  0  0  0  0  0
   22.8740  -10.1422  -16.3698 C   0  0  0  0  0  0  0  0  0  0  0  0
   24.0150  -10.9833  -16.0506 C   0  0  0  0  0  0  0  0  0  0  0  0
   24.1888  -11.9242  -17.2180 N   0  0  0  0  0  0  0  0  0  0  0  0
   20.8740   -6.2061  -14.4094 C   0  0  0  0  0  0  0  0  0  0  0  0
   20.4819   -5.0214  -15.0369 O   0  0  0  0  0  0  0  0  0  0  0  0
   21.7135   -6.0142  -13.4596 O   0  0  0  0  0  0  0  0  0  0  0  0
  2  7  1  0
  2  1  1  6
  3  2  1  0
  3  4  1  0
  4  5  1  0
  5  6  2  0
  7  8  2  0
  9  5  1  0
 10 11  1  0
 10  7  1  0
 11 12  1  1
 13 12  1  0
 14 15  1  0
 14 13  1  0
 16 15  1  0
 17 11  1  0
 17 19  1  0
 18 17  2  0
 20 19  1  0
 20 21  1  6
 22 21  1  0
 23 24  1  0
 23 22  1  0
 24 25  1  0
 26 20  1  0
 27 26  1  0
 28 26  2  0
M  END
$$$$
