EKK.pdb
     RDKit          3D

 28 27  0  0  1  0  0  0  0  0999 V2000
   28.7991  -32.1500  -16.0010 N   0  0  0  0  0  0  0  0  0  0  0  0
   28.2901  -31.5011  -17.2412 C   0  0  1  0  0  0  0  0  0  0  0  0
   27.6452  -32.5891  -18.0742 C   0  0  0  0  0  0  0  0  0  0  0  0
   26.8212  -33.4760  -17.2013 C   0  0  0  0  0  0  0  0  0  0  0  0
   25.6351  -33.9307  -18.0080 C   0  0  0  0  0  0  0  0  0  0  0  0
   25.7744  -34.7773  -18.9298 O   0  0  0  0  0  0  0  0  0  0  0  0
   27.2331  -30.5671  -16.8060 C   0  0  0  0  0  0  0  0  0  0  0  0
   26.8712  -30.5708  -15.5933 O   0  0  0  0  0  0  0  0  0  0  0  0
   24.4082  -33.3883  -17.6983 O   0  0  0  0  0  0  0  0  0  0  0  0
   26.5624  -29.6313  -17.6381 N   0  0  0  0  0  0  0  0  0  0  0  0
   25.6303  -28.6757  -17.0684 C   0  0  1  0  0  0  0  0  0  0  0  0
   25.4606  -27.4968  -18.0378 C   0  0  0  0  0  0  0  0  0  0  0  0
   24.6609  -26.4467  -17.3068 C   0  0  0  0  0  0  0  0  0  0  0  0
   25.4819  -25.2969  -16.8276 C   0  0  0  0  0  0  0  0  0  0  0  0
   24.5769  -24.2560  -16.2054 C   0  0  0  0  0  0  0  0  0  0  0  0
   25.4473  -23.2000  -15.6910 N   0  0  0  0  0  0  0  0  0  0  0  0
   24.2995  -29.2912  -16.7865 C   0  0  0  0  0  0  0  0  0  0  0  0
   23.8939  -30.2968  -17.4414 O   0  0  0  0  0  0  0  0  0  0  0  0
   23.4546  -28.7831  -15.7932 N   0  0  0  0  0  0  0  0  0  0  0  0
   22.1090  -29.4437  -15.4934 C   0  0  1  0  0  0  0  0  0  0  0  0
   21.7962  -28.8521  -14.1879 C   0  0  0  0  0  0  0  0  0  0  0  0
   20.9047  -29.3793  -13.1964 C   0  0  0  0  0  0  0  0  0  0  0  0
   20.6813  -28.8069  -11.8934 C   0  0  0  0  0  0  0  0  0  0  0  0
   19.7688  -29.3732  -10.9145 C   0  0  0  0  0  0  0  0  0  0  0  0
   19.8125  -28.4587   -9.7144 N   0  0  0  0  0  0  0  0  0  0  0  0
   21.3764  -29.2395  -16.7073 C   0  0  0  0  0  0  0  0  0  0  0  0
   20.6559  -30.2101  -17.4073 O   0  0  0  0  0  0  0  0  0  0  0  0
   21.3420  -28.0885  -17.2710 O   0  0  0  0  0  0  0  0  0  0  0  0
  2  7  1  0
  2  1  1  1
  3  2  1  0
  3  4  1  0
  4  5  1  0
  5  6  2  0
  7  8  2  0
  9  5  1  0
 10 11  1  0
 10  7  1  0
 11 12  1  6
 13 12  1  0
 14 15  1  0
 14 13  1  0
 16 15  1  0
 17 11  1  0
 17 19  1  0
 18 17  2  0
 20 19  1  0
 20 21  1  1
 22 21  1  0
 23 24  1  0
 23 22  1  0
 24 25  1  0
 26 20  1  0
 27 26  1  0
 28 26  2  0
M  END
$$$$
