EKK.pdb
     RDKit          3D

 28 27  0  0  1  0  0  0  0  0999 V2000
   25.9718  -22.9969  -14.9065 N   0  0  0  0  0  0  0  0  0  0  0  0
   24.7575  -22.9612  -15.7681 C   0  0  1  0  0  0  0  0  0  0  0  0
   24.2559  -24.3858  -15.8808 C   0  0  0  0  0  0  0  0  0  0  0  0
   24.9671  -25.0885  -16.9889 C   0  0  0  0  0  0  0  0  0  0  0  0
   24.4052  -24.5736  -18.2865 C   0  0  0  0  0  0  0  0  0  0  0  0
   23.2289  -24.8601  -18.6332 O   0  0  0  0  0  0  0  0  0  0  0  0
   23.7535  -22.1774  -15.0220 C   0  0  0  0  0  0  0  0  0  0  0  0
   23.6464  -22.3471  -13.7725 O   0  0  0  0  0  0  0  0  0  0  0  0
   25.2220  -23.7866  -19.0668 O   0  0  0  0  0  0  0  0  0  0  0  0
   22.8694  -21.2177  -15.5836 N   0  0  0  0  0  0  0  0  0  0  0  0
   21.9077  -20.5244  -14.7463 C   0  0  1  0  0  0  0  0  0  0  0  0
   21.6274  -19.1371  -15.3421 C   0  0  0  0  0  0  0  0  0  0  0  0
   20.6256  -18.4695  -14.4325 C   0  0  0  0  0  0  0  0  0  0  0  0
   20.1872  -17.1261  -14.9107 C   0  0  0  0  0  0  0  0  0  0  0  0
   19.1667  -16.5571  -13.9491 C   0  0  0  0  0  0  0  0  0  0  0  0
   18.7900  -15.2437  -14.4691 N   0  0  0  0  0  0  0  0  0  0  0  0
   20.6288  -21.2840  -14.6158 C   0  0  0  0  0  0  0  0  0  0  0  0
   20.0565  -21.7776  -15.6323 O   0  0  0  0  0  0  0  0  0  0  0  0
   20.0175  -21.4782  -13.3719 N   0  0  0  0  0  0  0  0  0  0  0  0
   18.7452  -22.3160  -13.2444 C   0  0  1  0  0  0  0  0  0  0  0  0
   19.0885  -23.1662  -12.0992 C   0  0  0  0  0  0  0  0  0  0  0  0
   18.2572  -24.1615  -11.4875 C   0  0  0  0  0  0  0  0  0  0  0  0
   18.5572  -24.8523  -10.2594 C   0  0  0  0  0  0  0  0  0  0  0  0
   17.7157  -25.8969   -9.7009 C   0  0  0  0  0  0  0  0  0  0  0  0
   18.4568  -26.4457   -8.5059 N   0  0  0  0  0  0  0  0  0  0  0  0
   17.7085  -21.3280  -13.2783 C   0  0  0  0  0  0  0  0  0  0  0  0
   17.7786  -20.0420  -12.7375 O   0  0  0  0  0  0  0  0  0  0  0  0
   16.5775  -21.5778  -13.8281 O   0  0  0  0  0  0  0  0  0  0  0  0
  2  7  1  0
  2  1  1  1
  3  2  1  0
  3  4  1  0
  4  5  1  0
  5  6  2  0
  7  8  2  0
  9  5  1  0
 10 11  1  0
 10  7  1  0
 11 12  1  6
 13 12  1  0
 14 15  1  0
 14 13  1  0
 16 15  1  0
 17 11  1  0
 17 19  1  0
 18 17  2  0
 20 19  1  0
 20 21  1  1
 22 21  1  0
 23 24  1  0
 23 22  1  0
 24 25  1  0
 26 20  1  0
 27 26  1  0
 28 26  2  0
M  END
$$$$
