EKK.pdb
     RDKit          3D

 28 27  0  0  1  0  0  0  0  0999 V2000
   25.3246  -14.1384  -17.7366 N   0  0  0  0  0  0  0  0  0  0  0  0
   24.7270  -14.5848  -16.4474 C   0  0  1  0  0  0  0  0  0  0  0  0
   23.2662  -14.1862  -16.4782 C   0  0  0  0  0  0  0  0  0  0  0  0
   22.7294  -14.3304  -17.8633 C   0  0  0  0  0  0  0  0  0  0  0  0
   21.3194  -13.8049  -17.8598 C   0  0  0  0  0  0  0  0  0  0  0  0
   20.8195  -13.3198  -16.8107 O   0  0  0  0  0  0  0  0  0  0  0  0
   24.8020  -16.0591  -16.4544 C   0  0  0  0  0  0  0  0  0  0  0  0
   24.3167  -16.6942  -17.4355 O   0  0  0  0  0  0  0  0  0  0  0  0
   20.6098  -13.8767  -19.0374 O   0  0  0  0  0  0  0  0  0  0  0  0
   25.3869  -16.8623  -15.4391 N   0  0  0  0  0  0  0  0  0  0  0  0
   25.4977  -18.2993  -15.6100 C   0  0  1  0  0  0  0  0  0  0  0  0
   26.6399  -18.8257  -14.7288 C   0  0  0  0  0  0  0  0  0  0  0  0
   27.3878  -19.8448  -15.5526 C   0  0  0  0  0  0  0  0  0  0  0  0
   26.9680  -21.2516  -15.2872 C   0  0  0  0  0  0  0  0  0  0  0  0
   27.9325  -22.2015  -15.9634 C   0  0  0  0  0  0  0  0  0  0  0  0
   27.5090  -23.5535  -15.6026 N   0  0  0  0  0  0  0  0  0  0  0  0
   24.2281  -19.0041  -15.2627 C   0  0  0  0  0  0  0  0  0  0  0  0
   23.6728  -18.8315  -14.1373 O   0  0  0  0  0  0  0  0  0  0  0  0
   23.6067  -19.8774  -16.1628 N   0  0  0  0  0  0  0  0  0  0  0  0
   22.3274  -20.6210  -15.7793 C   0  0  1  0  0  0  0  0  0  0  0  0
   21.4731  -20.3122  -16.9312 C   0  0  0  0  0  0  0  0  0  0  0  0
   20.0799  -20.6189  -17.0753 C   0  0  0  0  0  0  0  0  0  0  0  0
   19.0472  -20.2431  -16.1438 C   0  0  0  0  0  0  0  0  0  0  0  0
   17.6536  -20.6260  -16.2942 C   0  0  0  0  0  0  0  0  0  0  0  0
   16.9223  -20.0409  -15.1105 N   0  0  0  0  0  0  0  0  0  0  0  0
   22.8107  -21.9190  -15.4138 C   0  0  0  0  0  0  0  0  0  0  0  0
   22.1672  -22.8307  -14.5736 O   0  0  0  0  0  0  0  0  0  0  0  0
   23.9373  -22.3496  -15.8488 O   0  0  0  0  0  0  0  0  0  0  0  0
  2  7  1  0
  2  1  1  6
  3  2  1  0
  3  4  1  0
  4  5  1  0
  5  6  2  0
  7  8  2  0
  9  5  1  0
 10 11  1  0
 10  7  1  0
 11 12  1  1
 13 12  1  0
 14 15  1  0
 14 13  1  0
 16 15  1  0
 17 11  1  0
 17 19  1  0
 18 17  2  0
 20 19  1  0
 20 21  1  6
 22 21  1  0
 23 24  1  0
 23 22  1  0
 24 25  1  0
 26 20  1  0
 27 26  1  0
 28 26  2  0
M  END
$$$$
