EKK.pdb
     RDKit          3D

 28 27  0  0  1  0  0  0  0  0999 V2000
   18.8544  -15.4474  -16.1047 N   0  0  0  0  0  0  0  0  0  0  0  0
   19.2322  -14.3385  -17.0244 C   0  0  1  0  0  0  0  0  0  0  0  0
   17.9533  -13.6132  -17.3879 C   0  0  0  0  0  0  0  0  0  0  0  0
   17.1704  -14.4236  -18.3666 C   0  0  0  0  0  0  0  0  0  0  0  0
   17.7669  -14.1901  -19.7282 C   0  0  0  0  0  0  0  0  0  0  0  0
   18.0285  -13.0224  -20.1209 O   0  0  0  0  0  0  0  0  0  0  0  0
   20.0718  -13.4205  -16.2297 C   0  0  0  0  0  0  0  0  0  0  0  0
   19.6150  -12.9529  -15.1461 O   0  0  0  0  0  0  0  0  0  0  0  0
   18.0109  -15.2934  -20.5148 O   0  0  0  0  0  0  0  0  0  0  0  0
   21.3854  -12.9989  -16.5683 N   0  0  0  0  0  0  0  0  0  0  0  0
   22.0672  -11.9996  -15.7664 C   0  0  1  0  0  0  0  0  0  0  0  0
   23.5771  -12.0816  -16.0345 C   0  0  0  0  0  0  0  0  0  0  0  0
   24.0166  -13.4633  -15.6169 C   0  0  0  0  0  0  0  0  0  0  0  0
   25.4651  -13.7274  -15.8574 C   0  0  0  0  0  0  0  0  0  0  0  0
   25.7712  -15.1769  -15.5492 C   0  0  0  0  0  0  0  0  0  0  0  0
   27.1899  -15.3752  -15.8408 N   0  0  0  0  0  0  0  0  0  0  0  0
   21.5785  -10.6192  -16.0577 C   0  0  0  0  0  0  0  0  0  0  0  0
   21.5476  -10.1746  -17.2434 O   0  0  0  0  0  0  0  0  0  0  0  0
   21.1383   -9.7688  -15.0369 N   0  0  0  0  0  0  0  0  0  0  0  0
   20.7285   -8.3272  -15.3379 C   0  0  1  0  0  0  0  0  0  0  0  0
   19.2690   -8.4623  -15.3992 C   0  0  0  0  0  0  0  0  0  0  0  0
   18.3078   -7.3990  -15.4348 C   0  0  0  0  0  0  0  0  0  0  0  0
   16.8778   -7.5728  -15.4210 C   0  0  0  0  0  0  0  0  0  0  0  0
   15.9354   -6.4672  -15.4519 C   0  0  0  0  0  0  0  0  0  0  0  0
   14.5849   -7.0688  -15.7564 N   0  0  0  0  0  0  0  0  0  0  0  0
   21.4642   -7.5770  -14.3641 C   0  0  0  0  0  0  0  0  0  0  0  0
   22.1785   -8.1048  -13.2860 O   0  0  0  0  0  0  0  0  0  0  0  0
   21.5074   -6.2966  -14.4133 O   0  0  0  0  0  0  0  0  0  0  0  0
  2  7  1  0
  2  1  1  1
  3  2  1  0
  3  4  1  0
  4  5  1  0
  5  6  2  0
  7  8  2  0
  9  5  1  0
 10 11  1  0
 10  7  1  0
 11 12  1  6
 13 12  1  0
 14 15  1  0
 14 13  1  0
 16 15  1  0
 17 11  1  0
 17 19  1  0
 18 17  2  0
 20 19  1  0
 20 21  1  1
 22 21  1  0
 23 24  1  0
 23 22  1  0
 24 25  1  0
 26 20  1  0
 27 26  1  0
 28 26  2  0
M  END
$$$$
