EKK.pdb
     RDKit          3D

 28 27  0  0  1  0  0  0  0  0999 V2000
   21.8500  -14.6121  -18.0194 N   0  0  0  0  0  0  0  0  0  0  0  0
   21.4510  -13.9384  -19.2864 C   0  0  1  0  0  0  0  0  0  0  0  0
   20.8345  -14.9996  -20.1739 C   0  0  0  0  0  0  0  0  0  0  0  0
   21.5500  -16.2960  -19.9874 C   0  0  0  0  0  0  0  0  0  0  0  0
   20.9726  -17.2778  -20.9708 C   0  0  0  0  0  0  0  0  0  0  0  0
   21.4902  -17.4228  -22.1096 O   0  0  0  0  0  0  0  0  0  0  0  0
   20.3944  -12.9753  -18.9186 C   0  0  0  0  0  0  0  0  0  0  0  0
   19.8382  -12.2960  -19.8299 O   0  0  0  0  0  0  0  0  0  0  0  0
   19.8691  -18.0006  -20.5763 O   0  0  0  0  0  0  0  0  0  0  0  0
   19.9214  -12.7296  -17.6018 N   0  0  0  0  0  0  0  0  0  0  0  0
   18.8122  -11.8212  -17.3760 C   0  0  1  0  0  0  0  0  0  0  0  0
   17.9232  -12.3790  -16.2549 C   0  0  0  0  0  0  0  0  0  0  0  0
   17.1764  -13.5531  -16.8382 C   0  0  0  0  0  0  0  0  0  0  0  0
   16.3879  -14.3199  -15.8301 C   0  0  0  0  0  0  0  0  0  0  0  0
   15.6107  -15.4161  -16.5258 C   0  0  0  0  0  0  0  0  0  0  0  0
   14.9518  -16.1914  -15.4760 N   0  0  0  0  0  0  0  0  0  0  0  0
   19.2769  -10.4491  -17.0143 C   0  0  0  0  0  0  0  0  0  0  0  0
   20.3222  -10.2761  -16.3202 O   0  0  0  0  0  0  0  0  0  0  0  0
   18.5787   -9.3083  -17.4265 N   0  0  0  0  0  0  0  0  0  0  0  0
   19.1540   -7.9105  -17.1990 C   0  0  1  0  0  0  0  0  0  0  0  0
   18.5760   -7.1859  -18.3361 C   0  0  0  0  0  0  0  0  0  0  0  0
   18.8260   -5.8227  -18.7038 C   0  0  0  0  0  0  0  0  0  0  0  0
   18.2358   -5.1459  -19.8303 C   0  0  0  0  0  0  0  0  0  0  0  0
   18.5513   -3.7760  -20.1979 C   0  0  0  0  0  0  0  0  0  0  0  0
   17.7128   -3.4583  -21.4121 N   0  0  0  0  0  0  0  0  0  0  0  0
   18.8699   -7.6703  -15.8156 C   0  0  0  0  0  0  0  0  0  0  0  0
   19.6360   -6.8976  -14.9398 O   0  0  0  0  0  0  0  0  0  0  0  0
   17.8406   -8.1892  -15.2543 O   0  0  0  0  0  0  0  0  0  0  0  0
  2  7  1  0
  2  1  1  1
  3  2  1  0
  3  4  1  0
  4  5  1  0
  5  6  2  0
  7  8  2  0
  9  5  1  0
 10 11  1  0
 10  7  1  0
 11 12  1  1
 13 12  1  0
 14 15  1  0
 14 13  1  0
 16 15  1  0
 17 11  1  0
 17 19  1  0
 18 17  2  0
 20 19  1  0
 20 21  1  6
 22 21  1  0
 23 24  1  0
 23 22  1  0
 24 25  1  0
 26 20  1  0
 27 26  1  0
 28 26  2  0
M  END
$$$$
