EKK.pdb
     RDKit          3D

 28 27  0  0  1  0  0  0  0  0999 V2000
   19.2648  -13.3749  -18.3868 N   0  0  0  0  0  0  0  0  0  0  0  0
   19.7373  -13.1578  -16.9911 C   0  0  1  0  0  0  0  0  0  0  0  0
   21.2367  -13.3711  -16.9960 C   0  0  0  0  0  0  0  0  0  0  0  0
   21.6962  -13.7164  -18.3734 C   0  0  0  0  0  0  0  0  0  0  0  0
   23.1862  -13.9189  -18.3166 C   0  0  0  0  0  0  0  0  0  0  0  0
   23.6696  -14.9949  -17.8756 O   0  0  0  0  0  0  0  0  0  0  0  0
   19.4757  -11.7364  -16.6906 C   0  0  0  0  0  0  0  0  0  0  0  0
   19.6843  -10.8701  -17.5892 O   0  0  0  0  0  0  0  0  0  0  0  0
   23.9864  -12.8909  -18.7619 O   0  0  0  0  0  0  0  0  0  0  0  0
   18.9937  -11.2274  -15.4551 N   0  0  0  0  0  0  0  0  0  0  0  0
   18.6420   -9.8254  -15.3237 C   0  0  1  0  0  0  0  0  0  0  0  0
   17.5660   -9.6745  -14.2385 C   0  0  0  0  0  0  0  0  0  0  0  0
   16.3037  -10.2884  -14.7920 C   0  0  0  0  0  0  0  0  0  0  0  0
   15.1639  -10.2804  -13.8294 C   0  0  0  0  0  0  0  0  0  0  0  0
   13.9452  -10.8912  -14.4861 C   0  0  0  0  0  0  0  0  0  0  0  0
   12.9217  -10.9997  -13.4479 N   0  0  0  0  0  0  0  0  0  0  0  0
   19.8247   -8.9811  -14.9808 C   0  0  0  0  0  0  0  0  0  0  0  0
   20.7399   -9.4177  -14.2215 O   0  0  0  0  0  0  0  0  0  0  0  0
   19.9663   -7.6824  -15.4827 N   0  0  0  0  0  0  0  0  0  0  0  0
   21.2089   -6.8497  -15.1676 C   0  0  1  0  0  0  0  0  0  0  0  0
   21.2329   -5.9429  -16.3206 C   0  0  0  0  0  0  0  0  0  0  0  0
   22.1848   -4.9015  -16.5757 C   0  0  0  0  0  0  0  0  0  0  0  0
   22.1802   -4.0377  -17.7286 C   0  0  0  0  0  0  0  0  0  0  0  0
   23.1846   -3.0155  -17.9687 C   0  0  0  0  0  0  0  0  0  0  0  0
   22.7739   -2.3059  -19.2361 N   0  0  0  0  0  0  0  0  0  0  0  0
   21.0000   -6.4698  -13.8023 C   0  0  0  0  0  0  0  0  0  0  0  0
   21.9945   -6.1485  -12.8757 O   0  0  0  0  0  0  0  0  0  0  0  0
   19.8184   -6.4084  -13.3084 O   0  0  0  0  0  0  0  0  0  0  0  0
  2  7  1  0
  2  1  1  6
  3  2  1  0
  3  4  1  0
  4  5  1  0
  5  6  2  0
  7  8  2  0
  9  5  1  0
 10 11  1  0
 10  7  1  0
 11 12  1  1
 13 12  1  0
 14 15  1  0
 14 13  1  0
 16 15  1  0
 17 11  1  0
 17 19  1  0
 18 17  2  0
 20 19  1  0
 20 21  1  6
 22 21  1  0
 23 24  1  0
 23 22  1  0
 24 25  1  0
 26 20  1  0
 27 26  1  0
 28 26  2  0
M  END
$$$$
