EKK.pdb
     RDKit          3D

 28 27  0  0  1  0  0  0  0  0999 V2000
   24.4929  -15.7445  -18.5429 N   0  0  0  0  0  0  0  0  0  0  0  0
   23.1972  -16.1672  -19.1437 C   0  0  1  0  0  0  0  0  0  0  0  0
   23.4429  -16.3659  -20.6249 C   0  0  0  0  0  0  0  0  0  0  0  0
   23.8965  -15.0843  -21.2408 C   0  0  0  0  0  0  0  0  0  0  0  0
   25.1615  -15.3710  -22.0037 C   0  0  0  0  0  0  0  0  0  0  0  0
   25.1135  -15.8773  -23.1558 O   0  0  0  0  0  0  0  0  0  0  0  0
   22.8838  -17.4814  -18.5488 C   0  0  0  0  0  0  0  0  0  0  0  0
   21.8275  -18.0806  -18.9048 O   0  0  0  0  0  0  0  0  0  0  0  0
   26.3568  -15.0596  -21.3955 O   0  0  0  0  0  0  0  0  0  0  0  0
   23.6768  -18.1649  -17.5886 N   0  0  0  0  0  0  0  0  0  0  0  0
   23.2152  -19.4116  -17.0061 C   0  0  1  0  0  0  0  0  0  0  0  0
   24.4294  -20.2778  -16.6404 C   0  0  0  0  0  0  0  0  0  0  0  0
   23.8878  -21.6011  -16.1586 C   0  0  0  0  0  0  0  0  0  0  0  0
   24.9466  -22.6164  -15.8869 C   0  0  0  0  0  0  0  0  0  0  0  0
   24.3011  -23.9130  -15.4486 C   0  0  0  0  0  0  0  0  0  0  0  0
   25.3888  -24.8575  -15.1996 N   0  0  0  0  0  0  0  0  0  0  0  0
   22.3745  -19.1854  -15.7931 C   0  0  0  0  0  0  0  0  0  0  0  0
   22.8345  -18.5700  -14.7859 O   0  0  0  0  0  0  0  0  0  0  0  0
   21.0535  -19.6423  -15.7234 N   0  0  0  0  0  0  0  0  0  0  0  0
   20.2192  -19.4427  -14.4581 C   0  0  1  0  0  0  0  0  0  0  0  0
   18.9444  -19.0018  -15.0350 C   0  0  0  0  0  0  0  0  0  0  0  0
   17.7384  -18.6954  -14.3225 C   0  0  0  0  0  0  0  0  0  0  0  0
   16.5255  -18.1984  -14.9201 C   0  0  0  0  0  0  0  0  0  0  0  0
   15.3068  -17.9467  -14.1700 C   0  0  0  0  0  0  0  0  0  0  0  0
   14.2724  -17.5045  -15.1764 N   0  0  0  0  0  0  0  0  0  0  0  0
   20.4399  -20.6599  -13.7357 C   0  0  0  0  0  0  0  0  0  0  0  0
   20.8662  -21.8740  -14.2790 O   0  0  0  0  0  0  0  0  0  0  0  0
   20.2368  -20.7222  -12.4713 O   0  0  0  0  0  0  0  0  0  0  0  0
  2  7  1  0
  2  1  1  1
  3  2  1  0
  3  4  1  0
  4  5  1  0
  5  6  2  0
  7  8  2  0
  9  5  1  0
 10 11  1  0
 10  7  1  0
 11 12  1  1
 13 12  1  0
 14 15  1  0
 14 13  1  0
 16 15  1  0
 17 11  1  0
 17 19  1  0
 18 17  2  0
 20 19  1  0
 20 21  1  6
 22 21  1  0
 23 24  1  0
 23 22  1  0
 24 25  1  0
 26 20  1  0
 27 26  1  0
 28 26  2  0
M  END
$$$$
