EKK.pdb
     RDKit          3D

 28 27  0  0  1  0  0  0  0  0999 V2000
   24.2434  -23.2604  -14.7556 N   0  0  0  0  0  0  0  0  0  0  0  0
   24.6222  -22.3163  -13.6677 C   0  0  1  0  0  0  0  0  0  0  0  0
   25.8742  -21.5972  -14.1252 C   0  0  0  0  0  0  0  0  0  0  0  0
   26.1300  -21.8897  -15.5662 C   0  0  0  0  0  0  0  0  0  0  0  0
   27.4217  -21.2159  -15.9429 C   0  0  0  0  0  0  0  0  0  0  0  0
   28.4913  -21.8768  -16.0147 O   0  0  0  0  0  0  0  0  0  0  0  0
   23.5276  -21.3290  -13.5878 C   0  0  0  0  0  0  0  0  0  0  0  0
   23.5072  -20.5112  -12.6224 O   0  0  0  0  0  0  0  0  0  0  0  0
   27.3834  -19.8643  -16.2021 O   0  0  0  0  0  0  0  0  0  0  0  0
   22.4623  -21.1982  -14.5185 N   0  0  0  0  0  0  0  0  0  0  0  0
   21.3214  -20.3532  -14.2171 C   0  0  1  0  0  0  0  0  0  0  0  0
   21.0082  -19.4743  -15.4368 C   0  0  0  0  0  0  0  0  0  0  0  0
   19.8472  -18.5923  -15.0483 C   0  0  0  0  0  0  0  0  0  0  0  0
   19.2998  -17.7918  -16.1820 C   0  0  0  0  0  0  0  0  0  0  0  0
   18.1798  -16.9069  -15.6796 C   0  0  0  0  0  0  0  0  0  0  0  0
   17.5954  -16.2649  -16.8559 N   0  0  0  0  0  0  0  0  0  0  0  0
   20.1148  -21.1518  -13.8489 C   0  0  0  0  0  0  0  0  0  0  0  0
   19.7416  -22.1340  -14.5564 O   0  0  0  0  0  0  0  0  0  0  0  0
   19.3547  -20.8470  -12.7140 N   0  0  0  0  0  0  0  0  0  0  0  0
   18.1362  -21.6890  -12.3355 C   0  0  1  0  0  0  0  0  0  0  0  0
   18.6272  -22.3559  -11.1245 C   0  0  0  0  0  0  0  0  0  0  0  0
   18.0331  -23.4794  -10.4607 C   0  0  0  0  0  0  0  0  0  0  0  0
   18.5254  -24.0819   -9.2483 C   0  0  0  0  0  0  0  0  0  0  0  0
   17.7958  -25.0927   -8.5017 C   0  0  0  0  0  0  0  0  0  0  0  0
   18.6008  -25.3623   -7.2535 N   0  0  0  0  0  0  0  0  0  0  0  0
   17.0628  -20.7425  -12.3988 C   0  0  0  0  0  0  0  0  0  0  0  0
   15.7089  -21.0431  -12.5653 O   0  0  0  0  0  0  0  0  0  0  0  0
   17.2884  -19.4833  -12.3145 O   0  0  0  0  0  0  0  0  0  0  0  0
  2  7  1  0
  2  1  1  6
  3  2  1  0
  3  4  1  0
  4  5  1  0
  5  6  2  0
  7  8  2  0
  9  5  1  0
 10 11  1  0
 10  7  1  0
 11 12  1  6
 13 12  1  0
 14 15  1  0
 14 13  1  0
 16 15  1  0
 17 11  1  0
 17 19  1  0
 18 17  2  0
 20 19  1  0
 20 21  1  1
 22 21  1  0
 23 24  1  0
 23 22  1  0
 24 25  1  0
 26 20  1  0
 27 26  1  0
 28 26  2  0
M  END
$$$$
