WIF.pdb
     RDKit          3D

 34 36  0  0  1  0  0  0  0  0999 V2000
   22.5660  -20.9553  -13.9902 N   0  0  0  0  0  0  0  0  0  0  0  0
   23.4728  -19.9969  -13.4203 C   0  0  1  0  0  0  0  0  0  0  0  0
   22.8475  -18.7145  -13.0302 C   0  0  0  0  0  0  0  0  0  0  0  0
   22.5977  -17.7702  -14.1149 C   0  0  0  0  0  0  0  0  0  0  0  0
   21.3884  -17.3494  -14.6165 C   0  0  0  0  0  0  0  0  0  0  0  0
   21.6549  -16.4860  -15.6017 N   0  0  0  0  0  0  0  0  0  0  0  0
   22.9886  -16.3285  -15.7610 C   0  0  0  0  0  0  0  0  0  0  0  0
   23.7348  -15.5527  -16.6382 C   0  0  0  0  0  0  0  0  0  0  0  0
   25.0915  -15.6013  -16.5609 C   0  0  0  0  0  0  0  0  0  0  0  0
   25.7581  -16.3925  -15.6435 C   0  0  0  0  0  0  0  0  0  0  0  0
   24.9888  -17.1510  -14.7865 C   0  0  0  0  0  0  0  0  0  0  0  0
   23.5932  -17.1335  -14.8287 C   0  0  0  0  0  0  0  0  0  0  0  0
   24.2714  -20.6456  -12.3599 C   0  0  0  0  0  0  0  0  0  0  0  0
   23.7327  -21.4144  -11.5328 O   0  0  0  0  0  0  0  0  0  0  0  0
   30.2713  -21.8296  -11.3057 C   0  0  0  0  0  0  0  0  0  0  0  0
   28.8328  -21.7631  -10.8414 C   0  0  0  0  0  0  0  0  0  0  0  0
   27.9405  -21.1108  -11.8714 C   0  0  2  0  0  0  0  0  0  0  0  0
   28.3746  -19.6806  -12.1545 C   0  0  0  0  0  0  0  0  0  0  0  0
   26.5330  -21.0310  -11.3193 C   0  0  2  0  0  0  0  0  0  0  0  0
   25.6743  -20.3762  -12.2985 N   0  0  0  0  0  0  0  0  0  0  0  0
   26.5015  -20.2967  -10.0169 C   0  0  0  0  0  0  0  0  0  0  0  0
   26.3382  -19.0296  -10.0371 O   0  0  0  0  0  0  0  0  0  0  0  0
   26.6441  -20.9479   -8.7855 N   0  0  0  0  0  0  0  0  0  0  0  0
   27.3587  -20.2732   -7.6802 C   0  0  1  0  0  0  0  0  0  0  0  0
   26.5363  -20.3398   -6.4415 C   0  0  0  0  0  0  0  0  0  0  0  0
   27.2592  -19.7660   -5.2947 C   0  0  0  0  0  0  0  0  0  0  0  0
   27.3004  -18.3889   -5.0609 C   0  0  0  0  0  0  0  0  0  0  0  0
   27.9515  -17.8411   -3.9787 C   0  0  0  0  0  0  0  0  0  0  0  0
   28.5982  -18.6577   -3.0717 C   0  0  0  0  0  0  0  0  0  0  0  0
   28.5809  -20.0227   -3.2665 C   0  0  0  0  0  0  0  0  0  0  0  0
   27.9227  -20.5481   -4.3566 C   0  0  0  0  0  0  0  0  0  0  0  0
   28.6623  -20.9153   -7.4819 C   0  0  0  0  0  0  0  0  0  0  0  0
   29.7800  -20.1851   -7.1525 O   0  0  0  0  0  0  0  0  0  0  0  0
   28.7666  -22.1557   -7.6168 O   0  0  0  0  0  0  0  0  0  0  0  0
  2  1  1  1
  3  2  1  0
  4  3  1  0
  5  4  2  0
  6  5  1  0
  7  6  1  0
  7 12  2  0
  8  7  1  0
  9  8  2  0
  9 10  1  0
 10 11  2  0
 11 12  1  0
 12  4  1  0
 13  2  1  0
 14 13  2  0
 15 16  1  0
 16 17  1  0
 17 19  1  0
 17 18  1  1
 19 21  1  0
 19 20  1  6
 20 13  1  0
 21 23  1  0
 22 21  2  0
 23 24  1  0
 24 25  1  1
 25 26  1  0
 26 27  2  0
 27 28  1  0
 29 28  2  0
 30 29  1  0
 31 26  1  0
 31 30  2  0
 32 24  1  0
 32 33  1  0
 34 32  2  0
M  END
$$$$
