WIF.pdb
     RDKit          3D

 34 36  0  0  1  0  0  0  0  0999 V2000
   22.6586  -21.6507  -14.2038 N   0  0  0  0  0  0  0  0  0  0  0  0
   22.9118  -20.8890  -13.0117 C   0  0  1  0  0  0  0  0  0  0  0  0
   21.7452  -20.7457  -12.1137 C   0  0  0  0  0  0  0  0  0  0  0  0
   20.7067  -19.8217  -12.5591 C   0  0  0  0  0  0  0  0  0  0  0  0
   20.5850  -19.2014  -13.7804 C   0  0  0  0  0  0  0  0  0  0  0  0
   19.4813  -18.4489  -13.7263 N   0  0  0  0  0  0  0  0  0  0  0  0
   18.8807  -18.5548  -12.5194 C   0  0  0  0  0  0  0  0  0  0  0  0
   17.7316  -17.9746  -11.9987 C   0  0  0  0  0  0  0  0  0  0  0  0
   17.3675  -18.2765  -10.7238 C   0  0  0  0  0  0  0  0  0  0  0  0
   18.0959  -19.1385   -9.9248 C   0  0  0  0  0  0  0  0  0  0  0  0
   19.2317  -19.6983  -10.4709 C   0  0  0  0  0  0  0  0  0  0  0  0
   19.6447  -19.4180  -11.7749 C   0  0  0  0  0  0  0  0  0  0  0  0
   24.1391  -21.3901  -12.3592 C   0  0  0  0  0  0  0  0  0  0  0  0
   24.2489  -22.5956  -12.0426 O   0  0  0  0  0  0  0  0  0  0  0  0
   28.7318  -20.2917  -14.4143 C   0  0  0  0  0  0  0  0  0  0  0  0
   27.5477  -20.7847  -13.6116 C   0  0  0  0  0  0  0  0  0  0  0  0
   27.6146  -20.3262  -12.1737 C   0  0  2  0  0  0  0  0  0  0  0  0
   28.8549  -20.8657  -11.4772 C   0  0  0  0  0  0  0  0  0  0  0  0
   26.4239  -20.8867  -11.4253 C   0  0  2  0  0  0  0  0  0  0  0  0
   25.1998  -20.4680  -12.0969 N   0  0  0  0  0  0  0  0  0  0  0  0
   26.4205  -20.4404   -9.9980 C   0  0  0  0  0  0  0  0  0  0  0  0
   25.9592  -19.2806   -9.7247 O   0  0  0  0  0  0  0  0  0  0  0  0
   26.9028  -21.2463   -8.9594 N   0  0  0  0  0  0  0  0  0  0  0  0
   27.1866  -20.6443   -7.6386 C   0  0  1  0  0  0  0  0  0  0  0  0
   27.9893  -21.5939   -6.8206 C   0  0  0  0  0  0  0  0  0  0  0  0
   28.4004  -20.9795   -5.5476 C   0  0  0  0  0  0  0  0  0  0  0  0
   27.5411  -20.9124   -4.4478 C   0  0  0  0  0  0  0  0  0  0  0  0
   27.9213  -20.3631   -3.2440 C   0  0  0  0  0  0  0  0  0  0  0  0
   29.1941  -19.8506   -3.0862 C   0  0  0  0  0  0  0  0  0  0  0  0
   30.0728  -19.8977   -4.1478 C   0  0  0  0  0  0  0  0  0  0  0  0
   29.6701  -20.4522   -5.3428 C   0  0  0  0  0  0  0  0  0  0  0  0
   27.9008  -19.3771   -7.8264 C   0  0  0  0  0  0  0  0  0  0  0  0
   27.4952  -18.2238   -7.1969 O   0  0  0  0  0  0  0  0  0  0  0  0
   28.9015  -19.3378   -8.5777 O   0  0  0  0  0  0  0  0  0  0  0  0
  2  1  1  6
  3  2  1  0
  4  3  1  0
  5  4  2  0
  6  5  1  0
  7  6  1  0
  7 12  2  0
  8  7  1  0
  9  8  2  0
  9 10  1  0
 10 11  2  0
 11 12  1  0
 12  4  1  0
 13  2  1  0
 14 13  2  0
 15 16  1  0
 16 17  1  0
 17 19  1  0
 17 18  1  1
 19 21  1  0
 19 20  1  6
 20 13  1  0
 21 23  1  0
 22 21  2  0
 23 24  1  0
 24 25  1  1
 25 26  1  0
 26 27  2  0
 27 28  1  0
 29 28  2  0
 30 29  1  0
 31 26  1  0
 31 30  2  0
 32 24  1  0
 32 33  1  0
 34 32  2  0
M  END
$$$$
