WIF.pdb
     RDKit          3D

 34 36  0  0  1  0  0  0  0  0999 V2000
   22.9934  -21.8714  -14.5380 N   0  0  0  0  0  0  0  0  0  0  0  0
   23.4938  -20.8680  -13.6389 C   0  0  1  0  0  0  0  0  0  0  0  0
   22.4470  -20.0911  -12.9399 C   0  0  0  0  0  0  0  0  0  0  0  0
   21.5768  -19.2840  -13.7896 C   0  0  0  0  0  0  0  0  0  0  0  0
   20.2095  -19.3537  -13.9187 C   0  0  0  0  0  0  0  0  0  0  0  0
   19.8548  -18.4222  -14.8097 N   0  0  0  0  0  0  0  0  0  0  0  0
   20.9362  -17.7499  -15.2650 C   0  0  0  0  0  0  0  0  0  0  0  0
   21.0696  -16.7148  -16.1811 C   0  0  0  0  0  0  0  0  0  0  0  0
   22.3129  -16.2311  -16.4436 C   0  0  0  0  0  0  0  0  0  0  0  0
   23.4503  -16.7286  -15.8347 C   0  0  0  0  0  0  0  0  0  0  0  0
   23.2845  -17.7561  -14.9299 C   0  0  0  0  0  0  0  0  0  0  0  0
   22.0279  -18.2849  -14.6287 C   0  0  0  0  0  0  0  0  0  0  0  0
   24.5169  -21.4651  -12.7559 C   0  0  0  0  0  0  0  0  0  0  0  0
   24.3498  -22.6015  -12.2598 O   0  0  0  0  0  0  0  0  0  0  0  0
   30.4940  -21.1483  -11.4427 C   0  0  0  0  0  0  0  0  0  0  0  0
   29.0707  -21.4083  -10.9997 C   0  0  0  0  0  0  0  0  0  0  0  0
   28.0668  -20.8355  -11.9726 C   0  0  2  0  0  0  0  0  0  0  0  0
   28.1574  -19.3181  -12.0332 C   0  0  0  0  0  0  0  0  0  0  0  0
   26.6713  -21.1633  -11.4856 C   0  0  2  0  0  0  0  0  0  0  0  0
   25.7033  -20.7164  -12.4797 N   0  0  0  0  0  0  0  0  0  0  0  0
   26.3958  -20.5284  -10.1600 C   0  0  0  0  0  0  0  0  0  0  0  0
   25.8829  -19.3584  -10.1410 O   0  0  0  0  0  0  0  0  0  0  0  0
   26.6798  -21.1700   -8.9481 N   0  0  0  0  0  0  0  0  0  0  0  0
   26.2844  -20.5325   -7.6734 C   0  0  1  0  0  0  0  0  0  0  0  0
   26.5160  -21.4806   -6.5497 C   0  0  0  0  0  0  0  0  0  0  0  0
   27.6855  -21.0790   -5.7508 C   0  0  0  0  0  0  0  0  0  0  0  0
   28.9825  -21.4740   -6.0890 C   0  0  0  0  0  0  0  0  0  0  0  0
   30.0870  -21.0850   -5.3652 C   0  0  0  0  0  0  0  0  0  0  0  0
   29.9401  -20.2736   -4.2572 C   0  0  0  0  0  0  0  0  0  0  0  0
   28.6765  -19.8616   -3.8900 C   0  0  0  0  0  0  0  0  0  0  0  0
   27.5860  -20.2634   -4.6297 C   0  0  0  0  0  0  0  0  0  0  0  0
   27.0550  -19.2985   -7.4886 C   0  0  0  0  0  0  0  0  0  0  0  0
   26.5857  -18.2686   -6.7076 O   0  0  0  0  0  0  0  0  0  0  0  0
   28.1650  -19.1730   -8.0542 O   0  0  0  0  0  0  0  0  0  0  0  0
  2  1  1  1
  3  2  1  0
  4  3  1  0
  5  4  2  0
  6  5  1  0
  7  6  1  0
  7 12  2  0
  8  7  1  0
  9  8  2  0
  9 10  1  0
 10 11  2  0
 11 12  1  0
 12  4  1  0
 13  2  1  0
 14 13  2  0
 15 16  1  0
 16 17  1  0
 17 19  1  0
 17 18  1  1
 19 21  1  0
 19 20  1  6
 20 13  1  0
 21 23  1  0
 22 21  2  0
 23 24  1  0
 24 25  1  1
 25 26  1  0
 26 27  2  0
 27 28  1  0
 29 28  2  0
 30 29  1  0
 31 26  1  0
 31 30  2  0
 32 24  1  0
 32 33  1  0
 34 32  2  0
M  END
$$$$
