WIF.pdb
     RDKit          3D

 34 36  0  0  1  0  0  0  0  0999 V2000
   26.9092  -20.3369  -15.0884 N   0  0  0  0  0  0  0  0  0  0  0  0
   26.5575  -19.9106  -13.7617 C   0  0  1  0  0  0  0  0  0  0  0  0
   25.1761  -19.3997  -13.6255 C   0  0  0  0  0  0  0  0  0  0  0  0
   24.8002  -18.3247  -14.5387 C   0  0  0  0  0  0  0  0  0  0  0  0
   23.5863  -18.1103  -15.1482 C   0  0  0  0  0  0  0  0  0  0  0  0
   23.7145  -17.0078  -15.8934 N   0  0  0  0  0  0  0  0  0  0  0  0
   24.9626  -16.4969  -15.7930 C   0  0  0  0  0  0  0  0  0  0  0  0
   25.5607  -15.3841  -16.3693 C   0  0  0  0  0  0  0  0  0  0  0  0
   26.8608  -15.1155  -16.0751 C   0  0  0  0  0  0  0  0  0  0  0  0
   27.6114  -15.9062  -15.2247 C   0  0  0  0  0  0  0  0  0  0  0  0
   26.9888  -17.0038  -14.6684 C   0  0  0  0  0  0  0  0  0  0  0  0
   25.6562  -17.3192  -14.9412 C   0  0  0  0  0  0  0  0  0  0  0  0
   26.9283  -20.9625  -12.7926 C   0  0  0  0  0  0  0  0  0  0  0  0
   26.6242  -22.1585  -12.9988 O   0  0  0  0  0  0  0  0  0  0  0  0
   31.7314  -21.5609  -11.8759 C   0  0  0  0  0  0  0  0  0  0  0  0
   30.2253  -21.7038  -11.9036 C   0  0  0  0  0  0  0  0  0  0  0  0
   29.6158  -21.4848  -10.5387 C   0  0  2  0  0  0  0  0  0  0  0  0
   30.0420  -22.5696   -9.5610 C   0  0  0  0  0  0  0  0  0  0  0  0
   28.1092  -21.5790  -10.6546 C   0  0  2  0  0  0  0  0  0  0  0  0
   27.6427  -20.5848  -11.6131 N   0  0  0  0  0  0  0  0  0  0  0  0
   27.4492  -21.3812   -9.3274 C   0  0  0  0  0  0  0  0  0  0  0  0
   28.1856  -21.3200   -8.2851 O   0  0  0  0  0  0  0  0  0  0  0  0
   26.0606  -21.2618   -9.1911 N   0  0  0  0  0  0  0  0  0  0  0  0
   25.4826  -20.9135   -7.8750 C   0  0  1  0  0  0  0  0  0  0  0  0
   25.8538  -19.5160   -7.5223 C   0  0  0  0  0  0  0  0  0  0  0  0
   26.9291  -19.4915   -6.5172 C   0  0  0  0  0  0  0  0  0  0  0  0
   26.9215  -20.3386   -5.4059 C   0  0  0  0  0  0  0  0  0  0  0  0
   27.9330  -20.3434   -4.4721 C   0  0  0  0  0  0  0  0  0  0  0  0
   29.0099  -19.4899   -4.6111 C   0  0  0  0  0  0  0  0  0  0  0  0
   29.0553  -18.6379   -5.6944 C   0  0  0  0  0  0  0  0  0  0  0  0
   28.0317  -18.6509   -6.6162 C   0  0  0  0  0  0  0  0  0  0  0  0
   24.0258  -21.0742   -7.9271 C   0  0  0  0  0  0  0  0  0  0  0  0
   23.2833  -21.2694   -6.7862 O   0  0  0  0  0  0  0  0  0  0  0  0
   23.4395  -21.0363   -9.0327 O   0  0  0  0  0  0  0  0  0  0  0  0
  2  1  1  6
  3  2  1  0
  4  3  1  0
  5  4  2  0
  6  5  1  0
  7  6  1  0
  7 12  2  0
  8  7  1  0
  9  8  2  0
  9 10  1  0
 10 11  2  0
 11 12  1  0
 12  4  1  0
 13  2  1  0
 14 13  2  0
 15 16  1  0
 16 17  1  0
 17 19  1  0
 17 18  1  1
 19 21  1  0
 19 20  1  6
 20 13  1  0
 21 23  1  0
 22 21  2  0
 23 24  1  0
 24 25  1  6
 25 26  1  0
 26 27  2  0
 27 28  1  0
 29 28  2  0
 30 29  1  0
 31 26  1  0
 31 30  2  0
 32 24  1  0
 32 33  1  0
 34 32  2  0
M  END
$$$$
