WIF.pdb
     RDKit          3D

 34 36  0  0  1  0  0  0  0  0999 V2000
   28.4273  -20.9958  -16.1678 N   0  0  0  0  0  0  0  0  0  0  0  0
   27.4617  -20.2933  -15.3681 C   0  0  1  0  0  0  0  0  0  0  0  0
   26.3517  -19.6872  -16.1351 C   0  0  0  0  0  0  0  0  0  0  0  0
   26.7151  -18.5860  -17.0217 C   0  0  0  0  0  0  0  0  0  0  0  0
   27.0078  -18.6346  -18.3644 C   0  0  0  0  0  0  0  0  0  0  0  0
   27.2825  -17.3838  -18.7483 N   0  0  0  0  0  0  0  0  0  0  0  0
   27.1803  -16.5242  -17.7094 C   0  0  0  0  0  0  0  0  0  0  0  0
   27.3671  -15.1512  -17.6169 C   0  0  0  0  0  0  0  0  0  0  0  0
   27.1891  -14.5476  -16.4116 C   0  0  0  0  0  0  0  0  0  0  0  0
   26.8293  -15.2462  -15.2738 C   0  0  0  0  0  0  0  0  0  0  0  0
   26.6514  -16.6080  -15.3985 C   0  0  0  0  0  0  0  0  0  0  0  0
   26.8230  -17.2712  -16.6152 C   0  0  0  0  0  0  0  0  0  0  0  0
   27.0411  -21.1496  -14.2398 C   0  0  0  0  0  0  0  0  0  0  0  0
   26.6333  -22.3156  -14.4387 O   0  0  0  0  0  0  0  0  0  0  0  0
   29.4777  -21.2560   -9.4561 C   0  0  0  0  0  0  0  0  0  0  0  0
   28.6248  -21.5521  -10.6703 C   0  0  0  0  0  0  0  0  0  0  0  0
   27.2295  -20.9910  -10.5262 C   0  0  2  0  0  0  0  0  0  0  0  0
   26.4736  -21.6696   -9.3938 C   0  0  0  0  0  0  0  0  0  0  0  0
   26.4530  -21.2786  -11.7937 C   0  0  2  0  0  0  0  0  0  0  0  0
   27.1100  -20.6175  -12.9145 N   0  0  0  0  0  0  0  0  0  0  0  0
   25.0327  -20.8261  -11.6747 C   0  0  0  0  0  0  0  0  0  0  0  0
   24.8067  -19.6128  -11.3438 O   0  0  0  0  0  0  0  0  0  0  0  0
   23.9506  -21.6826  -11.9124 N   0  0  0  0  0  0  0  0  0  0  0  0
   22.5697  -21.1677  -11.7877 C   0  0  1  0  0  0  0  0  0  0  0  0
   21.6323  -22.0792  -12.4986 C   0  0  0  0  0  0  0  0  0  0  0  0
   20.2537  -21.5653  -12.4480 C   0  0  0  0  0  0  0  0  0  0  0  0
   19.1470  -22.4183  -12.4355 C   0  0  0  0  0  0  0  0  0  0  0  0
   17.8539  -21.9517  -12.3632 C   0  0  0  0  0  0  0  0  0  0  0  0
   17.6085  -20.5940  -12.2994 C   0  0  0  0  0  0  0  0  0  0  0  0
   18.6738  -19.7185  -12.3092 C   0  0  0  0  0  0  0  0  0  0  0  0
   19.9591  -20.2085  -12.3820 C   0  0  0  0  0  0  0  0  0  0  0  0
   22.2201  -21.0557  -10.3678 C   0  0  0  0  0  0  0  0  0  0  0  0
   21.4920  -19.9919   -9.8890 O   0  0  0  0  0  0  0  0  0  0  0  0
   22.5923  -21.9444   -9.5682 O   0  0  0  0  0  0  0  0  0  0  0  0
  2  1  1  6
  3  2  1  0
  4  3  1  0
  5  4  2  0
  6  5  1  0
  7  6  1  0
  7 12  2  0
  8  7  1  0
  9  8  2  0
  9 10  1  0
 10 11  2  0
 11 12  1  0
 12  4  1  0
 13  2  1  0
 14 13  2  0
 15 16  1  0
 16 17  1  0
 17 19  1  0
 17 18  1  1
 19 21  1  0
 19 20  1  6
 20 13  1  0
 21 23  1  0
 22 21  2  0
 23 24  1  0
 24 25  1  6
 25 26  1  0
 26 27  2  0
 27 28  1  0
 29 28  2  0
 30 29  1  0
 31 26  1  0
 31 30  2  0
 32 24  1  0
 32 33  1  0
 34 32  2  0
M  END
$$$$
