WIF.pdb
     RDKit          3D

 34 36  0  0  1  0  0  0  0  0999 V2000
   22.1767  -20.3443  -14.9876 N   0  0  0  0  0  0  0  0  0  0  0  0
   23.0312  -19.4392  -14.2692 C   0  0  1  0  0  0  0  0  0  0  0  0
   22.3192  -18.3591  -13.5521 C   0  0  0  0  0  0  0  0  0  0  0  0
   21.4360  -17.5280  -14.3644 C   0  0  0  0  0  0  0  0  0  0  0  0
   20.0665  -17.4219  -14.2976 C   0  0  0  0  0  0  0  0  0  0  0  0
   19.6982  -16.5429  -15.2351 N   0  0  0  0  0  0  0  0  0  0  0  0
   20.7727  -16.0734  -15.9087 C   0  0  0  0  0  0  0  0  0  0  0  0
   20.8919  -15.1616  -16.9493 C   0  0  0  0  0  0  0  0  0  0  0  0
   22.1314  -14.8811  -17.4330 C   0  0  0  0  0  0  0  0  0  0  0  0
   23.2782  -15.4674  -16.9301 C   0  0  0  0  0  0  0  0  0  0  0  0
   23.1264  -16.3683  -15.8971 C   0  0  0  0  0  0  0  0  0  0  0  0
   21.8742  -16.6877  -15.3682 C   0  0  0  0  0  0  0  0  0  0  0  0
   23.9812  -20.2117  -13.4422 C   0  0  0  0  0  0  0  0  0  0  0  0
   23.5998  -21.2128  -12.7959 O   0  0  0  0  0  0  0  0  0  0  0  0
   28.7906  -20.7817  -15.6120 C   0  0  0  0  0  0  0  0  0  0  0  0
   27.4885  -20.8200  -14.8421 C   0  0  0  0  0  0  0  0  0  0  0  0
   27.6808  -20.4313  -13.3949 C   0  0  2  0  0  0  0  0  0  0  0  0
   28.6456  -21.3741  -12.6915 C   0  0  0  0  0  0  0  0  0  0  0  0
   26.3554  -20.5571  -12.6741 C   0  0  2  0  0  0  0  0  0  0  0  0
   25.3469  -19.7909  -13.3956 N   0  0  0  0  0  0  0  0  0  0  0  0
   26.4605  -20.0872  -11.2584 C   0  0  0  0  0  0  0  0  0  0  0  0
   26.9801  -18.9415  -11.0350 O   0  0  0  0  0  0  0  0  0  0  0  0
   26.0114  -20.8564  -10.1779 N   0  0  0  0  0  0  0  0  0  0  0  0
   26.6765  -20.7284   -8.8630 C   0  0  1  0  0  0  0  0  0  0  0  0
   26.3235  -19.4181   -8.2519 C   0  0  0  0  0  0  0  0  0  0  0  0
   27.0007  -19.2381   -6.9573 C   0  0  0  0  0  0  0  0  0  0  0  0
   28.2312  -18.5844   -6.8514 C   0  0  0  0  0  0  0  0  0  0  0  0
   28.8632  -18.3874   -5.6444 C   0  0  0  0  0  0  0  0  0  0  0  0
   28.2842  -18.8418   -4.4756 C   0  0  0  0  0  0  0  0  0  0  0  0
   27.0698  -19.4922   -4.5371 C   0  0  0  0  0  0  0  0  0  0  0  0
   26.4560  -19.6776   -5.7564 C   0  0  0  0  0  0  0  0  0  0  0  0
   26.2636  -21.8402   -8.0002 C   0  0  0  0  0  0  0  0  0  0  0  0
   27.1424  -22.4361   -7.1264 O   0  0  0  0  0  0  0  0  0  0  0  0
   25.0863  -22.2623   -8.0580 O   0  0  0  0  0  0  0  0  0  0  0  0
  2  1  1  1
  3  2  1  0
  4  3  1  0
  5  4  2  0
  6  5  1  0
  7  6  1  0
  7 12  2  0
  8  7  1  0
  9  8  2  0
  9 10  1  0
 10 11  2  0
 11 12  1  0
 12  4  1  0
 13  2  1  0
 14 13  2  0
 15 16  1  0
 16 17  1  0
 17 19  1  0
 17 18  1  1
 19 21  1  0
 19 20  1  6
 20 13  1  0
 21 23  1  0
 22 21  2  0
 23 24  1  0
 24 25  1  1
 25 26  1  0
 26 27  2  0
 27 28  1  0
 29 28  2  0
 30 29  1  0
 31 26  1  0
 31 30  2  0
 32 24  1  0
 32 33  1  0
 34 32  2  0
M  END
$$$$
