WIF.pdb
     RDKit          3D

 34 36  0  0  1  0  0  0  0  0999 V2000
   25.9985  -20.5939  -13.1538 N   0  0  0  0  0  0  0  0  0  0  0  0
   24.7507  -20.3844  -12.4721 C   0  0  1  0  0  0  0  0  0  0  0  0
   23.5496  -20.6862  -13.2808 C   0  0  0  0  0  0  0  0  0  0  0  0
   23.4127  -19.9354  -14.5250 C   0  0  0  0  0  0  0  0  0  0  0  0
   24.1456  -20.0623  -15.6816 C   0  0  0  0  0  0  0  0  0  0  0  0
   23.6630  -19.1663  -16.5485 N   0  0  0  0  0  0  0  0  0  0  0  0
   22.6460  -18.4619  -16.0022 C   0  0  0  0  0  0  0  0  0  0  0  0
   21.8460  -17.4435  -16.5033 C   0  0  0  0  0  0  0  0  0  0  0  0
   20.8817  -16.9165  -15.7026 C   0  0  0  0  0  0  0  0  0  0  0  0
   20.6654  -17.3543  -14.4089 C   0  0  0  0  0  0  0  0  0  0  0  0
   21.4763  -18.3668  -13.9408 C   0  0  0  0  0  0  0  0  0  0  0  0
   22.4793  -18.9384  -14.7262 C   0  0  0  0  0  0  0  0  0  0  0  0
   24.7934  -21.0486  -11.1530 C   0  0  0  0  0  0  0  0  0  0  0  0
   24.8723  -22.2942  -11.0659 O   0  0  0  0  0  0  0  0  0  0  0  0
   27.5831  -18.7784   -7.2118 C   0  0  0  0  0  0  0  0  0  0  0  0
   26.8435  -19.7725   -8.0802 C   0  0  0  0  0  0  0  0  0  0  0  0
   25.3959  -19.9080   -7.6696 C   0  0  2  0  0  0  0  0  0  0  0  0
   25.2671  -20.5537   -6.2982 C   0  0  0  0  0  0  0  0  0  0  0  0
   24.6946  -20.8290   -8.6454 C   0  0  2  0  0  0  0  0  0  0  0  0
   24.7428  -20.2373   -9.9767 N   0  0  0  0  0  0  0  0  0  0  0  0
   23.2797  -21.0817   -8.2324 C   0  0  0  0  0  0  0  0  0  0  0  0
   22.4368  -20.1270   -8.3346 O   0  0  0  0  0  0  0  0  0  0  0  0
   22.8522  -22.3213   -7.7410 N   0  0  0  0  0  0  0  0  0  0  0  0
   21.4261  -22.5216   -7.4041 C   0  0  1  0  0  0  0  0  0  0  0  0
   21.0772  -23.9610   -7.5507 C   0  0  0  0  0  0  0  0  0  0  0  0
   19.6693  -24.2033   -7.1953 C   0  0  0  0  0  0  0  0  0  0  0  0
   19.2853  -24.5644   -5.9012 C   0  0  0  0  0  0  0  0  0  0  0  0
   17.9702  -24.7695   -5.5495 C   0  0  0  0  0  0  0  0  0  0  0  0
   16.9691  -24.6203   -6.4894 C   0  0  0  0  0  0  0  0  0  0  0  0
   17.3065  -24.2646   -7.7782 C   0  0  0  0  0  0  0  0  0  0  0  0
   18.6292  -24.0645   -8.1069 C   0  0  0  0  0  0  0  0  0  0  0  0
   21.1813  -22.0573   -6.0346 C   0  0  0  0  0  0  0  0  0  0  0  0
   19.9734  -21.5134   -5.6656 O   0  0  0  0  0  0  0  0  0  0  0  0
   22.0897  -22.1533   -5.1783 O   0  0  0  0  0  0  0  0  0  0  0  0
  2  1  1  6
  3  2  1  0
  4  3  1  0
  5  4  2  0
  6  5  1  0
  7  6  1  0
  7 12  2  0
  8  7  1  0
  9  8  2  0
  9 10  1  0
 10 11  2  0
 11 12  1  0
 12  4  1  0
 13  2  1  0
 14 13  2  0
 15 16  1  0
 16 17  1  0
 17 19  1  0
 17 18  1  1
 19 21  1  0
 19 20  1  6
 20 13  1  0
 21 23  1  0
 22 21  2  0
 23 24  1  0
 24 25  1  1
 25 26  1  0
 26 27  2  0
 27 28  1  0
 29 28  2  0
 30 29  1  0
 31 26  1  0
 31 30  2  0
 32 24  1  0
 32 33  1  0
 34 32  2  0
M  END
$$$$
