WIF.pdb
     RDKit          3D

 34 36  0  0  1  0  0  0  0  0999 V2000
   26.2411  -21.3017  -13.7795 N   0  0  0  0  0  0  0  0  0  0  0  0
   25.8474  -20.3646  -12.7634 C   0  0  1  0  0  0  0  0  0  0  0  0
   24.7325  -19.4721  -13.1482 C   0  0  0  0  0  0  0  0  0  0  0  0
   24.8463  -18.8366  -14.4574 C   0  0  0  0  0  0  0  0  0  0  0  0
   23.9266  -18.8212  -15.4796 C   0  0  0  0  0  0  0  0  0  0  0  0
   24.4688  -18.1198  -16.4803 N   0  0  0  0  0  0  0  0  0  0  0  0
   25.7037  -17.6786  -16.1499 C   0  0  0  0  0  0  0  0  0  0  0  0
   26.6389  -16.9249  -16.8467 C   0  0  0  0  0  0  0  0  0  0  0  0
   27.8210  -16.6301  -16.2429 C   0  0  0  0  0  0  0  0  0  0  0  0
   28.1294  -17.0508  -14.9623 C   0  0  0  0  0  0  0  0  0  0  0  0
   27.1799  -17.7974  -14.2969 C   0  0  0  0  0  0  0  0  0  0  0  0
   25.9524  -18.1247  -14.8763 C   0  0  0  0  0  0  0  0  0  0  0  0
   25.6576  -21.0780  -11.4835 C   0  0  0  0  0  0  0  0  0  0  0  0
   25.2647  -22.2657  -11.4650 O   0  0  0  0  0  0  0  0  0  0  0  0
   28.2794  -19.2376   -6.9918 C   0  0  0  0  0  0  0  0  0  0  0  0
   27.5880  -20.1292   -8.0000 C   0  0  0  0  0  0  0  0  0  0  0  0
   26.0843  -20.0609   -7.8711 C   0  0  2  0  0  0  0  0  0  0  0  0
   25.6120  -20.6747   -6.5617 C   0  0  0  0  0  0  0  0  0  0  0  0
   25.4603  -20.8816   -8.9798 C   0  0  2  0  0  0  0  0  0  0  0  0
   25.9326  -20.3820  -10.2651 N   0  0  0  0  0  0  0  0  0  0  0  0
   23.9670  -20.8367   -8.9140 C   0  0  0  0  0  0  0  0  0  0  0  0
   23.3786  -19.7387   -9.1980 O   0  0  0  0  0  0  0  0  0  0  0  0
   23.1986  -21.9506   -8.5538 N   0  0  0  0  0  0  0  0  0  0  0  0
   21.7236  -21.8443   -8.5300 C   0  0  1  0  0  0  0  0  0  0  0  0
   21.1641  -22.3966   -9.7937 C   0  0  0  0  0  0  0  0  0  0  0  0
   19.6923  -22.4018   -9.7633 C   0  0  0  0  0  0  0  0  0  0  0  0
   18.9641  -23.5463   -9.4283 C   0  0  0  0  0  0  0  0  0  0  0  0
   17.5886  -23.5581   -9.3718 C   0  0  0  0  0  0  0  0  0  0  0  0
   16.8727  -22.4105   -9.6515 C   0  0  0  0  0  0  0  0  0  0  0  0
   17.5541  -21.2595   -9.9864 C   0  0  0  0  0  0  0  0  0  0  0  0
   18.9307  -21.2715  -10.0364 C   0  0  0  0  0  0  0  0  0  0  0  0
   21.2039  -22.5666   -7.3641 C   0  0  0  0  0  0  0  0  0  0  0  0
   20.0008  -22.2312   -6.7889 O   0  0  0  0  0  0  0  0  0  0  0  0
   21.8675  -23.5092   -6.8755 O   0  0  0  0  0  0  0  0  0  0  0  0
  2  1  1  6
  3  2  1  0
  4  3  1  0
  5  4  2  0
  6  5  1  0
  7  6  1  0
  7 12  2  0
  8  7  1  0
  9  8  2  0
  9 10  1  0
 10 11  2  0
 11 12  1  0
 12  4  1  0
 13  2  1  0
 14 13  2  0
 15 16  1  0
 16 17  1  0
 17 19  1  0
 17 18  1  1
 19 21  1  0
 19 20  1  6
 20 13  1  0
 21 23  1  0
 22 21  2  0
 23 24  1  0
 24 25  1  6
 25 26  1  0
 26 27  2  0
 27 28  1  0
 29 28  2  0
 30 29  1  0
 31 26  1  0
 31 30  2  0
 32 24  1  0
 32 33  1  0
 34 32  2  0
M  END
$$$$
