WIF.pdb
     RDKit          3D

 34 36  0  0  1  0  0  0  0  0999 V2000
   29.2802  -22.0817  -17.7724 N   0  0  0  0  0  0  0  0  0  0  0  0
   28.2202  -22.5576  -16.9265 C   0  0  1  0  0  0  0  0  0  0  0  0
   28.5513  -23.7718  -16.1494 C   0  0  0  0  0  0  0  0  0  0  0  0
   28.7995  -24.9806  -16.9290 C   0  0  0  0  0  0  0  0  0  0  0  0
   27.9426  -25.6342  -17.7833 C   0  0  0  0  0  0  0  0  0  0  0  0
   28.6056  -26.6893  -18.2673 N   0  0  0  0  0  0  0  0  0  0  0  0
   29.8587  -26.7482  -17.7623 C   0  0  0  0  0  0  0  0  0  0  0  0
   30.9009  -27.6436  -17.9632 C   0  0  0  0  0  0  0  0  0  0  0  0
   32.0721  -27.4416  -17.3026 C   0  0  0  0  0  0  0  0  0  0  0  0
   32.2670  -26.3800  -16.4384 C   0  0  0  0  0  0  0  0  0  0  0  0
   31.2131  -25.5086  -16.2603 C   0  0  0  0  0  0  0  0  0  0  0  0
   29.9922  -25.6756  -16.9170 C   0  0  0  0  0  0  0  0  0  0  0  0
   27.6876  -21.4352  -16.1268 C   0  0  0  0  0  0  0  0  0  0  0  0
   28.3316  -20.9790  -15.1559 O   0  0  0  0  0  0  0  0  0  0  0  0
   27.9212  -17.4190  -15.9712 C   0  0  0  0  0  0  0  0  0  0  0  0
   27.2162  -18.1740  -17.0769 C   0  0  0  0  0  0  0  0  0  0  0  0
   25.8049  -18.5485  -16.6890 C   0  0  2  0  0  0  0  0  0  0  0  0
   25.1291  -17.4303  -15.9099 C   0  0  0  0  0  0  0  0  0  0  0  0
   25.8530  -19.7471  -15.7653 C   0  0  2  0  0  0  0  0  0  0  0  0
   26.4196  -20.8806  -16.4858 N   0  0  0  0  0  0  0  0  0  0  0  0
   24.4935  -20.0831  -15.2407 C   0  0  0  0  0  0  0  0  0  0  0  0
   23.6764  -20.6896  -16.0133 O   0  0  0  0  0  0  0  0  0  0  0  0
   24.0903  -19.7570  -13.9399 N   0  0  0  0  0  0  0  0  0  0  0  0
   22.7143  -20.0743  -13.5000 C   0  0  1  0  0  0  0  0  0  0  0  0
   22.6393  -20.0111  -12.0149 C   0  0  0  0  0  0  0  0  0  0  0  0
   21.2773  -20.3063  -11.5407 C   0  0  0  0  0  0  0  0  0  0  0  0
   20.8218  -21.6163  -11.3700 C   0  0  0  0  0  0  0  0  0  0  0  0
   19.5594  -21.9061  -10.9036 C   0  0  0  0  0  0  0  0  0  0  0  0
   18.6865  -20.8847  -10.5835 C   0  0  0  0  0  0  0  0  0  0  0  0
   19.0977  -19.5776  -10.7377 C   0  0  0  0  0  0  0  0  0  0  0  0
   20.3657  -19.3119  -11.2059 C   0  0  0  0  0  0  0  0  0  0  0  0
   21.7779  -19.1280  -14.1154 C   0  0  0  0  0  0  0  0  0  0  0  0
   20.5285  -19.5225  -14.5328 O   0  0  0  0  0  0  0  0  0  0  0  0
   22.1191  -17.9332  -14.2690 O   0  0  0  0  0  0  0  0  0  0  0  0
  2  1  1  1
  3  2  1  0
  4  3  1  0
  5  4  2  0
  6  5  1  0
  7  6  1  0
  7 12  2  0
  8  7  1  0
  9  8  2  0
  9 10  1  0
 10 11  2  0
 11 12  1  0
 12  4  1  0
 13  2  1  0
 14 13  2  0
 15 16  1  0
 16 17  1  0
 17 19  1  0
 17 18  1  1
 19 21  1  0
 19 20  1  6
 20 13  1  0
 21 23  1  0
 22 21  2  0
 23 24  1  0
 24 25  1  1
 25 26  1  0
 26 27  2  0
 27 28  1  0
 29 28  2  0
 30 29  1  0
 31 26  1  0
 31 30  2  0
 32 24  1  0
 32 33  1  0
 34 32  2  0
M  END
$$$$
