WIF.pdb
     RDKit          3D

 34 36  0  0  1  0  0  0  0  0999 V2000
   27.3103  -21.9664  -11.2607 N   0  0  0  0  0  0  0  0  0  0  0  0
   26.2790  -21.4300  -10.4156 C   0  0  1  0  0  0  0  0  0  0  0  0
   26.7238  -20.3426   -9.5169 C   0  0  0  0  0  0  0  0  0  0  0  0
   27.8470  -20.6585   -8.6400 C   0  0  0  0  0  0  0  0  0  0  0  0
   28.8897  -21.5251   -8.8699 C   0  0  0  0  0  0  0  0  0  0  0  0
   29.6727  -21.4878   -7.7869 N   0  0  0  0  0  0  0  0  0  0  0  0
   29.1812  -20.6321   -6.8623 C   0  0  0  0  0  0  0  0  0  0  0  0
   29.6346  -20.2638   -5.6025 C   0  0  0  0  0  0  0  0  0  0  0  0
   28.9133  -19.3597   -4.8873 C   0  0  0  0  0  0  0  0  0  0  0  0
   27.7462  -18.7922   -5.3644 C   0  0  0  0  0  0  0  0  0  0  0  0
   27.3226  -19.1785   -6.6186 C   0  0  0  0  0  0  0  0  0  0  0  0
   28.0300  -20.1032   -7.3894 C   0  0  0  0  0  0  0  0  0  0  0  0
   25.0895  -21.1124  -11.2323 C   0  0  0  0  0  0  0  0  0  0  0  0
   25.1061  -21.2659  -12.4739 O   0  0  0  0  0  0  0  0  0  0  0  0
   20.2527  -23.0629  -10.6013 C   0  0  0  0  0  0  0  0  0  0  0  0
   20.3162  -21.5954  -10.2381 C   0  0  0  0  0  0  0  0  0  0  0  0
   21.6992  -21.1886   -9.7864 C   0  0  2  0  0  0  0  0  0  0  0  0
   21.6776  -19.8413   -9.0802 C   0  0  0  0  0  0  0  0  0  0  0  0
   22.5823  -21.0206  -11.0047 C   0  0  2  0  0  0  0  0  0  0  0  0
   23.9175  -20.6255  -10.5736 N   0  0  0  0  0  0  0  0  0  0  0  0
   22.0148  -20.0120  -11.9517 C   0  0  0  0  0  0  0  0  0  0  0  0
   21.9369  -18.7953  -11.5694 O   0  0  0  0  0  0  0  0  0  0  0  0
   21.5693  -20.3553  -13.2342 N   0  0  0  0  0  0  0  0  0  0  0  0
   20.9759  -19.3168  -14.1041 C   0  0  1  0  0  0  0  0  0  0  0  0
   21.5384  -19.4362  -15.4769 C   0  0  0  0  0  0  0  0  0  0  0  0
   22.9294  -18.9564  -15.5226 C   0  0  0  0  0  0  0  0  0  0  0  0
   23.2397  -17.6041  -15.6883 C   0  0  0  0  0  0  0  0  0  0  0  0
   24.5353  -17.1391  -15.7077 C   0  0  0  0  0  0  0  0  0  0  0  0
   25.5904  -18.0181  -15.5603 C   0  0  0  0  0  0  0  0  0  0  0  0
   25.3265  -19.3613  -15.3943 C   0  0  0  0  0  0  0  0  0  0  0  0
   24.0219  -19.8035  -15.3779 C   0  0  0  0  0  0  0  0  0  0  0  0
   19.5174  -19.4704  -14.1175 C   0  0  0  0  0  0  0  0  0  0  0  0
   18.9109  -20.6109  -13.6460 O   0  0  0  0  0  0  0  0  0  0  0  0
   18.8033  -18.5467  -14.5695 O   0  0  0  0  0  0  0  0  0  0  0  0
  2  1  1  6
  3  2  1  0
  4  3  1  0
  5  4  2  0
  6  5  1  0
  7  6  1  0
  7 12  2  0
  8  7  1  0
  9  8  2  0
  9 10  1  0
 10 11  2  0
 11 12  1  0
 12  4  1  0
 13  2  1  0
 14 13  2  0
 15 16  1  0
 16 17  1  0
 17 19  1  0
 17 18  1  6
 19 21  1  0
 19 20  1  1
 20 13  1  0
 21 23  1  0
 22 21  2  0
 23 24  1  0
 24 25  1  6
 25 26  1  0
 26 27  2  0
 27 28  1  0
 29 28  2  0
 30 29  1  0
 31 26  1  0
 31 30  2  0
 32 24  1  0
 32 33  1  0
 34 32  2  0
M  END
$$$$
