WIF.pdb
     RDKit          3D

 34 36  0  0  1  0  0  0  0  0999 V2000
   24.8455  -17.5640  -15.4554 N   0  0  0  0  0  0  0  0  0  0  0  0
   25.9179  -17.8539  -14.5435 C   0  0  1  0  0  0  0  0  0  0  0  0
   26.7085  -16.6746  -14.1288 C   0  0  0  0  0  0  0  0  0  0  0  0
   27.3762  -15.9442  -15.2018 C   0  0  0  0  0  0  0  0  0  0  0  0
   27.1920  -14.6365  -15.5851 C   0  0  0  0  0  0  0  0  0  0  0  0
   28.0195  -14.4114  -16.6107 N   0  0  0  0  0  0  0  0  0  0  0  0
   28.7341  -15.5198  -16.9096 C   0  0  0  0  0  0  0  0  0  0  0  0
   29.7000  -15.7709  -17.8753 C   0  0  0  0  0  0  0  0  0  0  0  0
   30.2551  -17.0106  -17.9369 C   0  0  0  0  0  0  0  0  0  0  0  0
   29.8963  -18.0317  -17.0764 C   0  0  0  0  0  0  0  0  0  0  0  0
   28.9346  -17.7507  -16.1288 C   0  0  0  0  0  0  0  0  0  0  0  0
   28.3368  -16.4930  -16.0276 C   0  0  0  0  0  0  0  0  0  0  0  0
   25.4073  -18.6810  -13.4308 C   0  0  0  0  0  0  0  0  0  0  0  0
   24.3374  -18.3863  -12.8529 O   0  0  0  0  0  0  0  0  0  0  0  0
   24.4869  -23.5702  -14.2237 C   0  0  0  0  0  0  0  0  0  0  0  0
   24.6292  -22.1755  -13.6546 C   0  0  0  0  0  0  0  0  0  0  0  0
   25.6262  -22.1315  -12.5203 C   0  0  2  0  0  0  0  0  0  0  0  0
   25.1900  -23.0193  -11.3645 C   0  0  0  0  0  0  0  0  0  0  0  0
   25.6880  -20.7195  -11.9775 C   0  0  2  0  0  0  0  0  0  0  0  0
   26.1621  -19.8265  -13.0276 N   0  0  0  0  0  0  0  0  0  0  0  0
   26.5753  -20.6378  -10.7766 C   0  0  0  0  0  0  0  0  0  0  0  0
   27.6987  -21.2455  -10.8082 O   0  0  0  0  0  0  0  0  0  0  0  0
   26.2172  -19.9224   -9.6273 N   0  0  0  0  0  0  0  0  0  0  0  0
   26.9773  -20.1237   -8.3746 C   0  0  1  0  0  0  0  0  0  0  0  0
   26.7197  -18.9881   -7.4478 C   0  0  0  0  0  0  0  0  0  0  0  0
   27.4663  -19.1517   -6.1897 C   0  0  0  0  0  0  0  0  0  0  0  0
   26.8563  -19.6223   -5.0240 C   0  0  0  0  0  0  0  0  0  0  0  0
   27.5483  -19.8036   -3.8478 C   0  0  0  0  0  0  0  0  0  0  0  0
   28.8983  -19.5181   -3.7859 C   0  0  0  0  0  0  0  0  0  0  0  0
   29.5378  -19.0514   -4.9148 C   0  0  0  0  0  0  0  0  0  0  0  0
   28.8247  -18.8780   -6.0806 C   0  0  0  0  0  0  0  0  0  0  0  0
   26.5825  -21.3990   -7.7673 C   0  0  0  0  0  0  0  0  0  0  0  0
   27.4851  -22.1785   -7.0827 O   0  0  0  0  0  0  0  0  0  0  0  0
   25.3990  -21.7934   -7.8735 O   0  0  0  0  0  0  0  0  0  0  0  0
  2  1  1  1
  3  2  1  0
  4  3  1  0
  5  4  2  0
  6  5  1  0
  7  6  1  0
  7 12  2  0
  8  7  1  0
  9  8  2  0
  9 10  1  0
 10 11  2  0
 11 12  1  0
 12  4  1  0
 13  2  1  0
 14 13  2  0
 15 16  1  0
 16 17  1  0
 17 19  1  0
 17 18  1  1
 19 21  1  0
 19 20  1  6
 20 13  1  0
 21 23  1  0
 22 21  2  0
 23 24  1  0
 24 25  1  1
 25 26  1  0
 26 27  2  0
 27 28  1  0
 29 28  2  0
 30 29  1  0
 31 26  1  0
 31 30  2  0
 32 24  1  0
 32 33  1  0
 34 32  2  0
M  END
$$$$
