WIF.pdb
     RDKit          3D

 34 36  0  0  1  0  0  0  0  0999 V2000
   26.9295  -20.3368  -15.9559 N   0  0  0  0  0  0  0  0  0  0  0  0
   27.5123  -19.7792  -14.7664 C   0  0  1  0  0  0  0  0  0  0  0  0
   27.0132  -18.4334  -14.4094 C   0  0  0  0  0  0  0  0  0  0  0  0
   27.1327  -17.4126  -15.4459 C   0  0  0  0  0  0  0  0  0  0  0  0
   26.2255  -16.4382  -15.7904 C   0  0  0  0  0  0  0  0  0  0  0  0
   26.7674  -15.7389  -16.7928 N   0  0  0  0  0  0  0  0  0  0  0  0
   27.9901  -16.2193  -17.1137 C   0  0  0  0  0  0  0  0  0  0  0  0
   28.9202  -15.8307  -18.0688 C   0  0  0  0  0  0  0  0  0  0  0  0
   30.0893  -16.5190  -18.1599 C   0  0  0  0  0  0  0  0  0  0  0  0
   30.3894  -17.5908  -17.3393 C   0  0  0  0  0  0  0  0  0  0  0  0
   29.4452  -17.9519  -16.4012 C   0  0  0  0  0  0  0  0  0  0  0  0
   28.2310  -17.2750  -16.2708 C   0  0  0  0  0  0  0  0  0  0  0  0
   27.4499  -20.7736  -13.6754 C   0  0  0  0  0  0  0  0  0  0  0  0
   26.5793  -21.6722  -13.6776 O   0  0  0  0  0  0  0  0  0  0  0  0
   31.7928  -22.0030  -10.4289 C   0  0  0  0  0  0  0  0  0  0  0  0
   30.4829  -22.0254  -11.1860 C   0  0  0  0  0  0  0  0  0  0  0  0
   29.4140  -21.2230  -10.4817 C   0  0  2  0  0  0  0  0  0  0  0  0
   29.0718  -21.8248   -9.1270 C   0  0  0  0  0  0  0  0  0  0  0  0
   28.1446  -21.2696  -11.3053 C   0  0  2  0  0  0  0  0  0  0  0  0
   28.4062  -20.6877  -12.6160 N   0  0  0  0  0  0  0  0  0  0  0  0
   27.0273  -20.5475  -10.6222 C   0  0  0  0  0  0  0  0  0  0  0  0
   27.0914  -19.2746  -10.5318 O   0  0  0  0  0  0  0  0  0  0  0  0
   25.9218  -21.2163  -10.0824 N   0  0  0  0  0  0  0  0  0  0  0  0
   24.8934  -20.4511   -9.3444 C   0  0  1  0  0  0  0  0  0  0  0  0
   24.0679  -19.6706  -10.3059 C   0  0  0  0  0  0  0  0  0  0  0  0
   23.3968  -20.5582  -11.2697 C   0  0  0  0  0  0  0  0  0  0  0  0
   24.0497  -21.0445  -12.4054 C   0  0  0  0  0  0  0  0  0  0  0  0
   23.4419  -21.8950  -13.3012 C   0  0  0  0  0  0  0  0  0  0  0  0
   22.1377  -22.3012  -13.0971 C   0  0  0  0  0  0  0  0  0  0  0  0
   21.4582  -21.8438  -11.9878 C   0  0  0  0  0  0  0  0  0  0  0  0
   22.0870  -20.9934  -11.1051 C   0  0  0  0  0  0  0  0  0  0  0  0
   24.0628  -21.3780   -8.5686 C   0  0  0  0  0  0  0  0  0  0  0  0
   24.3386  -22.7244   -8.5239 O   0  0  0  0  0  0  0  0  0  0  0  0
   23.0775  -20.9396   -7.9325 O   0  0  0  0  0  0  0  0  0  0  0  0
  2  1  1  6
  3  2  1  0
  4  3  1  0
  5  4  2  0
  6  5  1  0
  7  6  1  0
  7 12  2  0
  8  7  1  0
  9  8  2  0
  9 10  1  0
 10 11  2  0
 11 12  1  0
 12  4  1  0
 13  2  1  0
 14 13  2  0
 15 16  1  0
 16 17  1  0
 17 19  1  0
 17 18  1  1
 19 21  1  0
 19 20  1  6
 20 13  1  0
 21 23  1  0
 22 21  2  0
 23 24  1  0
 24 25  1  6
 25 26  1  0
 26 27  2  0
 27 28  1  0
 29 28  2  0
 30 29  1  0
 31 26  1  0
 31 30  2  0
 32 24  1  0
 32 33  1  0
 34 32  2  0
M  END
$$$$
