WIF.pdb
     RDKit          3D

 34 36  0  0  1  0  0  0  0  0999 V2000
   22.6824  -21.7179  -14.7483 N   0  0  0  0  0  0  0  0  0  0  0  0
   22.9110  -20.8013  -13.6652 C   0  0  1  0  0  0  0  0  0  0  0  0
   21.7138  -20.5011  -12.8501 C   0  0  0  0  0  0  0  0  0  0  0  0
   20.6390  -19.7880  -13.5333 C   0  0  0  0  0  0  0  0  0  0  0  0
   20.5092  -18.4340  -13.7358 C   0  0  0  0  0  0  0  0  0  0  0  0
   19.3675  -18.2485  -14.4061 N   0  0  0  0  0  0  0  0  0  0  0  0
   18.7498  -19.4270  -14.6476 C   0  0  0  0  0  0  0  0  0  0  0  0
   17.5625  -19.7384  -15.2969 C   0  0  0  0  0  0  0  0  0  0  0  0
   17.1897  -21.0430  -15.3863 C   0  0  0  0  0  0  0  0  0  0  0  0
   17.9458  -22.0724  -14.8565 C   0  0  0  0  0  0  0  0  0  0  0  0
   19.1193  -21.7305  -14.2180 C   0  0  0  0  0  0  0  0  0  0  0  0
   19.5426  -20.4050  -14.1017 C   0  0  0  0  0  0  0  0  0  0  0  0
   24.0935  -21.2367  -12.8937 C   0  0  0  0  0  0  0  0  0  0  0  0
   24.1096  -22.3487  -12.3203 O   0  0  0  0  0  0  0  0  0  0  0  0
   28.9973  -19.9521  -14.7090 C   0  0  0  0  0  0  0  0  0  0  0  0
   27.8148  -20.5938  -14.0166 C   0  0  0  0  0  0  0  0  0  0  0  0
   27.6119  -20.0415  -12.6252 C   0  0  2  0  0  0  0  0  0  0  0  0
   28.7839  -20.3829  -11.7172 C   0  0  0  0  0  0  0  0  0  0  0  0
   26.3904  -20.6937  -12.0131 C   0  0  2  0  0  0  0  0  0  0  0  0
   25.2203  -20.3601  -12.8159 N   0  0  0  0  0  0  0  0  0  0  0  0
   26.1968  -20.2604  -10.5949 C   0  0  0  0  0  0  0  0  0  0  0  0
   25.6854  -19.1103  -10.3749 O   0  0  0  0  0  0  0  0  0  0  0  0
   26.5552  -21.0682   -9.5087 N   0  0  0  0  0  0  0  0  0  0  0  0
   26.5263  -20.5078   -8.1402 C   0  0  1  0  0  0  0  0  0  0  0  0
   27.1362  -21.4790   -7.1915 C   0  0  0  0  0  0  0  0  0  0  0  0
   27.7292  -20.7879   -6.0349 C   0  0  0  0  0  0  0  0  0  0  0  0
   27.0245  -20.6050   -4.8422 C   0  0  0  0  0  0  0  0  0  0  0  0
   27.5757  -19.9829   -3.7448 C   0  0  0  0  0  0  0  0  0  0  0  0
   28.8727  -19.5105   -3.7935 C   0  0  0  0  0  0  0  0  0  0  0  0
   29.6023  -19.6715   -4.9525 C   0  0  0  0  0  0  0  0  0  0  0  0
   29.0297  -20.2973   -6.0379 C   0  0  0  0  0  0  0  0  0  0  0  0
   27.2480  -19.2312   -8.1234 C   0  0  0  0  0  0  0  0  0  0  0  0
   28.5163  -19.1161   -8.6419 O   0  0  0  0  0  0  0  0  0  0  0  0
   26.7030  -18.2203   -7.6246 O   0  0  0  0  0  0  0  0  0  0  0  0
  2  1  1  6
  3  2  1  0
  4  3  1  0
  5  4  2  0
  6  5  1  0
  7  6  1  0
  7 12  2  0
  8  7  1  0
  9  8  2  0
  9 10  1  0
 10 11  2  0
 11 12  1  0
 12  4  1  0
 13  2  1  0
 14 13  2  0
 15 16  1  0
 16 17  1  0
 17 19  1  0
 17 18  1  1
 19 21  1  0
 19 20  1  6
 20 13  1  0
 21 23  1  0
 22 21  2  0
 23 24  1  0
 24 25  1  1
 25 26  1  0
 26 27  2  0
 27 28  1  0
 29 28  2  0
 30 29  1  0
 31 26  1  0
 31 30  2  0
 32 24  1  0
 32 33  1  0
 34 32  2  0
M  END
$$$$
