WIF.pdb
     RDKit          3D

 34 36  0  0  1  0  0  0  0  0999 V2000
   23.6301  -17.0400  -16.9647 N   0  0  0  0  0  0  0  0  0  0  0  0
   23.0409  -18.3412  -16.8054 C   0  0  1  0  0  0  0  0  0  0  0  0
   22.1497  -18.7526  -17.9118 C   0  0  0  0  0  0  0  0  0  0  0  0
   21.0256  -17.8639  -18.1901 C   0  0  0  0  0  0  0  0  0  0  0  0
   20.9208  -16.9040  -19.1692 C   0  0  0  0  0  0  0  0  0  0  0  0
   19.7139  -16.3442  -19.0376 N   0  0  0  0  0  0  0  0  0  0  0  0
   19.0300  -16.9014  -18.0127 C   0  0  0  0  0  0  0  0  0  0  0  0
   17.7626  -16.6584  -17.4997 C   0  0  0  0  0  0  0  0  0  0  0  0
   17.3355  -17.3936  -16.4386 C   0  0  0  0  0  0  0  0  0  0  0  0
   18.1128  -18.3739  -15.8497 C   0  0  0  0  0  0  0  0  0  0  0  0
   19.3662  -18.5911  -16.3822 C   0  0  0  0  0  0  0  0  0  0  0  0
   19.8474  -17.8611  -17.4708 C   0  0  0  0  0  0  0  0  0  0  0  0
   24.0936  -19.3189  -16.4604 C   0  0  0  0  0  0  0  0  0  0  0  0
   24.2108  -20.3863  -17.1025 O   0  0  0  0  0  0  0  0  0  0  0  0
   28.8023  -17.7058  -14.9435 C   0  0  0  0  0  0  0  0  0  0  0  0
   27.4726  -18.3399  -15.2888 C   0  0  0  0  0  0  0  0  0  0  0  0
   27.1160  -19.4524  -14.3309 C   0  0  2  0  0  0  0  0  0  0  0  0
   28.1373  -20.5786  -14.3849 C   0  0  0  0  0  0  0  0  0  0  0  0
   25.7913  -20.0536  -14.7504 C   0  0  2  0  0  0  0  0  0  0  0  0
   24.9765  -19.0196  -15.3764 N   0  0  0  0  0  0  0  0  0  0  0  0
   25.0742  -20.6548  -13.5840 C   0  0  0  0  0  0  0  0  0  0  0  0
   23.7993  -20.7278  -13.6259 O   0  0  0  0  0  0  0  0  0  0  0  0
   25.7497  -21.1364  -12.4559 N   0  0  0  0  0  0  0  0  0  0  0  0
   24.9806  -21.7372  -11.3445 C   0  0  1  0  0  0  0  0  0  0  0  0
   25.9185  -22.3422  -10.3599 C   0  0  0  0  0  0  0  0  0  0  0  0
   26.6676  -21.3029   -9.6348 C   0  0  0  0  0  0  0  0  0  0  0  0
   26.0729  -20.5199   -8.6420 C   0  0  0  0  0  0  0  0  0  0  0  0
   26.7683  -19.5621   -7.9391 C   0  0  0  0  0  0  0  0  0  0  0  0
   28.1064  -19.3431   -8.2022 C   0  0  0  0  0  0  0  0  0  0  0  0
   28.7308  -20.0953   -9.1748 C   0  0  0  0  0  0  0  0  0  0  0  0
   28.0145  -21.0482   -9.8652 C   0  0  0  0  0  0  0  0  0  0  0  0
   24.1504  -20.7047  -10.7154 C   0  0  0  0  0  0  0  0  0  0  0  0
   23.0297  -21.0290   -9.9876 O   0  0  0  0  0  0  0  0  0  0  0  0
   24.4627  -19.4989  -10.8425 O   0  0  0  0  0  0  0  0  0  0  0  0
  2  1  1  6
  3  2  1  0
  4  3  1  0
  5  4  2  0
  6  5  1  0
  7  6  1  0
  7 12  2  0
  8  7  1  0
  9  8  2  0
  9 10  1  0
 10 11  2  0
 11 12  1  0
 12  4  1  0
 13  2  1  0
 14 13  2  0
 15 16  1  0
 16 17  1  0
 17 19  1  0
 17 18  1  6
 19 21  1  0
 19 20  1  1
 20 13  1  0
 21 23  1  0
 22 21  2  0
 23 24  1  0
 24 25  1  1
 25 26  1  0
 26 27  2  0
 27 28  1  0
 29 28  2  0
 30 29  1  0
 31 26  1  0
 31 30  2  0
 32 24  1  0
 32 33  1  0
 34 32  2  0
M  END
$$$$
