YNY.pdb
     RDKit          3D

 33 34  0  0  1  0  0  0  0  0999 V2000
   20.4257  -11.9200   15.5901 O   0  0  0  0  0  0  0  0  0  0  0  0
   19.3188  -12.3085   16.3399 C   0  0  0  0  0  0  0  0  0  0  0  0
   19.2532  -13.5851   16.8323 C   0  0  0  0  0  0  0  0  0  0  0  0
   18.1944  -14.0453   17.5780 C   0  0  0  0  0  0  0  0  0  0  0  0
   17.1586  -13.1383   17.8219 C   0  0  0  0  0  0  0  0  0  0  0  0
   15.9720  -13.6252   18.5829 C   0  0  0  0  0  0  0  0  0  0  0  0
   15.2557  -14.6368   17.7011 C   0  0  2  0  0  0  0  0  0  0  0  0
   14.5241  -13.8932   16.6739 N   0  0  0  0  0  0  0  0  0  0  0  0
   14.3358  -15.5028   18.4411 C   0  0  0  0  0  0  0  0  0  0  0  0
   13.0878  -15.4968   18.2140 O   0  0  0  0  0  0  0  0  0  0  0  0
   17.1767  -11.8389   17.3492 C   0  0  0  0  0  0  0  0  0  0  0  0
   18.2806  -11.4327   16.5968 C   0  0  0  0  0  0  0  0  0  0  0  0
   11.0012  -18.6394   18.6902 N   0  0  0  0  0  0  0  0  0  0  0  0
   12.2462  -18.0532   18.3686 C   0  0  0  0  0  0  0  0  0  0  0  0
   12.3438  -17.1770   17.4934 O   0  0  0  0  0  0  0  0  0  0  0  0
   13.4735  -18.4772   19.0870 C   0  0  0  0  0  0  0  0  0  0  0  0
   13.9514  -17.4188   20.0647 C   0  0  2  0  0  0  0  0  0  0  0  0
   14.7459  -16.4134   19.4582 N   0  0  0  0  0  0  0  0  0  0  0  0
   14.5932  -18.1242   21.1958 C   0  0  0  0  0  0  0  0  0  0  0  0
   15.5500  -18.9316   21.0273 O   0  0  0  0  0  0  0  0  0  0  0  0
   18.7741  -12.8544   20.9773 O   0  0  0  0  0  0  0  0  0  0  0  0
   17.8039  -13.5952   21.6335 C   0  0  0  0  0  0  0  0  0  0  0  0
   18.1185  -14.6672   22.4477 C   0  0  0  0  0  0  0  0  0  0  0  0
   17.1107  -15.3946   23.0999 C   0  0  0  0  0  0  0  0  0  0  0  0
   15.7837  -15.0498   22.9396 C   0  0  0  0  0  0  0  0  0  0  0  0
   14.7189  -15.8041   23.6054 C   0  0  0  0  0  0  0  0  0  0  0  0
   14.9444  -17.2716   23.5670 C   0  0  2  0  0  0  0  0  0  0  0  0
   14.1799  -17.9466   22.5451 N   0  0  0  0  0  0  0  0  0  0  0  0
   14.7137  -17.9320   24.8399 C   0  0  0  0  0  0  0  0  0  0  0  0
   13.6900  -18.6535   25.0763 O   0  0  0  0  0  0  0  0  0  0  0  0
   15.5035  -13.9670   22.1132 C   0  0  0  0  0  0  0  0  0  0  0  0
   16.4787  -13.2461   21.4680 C   0  0  0  0  0  0  0  0  0  0  0  0
   15.6255  -17.8090   25.9050 O   0  0  0  0  0  0  0  0  0  0  0  0
  2 12  2  0
  2  1  1  0
  3  2  1  0
  4  5  1  0
  4  3  2  0
  5 11  2  0
  6  5  1  0
  7  6  1  0
  7  8  1  6
  9  7  1  0
  9 10  2  0
 11 12  1  0
 13 14  1  0
 14 15  2  0
 16 14  1  0
 17 16  1  6
 17 18  1  0
 18  9  1  0
 19 20  2  0
 19 17  1  0
 22 21  1  0
 22 23  2  0
 24 23  1  0
 25 24  2  0
 26 25  1  0
 27 28  1  0
 27 26  1  1
 28 19  1  0
 29 27  1  0
 30 29  2  0
 31 32  2  0
 31 25  1  0
 32 22  1  0
 33 29  1  0
M  END
$$$$
