YNY.pdb
     RDKit          3D

 33 34  0  0  1  0  0  0  0  0999 V2000
    8.3494  -13.4083   14.7383 O   0  0  0  0  0  0  0  0  0  0  0  0
    7.9523  -13.8773   15.9876 C   0  0  0  0  0  0  0  0  0  0  0  0
    8.0132  -13.0416   17.0713 C   0  0  0  0  0  0  0  0  0  0  0  0
    7.6422  -13.4297   18.3365 C   0  0  0  0  0  0  0  0  0  0  0  0
    7.1886  -14.7444   18.4808 C   0  0  0  0  0  0  0  0  0  0  0  0
    6.8298  -15.2101   19.8514 C   0  0  0  0  0  0  0  0  0  0  0  0
    8.0928  -15.1394   20.6961 C   0  0  2  0  0  0  0  0  0  0  0  0
    9.2372  -15.3292   19.8030 N   0  0  0  0  0  0  0  0  0  0  0  0
    8.1282  -16.1330   21.7710 C   0  0  0  0  0  0  0  0  0  0  0  0
    7.1571  -16.2801   22.5739 O   0  0  0  0  0  0  0  0  0  0  0  0
    7.1066  -15.6271   17.4196 C   0  0  0  0  0  0  0  0  0  0  0  0
    7.4994  -15.1720   16.1594 C   0  0  0  0  0  0  0  0  0  0  0  0
   10.8278  -19.2961   20.2799 N   0  0  0  0  0  0  0  0  0  0  0  0
    9.7542  -19.5076   21.1740 C   0  0  0  0  0  0  0  0  0  0  0  0
    8.6438  -19.8954   20.7742 O   0  0  0  0  0  0  0  0  0  0  0  0
    9.9416  -19.2722   22.6272 C   0  0  0  0  0  0  0  0  0  0  0  0
    9.3516  -17.9441   23.0663 C   0  0  2  0  0  0  0  0  0  0  0  0
    9.2276  -17.0087   22.0082 N   0  0  0  0  0  0  0  0  0  0  0  0
   10.1422  -17.4747   24.2254 C   0  0  0  0  0  0  0  0  0  0  0  0
   10.5558  -18.2650   25.1199 O   0  0  0  0  0  0  0  0  0  0  0  0
    5.8058  -10.8680   27.8387 O   0  0  0  0  0  0  0  0  0  0  0  0
    6.5267  -11.7447   27.0435 C   0  0  0  0  0  0  0  0  0  0  0  0
    7.9042  -11.6874   26.9423 C   0  0  0  0  0  0  0  0  0  0  0  0
    8.6036  -12.5929   26.1293 C   0  0  0  0  0  0  0  0  0  0  0  0
    7.9254  -13.5603   25.4155 C   0  0  0  0  0  0  0  0  0  0  0  0
    8.6389  -14.5072   24.5551 C   0  0  0  0  0  0  0  0  0  0  0  0
    9.7682  -15.1763   25.2501 C   0  0  2  0  0  0  0  0  0  0  0  0
   10.4887  -16.1085   24.4157 N   0  0  0  0  0  0  0  0  0  0  0  0
    9.3833  -15.8463   26.4798 C   0  0  0  0  0  0  0  0  0  0  0  0
    9.7990  -15.4871   27.6298 O   0  0  0  0  0  0  0  0  0  0  0  0
    6.5405  -13.5887   25.5402 C   0  0  0  0  0  0  0  0  0  0  0  0
    5.8424  -12.7091   26.3312 C   0  0  0  0  0  0  0  0  0  0  0  0
    8.5129  -16.9523   26.4700 O   0  0  0  0  0  0  0  0  0  0  0  0
  2 12  2  0
  2  1  1  0
  3  2  1  0
  4  5  1  0
  4  3  2  0
  5 11  2  0
  6  5  1  0
  7  6  1  0
  7  8  1  6
  9  7  1  0
  9 10  2  0
 11 12  1  0
 13 14  1  0
 14 15  2  0
 16 14  1  0
 17 16  1  6
 17 18  1  0
 18  9  1  0
 19 20  2  0
 19 17  1  0
 22 21  1  0
 22 23  2  0
 24 23  1  0
 25 24  2  0
 26 25  1  0
 27 28  1  0
 27 26  1  6
 28 19  1  0
 29 27  1  0
 30 29  2  0
 31 32  2  0
 31 25  1  0
 32 22  1  0
 33 29  1  0
M  END
$$$$
