YNY.pdb
     RDKit          3D

 33 34  0  0  1  0  0  0  0  0999 V2000
    7.4701  -18.2660   12.2671 O   0  0  0  0  0  0  0  0  0  0  0  0
    8.5222  -18.1782   13.1746 C   0  0  0  0  0  0  0  0  0  0  0  0
    8.6539  -19.1335   14.1475 C   0  0  0  0  0  0  0  0  0  0  0  0
    9.6625  -19.1158   15.0810 C   0  0  0  0  0  0  0  0  0  0  0  0
   10.5735  -18.0583   14.9991 C   0  0  0  0  0  0  0  0  0  0  0  0
   11.6473  -17.9834   16.0313 C   0  0  0  0  0  0  0  0  0  0  0  0
   11.0522  -17.2968   17.2513 C   0  0  2  0  0  0  0  0  0  0  0  0
   10.5603  -15.9845   16.8281 N   0  0  0  0  0  0  0  0  0  0  0  0
   12.0051  -17.1417   18.3521 C   0  0  0  0  0  0  0  0  0  0  0  0
   12.5071  -18.1448   18.9445 O   0  0  0  0  0  0  0  0  0  0  0  0
   10.4862  -17.0698   14.0361 C   0  0  0  0  0  0  0  0  0  0  0  0
    9.4376  -17.1440   13.1170 C   0  0  0  0  0  0  0  0  0  0  0  0
   14.8626  -13.4931   17.6129 N   0  0  0  0  0  0  0  0  0  0  0  0
   14.9930  -14.5017   18.5940 C   0  0  0  0  0  0  0  0  0  0  0  0
   15.7868  -15.4466   18.4514 O   0  0  0  0  0  0  0  0  0  0  0  0
   14.1760  -14.4432   19.8314 C   0  0  0  0  0  0  0  0  0  0  0  0
   13.2787  -15.6593   19.9754 C   0  0  2  0  0  0  0  0  0  0  0  0
   12.4497  -15.8810   18.8469 N   0  0  0  0  0  0  0  0  0  0  0  0
   12.5599  -15.5243   21.2615 C   0  0  0  0  0  0  0  0  0  0  0  0
   13.0933  -14.9930   22.2759 O   0  0  0  0  0  0  0  0  0  0  0  0
    8.3243  -11.9115   17.9898 O   0  0  0  0  0  0  0  0  0  0  0  0
    8.5161  -12.7626   19.0666 C   0  0  0  0  0  0  0  0  0  0  0  0
    9.5124  -12.5565   20.0024 C   0  0  0  0  0  0  0  0  0  0  0  0
    9.6771  -13.4372   21.0828 C   0  0  0  0  0  0  0  0  0  0  0  0
    8.8431  -14.5272   21.2304 C   0  0  0  0  0  0  0  0  0  0  0  0
    9.0071  -15.4614   22.3469 C   0  0  0  0  0  0  0  0  0  0  0  0
   10.4316  -15.7692   22.6337 C   0  0  2  0  0  0  0  0  0  0  0  0
   11.2263  -15.9822   21.4473 N   0  0  0  0  0  0  0  0  0  0  0  0
   10.6169  -16.8952   23.5322 C   0  0  0  0  0  0  0  0  0  0  0  0
   10.1376  -16.9322   24.7125 O   0  0  0  0  0  0  0  0  0  0  0  0
    7.8525  -14.7043   20.2706 C   0  0  0  0  0  0  0  0  0  0  0  0
    7.6795  -13.8516   19.2077 C   0  0  0  0  0  0  0  0  0  0  0  0
   11.3514  -18.0306   23.1421 O   0  0  0  0  0  0  0  0  0  0  0  0
  2 12  2  0
  2  1  1  0
  3  2  1  0
  4  5  1  0
  4  3  2  0
  5 11  2  0
  6  5  1  0
  7  6  1  0
  7  8  1  6
  9  7  1  0
  9 10  2  0
 11 12  1  0
 13 14  1  0
 14 15  2  0
 16 14  1  0
 17 16  1  6
 17 18  1  0
 18  9  1  0
 19 20  2  0
 19 17  1  0
 22 21  1  0
 22 23  2  0
 24 23  1  0
 25 24  2  0
 26 25  1  0
 27 28  1  0
 27 26  1  6
 28 19  1  0
 29 27  1  0
 30 29  2  0
 31 32  2  0
 31 25  1  0
 32 22  1  0
 33 29  1  0
M  END
$$$$
