YNY.pdb
     RDKit          3D

 33 34  0  0  1  0  0  0  0  0999 V2000
    8.4427  -12.9916   16.1901 O   0  0  0  0  0  0  0  0  0  0  0  0
    8.0501  -13.4949   17.4274 C   0  0  0  0  0  0  0  0  0  0  0  0
    8.2668  -12.7506   18.5567 C   0  0  0  0  0  0  0  0  0  0  0  0
    7.9110  -13.1780   19.8136 C   0  0  0  0  0  0  0  0  0  0  0  0
    7.3038  -14.4346   19.8995 C   0  0  0  0  0  0  0  0  0  0  0  0
    6.9553  -14.9478   21.2557 C   0  0  0  0  0  0  0  0  0  0  0  0
    8.2619  -15.2705   21.9645 C   0  0  2  0  0  0  0  0  0  0  0  0
    8.9732  -16.2632   21.1573 N   0  0  0  0  0  0  0  0  0  0  0  0
    8.0739  -15.7758   23.3259 C   0  0  0  0  0  0  0  0  0  0  0  0
    7.5456  -15.0640   24.2332 O   0  0  0  0  0  0  0  0  0  0  0  0
    7.0613  -15.2245   18.7907 C   0  0  0  0  0  0  0  0  0  0  0  0
    7.4474  -14.7337   17.5418 C   0  0  0  0  0  0  0  0  0  0  0  0
    6.6332  -19.6397   27.1380 N   0  0  0  0  0  0  0  0  0  0  0  0
    7.8839  -19.5944   26.4818 C   0  0  0  0  0  0  0  0  0  0  0  0
    8.9232  -19.9856   27.0386 O   0  0  0  0  0  0  0  0  0  0  0  0
    7.9752  -19.0770   25.0939 C   0  0  0  0  0  0  0  0  0  0  0  0
    8.3607  -17.6090   25.0613 C   0  0  2  0  0  0  0  0  0  0  0  0
    8.4541  -17.0831   23.7480 N   0  0  0  0  0  0  0  0  0  0  0  0
    9.5817  -17.4576   25.8829 C   0  0  0  0  0  0  0  0  0  0  0  0
   10.3145  -18.4417   26.1837 O   0  0  0  0  0  0  0  0  0  0  0  0
    6.4085  -11.1949   25.5093 O   0  0  0  0  0  0  0  0  0  0  0  0
    7.0221  -12.2088   26.2278 C   0  0  0  0  0  0  0  0  0  0  0  0
    8.0876  -11.9721   27.0761 C   0  0  0  0  0  0  0  0  0  0  0  0
    8.6842  -13.0222   27.7912 C   0  0  0  0  0  0  0  0  0  0  0  0
    8.2145  -14.3135   27.6600 C   0  0  0  0  0  0  0  0  0  0  0  0
    8.8315  -15.4225   28.3917 C   0  0  0  0  0  0  0  0  0  0  0  0
   10.1168  -15.8623   27.7912 C   0  0  2  0  0  0  0  0  0  0  0  0
   10.0138  -16.2018   26.3917 N   0  0  0  0  0  0  0  0  0  0  0  0
   10.7450  -16.9650   28.4974 C   0  0  0  0  0  0  0  0  0  0  0  0
   11.0675  -16.9114   29.7293 O   0  0  0  0  0  0  0  0  0  0  0  0
    7.1420  -14.5155   26.7979 C   0  0  0  0  0  0  0  0  0  0  0  0
    6.5484  -13.4982   26.0912 C   0  0  0  0  0  0  0  0  0  0  0  0
   11.0393  -18.1784   27.8478 O   0  0  0  0  0  0  0  0  0  0  0  0
  2 12  2  0
  2  1  1  0
  3  2  1  0
  4  5  1  0
  4  3  2  0
  5 11  2  0
  6  5  1  0
  7  6  1  0
  7  8  1  6
  9  7  1  0
  9 10  2  0
 11 12  1  0
 13 14  1  0
 14 15  2  0
 16 14  1  0
 17 16  1  6
 17 18  1  0
 18  9  1  0
 19 20  2  0
 19 17  1  0
 22 21  1  0
 22 23  2  0
 24 23  1  0
 25 24  2  0
 26 25  1  0
 27 28  1  0
 27 26  1  1
 28 19  1  0
 29 27  1  0
 30 29  2  0
 31 32  2  0
 31 25  1  0
 32 22  1  0
 33 29  1  0
M  END
$$$$
