YNY.pdb
     RDKit          3D

 33 34  0  0  1  0  0  0  0  0999 V2000
    7.7772  -12.1133   17.1286 O   0  0  0  0  0  0  0  0  0  0  0  0
    7.7419  -12.7322   18.3753 C   0  0  0  0  0  0  0  0  0  0  0  0
    8.9160  -12.9970   19.0293 C   0  0  0  0  0  0  0  0  0  0  0  0
    8.9652  -13.6067   20.2600 C   0  0  0  0  0  0  0  0  0  0  0  0
    7.7398  -13.9566   20.8354 C   0  0  0  0  0  0  0  0  0  0  0  0
    7.7643  -14.6676   22.1461 C   0  0  0  0  0  0  0  0  0  0  0  0
    8.2084  -16.0970   21.8747 C   0  0  2  0  0  0  0  0  0  0  0  0
    7.1053  -16.7862   21.2028 N   0  0  0  0  0  0  0  0  0  0  0  0
    8.5887  -16.8261   23.0862 C   0  0  0  0  0  0  0  0  0  0  0  0
    7.7191  -17.2896   23.8849 O   0  0  0  0  0  0  0  0  0  0  0  0
    6.5272  -13.7103   20.2180 C   0  0  0  0  0  0  0  0  0  0  0  0
    6.5450  -13.0887   18.9678 C   0  0  0  0  0  0  0  0  0  0  0  0
   11.3650  -20.5985   26.0802 N   0  0  0  0  0  0  0  0  0  0  0  0
   11.9293  -19.3631   25.6902 C   0  0  0  0  0  0  0  0  0  0  0  0
   12.7938  -18.7980   26.3806 O   0  0  0  0  0  0  0  0  0  0  0  0
   11.4958  -18.7151   24.4275 C   0  0  0  0  0  0  0  0  0  0  0  0
   10.3732  -17.7196   24.6584 C   0  0  2  0  0  0  0  0  0  0  0  0
    9.9377  -17.0804   23.4703 N   0  0  0  0  0  0  0  0  0  0  0  0
   10.8126  -16.8046   25.7348 C   0  0  0  0  0  0  0  0  0  0  0  0
   11.6997  -15.9250   25.5474 O   0  0  0  0  0  0  0  0  0  0  0  0
    6.1669  -12.4261   25.0896 O   0  0  0  0  0  0  0  0  0  0  0  0
    6.9744  -13.1128   25.9825 C   0  0  0  0  0  0  0  0  0  0  0  0
    8.2046  -12.6295   26.3875 C   0  0  0  0  0  0  0  0  0  0  0  0
    8.9962  -13.3497   27.2958 C   0  0  0  0  0  0  0  0  0  0  0  0
    8.5574  -14.5563   27.8027 C   0  0  0  0  0  0  0  0  0  0  0  0
    9.3751  -15.3252   28.7442 C   0  0  0  0  0  0  0  0  0  0  0  0
   10.5792  -15.9178   28.1080 C   0  0  2  0  0  0  0  0  0  0  0  0
   10.2730  -16.8511   27.0499 N   0  0  0  0  0  0  0  0  0  0  0  0
   11.4841  -16.5543   29.0490 C   0  0  0  0  0  0  0  0  0  0  0  0
   11.9623  -15.9585   30.0692 O   0  0  0  0  0  0  0  0  0  0  0  0
    7.3158  -15.0126   27.3733 C   0  0  0  0  0  0  0  0  0  0  0  0
    6.5304  -14.3195   26.4848 C   0  0  0  0  0  0  0  0  0  0  0  0
   11.8924  -17.8910   28.8831 O   0  0  0  0  0  0  0  0  0  0  0  0
  2 12  2  0
  2  1  1  0
  3  2  1  0
  4  5  1  0
  4  3  2  0
  5 11  2  0
  6  5  1  0
  7  6  1  0
  7  8  1  1
  9  7  1  0
  9 10  2  0
 11 12  1  0
 13 14  1  0
 14 15  2  0
 16 14  1  0
 17 16  1  6
 17 18  1  0
 18  9  1  0
 19 20  2  0
 19 17  1  0
 22 21  1  0
 22 23  2  0
 24 23  1  0
 25 24  2  0
 26 25  1  0
 27 28  1  0
 27 26  1  1
 28 19  1  0
 29 27  1  0
 30 29  2  0
 31 32  2  0
 31 25  1  0
 32 22  1  0
 33 29  1  0
M  END
$$$$
