YNY.pdb
     RDKit          3D

 33 34  0  0  1  0  0  0  0  0999 V2000
    7.0366  -11.8028   16.4525 O   0  0  0  0  0  0  0  0  0  0  0  0
    7.2009  -12.7251   17.4823 C   0  0  0  0  0  0  0  0  0  0  0  0
    6.1119  -13.1184   18.2143 C   0  0  0  0  0  0  0  0  0  0  0  0
    6.1918  -14.0215   19.2472 C   0  0  0  0  0  0  0  0  0  0  0  0
    7.4598  -14.5379   19.5313 C   0  0  0  0  0  0  0  0  0  0  0  0
    7.5862  -15.4792   20.6810 C   0  0  0  0  0  0  0  0  0  0  0  0
    8.0041  -16.8279   20.1150 C   0  0  2  0  0  0  0  0  0  0  0  0
    6.7888  -17.6125   19.8902 N   0  0  0  0  0  0  0  0  0  0  0  0
    8.9200  -17.5648   20.9880 C   0  0  0  0  0  0  0  0  0  0  0  0
    8.5006  -18.2285   21.9843 O   0  0  0  0  0  0  0  0  0  0  0  0
    8.5902  -14.1751   18.8221 C   0  0  0  0  0  0  0  0  0  0  0  0
    8.4425  -13.2522   17.7848 C   0  0  0  0  0  0  0  0  0  0  0  0
   13.6373  -20.3359   22.2600 N   0  0  0  0  0  0  0  0  0  0  0  0
   13.6116  -18.9372   22.0602 C   0  0  0  0  0  0  0  0  0  0  0  0
   14.3814  -18.1800   22.6744 O   0  0  0  0  0  0  0  0  0  0  0  0
   12.6544  -18.3433   21.0942 C   0  0  0  0  0  0  0  0  0  0  0  0
   11.2916  -18.1072   21.7200 C   0  0  2  0  0  0  0  0  0  0  0  0
   10.3327  -17.6074   20.8031 N   0  0  0  0  0  0  0  0  0  0  0  0
   11.5000  -17.2716   22.9230 C   0  0  0  0  0  0  0  0  0  0  0  0
   11.9310  -16.0864   22.8505 O   0  0  0  0  0  0  0  0  0  0  0  0
   10.6587  -14.2068   31.1759 O   0  0  0  0  0  0  0  0  0  0  0  0
   10.5123  -14.8583   29.9614 C   0  0  0  0  0  0  0  0  0  0  0  0
   10.1135  -14.1993   28.8135 C   0  0  0  0  0  0  0  0  0  0  0  0
    9.9778  -14.8894   27.5988 C   0  0  0  0  0  0  0  0  0  0  0  0
   10.2425  -16.2424   27.5295 C   0  0  0  0  0  0  0  0  0  0  0  0
   10.0969  -16.9798   26.2720 C   0  0  0  0  0  0  0  0  0  0  0  0
   11.3269  -16.9452   25.4402 C   0  0  2  0  0  0  0  0  0  0  0  0
   11.2340  -17.7408   24.2391 N   0  0  0  0  0  0  0  0  0  0  0  0
   12.5307  -17.3205   26.1609 C   0  0  0  0  0  0  0  0  0  0  0  0
   12.8611  -18.5309   26.3850 O   0  0  0  0  0  0  0  0  0  0  0  0
   10.6407  -16.8734   28.7031 C   0  0  0  0  0  0  0  0  0  0  0  0
   10.7773  -16.2116   29.8991 C   0  0  0  0  0  0  0  0  0  0  0  0
   13.4170  -16.3492   26.6628 O   0  0  0  0  0  0  0  0  0  0  0  0
  2 12  2  0
  2  1  1  0
  3  2  1  0
  4  5  1  0
  4  3  2  0
  5 11  2  0
  6  5  1  0
  7  6  1  0
  7  8  1  1
  9  7  1  0
  9 10  2  0
 11 12  1  0
 13 14  1  0
 14 15  2  0
 16 14  1  0
 17 16  1  6
 17 18  1  0
 18  9  1  0
 19 20  2  0
 19 17  1  0
 22 21  1  0
 22 23  2  0
 24 23  1  0
 25 24  2  0
 26 25  1  0
 27 28  1  0
 27 26  1  1
 28 19  1  0
 29 27  1  0
 30 29  2  0
 31 32  2  0
 31 25  1  0
 32 22  1  0
 33 29  1  0
M  END
$$$$
