YNY.pdb
     RDKit          3D

 33 34  0  0  1  0  0  0  0  0999 V2000
    7.4203  -12.5083   16.7951 O   0  0  0  0  0  0  0  0  0  0  0  0
    7.3091  -13.2068   17.9942 C   0  0  0  0  0  0  0  0  0  0  0  0
    7.8371  -12.6693   19.1382 C   0  0  0  0  0  0  0  0  0  0  0  0
    7.7707  -13.2972   20.3590 C   0  0  0  0  0  0  0  0  0  0  0  0
    7.1275  -14.5383   20.3912 C   0  0  0  0  0  0  0  0  0  0  0  0
    7.0872  -15.2675   21.6914 C   0  0  0  0  0  0  0  0  0  0  0  0
    8.5063  -15.2916   22.2386 C   0  0  2  0  0  0  0  0  0  0  0  0
    9.3669  -15.8929   21.2183 N   0  0  0  0  0  0  0  0  0  0  0  0
    8.6308  -16.0312   23.4961 C   0  0  0  0  0  0  0  0  0  0  0  0
    7.8196  -15.8549   24.4553 O   0  0  0  0  0  0  0  0  0  0  0  0
    6.5767  -15.1236   19.2660 C   0  0  0  0  0  0  0  0  0  0  0  0
    6.6782  -14.4352   18.0554 C   0  0  0  0  0  0  0  0  0  0  0  0
    9.1486  -20.2366   23.5913 N   0  0  0  0  0  0  0  0  0  0  0  0
   10.4720  -19.7550   23.7080 C   0  0  0  0  0  0  0  0  0  0  0  0
   11.3499  -20.0649   22.8855 O   0  0  0  0  0  0  0  0  0  0  0  0
   10.8371  -18.8529   24.8282 C   0  0  0  0  0  0  0  0  0  0  0  0
    9.8613  -17.6982   24.9664 C   0  0  2  0  0  0  0  0  0  0  0  0
    9.6472  -16.9970   23.7529 N   0  0  0  0  0  0  0  0  0  0  0  0
   10.3260  -16.8637   26.0962 C   0  0  0  0  0  0  0  0  0  0  0  0
   11.4000  -16.2007   26.0436 O   0  0  0  0  0  0  0  0  0  0  0  0
    7.6773  -11.5499   24.5353 O   0  0  0  0  0  0  0  0  0  0  0  0
    8.0475  -12.3601   25.5970 C   0  0  0  0  0  0  0  0  0  0  0  0
    9.2541  -12.2099   26.2547 C   0  0  0  0  0  0  0  0  0  0  0  0
    9.5965  -13.0464   27.3285 C   0  0  0  0  0  0  0  0  0  0  0  0
    8.7304  -14.0359   27.7483 C   0  0  0  0  0  0  0  0  0  0  0  0
    9.0760  -14.9236   28.8612 C   0  0  0  0  0  0  0  0  0  0  0  0
   10.0289  -15.9930   28.4682 C   0  0  2  0  0  0  0  0  0  0  0  0
    9.6028  -16.7509   27.3156 N   0  0  0  0  0  0  0  0  0  0  0  0
   10.3501  -16.9142   29.5442 C   0  0  0  0  0  0  0  0  0  0  0  0
   10.8284  -16.5391   30.6644 O   0  0  0  0  0  0  0  0  0  0  0  0
    7.5260  -14.1591   27.0639 C   0  0  0  0  0  0  0  0  0  0  0  0
    7.1774  -13.3485   26.0112 C   0  0  0  0  0  0  0  0  0  0  0  0
   10.1478  -18.3002   29.4069 O   0  0  0  0  0  0  0  0  0  0  0  0
  2 12  2  0
  2  1  1  0
  3  2  1  0
  4  5  1  0
  4  3  2  0
  5 11  2  0
  6  5  1  0
  7  6  1  0
  7  8  1  6
  9  7  1  0
  9 10  2  0
 11 12  1  0
 13 14  1  0
 14 15  2  0
 16 14  1  0
 17 16  1  6
 17 18  1  0
 18  9  1  0
 19 20  2  0
 19 17  1  0
 22 21  1  0
 22 23  2  0
 24 23  1  0
 25 24  2  0
 26 25  1  0
 27 28  1  0
 27 26  1  1
 28 19  1  0
 29 27  1  0
 30 29  2  0
 31 32  2  0
 31 25  1  0
 32 22  1  0
 33 29  1  0
M  END
$$$$
