YNY.pdb
     RDKit          3D

 33 34  0  0  1  0  0  0  0  0999 V2000
    9.3158  -11.9797   19.2066 O   0  0  0  0  0  0  0  0  0  0  0  0
    8.5785  -13.0594   19.6851 C   0  0  0  0  0  0  0  0  0  0  0  0
    8.0399  -13.0025   20.9434 C   0  0  0  0  0  0  0  0  0  0  0  0
    7.3029  -14.0267   21.4881 C   0  0  0  0  0  0  0  0  0  0  0  0
    7.1183  -15.1595   20.6895 C   0  0  0  0  0  0  0  0  0  0  0  0
    6.3681  -16.3082   21.2740 C   0  0  0  0  0  0  0  0  0  0  0  0
    6.7617  -16.4038   22.7403 C   0  0  2  0  0  0  0  0  0  0  0  0
    7.0126  -15.0449   23.2236 N   0  0  0  0  0  0  0  0  0  0  0  0
    7.9401  -17.2415   22.9712 C   0  0  0  0  0  0  0  0  0  0  0  0
    8.1968  -18.2457   22.2399 O   0  0  0  0  0  0  0  0  0  0  0  0
    7.6392  -15.2666   19.4130 C   0  0  0  0  0  0  0  0  0  0  0  0
    8.3798  -14.1916   18.9174 C   0  0  0  0  0  0  0  0  0  0  0  0
   11.4039  -19.4152   21.4069 N   0  0  0  0  0  0  0  0  0  0  0  0
   11.7930  -18.5083   22.4184 C   0  0  0  0  0  0  0  0  0  0  0  0
   12.8385  -18.6718   23.0690 O   0  0  0  0  0  0  0  0  0  0  0  0
   10.9489  -17.3253   22.7189 C   0  0  0  0  0  0  0  0  0  0  0  0
   10.2300  -17.4659   24.0486 C   0  0  2  0  0  0  0  0  0  0  0  0
    8.8877  -17.0112   24.0109 N   0  0  0  0  0  0  0  0  0  0  0  0
   11.0785  -16.8230   25.0761 C   0  0  0  0  0  0  0  0  0  0  0  0
   12.2534  -17.2181   25.3195 O   0  0  0  0  0  0  0  0  0  0  0  0
    6.7115  -10.6671   25.4182 O   0  0  0  0  0  0  0  0  0  0  0  0
    7.2028  -11.8877   25.8534 C   0  0  0  0  0  0  0  0  0  0  0  0
    8.5541  -12.1790   25.8622 C   0  0  0  0  0  0  0  0  0  0  0  0
    9.0180  -13.4250   26.3122 C   0  0  0  0  0  0  0  0  0  0  0  0
    8.1295  -14.3835   26.7563 C   0  0  0  0  0  0  0  0  0  0  0  0
    8.5959  -15.6923   27.2205 C   0  0  0  0  0  0  0  0  0  0  0  0
   10.0753  -15.8195   27.1879 C   0  0  2  0  0  0  0  0  0  0  0  0
   10.6340  -15.7227   25.8601 N   0  0  0  0  0  0  0  0  0  0  0  0
   10.5722  -17.0290   27.8200 C   0  0  0  0  0  0  0  0  0  0  0  0
   10.3290  -18.1987   27.3762 O   0  0  0  0  0  0  0  0  0  0  0  0
    6.7778  -14.0570   26.7331 C   0  0  0  0  0  0  0  0  0  0  0  0
    6.3089  -12.8424   26.2951 C   0  0  0  0  0  0  0  0  0  0  0  0
   11.3653  -16.9760   28.9815 O   0  0  0  0  0  0  0  0  0  0  0  0
  2 12  2  0
  2  1  1  0
  3  2  1  0
  4  5  1  0
  4  3  2  0
  5 11  2  0
  6  5  1  0
  7  6  1  0
  7  8  1  6
  9  7  1  0
  9 10  2  0
 11 12  1  0
 13 14  1  0
 14 15  2  0
 16 14  1  0
 17 16  1  6
 17 18  1  0
 18  9  1  0
 19 20  2  0
 19 17  1  0
 22 21  1  0
 22 23  2  0
 24 23  1  0
 25 24  2  0
 26 25  1  0
 27 28  1  0
 27 26  1  6
 28 19  1  0
 29 27  1  0
 30 29  2  0
 31 32  2  0
 31 25  1  0
 32 22  1  0
 33 29  1  0
M  END
$$$$
