YNY.pdb
     RDKit          3D

 33 34  0  0  1  0  0  0  0  0999 V2000
    8.0308  -11.9466   17.5425 O   0  0  0  0  0  0  0  0  0  0  0  0
    7.9744  -12.7413   18.6842 C   0  0  0  0  0  0  0  0  0  0  0  0
    6.9597  -13.6511   18.8221 C   0  0  0  0  0  0  0  0  0  0  0  0
    6.8331  -14.4694   19.9190 C   0  0  0  0  0  0  0  0  0  0  0  0
    7.8041  -14.3353   20.9162 C   0  0  0  0  0  0  0  0  0  0  0  0
    7.6625  -15.1722   22.1424 C   0  0  0  0  0  0  0  0  0  0  0  0
    8.4983  -16.4255   21.9312 C   0  0  2  0  0  0  0  0  0  0  0  0
    8.0204  -17.0792   20.7115 N   0  0  0  0  0  0  0  0  0  0  0  0
    8.4361  -17.3606   23.0561 C   0  0  0  0  0  0  0  0  0  0  0  0
    7.7979  -18.4541   22.9785 O   0  0  0  0  0  0  0  0  0  0  0  0
    8.8488  -13.4339   20.8251 C   0  0  0  0  0  0  0  0  0  0  0  0
    8.9209  -12.6303   19.6856 C   0  0  0  0  0  0  0  0  0  0  0  0
   13.7607  -18.4187   24.1479 N   0  0  0  0  0  0  0  0  0  0  0  0
   12.4236  -18.8321   24.3430 C   0  0  0  0  0  0  0  0  0  0  0  0
   12.1504  -19.8725   24.9643 O   0  0  0  0  0  0  0  0  0  0  0  0
   11.3082  -18.0137   23.8061 C   0  0  0  0  0  0  0  0  0  0  0  0
   10.1977  -17.8321   24.8251 C   0  0  2  0  0  0  0  0  0  0  0  0
    9.0736  -17.1375   24.3114 N   0  0  0  0  0  0  0  0  0  0  0  0
   10.8047  -17.2311   26.0331 C   0  0  0  0  0  0  0  0  0  0  0  0
   11.7502  -17.7893   26.6578 O   0  0  0  0  0  0  0  0  0  0  0  0
    5.7783  -12.4295   25.3750 O   0  0  0  0  0  0  0  0  0  0  0  0
    6.9719  -12.7671   25.9931 C   0  0  0  0  0  0  0  0  0  0  0  0
    7.3726  -12.1962   27.1866 C   0  0  0  0  0  0  0  0  0  0  0  0
    8.5870  -12.5633   27.7871 C   0  0  0  0  0  0  0  0  0  0  0  0
    9.4040  -13.5049   27.1944 C   0  0  0  0  0  0  0  0  0  0  0  0
   10.6790  -13.8926   27.8028 C   0  0  0  0  0  0  0  0  0  0  0  0
   10.9184  -15.3576   27.7506 C   0  0  2  0  0  0  0  0  0  0  0  0
   10.3683  -15.9909   26.5755 N   0  0  0  0  0  0  0  0  0  0  0  0
   10.4535  -16.0682   28.9289 C   0  0  0  0  0  0  0  0  0  0  0  0
    9.5842  -16.9991   28.8845 O   0  0  0  0  0  0  0  0  0  0  0  0
    8.9703  -14.0581   25.9944 C   0  0  0  0  0  0  0  0  0  0  0  0
    7.7850  -13.7086   25.3947 C   0  0  0  0  0  0  0  0  0  0  0  0
   10.9462  -15.7618   30.2111 O   0  0  0  0  0  0  0  0  0  0  0  0
  2 12  2  0
  2  1  1  0
  3  2  1  0
  4  5  1  0
  4  3  2  0
  5 11  2  0
  6  5  1  0
  7  6  1  0
  7  8  1  6
  9  7  1  0
  9 10  2  0
 11 12  1  0
 13 14  1  0
 14 15  2  0
 16 14  1  0
 17 16  1  6
 17 18  1  0
 18  9  1  0
 19 20  2  0
 19 17  1  0
 22 21  1  0
 22 23  2  0
 24 23  1  0
 25 24  2  0
 26 25  1  0
 27 28  1  0
 27 26  1  1
 28 19  1  0
 29 27  1  0
 30 29  2  0
 31 32  2  0
 31 25  1  0
 32 22  1  0
 33 29  1  0
M  END
$$$$
