HDT.pdb
     RDKit          3D

 26 26  0  0  1  0  0  0  0  0999 V2000
   36.8457   -9.1393   -7.0374 N   0  0  0  0  0  0  0  0  0  0  0  0
   38.1095   -8.6018   -7.4553 C   0  0  1  0  0  0  0  0  0  0  0  0
   38.4882   -7.4352   -6.5729 C   0  0  0  0  0  0  0  0  0  0  0  0
   37.8681   -6.1719   -7.0801 C   0  0  0  0  0  0  0  0  0  0  0  0
   37.0660   -6.0319   -8.1807 C   0  0  0  0  0  0  0  0  0  0  0  0
   36.7222   -4.7401   -8.2872 N   0  0  0  0  0  0  0  0  0  0  0  0
   37.3085   -4.0994   -7.2621 C   0  0  0  0  0  0  0  0  0  0  0  0
   38.0049   -4.9634   -6.5268 N   0  0  0  0  0  0  0  0  0  0  0  0
   39.1795   -9.6521   -7.3226 C   0  0  0  0  0  0  0  0  0  0  0  0
   39.0199  -10.4694   -6.4108 O   0  0  0  0  0  0  0  0  0  0  0  0
   40.2848   -9.6946   -8.1822 N   0  0  0  0  0  0  0  0  0  0  0  0
   41.3823  -10.6102   -8.1864 C   0  0  1  0  0  0  0  0  0  0  0  0
   41.5190  -11.3709   -9.4848 C   0  0  0  0  0  0  0  0  0  0  0  0
   42.6779  -12.2927   -9.3745 C   0  0  0  0  0  0  0  0  0  0  0  0
   43.8710  -11.9547   -9.6678 O   0  0  0  0  0  0  0  0  0  0  0  0
   42.6412  -10.1014   -7.6353 C   0  0  0  0  0  0  0  0  0  0  0  0
   43.2058   -9.0423   -8.0876 O   0  0  0  0  0  0  0  0  0  0  0  0
   42.5249  -13.6127   -8.9333 O   0  0  0  0  0  0  0  0  0  0  0  0
   46.0127  -10.0666   -4.0877 C   0  0  0  0  0  0  0  0  0  0  0  0
   44.7430  -10.6990   -4.6477 C   0  0  1  0  0  0  0  0  0  0  0  0
   43.6320  -10.3000   -3.9449 O   0  0  0  0  0  0  0  0  0  0  0  0
   44.5935  -10.1959   -6.0918 C   0  0  2  0  0  0  0  0  0  0  0  0
   43.3408  -10.7260   -6.5650 N   0  0  0  0  0  0  0  0  0  0  0  0
   45.7520  -10.6944   -6.8498 C   0  0  0  0  0  0  0  0  0  0  0  0
   46.6877   -9.9121   -7.1304 O   0  0  0  0  0  0  0  0  0  0  0  0
   45.8483  -12.0063   -7.2682 O   0  0  0  0  0  0  0  0  0  0  0  0
  2  3  1  0
  2  1  1  1
  2  9  1  0
  3  4  1  0
  4  8  1  0
  4  5  2  0
  5  6  1  0
  7  6  1  0
  8  7  2  0
  9 10  2  0
 11  9  1  0
 11 12  1  0
 12 16  1  0
 13 14  1  0
 12 13  1  6
 14 15  2  0
 14 18  1  0
 16 23  1  0
 16 17  2  0
 20 19  1  1
 20 22  1  0
 20 21  1  0
 22 24  1  0
 22 23  1  6
 24 25  2  0
 24 26  1  0
M  END
$$$$
