HDT.pdb
     RDKit          3D

 26 26  0  0  1  0  0  0  0  0999 V2000
   21.2087  -11.6271  -16.4742 N   0  0  0  0  0  0  0  0  0  0  0  0
   21.1922  -10.3554  -17.1398 C   0  0  1  0  0  0  0  0  0  0  0  0
   20.1290  -10.3517  -18.2134 C   0  0  0  0  0  0  0  0  0  0  0  0
   20.4105  -11.4094  -19.2330 C   0  0  0  0  0  0  0  0  0  0  0  0
   21.6381  -11.8083  -19.6891 C   0  0  0  0  0  0  0  0  0  0  0  0
   21.4534  -12.7781  -20.5966 N   0  0  0  0  0  0  0  0  0  0  0  0
   20.1269  -12.9684  -20.6927 C   0  0  0  0  0  0  0  0  0  0  0  0
   19.4896  -12.1406  -19.8675 N   0  0  0  0  0  0  0  0  0  0  0  0
   20.8611   -9.2677  -16.1534 C   0  0  0  0  0  0  0  0  0  0  0  0
   19.8798   -9.4758  -15.4334 O   0  0  0  0  0  0  0  0  0  0  0  0
   21.6220   -8.0949  -16.0627 N   0  0  0  0  0  0  0  0  0  0  0  0
   21.3827   -6.9303  -15.2695 C   0  0  1  0  0  0  0  0  0  0  0  0
   22.6345   -6.3787  -14.6276 C   0  0  0  0  0  0  0  0  0  0  0  0
   22.2701   -5.1791  -13.8318 C   0  0  0  0  0  0  0  0  0  0  0  0
   21.6027   -5.2350  -12.7478 O   0  0  0  0  0  0  0  0  0  0  0  0
   20.4998   -5.9228  -15.8634 C   0  0  0  0  0  0  0  0  0  0  0  0
   20.8277   -5.2608  -16.9120 O   0  0  0  0  0  0  0  0  0  0  0  0
   22.6458   -3.8915  -14.2336 O   0  0  0  0  0  0  0  0  0  0  0  0
   16.8233   -6.0307  -16.9414 C   0  0  0  0  0  0  0  0  0  0  0  0
   16.9844   -4.9721  -15.8555 C   0  0  1  0  0  0  0  0  0  0  0  0
   16.7413   -5.4929  -14.6076 O   0  0  0  0  0  0  0  0  0  0  0  0
   18.4491   -4.5099  -15.8966 C   0  0  2  0  0  0  0  0  0  0  0  0
   19.2187   -5.5923  -15.3396 N   0  0  0  0  0  0  0  0  0  0  0  0
   18.5389   -3.2732  -15.1045 C   0  0  0  0  0  0  0  0  0  0  0  0
   19.1869   -3.2729  -14.0337 O   0  0  0  0  0  0  0  0  0  0  0  0
   17.9295   -2.0997  -15.5007 O   0  0  0  0  0  0  0  0  0  0  0  0
  2  3  1  0
  2  1  1  1
  2  9  1  0
  3  4  1  0
  4  8  1  0
  4  5  2  0
  5  6  1  0
  7  6  1  0
  8  7  2  0
  9 10  2  0
 11  9  1  0
 11 12  1  0
 12 16  1  0
 13 14  1  0
 12 13  1  6
 14 15  2  0
 14 18  1  0
 16 23  1  0
 16 17  2  0
 20 19  1  6
 20 22  1  0
 20 21  1  0
 22 24  1  0
 22 23  1  1
 24 25  2  0
 24 26  1  0
M  END
$$$$
