HDT.pdb
     RDKit          3D

 26 26  0  0  1  0  0  0  0  0999 V2000
   15.5812   -6.9794   -8.2215 N   0  0  0  0  0  0  0  0  0  0  0  0
   15.6065   -7.8433   -9.3676 C   0  0  1  0  0  0  0  0  0  0  0  0
   14.2639   -7.8167  -10.0603 C   0  0  0  0  0  0  0  0  0  0  0  0
   13.2345   -8.5210   -9.2346 C   0  0  0  0  0  0  0  0  0  0  0  0
   12.7517   -9.7879   -9.4246 C   0  0  0  0  0  0  0  0  0  0  0  0
   11.8441  -10.0383   -8.4696 N   0  0  0  0  0  0  0  0  0  0  0  0
   11.7745   -8.9354   -7.7055 C   0  0  0  0  0  0  0  0  0  0  0  0
   12.6159   -8.0119   -8.1652 N   0  0  0  0  0  0  0  0  0  0  0  0
   16.6444   -7.3625  -10.3461 C   0  0  0  0  0  0  0  0  0  0  0  0
   17.0908   -6.2294  -10.1422 O   0  0  0  0  0  0  0  0  0  0  0  0
   17.0729   -8.1550  -11.4188 N   0  0  0  0  0  0  0  0  0  0  0  0
   18.0604   -7.8636  -12.4101 C   0  0  1  0  0  0  0  0  0  0  0  0
   19.0331   -8.9981  -12.6342 C   0  0  0  0  0  0  0  0  0  0  0  0
   20.0778   -8.5456  -13.5874 C   0  0  0  0  0  0  0  0  0  0  0  0
   20.2237   -9.0409  -14.7524 O   0  0  0  0  0  0  0  0  0  0  0  0
   17.5688   -7.2233  -13.6331 C   0  0  0  0  0  0  0  0  0  0  0  0
   16.7835   -7.8243  -14.4500 O   0  0  0  0  0  0  0  0  0  0  0  0
   20.9813   -7.5287  -13.2558 O   0  0  0  0  0  0  0  0  0  0  0  0
   15.4818   -4.2456  -14.2333 C   0  0  0  0  0  0  0  0  0  0  0  0
   16.8281   -3.9742  -14.8963 C   0  0  1  0  0  0  0  0  0  0  0  0
   17.6938   -3.3457  -14.0344 O   0  0  0  0  0  0  0  0  0  0  0  0
   17.4310   -5.3406  -15.2576 C   0  0  2  0  0  0  0  0  0  0  0  0
   17.9122   -5.8976  -14.0197 N   0  0  0  0  0  0  0  0  0  0  0  0
   18.5040   -5.0993  -16.2352 C   0  0  0  0  0  0  0  0  0  0  0  0
   19.6912   -5.3368  -15.9184 O   0  0  0  0  0  0  0  0  0  0  0  0
   18.2493   -4.6158  -17.5028 O   0  0  0  0  0  0  0  0  0  0  0  0
  2  3  1  0
  2  1  1  1
  2  9  1  0
  3  4  1  0
  4  8  1  0
  4  5  2  0
  5  6  1  0
  7  6  1  0
  8  7  2  0
  9 10  2  0
 11  9  1  0
 11 12  1  0
 12 16  1  0
 13 14  1  0
 12 13  1  6
 14 15  2  0
 14 18  1  0
 16 23  1  0
 16 17  2  0
 20 19  1  1
 20 22  1  0
 20 21  1  0
 22 24  1  0
 22 23  1  1
 24 25  2  0
 24 26  1  0
M  END
$$$$
