HDT.pdb
     RDKit          3D

 26 26  0  0  1  0  0  0  0  0999 V2000
   20.6083  -11.7711  -19.3408 N   0  0  0  0  0  0  0  0  0  0  0  0
   21.4853  -11.2426  -18.3347 C   0  0  1  0  0  0  0  0  0  0  0  0
   22.7828  -10.7966  -18.9676 C   0  0  0  0  0  0  0  0  0  0  0  0
   23.5079  -11.9655  -19.5553 C   0  0  0  0  0  0  0  0  0  0  0  0
   23.9274  -12.1083  -20.8507 C   0  0  0  0  0  0  0  0  0  0  0  0
   24.5342  -13.2986  -20.9660 N   0  0  0  0  0  0  0  0  0  0  0  0
   24.4851  -13.8753  -19.7535 C   0  0  0  0  0  0  0  0  0  0  0  0
   23.8635  -13.0707  -18.8941 N   0  0  0  0  0  0  0  0  0  0  0  0
   20.8497  -10.0442  -17.6824 C   0  0  0  0  0  0  0  0  0  0  0  0
   20.5068   -9.1359  -18.4455 O   0  0  0  0  0  0  0  0  0  0  0  0
   20.6618   -9.9694  -16.2962 N   0  0  0  0  0  0  0  0  0  0  0  0
   20.1427   -8.8880  -15.5191 C   0  0  1  0  0  0  0  0  0  0  0  0
   19.2269   -9.3401  -14.4054 C   0  0  0  0  0  0  0  0  0  0  0  0
   18.0634  -10.0423  -15.0039 C   0  0  0  0  0  0  0  0  0  0  0  0
   17.3675   -9.5578  -15.9551 O   0  0  0  0  0  0  0  0  0  0  0  0
   21.1074   -7.8520  -15.1408 C   0  0  0  0  0  0  0  0  0  0  0  0
   22.0916   -8.0904  -14.3535 O   0  0  0  0  0  0  0  0  0  0  0  0
   17.6547  -11.3020  -14.5495 O   0  0  0  0  0  0  0  0  0  0  0  0
   23.0711   -5.5979  -17.4178 C   0  0  0  0  0  0  0  0  0  0  0  0
   22.3241   -4.6932  -16.4435 C   0  0  1  0  0  0  0  0  0  0  0  0
   21.1265   -4.2716  -16.9684 O   0  0  0  0  0  0  0  0  0  0  0  0
   22.0213   -5.5359  -15.1948 C   0  0  2  0  0  0  0  0  0  0  0  0
   21.0415   -6.5084  -15.6049 N   0  0  0  0  0  0  0  0  0  0  0  0
   21.5218   -4.6175  -14.1593 C   0  0  0  0  0  0  0  0  0  0  0  0
   20.3308   -4.7014  -13.7838 O   0  0  0  0  0  0  0  0  0  0  0  0
   22.3245   -3.6561  -13.5791 O   0  0  0  0  0  0  0  0  0  0  0  0
  2  3  1  0
  2  1  1  6
  2  9  1  0
  3  4  1  0
  4  8  1  0
  4  5  2  0
  5  6  1  0
  7  6  1  0
  8  7  2  0
  9 10  2  0
 11  9  1  0
 11 12  1  0
 12 16  1  0
 13 14  1  0
 12 13  1  1
 14 15  2  0
 14 18  1  0
 16 23  1  0
 16 17  2  0
 20 19  1  6
 20 22  1  0
 20 21  1  0
 22 24  1  0
 22 23  1  6
 24 25  2  0
 24 26  1  0
M  END
$$$$
