HDT.pdb
     RDKit          3D

 26 26  0  0  1  0  0  0  0  0999 V2000
   17.7878  -12.4280  -15.1483 N   0  0  0  0  0  0  0  0  0  0  0  0
   16.6252  -11.6244  -14.8964 C   0  0  1  0  0  0  0  0  0  0  0  0
   15.6604  -12.3803  -14.0128 C   0  0  0  0  0  0  0  0  0  0  0  0
   15.0605  -13.5311  -14.7566 C   0  0  0  0  0  0  0  0  0  0  0  0
   15.3681  -14.8571  -14.6100 C   0  0  0  0  0  0  0  0  0  0  0  0
   14.6075  -15.5605  -15.4616 N   0  0  0  0  0  0  0  0  0  0  0  0
   13.8443  -14.6725  -16.1203 C   0  0  0  0  0  0  0  0  0  0  0  0
   14.1152  -13.4399  -15.6965 N   0  0  0  0  0  0  0  0  0  0  0  0
   17.0230  -10.3627  -14.1783 C   0  0  0  0  0  0  0  0  0  0  0  0
   17.7758  -10.5099  -13.2106 O   0  0  0  0  0  0  0  0  0  0  0  0
   16.5648   -9.1035  -14.5866 N   0  0  0  0  0  0  0  0  0  0  0  0
   16.8175   -7.8245  -14.0010 C   0  0  1  0  0  0  0  0  0  0  0  0
   17.1758   -6.7643  -15.0164 C   0  0  0  0  0  0  0  0  0  0  0  0
   17.5336   -5.5173  -14.2937 C   0  0  0  0  0  0  0  0  0  0  0  0
   18.5679   -5.4075  -13.5578 O   0  0  0  0  0  0  0  0  0  0  0  0
   15.8686   -7.3945  -12.9705 C   0  0  0  0  0  0  0  0  0  0  0  0
   14.6057   -7.3365  -13.1869 O   0  0  0  0  0  0  0  0  0  0  0  0
   16.7400   -4.3670  -14.3803 O   0  0  0  0  0  0  0  0  0  0  0  0
   15.5239   -8.5244   -9.2708 C   0  0  0  0  0  0  0  0  0  0  0  0
   15.7714   -7.0207   -9.3309 C   0  0  1  0  0  0  0  0  0  0  0  0
   17.1107   -6.7289   -9.2371 O   0  0  0  0  0  0  0  0  0  0  0  0
   15.2796   -6.5422  -10.7057 C   0  0  2  0  0  0  0  0  0  0  0  0
   16.2555   -7.0086  -11.6566 N   0  0  0  0  0  0  0  0  0  0  0  0
   15.1869   -5.0747  -10.6495 C   0  0  0  0  0  0  0  0  0  0  0  0
   15.9947   -4.3806  -11.3067 O   0  0  0  0  0  0  0  0  0  0  0  0
   14.2328   -4.4263   -9.8915 O   0  0  0  0  0  0  0  0  0  0  0  0
  2  3  1  0
  2  1  1  1
  2  9  1  0
  3  4  1  0
  4  8  1  0
  4  5  2  0
  5  6  1  0
  7  6  1  0
  8  7  2  0
  9 10  2  0
 11  9  1  0
 11 12  1  0
 12 16  1  0
 13 14  1  0
 12 13  1  6
 14 15  2  0
 14 18  1  0
 16 23  1  0
 16 17  2  0
 20 19  1  6
 20 22  1  0
 20 21  1  0
 22 24  1  0
 22 23  1  6
 24 25  2  0
 24 26  1  0
M  END
$$$$
