HDT.pdb
     RDKit          3D

 26 26  0  0  1  0  0  0  0  0999 V2000
   17.8681  -12.0480  -18.0164 N   0  0  0  0  0  0  0  0  0  0  0  0
   18.2119  -11.5669  -16.7084 C   0  0  1  0  0  0  0  0  0  0  0  0
   19.4602  -12.2624  -16.2175 C   0  0  0  0  0  0  0  0  0  0  0  0
   19.2305  -13.7365  -16.1094 C   0  0  0  0  0  0  0  0  0  0  0  0
   18.4052  -14.3792  -15.2262 C   0  0  0  0  0  0  0  0  0  0  0  0
   18.4867  -15.6973  -15.4594 N   0  0  0  0  0  0  0  0  0  0  0  0
   19.3528  -15.8563  -16.4741 C   0  0  0  0  0  0  0  0  0  0  0  0
   19.8069  -14.6699  -16.8722 N   0  0  0  0  0  0  0  0  0  0  0  0
   18.4945  -10.0896  -16.7663 C   0  0  0  0  0  0  0  0  0  0  0  0
   18.9495   -9.6710  -17.8352 O   0  0  0  0  0  0  0  0  0  0  0  0
   18.2547   -9.2473  -15.6729 N   0  0  0  0  0  0  0  0  0  0  0  0
   18.4210   -7.8309  -15.5791 C   0  0  1  0  0  0  0  0  0  0  0  0
   17.1304   -7.0964  -15.2993 C   0  0  0  0  0  0  0  0  0  0  0  0
   17.4128   -5.6390  -15.2621 C   0  0  0  0  0  0  0  0  0  0  0  0
   17.8411   -4.9835  -16.2673 O   0  0  0  0  0  0  0  0  0  0  0  0
   19.5724   -7.3728  -14.7968 C   0  0  0  0  0  0  0  0  0  0  0  0
   19.7365   -7.7009  -13.5678 O   0  0  0  0  0  0  0  0  0  0  0  0
   17.2213   -4.8851  -14.0978 O   0  0  0  0  0  0  0  0  0  0  0  0
   23.1851   -7.8998  -15.4914 C   0  0  0  0  0  0  0  0  0  0  0  0
   22.9664   -6.3928  -15.4086 C   0  0  1  0  0  0  0  0  0  0  0  0
   22.6965   -5.8567  -16.6444 O   0  0  0  0  0  0  0  0  0  0  0  0
   21.7346   -6.1689  -14.5179 C   0  0  2  0  0  0  0  0  0  0  0  0
   20.5969   -6.5359  -15.3210 N   0  0  0  0  0  0  0  0  0  0  0  0
   21.7299   -4.7500  -14.1282 C   0  0  0  0  0  0  0  0  0  0  0  0
   20.8276   -3.9961  -14.5571 O   0  0  0  0  0  0  0  0  0  0  0  0
   22.6928   -4.2116  -13.2986 O   0  0  0  0  0  0  0  0  0  0  0  0
  2  3  1  0
  2  1  1  6
  2  9  1  0
  3  4  1  0
  4  8  1  0
  4  5  2  0
  5  6  1  0
  7  6  1  0
  8  7  2  0
  9 10  2  0
 11  9  1  0
 11 12  1  0
 12 16  1  0
 13 14  1  0
 12 13  1  1
 14 15  2  0
 14 18  1  0
 16 23  1  0
 16 17  2  0
 20 19  1  6
 20 22  1  0
 20 21  1  0
 22 24  1  0
 22 23  1  6
 24 25  2  0
 24 26  1  0
M  END
$$$$
