HDT.pdb
     RDKit          3D

 26 26  0  0  1  0  0  0  0  0999 V2000
   19.0083  -14.2074  -18.0783 N   0  0  0  0  0  0  0  0  0  0  0  0
   18.2777  -13.4353  -17.1136 C   0  0  1  0  0  0  0  0  0  0  0  0
   18.5351  -13.9726  -15.7250 C   0  0  0  0  0  0  0  0  0  0  0  0
   18.0173  -15.3703  -15.5999 C   0  0  0  0  0  0  0  0  0  0  0  0
   16.7261  -15.7895  -15.7765 C   0  0  0  0  0  0  0  0  0  0  0  0
   16.6838  -17.1143  -15.5726 N   0  0  0  0  0  0  0  0  0  0  0  0
   17.9363  -17.4986  -15.2748 C   0  0  0  0  0  0  0  0  0  0  0  0
   18.7492  -16.4444  -15.2900 N   0  0  0  0  0  0  0  0  0  0  0  0
   18.7393  -12.0031  -17.1512 C   0  0  0  0  0  0  0  0  0  0  0  0
   19.9391  -11.8313  -17.3875 O   0  0  0  0  0  0  0  0  0  0  0  0
   17.8585  -10.9361  -16.9311 N   0  0  0  0  0  0  0  0  0  0  0  0
   18.1202   -9.5321  -16.9851 C   0  0  1  0  0  0  0  0  0  0  0  0
   16.9161   -8.7167  -17.3956 C   0  0  0  0  0  0  0  0  0  0  0  0
   16.5188   -9.1164  -18.7695 C   0  0  0  0  0  0  0  0  0  0  0  0
   17.0946   -8.6800  -19.8191 O   0  0  0  0  0  0  0  0  0  0  0  0
   18.8837   -8.9806  -15.8625 C   0  0  0  0  0  0  0  0  0  0  0  0
   18.4926   -9.1000  -14.6468 O   0  0  0  0  0  0  0  0  0  0  0  0
   15.4681  -10.0135  -18.9966 O   0  0  0  0  0  0  0  0  0  0  0  0
   22.6190   -9.3459  -15.0450 C   0  0  0  0  0  0  0  0  0  0  0  0
   22.2889   -7.8620  -15.1665 C   0  0  1  0  0  0  0  0  0  0  0  0
   22.5200   -7.3996  -16.4394 O   0  0  0  0  0  0  0  0  0  0  0  0
   20.7874   -7.7136  -14.8760 C   0  0  2  0  0  0  0  0  0  0  0  0
   20.1092   -8.2738  -16.0163 N   0  0  0  0  0  0  0  0  0  0  0  0
   20.5179   -6.2785  -14.6943 C   0  0  0  0  0  0  0  0  0  0  0  0
   19.8250   -5.6697  -15.5403 O   0  0  0  0  0  0  0  0  0  0  0  0
   21.0049   -5.5692  -13.6149 O   0  0  0  0  0  0  0  0  0  0  0  0
  2  3  1  0
  2  1  1  6
  2  9  1  0
  3  4  1  0
  4  8  1  0
  4  5  2  0
  5  6  1  0
  7  6  1  0
  8  7  2  0
  9 10  2  0
 11  9  1  0
 11 12  1  0
 12 16  1  0
 13 14  1  0
 12 13  1  1
 14 15  2  0
 14 18  1  0
 16 23  1  0
 16 17  2  0
 20 19  1  6
 20 22  1  0
 20 21  1  0
 22 24  1  0
 22 23  1  6
 24 25  2  0
 24 26  1  0
M  END
$$$$
