HDT.pdb
     RDKit          3D

 26 26  0  0  1  0  0  0  0  0999 V2000
   17.5221  -14.8379  -17.2619 N   0  0  0  0  0  0  0  0  0  0  0  0
   17.0845  -13.6376  -16.6075 C   0  0  1  0  0  0  0  0  0  0  0  0
   16.8545  -13.9082  -15.1389 C   0  0  0  0  0  0  0  0  0  0  0  0
   15.6931  -14.8321  -14.9521 C   0  0  0  0  0  0  0  0  0  0  0  0
   14.3697  -14.5422  -15.1490 C   0  0  0  0  0  0  0  0  0  0  0  0
   13.6538  -15.6417  -14.8713 N   0  0  0  0  0  0  0  0  0  0  0  0
   14.5319  -16.5919  -14.5090 C   0  0  0  0  0  0  0  0  0  0  0  0
   15.7704  -16.1060  -14.5563 N   0  0  0  0  0  0  0  0  0  0  0  0
   18.1460  -12.5767  -16.7245 C   0  0  0  0  0  0  0  0  0  0  0  0
   19.3131  -12.9788  -16.6935 O   0  0  0  0  0  0  0  0  0  0  0  0
   17.8240  -11.2201  -16.8597 N   0  0  0  0  0  0  0  0  0  0  0  0
   18.6962  -10.1096  -17.0807 C   0  0  1  0  0  0  0  0  0  0  0  0
   18.0580   -9.0013  -17.8855 C   0  0  0  0  0  0  0  0  0  0  0  0
   19.0768   -7.9507  -18.1370 C   0  0  0  0  0  0  0  0  0  0  0  0
   20.0019   -8.0670  -19.0056 O   0  0  0  0  0  0  0  0  0  0  0  0
   19.4672   -9.6611  -15.9181 C   0  0  0  0  0  0  0  0  0  0  0  0
   18.9091   -9.3651  -14.8018 O   0  0  0  0  0  0  0  0  0  0  0  0
   19.0810   -6.7477  -17.4207 O   0  0  0  0  0  0  0  0  0  0  0  0
   23.0768  -10.9760  -14.7864 C   0  0  0  0  0  0  0  0  0  0  0  0
   23.0423   -9.4584  -14.9335 C   0  0  1  0  0  0  0  0  0  0  0  0
   23.4514   -9.0666  -16.1851 O   0  0  0  0  0  0  0  0  0  0  0  0
   21.5781   -9.0264  -14.7589 C   0  0  2  0  0  0  0  0  0  0  0  0
   20.8827   -9.5154  -15.9214 N   0  0  0  0  0  0  0  0  0  0  0  0
   21.5655   -7.5586  -14.6562 C   0  0  0  0  0  0  0  0  0  0  0  0
   21.0820   -6.8797  -15.5898 O   0  0  0  0  0  0  0  0  0  0  0  0
   22.0719   -6.8935  -13.5578 O   0  0  0  0  0  0  0  0  0  0  0  0
  2  3  1  0
  2  1  1  6
  2  9  1  0
  3  4  1  0
  4  8  1  0
  4  5  2  0
  5  6  1  0
  7  6  1  0
  8  7  2  0
  9 10  2  0
 11  9  1  0
 11 12  1  0
 12 16  1  0
 13 14  1  0
 12 13  1  1
 14 15  2  0
 14 18  1  0
 16 23  1  0
 16 17  2  0
 20 19  1  6
 20 22  1  0
 20 21  1  0
 22 24  1  0
 22 23  1  6
 24 25  2  0
 24 26  1  0
M  END
$$$$
