HDT.pdb
     RDKit          3D

 26 26  0  0  1  0  0  0  0  0999 V2000
   26.3070  -35.7924  -14.0812 N   0  0  0  0  0  0  0  0  0  0  0  0
   26.4753  -34.8628  -13.0005 C   0  0  1  0  0  0  0  0  0  0  0  0
   25.9573  -33.5031  -13.4075 C   0  0  0  0  0  0  0  0  0  0  0  0
   26.7943  -32.9314  -14.5075 C   0  0  0  0  0  0  0  0  0  0  0  0
   27.9230  -32.1685  -14.3726 C   0  0  0  0  0  0  0  0  0  0  0  0
   28.3693  -31.8596  -15.5989 N   0  0  0  0  0  0  0  0  0  0  0  0
   27.5215  -32.4284  -16.4722 C   0  0  0  0  0  0  0  0  0  0  0  0
   26.5642  -33.0799  -15.8153 N   0  0  0  0  0  0  0  0  0  0  0  0
   25.6856  -35.3227  -11.8044 C   0  0  0  0  0  0  0  0  0  0  0  0
   24.6806  -35.9965  -12.0509 O   0  0  0  0  0  0  0  0  0  0  0  0
   26.0712  -35.0031  -10.4961 N   0  0  0  0  0  0  0  0  0  0  0  0
   25.4736  -35.4057   -9.2618 C   0  0  1  0  0  0  0  0  0  0  0  0
   25.2335  -36.8950   -9.1736 C   0  0  0  0  0  0  0  0  0  0  0  0
   26.5322  -37.5706   -8.9243 C   0  0  0  0  0  0  0  0  0  0  0  0
   27.1105  -37.5777   -7.7889 O   0  0  0  0  0  0  0  0  0  0  0  0
   26.0358  -34.7998   -8.0518 C   0  0  0  0  0  0  0  0  0  0  0  0
   27.3002  -34.7294   -7.8479 O   0  0  0  0  0  0  0  0  0  0  0  0
   27.2105  -38.2526   -9.9418 O   0  0  0  0  0  0  0  0  0  0  0  0
   23.8587  -34.1765   -4.5612 C   0  0  0  0  0  0  0  0  0  0  0  0
   24.7036  -33.0065   -5.0542 C   0  0  1  0  0  0  0  0  0  0  0  0
   25.2497  -32.3057   -4.0063 O   0  0  0  0  0  0  0  0  0  0  0  0
   25.8574  -33.6038   -5.8746 C   0  0  2  0  0  0  0  0  0  0  0  0
   25.2430  -34.2431   -7.0094 N   0  0  0  0  0  0  0  0  0  0  0  0
   26.5720  -34.5470   -5.0001 C   0  0  0  0  0  0  0  0  0  0  0  0
   26.4207  -35.7781   -5.1675 O   0  0  0  0  0  0  0  0  0  0  0  0
   27.4125  -34.1224   -3.9909 O   0  0  0  0  0  0  0  0  0  0  0  0
  2  3  1  0
  2  1  1  6
  2  9  1  0
  3  4  1  0
  4  8  1  0
  4  5  2  0
  5  6  1  0
  7  6  1  0
  8  7  2  0
  9 10  2  0
 11  9  1  0
 11 12  1  0
 12 16  1  0
 13 14  1  0
 12 13  1  1
 14 15  2  0
 14 18  1  0
 16 23  1  0
 16 17  2  0
 20 19  1  1
 20 22  1  0
 20 21  1  0
 22 24  1  0
 22 23  1  6
 24 25  2  0
 24 26  1  0
M  END
$$$$
