HDT.pdb
     RDKit          3D

 26 26  0  0  1  0  0  0  0  0999 V2000
   18.3929  -12.2432  -17.9710 N   0  0  0  0  0  0  0  0  0  0  0  0
   18.5789  -11.8742  -16.5963 C   0  0  1  0  0  0  0  0  0  0  0  0
   19.7188  -12.6677  -16.0015 C   0  0  0  0  0  0  0  0  0  0  0  0
   19.3815  -14.1247  -15.9684 C   0  0  0  0  0  0  0  0  0  0  0  0
   18.2941  -14.7053  -15.3729 C   0  0  0  0  0  0  0  0  0  0  0  0
   18.3643  -16.0296  -15.5721 N   0  0  0  0  0  0  0  0  0  0  0  0
   19.4829  -16.2538  -16.2817 C   0  0  0  0  0  0  0  0  0  0  0  0
   20.1037  -15.1015  -16.5248 N   0  0  0  0  0  0  0  0  0  0  0  0
   18.9306  -10.4135  -16.5034 C   0  0  0  0  0  0  0  0  0  0  0  0
   19.8252  -10.0270  -17.2617 O   0  0  0  0  0  0  0  0  0  0  0  0
   18.2805   -9.5516  -15.6106 N   0  0  0  0  0  0  0  0  0  0  0  0
   18.4726   -8.1483  -15.4191 C   0  0  1  0  0  0  0  0  0  0  0  0
   17.2318   -7.4382  -14.9296 C   0  0  0  0  0  0  0  0  0  0  0  0
   16.1207   -7.7202  -15.8735 C   0  0  0  0  0  0  0  0  0  0  0  0
   16.1656   -7.4304  -17.1135 O   0  0  0  0  0  0  0  0  0  0  0  0
   19.7124   -7.7595  -14.7416 C   0  0  0  0  0  0  0  0  0  0  0  0
   20.0175   -8.1943  -13.5740 O   0  0  0  0  0  0  0  0  0  0  0  0
   14.9357   -8.3328  -15.4481 O   0  0  0  0  0  0  0  0  0  0  0  0
   23.2137   -7.9617  -16.1575 C   0  0  0  0  0  0  0  0  0  0  0  0
   22.9941   -6.5276  -15.6875 C   0  0  1  0  0  0  0  0  0  0  0  0
   22.5470   -5.7275  -16.7109 O   0  0  0  0  0  0  0  0  0  0  0  0
   21.8985   -6.5735  -14.6113 C   0  0  2  0  0  0  0  0  0  0  0  0
   20.6755   -6.8784  -15.3081 N   0  0  0  0  0  0  0  0  0  0  0  0
   21.8742   -5.2558  -13.9567 C   0  0  0  0  0  0  0  0  0  0  0  0
   20.8992   -4.4934  -14.1424 O   0  0  0  0  0  0  0  0  0  0  0  0
   22.8965   -4.8228  -13.1366 O   0  0  0  0  0  0  0  0  0  0  0  0
  2  3  1  0
  2  1  1  6
  2  9  1  0
  3  4  1  0
  4  8  1  0
  4  5  2  0
  5  6  1  0
  7  6  1  0
  8  7  2  0
  9 10  2  0
 11  9  1  0
 11 12  1  0
 12 16  1  0
 13 14  1  0
 12 13  1  1
 14 15  2  0
 14 18  1  0
 16 23  1  0
 16 17  2  0
 20 19  1  6
 20 22  1  0
 20 21  1  0
 22 24  1  0
 22 23  1  6
 24 25  2  0
 24 26  1  0
M  END
$$$$
