HDT.pdb
     RDKit          3D

 26 26  0  0  1  0  0  0  0  0999 V2000
   17.8357  -23.5226  -18.0919 N   0  0  0  0  0  0  0  0  0  0  0  0
   18.6442  -22.4590  -17.5669 C   0  0  1  0  0  0  0  0  0  0  0  0
   19.7856  -22.1669  -18.5128 C   0  0  0  0  0  0  0  0  0  0  0  0
   20.6950  -23.3500  -18.6174 C   0  0  0  0  0  0  0  0  0  0  0  0
   21.4053  -23.9353  -17.6039 C   0  0  0  0  0  0  0  0  0  0  0  0
   22.0950  -24.9652  -18.1158 N   0  0  0  0  0  0  0  0  0  0  0  0
   21.8081  -25.0071  -19.4277 C   0  0  0  0  0  0  0  0  0  0  0  0
   20.9592  -24.0294  -19.7372 N   0  0  0  0  0  0  0  0  0  0  0  0
   17.8178  -21.2078  -17.4346 C   0  0  0  0  0  0  0  0  0  0  0  0
   16.7620  -21.1911  -18.0747 O   0  0  0  0  0  0  0  0  0  0  0  0
   18.2262  -20.1330  -16.6343 N   0  0  0  0  0  0  0  0  0  0  0  0
   17.5591  -18.8927  -16.3908 C   0  0  1  0  0  0  0  0  0  0  0  0
   16.0818  -19.0540  -16.1171 C   0  0  0  0  0  0  0  0  0  0  0  0
   15.4873  -17.7083  -15.9152 C   0  0  0  0  0  0  0  0  0  0  0  0
   15.7952  -16.6942  -16.6226 O   0  0  0  0  0  0  0  0  0  0  0  0
   18.2521  -17.9584  -15.4995 C   0  0  0  0  0  0  0  0  0  0  0  0
   18.2157  -18.0785  -14.2230 O   0  0  0  0  0  0  0  0  0  0  0  0
   14.5354  -17.4702  -14.9165 O   0  0  0  0  0  0  0  0  0  0  0  0
   21.8889  -16.4918  -15.9959 C   0  0  0  0  0  0  0  0  0  0  0  0
   20.8701  -15.3733  -15.8046 C   0  0  1  0  0  0  0  0  0  0  0  0
   20.3985  -14.9131  -17.0102 O   0  0  0  0  0  0  0  0  0  0  0  0
   19.6855  -15.9758  -15.0335 C   0  0  2  0  0  0  0  0  0  0  0  0
   19.0165  -16.8506  -15.9615 N   0  0  0  0  0  0  0  0  0  0  0  0
   18.8408  -14.8566  -14.5872 C   0  0  0  0  0  0  0  0  0  0  0  0
   17.7148  -14.6889  -15.1071 O   0  0  0  0  0  0  0  0  0  0  0  0
   19.2465  -13.9743  -13.6062 O   0  0  0  0  0  0  0  0  0  0  0  0
  2  3  1  0
  2  1  1  6
  2  9  1  0
  3  4  1  0
  4  8  1  0
  4  5  2  0
  5  6  1  0
  7  6  1  0
  8  7  2  0
  9 10  2  0
 11  9  1  0
 11 12  1  0
 12 16  1  0
 13 14  1  0
 12 13  1  1
 14 15  2  0
 14 18  1  0
 16 23  1  0
 16 17  2  0
 20 19  1  6
 20 22  1  0
 20 21  1  0
 22 24  1  0
 22 23  1  6
 24 25  2  0
 24 26  1  0
M  END
$$$$
