HDT.pdb
     RDKit          3D

 26 26  0  0  1  0  0  0  0  0999 V2000
   26.1634  -22.0262  -20.9997 N   0  0  0  0  0  0  0  0  0  0  0  0
   25.6800  -20.8918  -20.2649 C   0  0  1  0  0  0  0  0  0  0  0  0
   24.6170  -20.1765  -21.0658 C   0  0  0  0  0  0  0  0  0  0  0  0
   25.2117  -19.5583  -22.2912 C   0  0  0  0  0  0  0  0  0  0  0  0
   25.7050  -18.2874  -22.4164 C   0  0  0  0  0  0  0  0  0  0  0  0
   26.1437  -18.1299  -23.6739 N   0  0  0  0  0  0  0  0  0  0  0  0
   25.9201  -19.2928  -24.3085 C   0  0  0  0  0  0  0  0  0  0  0  0
   25.3549  -20.1627  -23.4743 N   0  0  0  0  0  0  0  0  0  0  0  0
   25.0597  -21.3483  -18.9716 C   0  0  0  0  0  0  0  0  0  0  0  0
   24.3153  -22.3303  -19.0500 O   0  0  0  0  0  0  0  0  0  0  0  0
   25.3144  -20.6959  -17.7584 N   0  0  0  0  0  0  0  0  0  0  0  0
   24.9097  -21.0671  -16.4389 C   0  0  1  0  0  0  0  0  0  0  0  0
   25.9375  -20.7309  -15.3834 C   0  0  0  0  0  0  0  0  0  0  0  0
   27.2458  -21.2979  -15.7979 C   0  0  0  0  0  0  0  0  0  0  0  0
   27.4983  -22.5469  -15.7981 O   0  0  0  0  0  0  0  0  0  0  0  0
   23.5274  -20.7404  -16.0786 C   0  0  0  0  0  0  0  0  0  0  0  0
   23.0563  -19.5524  -16.1871 O   0  0  0  0  0  0  0  0  0  0  0  0
   28.2988  -20.4778  -16.2209 O   0  0  0  0  0  0  0  0  0  0  0  0
   19.0793  -22.2413  -14.5580 C   0  0  0  0  0  0  0  0  0  0  0  0
   20.5042  -22.6224  -14.9455 C   0  0  1  0  0  0  0  0  0  0  0  0
   20.5246  -23.4033  -16.0757 O   0  0  0  0  0  0  0  0  0  0  0  0
   21.2455  -21.3144  -15.2624 C   0  0  2  0  0  0  0  0  0  0  0  0
   22.5965  -21.6961  -15.5836 N   0  0  0  0  0  0  0  0  0  0  0  0
   21.1576  -20.4622  -14.0661 C   0  0  0  0  0  0  0  0  0  0  0  0
   21.9753  -20.6244  -13.1325 O   0  0  0  0  0  0  0  0  0  0  0  0
   20.1977  -19.4795  -13.9316 O   0  0  0  0  0  0  0  0  0  0  0  0
  2  3  1  0
  2  1  1  6
  2  9  1  0
  3  4  1  0
  4  8  1  0
  4  5  2  0
  5  6  1  0
  7  6  1  0
  8  7  2  0
  9 10  2  0
 11  9  1  0
 11 12  1  0
 12 16  1  0
 13 14  1  0
 12 13  1  1
 14 15  2  0
 14 18  1  0
 16 23  1  0
 16 17  2  0
 20 19  1  6
 20 22  1  0
 20 21  1  0
 22 24  1  0
 22 23  1  1
 24 25  2  0
 24 26  1  0
M  END
$$$$
