HDT.pdb
     RDKit          3D

 26 26  0  0  1  0  0  0  0  0999 V2000
   21.2275  -11.3866  -16.9437 N   0  0  0  0  0  0  0  0  0  0  0  0
   20.7994  -10.1062  -17.4313 C   0  0  1  0  0  0  0  0  0  0  0  0
   19.3583  -10.1831  -17.8789 C   0  0  0  0  0  0  0  0  0  0  0  0
   19.2183  -11.1214  -19.0353 C   0  0  0  0  0  0  0  0  0  0  0  0
   18.6453  -12.3647  -19.0229 C   0  0  0  0  0  0  0  0  0  0  0  0
   18.7230  -12.8745  -20.2608 N   0  0  0  0  0  0  0  0  0  0  0  0
   19.3372  -11.9516  -21.0198 C   0  0  0  0  0  0  0  0  0  0  0  0
   19.6397  -10.8861  -20.2813 N   0  0  0  0  0  0  0  0  0  0  0  0
   20.8906   -9.0844  -16.3298 C   0  0  0  0  0  0  0  0  0  0  0  0
   21.0385   -9.5351  -15.1897 O   0  0  0  0  0  0  0  0  0  0  0  0
   20.8117   -7.7097  -16.5878 N   0  0  0  0  0  0  0  0  0  0  0  0
   20.9579   -6.6171  -15.6780 C   0  0  1  0  0  0  0  0  0  0  0  0
   22.1699   -6.7436  -14.7845 C   0  0  0  0  0  0  0  0  0  0  0  0
   22.1701   -5.6122  -13.8228 C   0  0  0  0  0  0  0  0  0  0  0  0
   21.4144   -5.5652  -12.7979 O   0  0  0  0  0  0  0  0  0  0  0  0
   20.7463   -5.2819  -16.2434 C   0  0  0  0  0  0  0  0  0  0  0  0
   21.6030   -4.7253  -17.0189 O   0  0  0  0  0  0  0  0  0  0  0  0
   23.0168   -4.5095  -13.9888 O   0  0  0  0  0  0  0  0  0  0  0  0
   17.4541   -4.1917  -17.8875 C   0  0  0  0  0  0  0  0  0  0  0  0
   17.8566   -3.1292  -16.8702 C   0  0  1  0  0  0  0  0  0  0  0  0
   17.2594   -3.3491  -15.6526 O   0  0  0  0  0  0  0  0  0  0  0  0
   19.3764   -3.2479  -16.6785 C   0  0  2  0  0  0  0  0  0  0  0  0
   19.5894   -4.4937  -15.9879 N   0  0  0  0  0  0  0  0  0  0  0  0
   19.8109   -2.0772  -15.9001 C   0  0  0  0  0  0  0  0  0  0  0  0
   20.1988   -2.2312  -14.7202 O   0  0  0  0  0  0  0  0  0  0  0  0
   19.8074   -0.8012  -16.4265 O   0  0  0  0  0  0  0  0  0  0  0  0
  2  3  1  0
  2  1  1  1
  2  9  1  0
  3  4  1  0
  4  8  1  0
  4  5  2  0
  5  6  1  0
  7  6  1  0
  8  7  2  0
  9 10  2  0
 11  9  1  0
 11 12  1  0
 12 16  1  0
 13 14  1  0
 12 13  1  6
 14 15  2  0
 14 18  1  0
 16 23  1  0
 16 17  2  0
 20 19  1  6
 20 22  1  0
 20 21  1  0
 22 24  1  0
 22 23  1  1
 24 25  2  0
 24 26  1  0
M  END
$$$$
