HDT.pdb
     RDKit          3D

 26 26  0  0  1  0  0  0  0  0999 V2000
   14.8451  -13.0441  -12.0245 N   0  0  0  0  0  0  0  0  0  0  0  0
   13.9928  -11.8928  -11.9311 C   0  0  1  0  0  0  0  0  0  0  0  0
   13.1441  -11.9822  -10.6842 C   0  0  0  0  0  0  0  0  0  0  0  0
   12.2211  -13.1567  -10.7619 C   0  0  0  0  0  0  0  0  0  0  0  0
   10.9277  -13.1600  -11.2106 C   0  0  0  0  0  0  0  0  0  0  0  0
   10.4541  -14.4110  -11.1155 N   0  0  0  0  0  0  0  0  0  0  0  0
   11.4485  -15.1624  -10.6139 C   0  0  0  0  0  0  0  0  0  0  0  0
   12.5227  -14.4064  -10.3976 N   0  0  0  0  0  0  0  0  0  0  0  0
   14.8295  -10.6451  -11.8361 C   0  0  0  0  0  0  0  0  0  0  0  0
   15.7898  -10.6999  -11.0618 O   0  0  0  0  0  0  0  0  0  0  0  0
   14.5323   -9.4968  -12.5814 N   0  0  0  0  0  0  0  0  0  0  0  0
   15.2050   -8.2359  -12.5916 C   0  0  1  0  0  0  0  0  0  0  0  0
   15.3702   -7.6595  -13.9786 C   0  0  0  0  0  0  0  0  0  0  0  0
   16.3297   -8.5058  -14.7325 C   0  0  0  0  0  0  0  0  0  0  0  0
   15.9761   -9.3185  -15.6481 O   0  0  0  0  0  0  0  0  0  0  0  0
   14.7762   -7.2744  -11.5723 C   0  0  0  0  0  0  0  0  0  0  0  0
   13.5477   -6.9354  -11.4275 O   0  0  0  0  0  0  0  0  0  0  0  0
   17.7055   -8.4596  -14.4766 O   0  0  0  0  0  0  0  0  0  0  0  0
   14.9875   -7.3561   -7.9166 C   0  0  0  0  0  0  0  0  0  0  0  0
   15.7650   -6.1174   -8.3491 C   0  0  1  0  0  0  0  0  0  0  0  0
   17.0977   -6.3993   -8.5285 O   0  0  0  0  0  0  0  0  0  0  0  0
   15.1888   -5.6795   -9.7044 C   0  0  2  0  0  0  0  0  0  0  0  0
   15.6694   -6.6393  -10.6645 N   0  0  0  0  0  0  0  0  0  0  0  0
   15.6731   -4.3145   -9.9640 C   0  0  0  0  0  0  0  0  0  0  0  0
   15.2273   -3.3628   -9.2842 O   0  0  0  0  0  0  0  0  0  0  0  0
   16.6106   -4.0393  -10.9390 O   0  0  0  0  0  0  0  0  0  0  0  0
  2  3  1  0
  2  1  1  1
  2  9  1  0
  3  4  1  0
  4  8  1  0
  4  5  2  0
  5  6  1  0
  7  6  1  0
  8  7  2  0
  9 10  2  0
 11  9  1  0
 11 12  1  0
 12 16  1  0
 13 14  1  0
 12 13  1  6
 14 15  2  0
 14 18  1  0
 16 23  1  0
 16 17  2  0
 20 19  1  6
 20 22  1  0
 20 21  1  0
 22 24  1  0
 22 23  1  6
 24 25  2  0
 24 26  1  0
M  END
$$$$
