LGW.pdb
     RDKit          3D

 27 28  0  0  1  0  0  0  0  0999 V2000
    7.0611  -13.8827   21.6789 C   0  0  0  0  0  0  0  0  0  0  0  0
    7.6772  -13.7074   20.3277 C   0  0  1  0  0  0  0  0  0  0  0  0
    7.7403  -12.2209   19.9713 C   0  0  0  0  0  0  0  0  0  0  0  0
    9.0306  -14.2764   20.1644 C   0  0  0  0  0  0  0  0  0  0  0  0
    9.1106  -15.7499   20.2641 C   0  0  2  0  0  0  0  0  0  0  0  0
    7.8344  -16.3706   19.8941 N   0  0  0  0  0  0  0  0  0  0  0  0
    9.5350  -16.2385   21.5691 C   0  0  0  0  0  0  0  0  0  0  0  0
   10.5782  -15.8406   22.1601 O   0  0  0  0  0  0  0  0  0  0  0  0
    8.7416  -17.2220   22.2416 N   0  0  0  0  0  0  0  0  0  0  0  0
    9.3938  -18.2262   23.0210 C   0  0  0  0  0  0  0  0  0  0  0  0
    9.4767  -17.7828   24.4498 C   0  0  0  0  0  0  0  0  0  0  0  0
    9.0271  -18.5215   25.3614 O   0  0  0  0  0  0  0  0  0  0  0  0
   10.0561  -16.5300   24.8187 N   0  0  0  0  0  0  0  0  0  0  0  0
   10.1762  -16.2136   26.2098 C   0  0  1  0  0  0  0  0  0  0  0  0
    8.9132  -16.3753   26.9521 C   0  0  0  0  0  0  0  0  0  0  0  0
    7.7328  -15.7088   26.4044 C   0  0  0  0  0  0  0  0  0  0  0  0
    6.5855  -16.1691   25.7991 C   0  0  0  0  0  0  0  0  0  0  0  0
    5.7752  -15.1235   25.4805 N   0  0  0  0  0  0  0  0  0  0  0  0
    6.3670  -13.9658   25.8658 C   0  0  0  0  0  0  0  0  0  0  0  0
    5.9398  -12.6582   25.7602 C   0  0  0  0  0  0  0  0  0  0  0  0
    6.7399  -11.6513   26.2394 C   0  0  0  0  0  0  0  0  0  0  0  0
    7.9501  -11.9670   26.8143 C   0  0  0  0  0  0  0  0  0  0  0  0
    8.3671  -13.2941   26.9127 C   0  0  0  0  0  0  0  0  0  0  0  0
    7.5694  -14.3124   26.4342 C   0  0  0  0  0  0  0  0  0  0  0  0
   11.2934  -16.9563   26.8608 C   0  0  0  0  0  0  0  0  0  0  0  0
   11.6331  -16.7065   28.1681 O   0  0  0  0  0  0  0  0  0  0  0  0
   11.9104  -17.8057   26.2023 O   0  0  0  0  0  0  0  0  0  0  0  0
  2  4  1  0
  2  1  1  1
  2  3  1  0
  5  4  1  0
  5  6  1  1
  7  5  1  0
  8  7  2  0
  9  7  1  0
 10  9  1  0
 11 10  1  0
 11 13  1  0
 12 11  2  0
 14 15  1  1
 14 25  1  0
 14 13  1  0
 16 15  1  0
 16 17  2  0
 18 17  1  0
 19 24  2  0
 19 18  1  0
 20 19  1  0
 21 22  1  0
 21 20  2  0
 22 23  2  0
 23 24  1  0
 24 16  1  0
 25 26  1  0
 27 25  2  0
M  END
$$$$
