LGW.pdb
     RDKit          3D

 27 28  0  0  1  0  0  0  0  0999 V2000
    7.9185  -12.4599   20.0571 C   0  0  0  0  0  0  0  0  0  0  0  0
    7.6982  -13.8442   20.5781 C   0  0  1  0  0  0  0  0  0  0  0  0
    6.2015  -14.1602   20.6046 C   0  0  0  0  0  0  0  0  0  0  0  0
    8.3820  -14.9224   19.8351 C   0  0  0  0  0  0  0  0  0  0  0  0
    8.3914  -16.2410   20.5050 C   0  0  2  0  0  0  0  0  0  0  0  0
    7.3743  -16.3006   21.5599 N   0  0  0  0  0  0  0  0  0  0  0  0
    9.6868  -16.6260   21.0487 C   0  0  0  0  0  0  0  0  0  0  0  0
   10.6717  -16.9675   20.3352 O   0  0  0  0  0  0  0  0  0  0  0  0
    9.8812  -16.6224   22.4668 N   0  0  0  0  0  0  0  0  0  0  0  0
   11.0598  -16.0202   23.0050 C   0  0  0  0  0  0  0  0  0  0  0  0
   10.9991  -16.0395   24.5019 C   0  0  0  0  0  0  0  0  0  0  0  0
   11.9146  -15.4998   25.1723 O   0  0  0  0  0  0  0  0  0  0  0  0
    9.9218  -16.6604   25.2055 N   0  0  0  0  0  0  0  0  0  0  0  0
   10.0153  -16.7869   26.6285 C   0  0  1  0  0  0  0  0  0  0  0  0
    8.7440  -16.5079   27.3200 C   0  0  0  0  0  0  0  0  0  0  0  0
    7.7457  -15.7335   26.5842 C   0  0  0  0  0  0  0  0  0  0  0  0
    6.7805  -16.0721   25.6631 C   0  0  0  0  0  0  0  0  0  0  0  0
    6.0879  -14.9635   25.2853 N   0  0  0  0  0  0  0  0  0  0  0  0
    6.5783  -13.8841   25.9434 C   0  0  0  0  0  0  0  0  0  0  0  0
    6.2066  -12.5563   25.8968 C   0  0  0  0  0  0  0  0  0  0  0  0
    6.8734  -11.6461   26.6781 C   0  0  0  0  0  0  0  0  0  0  0  0
    7.8979  -12.0767   27.4904 C   0  0  0  0  0  0  0  0  0  0  0  0
    8.2613  -13.4226   27.5252 C   0  0  0  0  0  0  0  0  0  0  0  0
    7.5965  -14.3443   26.7437 C   0  0  0  0  0  0  0  0  0  0  0  0
   10.5856  -18.1020   27.0398 C   0  0  0  0  0  0  0  0  0  0  0  0
   10.8591  -18.3653   28.3598 O   0  0  0  0  0  0  0  0  0  0  0  0
   10.8072  -18.9558   26.1694 O   0  0  0  0  0  0  0  0  0  0  0  0
  2  4  1  0
  2  1  1  6
  2  3  1  0
  5  4  1  0
  5  6  1  1
  7  5  1  0
  8  7  2  0
  9  7  1  0
 10  9  1  0
 11 10  1  0
 11 13  1  0
 12 11  2  0
 14 15  1  1
 14 25  1  0
 14 13  1  0
 16 15  1  0
 16 17  2  0
 18 17  1  0
 19 24  2  0
 19 18  1  0
 20 19  1  0
 21 22  1  0
 21 20  2  0
 22 23  2  0
 23 24  1  0
 24 16  1  0
 25 26  1  0
 27 25  2  0
M  END
$$$$
