LGW.pdb
     RDKit          3D

 27 28  0  0  1  0  0  0  0  0999 V2000
    8.3392  -12.5466   19.4388 C   0  0  0  0  0  0  0  0  0  0  0  0
    8.2692  -13.7423   20.3341 C   0  0  1  0  0  0  0  0  0  0  0  0
    7.4705  -13.4048   21.5946 C   0  0  0  0  0  0  0  0  0  0  0  0
    7.6841  -14.9575   19.7317 C   0  0  0  0  0  0  0  0  0  0  0  0
    7.8394  -16.1933   20.5293 C   0  0  2  0  0  0  0  0  0  0  0  0
    6.9983  -16.1517   21.7300 N   0  0  0  0  0  0  0  0  0  0  0  0
    9.2148  -16.4948   20.9026 C   0  0  0  0  0  0  0  0  0  0  0  0
    9.9868  -17.2141   20.2081 O   0  0  0  0  0  0  0  0  0  0  0  0
    9.7459  -15.9557   22.1176 N   0  0  0  0  0  0  0  0  0  0  0  0
   11.1134  -16.2039   22.4485 C   0  0  0  0  0  0  0  0  0  0  0  0
   11.2437  -16.4298   23.9239 C   0  0  0  0  0  0  0  0  0  0  0  0
   12.3835  -16.4910   24.4494 O   0  0  0  0  0  0  0  0  0  0  0  0
   10.1010  -16.5821   24.7678 N   0  0  0  0  0  0  0  0  0  0  0  0
   10.2999  -16.6593   26.1835 C   0  0  1  0  0  0  0  0  0  0  0  0
    9.5202  -15.6586   26.9338 C   0  0  0  0  0  0  0  0  0  0  0  0
    8.1711  -15.3708   26.4493 C   0  0  0  0  0  0  0  0  0  0  0  0
    7.1048  -16.1675   26.0988 C   0  0  0  0  0  0  0  0  0  0  0  0
    6.0506  -15.3949   25.7204 N   0  0  0  0  0  0  0  0  0  0  0  0
    6.3984  -14.0875   25.8133 C   0  0  0  0  0  0  0  0  0  0  0  0
    5.6768  -12.9430   25.5438 C   0  0  0  0  0  0  0  0  0  0  0  0
    6.2699  -11.7188   25.7252 C   0  0  0  0  0  0  0  0  0  0  0  0
    7.5707  -11.6588   26.1714 C   0  0  0  0  0  0  0  0  0  0  0  0
    8.2862  -12.8256   26.4388 C   0  0  0  0  0  0  0  0  0  0  0  0
    7.6980  -14.0602   26.2596 C   0  0  0  0  0  0  0  0  0  0  0  0
   10.0738  -18.0365   26.7088 C   0  0  0  0  0  0  0  0  0  0  0  0
   10.4659  -18.3746   27.9810 O   0  0  0  0  0  0  0  0  0  0  0  0
    9.5233  -18.8721   25.9776 O   0  0  0  0  0  0  0  0  0  0  0  0
  2  4  1  0
  2  1  1  6
  2  3  1  0
  5  4  1  0
  5  6  1  1
  7  5  1  0
  8  7  2  0
  9  7  1  0
 10  9  1  0
 11 10  1  0
 11 13  1  0
 12 11  2  0
 14 15  1  1
 14 25  1  0
 14 13  1  0
 16 15  1  0
 16 17  2  0
 18 17  1  0
 19 24  2  0
 19 18  1  0
 20 19  1  0
 21 22  1  0
 21 20  2  0
 22 23  2  0
 23 24  1  0
 24 16  1  0
 25 26  1  0
 27 25  2  0
M  END
$$$$
