LGW.pdb
     RDKit          3D

 27 28  0  0  1  0  0  0  0  0999 V2000
    7.2064  -11.9875   19.9221 C   0  0  0  0  0  0  0  0  0  0  0  0
    7.7510  -13.3524   19.6454 C   0  0  1  0  0  0  0  0  0  0  0  0
    9.1400  -13.2423   19.0135 C   0  0  0  0  0  0  0  0  0  0  0  0
    7.8484  -14.2500   20.8145 C   0  0  0  0  0  0  0  0  0  0  0  0
    8.3359  -15.6153   20.5216 C   0  0  2  0  0  0  0  0  0  0  0  0
    7.3685  -16.3531   19.7027 N   0  0  0  0  0  0  0  0  0  0  0  0
    8.6752  -16.3953   21.7041 C   0  0  0  0  0  0  0  0  0  0  0  0
    7.8155  -16.9147   22.4703 O   0  0  0  0  0  0  0  0  0  0  0  0
   10.0520  -16.6020   22.0366 N   0  0  0  0  0  0  0  0  0  0  0  0
   10.3823  -17.4805   23.1138 C   0  0  0  0  0  0  0  0  0  0  0  0
   10.5320  -16.6938   24.3801 C   0  0  0  0  0  0  0  0  0  0  0  0
   11.3194  -15.7154   24.4197 O   0  0  0  0  0  0  0  0  0  0  0  0
    9.8015  -17.0222   25.5632 N   0  0  0  0  0  0  0  0  0  0  0  0
   10.2608  -16.5068   26.8174 C   0  0  1  0  0  0  0  0  0  0  0  0
    9.1991  -15.8435   27.5954 C   0  0  0  0  0  0  0  0  0  0  0  0
    8.0234  -15.3865   26.8562 C   0  0  0  0  0  0  0  0  0  0  0  0
    7.0256  -16.0429   26.1718 C   0  0  0  0  0  0  0  0  0  0  0  0
    6.1392  -15.1437   25.6649 N   0  0  0  0  0  0  0  0  0  0  0  0
    6.5317  -13.8903   26.0019 C   0  0  0  0  0  0  0  0  0  0  0  0
    5.9638  -12.6641   25.7238 C   0  0  0  0  0  0  0  0  0  0  0  0
    6.5682  -11.5243   26.1918 C   0  0  0  0  0  0  0  0  0  0  0  0
    7.7269  -11.6284   26.9276 C   0  0  0  0  0  0  0  0  0  0  0  0
    8.2880  -12.8758   27.1993 C   0  0  0  0  0  0  0  0  0  0  0  0
    7.6873  -14.0266   26.7333 C   0  0  0  0  0  0  0  0  0  0  0  0
   10.9672  -17.5418   27.6258 C   0  0  0  0  0  0  0  0  0  0  0  0
   11.6611  -17.1933   28.7588 O   0  0  0  0  0  0  0  0  0  0  0  0
   10.9160  -18.7245   27.2589 O   0  0  0  0  0  0  0  0  0  0  0  0
  2  4  1  0
  2  1  1  1
  2  3  1  0
  5  4  1  0
  5  6  1  1
  7  5  1  0
  8  7  2  0
  9  7  1  0
 10  9  1  0
 11 10  1  0
 11 13  1  0
 12 11  2  0
 14 15  1  1
 14 25  1  0
 14 13  1  0
 16 15  1  0
 16 17  2  0
 18 17  1  0
 19 24  2  0
 19 18  1  0
 20 19  1  0
 21 22  1  0
 21 20  2  0
 22 23  2  0
 23 24  1  0
 24 16  1  0
 25 26  1  0
 27 25  2  0
M  END
$$$$
