LGW.pdb
     RDKit          3D

 27 28  0  0  1  0  0  0  0  0999 V2000
    6.6875  -12.7605   18.1321 C   0  0  0  0  0  0  0  0  0  0  0  0
    7.9536  -13.3418   18.6753 C   0  0  1  0  0  0  0  0  0  0  0  0
    9.0354  -12.2622   18.7466 C   0  0  0  0  0  0  0  0  0  0  0  0
    7.8467  -13.9732   20.0064 C   0  0  0  0  0  0  0  0  0  0  0  0
    9.1138  -14.5015   20.5566 C   0  0  2  0  0  0  0  0  0  0  0  0
    9.9005  -15.1685   19.5139 N   0  0  0  0  0  0  0  0  0  0  0  0
    8.9446  -15.3968   21.6932 C   0  0  0  0  0  0  0  0  0  0  0  0
    8.1814  -15.1517   22.6695 O   0  0  0  0  0  0  0  0  0  0  0  0
    9.6699  -16.6304   21.7282 N   0  0  0  0  0  0  0  0  0  0  0  0
    9.4348  -17.5443   22.8009 C   0  0  0  0  0  0  0  0  0  0  0  0
   10.0247  -17.0010   24.0665 C   0  0  0  0  0  0  0  0  0  0  0  0
   11.0774  -16.3163   24.0228 O   0  0  0  0  0  0  0  0  0  0  0  0
    9.4250  -17.2386   25.3414 N   0  0  0  0  0  0  0  0  0  0  0  0
   10.1064  -16.7822   26.5149 C   0  0  1  0  0  0  0  0  0  0  0  0
    9.4419  -15.6371   27.1625 C   0  0  0  0  0  0  0  0  0  0  0  0
    8.1284  -15.2550   26.6467 C   0  0  0  0  0  0  0  0  0  0  0  0
    7.0409  -15.9760   26.2080 C   0  0  0  0  0  0  0  0  0  0  0  0
    6.0401  -15.1313   25.8390 N   0  0  0  0  0  0  0  0  0  0  0  0
    6.4445  -13.8505   26.0254 C   0  0  0  0  0  0  0  0  0  0  0  0
    5.7885  -12.6579   25.8004 C   0  0  0  0  0  0  0  0  0  0  0  0
    6.4303  -11.4773   26.0792 C   0  0  0  0  0  0  0  0  0  0  0  0
    7.7135  -11.5080   26.5766 C   0  0  0  0  0  0  0  0  0  0  0  0
    8.3624  -12.7224   26.7978 C   0  0  0  0  0  0  0  0  0  0  0  0
    7.7249  -13.9137   26.5208 C   0  0  0  0  0  0  0  0  0  0  0  0
   10.3605  -17.8876   27.4830 C   0  0  0  0  0  0  0  0  0  0  0  0
   11.2286  -17.7138   28.5332 O   0  0  0  0  0  0  0  0  0  0  0  0
    9.7727  -18.9672   27.3253 O   0  0  0  0  0  0  0  0  0  0  0  0
  2  4  1  0
  2  1  1  1
  2  3  1  0
  5  4  1  0
  5  6  1  6
  7  5  1  0
  8  7  2  0
  9  7  1  0
 10  9  1  0
 11 10  1  0
 11 13  1  0
 12 11  2  0
 14 15  1  1
 14 25  1  0
 14 13  1  0
 16 15  1  0
 16 17  2  0
 18 17  1  0
 19 24  2  0
 19 18  1  0
 20 19  1  0
 21 22  1  0
 21 20  2  0
 22 23  2  0
 23 24  1  0
 24 16  1  0
 25 26  1  0
 27 25  2  0
M  END
$$$$
