LGW.pdb
     RDKit          3D

 27 28  0  0  1  0  0  0  0  0999 V2000
    6.5259  -12.8004   18.3303 C   0  0  0  0  0  0  0  0  0  0  0  0
    7.8388  -13.3891   18.7377 C   0  0  1  0  0  0  0  0  0  0  0  0
    8.8325  -12.2728   19.0652 C   0  0  0  0  0  0  0  0  0  0  0  0
    7.7938  -14.3155   19.8874 C   0  0  0  0  0  0  0  0  0  0  0  0
    9.1118  -14.7597   20.3903 C   0  0  2  0  0  0  0  0  0  0  0  0
    9.8757  -15.4337   19.3352 N   0  0  0  0  0  0  0  0  0  0  0  0
    9.0453  -15.6118   21.5699 C   0  0  0  0  0  0  0  0  0  0  0  0
    8.4147  -15.3046   22.6204 O   0  0  0  0  0  0  0  0  0  0  0  0
    9.7209  -16.8738   21.5624 N   0  0  0  0  0  0  0  0  0  0  0  0
    9.5371  -17.7667   22.6625 C   0  0  0  0  0  0  0  0  0  0  0  0
   10.0466  -17.1312   23.9201 C   0  0  0  0  0  0  0  0  0  0  0  0
   11.0735  -16.4080   23.8842 O   0  0  0  0  0  0  0  0  0  0  0  0
    9.3977  -17.3223   25.1785 N   0  0  0  0  0  0  0  0  0  0  0  0
   10.0346  -16.8251   26.3604 C   0  0  1  0  0  0  0  0  0  0  0  0
    9.1103  -16.1137   27.2613 C   0  0  0  0  0  0  0  0  0  0  0  0
    7.9172  -15.5243   26.6557 C   0  0  0  0  0  0  0  0  0  0  0  0
    6.7673  -16.0607   26.1221 C   0  0  0  0  0  0  0  0  0  0  0  0
    5.9434  -15.0654   25.6957 N   0  0  0  0  0  0  0  0  0  0  0  0
    6.5285  -13.8663   25.9374 C   0  0  0  0  0  0  0  0  0  0  0  0
    6.0876  -12.5831   25.6874 C   0  0  0  0  0  0  0  0  0  0  0  0
    6.8835  -11.5212   26.0371 C   0  0  0  0  0  0  0  0  0  0  0  0
    8.1035  -11.7586   26.6290 C   0  0  0  0  0  0  0  0  0  0  0  0
    8.5342  -13.0620   26.8743 C   0  0  0  0  0  0  0  0  0  0  0  0
    7.7407  -14.1352   26.5265 C   0  0  0  0  0  0  0  0  0  0  0  0
   10.7917  -17.8889   27.0808 C   0  0  0  0  0  0  0  0  0  0  0  0
   11.6251  -17.5709   28.1253 O   0  0  0  0  0  0  0  0  0  0  0  0
   10.6548  -19.0672   26.7221 O   0  0  0  0  0  0  0  0  0  0  0  0
  2  4  1  0
  2  1  1  1
  2  3  1  0
  5  4  1  0
  5  6  1  6
  7  5  1  0
  8  7  2  0
  9  7  1  0
 10  9  1  0
 11 10  1  0
 11 13  1  0
 12 11  2  0
 14 15  1  1
 14 25  1  0
 14 13  1  0
 16 15  1  0
 16 17  2  0
 18 17  1  0
 19 24  2  0
 19 18  1  0
 20 19  1  0
 21 22  1  0
 21 20  2  0
 22 23  2  0
 23 24  1  0
 24 16  1  0
 25 26  1  0
 27 25  2  0
M  END
$$$$
