LGW.pdb
     RDKit          3D

 27 28  0  0  1  0  0  0  0  0999 V2000
    7.7800  -11.9609   20.8192 C   0  0  0  0  0  0  0  0  0  0  0  0
    7.9041  -13.4093   20.4684 C   0  0  1  0  0  0  0  0  0  0  0  0
    7.6828  -13.6038   18.9671 C   0  0  0  0  0  0  0  0  0  0  0  0
    9.1871  -14.0460   20.8296 C   0  0  0  0  0  0  0  0  0  0  0  0
    9.2531  -15.5053   20.5984 C   0  0  2  0  0  0  0  0  0  0  0  0
    8.0117  -16.1604   21.0235 N   0  0  0  0  0  0  0  0  0  0  0  0
   10.3937  -16.1589   21.2260 C   0  0  0  0  0  0  0  0  0  0  0  0
   11.5738  -15.7116   21.1715 O   0  0  0  0  0  0  0  0  0  0  0  0
   10.1922  -17.3753   21.9532 N   0  0  0  0  0  0  0  0  0  0  0  0
   11.3197  -18.0310   22.5362 C   0  0  0  0  0  0  0  0  0  0  0  0
   11.3329  -17.7947   24.0157 C   0  0  0  0  0  0  0  0  0  0  0  0
   12.3056  -18.1929   24.7043 O   0  0  0  0  0  0  0  0  0  0  0  0
   10.2620  -17.1238   24.6823 N   0  0  0  0  0  0  0  0  0  0  0  0
   10.3874  -16.8561   26.0831 C   0  0  1  0  0  0  0  0  0  0  0  0
    9.8795  -15.5269   26.4670 C   0  0  0  0  0  0  0  0  0  0  0  0
    8.4559  -15.2738   26.2504 C   0  0  0  0  0  0  0  0  0  0  0  0
    7.3643  -16.0978   26.0951 C   0  0  0  0  0  0  0  0  0  0  0  0
    6.2372  -15.3527   25.9347 N   0  0  0  0  0  0  0  0  0  0  0  0
    6.5610  -14.0367   25.9807 C   0  0  0  0  0  0  0  0  0  0  0  0
    5.7709  -12.9111   25.8702 C   0  0  0  0  0  0  0  0  0  0  0  0
    6.3545  -11.6719   25.9555 C   0  0  0  0  0  0  0  0  0  0  0  0
    7.7142  -11.5784   26.1490 C   0  0  0  0  0  0  0  0  0  0  0  0
    8.4985  -12.7263   26.2582 C   0  0  0  0  0  0  0  0  0  0  0  0
    7.9204  -13.9758   26.1740 C   0  0  0  0  0  0  0  0  0  0  0  0
    9.7848  -17.9350   26.9177 C   0  0  0  0  0  0  0  0  0  0  0  0
   10.0382  -18.0023   28.2661 O   0  0  0  0  0  0  0  0  0  0  0  0
    9.0485  -18.7705   26.3740 O   0  0  0  0  0  0  0  0  0  0  0  0
  2  4  1  0
  2  1  1  6
  2  3  1  0
  5  4  1  0
  5  6  1  1
  7  5  1  0
  8  7  2  0
  9  7  1  0
 10  9  1  0
 11 10  1  0
 11 13  1  0
 12 11  2  0
 14 15  1  6
 14 25  1  0
 14 13  1  0
 16 15  1  0
 16 17  2  0
 18 17  1  0
 19 24  2  0
 19 18  1  0
 20 19  1  0
 21 22  1  0
 21 20  2  0
 22 23  2  0
 23 24  1  0
 24 16  1  0
 25 26  1  0
 27 25  2  0
M  END
$$$$
