LGW.pdb
     RDKit          3D

 27 28  0  0  1  0  0  0  0  0999 V2000
    6.6742  -13.9586   21.6475 C   0  0  0  0  0  0  0  0  0  0  0  0
    7.5266  -13.6325   20.4630 C   0  0  1  0  0  0  0  0  0  0  0  0
    7.7361  -12.1198   20.3710 C   0  0  0  0  0  0  0  0  0  0  0  0
    8.8528  -14.2823   20.4325 C   0  0  0  0  0  0  0  0  0  0  0  0
    8.8291  -15.7582   20.3405 C   0  0  2  0  0  0  0  0  0  0  0  0
    7.5464  -16.2923   20.8099 N   0  0  0  0  0  0  0  0  0  0  0  0
    9.9225  -16.4184   21.0410 C   0  0  0  0  0  0  0  0  0  0  0  0
   11.1309  -16.0629   20.9452 O   0  0  0  0  0  0  0  0  0  0  0  0
    9.6379  -17.5323   21.8937 N   0  0  0  0  0  0  0  0  0  0  0  0
   10.7232  -18.2756   22.4511 C   0  0  0  0  0  0  0  0  0  0  0  0
   10.9682  -17.8322   23.8612 C   0  0  0  0  0  0  0  0  0  0  0  0
   11.9953  -18.2230   24.4705 O   0  0  0  0  0  0  0  0  0  0  0  0
   10.0612  -16.9690   24.5492 N   0  0  0  0  0  0  0  0  0  0  0  0
   10.4019  -16.5278   25.8679 C   0  0  1  0  0  0  0  0  0  0  0  0
    9.8622  -15.1948   26.1907 C   0  0  0  0  0  0  0  0  0  0  0  0
    8.4469  -14.9660   25.9041 C   0  0  0  0  0  0  0  0  0  0  0  0
    7.4133  -15.7963   25.5337 C   0  0  0  0  0  0  0  0  0  0  0  0
    6.2639  -15.0798   25.4039 N   0  0  0  0  0  0  0  0  0  0  0  0
    6.5153  -13.7769   25.6835 C   0  0  0  0  0  0  0  0  0  0  0  0
    5.6783  -12.6802   25.6900 C   0  0  0  0  0  0  0  0  0  0  0  0
    6.1896  -11.4492   26.0168 C   0  0  0  0  0  0  0  0  0  0  0  0
    7.5251  -11.3349   26.3305 C   0  0  0  0  0  0  0  0  0  0  0  0
    8.3575  -12.4537   26.3186 C   0  0  0  0  0  0  0  0  0  0  0  0
    7.8522  -13.6948   25.9918 C   0  0  0  0  0  0  0  0  0  0  0  0
   10.0389  -17.5326   26.9082 C   0  0  0  0  0  0  0  0  0  0  0  0
   10.5241  -17.4226   28.1885 O   0  0  0  0  0  0  0  0  0  0  0  0
    9.2890  -18.4694   26.5984 O   0  0  0  0  0  0  0  0  0  0  0  0
  2  4  1  0
  2  1  1  1
  2  3  1  0
  5  4  1  0
  5  6  1  1
  7  5  1  0
  8  7  2  0
  9  7  1  0
 10  9  1  0
 11 10  1  0
 11 13  1  0
 12 11  2  0
 14 15  1  1
 14 25  1  0
 14 13  1  0
 16 15  1  0
 16 17  2  0
 18 17  1  0
 19 24  2  0
 19 18  1  0
 20 19  1  0
 21 22  1  0
 21 20  2  0
 22 23  2  0
 23 24  1  0
 24 16  1  0
 25 26  1  0
 27 25  2  0
M  END
$$$$
