LGW.pdb
     RDKit          3D

 27 28  0  0  1  0  0  0  0  0999 V2000
    8.3754  -12.1251   20.3045 C   0  0  0  0  0  0  0  0  0  0  0  0
    8.1355  -13.5977   20.4056 C   0  0  1  0  0  0  0  0  0  0  0  0
    6.6527  -13.9017   20.1830 C   0  0  0  0  0  0  0  0  0  0  0  0
    8.9206  -14.4376   19.4782 C   0  0  0  0  0  0  0  0  0  0  0  0
    8.7712  -15.8965   19.6698 C   0  0  2  0  0  0  0  0  0  0  0  0
    7.3621  -16.2600   19.8521 N   0  0  0  0  0  0  0  0  0  0  0  0
    9.5647  -16.4399   20.7639 C   0  0  0  0  0  0  0  0  0  0  0  0
   10.8146  -16.2871   20.8651 O   0  0  0  0  0  0  0  0  0  0  0  0
    8.9154  -17.1899   21.7959 N   0  0  0  0  0  0  0  0  0  0  0  0
    9.7129  -17.8740   22.7640 C   0  0  0  0  0  0  0  0  0  0  0  0
    9.9640  -16.9768   23.9374 C   0  0  0  0  0  0  0  0  0  0  0  0
   10.5089  -15.8579   23.7643 O   0  0  0  0  0  0  0  0  0  0  0  0
    9.6021  -17.3543   25.2670 N   0  0  0  0  0  0  0  0  0  0  0  0
   10.2385  -16.6914   26.3648 C   0  0  1  0  0  0  0  0  0  0  0  0
    9.2902  -15.9821   27.2422 C   0  0  0  0  0  0  0  0  0  0  0  0
    8.0494  -15.5085   26.6310 C   0  0  0  0  0  0  0  0  0  0  0  0
    6.9654  -16.1511   26.0773 C   0  0  0  0  0  0  0  0  0  0  0  0
    6.0487  -15.2387   25.6549 N   0  0  0  0  0  0  0  0  0  0  0  0
    6.5063  -13.9899   25.9194 C   0  0  0  0  0  0  0  0  0  0  0  0
    5.9395  -12.7547   25.6816 C   0  0  0  0  0  0  0  0  0  0  0  0
    6.6197  -11.6226   26.0546 C   0  0  0  0  0  0  0  0  0  0  0  0
    7.8515  -11.7433   26.6571 C   0  0  0  0  0  0  0  0  0  0  0  0
    8.4103  -12.9996   26.8897 C   0  0  0  0  0  0  0  0  0  0  0  0
    7.7337  -14.1427   26.5185 C   0  0  0  0  0  0  0  0  0  0  0  0
   11.1213  -17.6094   27.1405 C   0  0  0  0  0  0  0  0  0  0  0  0
   11.9300  -17.1258   28.1400 O   0  0  0  0  0  0  0  0  0  0  0  0
   11.1118  -18.8186   26.8694 O   0  0  0  0  0  0  0  0  0  0  0  0
  2  4  1  0
  2  1  1  6
  2  3  1  0
  5  4  1  0
  5  6  1  1
  7  5  1  0
  8  7  2  0
  9  7  1  0
 10  9  1  0
 11 10  1  0
 11 13  1  0
 12 11  2  0
 14 15  1  1
 14 25  1  0
 14 13  1  0
 16 15  1  0
 16 17  2  0
 18 17  1  0
 19 24  2  0
 19 18  1  0
 20 19  1  0
 21 22  1  0
 21 20  2  0
 22 23  2  0
 23 24  1  0
 24 16  1  0
 25 26  1  0
 27 25  2  0
M  END
$$$$
