LGW.pdb
     RDKit          3D

 27 28  0  0  1  0  0  0  0  0999 V2000
    6.7783  -12.7428   17.7719 C   0  0  0  0  0  0  0  0  0  0  0  0
    7.9912  -13.3844   18.3665 C   0  0  1  0  0  0  0  0  0  0  0  0
    9.1609  -12.3983   18.3575 C   0  0  0  0  0  0  0  0  0  0  0  0
    7.8328  -13.8961   19.7431 C   0  0  0  0  0  0  0  0  0  0  0  0
    9.0400  -14.5211   20.3256 C   0  0  2  0  0  0  0  0  0  0  0  0
    9.7910  -15.2615   19.3064 N   0  0  0  0  0  0  0  0  0  0  0  0
    8.7736  -15.3873   21.4661 C   0  0  0  0  0  0  0  0  0  0  0  0
    8.0532  -15.0504   22.4475 O   0  0  0  0  0  0  0  0  0  0  0  0
    9.3457  -16.6990   21.4991 N   0  0  0  0  0  0  0  0  0  0  0  0
    9.0829  -17.5434   22.6212 C   0  0  0  0  0  0  0  0  0  0  0  0
    9.7250  -16.9694   23.8473 C   0  0  0  0  0  0  0  0  0  0  0  0
   10.6447  -16.1208   23.7332 O   0  0  0  0  0  0  0  0  0  0  0  0
    9.3241  -17.3594   25.1620 N   0  0  0  0  0  0  0  0  0  0  0  0
   10.0168  -16.8010   26.2836 C   0  0  1  0  0  0  0  0  0  0  0  0
    9.1183  -16.1532   27.2558 C   0  0  0  0  0  0  0  0  0  0  0  0
    7.9058  -15.5319   26.7255 C   0  0  0  0  0  0  0  0  0  0  0  0
    6.7202  -16.0380   26.2430 C   0  0  0  0  0  0  0  0  0  0  0  0
    5.8928  -15.0207   25.8800 N   0  0  0  0  0  0  0  0  0  0  0  0
    6.5109  -13.8366   26.1139 C   0  0  0  0  0  0  0  0  0  0  0  0
    6.0803  -12.5414   25.9125 C   0  0  0  0  0  0  0  0  0  0  0  0
    6.9121  -11.5003   26.2405 C   0  0  0  0  0  0  0  0  0  0  0  0
    8.1570  -11.7699   26.7625 C   0  0  0  0  0  0  0  0  0  0  0  0
    8.5769  -13.0851   26.9593 C   0  0  0  0  0  0  0  0  0  0  0  0
    7.7474  -14.1376   26.6329 C   0  0  0  0  0  0  0  0  0  0  0  0
   10.9124  -17.7946   26.9427 C   0  0  0  0  0  0  0  0  0  0  0  0
   11.7832  -17.4059   27.9313 O   0  0  0  0  0  0  0  0  0  0  0  0
   10.8566  -18.9797   26.5844 O   0  0  0  0  0  0  0  0  0  0  0  0
  2  4  1  0
  2  1  1  1
  2  3  1  0
  5  4  1  0
  5  6  1  6
  7  5  1  0
  8  7  2  0
  9  7  1  0
 10  9  1  0
 11 10  1  0
 11 13  1  0
 12 11  2  0
 14 15  1  1
 14 25  1  0
 14 13  1  0
 16 15  1  0
 16 17  2  0
 18 17  1  0
 19 24  2  0
 19 18  1  0
 20 19  1  0
 21 22  1  0
 21 20  2  0
 22 23  2  0
 23 24  1  0
 24 16  1  0
 25 26  1  0
 27 25  2  0
M  END
$$$$
