LGW.pdb
     RDKit          3D

 27 28  0  0  1  0  0  0  0  0999 V2000
    7.5043  -12.0754   21.4374 C   0  0  0  0  0  0  0  0  0  0  0  0
    7.6116  -13.5339   21.1252 C   0  0  1  0  0  0  0  0  0  0  0  0
    6.9882  -13.8227   19.7583 C   0  0  0  0  0  0  0  0  0  0  0  0
    8.9804  -14.0892   21.1320 C   0  0  0  0  0  0  0  0  0  0  0  0
    9.0617  -15.5651   21.0829 C   0  0  2  0  0  0  0  0  0  0  0  0
    7.8709  -16.1761   21.6826 N   0  0  0  0  0  0  0  0  0  0  0  0
   10.2607  -16.1185   21.6977 C   0  0  0  0  0  0  0  0  0  0  0  0
   11.3976  -15.5720   21.6305 O   0  0  0  0  0  0  0  0  0  0  0  0
   10.1718  -17.3473   22.4266 N   0  0  0  0  0  0  0  0  0  0  0  0
   11.3586  -17.9072   22.9917 C   0  0  0  0  0  0  0  0  0  0  0  0
   11.4077  -17.6114   24.4597 C   0  0  0  0  0  0  0  0  0  0  0  0
   12.4430  -17.8822   25.1183 O   0  0  0  0  0  0  0  0  0  0  0  0
   10.3020  -17.0251   25.1488 N   0  0  0  0  0  0  0  0  0  0  0  0
   10.4419  -16.7295   26.5426 C   0  0  1  0  0  0  0  0  0  0  0  0
    9.8176  -15.4517   26.9297 C   0  0  0  0  0  0  0  0  0  0  0  0
    8.5068  -15.1539   26.3548 C   0  0  0  0  0  0  0  0  0  0  0  0
    7.5187  -15.9376   25.8031 C   0  0  0  0  0  0  0  0  0  0  0  0
    6.4670  -15.1623   25.4233 N   0  0  0  0  0  0  0  0  0  0  0  0
    6.7390  -13.8661   25.7144 C   0  0  0  0  0  0  0  0  0  0  0  0
    5.9893  -12.7241   25.5218 C   0  0  0  0  0  0  0  0  0  0  0  0
    6.5011  -11.5127   25.9140 C   0  0  0  0  0  0  0  0  0  0  0  0
    7.7502  -11.4626   26.4902 C   0  0  0  0  0  0  0  0  0  0  0  0
    8.4951  -12.6266   26.6773 C   0  0  0  0  0  0  0  0  0  0  0  0
    7.9885  -13.8485   26.2865 C   0  0  0  0  0  0  0  0  0  0  0  0
    9.9731  -17.8520   27.4051 C   0  0  0  0  0  0  0  0  0  0  0  0
   10.2537  -17.8672   28.7497 O   0  0  0  0  0  0  0  0  0  0  0  0
    9.3230  -18.7717   26.8882 O   0  0  0  0  0  0  0  0  0  0  0  0
  2  4  1  0
  2  1  1  6
  2  3  1  0
  5  4  1  0
  5  6  1  1
  7  5  1  0
  8  7  2  0
  9  7  1  0
 10  9  1  0
 11 10  1  0
 11 13  1  0
 12 11  2  0
 14 15  1  1
 14 25  1  0
 14 13  1  0
 16 15  1  0
 16 17  2  0
 18 17  1  0
 19 24  2  0
 19 18  1  0
 20 19  1  0
 21 22  1  0
 21 20  2  0
 22 23  2  0
 23 24  1  0
 24 16  1  0
 25 26  1  0
 27 25  2  0
M  END
$$$$
