CIF.pdb
     RDKit          3D

 26 26  0  0  1  0  0  0  0  0999 V2000
   12.2388  -17.5511   18.6950 N   0  0  0  0  0  0  0  0  0  0  0  0
   11.0035  -17.8632   19.3552 C   0  0  1  0  0  0  0  0  0  0  0  0
   11.1863  -19.1856   20.0784 C   0  0  0  0  0  0  0  0  0  0  0  0
    9.6063  -19.5809   20.8818 S   0  0  0  0  0  0  0  0  0  0  0  0
   10.6018  -16.7885   20.2971 C   0  0  0  0  0  0  0  0  0  0  0  0
   11.4720  -16.2042   20.9470 O   0  0  0  0  0  0  0  0  0  0  0  0
    6.7591  -12.9753   19.2235 C   0  0  0  0  0  0  0  0  0  0  0  0
    8.0451  -13.7131   19.6316 C   0  0  0  0  0  0  0  0  0  0  0  0
    7.7055  -14.5258   20.8214 C   0  0  2  0  0  0  0  0  0  0  0  0
    7.2679  -13.5741   21.9456 C   0  0  0  0  0  0  0  0  0  0  0  0
    8.7335  -15.4589   21.3391 C   0  0  2  0  0  0  0  0  0  0  0  0
    9.2234  -16.4424   20.4426 N   0  0  0  0  0  0  0  0  0  0  0  0
    8.4720  -15.9482   22.7356 C   0  0  0  0  0  0  0  0  0  0  0  0
    7.9034  -17.0667   22.8161 O   0  0  0  0  0  0  0  0  0  0  0  0
    8.8027  -15.2694   23.9009 N   0  0  0  0  0  0  0  0  0  0  0  0
    8.8141  -15.8675   25.2355 C   0  0  1  0  0  0  0  0  0  0  0  0
    9.1687  -14.8642   26.2793 C   0  0  0  0  0  0  0  0  0  0  0  0
    8.1618  -13.7853   26.3592 C   0  0  0  0  0  0  0  0  0  0  0  0
    7.5991  -13.4038   27.5828 C   0  0  0  0  0  0  0  0  0  0  0  0
    6.6798  -12.3901   27.7067 C   0  0  0  0  0  0  0  0  0  0  0  0
    6.2873  -11.7100   26.5714 C   0  0  0  0  0  0  0  0  0  0  0  0
    6.8366  -12.0792   25.3622 C   0  0  0  0  0  0  0  0  0  0  0  0
    7.7586  -13.0921   25.2203 C   0  0  0  0  0  0  0  0  0  0  0  0
    7.5079  -16.4747   25.5279 C   0  0  0  0  0  0  0  0  0  0  0  0
    6.3791  -16.3622   24.7443 O   0  0  0  0  0  0  0  0  0  0  0  0
    7.3918  -17.1558   26.5788 O   0  0  0  0  0  0  0  0  0  0  0  0
  2  1  1  1
  3  2  1  0
  3  4  1  0
  5  2  1  0
  5  6  2  0
  7  8  1  0
  9  8  1  0
  9 11  1  0
  9 10  1  1
 11 12  1  6
 12  5  1  0
 13 11  1  0
 13 15  1  0
 14 13  2  0
 16 15  1  0
 16 24  1  0
 16 17  1  1
 18 17  1  0
 19 18  2  0
 20 19  1  0
 21 22  1  0
 21 20  2  0
 22 23  2  0
 23 18  1  0
 24 26  2  0
 24 25  1  0
M  END
$$$$
