CIF.pdb
     RDKit          3D

 26 26  0  0  1  0  0  0  0  0999 V2000
    6.5544  -19.8246   21.0303 N   0  0  0  0  0  0  0  0  0  0  0  0
    6.3474  -18.8059   22.0196 C   0  0  1  0  0  0  0  0  0  0  0  0
    6.2436  -19.4881   23.3719 C   0  0  0  0  0  0  0  0  0  0  0  0
    5.8074  -18.2098   24.5859 S   0  0  0  0  0  0  0  0  0  0  0  0
    7.4423  -17.8036   22.0077 C   0  0  0  0  0  0  0  0  0  0  0  0
    8.5992  -18.1814   21.8084 O   0  0  0  0  0  0  0  0  0  0  0  0
    6.7394  -12.4981   20.2633 C   0  0  0  0  0  0  0  0  0  0  0  0
    7.2735  -13.9313   20.4229 C   0  0  0  0  0  0  0  0  0  0  0  0
    7.7412  -14.0537   21.8220 C   0  0  2  0  0  0  0  0  0  0  0  0
    8.9132  -13.0809   22.0247 C   0  0  0  0  0  0  0  0  0  0  0  0
    8.1290  -15.3989   22.3074 C   0  0  2  0  0  0  0  0  0  0  0  0
    7.1506  -16.4221   22.2252 N   0  0  0  0  0  0  0  0  0  0  0  0
    8.9277  -15.3864   23.5801 C   0  0  0  0  0  0  0  0  0  0  0  0
   10.0407  -14.8056   23.5112 O   0  0  0  0  0  0  0  0  0  0  0  0
    8.5327  -15.9562   24.7833 N   0  0  0  0  0  0  0  0  0  0  0  0
    9.3004  -15.8875   26.0262 C   0  0  1  0  0  0  0  0  0  0  0  0
    8.4589  -15.4123   27.1610 C   0  0  0  0  0  0  0  0  0  0  0  0
    7.9389  -14.0504   26.9178 C   0  0  0  0  0  0  0  0  0  0  0  0
    8.7625  -12.9248   27.0364 C   0  0  0  0  0  0  0  0  0  0  0  0
    8.3281  -11.6437   26.7951 C   0  0  0  0  0  0  0  0  0  0  0  0
    7.0147  -11.4503   26.4165 C   0  0  0  0  0  0  0  0  0  0  0  0
    6.1967  -12.5535   26.2973 C   0  0  0  0  0  0  0  0  0  0  0  0
    6.6157  -13.8435   26.5351 C   0  0  0  0  0  0  0  0  0  0  0  0
    9.8836  -17.2013   26.3328 C   0  0  0  0  0  0  0  0  0  0  0  0
    9.7996  -18.3211   25.5329 O   0  0  0  0  0  0  0  0  0  0  0  0
   10.5138  -17.3336   27.4131 O   0  0  0  0  0  0  0  0  0  0  0  0
  2  1  1  6
  3  2  1  0
  3  4  1  0
  5  2  1  0
  5  6  2  0
  7  8  1  0
  9  8  1  0
  9 11  1  0
  9 10  1  6
 11 12  1  1
 12  5  1  0
 13 11  1  0
 13 15  1  0
 14 13  2  0
 16 15  1  0
 16 24  1  0
 16 17  1  1
 18 17  1  0
 19 18  2  0
 20 19  1  0
 21 22  1  0
 21 20  2  0
 22 23  2  0
 23 18  1  0
 24 26  2  0
 24 25  1  0
M  END
$$$$
