CIF.pdb
     RDKit          3D

 26 26  0  0  1  0  0  0  0  0999 V2000
    6.2939  -19.8988   20.6004 N   0  0  0  0  0  0  0  0  0  0  0  0
    6.1954  -18.9305   21.6548 C   0  0  1  0  0  0  0  0  0  0  0  0
    6.2474  -19.6773   22.9756 C   0  0  0  0  0  0  0  0  0  0  0  0
    5.7938  -18.4961   24.2783 S   0  0  0  0  0  0  0  0  0  0  0  0
    7.2777  -17.9182   21.5686 C   0  0  0  0  0  0  0  0  0  0  0  0
    8.4076  -18.2757   21.2271 O   0  0  0  0  0  0  0  0  0  0  0  0
    7.8760  -12.0372   20.2294 C   0  0  0  0  0  0  0  0  0  0  0  0
    8.5891  -13.2314   20.8852 C   0  0  0  0  0  0  0  0  0  0  0  0
    7.5469  -14.2465   21.1587 C   0  0  2  0  0  0  0  0  0  0  0  0
    6.4345  -13.5836   21.9858 C   0  0  0  0  0  0  0  0  0  0  0  0
    7.9637  -15.5073   21.8159 C   0  0  2  0  0  0  0  0  0  0  0  0
    7.0052  -16.5506   21.8789 N   0  0  0  0  0  0  0  0  0  0  0  0
    8.7691  -15.3101   23.0691 C   0  0  0  0  0  0  0  0  0  0  0  0
    9.7895  -14.5861   22.9445 O   0  0  0  0  0  0  0  0  0  0  0  0
    8.4726  -15.8575   24.3103 N   0  0  0  0  0  0  0  0  0  0  0  0
    9.3067  -15.7118   25.5028 C   0  0  1  0  0  0  0  0  0  0  0  0
    8.4887  -15.3736   26.7020 C   0  0  0  0  0  0  0  0  0  0  0  0
    7.8197  -14.0645   26.5510 C   0  0  0  0  0  0  0  0  0  0  0  0
    6.4511  -13.9742   26.2716 C   0  0  0  0  0  0  0  0  0  0  0  0
    5.7837  -12.7794   26.1484 C   0  0  0  0  0  0  0  0  0  0  0  0
    6.4928  -11.6057   26.3070 C   0  0  0  0  0  0  0  0  0  0  0  0
    7.8412  -11.6854   26.5824 C   0  0  0  0  0  0  0  0  0  0  0  0
    8.5252  -12.8739   26.7091 C   0  0  0  0  0  0  0  0  0  0  0  0
   10.0757  -16.9427   25.7347 C   0  0  0  0  0  0  0  0  0  0  0  0
    9.9547  -18.1106   25.0120 O   0  0  0  0  0  0  0  0  0  0  0  0
   10.9177  -16.9495   26.6688 O   0  0  0  0  0  0  0  0  0  0  0  0
  2  1  1  6
  3  2  1  0
  3  4  1  0
  5  2  1  0
  5  6  2  0
  7  8  1  0
  9  8  1  0
  9 11  1  0
  9 10  1  1
 11 12  1  1
 12  5  1  0
 13 11  1  0
 13 15  1  0
 14 13  2  0
 16 15  1  0
 16 24  1  0
 16 17  1  1
 18 17  1  0
 19 18  2  0
 20 19  1  0
 21 22  1  0
 21 20  2  0
 22 23  2  0
 23 18  1  0
 24 26  2  0
 24 25  1  0
M  END
$$$$
