CIF.pdb
     RDKit          3D

 26 26  0  0  1  0  0  0  0  0999 V2000
    5.2123  -18.9317   22.9438 N   0  0  0  0  0  0  0  0  0  0  0  0
    5.9144  -18.4852   24.1129 C   0  0  1  0  0  0  0  0  0  0  0  0
    6.7188  -19.6575   24.6458 C   0  0  0  0  0  0  0  0  0  0  0  0
    7.5700  -19.0870   26.1451 S   0  0  0  0  0  0  0  0  0  0  0  0
    6.7915  -17.3258   23.8128 C   0  0  0  0  0  0  0  0  0  0  0  0
    7.5386  -17.3766   22.8329 O   0  0  0  0  0  0  0  0  0  0  0  0
    5.7506  -12.6824   26.7228 C   0  0  0  0  0  0  0  0  0  0  0  0
    5.9395  -13.3988   25.3752 C   0  0  0  0  0  0  0  0  0  0  0  0
    7.3438  -13.8657   25.3391 C   0  0  2  0  0  0  0  0  0  0  0  0
    8.2269  -12.6995   24.8685 C   0  0  0  0  0  0  0  0  0  0  0  0
    7.6521  -15.0716   24.5354 C   0  0  2  0  0  0  0  0  0  0  0  0
    6.7640  -16.1709   24.6533 N   0  0  0  0  0  0  0  0  0  0  0  0
    9.1099  -15.4349   24.5066 C   0  0  0  0  0  0  0  0  0  0  0  0
    9.7537  -14.9985   23.5187 O   0  0  0  0  0  0  0  0  0  0  0  0
    9.7683  -16.1958   25.4635 N   0  0  0  0  0  0  0  0  0  0  0  0
   11.1891  -16.5400   25.4172 C   0  0  1  0  0  0  0  0  0  0  0  0
   12.0162  -15.5396   26.1499 C   0  0  0  0  0  0  0  0  0  0  0  0
   11.3886  -15.1498   27.4299 C   0  0  0  0  0  0  0  0  0  0  0  0
   10.5819  -14.0100   27.5278 C   0  0  0  0  0  0  0  0  0  0  0  0
    9.9587  -13.6247   28.6902 C   0  0  0  0  0  0  0  0  0  0  0  0
   10.1329  -14.3960   29.8218 C   0  0  0  0  0  0  0  0  0  0  0  0
   10.9258  -15.5203   29.7342 C   0  0  0  0  0  0  0  0  0  0  0  0
   11.5572  -15.9206   28.5777 C   0  0  0  0  0  0  0  0  0  0  0  0
   11.4010  -17.8859   25.9685 C   0  0  0  0  0  0  0  0  0  0  0  0
   12.6193  -18.5205   26.0858 O   0  0  0  0  0  0  0  0  0  0  0  0
   10.3967  -18.5278   26.3697 O   0  0  0  0  0  0  0  0  0  0  0  0
  2  1  1  6
  3  2  1  0
  3  4  1  0
  5  2  1  0
  5  6  2  0
  7  8  1  0
  9  8  1  0
  9 11  1  0
  9 10  1  6
 11 12  1  1
 12  5  1  0
 13 11  1  0
 13 15  1  0
 14 13  2  0
 16 15  1  0
 16 24  1  0
 16 17  1  1
 18 17  1  0
 19 18  2  0
 20 19  1  0
 21 22  1  0
 21 20  2  0
 22 23  2  0
 23 18  1  0
 24 26  2  0
 24 25  1  0
M  END
$$$$
