CIF.pdb
     RDKit          3D

 26 26  0  0  1  0  0  0  0  0999 V2000
    6.3612  -19.4424   20.4636 N   0  0  0  0  0  0  0  0  0  0  0  0
    6.1493  -18.5415   21.5602 C   0  0  1  0  0  0  0  0  0  0  0  0
    6.0613  -19.3699   22.8295 C   0  0  0  0  0  0  0  0  0  0  0  0
    5.6920  -18.2272   24.1918 S   0  0  0  0  0  0  0  0  0  0  0  0
    7.2331  -17.5315   21.6536 C   0  0  0  0  0  0  0  0  0  0  0  0
    8.4071  -17.9035   21.5869 O   0  0  0  0  0  0  0  0  0  0  0  0
    6.8234  -12.3950   19.6515 C   0  0  0  0  0  0  0  0  0  0  0  0
    7.3817  -13.7904   19.9771 C   0  0  0  0  0  0  0  0  0  0  0  0
    7.6332  -13.8142   21.4358 C   0  0  2  0  0  0  0  0  0  0  0  0
    8.8214  -12.8868   21.7345 C   0  0  0  0  0  0  0  0  0  0  0  0
    7.8624  -15.1297   22.0776 C   0  0  2  0  0  0  0  0  0  0  0  0
    6.9115  -16.1494   21.8186 N   0  0  0  0  0  0  0  0  0  0  0  0
    8.3281  -15.0450   23.5038 C   0  0  0  0  0  0  0  0  0  0  0  0
    8.2413  -13.9071   24.0314 O   0  0  0  0  0  0  0  0  0  0  0  0
    8.8325  -16.1023   24.2494 N   0  0  0  0  0  0  0  0  0  0  0  0
    9.2844  -15.9990   25.6366 C   0  0  1  0  0  0  0  0  0  0  0  0
    8.1505  -15.7064   26.5587 C   0  0  0  0  0  0  0  0  0  0  0  0
    7.8086  -14.2686   26.5591 C   0  0  0  0  0  0  0  0  0  0  0  0
    6.5040  -13.8305   26.3030 C   0  0  0  0  0  0  0  0  0  0  0  0
    6.1364  -12.5065   26.3185 C   0  0  0  0  0  0  0  0  0  0  0  0
    7.0971  -11.5560   26.5999 C   0  0  0  0  0  0  0  0  0  0  0  0
    8.3845  -11.9789   26.8534 C   0  0  0  0  0  0  0  0  0  0  0  0
    8.7696  -13.3009   26.8422 C   0  0  0  0  0  0  0  0  0  0  0  0
    9.9683  -17.2364   26.0383 C   0  0  0  0  0  0  0  0  0  0  0  0
   10.5869  -17.4517   27.2516 O   0  0  0  0  0  0  0  0  0  0  0  0
   10.0039  -18.1884   25.2174 O   0  0  0  0  0  0  0  0  0  0  0  0
  2  1  1  6
  3  2  1  0
  3  4  1  0
  5  2  1  0
  5  6  2  0
  7  8  1  0
  9  8  1  0
  9 11  1  0
  9 10  1  6
 11 12  1  1
 12  5  1  0
 13 11  1  0
 13 15  1  0
 14 13  2  0
 16 15  1  0
 16 24  1  0
 16 17  1  1
 18 17  1  0
 19 18  2  0
 20 19  1  0
 21 22  1  0
 21 20  2  0
 22 23  2  0
 23 18  1  0
 24 26  2  0
 24 25  1  0
M  END
$$$$
