CIF.pdb
     RDKit          3D

 26 26  0  0  1  0  0  0  0  0999 V2000
    5.4140  -18.9415   20.3057 N   0  0  0  0  0  0  0  0  0  0  0  0
    5.5013  -18.0893   21.4569 C   0  0  1  0  0  0  0  0  0  0  0  0
    5.4966  -18.9750   22.6900 C   0  0  0  0  0  0  0  0  0  0  0  0
    5.6318  -17.8837   24.1352 S   0  0  0  0  0  0  0  0  0  0  0  0
    6.7160  -17.2372   21.4139 C   0  0  0  0  0  0  0  0  0  0  0  0
    7.8110  -17.7639   21.2031 O   0  0  0  0  0  0  0  0  0  0  0  0
    7.3174  -12.2209   19.2552 C   0  0  0  0  0  0  0  0  0  0  0  0
    7.4492  -13.6897   19.6912 C   0  0  0  0  0  0  0  0  0  0  0  0
    7.7337  -13.6745   21.1439 C   0  0  2  0  0  0  0  0  0  0  0  0
    9.0951  -12.9958   21.3607 C   0  0  0  0  0  0  0  0  0  0  0  0
    7.7072  -14.9667   21.8683 C   0  0  2  0  0  0  0  0  0  0  0  0
    6.6086  -15.8269   21.6150 N   0  0  0  0  0  0  0  0  0  0  0  0
    8.1182  -14.8714   23.3105 C   0  0  0  0  0  0  0  0  0  0  0  0
    7.6314  -13.9017   23.9457 O   0  0  0  0  0  0  0  0  0  0  0  0
    8.9718  -15.7507   23.9634 N   0  0  0  0  0  0  0  0  0  0  0  0
    9.2768  -15.7044   25.3931 C   0  0  1  0  0  0  0  0  0  0  0  0
    8.0416  -15.8281   26.2181 C   0  0  0  0  0  0  0  0  0  0  0  0
    7.4400  -14.5070   26.4958 C   0  0  0  0  0  0  0  0  0  0  0  0
    8.2246  -13.4198   26.8980 C   0  0  0  0  0  0  0  0  0  0  0  0
    7.7115  -12.1687   27.1419 C   0  0  0  0  0  0  0  0  0  0  0  0
    6.3549  -11.9673   26.9842 C   0  0  0  0  0  0  0  0  0  0  0  0
    5.5748  -13.0326   26.5882 C   0  0  0  0  0  0  0  0  0  0  0  0
    6.0726  -14.2923   26.3396 C   0  0  0  0  0  0  0  0  0  0  0  0
   10.2353  -16.7634   25.7395 C   0  0  0  0  0  0  0  0  0  0  0  0
   10.7021  -17.7339   24.8786 O   0  0  0  0  0  0  0  0  0  0  0  0
   10.6752  -16.8039   26.9170 O   0  0  0  0  0  0  0  0  0  0  0  0
  2  1  1  6
  3  2  1  0
  3  4  1  0
  5  2  1  0
  5  6  2  0
  7  8  1  0
  9  8  1  0
  9 11  1  0
  9 10  1  6
 11 12  1  1
 12  5  1  0
 13 11  1  0
 13 15  1  0
 14 13  2  0
 16 15  1  0
 16 24  1  0
 16 17  1  1
 18 17  1  0
 19 18  2  0
 20 19  1  0
 21 22  1  0
 21 20  2  0
 22 23  2  0
 23 18  1  0
 24 26  2  0
 24 25  1  0
M  END
$$$$
