CIF.pdb
     RDKit          3D

 26 26  0  0  1  0  0  0  0  0999 V2000
   10.2990  -18.7465   18.6402 N   0  0  0  0  0  0  0  0  0  0  0  0
    9.1978  -18.5500   19.5390 C   0  0  1  0  0  0  0  0  0  0  0  0
    9.0366  -19.8183   20.3579 C   0  0  0  0  0  0  0  0  0  0  0  0
    8.2720  -21.0614   19.2771 S   0  0  0  0  0  0  0  0  0  0  0  0
    9.4121  -17.3706   20.4145 C   0  0  0  0  0  0  0  0  0  0  0  0
   10.5597  -17.0820   20.7619 O   0  0  0  0  0  0  0  0  0  0  0  0
    6.9198  -12.6141   19.5612 C   0  0  0  0  0  0  0  0  0  0  0  0
    7.9641  -13.7054   19.8498 C   0  0  0  0  0  0  0  0  0  0  0  0
    7.6720  -14.2202   21.2067 C   0  0  2  0  0  0  0  0  0  0  0  0
    7.9007  -13.0817   22.2129 C   0  0  0  0  0  0  0  0  0  0  0  0
    8.3978  -15.4300   21.6594 C   0  0  2  0  0  0  0  0  0  0  0  0
    8.2981  -16.5861   20.8441 N   0  0  0  0  0  0  0  0  0  0  0  0
    8.3035  -15.6864   23.1370 C   0  0  0  0  0  0  0  0  0  0  0  0
    7.2571  -16.2714   23.5159 O   0  0  0  0  0  0  0  0  0  0  0  0
    9.2605  -15.3300   24.0779 N   0  0  0  0  0  0  0  0  0  0  0  0
    9.1417  -15.5711   25.5156 C   0  0  1  0  0  0  0  0  0  0  0  0
    7.7261  -15.4669   25.9704 C   0  0  0  0  0  0  0  0  0  0  0  0
    7.2908  -14.0582   26.0713 C   0  0  0  0  0  0  0  0  0  0  0  0
    8.1997  -13.0346   26.3637 C   0  0  0  0  0  0  0  0  0  0  0  0
    7.8439  -11.7097   26.4419 C   0  0  0  0  0  0  0  0  0  0  0  0
    6.5255  -11.3642   26.2223 C   0  0  0  0  0  0  0  0  0  0  0  0
    5.6237  -12.3661   25.9338 C   0  0  0  0  0  0  0  0  0  0  0  0
    5.9633  -13.6981   25.8514 C   0  0  0  0  0  0  0  0  0  0  0  0
    9.6953  -16.8900   25.8539 C   0  0  0  0  0  0  0  0  0  0  0  0
   10.2150  -17.7952   24.9531 O   0  0  0  0  0  0  0  0  0  0  0  0
    9.7010  -17.2392   27.0620 O   0  0  0  0  0  0  0  0  0  0  0  0
  2  1  1  6
  3  2  1  0
  3  4  1  0
  5  2  1  0
  5  6  2  0
  7  8  1  0
  9  8  1  0
  9 11  1  0
  9 10  1  1
 11 12  1  6
 12  5  1  0
 13 11  1  0
 13 15  1  0
 14 13  2  0
 16 15  1  0
 16 24  1  0
 16 17  1  6
 18 17  1  0
 19 18  2  0
 20 19  1  0
 21 22  1  0
 21 20  2  0
 22 23  2  0
 23 18  1  0
 24 26  2  0
 24 25  1  0
M  END
$$$$
