CIF.pdb
     RDKit          3D

 26 26  0  0  1  0  0  0  0  0999 V2000
    6.9917  -19.3961   19.9704 N   0  0  0  0  0  0  0  0  0  0  0  0
    6.5971  -18.5669   21.0730 C   0  0  1  0  0  0  0  0  0  0  0  0
    6.4697  -19.4549   22.2979 C   0  0  0  0  0  0  0  0  0  0  0  0
    5.8211  -18.4229   23.6441 S   0  0  0  0  0  0  0  0  0  0  0  0
    7.5694  -17.4696   21.3056 C   0  0  0  0  0  0  0  0  0  0  0  0
    8.7749  -17.7012   21.1872 O   0  0  0  0  0  0  0  0  0  0  0  0
    7.0637  -12.2669   19.6188 C   0  0  0  0  0  0  0  0  0  0  0  0
    7.5418  -13.6908   19.9485 C   0  0  0  0  0  0  0  0  0  0  0  0
    7.6577  -13.7661   21.4223 C   0  0  2  0  0  0  0  0  0  0  0  0
    8.7198  -12.7517   21.8741 C   0  0  0  0  0  0  0  0  0  0  0  0
    7.9499  -15.0866   22.0274 C   0  0  2  0  0  0  0  0  0  0  0  0
    7.1059  -16.1659   21.6615 N   0  0  0  0  0  0  0  0  0  0  0  0
    8.3087  -15.0288   23.4854 C   0  0  0  0  0  0  0  0  0  0  0  0
    8.1610  -13.9060   24.0318 O   0  0  0  0  0  0  0  0  0  0  0  0
    8.7783  -16.0949   24.2411 N   0  0  0  0  0  0  0  0  0  0  0  0
    9.0215  -16.0476   25.6826 C   0  0  1  0  0  0  0  0  0  0  0  0
    7.7575  -15.8284   26.4415 C   0  0  0  0  0  0  0  0  0  0  0  0
    7.4042  -14.3947   26.5046 C   0  0  0  0  0  0  0  0  0  0  0  0
    6.1388  -13.9390   26.1165 C   0  0  0  0  0  0  0  0  0  0  0  0
    5.7592  -12.6200   26.1827 C   0  0  0  0  0  0  0  0  0  0  0  0
    6.6666  -11.6929   26.6547 C   0  0  0  0  0  0  0  0  0  0  0  0
    7.9151  -12.1332   27.0392 C   0  0  0  0  0  0  0  0  0  0  0  0
    8.3116  -13.4506   26.9795 C   0  0  0  0  0  0  0  0  0  0  0  0
    9.6791  -17.2855   26.1247 C   0  0  0  0  0  0  0  0  0  0  0  0
    9.8854  -18.4046   25.3463 O   0  0  0  0  0  0  0  0  0  0  0  0
   10.0926  -17.3471   27.3108 O   0  0  0  0  0  0  0  0  0  0  0  0
  2  1  1  6
  3  2  1  0
  3  4  1  0
  5  2  1  0
  5  6  2  0
  7  8  1  0
  9  8  1  0
  9 11  1  0
  9 10  1  6
 11 12  1  1
 12  5  1  0
 13 11  1  0
 13 15  1  0
 14 13  2  0
 16 15  1  0
 16 24  1  0
 16 17  1  1
 18 17  1  0
 19 18  2  0
 20 19  1  0
 21 22  1  0
 21 20  2  0
 22 23  2  0
 23 18  1  0
 24 26  2  0
 24 25  1  0
M  END
$$$$
