CIF.pdb
     RDKit          3D

 26 26  0  0  1  0  0  0  0  0999 V2000
   10.3819  -17.5807   17.9802 N   0  0  0  0  0  0  0  0  0  0  0  0
    9.6758  -17.6714   19.2261 C   0  0  1  0  0  0  0  0  0  0  0  0
   10.2154  -18.8754   19.9774 C   0  0  0  0  0  0  0  0  0  0  0  0
    9.2046  -20.3054   19.4963 S   0  0  0  0  0  0  0  0  0  0  0  0
    9.8217  -16.4304   20.0274 C   0  0  0  0  0  0  0  0  0  0  0  0
   10.3425  -15.4397   19.5094 O   0  0  0  0  0  0  0  0  0  0  0  0
    7.3745  -12.7998   19.5205 C   0  0  0  0  0  0  0  0  0  0  0  0
    8.4816  -13.7405   20.0245 C   0  0  0  0  0  0  0  0  0  0  0  0
    7.9846  -14.3404   21.2833 C   0  0  2  0  0  0  0  0  0  0  0  0
    7.5007  -13.2055   22.1992 C   0  0  0  0  0  0  0  0  0  0  0  0
    8.9026  -15.2246   22.0387 C   0  0  2  0  0  0  0  0  0  0  0  0
    9.3622  -16.3931   21.3796 N   0  0  0  0  0  0  0  0  0  0  0  0
    8.5228  -15.4177   23.4797 C   0  0  0  0  0  0  0  0  0  0  0  0
    7.3552  -15.8407   23.6764 O   0  0  0  0  0  0  0  0  0  0  0  0
    9.3462  -15.1661   24.5692 N   0  0  0  0  0  0  0  0  0  0  0  0
    9.0823  -15.6246   25.9328 C   0  0  1  0  0  0  0  0  0  0  0  0
    7.6492  -15.4439   26.3007 C   0  0  0  0  0  0  0  0  0  0  0  0
    7.2897  -14.0135   26.3963 C   0  0  0  0  0  0  0  0  0  0  0  0
    8.2669  -13.0279   26.5782 C   0  0  0  0  0  0  0  0  0  0  0  0
    7.9806  -11.6857   26.6469 C   0  0  0  0  0  0  0  0  0  0  0  0
    6.6654  -11.2826   26.5313 C   0  0  0  0  0  0  0  0  0  0  0  0
    5.6966  -12.2468   26.3518 C   0  0  0  0  0  0  0  0  0  0  0  0
    5.9661  -13.5954   26.2807 C   0  0  0  0  0  0  0  0  0  0  0  0
    9.4771  -17.0330   26.0774 C   0  0  0  0  0  0  0  0  0  0  0  0
    9.9932  -17.8268   25.0752 O   0  0  0  0  0  0  0  0  0  0  0  0
    9.3369  -17.5762   27.2029 O   0  0  0  0  0  0  0  0  0  0  0  0
  2  1  1  6
  3  2  1  0
  3  4  1  0
  5  2  1  0
  5  6  2  0
  7  8  1  0
  9  8  1  0
  9 11  1  0
  9 10  1  1
 11 12  1  6
 12  5  1  0
 13 11  1  0
 13 15  1  0
 14 13  2  0
 16 15  1  0
 16 24  1  0
 16 17  1  6
 18 17  1  0
 19 18  2  0
 20 19  1  0
 21 22  1  0
 21 20  2  0
 22 23  2  0
 23 18  1  0
 24 26  2  0
 24 25  1  0
M  END
$$$$
