CIF.pdb
     RDKit          3D

 26 26  0  0  1  0  0  0  0  0999 V2000
    8.6475  -19.2539   19.1474 N   0  0  0  0  0  0  0  0  0  0  0  0
    7.9600  -18.7569   20.3048 C   0  0  1  0  0  0  0  0  0  0  0  0
    8.0144  -19.8339   21.3735 C   0  0  0  0  0  0  0  0  0  0  0  0
    7.0036  -19.2577   22.7680 S   0  0  0  0  0  0  0  0  0  0  0  0
    8.5578  -17.4884   20.7914 C   0  0  0  0  0  0  0  0  0  0  0  0
    9.7848  -17.3638   20.7890 O   0  0  0  0  0  0  0  0  0  0  0  0
    6.3681  -12.4061   19.9653 C   0  0  0  0  0  0  0  0  0  0  0  0
    7.3402  -13.5956   20.0361 C   0  0  0  0  0  0  0  0  0  0  0  0
    7.4296  -13.9828   21.4622 C   0  0  2  0  0  0  0  0  0  0  0  0
    8.0057  -12.7949   22.2483 C   0  0  0  0  0  0  0  0  0  0  0  0
    8.1873  -15.2104   21.8002 C   0  0  2  0  0  0  0  0  0  0  0  0
    7.7156  -16.4314   21.2547 N   0  0  0  0  0  0  0  0  0  0  0  0
    8.6275  -15.2854   23.2350 C   0  0  0  0  0  0  0  0  0  0  0  0
    9.1306  -14.2308   23.6992 O   0  0  0  0  0  0  0  0  0  0  0  0
    8.5215  -16.4036   24.0514 N   0  0  0  0  0  0  0  0  0  0  0  0
    8.5714  -16.3724   25.5128 C   0  0  1  0  0  0  0  0  0  0  0  0
    7.2826  -15.8980   26.0921 C   0  0  0  0  0  0  0  0  0  0  0  0
    7.2909  -14.4362   26.3099 C   0  0  0  0  0  0  0  0  0  0  0  0
    6.1698  -13.6504   26.0185 C   0  0  0  0  0  0  0  0  0  0  0  0
    6.1247  -12.2933   26.2291 C   0  0  0  0  0  0  0  0  0  0  0  0
    7.2376  -11.6675   26.7541 C   0  0  0  0  0  0  0  0  0  0  0  0
    8.3460  -12.4340   27.0441 C   0  0  0  0  0  0  0  0  0  0  0  0
    8.4080  -13.7944   26.8394 C   0  0  0  0  0  0  0  0  0  0  0  0
    8.9114  -17.7035   26.0350 C   0  0  0  0  0  0  0  0  0  0  0  0
    9.1107  -18.8355   25.2735 O   0  0  0  0  0  0  0  0  0  0  0  0
    9.0322  -17.8400   27.2794 O   0  0  0  0  0  0  0  0  0  0  0  0
  2  1  1  6
  3  2  1  0
  3  4  1  0
  5  2  1  0
  5  6  2  0
  7  8  1  0
  9  8  1  0
  9 11  1  0
  9 10  1  1
 11 12  1  1
 12  5  1  0
 13 11  1  0
 13 15  1  0
 14 13  2  0
 16 15  1  0
 16 24  1  0
 16 17  1  1
 18 17  1  0
 19 18  2  0
 20 19  1  0
 21 22  1  0
 21 20  2  0
 22 23  2  0
 23 18  1  0
 24 26  2  0
 24 25  1  0
M  END
$$$$
