CIF.pdb
     RDKit          3D

 26 26  0  0  1  0  0  0  0  0999 V2000
    8.6533  -14.1974   17.6592 N   0  0  0  0  0  0  0  0  0  0  0  0
    8.7030  -13.8837   19.0586 C   0  0  1  0  0  0  0  0  0  0  0  0
    7.8263  -12.6661   19.2915 C   0  0  0  0  0  0  0  0  0  0  0  0
    8.0471  -12.1694   21.0243 S   0  0  0  0  0  0  0  0  0  0  0  0
    8.2596  -15.0302   19.8906 C   0  0  0  0  0  0  0  0  0  0  0  0
    7.4798  -15.8551   19.4086 O   0  0  0  0  0  0  0  0  0  0  0  0
    9.5129  -19.2444   19.5518 C   0  0  0  0  0  0  0  0  0  0  0  0
    8.7834  -17.9555   19.9660 C   0  0  0  0  0  0  0  0  0  0  0  0
    9.3263  -17.5700   21.2881 C   0  0  2  0  0  0  0  0  0  0  0  0
    9.2272  -18.7859   22.2223 C   0  0  0  0  0  0  0  0  0  0  0  0
    8.7408  -16.3855   21.9585 C   0  0  2  0  0  0  0  0  0  0  0  0
    8.7350  -15.1684   21.2308 N   0  0  0  0  0  0  0  0  0  0  0  0
    9.1105  -16.2549   23.4091 C   0  0  0  0  0  0  0  0  0  0  0  0
   10.3337  -16.0760   23.6386 O   0  0  0  0  0  0  0  0  0  0  0  0
    8.2223  -16.3192   24.4745 N   0  0  0  0  0  0  0  0  0  0  0  0
    8.5922  -16.1288   25.8766 C   0  0  1  0  0  0  0  0  0  0  0  0
    7.4444  -15.6178   26.6785 C   0  0  0  0  0  0  0  0  0  0  0  0
    7.2423  -14.1682   26.4740 C   0  0  0  0  0  0  0  0  0  0  0  0
    8.3243  -13.2813   26.4302 C   0  0  0  0  0  0  0  0  0  0  0  0
    8.1846  -11.9310   26.2170 C   0  0  0  0  0  0  0  0  0  0  0  0
    6.9162  -11.4172   26.0362 C   0  0  0  0  0  0  0  0  0  0  0  0
    5.8448  -12.2837   26.0777 C   0  0  0  0  0  0  0  0  0  0  0  0
    5.9671  -13.6388   26.2901 C   0  0  0  0  0  0  0  0  0  0  0  0
    9.0944  -17.3892   26.4420 C   0  0  0  0  0  0  0  0  0  0  0  0
    9.9510  -17.4996   27.5168 O   0  0  0  0  0  0  0  0  0  0  0  0
    8.7235  -18.4673   25.9113 O   0  0  0  0  0  0  0  0  0  0  0  0
  2  1  1  6
  3  2  1  0
  3  4  1  0
  5  2  1  0
  5  6  2  0
  7  8  1  0
  9  8  1  0
  9 11  1  0
  9 10  1  1
 11 12  1  6
 12  5  1  0
 13 11  1  0
 13 15  1  0
 14 13  2  0
 16 15  1  0
 16 24  1  0
 16 17  1  1
 18 17  1  0
 19 18  2  0
 20 19  1  0
 21 22  1  0
 21 20  2  0
 22 23  2  0
 23 18  1  0
 24 26  2  0
 24 25  1  0
M  END
$$$$
