CIF.pdb
     RDKit          3D

 26 26  0  0  1  0  0  0  0  0999 V2000
    6.5039  -15.0608   18.9693 N   0  0  0  0  0  0  0  0  0  0  0  0
    7.4677  -14.8284   20.0067 C   0  0  1  0  0  0  0  0  0  0  0  0
    7.5880  -13.3272   20.1989 C   0  0  0  0  0  0  0  0  0  0  0  0
    8.9364  -13.0439   21.3819 S   0  0  0  0  0  0  0  0  0  0  0  0
    7.0802  -15.5012   21.2718 C   0  0  0  0  0  0  0  0  0  0  0  0
    5.9150  -15.4127   21.6659 O   0  0  0  0  0  0  0  0  0  0  0  0
    6.7928  -20.4555   21.9902 C   0  0  0  0  0  0  0  0  0  0  0  0
    6.7101  -18.9201   21.9669 C   0  0  0  0  0  0  0  0  0  0  0  0
    7.5842  -18.4341   23.0584 C   0  0  2  0  0  0  0  0  0  0  0  0
    7.0651  -19.0119   24.3842 C   0  0  0  0  0  0  0  0  0  0  0  0
    7.7687  -16.9707   23.1982 C   0  0  2  0  0  0  0  0  0  0  0  0
    8.0507  -16.2393   22.0165 N   0  0  0  0  0  0  0  0  0  0  0  0
    8.5716  -16.5646   24.4017 C   0  0  0  0  0  0  0  0  0  0  0  0
    9.8175  -16.5421   24.2347 O   0  0  0  0  0  0  0  0  0  0  0  0
    8.0469  -16.2275   25.6424 N   0  0  0  0  0  0  0  0  0  0  0  0
    8.8478  -15.8954   26.8203 C   0  0  1  0  0  0  0  0  0  0  0  0
    8.1253  -14.9548   27.7230 C   0  0  0  0  0  0  0  0  0  0  0  0
    7.7120  -13.7280   27.0099 C   0  0  0  0  0  0  0  0  0  0  0  0
    6.3941  -13.5487   26.5735 C   0  0  0  0  0  0  0  0  0  0  0  0
    5.9605  -12.4146   25.9300 C   0  0  0  0  0  0  0  0  0  0  0  0
    6.8650  -11.3975   25.6995 C   0  0  0  0  0  0  0  0  0  0  0  0
    8.1650  -11.5659   26.1262 C   0  0  0  0  0  0  0  0  0  0  0  0
    8.6159  -12.6953   26.7722 C   0  0  0  0  0  0  0  0  0  0  0  0
    9.2160  -17.1214   27.5426 C   0  0  0  0  0  0  0  0  0  0  0  0
    8.7444  -18.3868   27.2646 O   0  0  0  0  0  0  0  0  0  0  0  0
   10.0267  -17.0259   28.4992 O   0  0  0  0  0  0  0  0  0  0  0  0
  2  1  1  6
  3  2  1  0
  3  4  1  0
  5  2  1  0
  5  6  2  0
  7  8  1  0
  9  8  1  0
  9 11  1  0
  9 10  1  1
 11 12  1  6
 12  5  1  0
 13 11  1  0
 13 15  1  0
 14 13  2  0
 16 15  1  0
 16 24  1  0
 16 17  1  1
 18 17  1  0
 19 18  2  0
 20 19  1  0
 21 22  1  0
 21 20  2  0
 22 23  2  0
 23 18  1  0
 24 26  2  0
 24 25  1  0
M  END
$$$$
