CIF.pdb
     RDKit          3D

 26 26  0  0  1  0  0  0  0  0999 V2000
    6.4388  -19.3418   20.1430 N   0  0  0  0  0  0  0  0  0  0  0  0
    6.0643  -18.3756   21.1357 C   0  0  1  0  0  0  0  0  0  0  0  0
    5.6360  -19.1326   22.3801 C   0  0  0  0  0  0  0  0  0  0  0  0
    5.0422  -17.9037   23.5782 S   0  0  0  0  0  0  0  0  0  0  0  0
    7.1778  -17.4404   21.4341 C   0  0  0  0  0  0  0  0  0  0  0  0
    8.3218  -17.8868   21.5477 O   0  0  0  0  0  0  0  0  0  0  0  0
    7.4200  -12.3380   19.2750 C   0  0  0  0  0  0  0  0  0  0  0  0
    7.6740  -13.7910   19.7101 C   0  0  0  0  0  0  0  0  0  0  0  0
    7.8115  -13.7719   21.1839 C   0  0  2  0  0  0  0  0  0  0  0  0
    9.0302  -12.9075   21.5425 C   0  0  0  0  0  0  0  0  0  0  0  0
    7.9068  -15.0725   21.8873 C   0  0  2  0  0  0  0  0  0  0  0  0
    6.9185  -16.0438   21.5861 N   0  0  0  0  0  0  0  0  0  0  0  0
    8.2612  -14.9593   23.3432 C   0  0  0  0  0  0  0  0  0  0  0  0
    7.8593  -13.9141   23.9151 O   0  0  0  0  0  0  0  0  0  0  0  0
    8.9798  -15.8981   24.0715 N   0  0  0  0  0  0  0  0  0  0  0  0
    9.2475  -15.8081   25.5065 C   0  0  1  0  0  0  0  0  0  0  0  0
    7.9843  -15.8088   26.2976 C   0  0  0  0  0  0  0  0  0  0  0  0
    7.4771  -14.4372   26.5114 C   0  0  0  0  0  0  0  0  0  0  0  0
    8.3439  -13.3781   26.8053 C   0  0  0  0  0  0  0  0  0  0  0  0
    7.9191  -12.0839   26.9863 C   0  0  0  0  0  0  0  0  0  0  0  0
    6.5712  -11.8078   26.8739 C   0  0  0  0  0  0  0  0  0  0  0  0
    5.7106  -12.8450   26.5846 C   0  0  0  0  0  0  0  0  0  0  0  0
    6.1193  -14.1470   26.4002 C   0  0  0  0  0  0  0  0  0  0  0  0
   10.1194  -16.9139   25.9279 C   0  0  0  0  0  0  0  0  0  0  0  0
   10.5217  -17.9646   25.1311 O   0  0  0  0  0  0  0  0  0  0  0  0
   10.5410  -16.9190   27.1127 O   0  0  0  0  0  0  0  0  0  0  0  0
  2  1  1  6
  3  2  1  0
  3  4  1  0
  5  2  1  0
  5  6  2  0
  7  8  1  0
  9  8  1  0
  9 11  1  0
  9 10  1  6
 11 12  1  1
 12  5  1  0
 13 11  1  0
 13 15  1  0
 14 13  2  0
 16 15  1  0
 16 24  1  0
 16 17  1  1
 18 17  1  0
 19 18  2  0
 20 19  1  0
 21 22  1  0
 21 20  2  0
 22 23  2  0
 23 18  1  0
 24 26  2  0
 24 25  1  0
M  END
$$$$
