CIF.pdb
     RDKit          3D

 26 26  0  0  1  0  0  0  0  0999 V2000
    6.4282  -20.0988   21.0135 N   0  0  0  0  0  0  0  0  0  0  0  0
    6.4763  -19.0924   22.0352 C   0  0  1  0  0  0  0  0  0  0  0  0
    6.8282  -19.7774   23.3437 C   0  0  0  0  0  0  0  0  0  0  0  0
    6.6157  -18.5508   24.6659 S   0  0  0  0  0  0  0  0  0  0  0  0
    7.4577  -18.0281   21.7068 C   0  0  0  0  0  0  0  0  0  0  0  0
    8.5807  -18.3492   21.3110 O   0  0  0  0  0  0  0  0  0  0  0  0
    7.7292  -12.0459   20.3578 C   0  0  0  0  0  0  0  0  0  0  0  0
    8.5124  -13.2336   20.9416 C   0  0  0  0  0  0  0  0  0  0  0  0
    7.5234  -14.3042   21.2010 C   0  0  2  0  0  0  0  0  0  0  0  0
    6.4115  -13.7270   22.0907 C   0  0  0  0  0  0  0  0  0  0  0  0
    8.0143  -15.5730   21.7879 C   0  0  2  0  0  0  0  0  0  0  0  0
    7.0975  -16.6531   21.8503 N   0  0  0  0  0  0  0  0  0  0  0  0
    8.8676  -15.3944   23.0118 C   0  0  0  0  0  0  0  0  0  0  0  0
    9.9220  -14.7314   22.8405 O   0  0  0  0  0  0  0  0  0  0  0  0
    8.5798  -15.8980   24.2734 N   0  0  0  0  0  0  0  0  0  0  0  0
    9.4186  -15.7045   25.4559 C   0  0  1  0  0  0  0  0  0  0  0  0
    8.6018  -15.3520   26.6517 C   0  0  0  0  0  0  0  0  0  0  0  0
    7.9180  -14.0534   26.4782 C   0  0  0  0  0  0  0  0  0  0  0  0
    6.5575  -13.9843   26.1559 C   0  0  0  0  0  0  0  0  0  0  0  0
    5.8762  -12.7999   26.0103 C   0  0  0  0  0  0  0  0  0  0  0  0
    6.5619  -11.6153   26.1895 C   0  0  0  0  0  0  0  0  0  0  0  0
    7.9021  -11.6743   26.5072 C   0  0  0  0  0  0  0  0  0  0  0  0
    8.5998  -12.8520   26.6569 C   0  0  0  0  0  0  0  0  0  0  0  0
   10.2140  -16.9133   25.7140 C   0  0  0  0  0  0  0  0  0  0  0  0
   11.2028  -17.0327   26.6674 O   0  0  0  0  0  0  0  0  0  0  0  0
    9.9883  -17.9332   25.0136 O   0  0  0  0  0  0  0  0  0  0  0  0
  2  1  1  6
  3  2  1  0
  3  4  1  0
  5  2  1  0
  5  6  2  0
  7  8  1  0
  9  8  1  0
  9 11  1  0
  9 10  1  1
 11 12  1  1
 12  5  1  0
 13 11  1  0
 13 15  1  0
 14 13  2  0
 16 15  1  0
 16 24  1  0
 16 17  1  1
 18 17  1  0
 19 18  2  0
 20 19  1  0
 21 22  1  0
 21 20  2  0
 22 23  2  0
 23 18  1  0
 24 26  2  0
 24 25  1  0
M  END
$$$$
