CIF.pdb
     RDKit          3D

 26 26  0  0  1  0  0  0  0  0999 V2000
    7.8111  -14.1162   19.3451 N   0  0  0  0  0  0  0  0  0  0  0  0
    7.2715  -14.8964   20.4218 C   0  0  1  0  0  0  0  0  0  0  0  0
    7.4192  -16.3613   20.0513 C   0  0  0  0  0  0  0  0  0  0  0  0
    6.7049  -17.3330   21.4091 S   0  0  0  0  0  0  0  0  0  0  0  0
    7.9524  -14.5974   21.7065 C   0  0  0  0  0  0  0  0  0  0  0  0
    9.1582  -14.3386   21.7004 O   0  0  0  0  0  0  0  0  0  0  0  0
    5.5680  -11.9410   26.0411 C   0  0  0  0  0  0  0  0  0  0  0  0
    6.5266  -12.3586   24.9135 C   0  0  0  0  0  0  0  0  0  0  0  0
    6.9760  -13.7332   25.2295 C   0  0  2  0  0  0  0  0  0  0  0  0
    7.7428  -13.6949   26.5606 C   0  0  0  0  0  0  0  0  0  0  0  0
    7.7865  -14.4472   24.2153 C   0  0  2  0  0  0  0  0  0  0  0  0
    7.2129  -14.6114   22.9288 N   0  0  0  0  0  0  0  0  0  0  0  0
    8.5108  -15.6526   24.7448 C   0  0  0  0  0  0  0  0  0  0  0  0
    7.8455  -16.7194   24.7533 O   0  0  0  0  0  0  0  0  0  0  0  0
    9.8187  -15.6645   25.2112 N   0  0  0  0  0  0  0  0  0  0  0  0
   10.5394  -16.8657   25.6317 C   0  0  1  0  0  0  0  0  0  0  0  0
   11.7222  -16.5252   26.4723 C   0  0  0  0  0  0  0  0  0  0  0  0
   11.3292  -15.7758   27.6840 C   0  0  0  0  0  0  0  0  0  0  0  0
   11.2325  -16.4058   28.9302 C   0  0  0  0  0  0  0  0  0  0  0  0
   10.8958  -15.7434   30.0861 C   0  0  0  0  0  0  0  0  0  0  0  0
   10.6389  -14.3886   30.0217 C   0  0  0  0  0  0  0  0  0  0  0  0
   10.7319  -13.7602   28.7983 C   0  0  0  0  0  0  0  0  0  0  0  0
   11.0680  -14.4086   27.6309 C   0  0  0  0  0  0  0  0  0  0  0  0
    9.6351  -17.7690   26.3574 C   0  0  0  0  0  0  0  0  0  0  0  0
    8.3649  -17.4527   26.7901 O   0  0  0  0  0  0  0  0  0  0  0  0
   10.0391  -18.9316   26.6160 O   0  0  0  0  0  0  0  0  0  0  0  0
  2  1  1  6
  3  2  1  0
  3  4  1  0
  5  2  1  0
  5  6  2  0
  7  8  1  0
  9  8  1  0
  9 11  1  0
  9 10  1  1
 11 12  1  6
 12  5  1  0
 13 11  1  0
 13 15  1  0
 14 13  2  0
 16 15  1  0
 16 24  1  0
 16 17  1  1
 18 17  1  0
 19 18  2  0
 20 19  1  0
 21 22  1  0
 21 20  2  0
 22 23  2  0
 23 18  1  0
 24 26  2  0
 24 25  1  0
M  END
$$$$
