CIF.pdb
     RDKit          3D

 26 26  0  0  1  0  0  0  0  0999 V2000
    6.2978  -20.0521   21.2910 N   0  0  0  0  0  0  0  0  0  0  0  0
    6.3335  -19.0570   22.3242 C   0  0  1  0  0  0  0  0  0  0  0  0
    6.6282  -19.7621   23.6361 C   0  0  0  0  0  0  0  0  0  0  0  0
    6.4398  -18.5335   24.9601 S   0  0  0  0  0  0  0  0  0  0  0  0
    7.3470  -18.0106   22.0389 C   0  0  0  0  0  0  0  0  0  0  0  0
    8.4448  -18.3459   21.5879 O   0  0  0  0  0  0  0  0  0  0  0  0
    7.7066  -12.2849   20.1674 C   0  0  0  0  0  0  0  0  0  0  0  0
    8.4653  -13.3461   20.9816 C   0  0  0  0  0  0  0  0  0  0  0  0
    7.4850  -14.4053   21.3111 C   0  0  2  0  0  0  0  0  0  0  0  0
    6.2958  -13.7528   22.0331 C   0  0  0  0  0  0  0  0  0  0  0  0
    7.9597  -15.5681   22.0970 C   0  0  2  0  0  0  0  0  0  0  0  0
    7.0462  -16.6361   22.2866 N   0  0  0  0  0  0  0  0  0  0  0  0
    8.7671  -15.2017   23.3102 C   0  0  0  0  0  0  0  0  0  0  0  0
    8.4588  -14.1099   23.8520 O   0  0  0  0  0  0  0  0  0  0  0  0
    9.7961  -15.9612   23.8511 N   0  0  0  0  0  0  0  0  0  0  0  0
   11.1348  -15.4533   24.1491 C   0  0  1  0  0  0  0  0  0  0  0  0
   11.0776  -14.2424   25.0164 C   0  0  0  0  0  0  0  0  0  0  0  0
   10.4738  -14.5447   26.3311 C   0  0  0  0  0  0  0  0  0  0  0  0
   10.4882  -13.6081   27.3714 C   0  0  0  0  0  0  0  0  0  0  0  0
    9.9170  -13.8369   28.6000 C   0  0  0  0  0  0  0  0  0  0  0  0
    9.2964  -15.0491   28.8262 C   0  0  0  0  0  0  0  0  0  0  0  0
    9.2776  -15.9771   27.8070 C   0  0  0  0  0  0  0  0  0  0  0  0
    9.8447  -15.7642   26.5703 C   0  0  0  0  0  0  0  0  0  0  0  0
   11.9436  -16.5035   24.7842 C   0  0  0  0  0  0  0  0  0  0  0  0
   13.2626  -16.3779   25.1654 O   0  0  0  0  0  0  0  0  0  0  0  0
   11.4033  -17.6178   25.0034 O   0  0  0  0  0  0  0  0  0  0  0  0
  2  1  1  6
  3  2  1  0
  3  4  1  0
  5  2  1  0
  5  6  2  0
  7  8  1  0
  9  8  1  0
  9 11  1  0
  9 10  1  1
 11 12  1  1
 12  5  1  0
 13 11  1  0
 13 15  1  0
 14 13  2  0
 16 15  1  0
 16 24  1  0
 16 17  1  1
 18 17  1  0
 19 18  2  0
 20 19  1  0
 21 22  1  0
 21 20  2  0
 22 23  2  0
 23 18  1  0
 24 26  2  0
 24 25  1  0
M  END
$$$$
