CIF.pdb
     RDKit          3D

 26 26  0  0  1  0  0  0  0  0999 V2000
    5.2345  -19.3605   23.1585 N   0  0  0  0  0  0  0  0  0  0  0  0
    5.9666  -18.6785   24.1871 C   0  0  1  0  0  0  0  0  0  0  0  0
    6.9666  -19.6599   24.7719 C   0  0  0  0  0  0  0  0  0  0  0  0
    7.3581  -19.0906   26.4514 S   0  0  0  0  0  0  0  0  0  0  0  0
    6.6477  -17.4690   23.6613 C   0  0  0  0  0  0  0  0  0  0  0  0
    7.0346  -17.4598   22.4903 O   0  0  0  0  0  0  0  0  0  0  0  0
    5.9590  -12.4173   26.2887 C   0  0  0  0  0  0  0  0  0  0  0  0
    5.8956  -13.4766   25.1757 C   0  0  0  0  0  0  0  0  0  0  0  0
    7.2837  -13.9419   24.9568 C   0  0  2  0  0  0  0  0  0  0  0  0
    8.1020  -12.7684   24.3961 C   0  0  0  0  0  0  0  0  0  0  0  0
    7.4874  -15.1358   24.1033 C   0  0  2  0  0  0  0  0  0  0  0  0
    6.8480  -16.3354   24.5073 N   0  0  0  0  0  0  0  0  0  0  0  0
    8.8961  -15.3042   23.6081 C   0  0  0  0  0  0  0  0  0  0  0  0
    9.2097  -14.5874   22.6239 O   0  0  0  0  0  0  0  0  0  0  0  0
    9.8393  -16.1704   24.1449 N   0  0  0  0  0  0  0  0  0  0  0  0
   10.5203  -15.9677   25.4233 C   0  0  1  0  0  0  0  0  0  0  0  0
    9.5464  -15.7651   26.5334 C   0  0  0  0  0  0  0  0  0  0  0  0
   10.2317  -15.4726   27.8098 C   0  0  0  0  0  0  0  0  0  0  0  0
   10.5487  -14.1610   28.1819 C   0  0  0  0  0  0  0  0  0  0  0  0
   11.1618  -13.8412   29.3694 C   0  0  0  0  0  0  0  0  0  0  0  0
   11.4838  -14.8600   30.2435 C   0  0  0  0  0  0  0  0  0  0  0  0
   11.1751  -16.1548   29.8848 C   0  0  0  0  0  0  0  0  0  0  0  0
   10.5610  -16.4925   28.6994 C   0  0  0  0  0  0  0  0  0  0  0  0
   11.4007  -17.1085   25.7129 C   0  0  0  0  0  0  0  0  0  0  0  0
   10.9966  -18.4209   25.8361 O   0  0  0  0  0  0  0  0  0  0  0  0
   12.6290  -16.8863   25.8668 O   0  0  0  0  0  0  0  0  0  0  0  0
  2  1  1  6
  3  2  1  0
  3  4  1  0
  5  2  1  0
  5  6  2  0
  7  8  1  0
  9  8  1  0
  9 11  1  0
  9 10  1  6
 11 12  1  1
 12  5  1  0
 13 11  1  0
 13 15  1  0
 14 13  2  0
 16 15  1  0
 16 24  1  0
 16 17  1  1
 18 17  1  0
 19 18  2  0
 20 19  1  0
 21 22  1  0
 21 20  2  0
 22 23  2  0
 23 18  1  0
 24 26  2  0
 24 25  1  0
M  END
$$$$
