YPY.pdb
     RDKit          3D

 32 34  0  0  1  0  0  0  0  0999 V2000
    0.6588  -19.9454   19.0638 O   0  0  0  0  0  0  0  0  0  0  0  0
    1.8983  -19.4158   19.4470 C   0  0  0  0  0  0  0  0  0  0  0  0
    2.1852  -18.0806   19.2672 C   0  0  0  0  0  0  0  0  0  0  0  0
    3.4063  -17.5600   19.6452 C   0  0  0  0  0  0  0  0  0  0  0  0
    4.4018  -18.3474   20.2216 C   0  0  0  0  0  0  0  0  0  0  0  0
    5.6922  -17.7247   20.6112 C   0  0  0  0  0  0  0  0  0  0  0  0
    6.4392  -17.3986   19.3680 C   0  0  2  0  0  0  0  0  0  0  0  0
    6.6378  -18.5436   18.5227 N   0  0  0  0  0  0  0  0  0  0  0  0
    7.7000  -16.6803   19.5406 C   0  0  0  0  0  0  0  0  0  0  0  0
    8.7280  -17.4082   19.2826 O   0  0  0  0  0  0  0  0  0  0  0  0
    4.1048  -19.6796   20.3969 C   0  0  0  0  0  0  0  0  0  0  0  0
    2.8702  -20.2084   20.0155 C   0  0  0  0  0  0  0  0  0  0  0  0
    7.9222  -15.3592   19.9349 N   0  0  0  0  0  0  0  0  0  0  0  0
    6.9385  -14.3784   20.3505 C   0  0  0  0  0  0  0  0  0  0  0  0
    7.6507  -13.0635   20.4731 C   0  0  0  0  0  0  0  0  0  0  0  0
    9.0230  -13.2650   19.8678 C   0  0  0  0  0  0  0  0  0  0  0  0
    9.2473  -14.7483   19.9844 C   0  0  1  0  0  0  0  0  0  0  0  0
    9.9300  -15.0724   21.2667 C   0  0  0  0  0  0  0  0  0  0  0  0
    9.2270  -15.3535   22.2661 O   0  0  0  0  0  0  0  0  0  0  0  0
   16.3120  -13.8187   17.9944 O   0  0  0  0  0  0  0  0  0  0  0  0
   15.4654  -14.5925   18.7753 C   0  0  0  0  0  0  0  0  0  0  0  0
   14.2901  -15.1055   18.2607 C   0  0  0  0  0  0  0  0  0  0  0  0
   13.4245  -15.8779   19.0048 C   0  0  0  0  0  0  0  0  0  0  0  0
   13.7485  -16.1470   20.3163 C   0  0  0  0  0  0  0  0  0  0  0  0
   12.8403  -16.9704   21.1399 C   0  0  0  0  0  0  0  0  0  0  0  0
   12.0976  -16.1094   22.1043 C   0  0  2  0  0  0  0  0  0  0  0  0
   11.3251  -15.0801   21.4167 N   0  0  0  0  0  0  0  0  0  0  0  0
   12.9500  -15.4301   23.1000 C   0  0  0  0  0  0  0  0  0  0  0  0
   13.0544  -14.1792   23.0672 O   0  0  0  0  0  0  0  0  0  0  0  0
   14.9379  -15.6261   20.8312 C   0  0  0  0  0  0  0  0  0  0  0  0
   15.7978  -14.8592   20.0924 C   0  0  0  0  0  0  0  0  0  0  0  0
   13.6685  -16.0672   24.1017 O   0  0  0  0  0  0  0  0  0  0  0  0
  2  1  1  0
  3  2  2  0
  4  3  1  0
  5 11  1  0
  5  4  2  0
  6  5  1  0
  7  6  1  0
  7  8  1  1
  9  7  1  0
  9 13  1  0
 10  9  2  0
 11 12  2  0
 12  2  1  0
 13 17  1  0
 13 14  1  0
 14 15  1  0
 16 17  1  0
 16 15  1  0
 17 18  1  1
 19 18  2  0
 20 21  1  0
 21 22  2  0
 21 31  1  0
 22 23  1  0
 23 24  2  0
 24 25  1  0
 26 25  1  6
 26 28  1  0
 26 27  1  0
 27 18  1  0
 28 32  1  0
 29 28  2  0
 30 24  1  0
 31 30  2  0
M  END
$$$$
