YPY.pdb
     RDKit          3D

 32 34  0  0  1  0  0  0  0  0999 V2000
    7.8103  -12.9019   16.9857 O   0  0  0  0  0  0  0  0  0  0  0  0
    7.6785  -13.3283   18.3141 C   0  0  0  0  0  0  0  0  0  0  0  0
    8.5684  -14.2252   18.8628 C   0  0  0  0  0  0  0  0  0  0  0  0
    8.4377  -14.6442   20.1714 C   0  0  0  0  0  0  0  0  0  0  0  0
    7.4112  -14.1884   20.9970 C   0  0  0  0  0  0  0  0  0  0  0  0
    7.3296  -14.6742   22.3978 C   0  0  0  0  0  0  0  0  0  0  0  0
    7.4577  -16.1551   22.3789 C   0  0  2  0  0  0  0  0  0  0  0  0
    6.1877  -16.8215   22.2898 N   0  0  0  0  0  0  0  0  0  0  0  0
    8.2595  -16.7484   23.4468 C   0  0  0  0  0  0  0  0  0  0  0  0
    7.5522  -17.1176   24.4551 O   0  0  0  0  0  0  0  0  0  0  0  0
    6.5278  -13.2928   20.4391 C   0  0  0  0  0  0  0  0  0  0  0  0
    6.6582  -12.8672   19.1157 C   0  0  0  0  0  0  0  0  0  0  0  0
    9.6390  -16.9561   23.5104 N   0  0  0  0  0  0  0  0  0  0  0  0
   10.6308  -16.6547   22.4965 C   0  0  0  0  0  0  0  0  0  0  0  0
   11.9292  -17.2472   22.9592 C   0  0  0  0  0  0  0  0  0  0  0  0
   11.5979  -18.1204   24.1500 C   0  0  0  0  0  0  0  0  0  0  0  0
   10.3106  -17.5390   24.6684 C   0  0  1  0  0  0  0  0  0  0  0  0
   10.5859  -16.4991   25.6971 C   0  0  0  0  0  0  0  0  0  0  0  0
   11.2063  -15.4651   25.3537 O   0  0  0  0  0  0  0  0  0  0  0  0
    6.6243  -12.1195   24.6776 O   0  0  0  0  0  0  0  0  0  0  0  0
    7.2993  -12.8288   25.6607 C   0  0  0  0  0  0  0  0  0  0  0  0
    6.7054  -13.8974   26.3045 C   0  0  0  0  0  0  0  0  0  0  0  0
    7.3437  -14.6258   27.2851 C   0  0  0  0  0  0  0  0  0  0  0  0
    8.6276  -14.2698   27.6352 C   0  0  0  0  0  0  0  0  0  0  0  0
    9.3373  -15.0299   28.6837 C   0  0  0  0  0  0  0  0  0  0  0  0
   10.5428  -15.6943   28.1108 C   0  0  2  0  0  0  0  0  0  0  0  0
   10.1858  -16.6154   27.0370 N   0  0  0  0  0  0  0  0  0  0  0  0
   11.3485  -16.4498   29.0904 C   0  0  0  0  0  0  0  0  0  0  0  0
   11.9531  -15.8275   29.9981 O   0  0  0  0  0  0  0  0  0  0  0  0
    9.2231  -13.1888   26.9808 C   0  0  0  0  0  0  0  0  0  0  0  0
    8.5895  -12.4655   26.0069 C   0  0  0  0  0  0  0  0  0  0  0  0
   11.5030  -17.8288   29.1015 O   0  0  0  0  0  0  0  0  0  0  0  0
  2  1  1  0
  3  2  2  0
  4  3  1  0
  5 11  1  0
  5  4  2  0
  6  5  1  0
  7  6  1  0
  7  8  1  1
  9  7  1  0
  9 13  1  0
 10  9  2  0
 11 12  2  0
 12  2  1  0
 13 17  1  0
 13 14  1  0
 14 15  1  0
 16 17  1  0
 16 15  1  0
 17 18  1  1
 19 18  2  0
 20 21  1  0
 21 22  2  0
 21 31  1  0
 22 23  1  0
 23 24  2  0
 24 25  1  0
 26 25  1  1
 26 28  1  0
 26 27  1  0
 27 18  1  0
 28 32  1  0
 29 28  2  0
 30 24  1  0
 31 30  2  0
M  END
$$$$
