YPY.pdb
     RDKit          3D

 32 34  0  0  1  0  0  0  0  0999 V2000
    8.2882  -12.7803   18.9050 O   0  0  0  0  0  0  0  0  0  0  0  0
    7.9514  -13.2173   20.1932 C   0  0  0  0  0  0  0  0  0  0  0  0
    8.1574  -14.5247   20.5751 C   0  0  0  0  0  0  0  0  0  0  0  0
    7.8255  -14.9539   21.8442 C   0  0  0  0  0  0  0  0  0  0  0  0
    7.2711  -14.0985   22.7950 C   0  0  0  0  0  0  0  0  0  0  0  0
    6.9414  -14.6217   24.1450 C   0  0  0  0  0  0  0  0  0  0  0  0
    6.7459  -16.0911   24.0334 C   0  0  2  0  0  0  0  0  0  0  0  0
    5.8034  -16.6005   24.9910 N   0  0  0  0  0  0  0  0  0  0  0  0
    7.9581  -16.9072   24.0425 C   0  0  0  0  0  0  0  0  0  0  0  0
    8.3717  -17.1725   25.2307 O   0  0  0  0  0  0  0  0  0  0  0  0
    7.0695  -12.7948   22.4033 C   0  0  0  0  0  0  0  0  0  0  0  0
    7.4047  -12.3583   21.1201 C   0  0  0  0  0  0  0  0  0  0  0  0
    8.6951  -17.4141   22.9701 N   0  0  0  0  0  0  0  0  0  0  0  0
    8.3708  -17.3474   21.5584 C   0  0  0  0  0  0  0  0  0  0  0  0
    9.3647  -18.2084   20.8360 C   0  0  0  0  0  0  0  0  0  0  0  0
   10.1154  -18.9772   21.9017 C   0  0  0  0  0  0  0  0  0  0  0  0
    9.9622  -18.1216   23.1299 C   0  0  1  0  0  0  0  0  0  0  0  0
   11.0930  -17.1600   23.2389 C   0  0  0  0  0  0  0  0  0  0  0  0
   11.3281  -16.3982   22.2711 O   0  0  0  0  0  0  0  0  0  0  0  0
    9.8954  -16.0496   30.1182 O   0  0  0  0  0  0  0  0  0  0  0  0
   10.5145  -15.7506   28.9131 C   0  0  0  0  0  0  0  0  0  0  0  0
    9.8489  -15.0546   27.9222 C   0  0  0  0  0  0  0  0  0  0  0  0
   10.4304  -14.7390   26.7132 C   0  0  0  0  0  0  0  0  0  0  0  0
   11.7298  -15.1365   26.4871 C   0  0  0  0  0  0  0  0  0  0  0  0
   12.3798  -14.8148   25.2007 C   0  0  0  0  0  0  0  0  0  0  0  0
   12.9447  -16.0504   24.5864 C   0  0  2  0  0  0  0  0  0  0  0  0
   11.9136  -17.0604   24.3728 N   0  0  0  0  0  0  0  0  0  0  0  0
   14.0263  -16.6823   25.3675 C   0  0  0  0  0  0  0  0  0  0  0  0
   13.8281  -17.8049   25.8938 O   0  0  0  0  0  0  0  0  0  0  0  0
   12.3979  -15.8397   27.4923 C   0  0  0  0  0  0  0  0  0  0  0  0
   11.8208  -16.1530   28.6932 C   0  0  0  0  0  0  0  0  0  0  0  0
   15.2828  -16.1327   25.5791 O   0  0  0  0  0  0  0  0  0  0  0  0
  2  1  1  0
  3  2  2  0
  4  3  1  0
  5 11  1  0
  5  4  2  0
  6  5  1  0
  7  6  1  0
  7  8  1  1
  9  7  1  0
  9 13  1  0
 10  9  2  0
 11 12  2  0
 12  2  1  0
 13 17  1  0
 13 14  1  0
 14 15  1  0
 16 17  1  0
 16 15  1  0
 17 18  1  6
 19 18  2  0
 20 21  1  0
 21 22  2  0
 21 31  1  0
 22 23  1  0
 23 24  2  0
 24 25  1  0
 26 25  1  1
 26 28  1  0
 26 27  1  0
 27 18  1  0
 28 32  1  0
 29 28  2  0
 30 24  1  0
 31 30  2  0
M  END
$$$$
