YPY.pdb
     RDKit          3D

 32 34  0  0  1  0  0  0  0  0999 V2000
    8.0074  -18.6096   28.1868 O   0  0  0  0  0  0  0  0  0  0  0  0
    7.3270  -18.3377   26.9923 C   0  0  0  0  0  0  0  0  0  0  0  0
    7.0256  -17.0443   26.6262 C   0  0  0  0  0  0  0  0  0  0  0  0
    6.3556  -16.7777   25.4494 C   0  0  0  0  0  0  0  0  0  0  0  0
    5.9530  -17.7899   24.5796 C   0  0  0  0  0  0  0  0  0  0  0  0
    5.2403  -17.4357   23.3260 C   0  0  0  0  0  0  0  0  0  0  0  0
    6.0156  -17.9887   22.1845 C   0  0  2  0  0  0  0  0  0  0  0  0
    6.1745  -19.4149   22.2598 N   0  0  0  0  0  0  0  0  0  0  0  0
    7.3041  -17.3561   21.9111 C   0  0  0  0  0  0  0  0  0  0  0  0
    8.2738  -18.1992   21.8652 O   0  0  0  0  0  0  0  0  0  0  0  0
    6.2590  -19.0781   24.9546 C   0  0  0  0  0  0  0  0  0  0  0  0
    6.9369  -19.3502   26.1445 C   0  0  0  0  0  0  0  0  0  0  0  0
    7.6051  -16.0084   21.7030 N   0  0  0  0  0  0  0  0  0  0  0  0
    6.7693  -14.8575   21.9844 C   0  0  0  0  0  0  0  0  0  0  0  0
    7.4567  -13.6591   21.3991 C   0  0  0  0  0  0  0  0  0  0  0  0
    8.5895  -14.1917   20.5487 C   0  0  0  0  0  0  0  0  0  0  0  0
    8.8708  -15.5459   21.1411 C   0  0  1  0  0  0  0  0  0  0  0  0
    9.9122  -15.4450   22.1997 C   0  0  0  0  0  0  0  0  0  0  0  0
   11.0670  -15.0821   21.8725 O   0  0  0  0  0  0  0  0  0  0  0  0
    4.9958  -13.9785   27.0846 O   0  0  0  0  0  0  0  0  0  0  0  0
    6.3119  -14.0392   26.6496 C   0  0  0  0  0  0  0  0  0  0  0  0
    7.2935  -14.6258   27.4253 C   0  0  0  0  0  0  0  0  0  0  0  0
    8.6107  -14.7052   27.0272 C   0  0  0  0  0  0  0  0  0  0  0  0
    8.9588  -14.1758   25.8040 C   0  0  0  0  0  0  0  0  0  0  0  0
   10.3625  -14.2439   25.3504 C   0  0  0  0  0  0  0  0  0  0  0  0
   10.6131  -15.5330   24.6444 C   0  0  2  0  0  0  0  0  0  0  0  0
    9.6688  -15.7357   23.5507 N   0  0  0  0  0  0  0  0  0  0  0  0
   10.5486  -16.7272   25.5100 C   0  0  0  0  0  0  0  0  0  0  0  0
    9.5923  -17.5301   25.3780 O   0  0  0  0  0  0  0  0  0  0  0  0
    7.9623  -13.5842   25.0240 C   0  0  0  0  0  0  0  0  0  0  0  0
    6.6543  -13.5054   25.4190 C   0  0  0  0  0  0  0  0  0  0  0  0
   11.4782  -17.0551   26.4867 O   0  0  0  0  0  0  0  0  0  0  0  0
  2  1  1  0
  3  2  2  0
  4  3  1  0
  5 11  1  0
  5  4  2  0
  6  5  1  0
  7  6  1  0
  7  8  1  1
  9  7  1  0
  9 13  1  0
 10  9  2  0
 11 12  2  0
 12  2  1  0
 13 17  1  0
 13 14  1  0
 14 15  1  0
 16 17  1  0
 16 15  1  0
 17 18  1  1
 19 18  2  0
 20 21  1  0
 21 22  2  0
 21 31  1  0
 22 23  1  0
 23 24  2  0
 24 25  1  0
 26 25  1  1
 26 28  1  0
 26 27  1  0
 27 18  1  0
 28 32  1  0
 29 28  2  0
 30 24  1  0
 31 30  2  0
M  END
$$$$
