YPY.pdb
     RDKit          3D

 32 34  0  0  1  0  0  0  0  0999 V2000
    7.7424  -12.7898   16.4633 O   0  0  0  0  0  0  0  0  0  0  0  0
    7.7058  -13.2166   17.7976 C   0  0  0  0  0  0  0  0  0  0  0  0
    6.6664  -13.9892   18.2669 C   0  0  0  0  0  0  0  0  0  0  0  0
    6.6315  -14.4092   19.5812 C   0  0  0  0  0  0  0  0  0  0  0  0
    7.6332  -14.0782   20.4923 C   0  0  0  0  0  0  0  0  0  0  0  0
    7.5391  -14.5665   21.8914 C   0  0  0  0  0  0  0  0  0  0  0  0
    8.8000  -14.2042   22.5905 C   0  0  2  0  0  0  0  0  0  0  0  0
    9.9624  -14.7836   21.9757 N   0  0  0  0  0  0  0  0  0  0  0  0
    8.8293  -14.4365   24.0329 C   0  0  0  0  0  0  0  0  0  0  0  0
    9.7618  -15.2473   24.3885 O   0  0  0  0  0  0  0  0  0  0  0  0
    8.6668  -13.3062   20.0132 C   0  0  0  0  0  0  0  0  0  0  0  0
    8.7044  -12.8804   18.6841 C   0  0  0  0  0  0  0  0  0  0  0  0
    8.0074  -13.9132   25.0333 N   0  0  0  0  0  0  0  0  0  0  0  0
    6.7936  -13.1370   24.8705 C   0  0  0  0  0  0  0  0  0  0  0  0
    6.3995  -12.6433   26.2315 C   0  0  0  0  0  0  0  0  0  0  0  0
    7.5653  -12.9460   27.1478 C   0  0  0  0  0  0  0  0  0  0  0  0
    8.2713  -14.0825   26.4593 C   0  0  1  0  0  0  0  0  0  0  0  0
    7.7469  -15.3894   26.9412 C   0  0  0  0  0  0  0  0  0  0  0  0
    6.7331  -15.8717   26.3827 O   0  0  0  0  0  0  0  0  0  0  0  0
    5.3510  -19.5319   23.0325 O   0  0  0  0  0  0  0  0  0  0  0  0
    6.3503  -19.1015   23.8935 C   0  0  0  0  0  0  0  0  0  0  0  0
    6.1369  -19.0332   25.2570 C   0  0  0  0  0  0  0  0  0  0  0  0
    7.1045  -18.6114   26.1432 C   0  0  0  0  0  0  0  0  0  0  0  0
    8.3345  -18.2428   25.6442 C   0  0  0  0  0  0  0  0  0  0  0  0
    9.3913  -17.7847   26.5684 C   0  0  0  0  0  0  0  0  0  0  0  0
    8.8097  -17.4892   27.9091 C   0  0  2  0  0  0  0  0  0  0  0  0
    8.3299  -16.1137   27.9921 N   0  0  0  0  0  0  0  0  0  0  0  0
    9.7366  -17.7020   29.0384 C   0  0  0  0  0  0  0  0  0  0  0  0
    9.9431  -18.8696   29.4514 O   0  0  0  0  0  0  0  0  0  0  0  0
    8.5447  -18.3140   24.2650 C   0  0  0  0  0  0  0  0  0  0  0  0
    7.5840  -18.7331   23.3849 C   0  0  0  0  0  0  0  0  0  0  0  0
   10.4239  -16.6980   29.7058 O   0  0  0  0  0  0  0  0  0  0  0  0
  2  1  1  0
  3  2  2  0
  4  3  1  0
  5 11  1  0
  5  4  2  0
  6  5  1  0
  7  6  1  0
  7  8  1  6
  9  7  1  0
  9 13  1  0
 10  9  2  0
 11 12  2  0
 12  2  1  0
 13 17  1  0
 13 14  1  0
 14 15  1  0
 16 17  1  0
 16 15  1  0
 17 18  1  1
 19 18  2  0
 20 21  1  0
 21 22  2  0
 21 31  1  0
 22 23  1  0
 23 24  2  0
 24 25  1  0
 26 25  1  6
 26 28  1  0
 26 27  1  0
 27 18  1  0
 28 32  1  0
 29 28  2  0
 30 24  1  0
 31 30  2  0
M  END
$$$$
