YPY.pdb
     RDKit          3D

 32 34  0  0  1  0  0  0  0  0999 V2000
    7.5182  -12.7004   16.8509 O   0  0  0  0  0  0  0  0  0  0  0  0
    7.5205  -13.1549   18.1765 C   0  0  0  0  0  0  0  0  0  0  0  0
    8.6984  -13.4771   18.8138 C   0  0  0  0  0  0  0  0  0  0  0  0
    8.6994  -13.9245   20.1195 C   0  0  0  0  0  0  0  0  0  0  0  0
    7.5237  -14.0725   20.8536 C   0  0  0  0  0  0  0  0  0  0  0  0
    7.5938  -14.5534   22.2567 C   0  0  0  0  0  0  0  0  0  0  0  0
    7.6744  -16.0375   22.2305 C   0  0  2  0  0  0  0  0  0  0  0  0
    6.4068  -16.6580   21.9600 N   0  0  0  0  0  0  0  0  0  0  0  0
    8.3045  -16.6714   23.3865 C   0  0  0  0  0  0  0  0  0  0  0  0
    7.4714  -16.9227   24.3332 O   0  0  0  0  0  0  0  0  0  0  0  0
    6.3528  -13.7478   20.2077 C   0  0  0  0  0  0  0  0  0  0  0  0
    6.3493  -13.2948   18.8870 C   0  0  0  0  0  0  0  0  0  0  0  0
    9.6409  -17.0237   23.5871 N   0  0  0  0  0  0  0  0  0  0  0  0
   10.7556  -16.8345   22.6794 C   0  0  0  0  0  0  0  0  0  0  0  0
   11.9311  -17.5586   23.2669 C   0  0  0  0  0  0  0  0  0  0  0  0
   11.3914  -18.3853   24.4139 C   0  0  0  0  0  0  0  0  0  0  0  0
   10.1274  -17.6681   24.8035 C   0  0  1  0  0  0  0  0  0  0  0  0
   10.4066  -16.6577   25.8601 C   0  0  0  0  0  0  0  0  0  0  0  0
   11.0016  -15.6020   25.5382 O   0  0  0  0  0  0  0  0  0  0  0  0
    6.7837  -11.8197   25.1418 O   0  0  0  0  0  0  0  0  0  0  0  0
    7.3833  -12.6641   26.0651 C   0  0  0  0  0  0  0  0  0  0  0  0
    6.8379  -13.8982   26.3630 C   0  0  0  0  0  0  0  0  0  0  0  0
    7.4045  -14.7640   27.2735 C   0  0  0  0  0  0  0  0  0  0  0  0
    8.5629  -14.3785   27.9114 C   0  0  0  0  0  0  0  0  0  0  0  0
    9.1929  -15.2836   28.8937 C   0  0  0  0  0  0  0  0  0  0  0  0
   10.3973  -15.9306   28.2987 C   0  0  2  0  0  0  0  0  0  0  0  0
   10.0373  -16.8249   27.2034 N   0  0  0  0  0  0  0  0  0  0  0  0
   11.2090  -16.7088   29.2552 C   0  0  0  0  0  0  0  0  0  0  0  0
   11.1951  -17.9629   29.1941 O   0  0  0  0  0  0  0  0  0  0  0  0
    9.1100  -13.1299   27.6063 C   0  0  0  0  0  0  0  0  0  0  0  0
    8.5477  -12.2701   26.7020 C   0  0  0  0  0  0  0  0  0  0  0  0
   12.0129  -16.1642   30.2466 O   0  0  0  0  0  0  0  0  0  0  0  0
  2  1  1  0
  3  2  2  0
  4  3  1  0
  5 11  1  0
  5  4  2  0
  6  5  1  0
  7  6  1  0
  7  8  1  1
  9  7  1  0
  9 13  1  0
 10  9  2  0
 11 12  2  0
 12  2  1  0
 13 17  1  0
 13 14  1  0
 14 15  1  0
 16 17  1  0
 16 15  1  0
 17 18  1  1
 19 18  2  0
 20 21  1  0
 21 22  2  0
 21 31  1  0
 22 23  1  0
 23 24  2  0
 24 25  1  0
 26 25  1  1
 26 28  1  0
 26 27  1  0
 27 18  1  0
 28 32  1  0
 29 28  2  0
 30 24  1  0
 31 30  2  0
M  END
$$$$
