YPY.pdb
     RDKit          3D

 32 34  0  0  1  0  0  0  0  0999 V2000
   12.9698  -20.1056   15.5556 O   0  0  0  0  0  0  0  0  0  0  0  0
   12.5344  -19.5537   16.7678 C   0  0  0  0  0  0  0  0  0  0  0  0
   11.7005  -20.2574   17.6086 C   0  0  0  0  0  0  0  0  0  0  0  0
   11.2725  -19.7128   18.8025 C   0  0  0  0  0  0  0  0  0  0  0  0
   11.6561  -18.4381   19.2159 C   0  0  0  0  0  0  0  0  0  0  0  0
   11.1648  -17.9123   20.5148 C   0  0  0  0  0  0  0  0  0  0  0  0
    9.7426  -17.5158   20.3419 C   0  0  2  0  0  0  0  0  0  0  0  0
    9.5782  -16.4230   19.4234 N   0  0  0  0  0  0  0  0  0  0  0  0
    8.9902  -17.2561   21.5673 C   0  0  0  0  0  0  0  0  0  0  0  0
    8.9534  -16.0081   21.8749 O   0  0  0  0  0  0  0  0  0  0  0  0
   12.4892  -17.7438   18.3688 C   0  0  0  0  0  0  0  0  0  0  0  0
   12.9237  -18.2926   17.1607 C   0  0  0  0  0  0  0  0  0  0  0  0
    8.3339  -18.1528   22.4130 N   0  0  0  0  0  0  0  0  0  0  0  0
    8.2905  -19.5987   22.3135 C   0  0  0  0  0  0  0  0  0  0  0  0
    7.2971  -20.0815   23.3291 C   0  0  0  0  0  0  0  0  0  0  0  0
    6.5807  -18.8509   23.8417 C   0  0  0  0  0  0  0  0  0  0  0  0
    7.5566  -17.7367   23.5768 C   0  0  1  0  0  0  0  0  0  0  0  0
    8.4416  -17.5287   24.7552 C   0  0  0  0  0  0  0  0  0  0  0  0
    9.5346  -18.1415   24.8001 O   0  0  0  0  0  0  0  0  0  0  0  0
    6.5630  -11.0306   24.6946 O   0  0  0  0  0  0  0  0  0  0  0  0
    7.0185  -12.0912   25.4646 C   0  0  0  0  0  0  0  0  0  0  0  0
    6.2125  -12.6750   26.4231 C   0  0  0  0  0  0  0  0  0  0  0  0
    6.6292  -13.7295   27.2065 C   0  0  0  0  0  0  0  0  0  0  0  0
    7.9039  -14.2187   27.0231 C   0  0  0  0  0  0  0  0  0  0  0  0
    8.3801  -15.3469   27.8485 C   0  0  0  0  0  0  0  0  0  0  0  0
    8.9632  -16.4095   26.9803 C   0  0  2  0  0  0  0  0  0  0  0  0
    8.1160  -16.6789   25.8233 N   0  0  0  0  0  0  0  0  0  0  0  0
    9.1992  -17.6967   27.6636 C   0  0  0  0  0  0  0  0  0  0  0  0
    8.4216  -18.6584   27.4467 O   0  0  0  0  0  0  0  0  0  0  0  0
    8.7143  -13.6248   26.0526 C   0  0  0  0  0  0  0  0  0  0  0  0
    8.3005  -12.5778   25.2743 C   0  0  0  0  0  0  0  0  0  0  0  0
   10.2355  -17.9500   28.5511 O   0  0  0  0  0  0  0  0  0  0  0  0
  2  1  1  0
  3  2  2  0
  4  3  1  0
  5 11  1  0
  5  4  2  0
  6  5  1  0
  7  6  1  0
  7  8  1  6
  9  7  1  0
  9 13  1  0
 10  9  2  0
 11 12  2  0
 12  2  1  0
 13 17  1  0
 13 14  1  0
 14 15  1  0
 16 17  1  0
 16 15  1  0
 17 18  1  1
 19 18  2  0
 20 21  1  0
 21 22  2  0
 21 31  1  0
 22 23  1  0
 23 24  2  0
 24 25  1  0
 26 25  1  1
 26 28  1  0
 26 27  1  0
 27 18  1  0
 28 32  1  0
 29 28  2  0
 30 24  1  0
 31 30  2  0
M  END
$$$$
