YPY.pdb
     RDKit          3D

 32 34  0  0  1  0  0  0  0  0999 V2000
   14.9777  -15.1768   19.8158 O   0  0  0  0  0  0  0  0  0  0  0  0
   13.7332  -14.5579   19.6366 C   0  0  0  0  0  0  0  0  0  0  0  0
   13.2290  -14.3312   18.3750 C   0  0  0  0  0  0  0  0  0  0  0  0
   12.0031  -13.7218   18.1997 C   0  0  0  0  0  0  0  0  0  0  0  0
   11.2199  -13.3082   19.2761 C   0  0  0  0  0  0  0  0  0  0  0  0
    9.9072  -12.6632   19.0196 C   0  0  0  0  0  0  0  0  0  0  0  0
    8.9531  -13.7184   18.5881 C   0  0  2  0  0  0  0  0  0  0  0  0
    7.8986  -13.2074   17.7564 N   0  0  0  0  0  0  0  0  0  0  0  0
    8.3933  -14.5561   19.6465 C   0  0  0  0  0  0  0  0  0  0  0  0
    7.5693  -13.9208   20.4020 O   0  0  0  0  0  0  0  0  0  0  0  0
   11.7328  -13.5394   20.5319 C   0  0  0  0  0  0  0  0  0  0  0  0
   12.9725  -14.1560   20.7117 C   0  0  0  0  0  0  0  0  0  0  0  0
    8.6299  -15.9025   19.9316 N   0  0  0  0  0  0  0  0  0  0  0  0
    9.4290  -16.8446   19.1724 C   0  0  0  0  0  0  0  0  0  0  0  0
    9.2036  -18.2003   19.7743 C   0  0  0  0  0  0  0  0  0  0  0  0
    8.0511  -18.0491   20.7435 C   0  0  0  0  0  0  0  0  0  0  0  0
    8.0738  -16.5864   21.0956 C   0  0  1  0  0  0  0  0  0  0  0  0
    8.9195  -16.3535   22.2980 C   0  0  0  0  0  0  0  0  0  0  0  0
   10.1655  -16.3308   22.1597 O   0  0  0  0  0  0  0  0  0  0  0  0
   11.4053  -14.6027   30.5546 O   0  0  0  0  0  0  0  0  0  0  0  0
   10.6578  -14.7531   29.3954 C   0  0  0  0  0  0  0  0  0  0  0  0
    9.9887  -15.9316   29.1256 C   0  0  0  0  0  0  0  0  0  0  0  0
    9.2365  -16.1182   27.9859 C   0  0  0  0  0  0  0  0  0  0  0  0
    9.1512  -15.0838   27.0802 C   0  0  0  0  0  0  0  0  0  0  0  0
    8.3543  -15.2539   25.8486 C   0  0  0  0  0  0  0  0  0  0  0  0
    9.1758  -15.9082   24.7903 C   0  0  2  0  0  0  0  0  0  0  0  0
    8.3936  -16.1568   23.5839 N   0  0  0  0  0  0  0  0  0  0  0  0
    9.7841  -17.1914   25.1940 C   0  0  0  0  0  0  0  0  0  0  0  0
    9.1063  -18.2451   25.1106 O   0  0  0  0  0  0  0  0  0  0  0  0
    9.8295  -13.8947   27.3581 C   0  0  0  0  0  0  0  0  0  0  0  0
   10.5763  -13.7090   28.4900 C   0  0  0  0  0  0  0  0  0  0  0  0
   11.0780  -17.3452   25.6712 O   0  0  0  0  0  0  0  0  0  0  0  0
  2  1  1  0
  3  2  2  0
  4  3  1  0
  5 11  1  0
  5  4  2  0
  6  5  1  0
  7  6  1  0
  7  8  1  1
  9  7  1  0
  9 13  1  0
 10  9  2  0
 11 12  2  0
 12  2  1  0
 13 17  1  0
 13 14  1  0
 14 15  1  0
 16 17  1  0
 16 15  1  0
 17 18  1  1
 19 18  2  0
 20 21  1  0
 21 22  2  0
 21 31  1  0
 22 23  1  0
 23 24  2  0
 24 25  1  0
 26 25  1  1
 26 28  1  0
 26 27  1  0
 27 18  1  0
 28 32  1  0
 29 28  2  0
 30 24  1  0
 31 30  2  0
M  END
$$$$
