YPY.pdb
     RDKit          3D

 32 34  0  0  1  0  0  0  0  0999 V2000
    0.1472  -20.9657   20.3235 O   0  0  0  0  0  0  0  0  0  0  0  0
    1.2640  -20.2806   20.8205 C   0  0  0  0  0  0  0  0  0  0  0  0
    1.7722  -19.1816   20.1637 C   0  0  0  0  0  0  0  0  0  0  0  0
    2.8722  -18.5075   20.6543 C   0  0  0  0  0  0  0  0  0  0  0  0
    3.5195  -18.8979   21.8256 C   0  0  0  0  0  0  0  0  0  0  0  0
    4.6949  -18.1264   22.3030 C   0  0  0  0  0  0  0  0  0  0  0  0
    5.7990  -18.3195   21.3264 C   0  0  2  0  0  0  0  0  0  0  0  0
    6.1457  -19.7023   21.1462 N   0  0  0  0  0  0  0  0  0  0  0  0
    7.0059  -17.5267   21.5499 C   0  0  0  0  0  0  0  0  0  0  0  0
    7.9978  -18.2336   21.9617 O   0  0  0  0  0  0  0  0  0  0  0  0
    3.0038  -19.9967   22.4739 C   0  0  0  0  0  0  0  0  0  0  0  0
    1.8910  -20.6800   21.9796 C   0  0  0  0  0  0  0  0  0  0  0  0
    7.2113  -16.1556   21.3815 N   0  0  0  0  0  0  0  0  0  0  0  0
    6.2477  -15.1580   20.9589 C   0  0  0  0  0  0  0  0  0  0  0  0
    7.0030  -13.8805   20.7379 C   0  0  0  0  0  0  0  0  0  0  0  0
    8.4721  -14.2388   20.7998 C   0  0  0  0  0  0  0  0  0  0  0  0
    8.4947  -15.5010   21.6185 C   0  0  1  0  0  0  0  0  0  0  0  0
    8.6654  -15.1821   23.0623 C   0  0  0  0  0  0  0  0  0  0  0  0
    7.7578  -14.5446   23.6471 O   0  0  0  0  0  0  0  0  0  0  0  0
   10.1346  -16.6522   30.9070 O   0  0  0  0  0  0  0  0  0  0  0  0
    9.9512  -16.0604   29.6655 C   0  0  0  0  0  0  0  0  0  0  0  0
    9.4103  -16.7694   28.6100 C   0  0  0  0  0  0  0  0  0  0  0  0
    9.2127  -16.2162   27.3632 C   0  0  0  0  0  0  0  0  0  0  0  0
    9.5712  -14.9009   27.1653 C   0  0  0  0  0  0  0  0  0  0  0  0
    9.3734  -14.2803   25.8400 C   0  0  0  0  0  0  0  0  0  0  0  0
   10.3998  -14.7786   24.8801 C   0  0  2  0  0  0  0  0  0  0  0  0
    9.7933  -15.5592   23.8068 N   0  0  0  0  0  0  0  0  0  0  0  0
   11.4544  -15.6122   25.4903 C   0  0  0  0  0  0  0  0  0  0  0  0
   12.2436  -15.0946   26.3185 O   0  0  0  0  0  0  0  0  0  0  0  0
   10.1174  -14.1889   28.2360 C   0  0  0  0  0  0  0  0  0  0  0  0
   10.3135  -14.7380   29.4742 C   0  0  0  0  0  0  0  0  0  0  0  0
   11.6593  -16.9588   25.2254 O   0  0  0  0  0  0  0  0  0  0  0  0
  2  1  1  0
  3  2  2  0
  4  3  1  0
  5 11  1  0
  5  4  2  0
  6  5  1  0
  7  6  1  0
  7  8  1  1
  9  7  1  0
  9 13  1  0
 10  9  2  0
 11 12  2  0
 12  2  1  0
 13 17  1  0
 13 14  1  0
 14 15  1  0
 16 17  1  0
 16 15  1  0
 17 18  1  1
 19 18  2  0
 20 21  1  0
 21 22  2  0
 21 31  1  0
 22 23  1  0
 23 24  2  0
 24 25  1  0
 26 25  1  1
 26 28  1  0
 26 27  1  0
 27 18  1  0
 28 32  1  0
 29 28  2  0
 30 24  1  0
 31 30  2  0
M  END
$$$$
