YPY.pdb
     RDKit          3D

 32 34  0  0  1  0  0  0  0  0999 V2000
    8.0182  -13.6384   13.8779 O   0  0  0  0  0  0  0  0  0  0  0  0
    8.3439  -14.4321   14.9860 C   0  0  0  0  0  0  0  0  0  0  0  0
    8.2653  -13.9294   16.2661 C   0  0  0  0  0  0  0  0  0  0  0  0
    8.5861  -14.7122   17.3567 C   0  0  0  0  0  0  0  0  0  0  0  0
    9.0016  -16.0360   17.2229 C   0  0  0  0  0  0  0  0  0  0  0  0
    9.3269  -16.8263   18.4372 C   0  0  0  0  0  0  0  0  0  0  0  0
   10.3964  -16.1088   19.1797 C   0  0  2  0  0  0  0  0  0  0  0  0
   11.5877  -16.8967   19.3375 N   0  0  0  0  0  0  0  0  0  0  0  0
   10.0117  -15.5224   20.4617 C   0  0  0  0  0  0  0  0  0  0  0  0
   11.0114  -15.3521   21.2522 O   0  0  0  0  0  0  0  0  0  0  0  0
    9.0766  -16.5282   15.9400 C   0  0  0  0  0  0  0  0  0  0  0  0
    8.7524  -15.7384   14.8352 C   0  0  0  0  0  0  0  0  0  0  0  0
    8.7491  -15.1400   20.9198 N   0  0  0  0  0  0  0  0  0  0  0  0
    7.4817  -15.2448   20.2233 C   0  0  0  0  0  0  0  0  0  0  0  0
    6.4624  -14.5173   21.0497 C   0  0  0  0  0  0  0  0  0  0  0  0
    7.2338  -13.7715   22.1169 C   0  0  0  0  0  0  0  0  0  0  0  0
    8.5174  -14.5479   22.2341 C   0  0  1  0  0  0  0  0  0  0  0  0
    8.3932  -15.6051   23.2744 C   0  0  0  0  0  0  0  0  0  0  0  0
    8.0849  -16.7663   22.9157 O   0  0  0  0  0  0  0  0  0  0  0  0
    5.1971  -11.4764   27.6492 O   0  0  0  0  0  0  0  0  0  0  0  0
    6.0740  -12.5400   27.4913 C   0  0  0  0  0  0  0  0  0  0  0  0
    7.2036  -12.6564   28.2785 C   0  0  0  0  0  0  0  0  0  0  0  0
    8.0972  -13.6980   28.1514 C   0  0  0  0  0  0  0  0  0  0  0  0
    7.8500  -14.6611   27.1980 C   0  0  0  0  0  0  0  0  0  0  0  0
    8.7900  -15.7886   27.0364 C   0  0  0  0  0  0  0  0  0  0  0  0
    8.6411  -16.3926   25.6815 C   0  0  2  0  0  0  0  0  0  0  0  0
    8.6041  -15.3698   24.6415 N   0  0  0  0  0  0  0  0  0  0  0  0
    7.4395  -17.2342   25.5156 C   0  0  0  0  0  0  0  0  0  0  0  0
    6.4834  -16.8091   24.8215 O   0  0  0  0  0  0  0  0  0  0  0  0
    6.7064  -14.5384   26.4051 C   0  0  0  0  0  0  0  0  0  0  0  0
    5.8188  -13.5043   26.5313 C   0  0  0  0  0  0  0  0  0  0  0  0
    7.2645  -18.4928   26.0731 O   0  0  0  0  0  0  0  0  0  0  0  0
  2  1  1  0
  3  2  2  0
  4  3  1  0
  5 11  1  0
  5  4  2  0
  6  5  1  0
  7  6  1  0
  7  8  1  1
  9  7  1  0
  9 13  1  0
 10  9  2  0
 11 12  2  0
 12  2  1  0
 13 17  1  0
 13 14  1  0
 14 15  1  0
 16 17  1  0
 16 15  1  0
 17 18  1  1
 19 18  2  0
 20 21  1  0
 21 22  2  0
 21 31  1  0
 22 23  1  0
 23 24  2  0
 24 25  1  0
 26 25  1  1
 26 28  1  0
 26 27  1  0
 27 18  1  0
 28 32  1  0
 29 28  2  0
 30 24  1  0
 31 30  2  0
M  END
$$$$
