RTV.pdb
     RDKit          3D

 26 25  0  0  1  0  0  0  0  0999 V2000
   13.8682  -15.4570   20.0366 N   0  0  0  0  0  0  0  0  0  0  0  0
   14.2280  -14.5127   19.0429 C   0  0  0  0  0  0  0  0  0  0  0  0
   15.4969  -14.2434   18.9119 N   0  0  0  0  0  0  0  0  0  0  0  0
   13.2570  -13.8928   18.2312 N   0  0  0  0  0  0  0  0  0  0  0  0
   11.8735  -14.2640   18.3797 C   0  0  0  0  0  0  0  0  0  0  0  0
   11.3478  -13.9661   19.7409 C   0  0  0  0  0  0  0  0  0  0  0  0
    9.9810  -13.3692   19.8240 C   0  0  0  0  0  0  0  0  0  0  0  0
    8.9236  -14.3893   19.5385 C   0  0  2  0  0  0  0  0  0  0  0  0
    7.9802  -13.8909   18.5482 N   0  0  0  0  0  0  0  0  0  0  0  0
    8.1331  -14.7174   20.7599 C   0  0  0  0  0  0  0  0  0  0  0  0
    7.0274  -14.1384   20.9569 O   0  0  0  0  0  0  0  0  0  0  0  0
   15.8499  -13.5480   18.2471 C   0  0  0  0  0  0  0  0  0  0  0  0
    6.5798  -17.8329   21.9971 C   0  0  2  0  0  0  0  0  0  0  0  0
    7.4424  -17.3363   23.1256 O   0  0  0  0  0  0  0  0  0  0  0  0
    8.6355  -18.0434   23.1275 C   0  0  2  0  0  0  0  0  0  0  0  0
    7.7791  -15.8561   22.9741 N   0  0  0  0  0  0  0  0  0  0  0  0
    8.5587  -15.6652   21.7385 C   0  0  0  0  0  0  0  0  0  0  0  0
    8.5083  -15.3109   24.1338 O   0  0  0  0  0  0  0  0  0  0  0  0
    9.7773  -15.2308   24.1581 C   0  0  0  0  0  0  0  0  0  0  0  0
    7.2827  -12.1417   25.8714 C   0  0  1  0  0  0  0  0  0  0  0  0
    7.5566  -13.1313   26.9793 C   0  0  0  0  0  0  0  0  0  0  0  0
    8.3619  -12.4256   28.0499 C   0  0  2  0  0  0  0  0  0  0  0  0
    8.4289  -14.2437   26.4175 N   0  0  0  0  0  0  0  0  0  0  0  0
    7.8051  -14.8563   25.2595 C   0  0  0  0  0  0  0  0  0  0  0  0
    8.8159  -15.2355   27.4323 O   0  0  0  0  0  0  0  0  0  0  0  0
    9.7584  -14.8689   28.4178 O   0  0  0  0  0  0  0  0  0  0  0  0
  1  2  1  0
  2  3  2  0
  4  5  1  0
  4  2  1  0
  6  7  1  0
  6  5  1  0
  8  9  1  6
  8  7  1  0
 10  8  1  0
 11 10  2  0
 13 12  1  1
 13 15  1  0
 14 13  1  0
 15 16  1  1
 16 10  1  0
 17 15  1  0
 17 18  2  0
 20 19  1  1
 20 21  1  0
 20 22  1  0
 22 23  1  6
 23 17  1  0
 24 22  1  0
 25 24  1  0
 26 24  2  0
M  END
$$$$
