RTV.pdb
     RDKit          3D

 26 25  0  0  1  0  0  0  0  0999 V2000
   13.9881  -18.5095   15.8790 N   0  0  0  0  0  0  0  0  0  0  0  0
   13.8826  -19.7063   16.6307 C   0  0  0  0  0  0  0  0  0  0  0  0
   13.5549  -20.7881   15.9812 N   0  0  0  0  0  0  0  0  0  0  0  0
   14.1223  -19.7262   18.0193 N   0  0  0  0  0  0  0  0  0  0  0  0
   14.4050  -18.4909   18.7033 C   0  0  0  0  0  0  0  0  0  0  0  0
   13.2465  -17.5551   18.6892 C   0  0  0  0  0  0  0  0  0  0  0  0
   12.8705  -16.9224   19.9890 C   0  0  0  0  0  0  0  0  0  0  0  0
   11.4617  -17.2560   20.3690 C   0  0  2  0  0  0  0  0  0  0  0  0
   10.6302  -17.4083   19.1838 N   0  0  0  0  0  0  0  0  0  0  0  0
   10.8446  -16.1762   21.1922 C   0  0  0  0  0  0  0  0  0  0  0  0
   11.3409  -15.0145   21.1639 O   0  0  0  0  0  0  0  0  0  0  0  0
   13.4810  -21.7048   16.4332 C   0  0  0  0  0  0  0  0  0  0  0  0
    7.2551  -14.9233   21.1745 C   0  0  2  0  0  0  0  0  0  0  0  0
    7.6276  -15.2309   22.5996 O   0  0  0  0  0  0  0  0  0  0  0  0
    7.1336  -16.4825   22.9359 C   0  0  2  0  0  0  0  0  0  0  0  0
    9.1400  -15.2591   22.7978 N   0  0  0  0  0  0  0  0  0  0  0  0
    9.7044  -16.3803   22.0261 C   0  0  0  0  0  0  0  0  0  0  0  0
    9.5321  -15.3593   24.2156 O   0  0  0  0  0  0  0  0  0  0  0  0
   10.0874  -16.3997   24.6919 C   0  0  0  0  0  0  0  0  0  0  0  0
    9.8485  -12.9710   28.5600 C   0  0  1  0  0  0  0  0  0  0  0  0
    9.3328  -12.9495   27.1404 C   0  0  0  0  0  0  0  0  0  0  0  0
    7.8234  -12.8409   27.1914 C   0  0  2  0  0  0  0  0  0  0  0  0
    9.6680  -14.2846   26.4931 N   0  0  0  0  0  0  0  0  0  0  0  0
    9.2994  -14.2869   25.0897 C   0  0  0  0  0  0  0  0  0  0  0  0
    9.1022  -15.4312   27.2200 O   0  0  0  0  0  0  0  0  0  0  0  0
    7.8470  -15.9389   26.8193 O   0  0  0  0  0  0  0  0  0  0  0  0
  1  2  1  0
  2  3  2  0
  4  5  1  0
  4  2  1  0
  6  7  1  0
  6  5  1  0
  8  9  1  6
  8  7  1  0
 10  8  1  0
 11 10  2  0
 13 12  1  1
 13 15  1  0
 14 13  1  0
 15 16  1  1
 16 10  1  0
 17 15  1  0
 17 18  2  0
 20 19  1  6
 20 21  1  0
 20 22  1  0
 22 23  1  1
 23 17  1  0
 24 22  1  0
 25 24  1  0
 26 24  2  0
M  END
$$$$
