RTV.pdb
     RDKit          3D

 26 25  0  0  1  0  0  0  0  0999 V2000
   12.4937  -20.7476   24.0115 N   0  0  0  0  0  0  0  0  0  0  0  0
   11.9579  -21.4689   22.9154 C   0  0  0  0  0  0  0  0  0  0  0  0
   11.1843  -22.4810   23.1923 N   0  0  0  0  0  0  0  0  0  0  0  0
   12.2481  -21.1074   21.5845 N   0  0  0  0  0  0  0  0  0  0  0  0
   12.0868  -19.7360   21.1759 C   0  0  0  0  0  0  0  0  0  0  0  0
   12.8596  -18.7931   22.0314 C   0  0  0  0  0  0  0  0  0  0  0  0
   12.7200  -17.3364   21.7319 C   0  0  0  0  0  0  0  0  0  0  0  0
   11.6017  -17.0836   20.7696 C   0  0  2  0  0  0  0  0  0  0  0  0
   12.1101  -16.5347   19.5209 N   0  0  0  0  0  0  0  0  0  0  0  0
   10.6258  -16.0935   21.3098 C   0  0  0  0  0  0  0  0  0  0  0  0
   10.8376  -14.8592   21.1420 O   0  0  0  0  0  0  0  0  0  0  0  0
   10.7679  -23.0746   22.4681 C   0  0  0  0  0  0  0  0  0  0  0  0
    6.0864  -14.8417   22.6945 C   0  0  1  0  0  0  0  0  0  0  0  0
    7.0849  -15.8874   22.2779 O   0  0  0  0  0  0  0  0  0  0  0  0
    6.9380  -16.1379   20.9218 C   0  0  1  0  0  0  0  0  0  0  0  0
    8.5203  -15.4277   22.5133 N   0  0  0  0  0  0  0  0  0  0  0  0
    9.4435  -16.4639   22.0183 C   0  0  0  0  0  0  0  0  0  0  0  0
    8.8007  -15.1197   23.9277 O   0  0  0  0  0  0  0  0  0  0  0  0
    9.6116  -15.8105   24.6224 C   0  0  0  0  0  0  0  0  0  0  0  0
    6.1001  -12.6580   25.9917 C   0  0  1  0  0  0  0  0  0  0  0  0
    7.5614  -12.4262   26.2962 C   0  0  0  0  0  0  0  0  0  0  0  0
    8.0657  -11.3369   25.3733 C   0  0  1  0  0  0  0  0  0  0  0  0
    8.3250  -13.6968   25.9549 N   0  0  0  0  0  0  0  0  0  0  0  0
    8.1685  -14.0342   24.5523 C   0  0  0  0  0  0  0  0  0  0  0  0
    7.9883  -14.8222   26.8399 O   0  0  0  0  0  0  0  0  0  0  0  0
    7.2480  -15.9037   26.3143 O   0  0  0  0  0  0  0  0  0  0  0  0
  1  2  1  0
  2  3  2  0
  4  5  1  0
  4  2  1  0
  6  7  1  0
  6  5  1  0
  8  9  1  6
  8  7  1  0
 10  8  1  0
 11 10  2  0
 13 12  1  1
 13 15  1  0
 14 13  1  0
 15 16  1  1
 16 10  1  0
 17 15  1  0
 17 18  2  0
 20 19  1  1
 20 21  1  0
 20 22  1  0
 22 23  1  6
 23 17  1  0
 24 22  1  0
 25 24  1  0
 26 24  2  0
M  END
$$$$
