RTV.pdb
     RDKit          3D

 26 25  0  0  1  0  0  0  0  0999 V2000
   15.7869  -20.2647   22.6780 N   0  0  0  0  0  0  0  0  0  0  0  0
   15.9093  -19.1076   21.8688 C   0  0  0  0  0  0  0  0  0  0  0  0
   16.9852  -18.3874   22.0220 N   0  0  0  0  0  0  0  0  0  0  0  0
   14.9121  -18.7515   20.9388 N   0  0  0  0  0  0  0  0  0  0  0  0
   13.5436  -19.1167   21.1989 C   0  0  0  0  0  0  0  0  0  0  0  0
   12.5748  -18.1791   20.5660 C   0  0  0  0  0  0  0  0  0  0  0  0
   11.1229  -18.4694   20.7634 C   0  0  0  0  0  0  0  0  0  0  0  0
   10.2673  -17.5095   19.9972 C   0  0  2  0  0  0  0  0  0  0  0  0
   10.9967  -16.9599   18.8637 N   0  0  0  0  0  0  0  0  0  0  0  0
    9.8478  -16.3535   20.8411 C   0  0  0  0  0  0  0  0  0  0  0  0
   10.5757  -15.3217   20.8853 O   0  0  0  0  0  0  0  0  0  0  0  0
   17.1715  -17.5451   21.4689 C   0  0  0  0  0  0  0  0  0  0  0  0
    6.6961  -14.5352   20.2793 C   0  0  2  0  0  0  0  0  0  0  0  0
    6.7512  -14.8132   21.7571 O   0  0  0  0  0  0  0  0  0  0  0  0
    5.9875  -15.9371   22.0344 C   0  0  2  0  0  0  0  0  0  0  0  0
    8.1749  -15.0899   22.2301 N   0  0  0  0  0  0  0  0  0  0  0  0
    8.6497  -16.3426   21.6166 C   0  0  0  0  0  0  0  0  0  0  0  0
    8.2896  -15.1586   23.6985 O   0  0  0  0  0  0  0  0  0  0  0  0
    8.8593  -16.1311   24.2876 C   0  0  0  0  0  0  0  0  0  0  0  0
    5.6606  -12.8154   25.9515 C   0  0  1  0  0  0  0  0  0  0  0  0
    7.0648  -12.9101   26.5000 C   0  0  0  0  0  0  0  0  0  0  0  0
    7.8558  -11.7330   25.9697 C   0  0  1  0  0  0  0  0  0  0  0  0
    7.7071  -14.1726   25.9455 N   0  0  0  0  0  0  0  0  0  0  0  0
    7.7646  -14.1309   24.4962 C   0  0  0  0  0  0  0  0  0  0  0  0
    7.0735  -15.4031   26.4431 O   0  0  0  0  0  0  0  0  0  0  0  0
    6.2365  -16.1371   25.5743 O   0  0  0  0  0  0  0  0  0  0  0  0
  1  2  1  0
  2  3  2  0
  4  5  1  0
  4  2  1  0
  6  7  1  0
  6  5  1  0
  8  9  1  6
  8  7  1  0
 10  8  1  0
 11 10  2  0
 13 12  1  1
 13 15  1  0
 14 13  1  0
 15 16  1  1
 16 10  1  0
 17 15  1  0
 17 18  2  0
 20 19  1  1
 20 21  1  0
 20 22  1  0
 22 23  1  6
 23 17  1  0
 24 22  1  0
 25 24  1  0
 26 24  2  0
M  END
$$$$
