RTV.pdb
     RDKit          3D

 26 25  0  0  1  0  0  0  0  0999 V2000
    7.7364  -12.1521   17.0021 N   0  0  0  0  0  0  0  0  0  0  0  0
    7.8957  -13.4374   16.4265 C   0  0  0  0  0  0  0  0  0  0  0  0
    7.8589  -13.5136   15.1255 N   0  0  0  0  0  0  0  0  0  0  0  0
    8.0864  -14.5827   17.2252 N   0  0  0  0  0  0  0  0  0  0  0  0
    8.7537  -14.4530   18.4947 C   0  0  0  0  0  0  0  0  0  0  0  0
    7.8661  -13.8873   19.5485 C   0  0  0  0  0  0  0  0  0  0  0  0
    7.0779  -14.8592   20.3643 C   0  0  0  0  0  0  0  0  0  0  0  0
    7.8578  -16.1102   20.6233 C   0  0  2  0  0  0  0  0  0  0  0  0
    7.2079  -17.2593   20.0100 N   0  0  0  0  0  0  0  0  0  0  0  0
    7.9603  -16.4012   22.0825 C   0  0  0  0  0  0  0  0  0  0  0  0
    6.9114  -16.4165   22.7868 O   0  0  0  0  0  0  0  0  0  0  0  0
    8.0041  -14.3917   14.6176 C   0  0  0  0  0  0  0  0  0  0  0  0
    9.1073  -19.4574   23.5699 C   0  0  2  0  0  0  0  0  0  0  0  0
    9.8496  -18.3986   24.3394 O   0  0  0  0  0  0  0  0  0  0  0  0
   11.1496  -18.3209   23.8624 C   0  0  2  0  0  0  0  0  0  0  0  0
    9.2105  -17.0233   24.1741 N   0  0  0  0  0  0  0  0  0  0  0  0
    9.1963  -16.6693   22.7439 C   0  0  0  0  0  0  0  0  0  0  0  0
    9.8899  -15.9757   24.9583 O   0  0  0  0  0  0  0  0  0  0  0  0
   10.9065  -15.3524   24.5164 C   0  0  0  0  0  0  0  0  0  0  0  0
    9.6748  -12.5648   28.3701 C   0  0  1  0  0  0  0  0  0  0  0  0
    9.0820  -13.4571   27.3051 C   0  0  0  0  0  0  0  0  0  0  0  0
    7.7830  -14.0238   27.8379 C   0  0  2  0  0  0  0  0  0  0  0  0
   10.0288  -14.6272   27.0850 N   0  0  0  0  0  0  0  0  0  0  0  0
    9.4198  -15.6333   26.2351 C   0  0  0  0  0  0  0  0  0  0  0  0
   10.5397  -15.1944   28.3421 O   0  0  0  0  0  0  0  0  0  0  0  0
   10.2877  -16.5542   28.6274 O   0  0  0  0  0  0  0  0  0  0  0  0
  1  2  1  0
  2  3  2  0
  4  5  1  0
  4  2  1  0
  6  7  1  0
  6  5  1  0
  8  9  1  6
  8  7  1  0
 10  8  1  0
 11 10  2  0
 13 12  1  1
 13 15  1  0
 14 13  1  0
 15 16  1  1
 16 10  1  0
 17 15  1  0
 17 18  2  0
 20 19  1  6
 20 21  1  0
 20 22  1  0
 22 23  1  1
 23 17  1  0
 24 22  1  0
 25 24  1  0
 26 24  2  0
M  END
$$$$
