RTV.pdb
     RDKit          3D

 26 25  0  0  1  0  0  0  0  0999 V2000
   16.5848  -12.6059   19.3257 N   0  0  0  0  0  0  0  0  0  0  0  0
   16.3539  -13.6620   20.2422 C   0  0  0  0  0  0  0  0  0  0  0  0
   16.9975  -13.6160   21.3750 N   0  0  0  0  0  0  0  0  0  0  0  0
   15.4668  -14.7152   19.9426 N   0  0  0  0  0  0  0  0  0  0  0  0
   14.7221  -14.6802   18.7105 C   0  0  0  0  0  0  0  0  0  0  0  0
   13.4102  -15.3767   18.8189 C   0  0  0  0  0  0  0  0  0  0  0  0
   12.8668  -15.5884   20.1941 C   0  0  0  0  0  0  0  0  0  0  0  0
   11.5432  -16.2863   20.1545 C   0  0  2  0  0  0  0  0  0  0  0  0
   10.7895  -15.8957   18.9720 N   0  0  0  0  0  0  0  0  0  0  0  0
   10.7027  -15.9369   21.3360 C   0  0  0  0  0  0  0  0  0  0  0  0
    9.9148  -14.9516   21.2669 O   0  0  0  0  0  0  0  0  0  0  0  0
   16.9530  -14.3691   22.0686 C   0  0  0  0  0  0  0  0  0  0  0  0
    7.9851  -17.6194   22.3213 C   0  0  2  0  0  0  0  0  0  0  0  0
    8.7085  -17.5041   23.6357 O   0  0  0  0  0  0  0  0  0  0  0  0
    9.3759  -18.6929   23.8902 C   0  0  2  0  0  0  0  0  0  0  0  0
    9.7440  -16.3839   23.6176 N   0  0  0  0  0  0  0  0  0  0  0  0
   10.7353  -16.6636   22.5640 C   0  0  0  0  0  0  0  0  0  0  0  0
   10.4122  -16.1977   24.9187 O   0  0  0  0  0  0  0  0  0  0  0  0
   11.6202  -16.5440   25.1142 C   0  0  0  0  0  0  0  0  0  0  0  0
   10.2075  -14.0688   29.3715 C   0  0  1  0  0  0  0  0  0  0  0  0
    9.6939  -14.1545   27.9535 C   0  0  0  0  0  0  0  0  0  0  0  0
    8.1940  -14.3536   28.0093 C   0  0  2  0  0  0  0  0  0  0  0  0
   10.2906  -15.3953   27.3065 N   0  0  0  0  0  0  0  0  0  0  0  0
    9.7179  -15.6204   25.9924 C   0  0  0  0  0  0  0  0  0  0  0  0
   10.2027  -16.5867   28.1645 O   0  0  0  0  0  0  0  0  0  0  0  0
   11.0384  -16.6711   29.2996 O   0  0  0  0  0  0  0  0  0  0  0  0
  1  2  1  0
  2  3  2  0
  4  5  1  0
  4  2  1  0
  6  7  1  0
  6  5  1  0
  8  9  1  6
  8  7  1  0
 10  8  1  0
 11 10  2  0
 13 12  1  1
 13 15  1  0
 14 13  1  0
 15 16  1  1
 16 10  1  0
 17 15  1  0
 17 18  2  0
 20 19  1  6
 20 21  1  0
 20 22  1  0
 22 23  1  1
 23 17  1  0
 24 22  1  0
 25 24  1  0
 26 24  2  0
M  END
$$$$
