RTV.pdb
     RDKit          3D

 26 25  0  0  1  0  0  0  0  0999 V2000
   13.6975  -16.3706   17.4010 N   0  0  0  0  0  0  0  0  0  0  0  0
   14.1442  -16.1070   18.7200 C   0  0  0  0  0  0  0  0  0  0  0  0
   14.8188  -17.0492   19.3174 N   0  0  0  0  0  0  0  0  0  0  0  0
   13.8718  -14.8801   19.3575 N   0  0  0  0  0  0  0  0  0  0  0  0
   12.9608  -13.9519   18.7391 C   0  0  0  0  0  0  0  0  0  0  0  0
   11.5707  -14.4816   18.6675 C   0  0  0  0  0  0  0  0  0  0  0  0
   10.5759  -13.9056   19.6212 C   0  0  0  0  0  0  0  0  0  0  0  0
    9.2171  -14.4982   19.4138 C   0  0  2  0  0  0  0  0  0  0  0  0
    8.4271  -13.6734   18.5114 N   0  0  0  0  0  0  0  0  0  0  0  0
    8.4560  -14.5879   20.6932 C   0  0  0  0  0  0  0  0  0  0  0  0
    7.2012  -14.4402   20.6799 O   0  0  0  0  0  0  0  0  0  0  0  0
   15.0845  -16.9988   20.3058 C   0  0  0  0  0  0  0  0  0  0  0  0
    6.5449  -15.9732   21.4547 C   0  0  2  0  0  0  0  0  0  0  0  0
    7.2778  -16.3020   22.7270 O   0  0  0  0  0  0  0  0  0  0  0  0
    8.0131  -17.4627   22.5382 C   0  0  2  0  0  0  0  0  0  0  0  0
    8.2495  -15.1953   23.1249 N   0  0  0  0  0  0  0  0  0  0  0  0
    9.0721  -14.8359   21.9566 C   0  0  0  0  0  0  0  0  0  0  0  0
    9.1071  -15.5660   24.2656 O   0  0  0  0  0  0  0  0  0  0  0  0
   10.2225  -16.1566   24.1092 C   0  0  0  0  0  0  0  0  0  0  0  0
   10.3569  -13.7231   28.5728 C   0  0  1  0  0  0  0  0  0  0  0  0
    9.3854  -13.8055   27.4190 C   0  0  0  0  0  0  0  0  0  0  0  0
    7.9832  -13.8475   27.9888 C   0  0  2  0  0  0  0  0  0  0  0  0
    9.6185  -15.1230   26.6951 N   0  0  0  0  0  0  0  0  0  0  0  0
    8.7058  -15.2678   25.5764 C   0  0  0  0  0  0  0  0  0  0  0  0
    9.5848  -16.2849   27.5962 O   0  0  0  0  0  0  0  0  0  0  0  0
   10.6377  -16.4602   28.5206 O   0  0  0  0  0  0  0  0  0  0  0  0
  1  2  1  0
  2  3  2  0
  4  5  1  0
  4  2  1  0
  6  7  1  0
  6  5  1  0
  8  9  1  6
  8  7  1  0
 10  8  1  0
 11 10  2  0
 13 12  1  1
 13 15  1  0
 14 13  1  0
 15 16  1  1
 16 10  1  0
 17 15  1  0
 17 18  2  0
 20 19  1  6
 20 21  1  0
 20 22  1  0
 22 23  1  1
 23 17  1  0
 24 22  1  0
 25 24  1  0
 26 24  2  0
M  END
$$$$
