RTV.pdb
     RDKit          3D

 26 25  0  0  1  0  0  0  0  0999 V2000
   15.6457  -17.6872   19.0965 N   0  0  0  0  0  0  0  0  0  0  0  0
   15.5082  -18.9881   19.6417 C   0  0  0  0  0  0  0  0  0  0  0  0
   16.6057  -19.6456   19.8922 N   0  0  0  0  0  0  0  0  0  0  0  0
   14.2407  -19.5463   19.9025 N   0  0  0  0  0  0  0  0  0  0  0  0
   13.0595  -18.8431   19.4733 C   0  0  0  0  0  0  0  0  0  0  0  0
   12.8321  -17.5897   20.2448 C   0  0  0  0  0  0  0  0  0  0  0  0
   11.7083  -16.7131   19.7977 C   0  0  0  0  0  0  0  0  0  0  0  0
   10.3829  -17.2797   20.2009 C   0  0  2  0  0  0  0  0  0  0  0  0
    9.6847  -17.8293   19.0479 N   0  0  0  0  0  0  0  0  0  0  0  0
    9.4937  -16.2344   20.7850 C   0  0  0  0  0  0  0  0  0  0  0  0
    8.7476  -15.5580   20.0219 O   0  0  0  0  0  0  0  0  0  0  0  0
   16.6082  -20.5794   20.3144 C   0  0  0  0  0  0  0  0  0  0  0  0
    6.8344  -16.0912   20.9565 C   0  0  2  0  0  0  0  0  0  0  0  0
    7.0072  -15.8188   22.4263 O   0  0  0  0  0  0  0  0  0  0  0  0
    6.9935  -17.0231   23.1140 C   0  0  2  0  0  0  0  0  0  0  0  0
    8.3347  -15.1285   22.7237 N   0  0  0  0  0  0  0  0  0  0  0  0
    9.4334  -15.9471   22.1818 C   0  0  0  0  0  0  0  0  0  0  0  0
    8.5411  -14.8743   24.1613 O   0  0  0  0  0  0  0  0  0  0  0  0
    9.2784  -15.6199   24.8809 C   0  0  0  0  0  0  0  0  0  0  0  0
    5.8046  -12.3888   26.1815 C   0  0  1  0  0  0  0  0  0  0  0  0
    7.2611  -12.2074   26.5385 C   0  0  0  0  0  0  0  0  0  0  0  0
    7.8295  -11.1200   25.6514 C   0  0  1  0  0  0  0  0  0  0  0  0
    7.9966  -13.4957   26.2018 N   0  0  0  0  0  0  0  0  0  0  0  0
    7.9183  -13.7806   24.7811 C   0  0  0  0  0  0  0  0  0  0  0  0
    7.5612  -14.6350   27.0237 O   0  0  0  0  0  0  0  0  0  0  0  0
    8.1079  -14.7901   28.3164 O   0  0  0  0  0  0  0  0  0  0  0  0
  1  2  1  0
  2  3  2  0
  4  5  1  0
  4  2  1  0
  6  7  1  0
  6  5  1  0
  8  9  1  6
  8  7  1  0
 10  8  1  0
 11 10  2  0
 13 12  1  1
 13 15  1  0
 14 13  1  0
 15 16  1  1
 16 10  1  0
 17 15  1  0
 17 18  2  0
 20 19  1  1
 20 21  1  0
 20 22  1  0
 22 23  1  6
 23 17  1  0
 24 22  1  0
 25 24  1  0
 26 24  2  0
M  END
$$$$
