RTV.pdb
     RDKit          3D

 26 25  0  0  1  0  0  0  0  0999 V2000
    7.7108  -13.5664   19.0273 N   0  0  0  0  0  0  0  0  0  0  0  0
    8.0921  -13.6897   17.6679 C   0  0  0  0  0  0  0  0  0  0  0  0
    8.8573  -12.7542   17.1790 N   0  0  0  0  0  0  0  0  0  0  0  0
    7.6637  -14.7763   16.8794 N   0  0  0  0  0  0  0  0  0  0  0  0
    7.1768  -15.9673   17.5261 C   0  0  0  0  0  0  0  0  0  0  0  0
    8.1749  -16.5541   18.4629 C   0  0  0  0  0  0  0  0  0  0  0  0
    8.0634  -16.1673   19.9014 C   0  0  0  0  0  0  0  0  0  0  0  0
    8.0555  -17.3722   20.7895 C   0  0  2  0  0  0  0  0  0  0  0  0
    7.2412  -18.4323   20.2132 N   0  0  0  0  0  0  0  0  0  0  0  0
    7.4759  -17.0634   22.1286 C   0  0  0  0  0  0  0  0  0  0  0  0
    6.2393  -16.8243   22.2289 O   0  0  0  0  0  0  0  0  0  0  0  0
    9.1680  -12.7464   16.2025 C   0  0  0  0  0  0  0  0  0  0  0  0
    6.6967  -18.9569   24.7932 C   0  0  2  0  0  0  0  0  0  0  0  0
    7.4742  -17.8684   25.4823 O   0  0  0  0  0  0  0  0  0  0  0  0
    8.7475  -18.3360   25.7714 C   0  0  2  0  0  0  0  0  0  0  0  0
    7.6217  -16.6313   24.6018 N   0  0  0  0  0  0  0  0  0  0  0  0
    8.2496  -17.0214   23.3273 C   0  0  0  0  0  0  0  0  0  0  0  0
    8.3930  -15.5540   25.2487 O   0  0  0  0  0  0  0  0  0  0  0  0
    9.6155  -15.3379   24.9727 C   0  0  0  0  0  0  0  0  0  0  0  0
    6.3367  -12.7722   27.7048 C   0  0  1  0  0  0  0  0  0  0  0  0
    7.6561  -12.4317   27.0529 C   0  0  0  0  0  0  0  0  0  0  0  0
    7.3755  -11.9751   25.6368 C   0  0  1  0  0  0  0  0  0  0  0  0
    8.4833  -13.7050   26.9615 N   0  0  0  0  0  0  0  0  0  0  0  0
    7.7834  -14.7238   26.2013 C   0  0  0  0  0  0  0  0  0  0  0  0
    8.9259  -14.1956   28.2755 O   0  0  0  0  0  0  0  0  0  0  0  0
    9.7628  -13.3741   29.0621 O   0  0  0  0  0  0  0  0  0  0  0  0
  1  2  1  0
  2  3  2  0
  4  5  1  0
  4  2  1  0
  6  7  1  0
  6  5  1  0
  8  9  1  6
  8  7  1  0
 10  8  1  0
 11 10  2  0
 13 12  1  1
 13 15  1  0
 14 13  1  0
 15 16  1  1
 16 10  1  0
 17 15  1  0
 17 18  2  0
 20 19  1  1
 20 21  1  0
 20 22  1  0
 22 23  1  6
 23 17  1  0
 24 22  1  0
 25 24  1  0
 26 24  2  0
M  END
$$$$
