RTV.pdb
     RDKit          3D

 26 25  0  0  1  0  0  0  0  0999 V2000
    9.0511  -15.3185   14.6411 N   0  0  0  0  0  0  0  0  0  0  0  0
    8.3894  -14.0868   14.4096 C   0  0  0  0  0  0  0  0  0  0  0  0
    8.0392  -13.8228   13.1819 N   0  0  0  0  0  0  0  0  0  0  0  0
    8.1209  -13.1870   15.4605 N   0  0  0  0  0  0  0  0  0  0  0  0
    8.6255  -13.4727   16.7787 C   0  0  0  0  0  0  0  0  0  0  0  0
    7.8523  -14.5458   17.4633 C   0  0  0  0  0  0  0  0  0  0  0  0
    7.8374  -14.5230   18.9568 C   0  0  0  0  0  0  0  0  0  0  0  0
    8.6109  -15.6711   19.5261 C   0  0  2  0  0  0  0  0  0  0  0  0
    8.4224  -16.8694   18.7214 N   0  0  0  0  0  0  0  0  0  0  0  0
    8.1607  -16.0049   20.9082 C   0  0  0  0  0  0  0  0  0  0  0  0
    6.9484  -16.2967   21.1119 O   0  0  0  0  0  0  0  0  0  0  0  0
    7.6057  -12.9356   12.9079 C   0  0  0  0  0  0  0  0  0  0  0  0
    8.6060  -18.7284   23.0337 C   0  0  2  0  0  0  0  0  0  0  0  0
    9.0220  -17.5793   23.9118 O   0  0  0  0  0  0  0  0  0  0  0  0
   10.4068  -17.5079   23.9369 C   0  0  2  0  0  0  0  0  0  0  0  0
    8.4969  -16.2459   23.3889 N   0  0  0  0  0  0  0  0  0  0  0  0
    9.0347  -16.0152   22.0366 C   0  0  0  0  0  0  0  0  0  0  0  0
    8.8227  -15.1127   24.2741 O   0  0  0  0  0  0  0  0  0  0  0  0
    9.8958  -14.4420   24.1470 C   0  0  0  0  0  0  0  0  0  0  0  0
    7.2639  -11.4858   27.0442 C   0  0  1  0  0  0  0  0  0  0  0  0
    6.9846  -12.6315   26.1003 C   0  0  0  0  0  0  0  0  0  0  0  0
    5.7512  -13.3570   26.5954 C   0  0  2  0  0  0  0  0  0  0  0  0
    8.1472  -13.6090   26.1828 N   0  0  0  0  0  0  0  0  0  0  0  0
    7.9379  -14.7388   25.2966 C   0  0  0  0  0  0  0  0  0  0  0  0
    8.4454  -14.0289   27.5605 O   0  0  0  0  0  0  0  0  0  0  0  0
    8.9474  -13.0725   28.4700 O   0  0  0  0  0  0  0  0  0  0  0  0
  1  2  1  0
  2  3  2  0
  4  5  1  0
  4  2  1  0
  6  7  1  0
  6  5  1  0
  8  9  1  6
  8  7  1  0
 10  8  1  0
 11 10  2  0
 13 12  1  1
 13 15  1  0
 14 13  1  0
 15 16  1  1
 16 10  1  0
 17 15  1  0
 17 18  2  0
 20 19  1  6
 20 21  1  0
 20 22  1  0
 22 23  1  1
 23 17  1  0
 24 22  1  0
 25 24  1  0
 26 24  2  0
M  END
$$$$
