RTV.pdb
     RDKit          3D

 26 25  0  0  1  0  0  0  0  0999 V2000
   12.3228  -15.8500   20.2977 N   0  0  0  0  0  0  0  0  0  0  0  0
   12.8434  -14.6245   19.8121 C   0  0  0  0  0  0  0  0  0  0  0  0
   14.0152  -14.6620   19.2419 N   0  0  0  0  0  0  0  0  0  0  0  0
   12.1256  -13.4185   19.9392 N   0  0  0  0  0  0  0  0  0  0  0  0
   10.8210  -13.4360   20.5489 C   0  0  0  0  0  0  0  0  0  0  0  0
    9.7258  -13.2721   19.5530 C   0  0  0  0  0  0  0  0  0  0  0  0
    8.3269  -13.2789   20.0767 C   0  0  0  0  0  0  0  0  0  0  0  0
    7.8068  -14.6750   20.2209 C   0  0  2  0  0  0  0  0  0  0  0  0
    6.5633  -14.8409   19.4826 N   0  0  0  0  0  0  0  0  0  0  0  0
    7.5101  -15.0061   21.6445 C   0  0  0  0  0  0  0  0  0  0  0  0
    6.4918  -14.5037   22.1987 O   0  0  0  0  0  0  0  0  0  0  0  0
   14.4521  -13.8372   18.8188 C   0  0  0  0  0  0  0  0  0  0  0  0
    6.7127  -18.2226   23.0745 C   0  0  2  0  0  0  0  0  0  0  0  0
    7.7826  -17.6818   23.9839 O   0  0  0  0  0  0  0  0  0  0  0  0
    8.9928  -18.2785   23.6630 C   0  0  2  0  0  0  0  0  0  0  0  0
    7.9517  -16.1737   23.8277 N   0  0  0  0  0  0  0  0  0  0  0  0
    8.3231  -15.8741   22.4337 C   0  0  0  0  0  0  0  0  0  0  0  0
    8.9441  -15.6070   24.7594 O   0  0  0  0  0  0  0  0  0  0  0  0
   10.0823  -15.1968   24.3677 C   0  0  0  0  0  0  0  0  0  0  0  0
    7.7204  -14.4365   28.6439 C   0  0  1  0  0  0  0  0  0  0  0  0
    8.9216  -13.8658   27.9275 C   0  0  0  0  0  0  0  0  0  0  0  0
    8.4299  -12.8268   26.9420 C   0  0  1  0  0  0  0  0  0  0  0  0
    9.5685  -14.9822   27.1216 N   0  0  0  0  0  0  0  0  0  0  0  0
    8.6491  -15.5028   26.1270 C   0  0  0  0  0  0  0  0  0  0  0  0
   10.1351  -16.0440   27.9670 O   0  0  0  0  0  0  0  0  0  0  0  0
   11.2151  -15.7306   28.8210 O   0  0  0  0  0  0  0  0  0  0  0  0
  1  2  1  0
  2  3  2  0
  4  5  1  0
  4  2  1  0
  6  7  1  0
  6  5  1  0
  8  9  1  6
  8  7  1  0
 10  8  1  0
 11 10  2  0
 13 12  1  1
 13 15  1  0
 14 13  1  0
 15 16  1  1
 16 10  1  0
 17 15  1  0
 17 18  2  0
 20 19  1  1
 20 21  1  0
 20 22  1  0
 22 23  1  6
 23 17  1  0
 24 22  1  0
 25 24  1  0
 26 24  2  0
M  END
$$$$
