RTV.pdb
     RDKit          3D

 26 25  0  0  1  0  0  0  0  0999 V2000
    7.9858  -15.1595   14.0779 N   0  0  0  0  0  0  0  0  0  0  0  0
    8.3253  -14.2859   15.1410 C   0  0  0  0  0  0  0  0  0  0  0  0
    7.8801  -13.0627   15.0691 N   0  0  0  0  0  0  0  0  0  0  0  0
    9.1092  -14.7205   16.2285 N   0  0  0  0  0  0  0  0  0  0  0  0
    8.4583  -15.2465   17.4004 C   0  0  0  0  0  0  0  0  0  0  0  0
    7.9024  -14.1741   18.2716 C   0  0  0  0  0  0  0  0  0  0  0  0
    7.1702  -14.6093   19.4987 C   0  0  0  0  0  0  0  0  0  0  0  0
    7.7974  -15.8263   20.1036 C   0  0  2  0  0  0  0  0  0  0  0  0
    7.4060  -17.0243   19.3752 N   0  0  0  0  0  0  0  0  0  0  0  0
    7.3655  -16.0214   21.5177 C   0  0  0  0  0  0  0  0  0  0  0  0
    6.3050  -16.6646   21.7590 O   0  0  0  0  0  0  0  0  0  0  0  0
    8.0931  -12.3530   15.7769 C   0  0  0  0  0  0  0  0  0  0  0  0
    7.0654  -18.1286   23.0607 C   0  0  2  0  0  0  0  0  0  0  0  0
    7.8062  -17.4074   24.1539 O   0  0  0  0  0  0  0  0  0  0  0  0
    9.1493  -17.7473   24.0903 C   0  0  2  0  0  0  0  0  0  0  0  0
    7.7023  -15.8925   24.0066 N   0  0  0  0  0  0  0  0  0  0  0  0
    8.0927  -15.5155   22.6368 C   0  0  0  0  0  0  0  0  0  0  0  0
    8.5165  -15.1616   24.9950 O   0  0  0  0  0  0  0  0  0  0  0  0
    9.7836  -15.0938   24.9099 C   0  0  0  0  0  0  0  0  0  0  0  0
    6.4678  -12.4269   27.3370 C   0  0  1  0  0  0  0  0  0  0  0  0
    7.9295  -12.2439   27.0029 C   0  0  0  0  0  0  0  0  0  0  0  0
    8.0230  -11.6826   25.5998 C   0  0  1  0  0  0  0  0  0  0  0  0
    8.5881  -13.6150   26.9858 N   0  0  0  0  0  0  0  0  0  0  0  0
    7.9000  -14.5087   26.0728 C   0  0  0  0  0  0  0  0  0  0  0  0
    8.7360  -14.1958   28.3289 O   0  0  0  0  0  0  0  0  0  0  0  0
    9.5331  -13.5201   29.2786 O   0  0  0  0  0  0  0  0  0  0  0  0
  1  2  1  0
  2  3  2  0
  4  5  1  0
  4  2  1  0
  6  7  1  0
  6  5  1  0
  8  9  1  6
  8  7  1  0
 10  8  1  0
 11 10  2  0
 13 12  1  1
 13 15  1  0
 14 13  1  0
 15 16  1  1
 16 10  1  0
 17 15  1  0
 17 18  2  0
 20 19  1  1
 20 21  1  0
 20 22  1  0
 22 23  1  6
 23 17  1  0
 24 22  1  0
 25 24  1  0
 26 24  2  0
M  END
$$$$
