RTV.pdb
     RDKit          3D

 26 25  0  0  1  0  0  0  0  0999 V2000
    7.3790  -14.6606   16.8196 N   0  0  0  0  0  0  0  0  0  0  0  0
    7.8784  -13.3410   16.6853 C   0  0  0  0  0  0  0  0  0  0  0  0
    8.3454  -12.9993   15.5170 N   0  0  0  0  0  0  0  0  0  0  0  0
    7.8698  -12.4375   17.7668 N   0  0  0  0  0  0  0  0  0  0  0  0
    7.6061  -12.9301   19.0941 C   0  0  0  0  0  0  0  0  0  0  0  0
    8.5420  -14.0176   19.4934 C   0  0  0  0  0  0  0  0  0  0  0  0
    7.9559  -15.1829   20.2212 C   0  0  0  0  0  0  0  0  0  0  0  0
    9.0000  -16.2079   20.5371 C   0  0  2  0  0  0  0  0  0  0  0  0
    8.8528  -17.3751   19.6796 N   0  0  0  0  0  0  0  0  0  0  0  0
    8.8882  -16.6901   21.9440 C   0  0  0  0  0  0  0  0  0  0  0  0
    7.7459  -16.9281   22.4290 O   0  0  0  0  0  0  0  0  0  0  0  0
    8.7376  -12.0719   15.3267 C   0  0  0  0  0  0  0  0  0  0  0  0
    9.5326  -19.7119   23.3988 C   0  0  2  0  0  0  0  0  0  0  0  0
   10.2925  -18.7918   24.3154 O   0  0  0  0  0  0  0  0  0  0  0  0
   11.6382  -18.8324   23.9826 C   0  0  2  0  0  0  0  0  0  0  0  0
    9.8243  -17.3458   24.1842 N   0  0  0  0  0  0  0  0  0  0  0  0
   10.0163  -16.9035   22.7919 C   0  0  0  0  0  0  0  0  0  0  0  0
   10.5117  -16.4323   25.1153 O   0  0  0  0  0  0  0  0  0  0  0  0
   11.5816  -15.8223   24.7980 C   0  0  0  0  0  0  0  0  0  0  0  0
   10.3735  -13.3676   28.7775 C   0  0  1  0  0  0  0  0  0  0  0  0
   10.0219  -13.9975   27.4503 C   0  0  0  0  0  0  0  0  0  0  0  0
    8.5182  -14.1656   27.3947 C   0  0  2  0  0  0  0  0  0  0  0  0
   10.6339  -15.3895   27.4084 N   0  0  0  0  0  0  0  0  0  0  0  0
    9.9899  -16.2082   26.3982 C   0  0  0  0  0  0  0  0  0  0  0  0
   10.6572  -16.0445   28.7251 O   0  0  0  0  0  0  0  0  0  0  0  0
    9.9661  -17.2647   28.8907 O   0  0  0  0  0  0  0  0  0  0  0  0
  1  2  1  0
  2  3  2  0
  4  5  1  0
  4  2  1  0
  6  7  1  0
  6  5  1  0
  8  9  1  6
  8  7  1  0
 10  8  1  0
 11 10  2  0
 13 12  1  1
 13 15  1  0
 14 13  1  0
 15 16  1  1
 16 10  1  0
 17 15  1  0
 17 18  2  0
 20 19  1  6
 20 21  1  0
 20 22  1  0
 22 23  1  1
 23 17  1  0
 24 22  1  0
 25 24  1  0
 26 24  2  0
M  END
$$$$
