MLV.pdb
     RDKit          3D

 24 23  0  0  1  0  0  0  0  0999 V2000
    6.5522  -21.1403   23.8807 C   0  0  0  0  0  0  0  0  0  0  0  0
    5.0491  -20.5190   23.0773 S   0  0  0  0  0  0  0  0  0  0  0  0
    5.3626  -18.9244   22.2846 C   0  0  0  0  0  0  0  0  0  0  0  0
    6.5306  -18.2752   22.9759 C   0  0  0  0  0  0  0  0  0  0  0  0
    6.7094  -16.8840   22.3592 C   0  0  2  0  0  0  0  0  0  0  0  0
    7.2160  -17.0454   21.0305 N   0  0  0  0  0  0  0  0  0  0  0  0
    7.6374  -16.1100   23.2301 C   0  0  0  0  0  0  0  0  0  0  0  0
    8.8648  -16.1993   22.9832 O   0  0  0  0  0  0  0  0  0  0  0  0
    7.6843  -11.5720   25.1188 C   0  0  0  0  0  0  0  0  0  0  0  0
    6.7200  -12.5639   25.6734 C   0  0  2  0  0  0  0  0  0  0  0  0
    5.9658  -11.8554   26.8134 C   0  0  0  0  0  0  0  0  0  0  0  0
    7.2948  -13.7922   26.2698 C   0  0  0  0  0  0  0  0  0  0  0  0
    7.8948  -14.8103   25.3983 C   0  0  2  0  0  0  0  0  0  0  0  0
    7.1463  -15.3081   24.2920 N   0  0  0  0  0  0  0  0  0  0  0  0
    8.5870  -15.8555   26.2062 C   0  0  0  0  0  0  0  0  0  0  0  0
    7.8886  -16.7385   26.8156 O   0  0  0  0  0  0  0  0  0  0  0  0
   12.7796  -16.3871   26.3920 C   0  0  0  0  0  0  0  0  0  0  0  0
   11.8444  -17.5963   26.2652 C   0  0  1  0  0  0  0  0  0  0  0  0
   12.5239  -18.7737   26.9050 C   0  0  0  0  0  0  0  0  0  0  0  0
   10.5741  -17.1889   26.9775 C   0  0  2  0  0  0  0  0  0  0  0  0
    9.9839  -15.9752   26.3840 N   0  0  0  0  0  0  0  0  0  0  0  0
   10.9356  -16.8641   28.3715 C   0  0  0  0  0  0  0  0  0  0  0  0
   10.8597  -15.6784   28.7637 O   0  0  0  0  0  0  0  0  0  0  0  0
   11.3597  -17.8135   29.2799 O   0  0  0  0  0  0  0  0  0  0  0  0
  2  3  1  0
  2  1  1  0
  4  5  1  0
  4  3  1  0
  5  6  1  6
  7  8  2  0
  7  5  1  0
 10  9  1  1
 10 12  1  0
 10 11  1  0
 13 12  1  1
 13 14  1  0
 14  7  1  0
 15 16  2  0
 15 13  1  0
 18 17  1  1
 18 20  1  0
 19 18  1  0
 20 22  1  0
 20 21  1  6
 21 15  1  0
 22 24  1  0
 23 22  2  0
M  END
$$$$
