MLV.pdb
     RDKit          3D

 24 23  0  0  1  0  0  0  0  0999 V2000
    8.2507  -11.2848   19.7892 C   0  0  0  0  0  0  0  0  0  0  0  0
    8.1799  -12.6133   18.5560 S   0  0  0  0  0  0  0  0  0  0  0  0
    7.9788  -14.2200   19.3606 C   0  0  0  0  0  0  0  0  0  0  0  0
    8.5367  -14.1229   20.7544 C   0  0  0  0  0  0  0  0  0  0  0  0
    8.3992  -15.5068   21.3977 C   0  0  2  0  0  0  0  0  0  0  0  0
    7.0231  -15.8948   21.3346 N   0  0  0  0  0  0  0  0  0  0  0  0
    8.8994  -15.4155   22.7978 C   0  0  0  0  0  0  0  0  0  0  0  0
   10.1426  -15.3547   22.9603 O   0  0  0  0  0  0  0  0  0  0  0  0
    8.1330  -12.0654   25.9048 C   0  0  0  0  0  0  0  0  0  0  0  0
    7.0662  -13.1007   25.7967 C   0  0  2  0  0  0  0  0  0  0  0  0
    5.9597  -12.6982   26.7888 C   0  0  0  0  0  0  0  0  0  0  0  0
    7.4441  -14.4883   26.1524 C   0  0  0  0  0  0  0  0  0  0  0  0
    8.3430  -15.2445   25.2712 C   0  0  2  0  0  0  0  0  0  0  0  0
    8.0016  -15.3987   23.8958 N   0  0  0  0  0  0  0  0  0  0  0  0
    8.8153  -16.4900   25.9419 C   0  0  0  0  0  0  0  0  0  0  0  0
    7.9747  -17.4228   26.1910 O   0  0  0  0  0  0  0  0  0  0  0  0
   11.4457  -18.8202   24.9040 C   0  0  0  0  0  0  0  0  0  0  0  0
   11.7580  -18.6241   26.3929 C   0  0  1  0  0  0  0  0  0  0  0  0
   12.9378  -17.6998   26.4986 C   0  0  0  0  0  0  0  0  0  0  0  0
   10.4957  -18.0407   26.9872 C   0  0  2  0  0  0  0  0  0  0  0  0
   10.1402  -16.7573   26.3545 N   0  0  0  0  0  0  0  0  0  0  0  0
   10.7657  -17.7670   28.4126 C   0  0  0  0  0  0  0  0  0  0  0  0
   10.7800  -16.5830   28.8171 O   0  0  0  0  0  0  0  0  0  0  0  0
   11.0070  -18.7631   29.3378 O   0  0  0  0  0  0  0  0  0  0  0  0
  2  3  1  0
  2  1  1  0
  4  5  1  0
  4  3  1  0
  5  6  1  1
  7  8  2  0
  7  5  1  0
 10  9  1  1
 10 12  1  0
 10 11  1  0
 13 12  1  1
 13 14  1  0
 14  7  1  0
 15 16  2  0
 15 13  1  0
 18 17  1  6
 18 20  1  0
 19 18  1  0
 20 22  1  0
 20 21  1  6
 21 15  1  0
 22 24  1  0
 23 22  2  0
M  END
$$$$
