MLV.pdb
     RDKit          3D

 24 23  0  0  1  0  0  0  0  0999 V2000
    8.7783  -11.4273   19.5231 C   0  0  0  0  0  0  0  0  0  0  0  0
    7.8718  -12.6320   18.5141 S   0  0  0  0  0  0  0  0  0  0  0  0
    7.8142  -14.2397   19.3394 C   0  0  0  0  0  0  0  0  0  0  0  0
    8.2318  -14.0500   20.7723 C   0  0  0  0  0  0  0  0  0  0  0  0
    8.2982  -15.4391   21.4154 C   0  0  2  0  0  0  0  0  0  0  0  0
    6.9921  -16.0214   21.3585 N   0  0  0  0  0  0  0  0  0  0  0  0
    8.7866  -15.2766   22.8132 C   0  0  0  0  0  0  0  0  0  0  0  0
   10.0248  -15.1523   22.9777 O   0  0  0  0  0  0  0  0  0  0  0  0
    7.9168  -11.9435   25.8789 C   0  0  0  0  0  0  0  0  0  0  0  0
    6.8755  -13.0078   25.8097 C   0  0  2  0  0  0  0  0  0  0  0  0
    5.7858  -12.6249   26.8277 C   0  0  0  0  0  0  0  0  0  0  0  0
    7.3000  -14.3813   26.1679 C   0  0  0  0  0  0  0  0  0  0  0  0
    8.2179  -15.1112   25.2841 C   0  0  2  0  0  0  0  0  0  0  0  0
    7.8835  -15.2639   23.9068 N   0  0  0  0  0  0  0  0  0  0  0  0
    8.7164  -16.3501   25.9480 C   0  0  0  0  0  0  0  0  0  0  0  0
    7.8904  -17.2902   26.2174 O   0  0  0  0  0  0  0  0  0  0  0  0
   11.4946  -18.6860   24.9643 C   0  0  0  0  0  0  0  0  0  0  0  0
   11.7465  -18.3980   26.4498 C   0  0  1  0  0  0  0  0  0  0  0  0
   12.8583  -17.3917   26.5421 C   0  0  0  0  0  0  0  0  0  0  0  0
   10.4302  -17.8739   26.9787 C   0  0  2  0  0  0  0  0  0  0  0  0
   10.0524  -16.6035   26.3329 N   0  0  0  0  0  0  0  0  0  0  0  0
   10.6124  -17.5974   28.4173 C   0  0  0  0  0  0  0  0  0  0  0  0
   10.4799  -16.4263   28.8376 O   0  0  0  0  0  0  0  0  0  0  0  0
   10.9260  -18.5770   29.3384 O   0  0  0  0  0  0  0  0  0  0  0  0
  2  3  1  0
  2  1  1  0
  4  5  1  0
  4  3  1  0
  5  6  1  1
  7  8  2  0
  7  5  1  0
 10  9  1  1
 10 12  1  0
 10 11  1  0
 13 12  1  1
 13 14  1  0
 14  7  1  0
 15 16  2  0
 15 13  1  0
 18 17  1  6
 18 20  1  0
 19 18  1  0
 20 22  1  0
 20 21  1  6
 21 15  1  0
 22 24  1  0
 23 22  2  0
M  END
$$$$
