MLV.pdb
     RDKit          3D

 24 23  0  0  1  0  0  0  0  0999 V2000
    2.7480  -18.2010   21.0488 C   0  0  0  0  0  0  0  0  0  0  0  0
    3.8018  -19.6691   20.8901 S   0  0  0  0  0  0  0  0  0  0  0  0
    5.1343  -19.6323   22.1116 C   0  0  0  0  0  0  0  0  0  0  0  0
    5.4748  -18.1946   22.3955 C   0  0  0  0  0  0  0  0  0  0  0  0
    6.5297  -18.1870   23.5068 C   0  0  2  0  0  0  0  0  0  0  0  0
    5.8577  -18.3289   24.7625 N   0  0  0  0  0  0  0  0  0  0  0  0
    7.2899  -16.9097   23.4113 C   0  0  0  0  0  0  0  0  0  0  0  0
    7.9719  -16.7238   22.3740 O   0  0  0  0  0  0  0  0  0  0  0  0
    5.6332  -12.6655   26.4370 C   0  0  0  0  0  0  0  0  0  0  0  0
    7.0392  -13.1037   26.2078 C   0  0  2  0  0  0  0  0  0  0  0  0
    7.9377  -11.9050   26.5634 C   0  0  0  0  0  0  0  0  0  0  0  0
    7.4021  -13.4853   24.8230 C   0  0  0  0  0  0  0  0  0  0  0  0
    8.0476  -14.7802   24.5723 C   0  0  2  0  0  0  0  0  0  0  0  0
    7.2400  -15.9489   24.4535 N   0  0  0  0  0  0  0  0  0  0  0  0
    9.2585  -14.9410   25.4279 C   0  0  0  0  0  0  0  0  0  0  0  0
   10.2394  -14.1317   25.2808 O   0  0  0  0  0  0  0  0  0  0  0  0
   10.9859  -13.7800   27.7145 C   0  0  0  0  0  0  0  0  0  0  0  0
   10.8846  -15.1992   28.2877 C   0  0  1  0  0  0  0  0  0  0  0  0
    9.6846  -15.2471   29.1904 C   0  0  0  0  0  0  0  0  0  0  0  0
   10.7532  -16.1030   27.0823 C   0  0  2  0  0  0  0  0  0  0  0  0
    9.4491  -15.9334   26.4158 N   0  0  0  0  0  0  0  0  0  0  0  0
   10.8203  -17.4959   27.5668 C   0  0  0  0  0  0  0  0  0  0  0  0
    9.8243  -18.2407   27.4299 O   0  0  0  0  0  0  0  0  0  0  0  0
   11.9407  -18.0291   28.1725 O   0  0  0  0  0  0  0  0  0  0  0  0
  2  3  1  0
  2  1  1  0
  4  5  1  0
  4  3  1  0
  5  6  1  1
  7  8  2  0
  7  5  1  0
 10  9  1  6
 10 12  1  0
 10 11  1  0
 13 12  1  1
 13 14  1  0
 14  7  1  0
 15 16  2  0
 15 13  1  0
 18 17  1  6
 18 20  1  0
 19 18  1  0
 20 22  1  0
 20 21  1  1
 21 15  1  0
 22 24  1  0
 23 22  2  0
M  END
$$$$
