MLV.pdb
     RDKit          3D

 24 23  0  0  1  0  0  0  0  0999 V2000
    7.5695  -21.0244   28.1186 C   0  0  0  0  0  0  0  0  0  0  0  0
    6.5564  -22.0337   27.0024 S   0  0  0  0  0  0  0  0  0  0  0  0
    5.9025  -21.0274   25.6500 C   0  0  0  0  0  0  0  0  0  0  0  0
    6.8092  -19.8415   25.4630 C   0  0  0  0  0  0  0  0  0  0  0  0
    6.2126  -18.9839   24.3421 C   0  0  2  0  0  0  0  0  0  0  0  0
    6.3377  -19.7050   23.1122 N   0  0  0  0  0  0  0  0  0  0  0  0
    6.9438  -17.6865   24.3160 C   0  0  0  0  0  0  0  0  0  0  0  0
    7.9619  -17.6161   23.5852 O   0  0  0  0  0  0  0  0  0  0  0  0
    8.0717  -12.6843   26.8246 C   0  0  0  0  0  0  0  0  0  0  0  0
    7.1962  -12.8382   25.6282 C   0  0  2  0  0  0  0  0  0  0  0  0
    6.1170  -11.7447   25.7284 C   0  0  0  0  0  0  0  0  0  0  0  0
    6.4639  -14.1194   25.4974 C   0  0  0  0  0  0  0  0  0  0  0  0
    7.2139  -15.3700   25.3246 C   0  0  2  0  0  0  0  0  0  0  0  0
    6.5015  -16.5817   25.0878 N   0  0  0  0  0  0  0  0  0  0  0  0
    8.3067  -15.4740   26.3343 C   0  0  0  0  0  0  0  0  0  0  0  0
    8.0073  -15.7040   27.5575 O   0  0  0  0  0  0  0  0  0  0  0  0
   12.4725  -14.8702   25.7669 C   0  0  0  0  0  0  0  0  0  0  0  0
   11.9675  -16.2877   26.0640 C   0  0  1  0  0  0  0  0  0  0  0  0
   13.0327  -17.0020   26.8466 C   0  0  0  0  0  0  0  0  0  0  0  0
   10.6884  -16.0947   26.8474 C   0  0  2  0  0  0  0  0  0  0  0  0
    9.6890  -15.3327   26.0765 N   0  0  0  0  0  0  0  0  0  0  0  0
   11.0211  -15.2964   28.0439 C   0  0  0  0  0  0  0  0  0  0  0  0
   10.6611  -14.0994   28.1012 O   0  0  0  0  0  0  0  0  0  0  0  0
   11.7191  -15.8078   29.1199 O   0  0  0  0  0  0  0  0  0  0  0  0
  2  3  1  0
  2  1  1  0
  4  5  1  0
  4  3  1  0
  5  6  1  6
  7  8  2  0
  7  5  1  0
 10  9  1  1
 10 12  1  0
 10 11  1  0
 13 12  1  1
 13 14  1  0
 14  7  1  0
 15 16  2  0
 15 13  1  0
 18 17  1  1
 18 20  1  0
 19 18  1  0
 20 22  1  0
 20 21  1  6
 21 15  1  0
 22 24  1  0
 23 22  2  0
M  END
$$$$
