MLV.pdb
     RDKit          3D

 24 23  0  0  1  0  0  0  0  0999 V2000
   10.8423  -20.4798   23.2280 C   0  0  0  0  0  0  0  0  0  0  0  0
   10.0041  -20.6461   21.6278 S   0  0  0  0  0  0  0  0  0  0  0  0
    9.3790  -19.0452   21.0661 C   0  0  0  0  0  0  0  0  0  0  0  0
   10.2934  -17.9714   21.5898 C   0  0  0  0  0  0  0  0  0  0  0  0
    9.6690  -16.6215   21.2215 C   0  0  2  0  0  0  0  0  0  0  0  0
   10.4326  -16.0518   20.1536 N   0  0  0  0  0  0  0  0  0  0  0  0
    9.6713  -15.7652   22.4403 C   0  0  0  0  0  0  0  0  0  0  0  0
   10.7711  -15.2756   22.7957 O   0  0  0  0  0  0  0  0  0  0  0  0
    5.5916  -12.9451   26.3777 C   0  0  0  0  0  0  0  0  0  0  0  0
    6.9597  -13.2841   25.8929 C   0  0  2  0  0  0  0  0  0  0  0  0
    7.5858  -11.9714   25.3874 C   0  0  0  0  0  0  0  0  0  0  0  0
    7.0502  -14.2377   24.7627 C   0  0  0  0  0  0  0  0  0  0  0  0
    8.3556  -14.7941   24.3852 C   0  0  2  0  0  0  0  0  0  0  0  0
    8.4763  -15.5184   23.1633 N   0  0  0  0  0  0  0  0  0  0  0  0
    9.0165  -15.4336   25.5593 C   0  0  0  0  0  0  0  0  0  0  0  0
    8.9937  -16.7087   25.6713 O   0  0  0  0  0  0  0  0  0  0  0  0
   11.3337  -13.2980   28.1988 C   0  0  0  0  0  0  0  0  0  0  0  0
   10.8554  -14.6359   28.7766 C   0  0  1  0  0  0  0  0  0  0  0  0
    9.6644  -14.3612   29.6504 C   0  0  0  0  0  0  0  0  0  0  0  0
   10.5208  -15.4883   27.5731 C   0  0  2  0  0  0  0  0  0  0  0  0
    9.6836  -14.7564   26.6049 N   0  0  0  0  0  0  0  0  0  0  0  0
    9.7308  -16.6389   28.0542 C   0  0  0  0  0  0  0  0  0  0  0  0
    8.4896  -16.6386   27.8966 O   0  0  0  0  0  0  0  0  0  0  0  0
   10.2971  -17.7325   28.6786 O   0  0  0  0  0  0  0  0  0  0  0  0
  2  3  1  0
  2  1  1  0
  4  5  1  0
  4  3  1  0
  5  6  1  6
  7  8  2  0
  7  5  1  0
 10  9  1  6
 10 12  1  0
 10 11  1  0
 13 12  1  1
 13 14  1  0
 14  7  1  0
 15 16  2  0
 15 13  1  0
 18 17  1  6
 18 20  1  0
 19 18  1  0
 20 22  1  0
 20 21  1  6
 21 15  1  0
 22 24  1  0
 23 22  2  0
M  END
$$$$
