MLV.pdb
     RDKit          3D

 24 23  0  0  1  0  0  0  0  0999 V2000
    5.8788  -11.2374   25.7823 C   0  0  0  0  0  0  0  0  0  0  0  0
    5.6513  -12.2357   27.2798 S   0  0  0  0  0  0  0  0  0  0  0  0
    4.8621  -13.8128   26.8809 C   0  0  0  0  0  0  0  0  0  0  0  0
    5.3098  -14.2302   25.5065 C   0  0  0  0  0  0  0  0  0  0  0  0
    5.9961  -15.5931   25.6451 C   0  0  2  0  0  0  0  0  0  0  0  0
    6.8693  -15.5411   26.7778 N   0  0  0  0  0  0  0  0  0  0  0  0
    6.7270  -15.8717   24.3774 C   0  0  0  0  0  0  0  0  0  0  0  0
    6.5267  -16.9843   23.8321 O   0  0  0  0  0  0  0  0  0  0  0  0
    7.5624  -14.2212   20.2210 C   0  0  0  0  0  0  0  0  0  0  0  0
    8.2890  -13.5318   21.3247 C   0  0  2  0  0  0  0  0  0  0  0  0
    9.0689  -12.3708   20.6811 C   0  0  0  0  0  0  0  0  0  0  0  0
    9.2918  -14.3319   22.0657 C   0  0  0  0  0  0  0  0  0  0  0  0
    8.8615  -15.1779   23.1861 C   0  0  2  0  0  0  0  0  0  0  0  0
    7.6106  -14.9142   23.8168 N   0  0  0  0  0  0  0  0  0  0  0  0
    9.9940  -15.4289   24.1235 C   0  0  0  0  0  0  0  0  0  0  0  0
   11.1859  -15.4913   23.6608 O   0  0  0  0  0  0  0  0  0  0  0  0
   10.7110  -13.6551   27.3310 C   0  0  0  0  0  0  0  0  0  0  0  0
   10.9732  -15.1250   27.6827 C   0  0  1  0  0  0  0  0  0  0  0  0
    9.8202  -15.6130   28.5133 C   0  0  0  0  0  0  0  0  0  0  0  0
   11.0847  -15.8351   26.3521 C   0  0  2  0  0  0  0  0  0  0  0  0
    9.8870  -15.6202   25.5196 N   0  0  0  0  0  0  0  0  0  0  0  0
   11.1710  -17.2822   26.6311 C   0  0  0  0  0  0  0  0  0  0  0  0
   10.2460  -18.0352   26.2531 O   0  0  0  0  0  0  0  0  0  0  0  0
   12.2344  -17.8583   27.2973 O   0  0  0  0  0  0  0  0  0  0  0  0
  2  3  1  0
  2  1  1  0
  4  5  1  0
  4  3  1  0
  5  6  1  1
  7  8  2  0
  7  5  1  0
 10  9  1  6
 10 12  1  0
 10 11  1  0
 13 12  1  1
 13 14  1  0
 14  7  1  0
 15 16  2  0
 15 13  1  0
 18 17  1  6
 18 20  1  0
 19 18  1  0
 20 22  1  0
 20 21  1  6
 21 15  1  0
 22 24  1  0
 23 22  2  0
M  END
$$$$
