MLV.pdb
     RDKit          3D

 24 23  0  0  1  0  0  0  0  0999 V2000
    5.7479  -23.7925   26.6101 C   0  0  0  0  0  0  0  0  0  0  0  0
    6.5831  -22.2066   26.3303 S   0  0  0  0  0  0  0  0  0  0  0  0
    5.5966  -21.1493   25.2449 C   0  0  0  0  0  0  0  0  0  0  0  0
    6.3898  -19.9055   24.9494 C   0  0  0  0  0  0  0  0  0  0  0  0
    5.4826  -18.9661   24.1479 C   0  0  2  0  0  0  0  0  0  0  0  0
    5.1620  -19.6043   22.9076 N   0  0  0  0  0  0  0  0  0  0  0  0
    6.2084  -17.6800   23.9532 C   0  0  0  0  0  0  0  0  0  0  0  0
    6.9173  -17.5713   22.9231 O   0  0  0  0  0  0  0  0  0  0  0  0
    7.1723  -12.3130   27.2010 C   0  0  0  0  0  0  0  0  0  0  0  0
    7.4840  -13.2385   26.0750 C   0  0  2  0  0  0  0  0  0  0  0  0
    7.4239  -12.3994   24.7855 C   0  0  0  0  0  0  0  0  0  0  0  0
    6.5529  -14.3715   25.8649 C   0  0  0  0  0  0  0  0  0  0  0  0
    6.9625  -15.5009   25.0205 C   0  0  2  0  0  0  0  0  0  0  0  0
    6.0977  -16.6273   24.8974 N   0  0  0  0  0  0  0  0  0  0  0  0
    8.3980  -15.8361   25.2472 C   0  0  0  0  0  0  0  0  0  0  0  0
    8.7223  -16.5364   26.2685 O   0  0  0  0  0  0  0  0  0  0  0  0
   12.6227  -16.9280   22.9896 C   0  0  0  0  0  0  0  0  0  0  0  0
   11.3837  -16.0239   22.9649 C   0  0  1  0  0  0  0  0  0  0  0  0
   10.5713  -16.3884   21.7547 C   0  0  0  0  0  0  0  0  0  0  0  0
   10.6646  -16.3045   24.2653 C   0  0  2  0  0  0  0  0  0  0  0  0
    9.4801  -15.4419   24.4282 N   0  0  0  0  0  0  0  0  0  0  0  0
   11.5972  -15.9807   25.3630 C   0  0  0  0  0  0  0  0  0  0  0  0
   11.3808  -14.9738   26.0737 O   0  0  0  0  0  0  0  0  0  0  0  0
   12.7129  -16.7411   25.6519 O   0  0  0  0  0  0  0  0  0  0  0  0
  2  3  1  0
  2  1  1  0
  4  5  1  0
  4  3  1  0
  5  6  1  6
  7  8  2  0
  7  5  1  0
 10  9  1  1
 10 12  1  0
 10 11  1  0
 13 12  1  1
 13 14  1  0
 14  7  1  0
 15 16  2  0
 15 13  1  0
 18 17  1  1
 18 20  1  0
 19 18  1  0
 20 22  1  0
 20 21  1  1
 21 15  1  0
 22 24  1  0
 23 22  2  0
M  END
$$$$
