MLV.pdb
     RDKit          3D

 24 23  0  0  1  0  0  0  0  0999 V2000
    8.1197  -11.3461   19.6965 C   0  0  0  0  0  0  0  0  0  0  0  0
    7.8827  -12.6055   18.4125 S   0  0  0  0  0  0  0  0  0  0  0  0
    7.7684  -14.2529   19.1488 C   0  0  0  0  0  0  0  0  0  0  0  0
    8.2477  -14.1679   20.5724 C   0  0  0  0  0  0  0  0  0  0  0  0
    8.1939  -15.5833   21.1566 C   0  0  2  0  0  0  0  0  0  0  0  0
    6.8359  -16.0331   21.1150 N   0  0  0  0  0  0  0  0  0  0  0  0
    8.7314  -15.5293   22.5448 C   0  0  0  0  0  0  0  0  0  0  0  0
    9.9713  -15.6646   22.6858 O   0  0  0  0  0  0  0  0  0  0  0  0
    8.2009  -12.0823   25.9282 C   0  0  0  0  0  0  0  0  0  0  0  0
    7.0772  -13.0396   25.7225 C   0  0  2  0  0  0  0  0  0  0  0  0
    5.9898  -12.6694   26.7477 C   0  0  0  0  0  0  0  0  0  0  0  0
    7.3730  -14.4741   25.9458 C   0  0  0  0  0  0  0  0  0  0  0  0
    8.2621  -15.1849   25.0181 C   0  0  2  0  0  0  0  0  0  0  0  0
    7.8712  -15.3328   23.6553 N   0  0  0  0  0  0  0  0  0  0  0  0
    8.8055  -16.4213   25.6507 C   0  0  0  0  0  0  0  0  0  0  0  0
    7.9943  -17.3302   26.0441 O   0  0  0  0  0  0  0  0  0  0  0  0
   12.2896  -19.7652   26.4270 C   0  0  0  0  0  0  0  0  0  0  0  0
   12.0105  -18.3537   25.8954 C   0  0  1  0  0  0  0  0  0  0  0  0
   12.1484  -18.3888   24.3998 C   0  0  0  0  0  0  0  0  0  0  0  0
   10.6051  -18.0313   26.3514 C   0  0  2  0  0  0  0  0  0  0  0  0
   10.1713  -16.7041   25.8779 N   0  0  0  0  0  0  0  0  0  0  0  0
   10.6200  -17.9872   27.8270 C   0  0  0  0  0  0  0  0  0  0  0  0
   10.6082  -16.8785   28.4069 O   0  0  0  0  0  0  0  0  0  0  0  0
   10.6468  -19.1215   28.6138 O   0  0  0  0  0  0  0  0  0  0  0  0
  2  3  1  0
  2  1  1  0
  4  5  1  0
  4  3  1  0
  5  6  1  1
  7  8  2  0
  7  5  1  0
 10  9  1  1
 10 12  1  0
 10 11  1  0
 13 12  1  1
 13 14  1  0
 14  7  1  0
 15 16  2  0
 15 13  1  0
 18 17  1  1
 18 20  1  0
 19 18  1  0
 20 22  1  0
 20 21  1  6
 21 15  1  0
 22 24  1  0
 23 22  2  0
M  END
$$$$
