MLV.pdb
     RDKit          3D

 24 23  0  0  1  0  0  0  0  0999 V2000
    7.9465  -11.0269   20.1933 C   0  0  0  0  0  0  0  0  0  0  0  0
    8.1099  -12.3609   18.9748 S   0  0  0  0  0  0  0  0  0  0  0  0
    8.5970  -13.9044   19.7809 C   0  0  0  0  0  0  0  0  0  0  0  0
    7.3557  -14.5783   20.2992 C   0  0  0  0  0  0  0  0  0  0  0  0
    7.7979  -15.8566   21.0189 C   0  0  2  0  0  0  0  0  0  0  0  0
    6.6443  -16.6800   21.2175 N   0  0  0  0  0  0  0  0  0  0  0  0
    8.4419  -15.4630   22.3031 C   0  0  0  0  0  0  0  0  0  0  0  0
    9.6676  -15.1945   22.2718 O   0  0  0  0  0  0  0  0  0  0  0  0
    8.1460  -12.0070   25.5834 C   0  0  0  0  0  0  0  0  0  0  0  0
    7.0527  -13.0158   25.4915 C   0  0  2  0  0  0  0  0  0  0  0  0
    6.0001  -12.6218   26.5438 C   0  0  0  0  0  0  0  0  0  0  0  0
    7.4149  -14.4216   25.7875 C   0  0  0  0  0  0  0  0  0  0  0  0
    8.2104  -15.1858   24.8182 C   0  0  2  0  0  0  0  0  0  0  0  0
    7.6940  -15.3967   23.5064 N   0  0  0  0  0  0  0  0  0  0  0  0
    8.8039  -16.3948   25.4587 C   0  0  0  0  0  0  0  0  0  0  0  0
    8.0384  -17.3662   25.7893 O   0  0  0  0  0  0  0  0  0  0  0  0
   12.4709  -19.5388   26.1537 C   0  0  0  0  0  0  0  0  0  0  0  0
   12.0662  -18.1651   25.6043 C   0  0  1  0  0  0  0  0  0  0  0  0
   12.0886  -18.2438   24.1041 C   0  0  0  0  0  0  0  0  0  0  0  0
   10.6838  -17.9091   26.1617 C   0  0  2  0  0  0  0  0  0  0  0  0
   10.1716  -16.5868   25.7580 N   0  0  0  0  0  0  0  0  0  0  0  0
   10.7962  -17.9053   27.6337 C   0  0  0  0  0  0  0  0  0  0  0  0
   10.7240  -16.8192   28.2507 O   0  0  0  0  0  0  0  0  0  0  0  0
   10.9796  -19.0539   28.3777 O   0  0  0  0  0  0  0  0  0  0  0  0
  2  3  1  0
  2  1  1  0
  4  5  1  0
  4  3  1  0
  5  6  1  1
  7  8  2  0
  7  5  1  0
 10  9  1  1
 10 12  1  0
 10 11  1  0
 13 12  1  1
 13 14  1  0
 14  7  1  0
 15 16  2  0
 15 13  1  0
 18 17  1  1
 18 20  1  0
 19 18  1  0
 20 22  1  0
 20 21  1  6
 21 15  1  0
 22 24  1  0
 23 22  2  0
M  END
$$$$
