MLV.pdb
     RDKit          3D

 24 23  0  0  1  0  0  0  0  0999 V2000
    6.7859  -11.5568   26.6155 C   0  0  0  0  0  0  0  0  0  0  0  0
    5.1850  -12.4018   26.4976 S   0  0  0  0  0  0  0  0  0  0  0  0
    5.3656  -14.1635   26.8623 C   0  0  0  0  0  0  0  0  0  0  0  0
    5.1398  -14.9344   25.5901 C   0  0  0  0  0  0  0  0  0  0  0  0
    6.0841  -16.1408   25.6146 C   0  0  2  0  0  0  0  0  0  0  0  0
    7.0067  -15.9650   26.6945 N   0  0  0  0  0  0  0  0  0  0  0  0
    6.7661  -16.2186   24.2927 C   0  0  0  0  0  0  0  0  0  0  0  0
    6.6003  -17.2666   23.6221 O   0  0  0  0  0  0  0  0  0  0  0  0
    7.4222  -14.3435   20.2871 C   0  0  0  0  0  0  0  0  0  0  0  0
    8.1084  -13.6111   21.3890 C   0  0  2  0  0  0  0  0  0  0  0  0
    8.7783  -12.3808   20.7501 C   0  0  0  0  0  0  0  0  0  0  0  0
    9.1868  -14.3352   22.1016 C   0  0  0  0  0  0  0  0  0  0  0  0
    8.8448  -15.2545   23.1944 C   0  0  2  0  0  0  0  0  0  0  0  0
    7.5677  -15.1487   23.8189 N   0  0  0  0  0  0  0  0  0  0  0  0
    9.9912  -15.4044   24.1365 C   0  0  0  0  0  0  0  0  0  0  0  0
   11.1835  -15.4284   23.6709 O   0  0  0  0  0  0  0  0  0  0  0  0
   10.5585  -13.5459   27.2740 C   0  0  0  0  0  0  0  0  0  0  0  0
   11.0083  -14.9577   27.6706 C   0  0  1  0  0  0  0  0  0  0  0  0
    9.9795  -15.5228   28.6085 C   0  0  0  0  0  0  0  0  0  0  0  0
   11.1035  -15.7216   26.3689 C   0  0  2  0  0  0  0  0  0  0  0  0
    9.8981  -15.5356   25.5405 N   0  0  0  0  0  0  0  0  0  0  0  0
   11.1872  -17.1566   26.7054 C   0  0  0  0  0  0  0  0  0  0  0  0
   10.2421  -17.9150   26.3938 O   0  0  0  0  0  0  0  0  0  0  0  0
   12.2694  -17.7154   27.3558 O   0  0  0  0  0  0  0  0  0  0  0  0
  2  3  1  0
  2  1  1  0
  4  5  1  0
  4  3  1  0
  5  6  1  1
  7  8  2  0
  7  5  1  0
 10  9  1  6
 10 12  1  0
 10 11  1  0
 13 12  1  1
 13 14  1  0
 14  7  1  0
 15 16  2  0
 15 13  1  0
 18 17  1  6
 18 20  1  0
 19 18  1  0
 20 22  1  0
 20 21  1  6
 21 15  1  0
 22 24  1  0
 23 22  2  0
M  END
$$$$
