MLV.pdb
     RDKit          3D

 24 23  0  0  1  0  0  0  0  0999 V2000
    7.8740  -17.9454   28.9706 C   0  0  0  0  0  0  0  0  0  0  0  0
    7.2355  -19.5972   28.5774 S   0  0  0  0  0  0  0  0  0  0  0  0
    6.5148  -19.6241   26.9193 C   0  0  0  0  0  0  0  0  0  0  0  0
    7.3414  -18.7346   26.0310 C   0  0  0  0  0  0  0  0  0  0  0  0
    6.8068  -18.8924   24.6037 C   0  0  2  0  0  0  0  0  0  0  0  0
    6.9562  -20.2628   24.2191 N   0  0  0  0  0  0  0  0  0  0  0  0
    7.5719  -17.9686   23.7206 C   0  0  0  0  0  0  0  0  0  0  0  0
    8.7973  -18.1977   23.5745 O   0  0  0  0  0  0  0  0  0  0  0  0
    8.3380  -12.8383   21.3878 C   0  0  0  0  0  0  0  0  0  0  0  0
    7.5904  -13.9415   20.7203 C   0  0  2  0  0  0  0  0  0  0  0  0
    6.5395  -13.2757   19.8133 C   0  0  0  0  0  0  0  0  0  0  0  0
    6.8386  -14.8664   21.6003 C   0  0  0  0  0  0  0  0  0  0  0  0
    7.5657  -15.7092   22.5579 C   0  0  2  0  0  0  0  0  0  0  0  0
    6.9346  -16.8779   23.0755 N   0  0  0  0  0  0  0  0  0  0  0  0
    8.2621  -14.8713   23.5763 C   0  0  0  0  0  0  0  0  0  0  0  0
    9.3021  -14.2079   23.2342 O   0  0  0  0  0  0  0  0  0  0  0  0
    7.1441  -11.8831   25.3646 C   0  0  0  0  0  0  0  0  0  0  0  0
    7.6045  -12.8287   26.4812 C   0  0  1  0  0  0  0  0  0  0  0  0
    6.3890  -13.5222   27.0282 C   0  0  0  0  0  0  0  0  0  0  0  0
    8.5775  -13.7777   25.8182 C   0  0  2  0  0  0  0  0  0  0  0  0
    7.8869  -14.7321   24.9316 N   0  0  0  0  0  0  0  0  0  0  0  0
    9.2253  -14.5625   26.8877 C   0  0  0  0  0  0  0  0  0  0  0  0
    9.9258  -13.9737   27.7411 O   0  0  0  0  0  0  0  0  0  0  0  0
    9.0977  -15.9329   26.9985 O   0  0  0  0  0  0  0  0  0  0  0  0
  2  3  1  0
  2  1  1  0
  4  5  1  0
  4  3  1  0
  5  6  1  6
  7  8  2  0
  7  5  1  0
 10  9  1  1
 10 12  1  0
 10 11  1  0
 13 12  1  1
 13 14  1  0
 14  7  1  0
 15 16  2  0
 15 13  1  0
 18 17  1  6
 18 20  1  0
 19 18  1  0
 20 22  1  0
 20 21  1  6
 21 15  1  0
 22 24  1  0
 23 22  2  0
M  END
$$$$
