MLV.pdb
     RDKit          3D

 24 23  0  0  1  0  0  0  0  0999 V2000
    5.4726  -20.1987   23.0672 C   0  0  0  0  0  0  0  0  0  0  0  0
    5.5088  -19.9071   21.2771 S   0  0  0  0  0  0  0  0  0  0  0  0
    5.9341  -18.1864   20.9200 C   0  0  0  0  0  0  0  0  0  0  0  0
    6.9149  -17.7170   21.9599 C   0  0  0  0  0  0  0  0  0  0  0  0
    7.1022  -16.2092   21.7620 C   0  0  2  0  0  0  0  0  0  0  0  0
    7.7289  -15.9991   20.4926 N   0  0  0  0  0  0  0  0  0  0  0  0
    7.9243  -15.6950   22.8927 C   0  0  0  0  0  0  0  0  0  0  0  0
    9.1695  -15.6776   22.7356 O   0  0  0  0  0  0  0  0  0  0  0  0
    7.6491  -11.6693   25.3693 C   0  0  0  0  0  0  0  0  0  0  0  0
    6.7006  -12.7320   25.8079 C   0  0  2  0  0  0  0  0  0  0  0  0
    5.9368  -12.1680   27.0199 C   0  0  0  0  0  0  0  0  0  0  0  0
    7.2947  -14.0108   26.2628 C   0  0  0  0  0  0  0  0  0  0  0  0
    7.9852  -14.8746   25.2968 C   0  0  2  0  0  0  0  0  0  0  0  0
    7.3174  -15.2457   24.0933 N   0  0  0  0  0  0  0  0  0  0  0  0
    8.6851  -15.9920   25.9939 C   0  0  0  0  0  0  0  0  0  0  0  0
    7.9917  -16.9041   26.5648 O   0  0  0  0  0  0  0  0  0  0  0  0
   11.7450  -17.9066   24.5907 C   0  0  0  0  0  0  0  0  0  0  0  0
   12.0159  -17.6945   26.0855 C   0  0  1  0  0  0  0  0  0  0  0  0
   13.0011  -16.5682   26.2202 C   0  0  0  0  0  0  0  0  0  0  0  0
   10.6668  -17.3743   26.6892 C   0  0  2  0  0  0  0  0  0  0  0  0
   10.0849  -16.1535   26.1021 N   0  0  0  0  0  0  0  0  0  0  0  0
   10.8786  -17.1118   28.1265 C   0  0  0  0  0  0  0  0  0  0  0  0
   10.6061  -15.9818   28.5895 O   0  0  0  0  0  0  0  0  0  0  0  0
   11.3690  -18.0612   29.0009 O   0  0  0  0  0  0  0  0  0  0  0  0
  2  3  1  0
  2  1  1  0
  4  5  1  0
  4  3  1  0
  5  6  1  6
  7  8  2  0
  7  5  1  0
 10  9  1  1
 10 12  1  0
 10 11  1  0
 13 12  1  1
 13 14  1  0
 14  7  1  0
 15 16  2  0
 15 13  1  0
 18 17  1  6
 18 20  1  0
 19 18  1  0
 20 22  1  0
 20 21  1  6
 21 15  1  0
 22 24  1  0
 23 22  2  0
M  END
$$$$
