MLV.pdb
     RDKit          3D

 24 23  0  0  1  0  0  0  0  0999 V2000
    6.6409  -11.2773   26.7027 C   0  0  0  0  0  0  0  0  0  0  0  0
    5.3749  -12.3282   27.4668 S   0  0  0  0  0  0  0  0  0  0  0  0
    4.9233  -13.6872   26.3629 C   0  0  0  0  0  0  0  0  0  0  0  0
    6.1292  -14.5684   26.1814 C   0  0  0  0  0  0  0  0  0  0  0  0
    5.8192  -15.5341   25.0329 C   0  0  2  0  0  0  0  0  0  0  0  0
    5.0969  -16.6479   25.5675 N   0  0  0  0  0  0  0  0  0  0  0  0
    7.1106  -15.9407   24.4118 C   0  0  0  0  0  0  0  0  0  0  0  0
    7.6147  -17.0250   24.7933 O   0  0  0  0  0  0  0  0  0  0  0  0
    8.4643  -14.0079   19.4095 C   0  0  0  0  0  0  0  0  0  0  0  0
    8.3917  -13.8406   20.8888 C   0  0  2  0  0  0  0  0  0  0  0  0
    8.5778  -12.3387   21.1720 C   0  0  0  0  0  0  0  0  0  0  0  0
    9.4257  -14.5353   21.6907 C   0  0  0  0  0  0  0  0  0  0  0  0
    9.0253  -15.3360   22.8547 C   0  0  2  0  0  0  0  0  0  0  0  0
    7.7378  -15.1305   23.4310 N   0  0  0  0  0  0  0  0  0  0  0  0
   10.1425  -15.4335   23.8379 C   0  0  0  0  0  0  0  0  0  0  0  0
   11.3326  -15.6381   23.4131 O   0  0  0  0  0  0  0  0  0  0  0  0
   10.5719  -13.3444   27.0563 C   0  0  0  0  0  0  0  0  0  0  0  0
   11.0071  -14.7652   27.4366 C   0  0  1  0  0  0  0  0  0  0  0  0
    9.9235  -15.3676   28.2854 C   0  0  0  0  0  0  0  0  0  0  0  0
   11.1954  -15.4857   26.1204 C   0  0  2  0  0  0  0  0  0  0  0  0
   10.0219  -15.3279   25.2420 N   0  0  0  0  0  0  0  0  0  0  0  0
   11.3277  -16.9250   26.4212 C   0  0  0  0  0  0  0  0  0  0  0  0
   10.4316  -17.7140   26.0470 O   0  0  0  0  0  0  0  0  0  0  0  0
   12.4042  -17.4555   27.1040 O   0  0  0  0  0  0  0  0  0  0  0  0
  2  3  1  0
  2  1  1  0
  4  5  1  0
  4  3  1  0
  5  6  1  1
  7  8  2  0
  7  5  1  0
 10  9  1  6
 10 12  1  0
 10 11  1  0
 13 12  1  6
 13 14  1  0
 14  7  1  0
 15 16  2  0
 15 13  1  0
 18 17  1  6
 18 20  1  0
 19 18  1  0
 20 22  1  0
 20 21  1  6
 21 15  1  0
 22 24  1  0
 23 22  2  0
M  END
$$$$
