MLV.pdb
     RDKit          3D

 24 23  0  0  1  0  0  0  0  0999 V2000
    7.9264  -11.5451   19.5390 C   0  0  0  0  0  0  0  0  0  0  0  0
    8.0886  -12.9682   18.4256 S   0  0  0  0  0  0  0  0  0  0  0  0
    7.9533  -14.5176   19.3477 C   0  0  0  0  0  0  0  0  0  0  0  0
    8.5179  -14.2981   20.7249 C   0  0  0  0  0  0  0  0  0  0  0  0
    8.4593  -15.6407   21.4608 C   0  0  2  0  0  0  0  0  0  0  0  0
    7.1259  -16.1501   21.3568 N   0  0  0  0  0  0  0  0  0  0  0  0
    8.8698  -15.4096   22.8739 C   0  0  0  0  0  0  0  0  0  0  0  0
   10.0974  -15.2793   23.1009 O   0  0  0  0  0  0  0  0  0  0  0  0
    7.6961  -11.9584   25.8653 C   0  0  0  0  0  0  0  0  0  0  0  0
    6.6995  -13.0575   25.7230 C   0  0  2  0  0  0  0  0  0  0  0  0
    5.5315  -12.7181   26.6669 C   0  0  0  0  0  0  0  0  0  0  0  0
    7.1466  -14.4175   26.1044 C   0  0  0  0  0  0  0  0  0  0  0  0
    8.1634  -15.1011   25.2951 C   0  0  2  0  0  0  0  0  0  0  0  0
    7.9074  -15.3411   23.9135 N   0  0  0  0  0  0  0  0  0  0  0  0
    8.7352  -16.2621   26.0362 C   0  0  0  0  0  0  0  0  0  0  0  0
    7.9610  -17.2156   26.3970 O   0  0  0  0  0  0  0  0  0  0  0  0
   11.7177  -18.4271   25.1623 C   0  0  0  0  0  0  0  0  0  0  0  0
   11.9069  -18.0814   26.6447 C   0  0  1  0  0  0  0  0  0  0  0  0
   12.9484  -17.0025   26.7371 C   0  0  0  0  0  0  0  0  0  0  0  0
   10.5447  -17.6295   27.1213 C   0  0  2  0  0  0  0  0  0  0  0  0
   10.0901  -16.4246   26.4034 N   0  0  0  0  0  0  0  0  0  0  0  0
   10.6744  -17.2679   28.5467 C   0  0  0  0  0  0  0  0  0  0  0  0
   10.9926  -18.1494   29.3758 O   0  0  0  0  0  0  0  0  0  0  0  0
   10.4601  -15.9892   29.0215 O   0  0  0  0  0  0  0  0  0  0  0  0
  2  3  1  0
  2  1  1  0
  4  5  1  0
  4  3  1  0
  5  6  1  1
  7  8  2  0
  7  5  1  0
 10  9  1  1
 10 12  1  0
 10 11  1  0
 13 12  1  1
 13 14  1  0
 14  7  1  0
 15 16  2  0
 15 13  1  0
 18 17  1  6
 18 20  1  0
 19 18  1  0
 20 22  1  0
 20 21  1  6
 21 15  1  0
 22 24  1  0
 23 22  2  0
M  END
$$$$
