FKT.pdb
     RDKit          3D

 28 28  0  0  1  0  0  0  0  0999 V2000
   26.0356  -20.2568  -15.0448 N   0  0  0  0  0  0  0  0  0  0  0  0
   25.2982  -19.3324  -14.1877 C   0  0  1  0  0  0  0  0  0  0  0  0
   24.7485  -18.2738  -15.1515 C   0  0  0  0  0  0  0  0  0  0  0  0
   25.8433  -17.3881  -15.5749 C   0  0  0  0  0  0  0  0  0  0  0  0
   26.2775  -16.2755  -14.8988 C   0  0  0  0  0  0  0  0  0  0  0  0
   27.3147  -15.4760  -15.3249 C   0  0  0  0  0  0  0  0  0  0  0  0
   27.9758  -15.7799  -16.4896 C   0  0  0  0  0  0  0  0  0  0  0  0
   27.5655  -16.9014  -17.2061 C   0  0  0  0  0  0  0  0  0  0  0  0
   26.5246  -17.6891  -16.7620 C   0  0  0  0  0  0  0  0  0  0  0  0
   24.1731  -20.0513  -13.5520 C   0  0  0  0  0  0  0  0  0  0  0  0
   23.5306  -20.9707  -14.1507 O   0  0  0  0  0  0  0  0  0  0  0  0
   23.7368  -19.7651  -12.2346 N   0  0  0  0  0  0  0  0  0  0  0  0
   22.6383  -20.3890  -11.5821 C   0  0  1  0  0  0  0  0  0  0  0  0
   22.3966  -19.9093  -10.1735 C   0  0  0  0  0  0  0  0  0  0  0  0
   21.1226  -20.5152   -9.5975 C   0  0  0  0  0  0  0  0  0  0  0  0
   21.4739  -21.8187   -8.9491 C   0  0  0  0  0  0  0  0  0  0  0  0
   20.2795  -22.4617   -8.2759 C   0  0  0  0  0  0  0  0  0  0  0  0
   20.6225  -23.7131   -7.6453 N   0  0  0  0  0  0  0  0  0  0  0  0
   21.3979  -20.1596  -12.3447 C   0  0  0  0  0  0  0  0  0  0  0  0
   21.0479  -18.9360  -12.5164 O   0  0  0  0  0  0  0  0  0  0  0  0
   20.2757  -20.5492  -15.8327 C   0  0  0  0  0  0  0  0  0  0  0  0
   19.3522  -21.4142  -15.0221 C   0  0  1  0  0  0  0  0  0  0  0  0
   19.6442  -22.7546  -15.0794 O   0  0  0  0  0  0  0  0  0  0  0  0
   19.3113  -20.8612  -13.6061 C   0  0  2  0  0  0  0  0  0  0  0  0
   20.5550  -21.1207  -12.9079 N   0  0  0  0  0  0  0  0  0  0  0  0
   18.1985  -21.4072  -12.8131 C   0  0  0  0  0  0  0  0  0  0  0  0
   18.3930  -22.2078  -11.8482 O   0  0  0  0  0  0  0  0  0  0  0  0
   16.9014  -21.0583  -13.1017 O   0  0  0  0  0  0  0  0  0  0  0  0
  2  1  1  6
  2 10  1  0
  2  3  1  0
  3  4  1  0
  4  5  2  0
  4  9  1  0
  5  6  1  0
  6  7  2  0
  7  8  1  0
  9  8  2  0
 10 11  2  0
 12 13  1  0
 12 10  1  0
 13 14  1  1
 15 14  1  0
 16 15  1  0
 17 18  1  0
 17 16  1  0
 19 13  1  0
 20 19  2  0
 22 23  1  0
 22 21  1  6
 24 22  1  0
 24 25  1  1
 25 19  1  0
 26 28  1  0
 26 24  1  0
 27 26  2  0
M  END
$$$$
