FKT.pdb
     RDKit          3D

 28 28  0  0  1  0  0  0  0  0999 V2000
   25.0389  -11.6812  -18.5332 N   0  0  0  0  0  0  0  0  0  0  0  0
   24.6369  -11.4423  -17.1496 C   0  0  1  0  0  0  0  0  0  0  0  0
   25.9284  -11.0075  -16.4462 C   0  0  0  0  0  0  0  0  0  0  0  0
   26.8226  -12.1674  -16.3135 C   0  0  0  0  0  0  0  0  0  0  0  0
   26.6073  -13.2532  -15.5023 C   0  0  0  0  0  0  0  0  0  0  0  0
   27.4665  -14.3259  -15.4135 C   0  0  0  0  0  0  0  0  0  0  0  0
   28.6149  -14.3437  -16.1663 C   0  0  0  0  0  0  0  0  0  0  0  0
   28.8707  -13.2600  -17.0027 C   0  0  0  0  0  0  0  0  0  0  0  0
   27.9973  -12.1957  -17.0773 C   0  0  0  0  0  0  0  0  0  0  0  0
   23.6585  -10.3341  -17.1120 C   0  0  0  0  0  0  0  0  0  0  0  0
   23.6103   -9.4408  -18.0154 O   0  0  0  0  0  0  0  0  0  0  0  0
   22.7098  -10.1942  -16.0689 N   0  0  0  0  0  0  0  0  0  0  0  0
   21.6666   -9.2286  -16.0350 C   0  0  1  0  0  0  0  0  0  0  0  0
   20.3741   -9.7287  -15.4417 C   0  0  0  0  0  0  0  0  0  0  0  0
   19.3192   -8.6294  -15.4162 C   0  0  0  0  0  0  0  0  0  0  0  0
   18.0527   -9.2066  -14.8635 C   0  0  0  0  0  0  0  0  0  0  0  0
   16.9127   -8.2100  -14.8878 C   0  0  0  0  0  0  0  0  0  0  0  0
   15.6412   -8.8354  -14.6171 N   0  0  0  0  0  0  0  0  0  0  0  0
   22.0870   -8.0545  -15.2491 C   0  0  0  0  0  0  0  0  0  0  0  0
   22.6270   -8.2911  -14.1083 O   0  0  0  0  0  0  0  0  0  0  0  0
   24.3205   -4.9596  -16.2330 C   0  0  0  0  0  0  0  0  0  0  0  0
   22.9949   -4.4854  -15.7076 C   0  0  1  0  0  0  0  0  0  0  0  0
   22.1247   -4.0611  -16.6812 O   0  0  0  0  0  0  0  0  0  0  0  0
   22.4241   -5.5773  -14.8164 C   0  0  2  0  0  0  0  0  0  0  0  0
   21.9691   -6.7079  -15.6015 N   0  0  0  0  0  0  0  0  0  0  0  0
   21.3123   -5.1041  -13.9765 C   0  0  0  0  0  0  0  0  0  0  0  0
   20.1274   -5.5308  -14.1308 O   0  0  0  0  0  0  0  0  0  0  0  0
   21.5328   -4.1746  -12.9892 O   0  0  0  0  0  0  0  0  0  0  0  0
  2  1  1  6
  2 10  1  0
  2  3  1  0
  3  4  1  0
  4  5  2  0
  4  9  1  0
  5  6  1  0
  6  7  2  0
  7  8  1  0
  9  8  2  0
 10 11  2  0
 12 13  1  0
 12 10  1  0
 13 14  1  1
 15 14  1  0
 16 15  1  0
 17 18  1  0
 17 16  1  0
 19 13  1  0
 20 19  2  0
 22 23  1  0
 22 21  1  6
 24 22  1  0
 24 25  1  6
 25 19  1  0
 26 28  1  0
 26 24  1  0
 27 26  2  0
M  END
$$$$
