FKT.pdb
     RDKit          3D

 28 28  0  0  1  0  0  0  0  0999 V2000
   24.7943  -11.8899  -18.3754 N   0  0  0  0  0  0  0  0  0  0  0  0
   24.4678  -11.7152  -16.9627 C   0  0  1  0  0  0  0  0  0  0  0  0
   25.7941  -11.3033  -16.3123 C   0  0  0  0  0  0  0  0  0  0  0  0
   26.6967  -12.4636  -16.2743 C   0  0  0  0  0  0  0  0  0  0  0  0
   26.5403  -13.5716  -15.4797 C   0  0  0  0  0  0  0  0  0  0  0  0
   27.4048  -14.6436  -15.4806 C   0  0  0  0  0  0  0  0  0  0  0  0
   28.4974  -14.6376  -16.3126 C   0  0  0  0  0  0  0  0  0  0  0  0
   28.6925  -13.5310  -17.1352 C   0  0  0  0  0  0  0  0  0  0  0  0
   27.8148  -12.4677  -17.1193 C   0  0  0  0  0  0  0  0  0  0  0  0
   23.4883  -10.6163  -16.8224 C   0  0  0  0  0  0  0  0  0  0  0  0
   23.5127   -9.5865  -17.5676 O   0  0  0  0  0  0  0  0  0  0  0  0
   22.4576  -10.6377  -15.8503 N   0  0  0  0  0  0  0  0  0  0  0  0
   21.4210   -9.6713  -15.7347 C   0  0  1  0  0  0  0  0  0  0  0  0
   20.1957  -10.1570  -15.0028 C   0  0  0  0  0  0  0  0  0  0  0  0
   19.0462   -9.1659  -15.1371 C   0  0  0  0  0  0  0  0  0  0  0  0
   17.8206   -9.7840  -14.5384 C   0  0  0  0  0  0  0  0  0  0  0  0
   16.5922   -8.9200  -14.7324 C   0  0  0  0  0  0  0  0  0  0  0  0
   15.3792   -9.6167  -14.3799 N   0  0  0  0  0  0  0  0  0  0  0  0
   21.9155   -8.4789  -15.0232 C   0  0  0  0  0  0  0  0  0  0  0  0
   22.6693   -8.6897  -14.0051 O   0  0  0  0  0  0  0  0  0  0  0  0
   22.7226   -5.1039  -16.9385 C   0  0  0  0  0  0  0  0  0  0  0  0
   23.3471   -5.3820  -15.6002 C   0  0  1  0  0  0  0  0  0  0  0  0
   23.9848   -4.3013  -15.0430 O   0  0  0  0  0  0  0  0  0  0  0  0
   22.2817   -5.9891  -14.7008 C   0  0  2  0  0  0  0  0  0  0  0  0
   21.6618   -7.1395  -15.3283 N   0  0  0  0  0  0  0  0  0  0  0  0
   21.2320   -5.0264  -14.3312 C   0  0  0  0  0  0  0  0  0  0  0  0
   20.0207   -5.1931  -14.6703 O   0  0  0  0  0  0  0  0  0  0  0  0
   21.5415   -3.9063  -13.5985 O   0  0  0  0  0  0  0  0  0  0  0  0
  2  1  1  6
  2 10  1  0
  2  3  1  0
  3  4  1  0
  4  5  2  0
  4  9  1  0
  5  6  1  0
  6  7  2  0
  7  8  1  0
  9  8  2  0
 10 11  2  0
 12 13  1  0
 12 10  1  0
 13 14  1  1
 15 14  1  0
 16 15  1  0
 17 18  1  0
 17 16  1  0
 19 13  1  0
 20 19  2  0
 22 23  1  0
 22 21  1  6
 24 22  1  0
 24 25  1  6
 25 19  1  0
 26 28  1  0
 26 24  1  0
 27 26  2  0
M  END
$$$$
