FKT.pdb
     RDKit          3D

 28 28  0  0  1  0  0  0  0  0999 V2000
   25.7019  -19.1758  -12.8076 N   0  0  0  0  0  0  0  0  0  0  0  0
   26.2519  -20.5114  -13.0237 C   0  0  1  0  0  0  0  0  0  0  0  0
   25.2486  -21.4520  -12.3452 C   0  0  0  0  0  0  0  0  0  0  0  0
   25.2733  -21.2217  -10.8930 C   0  0  0  0  0  0  0  0  0  0  0  0
   26.4025  -21.0987  -10.1228 C   0  0  0  0  0  0  0  0  0  0  0  0
   26.3829  -20.8736   -8.7643 C   0  0  0  0  0  0  0  0  0  0  0  0
   25.1811  -20.7598   -8.1094 C   0  0  0  0  0  0  0  0  0  0  0  0
   24.0111  -20.8789   -8.8551 C   0  0  0  0  0  0  0  0  0  0  0  0
   24.0525  -21.1041  -10.2148 C   0  0  0  0  0  0  0  0  0  0  0  0
   26.2878  -20.7935  -14.4748 C   0  0  0  0  0  0  0  0  0  0  0  0
   25.4930  -20.2342  -15.2945 O   0  0  0  0  0  0  0  0  0  0  0  0
   27.2097  -21.7038  -15.0486 N   0  0  0  0  0  0  0  0  0  0  0  0
   27.4446  -21.8622  -16.4420 C   0  0  1  0  0  0  0  0  0  0  0  0
   28.7492  -22.5375  -16.7807 C   0  0  0  0  0  0  0  0  0  0  0  0
   28.9674  -22.5872  -18.2879 C   0  0  0  0  0  0  0  0  0  0  0  0
   30.3085  -23.2008  -18.5484 C   0  0  0  0  0  0  0  0  0  0  0  0
   30.6798  -23.1599  -20.0160 C   0  0  0  0  0  0  0  0  0  0  0  0
   32.0246  -23.6283  -20.2472 N   0  0  0  0  0  0  0  0  0  0  0  0
   26.3647  -22.6589  -17.0516 C   0  0  0  0  0  0  0  0  0  0  0  0
   26.2099  -23.8528  -16.6046 O   0  0  0  0  0  0  0  0  0  0  0  0
   22.7003  -22.9241  -16.9077 C   0  0  0  0  0  0  0  0  0  0  0  0
   23.0570  -22.5025  -18.3052 C   0  0  1  0  0  0  0  0  0  0  0  0
   22.9608  -21.1507  -18.5254 O   0  0  0  0  0  0  0  0  0  0  0  0
   24.4263  -23.0759  -18.6347 C   0  0  2  0  0  0  0  0  0  0  0  0
   25.4834  -22.2660  -18.0618 N   0  0  0  0  0  0  0  0  0  0  0  0
   24.6573  -23.2036  -20.0824 C   0  0  0  0  0  0  0  0  0  0  0  0
   25.4872  -22.4655  -20.6960 O   0  0  0  0  0  0  0  0  0  0  0  0
   23.9700  -24.1393  -20.8169 O   0  0  0  0  0  0  0  0  0  0  0  0
  2  1  1  6
  2 10  1  0
  2  3  1  0
  3  4  1  0
  4  5  2  0
  4  9  1  0
  5  6  1  0
  6  7  2  0
  7  8  1  0
  9  8  2  0
 10 11  2  0
 12 13  1  0
 12 10  1  0
 13 14  1  1
 15 14  1  0
 16 15  1  0
 17 18  1  0
 17 16  1  0
 19 13  1  0
 20 19  2  0
 22 23  1  0
 22 21  1  1
 24 22  1  0
 24 25  1  6
 25 19  1  0
 26 28  1  0
 26 24  1  0
 27 26  2  0
M  END
$$$$
