FKT.pdb
     RDKit          3D

 28 28  0  0  1  0  0  0  0  0999 V2000
   23.5176  -12.2768  -17.9304 N   0  0  0  0  0  0  0  0  0  0  0  0
   23.0762  -11.9834  -16.5696 C   0  0  1  0  0  0  0  0  0  0  0  0
   24.3740  -11.7263  -15.7941 C   0  0  0  0  0  0  0  0  0  0  0  0
   25.0578  -13.0060  -15.5549 C   0  0  0  0  0  0  0  0  0  0  0  0
   24.6745  -13.9585  -14.6442 C   0  0  0  0  0  0  0  0  0  0  0  0
   25.3380  -15.1506  -14.4569 C   0  0  0  0  0  0  0  0  0  0  0  0
   26.4517  -15.4364  -15.2079 C   0  0  0  0  0  0  0  0  0  0  0  0
   26.8740  -14.4955  -16.1436 C   0  0  0  0  0  0  0  0  0  0  0  0
   26.1953  -13.3077  -16.3160 C   0  0  0  0  0  0  0  0  0  0  0  0
   22.2562  -10.7529  -16.5791 C   0  0  0  0  0  0  0  0  0  0  0  0
   22.4930   -9.7860  -17.3700 O   0  0  0  0  0  0  0  0  0  0  0  0
   21.1525  -10.5694  -15.7097 N   0  0  0  0  0  0  0  0  0  0  0  0
   20.2650   -9.4588  -15.7362 C   0  0  1  0  0  0  0  0  0  0  0  0
   18.8610   -9.7727  -15.2855 C   0  0  0  0  0  0  0  0  0  0  0  0
   18.1434  -10.6569  -16.2980 C   0  0  0  0  0  0  0  0  0  0  0  0
   16.7934  -11.0004  -15.7481 C   0  0  0  0  0  0  0  0  0  0  0  0
   16.0447  -11.9710  -16.6372 C   0  0  0  0  0  0  0  0  0  0  0  0
   14.7310  -12.2729  -16.1233 N   0  0  0  0  0  0  0  0  0  0  0  0
   20.7751   -8.3805  -14.8703 C   0  0  0  0  0  0  0  0  0  0  0  0
   21.1608   -8.7230  -13.6943 O   0  0  0  0  0  0  0  0  0  0  0  0
   22.7880   -5.3381  -16.2350 C   0  0  0  0  0  0  0  0  0  0  0  0
   22.8193   -5.5735  -14.7511 C   0  0  1  0  0  0  0  0  0  0  0  0
   23.3307   -4.5248  -14.0273 O   0  0  0  0  0  0  0  0  0  0  0  0
   21.4251   -5.9925  -14.3116 C   0  0  2  0  0  0  0  0  0  0  0  0
   20.8914   -7.0233  -15.1800 N   0  0  0  0  0  0  0  0  0  0  0  0
   20.4779   -4.8671  -14.2723 C   0  0  0  0  0  0  0  0  0  0  0  0
   20.6453   -3.8773  -13.4962 O   0  0  0  0  0  0  0  0  0  0  0  0
   19.3718   -4.8596  -15.0871 O   0  0  0  0  0  0  0  0  0  0  0  0
  2  1  1  6
  2 10  1  0
  2  3  1  0
  3  4  1  0
  4  5  2  0
  4  9  1  0
  5  6  1  0
  6  7  2  0
  7  8  1  0
  9  8  2  0
 10 11  2  0
 12 13  1  0
 12 10  1  0
 13 14  1  1
 15 14  1  0
 16 15  1  0
 17 18  1  0
 17 16  1  0
 19 13  1  0
 20 19  2  0
 22 23  1  0
 22 21  1  6
 24 22  1  0
 24 25  1  6
 25 19  1  0
 26 28  1  0
 26 24  1  0
 27 26  2  0
M  END
$$$$
