FKT.pdb
     RDKit          3D

 28 28  0  0  1  0  0  0  0  0999 V2000
   28.7730  -21.3030   -9.2720 N   0  0  0  0  0  0  0  0  0  0  0  0
   27.3872  -20.8453   -9.3254 C   0  0  1  0  0  0  0  0  0  0  0  0
   27.4345  -19.4181   -8.7663 C   0  0  0  0  0  0  0  0  0  0  0  0
   27.7055  -19.4716   -7.3220 C   0  0  0  0  0  0  0  0  0  0  0  0
   28.8502  -19.0300   -6.7071 C   0  0  0  0  0  0  0  0  0  0  0  0
   29.0617  -19.0894   -5.3476 C   0  0  0  0  0  0  0  0  0  0  0  0
   28.0922  -19.6148   -4.5290 C   0  0  0  0  0  0  0  0  0  0  0  0
   26.9150  -20.0746   -5.1140 C   0  0  0  0  0  0  0  0  0  0  0  0
   26.7227  -20.0058   -6.4776 C   0  0  0  0  0  0  0  0  0  0  0  0
   26.9416  -20.8075  -10.7349 C   0  0  0  0  0  0  0  0  0  0  0  0
   27.7092  -20.4395  -11.6794 O   0  0  0  0  0  0  0  0  0  0  0  0
   25.6319  -21.1793  -11.1273 N   0  0  0  0  0  0  0  0  0  0  0  0
   25.1719  -21.2624  -12.4702 C   0  0  1  0  0  0  0  0  0  0  0  0
   24.7498  -22.6445  -12.8995 C   0  0  0  0  0  0  0  0  0  0  0  0
   24.4757  -22.6951  -14.3976 C   0  0  0  0  0  0  0  0  0  0  0  0
   24.0454  -24.0857  -14.7496 C   0  0  0  0  0  0  0  0  0  0  0  0
   25.2247  -25.0082  -14.9763 C   0  0  0  0  0  0  0  0  0  0  0  0
   24.8087  -26.3659  -15.2305 N   0  0  0  0  0  0  0  0  0  0  0  0
   24.0172  -20.3677  -12.6675 C   0  0  0  0  0  0  0  0  0  0  0  0
   23.2434  -20.1981  -11.6568 O   0  0  0  0  0  0  0  0  0  0  0  0
   23.8240  -16.8599  -14.9000 C   0  0  0  0  0  0  0  0  0  0  0  0
   22.7443  -17.8627  -15.1948 C   0  0  1  0  0  0  0  0  0  0  0  0
   22.9408  -18.5748  -16.3522 O   0  0  0  0  0  0  0  0  0  0  0  0
   22.5674  -18.7391  -13.9648 C   0  0  2  0  0  0  0  0  0  0  0  0
   23.6645  -19.6770  -13.8294 N   0  0  0  0  0  0  0  0  0  0  0  0
   21.3008  -19.4880  -13.9762 C   0  0  0  0  0  0  0  0  0  0  0  0
   21.2559  -20.7239  -14.2601 O   0  0  0  0  0  0  0  0  0  0  0  0
   20.1173  -18.8586  -13.6752 O   0  0  0  0  0  0  0  0  0  0  0  0
  2  1  1  6
  2 10  1  0
  2  3  1  0
  3  4  1  0
  4  5  2  0
  4  9  1  0
  5  6  1  0
  6  7  2  0
  7  8  1  0
  9  8  2  0
 10 11  2  0
 12 13  1  0
 12 10  1  0
 13 14  1  1
 15 14  1  0
 16 15  1  0
 17 18  1  0
 17 16  1  0
 19 13  1  0
 20 19  2  0
 22 23  1  0
 22 21  1  1
 24 22  1  0
 24 25  1  6
 25 19  1  0
 26 28  1  0
 26 24  1  0
 27 26  2  0
M  END
$$$$
