FKT.pdb
     RDKit          3D

 28 28  0  0  1  0  0  0  0  0999 V2000
   23.3895  -23.8609  -17.3518 N   0  0  0  0  0  0  0  0  0  0  0  0
   22.8396  -25.1552  -17.7457 C   0  0  1  0  0  0  0  0  0  0  0  0
   22.0703  -24.8655  -19.0403 C   0  0  0  0  0  0  0  0  0  0  0  0
   22.9332  -24.1067  -19.9578 C   0  0  0  0  0  0  0  0  0  0  0  0
   23.0016  -22.7386  -20.0422 C   0  0  0  0  0  0  0  0  0  0  0  0
   23.8316  -22.0648  -20.9104 C   0  0  0  0  0  0  0  0  0  0  0  0
   24.6525  -22.7708  -21.7551 C   0  0  0  0  0  0  0  0  0  0  0  0
   24.6131  -24.1618  -21.7010 C   0  0  0  0  0  0  0  0  0  0  0  0
   23.7749  -24.8174  -20.8241 C   0  0  0  0  0  0  0  0  0  0  0  0
   23.9503  -26.0888  -18.0313 C   0  0  0  0  0  0  0  0  0  0  0  0
   25.1317  -25.6844  -18.2709 O   0  0  0  0  0  0  0  0  0  0  0  0
   23.7733  -27.4944  -18.0559 N   0  0  0  0  0  0  0  0  0  0  0  0
   24.8034  -28.4454  -18.2930 C   0  0  1  0  0  0  0  0  0  0  0  0
   24.4544  -29.8552  -17.8887 C   0  0  0  0  0  0  0  0  0  0  0  0
   25.6770  -30.7627  -17.9480 C   0  0  0  0  0  0  0  0  0  0  0  0
   26.3515  -30.7301  -16.6113 C   0  0  0  0  0  0  0  0  0  0  0  0
   27.6464  -31.5152  -16.6058 C   0  0  0  0  0  0  0  0  0  0  0  0
   28.2546  -31.5468  -15.2981 N   0  0  0  0  0  0  0  0  0  0  0  0
   25.1510  -28.4709  -19.7252 C   0  0  0  0  0  0  0  0  0  0  0  0
   24.1712  -28.4293  -20.5543 O   0  0  0  0  0  0  0  0  0  0  0  0
   27.2573  -26.0658  -21.8141 C   0  0  0  0  0  0  0  0  0  0  0  0
   27.8427  -27.4415  -21.9659 C   0  0  1  0  0  0  0  0  0  0  0  0
   28.9732  -27.6560  -21.2168 O   0  0  0  0  0  0  0  0  0  0  0  0
   26.7390  -28.4542  -21.7039 C   0  0  2  0  0  0  0  0  0  0  0  0
   26.4270  -28.5330  -20.2904 N   0  0  0  0  0  0  0  0  0  0  0  0
   27.0741  -29.8013  -22.1922 C   0  0  0  0  0  0  0  0  0  0  0  0
   27.1773  -30.7922  -21.4065 O   0  0  0  0  0  0  0  0  0  0  0  0
   27.2866  -30.0233  -23.5312 O   0  0  0  0  0  0  0  0  0  0  0  0
  2  1  1  6
  2 10  1  0
  2  3  1  0
  3  4  1  0
  4  5  2  0
  4  9  1  0
  5  6  1  0
  6  7  2  0
  7  8  1  0
  9  8  2  0
 10 11  2  0
 12 13  1  0
 12 10  1  0
 13 14  1  6
 15 14  1  0
 16 15  1  0
 17 18  1  0
 17 16  1  0
 19 13  1  0
 20 19  2  0
 22 23  1  0
 22 21  1  1
 24 22  1  0
 24 25  1  1
 25 19  1  0
 26 28  1  0
 26 24  1  0
 27 26  2  0
M  END
$$$$
