FKT.pdb
     RDKit          3D

 28 28  0  0  1  0  0  0  0  0999 V2000
   26.0088  -21.9963   -7.1700 N   0  0  0  0  0  0  0  0  0  0  0  0
   26.0590  -20.7238   -7.8848 C   0  0  1  0  0  0  0  0  0  0  0  0
   27.5271  -20.2905   -7.7907 C   0  0  0  0  0  0  0  0  0  0  0  0
   27.7598  -19.6445   -6.4904 C   0  0  0  0  0  0  0  0  0  0  0  0
   27.3209  -18.3953   -6.1291 C   0  0  0  0  0  0  0  0  0  0  0  0
   27.5523  -17.8288   -4.8954 C   0  0  0  0  0  0  0  0  0  0  0  0
   28.2596  -18.5260   -3.9468 C   0  0  0  0  0  0  0  0  0  0  0  0
   28.7231  -19.7978   -4.2740 C   0  0  0  0  0  0  0  0  0  0  0  0
   28.4804  -20.3472   -5.5151 C   0  0  0  0  0  0  0  0  0  0  0  0
   25.7016  -20.9478   -9.3021 C   0  0  0  0  0  0  0  0  0  0  0  0
   26.2707  -21.8349  -10.0132 O   0  0  0  0  0  0  0  0  0  0  0  0
   24.7016  -20.1910   -9.9615 N   0  0  0  0  0  0  0  0  0  0  0  0
   24.3161  -20.3515  -11.3207 C   0  0  1  0  0  0  0  0  0  0  0  0
   22.9487  -19.8081  -11.6486 C   0  0  0  0  0  0  0  0  0  0  0  0
   22.5539  -20.1412  -13.0822 C   0  0  0  0  0  0  0  0  0  0  0  0
   22.3807  -21.6248  -13.1890 C   0  0  0  0  0  0  0  0  0  0  0  0
   21.9990  -22.0558  -14.5897 C   0  0  0  0  0  0  0  0  0  0  0  0
   21.9785  -23.4916  -14.7275 N   0  0  0  0  0  0  0  0  0  0  0  0
   25.2824  -19.6763  -12.2056 C   0  0  0  0  0  0  0  0  0  0  0  0
   25.5016  -18.4325  -11.9730 O   0  0  0  0  0  0  0  0  0  0  0  0
   28.9132  -20.2765  -13.0507 C   0  0  0  0  0  0  0  0  0  0  0  0
   28.1855  -20.2681  -14.3655 C   0  0  1  0  0  0  0  0  0  0  0  0
   28.0298  -21.5106  -14.9286 O   0  0  0  0  0  0  0  0  0  0  0  0
   26.8759  -19.5194  -14.1737 C   0  0  2  0  0  0  0  0  0  0  0  0
   25.9935  -20.2328  -13.2715 N   0  0  0  0  0  0  0  0  0  0  0  0
   26.1666  -19.2785  -15.4403 C   0  0  0  0  0  0  0  0  0  0  0  0
   24.9768  -19.6773  -15.6281 O   0  0  0  0  0  0  0  0  0  0  0  0
   26.7840  -18.6055  -16.4666 O   0  0  0  0  0  0  0  0  0  0  0  0
  2  1  1  1
  2 10  1  0
  2  3  1  0
  3  4  1  0
  4  5  2  0
  4  9  1  0
  5  6  1  0
  6  7  2  0
  7  8  1  0
  9  8  2  0
 10 11  2  0
 12 13  1  0
 12 10  1  0
 13 14  1  1
 15 14  1  0
 16 15  1  0
 17 18  1  0
 17 16  1  0
 19 13  1  0
 20 19  2  0
 22 23  1  0
 22 21  1  1
 24 22  1  0
 24 25  1  1
 25 19  1  0
 26 28  1  0
 26 24  1  0
 27 26  2  0
M  END
$$$$
