FKT.pdb
     RDKit          3D

 28 28  0  0  1  0  0  0  0  0999 V2000
   28.5694  -20.6678   -8.9650 N   0  0  0  0  0  0  0  0  0  0  0  0
   27.1203  -20.5534   -8.8240 C   0  0  1  0  0  0  0  0  0  0  0  0
   26.9140  -19.2462   -8.0490 C   0  0  0  0  0  0  0  0  0  0  0  0
   27.4504  -19.3991   -6.6884 C   0  0  0  0  0  0  0  0  0  0  0  0
   28.5236  -18.7175   -6.1716 C   0  0  0  0  0  0  0  0  0  0  0  0
   28.9899  -18.8830   -4.8864 C   0  0  0  0  0  0  0  0  0  0  0  0
   28.3689  -19.7733   -4.0451 C   0  0  0  0  0  0  0  0  0  0  0  0
   27.2756  -20.4857   -4.5314 C   0  0  0  0  0  0  0  0  0  0  0  0
   26.8241  -20.3051   -5.8217 C   0  0  0  0  0  0  0  0  0  0  0  0
   26.5093  -20.4324  -10.1652 C   0  0  0  0  0  0  0  0  0  0  0  0
   26.8426  -19.5174  -10.9825 O   0  0  0  0  0  0  0  0  0  0  0  0
   25.5137  -21.3275  -10.6293 N   0  0  0  0  0  0  0  0  0  0  0  0
   24.9097  -21.2848  -11.9158 C   0  0  1  0  0  0  0  0  0  0  0  0
   25.2036  -22.4833  -12.7818 C   0  0  0  0  0  0  0  0  0  0  0  0
   24.6005  -22.3185  -14.1715 C   0  0  0  0  0  0  0  0  0  0  0  0
   25.7083  -22.0093  -15.1306 C   0  0  0  0  0  0  0  0  0  0  0  0
   25.1950  -21.7494  -16.5313 C   0  0  0  0  0  0  0  0  0  0  0  0
   24.7410  -22.9583  -17.1744 N   0  0  0  0  0  0  0  0  0  0  0  0
   23.4449  -21.1835  -11.7858 C   0  0  0  0  0  0  0  0  0  0  0  0
   22.9229  -21.7209  -10.7428 O   0  0  0  0  0  0  0  0  0  0  0  0
   21.0946  -18.5708  -10.9529 C   0  0  0  0  0  0  0  0  0  0  0  0
   20.6826  -19.0212  -12.3261 C   0  0  1  0  0  0  0  0  0  0  0  0
   21.1094  -18.1976  -13.3383 O   0  0  0  0  0  0  0  0  0  0  0  0
   21.1166  -20.4686  -12.4965 C   0  0  2  0  0  0  0  0  0  0  0  0
   22.5529  -20.5668  -12.6664 N   0  0  0  0  0  0  0  0  0  0  0  0
   20.4575  -21.1310  -13.6333 C   0  0  0  0  0  0  0  0  0  0  0  0
   21.1068  -21.5139  -14.6539 O   0  0  0  0  0  0  0  0  0  0  0  0
   19.1021  -21.3549  -13.6178 O   0  0  0  0  0  0  0  0  0  0  0  0
  2  1  1  6
  2 10  1  0
  2  3  1  0
  3  4  1  0
  4  5  2  0
  4  9  1  0
  5  6  1  0
  6  7  2  0
  7  8  1  0
  9  8  2  0
 10 11  2  0
 12 13  1  0
 12 10  1  0
 13 14  1  6
 15 14  1  0
 16 15  1  0
 17 18  1  0
 17 16  1  0
 19 13  1  0
 20 19  2  0
 22 23  1  0
 22 21  1  1
 24 22  1  0
 24 25  1  6
 25 19  1  0
 26 28  1  0
 26 24  1  0
 27 26  2  0
M  END
$$$$
