FKT.pdb
     RDKit          3D

 28 28  0  0  1  0  0  0  0  0999 V2000
   16.5080  -13.7586    6.9298 N   0  0  0  0  0  0  0  0  0  0  0  0
   17.2508  -14.6246    6.0182 C   0  0  1  0  0  0  0  0  0  0  0  0
   18.6749  -14.6458    6.5868 C   0  0  0  0  0  0  0  0  0  0  0  0
   19.3553  -13.3898    6.2377 C   0  0  0  0  0  0  0  0  0  0  0  0
   20.3621  -12.7993    6.9597 C   0  0  0  0  0  0  0  0  0  0  0  0
   20.9811  -11.6251    6.5931 C   0  0  0  0  0  0  0  0  0  0  0  0
   20.5941  -10.9802    5.4440 C   0  0  0  0  0  0  0  0  0  0  0  0
   19.5750  -11.5467    4.6825 C   0  0  0  0  0  0  0  0  0  0  0  0
   18.9681  -12.7236    5.0671 C   0  0  0  0  0  0  0  0  0  0  0  0
   16.6800  -15.9878    6.0690 C   0  0  0  0  0  0  0  0  0  0  0  0
   16.0459  -16.4203    7.0826 O   0  0  0  0  0  0  0  0  0  0  0  0
   16.7999  -16.9016    4.9929 N   0  0  0  0  0  0  0  0  0  0  0  0
   16.2947  -18.2307    4.9871 C   0  0  1  0  0  0  0  0  0  0  0  0
   16.2100  -18.8588    3.6192 C   0  0  0  0  0  0  0  0  0  0  0  0
   15.4554  -20.1817    3.6675 C   0  0  0  0  0  0  0  0  0  0  0  0
   15.3354  -20.7053    2.2695 C   0  0  0  0  0  0  0  0  0  0  0  0
   14.5806  -22.0169    2.2138 C   0  0  0  0  0  0  0  0  0  0  0  0
   14.5086  -22.5434    0.8727 N   0  0  0  0  0  0  0  0  0  0  0  0
   17.1449  -19.1007    5.8196 C   0  0  0  0  0  0  0  0  0  0  0  0
   18.4116  -19.0227    5.6233 O   0  0  0  0  0  0  0  0  0  0  0  0
   17.8496  -19.3313    9.6238 C   0  0  0  0  0  0  0  0  0  0  0  0
   17.2213  -20.6034    9.1285 C   0  0  1  0  0  0  0  0  0  0  0  0
   15.8700  -20.6877    9.3569 O   0  0  0  0  0  0  0  0  0  0  0  0
   17.6026  -20.7786    7.6669 C   0  0  2  0  0  0  0  0  0  0  0  0
   16.7338  -20.0029    6.8037 N   0  0  0  0  0  0  0  0  0  0  0  0
   17.5697  -22.1846    7.2341 C   0  0  0  0  0  0  0  0  0  0  0  0
   18.3143  -23.0658    7.7625 O   0  0  0  0  0  0  0  0  0  0  0  0
   16.7191  -22.5848    6.2322 O   0  0  0  0  0  0  0  0  0  0  0  0
  2  1  1  1
  2 10  1  0
  2  3  1  0
  3  4  1  0
  4  5  2  0
  4  9  1  0
  5  6  1  0
  6  7  2  0
  7  8  1  0
  9  8  2  0
 10 11  2  0
 12 13  1  0
 12 10  1  0
 13 14  1  6
 15 14  1  0
 16 15  1  0
 17 18  1  0
 17 16  1  0
 19 13  1  0
 20 19  2  0
 22 23  1  0
 22 21  1  6
 24 22  1  0
 24 25  1  6
 25 19  1  0
 26 28  1  0
 26 24  1  0
 27 26  2  0
M  END
$$$$
