FKT.pdb
     RDKit          3D

 28 28  0  0  1  0  0  0  0  0999 V2000
   25.7889  -10.3469  -18.4496 N   0  0  0  0  0  0  0  0  0  0  0  0
   25.0044  -10.7328  -17.2799 C   0  0  1  0  0  0  0  0  0  0  0  0
   25.9173  -10.4212  -16.0878 C   0  0  0  0  0  0  0  0  0  0  0  0
   26.9660  -11.4481  -15.9984 C   0  0  0  0  0  0  0  0  0  0  0  0
   26.7891  -12.7336  -15.5514 C   0  0  0  0  0  0  0  0  0  0  0  0
   27.7972  -13.6699  -15.4919 C   0  0  0  0  0  0  0  0  0  0  0  0
   29.0658  -13.3325  -15.8955 C   0  0  0  0  0  0  0  0  0  0  0  0
   29.2875  -12.0370  -16.3558 C   0  0  0  0  0  0  0  0  0  0  0  0
   28.2641  -11.1144  -16.4077 C   0  0  0  0  0  0  0  0  0  0  0  0
   23.7930   -9.8879  -17.2065 C   0  0  0  0  0  0  0  0  0  0  0  0
   23.7628   -8.7039  -17.6688 O   0  0  0  0  0  0  0  0  0  0  0  0
   22.5861  -10.3406  -16.6182 N   0  0  0  0  0  0  0  0  0  0  0  0
   21.3612   -9.6188  -16.6033 C   0  0  1  0  0  0  0  0  0  0  0  0
   20.1463  -10.4598  -16.3043 C   0  0  0  0  0  0  0  0  0  0  0  0
   18.8670   -9.6414  -16.4282 C   0  0  0  0  0  0  0  0  0  0  0  0
   17.7047  -10.5394  -16.1357 C   0  0  0  0  0  0  0  0  0  0  0  0
   17.3766  -10.5856  -14.6581 C   0  0  0  0  0  0  0  0  0  0  0  0
   16.3022  -11.5044  -14.3708 N   0  0  0  0  0  0  0  0  0  0  0  0
   21.4154   -8.5476  -15.5921 C   0  0  0  0  0  0  0  0  0  0  0  0
   21.8073   -8.8870  -14.4172 O   0  0  0  0  0  0  0  0  0  0  0  0
   23.5661   -5.6924  -15.0735 C   0  0  0  0  0  0  0  0  0  0  0  0
   22.1897   -5.0949  -15.1557 C   0  0  1  0  0  0  0  0  0  0  0  0
   21.9054   -4.5046  -16.3623 O   0  0  0  0  0  0  0  0  0  0  0  0
   21.1874   -6.1647  -14.7515 C   0  0  2  0  0  0  0  0  0  0  0  0
   21.0915   -7.1994  -15.7622 N   0  0  0  0  0  0  0  0  0  0  0  0
   19.8436   -5.6204  -14.4999 C   0  0  0  0  0  0  0  0  0  0  0  0
   19.6155   -4.8117  -13.5491 O   0  0  0  0  0  0  0  0  0  0  0  0
   18.7863   -5.9794  -15.3003 O   0  0  0  0  0  0  0  0  0  0  0  0
  2  1  1  6
  2 10  1  0
  2  3  1  0
  3  4  1  0
  4  5  2  0
  4  9  1  0
  5  6  1  0
  6  7  2  0
  7  8  1  0
  9  8  2  0
 10 11  2  0
 12 13  1  0
 12 10  1  0
 13 14  1  1
 15 14  1  0
 16 15  1  0
 17 18  1  0
 17 16  1  0
 19 13  1  0
 20 19  2  0
 22 23  1  0
 22 21  1  6
 24 22  1  0
 24 25  1  6
 25 19  1  0
 26 28  1  0
 26 24  1  0
 27 26  2  0
M  END
$$$$
