HMI.pdb
     RDKit          3D

 27 27  0  0  1  0  0  0  0  0999 V2000
   17.3479  -11.7140  -14.3043 N   0  0  0  0  0  0  0  0  0  0  0  0
   16.7671  -10.3392  -14.2473 C   0  0  1  0  0  0  0  0  0  0  0  0
   15.2871  -10.5744  -14.2594 C   0  0  0  0  0  0  0  0  0  0  0  0
   14.8304  -11.0342  -15.5659 C   0  0  0  0  0  0  0  0  0  0  0  0
   14.6169  -10.3148  -16.7111 C   0  0  0  0  0  0  0  0  0  0  0  0
   14.1780  -11.1759  -17.6330 N   0  0  0  0  0  0  0  0  0  0  0  0
   14.0979  -12.4189  -17.1365 C   0  0  0  0  0  0  0  0  0  0  0  0
   14.5029  -12.3198  -15.8602 N   0  0  0  0  0  0  0  0  0  0  0  0
   17.1931   -9.7253  -12.9687 C   0  0  0  0  0  0  0  0  0  0  0  0
   18.0172  -10.3482  -12.2043 O   0  0  0  0  0  0  0  0  0  0  0  0
   21.0871   -5.2610  -13.4906 C   0  0  0  0  0  0  0  0  0  0  0  0
   21.4245   -6.1842  -11.9871 S   0  0  0  0  0  0  0  0  0  0  0  0
   19.8590   -6.6718  -11.2280 C   0  0  0  0  0  0  0  0  0  0  0  0
   18.9471   -7.4304  -12.1103 C   0  0  0  0  0  0  0  0  0  0  0  0
   17.5652   -7.7099  -11.5577 C   0  0  2  0  0  0  0  0  0  0  0  0
   16.7786   -8.4675  -12.4735 N   0  0  0  0  0  0  0  0  0  0  0  0
   16.9291   -6.4781  -11.0451 C   0  0  0  0  0  0  0  0  0  0  0  0
   16.6578   -5.4619  -11.7458 O   0  0  0  0  0  0  0  0  0  0  0  0
   12.5454   -5.6213   -6.8844 C   0  0  0  0  0  0  0  0  0  0  0  0
   13.5747   -4.9733   -7.8088 C   0  0  0  0  0  0  0  0  0  0  0  0
   14.6355   -5.9549   -8.2168 C   0  0  2  0  0  0  0  0  0  0  0  0
   15.3205   -6.6106   -7.0410 C   0  0  0  0  0  0  0  0  0  0  0  0
   15.5475   -5.3649   -9.2308 C   0  0  2  0  0  0  0  0  0  0  0  0
   16.5582   -6.3359   -9.6663 N   0  0  0  0  0  0  0  0  0  0  0  0
   16.2651   -4.2116   -8.6919 C   0  0  0  0  0  0  0  0  0  0  0  0
   15.5991   -3.0192   -8.5047 O   0  0  0  0  0  0  0  0  0  0  0  0
   17.4693   -4.2805   -8.3965 O   0  0  0  0  0  0  0  0  0  0  0  0
  2  3  1  0
  2  1  1  1
  3  4  1  0
  4  8  1  0
  5  4  2  0
  5  6  1  0
  6  7  1  0
  8  7  2  0
  9 10  2  0
  9  2  1  0
 12 11  1  0
 13 14  1  0
 13 12  1  0
 15 14  1  6
 15 16  1  0
 16  9  1  0
 17 15  1  0
 17 24  1  0
 18 17  2  0
 20 19  1  0
 21 20  1  0
 21 22  1  1
 23 24  1  1
 23 21  1  0
 25 23  1  0
 26 25  1  0
 27 25  2  0
M  END
$$$$
