HMI.pdb
     RDKit          3D

 27 27  0  0  1  0  0  0  0  0999 V2000
   27.8843  -21.5822  -16.1257 N   0  0  0  0  0  0  0  0  0  0  0  0
   27.6374  -20.4797  -15.1488 C   0  0  1  0  0  0  0  0  0  0  0  0
   26.9985  -19.4050  -15.9751 C   0  0  0  0  0  0  0  0  0  0  0  0
   27.9985  -18.5493  -16.6034 C   0  0  0  0  0  0  0  0  0  0  0  0
   29.3488  -18.4906  -16.3846 C   0  0  0  0  0  0  0  0  0  0  0  0
   29.8288  -17.5327  -17.1820 N   0  0  0  0  0  0  0  0  0  0  0  0
   28.8510  -16.9693  -17.9062 C   0  0  0  0  0  0  0  0  0  0  0  0
   27.7258  -17.6043  -17.5411 N   0  0  0  0  0  0  0  0  0  0  0  0
   26.6950  -20.9894  -14.1265 C   0  0  0  0  0  0  0  0  0  0  0  0
   25.7603  -21.8026  -14.4681 O   0  0  0  0  0  0  0  0  0  0  0  0
   27.1072  -20.1810   -7.6544 C   0  0  0  0  0  0  0  0  0  0  0  0
   25.3790  -20.6661   -7.7231 S   0  0  0  0  0  0  0  0  0  0  0  0
   24.9292  -21.0128   -9.4385 C   0  0  0  0  0  0  0  0  0  0  0  0
   25.9608  -20.6615  -10.4374 C   0  0  0  0  0  0  0  0  0  0  0  0
   25.6245  -20.9742  -11.8804 C   0  0  2  0  0  0  0  0  0  0  0  0
   26.7126  -20.6702  -12.7492 N   0  0  0  0  0  0  0  0  0  0  0  0
   24.3222  -20.3934  -12.2695 C   0  0  0  0  0  0  0  0  0  0  0  0
   24.1023  -19.1590  -12.4280 O   0  0  0  0  0  0  0  0  0  0  0  0
   22.0885  -21.1114  -16.6842 C   0  0  0  0  0  0  0  0  0  0  0  0
   22.4916  -20.6574  -15.2824 C   0  0  0  0  0  0  0  0  0  0  0  0
   21.4797  -21.0852  -14.2586 C   0  0  2  0  0  0  0  0  0  0  0  0
   20.0597  -20.7554  -14.6544 C   0  0  0  0  0  0  0  0  0  0  0  0
   21.8759  -20.6397  -12.8975 C   0  0  2  0  0  0  0  0  0  0  0  0
   23.1686  -21.2134  -12.5053 N   0  0  0  0  0  0  0  0  0  0  0  0
   20.8985  -21.0606  -11.8960 C   0  0  0  0  0  0  0  0  0  0  0  0
   21.0410  -22.2825  -11.2738 O   0  0  0  0  0  0  0  0  0  0  0  0
   19.9355  -20.3387  -11.5898 O   0  0  0  0  0  0  0  0  0  0  0  0
  2  3  1  0
  2  1  1  6
  3  4  1  0
  4  8  1  0
  5  4  2  0
  5  6  1  0
  6  7  1  0
  8  7  2  0
  9 10  2  0
  9  2  1  0
 12 11  1  0
 13 14  1  0
 13 12  1  0
 15 14  1  1
 15 16  1  0
 16  9  1  0
 17 15  1  0
 17 24  1  0
 18 17  2  0
 20 19  1  0
 21 20  1  0
 21 22  1  6
 23 24  1  1
 23 21  1  0
 25 23  1  0
 26 25  1  0
 27 25  2  0
M  END
$$$$
