HMI.pdb
     RDKit          3D

 27 27  0  0  1  0  0  0  0  0999 V2000
   27.4170  -22.9830  -18.3304 N   0  0  0  0  0  0  0  0  0  0  0  0
   26.7832  -23.4936  -17.0781 C   0  0  1  0  0  0  0  0  0  0  0  0
   27.4955  -24.7860  -16.8171 C   0  0  0  0  0  0  0  0  0  0  0  0
   26.8602  -25.8965  -17.5174 C   0  0  0  0  0  0  0  0  0  0  0  0
   25.8688  -26.7374  -17.0882 C   0  0  0  0  0  0  0  0  0  0  0  0
   25.6435  -27.6067  -18.0769 N   0  0  0  0  0  0  0  0  0  0  0  0
   26.4437  -27.3664  -19.1257 C   0  0  0  0  0  0  0  0  0  0  0  0
   27.1904  -26.3089  -18.7695 N   0  0  0  0  0  0  0  0  0  0  0  0
   27.0597  -22.5127  -16.0037 C   0  0  0  0  0  0  0  0  0  0  0  0
   28.1309  -22.6189  -15.3018 O   0  0  0  0  0  0  0  0  0  0  0  0
   25.6458  -16.6190  -16.8792 C   0  0  0  0  0  0  0  0  0  0  0  0
   27.2114  -16.8203  -16.0219 S   0  0  0  0  0  0  0  0  0  0  0  0
   27.4359  -18.5631  -15.6008 C   0  0  0  0  0  0  0  0  0  0  0  0
   26.3574  -19.1503  -14.7778 C   0  0  0  0  0  0  0  0  0  0  0  0
   26.4748  -20.6312  -14.4841 C   0  0  2  0  0  0  0  0  0  0  0  0
   26.2398  -21.4163  -15.6501 N   0  0  0  0  0  0  0  0  0  0  0  0
   25.6829  -21.0105  -13.2951 C   0  0  0  0  0  0  0  0  0  0  0  0
   24.5438  -21.5567  -13.3323 O   0  0  0  0  0  0  0  0  0  0  0  0
   25.7549  -20.1799   -7.0778 C   0  0  0  0  0  0  0  0  0  0  0  0
   25.1508  -20.8073   -8.3329 C   0  0  0  0  0  0  0  0  0  0  0  0
   25.9881  -20.5164   -9.5450 C   0  0  2  0  0  0  0  0  0  0  0  0
   26.5223  -19.1037   -9.5718 C   0  0  0  0  0  0  0  0  0  0  0  0
   25.3005  -20.9555  -10.7870 C   0  0  2  0  0  0  0  0  0  0  0  0
   26.1619  -20.7801  -11.9623 N   0  0  0  0  0  0  0  0  0  0  0  0
   24.0868  -20.1772  -11.0251 C   0  0  0  0  0  0  0  0  0  0  0  0
   22.8756  -20.6408  -10.5576 O   0  0  0  0  0  0  0  0  0  0  0  0
   24.1206  -19.1006  -11.6429 O   0  0  0  0  0  0  0  0  0  0  0  0
  2  3  1  0
  2  1  1  6
  3  4  1  0
  4  8  1  0
  5  4  2  0
  5  6  1  0
  6  7  1  0
  8  7  2  0
  9 10  2  0
  9  2  1  0
 12 11  1  0
 13 14  1  0
 13 12  1  0
 15 14  1  6
 15 16  1  0
 16  9  1  0
 17 15  1  0
 17 24  1  0
 18 17  2  0
 20 19  1  0
 21 20  1  0
 21 22  1  6
 23 24  1  6
 23 21  1  0
 25 23  1  0
 26 25  1  0
 27 25  2  0
M  END
$$$$
