HMI.pdb
     RDKit          3D

 27 27  0  0  1  0  0  0  0  0999 V2000
   25.5920  -21.7870  -12.0849 N   0  0  0  0  0  0  0  0  0  0  0  0
   26.0403  -20.5324  -11.4097 C   0  0  1  0  0  0  0  0  0  0  0  0
   24.7600  -19.8570  -11.0216 C   0  0  0  0  0  0  0  0  0  0  0  0
   24.0758  -19.3019  -12.1838 C   0  0  0  0  0  0  0  0  0  0  0  0
   24.6010  -18.8585  -13.3680 C   0  0  0  0  0  0  0  0  0  0  0  0
   23.5775  -18.4193  -14.1050 N   0  0  0  0  0  0  0  0  0  0  0  0
   22.4146  -18.5582  -13.4519 C   0  0  0  0  0  0  0  0  0  0  0  0
   22.7340  -19.1039  -12.2674 N   0  0  0  0  0  0  0  0  0  0  0  0
   26.8159  -20.9218  -10.2097 C   0  0  0  0  0  0  0  0  0  0  0  0
   26.2176  -21.4664   -9.2113 O   0  0  0  0  0  0  0  0  0  0  0  0
   33.2389  -22.6306   -9.0074 C   0  0  0  0  0  0  0  0  0  0  0  0
   32.3372  -22.7065  -10.5591 S   0  0  0  0  0  0  0  0  0  0  0  0
   30.5917  -22.3587  -10.2469 C   0  0  0  0  0  0  0  0  0  0  0  0
   30.3279  -21.4823   -9.0860 C   0  0  0  0  0  0  0  0  0  0  0  0
   28.8765  -21.1335   -8.8311 C   0  0  2  0  0  0  0  0  0  0  0  0
   28.2093  -20.7584  -10.0333 N   0  0  0  0  0  0  0  0  0  0  0  0
   28.7387  -20.1831   -7.7075 C   0  0  0  0  0  0  0  0  0  0  0  0
   28.4842  -18.9515   -7.8326 O   0  0  0  0  0  0  0  0  0  0  0  0
   27.8307  -17.1882   -3.8070 C   0  0  0  0  0  0  0  0  0  0  0  0
   27.6960  -18.6402   -3.3513 C   0  0  0  0  0  0  0  0  0  0  0  0
   27.6275  -19.5755   -4.5242 C   0  0  2  0  0  0  0  0  0  0  0  0
   27.0234  -20.9163   -4.1790 C   0  0  0  0  0  0  0  0  0  0  0  0
   28.9299  -19.6340   -5.2373 C   0  0  2  0  0  0  0  0  0  0  0  0
   28.8883  -20.5990   -6.3424 N   0  0  0  0  0  0  0  0  0  0  0  0
   30.0064  -20.0531   -4.3425 C   0  0  0  0  0  0  0  0  0  0  0  0
   30.5069  -21.3347   -4.4293 O   0  0  0  0  0  0  0  0  0  0  0  0
   30.4847  -19.2768   -3.4995 O   0  0  0  0  0  0  0  0  0  0  0  0
  2  3  1  0
  2  1  1  1
  3  4  1  0
  4  8  1  0
  5  4  2  0
  5  6  1  0
  6  7  1  0
  8  7  2  0
  9 10  2  0
  9  2  1  0
 12 11  1  0
 13 14  1  0
 13 12  1  0
 15 14  1  6
 15 16  1  0
 16  9  1  0
 17 15  1  0
 17 24  1  0
 18 17  2  0
 20 19  1  0
 21 20  1  0
 21 22  1  1
 23 24  1  6
 23 21  1  0
 25 23  1  0
 26 25  1  0
 27 25  2  0
M  END
$$$$
