HMI.pdb
     RDKit          3D

 27 27  0  0  1  0  0  0  0  0999 V2000
   28.3156  -21.2105  -16.1843 N   0  0  0  0  0  0  0  0  0  0  0  0
   27.9829  -20.1640  -15.1719 C   0  0  1  0  0  0  0  0  0  0  0  0
   27.3188  -19.0868  -15.9748 C   0  0  0  0  0  0  0  0  0  0  0  0
   28.2919  -18.3116  -16.7359 C   0  0  0  0  0  0  0  0  0  0  0  0
   28.7149  -18.4809  -18.0270 C   0  0  0  0  0  0  0  0  0  0  0  0
   29.6318  -17.5384  -18.2607 N   0  0  0  0  0  0  0  0  0  0  0  0
   29.8212  -16.7674  -17.1801 C   0  0  0  0  0  0  0  0  0  0  0  0
   28.9891  -17.2535  -16.2451 N   0  0  0  0  0  0  0  0  0  0  0  0
   27.0342  -20.7616  -14.2045 C   0  0  0  0  0  0  0  0  0  0  0  0
   26.2242  -21.6819  -14.5895 O   0  0  0  0  0  0  0  0  0  0  0  0
   27.0261  -19.9475   -7.7295 C   0  0  0  0  0  0  0  0  0  0  0  0
   25.4594  -20.8164   -7.8605 S   0  0  0  0  0  0  0  0  0  0  0  0
   25.1070  -21.1420   -9.6026 C   0  0  0  0  0  0  0  0  0  0  0  0
   26.1420  -20.6712  -10.5473 C   0  0  0  0  0  0  0  0  0  0  0  0
   25.8579  -20.9033  -12.0165 C   0  0  2  0  0  0  0  0  0  0  0  0
   26.9180  -20.4200  -12.8374 N   0  0  0  0  0  0  0  0  0  0  0  0
   24.5062  -20.4332  -12.3861 C   0  0  0  0  0  0  0  0  0  0  0  0
   24.1739  -19.2202  -12.5095 O   0  0  0  0  0  0  0  0  0  0  0  0
   20.6235  -20.2500  -16.2942 C   0  0  0  0  0  0  0  0  0  0  0  0
   20.4956  -21.0269  -14.9850 C   0  0  0  0  0  0  0  0  0  0  0  0
   21.8383  -21.4746  -14.4832 C   0  0  2  0  0  0  0  0  0  0  0  0
   22.0459  -22.9666  -14.5951 C   0  0  0  0  0  0  0  0  0  0  0  0
   22.1295  -20.8946  -13.1464 C   0  0  2  0  0  0  0  0  0  0  0  0
   23.4309  -21.3482  -12.6418 N   0  0  0  0  0  0  0  0  0  0  0  0
   21.1251  -21.2958  -12.1638 C   0  0  0  0  0  0  0  0  0  0  0  0
   19.9931  -20.5281  -11.9917 O   0  0  0  0  0  0  0  0  0  0  0  0
   21.2680  -22.3191  -11.4749 O   0  0  0  0  0  0  0  0  0  0  0  0
  2  3  1  0
  2  1  1  6
  3  4  1  0
  4  8  1  0
  5  4  2  0
  5  6  1  0
  6  7  1  0
  8  7  2  0
  9 10  2  0
  9  2  1  0
 12 11  1  0
 13 14  1  0
 13 12  1  0
 15 14  1  1
 15 16  1  0
 16  9  1  0
 17 15  1  0
 17 24  1  0
 18 17  2  0
 20 19  1  0
 21 20  1  0
 21 22  1  1
 23 24  1  1
 23 21  1  0
 25 23  1  0
 26 25  1  0
 27 25  2  0
M  END
$$$$
