HMI.pdb
     RDKit          3D

 27 27  0  0  1  0  0  0  0  0999 V2000
   27.9811  -26.1739  -17.0477 N   0  0  0  0  0  0  0  0  0  0  0  0
   26.8827  -25.2222  -17.3921 C   0  0  1  0  0  0  0  0  0  0  0  0
   25.6365  -26.0380  -17.2270 C   0  0  0  0  0  0  0  0  0  0  0  0
   24.4405  -25.2426  -17.4794 C   0  0  0  0  0  0  0  0  0  0  0  0
   23.5634  -24.6900  -16.5850 C   0  0  0  0  0  0  0  0  0  0  0  0
   22.6165  -24.0767  -17.3000 N   0  0  0  0  0  0  0  0  0  0  0  0
   22.8411  -24.2073  -18.6155 C   0  0  0  0  0  0  0  0  0  0  0  0
   23.9692  -24.9285  -18.7146 N   0  0  0  0  0  0  0  0  0  0  0  0
   26.9232  -24.1162  -16.4081 C   0  0  0  0  0  0  0  0  0  0  0  0
   27.2439  -24.3584  -15.1875 O   0  0  0  0  0  0  0  0  0  0  0  0
   27.5304  -17.3546  -16.5480 C   0  0  0  0  0  0  0  0  0  0  0  0
   28.6288  -18.5104  -17.3752 S   0  0  0  0  0  0  0  0  0  0  0  0
   28.2945  -20.1803  -16.7711 C   0  0  0  0  0  0  0  0  0  0  0  0
   26.9360  -20.3864  -16.2258 C   0  0  0  0  0  0  0  0  0  0  0  0
   26.6479  -21.7600  -15.6572 C   0  0  2  0  0  0  0  0  0  0  0  0
   26.6397  -22.7570  -16.6756 N   0  0  0  0  0  0  0  0  0  0  0  0
   25.4593  -21.7424  -14.7787 C   0  0  0  0  0  0  0  0  0  0  0  0
   24.3038  -22.1221  -15.1221 O   0  0  0  0  0  0  0  0  0  0  0  0
   26.2335  -21.2333   -9.2804 C   0  0  0  0  0  0  0  0  0  0  0  0
   25.6901  -21.7353  -10.6170 C   0  0  0  0  0  0  0  0  0  0  0  0
   24.6845  -20.7789  -11.1906 C   0  0  2  0  0  0  0  0  0  0  0  0
   23.5103  -20.5319  -10.2730 C   0  0  0  0  0  0  0  0  0  0  0  0
   24.3295  -21.1499  -12.5851 C   0  0  2  0  0  0  0  0  0  0  0  0
   25.5277  -21.2776  -13.4229 N   0  0  0  0  0  0  0  0  0  0  0  0
   23.4796  -20.1351  -13.2042 C   0  0  0  0  0  0  0  0  0  0  0  0
   22.1167  -20.3322  -13.2684 O   0  0  0  0  0  0  0  0  0  0  0  0
   23.9591  -19.0919  -13.6773 O   0  0  0  0  0  0  0  0  0  0  0  0
  2  3  1  0
  2  1  1  1
  3  4  1  0
  4  8  1  0
  5  4  2  0
  5  6  1  0
  6  7  1  0
  8  7  2  0
  9 10  2  0
  9  2  1  0
 12 11  1  0
 13 14  1  0
 13 12  1  0
 15 14  1  6
 15 16  1  0
 16  9  1  0
 17 15  1  0
 17 24  1  0
 18 17  2  0
 20 19  1  0
 21 20  1  0
 21 22  1  1
 23 24  1  6
 23 21  1  0
 25 23  1  0
 26 25  1  0
 27 25  2  0
M  END
$$$$
