HMI.pdb
     RDKit          3D

 27 27  0  0  1  0  0  0  0  0999 V2000
   27.6398  -22.5045  -15.7076 N   0  0  0  0  0  0  0  0  0  0  0  0
   27.2698  -21.2011  -15.0793 C   0  0  1  0  0  0  0  0  0  0  0  0
   26.5526  -20.4674  -16.1716 C   0  0  0  0  0  0  0  0  0  0  0  0
   27.4857  -19.9264  -17.1532 C   0  0  0  0  0  0  0  0  0  0  0  0
   27.7577  -20.3630  -18.4220 C   0  0  0  0  0  0  0  0  0  0  0  0
   28.7017  -19.5569  -18.9148 N   0  0  0  0  0  0  0  0  0  0  0  0
   29.0527  -18.6191  -18.0229 C   0  0  0  0  0  0  0  0  0  0  0  0
   28.2960  -18.8566  -16.9395 N   0  0  0  0  0  0  0  0  0  0  0  0
   26.3560  -21.4910  -13.9505 C   0  0  0  0  0  0  0  0  0  0  0  0
   25.6907  -22.5903  -13.9333 O   0  0  0  0  0  0  0  0  0  0  0  0
   26.2369  -19.8791   -6.9432 C   0  0  0  0  0  0  0  0  0  0  0  0
   27.3624  -20.4766   -8.2092 S   0  0  0  0  0  0  0  0  0  0  0  0
   26.4124  -21.3129   -9.4988 C   0  0  0  0  0  0  0  0  0  0  0  0
   25.7224  -20.4139  -10.4481 C   0  0  0  0  0  0  0  0  0  0  0  0
   25.2780  -21.0386  -11.7540 C   0  0  2  0  0  0  0  0  0  0  0  0
   26.1267  -20.6556  -12.8330 N   0  0  0  0  0  0  0  0  0  0  0  0
   23.8318  -20.8382  -11.9840 C   0  0  0  0  0  0  0  0  0  0  0  0
   22.9488  -20.8589  -11.0802 O   0  0  0  0  0  0  0  0  0  0  0  0
   22.6693  -17.5214  -16.1425 C   0  0  0  0  0  0  0  0  0  0  0  0
   22.6773  -18.2109  -14.7792 C   0  0  0  0  0  0  0  0  0  0  0  0
   21.7658  -19.4043  -14.7664 C   0  0  2  0  0  0  0  0  0  0  0  0
   20.3450  -19.0696  -15.1549 C   0  0  0  0  0  0  0  0  0  0  0  0
   21.9110  -20.1736  -13.5034 C   0  0  2  0  0  0  0  0  0  0  0  0
   23.3008  -20.5965  -13.2950 N   0  0  0  0  0  0  0  0  0  0  0  0
   21.0927  -21.3841  -13.5224 C   0  0  0  0  0  0  0  0  0  0  0  0
   21.5170  -22.4842  -14.2369 O   0  0  0  0  0  0  0  0  0  0  0  0
   20.0165  -21.4461  -12.9061 O   0  0  0  0  0  0  0  0  0  0  0  0
  2  3  1  0
  2  1  1  6
  3  4  1  0
  4  8  1  0
  5  4  2  0
  5  6  1  0
  6  7  1  0
  8  7  2  0
  9 10  2  0
  9  2  1  0
 12 11  1  0
 13 14  1  0
 13 12  1  0
 15 14  1  1
 15 16  1  0
 16  9  1  0
 17 15  1  0
 17 24  1  0
 18 17  2  0
 20 19  1  0
 21 20  1  0
 21 22  1  1
 23 24  1  6
 23 21  1  0
 25 23  1  0
 26 25  1  0
 27 25  2  0
M  END
$$$$
