HMI.pdb
     RDKit          3D

 27 27  0  0  1  0  0  0  0  0999 V2000
   28.6606  -21.0911  -16.9219 N   0  0  0  0  0  0  0  0  0  0  0  0
   28.6806  -20.0642  -15.8376 C   0  0  1  0  0  0  0  0  0  0  0  0
   27.7669  -18.9899  -16.3445 C   0  0  0  0  0  0  0  0  0  0  0  0
   28.4219  -18.1635  -17.3521 C   0  0  0  0  0  0  0  0  0  0  0  0
   29.3081  -17.1334  -17.1847 C   0  0  0  0  0  0  0  0  0  0  0  0
   29.6044  -16.6757  -18.4039 N   0  0  0  0  0  0  0  0  0  0  0  0
   28.9505  -17.3625  -19.3520 C   0  0  0  0  0  0  0  0  0  0  0  0
   28.2238  -18.2782  -18.6915 N   0  0  0  0  0  0  0  0  0  0  0  0
   28.1290  -20.6922  -14.6152 C   0  0  0  0  0  0  0  0  0  0  0  0
   27.1503  -21.5198  -14.7080 O   0  0  0  0  0  0  0  0  0  0  0  0
   32.7165  -22.7168  -10.0991 C   0  0  0  0  0  0  0  0  0  0  0  0
   31.1969  -21.8529   -9.6856 S   0  0  0  0  0  0  0  0  0  0  0  0
   30.1129  -21.8369  -11.1313 C   0  0  0  0  0  0  0  0  0  0  0  0
   28.8502  -21.0884  -10.9563 C   0  0  0  0  0  0  0  0  0  0  0  0
   27.9319  -21.0410  -12.1594 C   0  0  2  0  0  0  0  0  0  0  0  0
   28.5843  -20.4768  -13.2940 N   0  0  0  0  0  0  0  0  0  0  0  0
   26.6246  -20.4417  -11.8178 C   0  0  0  0  0  0  0  0  0  0  0  0
   26.4148  -19.2037  -11.6750 O   0  0  0  0  0  0  0  0  0  0  0  0
   21.0400  -20.7930  -13.7805 C   0  0  0  0  0  0  0  0  0  0  0  0
   21.8806  -20.4834  -12.5429 C   0  0  0  0  0  0  0  0  0  0  0  0
   23.2551  -21.0778  -12.6547 C   0  0  2  0  0  0  0  0  0  0  0  0
   23.2384  -22.5630  -12.9295 C   0  0  0  0  0  0  0  0  0  0  0  0
   24.1138  -20.6551  -11.5180 C   0  0  2  0  0  0  0  0  0  0  0  0
   25.4537  -21.2460  -11.6152 N   0  0  0  0  0  0  0  0  0  0  0  0
   23.5490  -21.0811  -10.2393 C   0  0  0  0  0  0  0  0  0  0  0  0
   22.3703  -20.5225   -9.7933 O   0  0  0  0  0  0  0  0  0  0  0  0
   24.1096  -21.9405   -9.5398 O   0  0  0  0  0  0  0  0  0  0  0  0
  2  3  1  0
  2  1  1  6
  3  4  1  0
  4  8  1  0
  5  4  2  0
  5  6  1  0
  6  7  1  0
  8  7  2  0
  9 10  2  0
  9  2  1  0
 12 11  1  0
 13 14  1  0
 13 12  1  0
 15 14  1  1
 15 16  1  0
 16  9  1  0
 17 15  1  0
 17 24  1  0
 18 17  2  0
 20 19  1  0
 21 20  1  0
 21 22  1  1
 23 24  1  6
 23 21  1  0
 25 23  1  0
 26 25  1  0
 27 25  2  0
M  END
$$$$
