HMI.pdb
     RDKit          3D

 27 27  0  0  1  0  0  0  0  0999 V2000
   26.1395  -20.0011  -16.8381 N   0  0  0  0  0  0  0  0  0  0  0  0
   25.0786  -19.2131  -16.1423 C   0  0  1  0  0  0  0  0  0  0  0  0
   24.2057  -18.7239  -17.2579 C   0  0  0  0  0  0  0  0  0  0  0  0
   24.8839  -17.7144  -18.0630 C   0  0  0  0  0  0  0  0  0  0  0  0
   25.1428  -17.7093  -19.4074 C   0  0  0  0  0  0  0  0  0  0  0  0
   25.8087  -16.5815  -19.6691 N   0  0  0  0  0  0  0  0  0  0  0  0
   25.9924  -15.8572  -18.5557 C   0  0  0  0  0  0  0  0  0  0  0  0
   25.4176  -16.5658  -17.5706 N   0  0  0  0  0  0  0  0  0  0  0  0
   24.3359  -20.1424  -15.2603 C   0  0  0  0  0  0  0  0  0  0  0  0
   24.0598  -21.3287  -15.6700 O   0  0  0  0  0  0  0  0  0  0  0  0
   27.0511  -20.9240   -9.3305 C   0  0  0  0  0  0  0  0  0  0  0  0
   25.2748  -20.8098   -9.5721 S   0  0  0  0  0  0  0  0  0  0  0  0
   24.9079  -20.9400  -11.3366 C   0  0  0  0  0  0  0  0  0  0  0  0
   23.4970  -20.6906  -11.7008 C   0  0  0  0  0  0  0  0  0  0  0  0
   23.1581  -20.8081  -13.1720 C   0  0  2  0  0  0  0  0  0  0  0  0
   23.8791  -19.8583  -13.9527 N   0  0  0  0  0  0  0  0  0  0  0  0
   21.6963  -20.8275  -13.3896 C   0  0  0  0  0  0  0  0  0  0  0  0
   20.9551  -19.8039  -13.3958 O   0  0  0  0  0  0  0  0  0  0  0  0
   19.3653  -23.7028  -17.2871 C   0  0  0  0  0  0  0  0  0  0  0  0
   19.7778  -22.7115  -16.2004 C   0  0  0  0  0  0  0  0  0  0  0  0
   19.1563  -23.0613  -14.8788 C   0  0  2  0  0  0  0  0  0  0  0  0
   17.6795  -23.3621  -14.9791 C   0  0  0  0  0  0  0  0  0  0  0  0
   19.5304  -22.0727  -13.8344 C   0  0  2  0  0  0  0  0  0  0  0  0
   20.9819  -22.0507  -13.6183 N   0  0  0  0  0  0  0  0  0  0  0  0
   18.9108  -22.3965  -12.5512 C   0  0  0  0  0  0  0  0  0  0  0  0
   17.7216  -21.7963  -12.1961 O   0  0  0  0  0  0  0  0  0  0  0  0
   19.4337  -23.2051  -11.7671 O   0  0  0  0  0  0  0  0  0  0  0  0
  2  3  1  0
  2  1  1  6
  3  4  1  0
  4  8  1  0
  5  4  2  0
  5  6  1  0
  6  7  1  0
  8  7  2  0
  9 10  2  0
  9  2  1  0
 12 11  1  0
 13 14  1  0
 13 12  1  0
 15 14  1  1
 15 16  1  0
 16  9  1  0
 17 15  1  0
 17 24  1  0
 18 17  2  0
 20 19  1  0
 21 20  1  0
 21 22  1  6
 23 24  1  1
 23 21  1  0
 25 23  1  0
 26 25  1  0
 27 25  2  0
M  END
$$$$
