HMI.pdb
     RDKit          3D

 27 27  0  0  1  0  0  0  0  0999 V2000
   28.9862  -25.5767  -17.6469 N   0  0  0  0  0  0  0  0  0  0  0  0
   29.8942  -26.6789  -17.2093 C   0  0  1  0  0  0  0  0  0  0  0  0
   29.5145  -27.8283  -18.0929 C   0  0  0  0  0  0  0  0  0  0  0  0
   28.2816  -28.4636  -17.6419 C   0  0  0  0  0  0  0  0  0  0  0  0
   28.0851  -29.3320  -16.6019 C   0  0  0  0  0  0  0  0  0  0  0  0
   26.7890  -29.6544  -16.6062 N   0  0  0  0  0  0  0  0  0  0  0  0
   26.1384  -29.0343  -17.6013 C   0  0  0  0  0  0  0  0  0  0  0  0
   27.0692  -28.3020  -18.2340 N   0  0  0  0  0  0  0  0  0  0  0  0
   31.2852  -26.2460  -17.4757 C   0  0  0  0  0  0  0  0  0  0  0  0
   31.5235  -25.4071  -18.4195 O   0  0  0  0  0  0  0  0  0  0  0  0
   36.5621  -24.6287  -13.5413 C   0  0  0  0  0  0  0  0  0  0  0  0
   34.9764  -25.3731  -13.1434 S   0  0  0  0  0  0  0  0  0  0  0  0
   33.9544  -25.4206  -14.6328 C   0  0  0  0  0  0  0  0  0  0  0  0
   34.5834  -26.0730  -15.8007 C   0  0  0  0  0  0  0  0  0  0  0  0
   33.7356  -26.1585  -17.0526 C   0  0  2  0  0  0  0  0  0  0  0  0
   32.4352  -26.6690  -16.7702 N   0  0  0  0  0  0  0  0  0  0  0  0
   34.4580  -26.8375  -18.1488 C   0  0  0  0  0  0  0  0  0  0  0  0
   34.5784  -28.0902  -18.2652 O   0  0  0  0  0  0  0  0  0  0  0  0
   35.0107  -27.9270  -23.6110 C   0  0  0  0  0  0  0  0  0  0  0  0
   35.8846  -26.9928  -22.7758 C   0  0  0  0  0  0  0  0  0  0  0  0
   35.1189  -26.4203  -21.6177 C   0  0  2  0  0  0  0  0  0  0  0  0
   34.7885  -24.9566  -21.7907 C   0  0  0  0  0  0  0  0  0  0  0  0
   35.7612  -26.7747  -20.3254 C   0  0  2  0  0  0  0  0  0  0  0  0
   35.0999  -26.1024  -19.2008 N   0  0  0  0  0  0  0  0  0  0  0  0
   37.1649  -26.3694  -20.3018 C   0  0  0  0  0  0  0  0  0  0  0  0
   37.5457  -25.2686  -19.5645 O   0  0  0  0  0  0  0  0  0  0  0  0
   38.0293  -26.9974  -20.9347 O   0  0  0  0  0  0  0  0  0  0  0  0
  2  3  1  0
  2  1  1  6
  3  4  1  0
  4  8  1  0
  5  4  2  0
  5  6  1  0
  6  7  1  0
  8  7  2  0
  9 10  2  0
  9  2  1  0
 12 11  1  0
 13 14  1  0
 13 12  1  0
 15 14  1  1
 15 16  1  0
 16  9  1  0
 17 15  1  0
 17 24  1  0
 18 17  2  0
 20 19  1  0
 21 20  1  0
 21 22  1  6
 23 24  1  1
 23 21  1  0
 25 23  1  0
 26 25  1  0
 27 25  2  0
M  END
$$$$
