HMI.pdb
     RDKit          3D

 27 27  0  0  1  0  0  0  0  0999 V2000
   27.6261  -20.6250  -17.5299 N   0  0  0  0  0  0  0  0  0  0  0  0
   28.0101  -19.6650  -16.4520 C   0  0  1  0  0  0  0  0  0  0  0  0
   26.9260  -18.6310  -16.4899 C   0  0  0  0  0  0  0  0  0  0  0  0
   27.0947  -17.7218  -17.6177 C   0  0  0  0  0  0  0  0  0  0  0  0
   28.2383  -17.1451  -18.1016 C   0  0  0  0  0  0  0  0  0  0  0  0
   27.8772  -16.3727  -19.1297 N   0  0  0  0  0  0  0  0  0  0  0  0
   26.5527  -16.4235  -19.3327 C   0  0  0  0  0  0  0  0  0  0  0  0
   26.0799  -17.2589  -18.3940 N   0  0  0  0  0  0  0  0  0  0  0  0
   27.9913  -20.4021  -15.1677 C   0  0  0  0  0  0  0  0  0  0  0  0
   27.0184  -21.1986  -14.9024 O   0  0  0  0  0  0  0  0  0  0  0  0
   31.2995  -22.3082   -8.2079 C   0  0  0  0  0  0  0  0  0  0  0  0
   31.5680  -21.5516   -9.8148 S   0  0  0  0  0  0  0  0  0  0  0  0
   30.0007  -21.4958  -10.7121 C   0  0  0  0  0  0  0  0  0  0  0  0
   30.0817  -20.9294  -12.0752 C   0  0  0  0  0  0  0  0  0  0  0  0
   28.7917  -20.9148  -12.8682 C   0  0  2  0  0  0  0  0  0  0  0  0
   28.9743  -20.3279  -14.1541 N   0  0  0  0  0  0  0  0  0  0  0  0
   27.6751  -20.3622  -12.0729 C   0  0  0  0  0  0  0  0  0  0  0  0
   27.4763  -19.1311  -11.8682 O   0  0  0  0  0  0  0  0  0  0  0  0
   22.9517  -20.7204  -13.4622 C   0  0  0  0  0  0  0  0  0  0  0  0
   24.2386  -20.3451  -12.7294 C   0  0  0  0  0  0  0  0  0  0  0  0
   24.2765  -20.9437  -11.3527 C   0  0  2  0  0  0  0  0  0  0  0  0
   23.0481  -20.6251  -10.5334 C   0  0  0  0  0  0  0  0  0  0  0  0
   25.5729  -20.6620  -10.6833 C   0  0  2  0  0  0  0  0  0  0  0  0
   26.6978  -21.2091  -11.4511 N   0  0  0  0  0  0  0  0  0  0  0  0
   25.6264  -21.2671   -9.3543 C   0  0  0  0  0  0  0  0  0  0  0  0
   24.9917  -20.6505   -8.2971 O   0  0  0  0  0  0  0  0  0  0  0  0
   26.2343  -22.3310   -9.1528 O   0  0  0  0  0  0  0  0  0  0  0  0
  2  3  1  0
  2  1  1  6
  3  4  1  0
  4  8  1  0
  5  4  2  0
  5  6  1  0
  6  7  1  0
  8  7  2  0
  9 10  2  0
  9  2  1  0
 12 11  1  0
 13 14  1  0
 13 12  1  0
 15 14  1  1
 15 16  1  0
 16  9  1  0
 17 15  1  0
 17 24  1  0
 18 17  2  0
 20 19  1  0
 21 20  1  0
 21 22  1  1
 23 24  1  6
 23 21  1  0
 25 23  1  0
 26 25  1  0
 27 25  2  0
M  END
$$$$
