PYT.pdb
     RDKit          3D

 27 28  0  0  1  0  0  0  0  0999 V2000
   27.9311  -20.9884  -15.3673 N   0  0  0  0  0  0  0  0  0  0  0  0
   28.3995  -20.7657  -16.7550 C   0  0  0  0  0  0  0  0  0  0  0  0
   27.7723  -19.4320  -17.0595 C   0  0  0  0  0  0  0  0  0  0  0  0
   27.8091  -18.6676  -15.7722 C   0  0  0  0  0  0  0  0  0  0  0  0
   28.1349  -19.6975  -14.7326 C   0  0  1  0  0  0  0  0  0  0  0  0
   27.3378  -19.6122  -13.5174 C   0  0  0  0  0  0  0  0  0  0  0  0
   27.2067  -18.5127  -12.9116 O   0  0  0  0  0  0  0  0  0  0  0  0
   21.0889  -19.4687  -16.3139 O   0  0  0  0  0  0  0  0  0  0  0  0
   21.9230  -19.9711  -15.2992 C   0  0  0  0  0  0  0  0  0  0  0  0
   21.8974  -19.3985  -14.0465 C   0  0  0  0  0  0  0  0  0  0  0  0
   22.7048  -19.8797  -13.0526 C   0  0  0  0  0  0  0  0  0  0  0  0
   23.5469  -20.9288  -13.2769 C   0  0  0  0  0  0  0  0  0  0  0  0
   24.4507  -21.4963  -12.2310 C   0  0  0  0  0  0  0  0  0  0  0  0
   25.6323  -20.6192  -11.9591 C   0  0  2  0  0  0  0  0  0  0  0  0
   26.6760  -20.7038  -12.9420 N   0  0  0  0  0  0  0  0  0  0  0  0
   26.2206  -21.0458  -10.6630 C   0  0  0  0  0  0  0  0  0  0  0  0
   27.0614  -21.9781  -10.5968 O   0  0  0  0  0  0  0  0  0  0  0  0
   23.5758  -21.5042  -14.5275 C   0  0  0  0  0  0  0  0  0  0  0  0
   22.7576  -21.0210  -15.5450 C   0  0  0  0  0  0  0  0  0  0  0  0
   28.6634  -19.7893   -8.3886 C   0  0  0  0  0  0  0  0  0  0  0  0
   27.3779  -19.7974   -7.5895 C   0  0  1  0  0  0  0  0  0  0  0  0
   26.8415  -18.5304   -7.5424 O   0  0  0  0  0  0  0  0  0  0  0  0
   26.4368  -20.8331   -8.1484 C   0  0  2  0  0  0  0  0  0  0  0  0
   25.8771  -20.4361   -9.4246 N   0  0  0  0  0  0  0  0  0  0  0  0
   25.3106  -21.1216   -7.2381 C   0  0  0  0  0  0  0  0  0  0  0  0
   25.5004  -21.4955   -5.9251 O   0  0  0  0  0  0  0  0  0  0  0  0
   24.1439  -21.0231   -7.6749 O   0  0  0  0  0  0  0  0  0  0  0  0
  1  2  1  0
  3  2  1  0
  4  3  1  0
  4  5  1  0
  5  1  1  0
  5  6  1  1
  6 15  1  0
  6  7  2  0
  8  9  1  0
  9 10  2  0
 10 11  1  0
 12 11  2  0
 12 13  1  0
 14 13  1  6
 14 16  1  0
 15 14  1  0
 16 17  2  0
 18 12  1  0
 19  9  1  0
 19 18  2  0
 21 20  1  6
 21 23  1  0
 22 21  1  0
 23 25  1  0
 23 24  1  6
 24 16  1  0
 25 26  1  0
 27 25  2  0
M  END
$$$$
