PYT.pdb
     RDKit          3D

 27 28  0  0  1  0  0  0  0  0999 V2000
   28.6725  -19.9008  -12.5378 N   0  0  0  0  0  0  0  0  0  0  0  0
   30.1511  -19.8280  -12.5918 C   0  0  0  0  0  0  0  0  0  0  0  0
   30.5258  -20.7551  -11.4671 C   0  0  0  0  0  0  0  0  0  0  0  0
   29.4975  -21.8437  -11.4843 C   0  0  0  0  0  0  0  0  0  0  0  0
   28.4117  -21.3209  -12.3761 C   0  0  1  0  0  0  0  0  0  0  0  0
   27.0597  -21.5218  -11.8746 C   0  0  0  0  0  0  0  0  0  0  0  0
   26.6440  -22.6805  -11.5961 O   0  0  0  0  0  0  0  0  0  0  0  0
   27.8326  -20.3125   -5.5495 O   0  0  0  0  0  0  0  0  0  0  0  0
   26.9942  -20.1586   -6.6681 C   0  0  0  0  0  0  0  0  0  0  0  0
   27.2123  -19.1223   -7.5492 C   0  0  0  0  0  0  0  0  0  0  0  0
   26.4026  -18.9638   -8.6403 C   0  0  0  0  0  0  0  0  0  0  0  0
   25.3690  -19.8210   -8.8792 C   0  0  0  0  0  0  0  0  0  0  0  0
   24.4527  -19.6977  -10.0530 C   0  0  0  0  0  0  0  0  0  0  0  0
   24.8098  -20.6405  -11.1589 C   0  0  2  0  0  0  0  0  0  0  0  0
   26.1434  -20.4834  -11.6685 N   0  0  0  0  0  0  0  0  0  0  0  0
   23.8799  -20.3819  -12.2887 C   0  0  0  0  0  0  0  0  0  0  0  0
   23.9335  -19.3171  -12.9549 O   0  0  0  0  0  0  0  0  0  0  0  0
   25.1473  -20.8582   -8.0012 C   0  0  0  0  0  0  0  0  0  0  0  0
   25.9663  -21.0272   -6.8882 C   0  0  0  0  0  0  0  0  0  0  0  0
   23.1952  -22.6806  -15.3396 C   0  0  0  0  0  0  0  0  0  0  0  0
   21.8770  -22.3677  -14.6646 C   0  0  1  0  0  0  0  0  0  0  0  0
   21.4393  -23.4606  -13.9508 O   0  0  0  0  0  0  0  0  0  0  0  0
   22.0132  -21.1175  -13.8346 C   0  0  2  0  0  0  0  0  0  0  0  0
   22.8784  -21.3097  -12.6883 N   0  0  0  0  0  0  0  0  0  0  0  0
   20.7131  -20.6278  -13.3346 C   0  0  0  0  0  0  0  0  0  0  0  0
   19.6882  -20.2612  -14.1802 O   0  0  0  0  0  0  0  0  0  0  0  0
   20.5368  -20.5430  -12.1004 O   0  0  0  0  0  0  0  0  0  0  0  0
  1  2  1  0
  3  2  1  0
  4  3  1  0
  4  5  1  0
  5  1  1  0
  5  6  1  1
  6 15  1  0
  6  7  2  0
  8  9  1  0
  9 10  2  0
 10 11  1  0
 12 11  2  0
 12 13  1  0
 14 13  1  1
 14 16  1  0
 15 14  1  0
 16 17  2  0
 18 12  1  0
 19  9  1  0
 19 18  2  0
 21 20  1  1
 21 23  1  0
 22 21  1  0
 23 25  1  0
 23 24  1  1
 24 16  1  0
 25 26  1  0
 27 25  2  0
M  END
$$$$
