PYT.pdb
     RDKit          3D

 27 28  0  0  1  0  0  0  0  0999 V2000
   30.5712  -28.0594  -20.4782 N   0  0  0  0  0  0  0  0  0  0  0  0
   31.8384  -28.2653  -21.2175 C   0  0  0  0  0  0  0  0  0  0  0  0
   32.2506  -29.6206  -20.7095 C   0  0  0  0  0  0  0  0  0  0  0  0
   30.9757  -30.3832  -20.5196 C   0  0  0  0  0  0  0  0  0  0  0  0
   29.8998  -29.3422  -20.5986 C   0  0  1  0  0  0  0  0  0  0  0  0
   28.8640  -29.4559  -19.5818 C   0  0  0  0  0  0  0  0  0  0  0  0
   28.8487  -28.6740  -18.5910 O   0  0  0  0  0  0  0  0  0  0  0  0
   24.5825  -25.0887  -21.2784 O   0  0  0  0  0  0  0  0  0  0  0  0
   24.7854  -26.3884  -20.7812 C   0  0  0  0  0  0  0  0  0  0  0  0
   25.3541  -27.3488  -21.5887 C   0  0  0  0  0  0  0  0  0  0  0  0
   25.5557  -28.6161  -21.1146 C   0  0  0  0  0  0  0  0  0  0  0  0
   25.2014  -28.9553  -19.8420 C   0  0  0  0  0  0  0  0  0  0  0  0
   25.3972  -30.3219  -19.2702 C   0  0  0  0  0  0  0  0  0  0  0  0
   26.7585  -30.5034  -18.6758 C   0  0  2  0  0  0  0  0  0  0  0  0
   27.8380  -30.4079  -19.6185 N   0  0  0  0  0  0  0  0  0  0  0  0
   26.8148  -31.8669  -18.0879 C   0  0  0  0  0  0  0  0  0  0  0  0
   27.2278  -32.8527  -18.7498 O   0  0  0  0  0  0  0  0  0  0  0  0
   24.6327  -27.9986  -19.0314 C   0  0  0  0  0  0  0  0  0  0  0  0
   24.4237  -26.7064  -19.5055 C   0  0  0  0  0  0  0  0  0  0  0  0
   28.5247  -32.9184  -14.7474 C   0  0  0  0  0  0  0  0  0  0  0  0
   27.0742  -33.3505  -14.7191 C   0  0  1  0  0  0  0  0  0  0  0  0
   26.3454  -32.5099  -13.9083 O   0  0  0  0  0  0  0  0  0  0  0  0
   26.5431  -33.4457  -16.1260 C   0  0  2  0  0  0  0  0  0  0  0  0
   26.4104  -32.1461  -16.7530 N   0  0  0  0  0  0  0  0  0  0  0  0
   25.2244  -34.1070  -16.1876 C   0  0  0  0  0  0  0  0  0  0  0  0
   24.0720  -33.4257  -16.5159 O   0  0  0  0  0  0  0  0  0  0  0  0
   25.1516  -35.3282  -15.9329 O   0  0  0  0  0  0  0  0  0  0  0  0
  1  2  1  0
  3  2  1  0
  4  3  1  0
  4  5  1  0
  5  1  1  0
  5  6  1  1
  6 15  1  0
  6  7  2  0
  8  9  1  0
  9 10  2  0
 10 11  1  0
 12 11  2  0
 12 13  1  0
 14 13  1  6
 14 16  1  0
 15 14  1  0
 16 17  2  0
 18 12  1  0
 19  9  1  0
 19 18  2  0
 21 20  1  6
 21 23  1  0
 22 21  1  0
 23 25  1  0
 23 24  1  1
 24 16  1  0
 25 26  1  0
 27 25  2  0
M  END
$$$$
