PYT.pdb
     RDKit          3D

 27 28  0  0  1  0  0  0  0  0999 V2000
   21.4956  -21.8279  -11.7828 N   0  0  0  0  0  0  0  0  0  0  0  0
   20.1000  -21.9079  -11.2922 C   0  0  0  0  0  0  0  0  0  0  0  0
   20.0687  -20.7552  -10.3252 C   0  0  0  0  0  0  0  0  0  0  0  0
   20.9411  -19.6991  -10.9307 C   0  0  0  0  0  0  0  0  0  0  0  0
   21.6870  -20.4075  -12.0212 C   0  0  1  0  0  0  0  0  0  0  0  0
   23.1094  -20.1039  -12.0852 C   0  0  0  0  0  0  0  0  0  0  0  0
   23.5067  -18.9111  -12.1970 O   0  0  0  0  0  0  0  0  0  0  0  0
   27.6680  -19.3057   -6.2023 O   0  0  0  0  0  0  0  0  0  0  0  0
   27.3343  -19.9100   -7.4276 C   0  0  0  0  0  0  0  0  0  0  0  0
   28.3225  -20.4752   -8.2033 C   0  0  0  0  0  0  0  0  0  0  0  0
   28.0083  -21.0654   -9.3967 C   0  0  0  0  0  0  0  0  0  0  0  0
   26.7201  -21.1077   -9.8425 C   0  0  0  0  0  0  0  0  0  0  0  0
   26.3177  -21.7381  -11.1362 C   0  0  0  0  0  0  0  0  0  0  0  0
   25.5274  -20.8094  -12.0035 C   0  0  2  0  0  0  0  0  0  0  0  0
   24.1163  -21.0753  -12.0307 N   0  0  0  0  0  0  0  0  0  0  0  0
   26.0248  -20.9609  -13.3955 C   0  0  0  0  0  0  0  0  0  0  0  0
   25.6727  -21.9268  -14.1190 O   0  0  0  0  0  0  0  0  0  0  0  0
   25.7291  -20.5441   -9.0705 C   0  0  0  0  0  0  0  0  0  0  0  0
   26.0396  -19.9413   -7.8546 C   0  0  0  0  0  0  0  0  0  0  0  0
   26.5579  -17.7262  -15.8680 C   0  0  0  0  0  0  0  0  0  0  0  0
   27.7208  -18.6948  -15.8923 C   0  0  1  0  0  0  0  0  0  0  0  0
   28.7828  -18.1776  -15.1854 O   0  0  0  0  0  0  0  0  0  0  0  0
   27.2688  -20.0466  -15.4035 C   0  0  2  0  0  0  0  0  0  0  0  0
   26.9220  -20.0351  -13.9967 N   0  0  0  0  0  0  0  0  0  0  0  0
   28.2946  -21.0900  -15.6012 C   0  0  0  0  0  0  0  0  0  0  0  0
   28.7687  -21.4312  -16.8497 O   0  0  0  0  0  0  0  0  0  0  0  0
   28.7486  -21.6843  -14.6001 O   0  0  0  0  0  0  0  0  0  0  0  0
  1  2  1  0
  3  2  1  0
  4  3  1  0
  4  5  1  0
  5  1  1  0
  5  6  1  1
  6 15  1  0
  6  7  2  0
  8  9  1  0
  9 10  2  0
 10 11  1  0
 12 11  2  0
 12 13  1  0
 14 13  1  1
 14 16  1  0
 15 14  1  0
 16 17  2  0
 18 12  1  0
 19  9  1  0
 19 18  2  0
 21 20  1  1
 21 23  1  0
 22 21  1  0
 23 25  1  0
 23 24  1  1
 24 16  1  0
 25 26  1  0
 27 25  2  0
M  END
$$$$
