PYT.pdb
     RDKit          3D

 27 28  0  0  1  0  0  0  0  0999 V2000
   23.5060  -11.5409  -16.6760 N   0  0  0  0  0  0  0  0  0  0  0  0
   23.9824  -12.8525  -17.1734 C   0  0  0  0  0  0  0  0  0  0  0  0
   22.7957  -13.3012  -17.9827 C   0  0  0  0  0  0  0  0  0  0  0  0
   22.2316  -12.0555  -18.5934 C   0  0  0  0  0  0  0  0  0  0  0  0
   22.8977  -10.9374  -17.8493 C   0  0  1  0  0  0  0  0  0  0  0  0
   22.0088   -9.8574  -17.4456 C   0  0  0  0  0  0  0  0  0  0  0  0
   21.3186   -9.2398  -18.3031 O   0  0  0  0  0  0  0  0  0  0  0  0
   16.2984  -12.8297  -16.6607 O   0  0  0  0  0  0  0  0  0  0  0  0
   17.2023  -11.8786  -16.1547 C   0  0  0  0  0  0  0  0  0  0  0  0
   16.9754  -10.5370  -16.3695 C   0  0  0  0  0  0  0  0  0  0  0  0
   17.8486   -9.6038  -15.8815 C   0  0  0  0  0  0  0  0  0  0  0  0
   18.9549   -9.9771  -15.1767 C   0  0  0  0  0  0  0  0  0  0  0  0
   19.9427   -9.0037  -14.6201 C   0  0  0  0  0  0  0  0  0  0  0  0
   20.8793   -8.4798  -15.6630 C   0  0  2  0  0  0  0  0  0  0  0  0
   21.8532   -9.4308  -16.1211 N   0  0  0  0  0  0  0  0  0  0  0  0
   21.6286   -7.3443  -15.0655 C   0  0  0  0  0  0  0  0  0  0  0  0
   22.5560   -7.5306  -14.2375 O   0  0  0  0  0  0  0  0  0  0  0  0
   19.1857  -11.3170  -14.9595 C   0  0  0  0  0  0  0  0  0  0  0  0
   18.3025  -12.2736  -15.4525 C   0  0  0  0  0  0  0  0  0  0  0  0
   23.2532   -4.3593  -17.0182 C   0  0  0  0  0  0  0  0  0  0  0  0
   22.3510   -3.8119  -15.9330 C   0  0  1  0  0  0  0  0  0  0  0  0
   21.1907   -3.3186  -16.4859 O   0  0  0  0  0  0  0  0  0  0  0  0
   22.1202   -4.8664  -14.8818 C   0  0  2  0  0  0  0  0  0  0  0  0
   21.3511   -5.9864  -15.3855 N   0  0  0  0  0  0  0  0  0  0  0  0
   21.4143   -4.3376  -13.6976 C   0  0  0  0  0  0  0  0  0  0  0  0
   21.9248   -3.3117  -12.9316 O   0  0  0  0  0  0  0  0  0  0  0  0
   20.3147   -4.8388  -13.3795 O   0  0  0  0  0  0  0  0  0  0  0  0
  1  2  1  0
  3  2  1  0
  4  3  1  0
  4  5  1  0
  5  1  1  0
  5  6  1  1
  6 15  1  0
  6  7  2  0
  8  9  1  0
  9 10  2  0
 10 11  1  0
 12 11  2  0
 12 13  1  0
 14 13  1  1
 14 16  1  0
 15 14  1  0
 16 17  2  0
 18 12  1  0
 19  9  1  0
 19 18  2  0
 21 20  1  6
 21 23  1  0
 22 21  1  0
 23 25  1  0
 23 24  1  6
 24 16  1  0
 25 26  1  0
 27 25  2  0
M  END
$$$$
