PYT.pdb
     RDKit          3D

 27 28  0  0  1  0  0  0  0  0999 V2000
   26.6947  -21.1462  -15.7409 N   0  0  0  0  0  0  0  0  0  0  0  0
   28.1114  -21.2913  -16.1493 C   0  0  0  0  0  0  0  0  0  0  0  0
   28.5189  -19.8496  -16.2908 C   0  0  0  0  0  0  0  0  0  0  0  0
   27.7744  -19.1146  -15.2191 C   0  0  0  0  0  0  0  0  0  0  0  0
   26.7387  -20.0894  -14.7449 C   0  0  1  0  0  0  0  0  0  0  0  0
   25.4087  -19.5265  -14.5617 C   0  0  0  0  0  0  0  0  0  0  0  0
   25.2303  -18.5358  -13.8002 O   0  0  0  0  0  0  0  0  0  0  0  0
   25.1924  -14.9916  -19.1965 O   0  0  0  0  0  0  0  0  0  0  0  0
   24.4953  -16.0136  -18.5278 C   0  0  0  0  0  0  0  0  0  0  0  0
   24.8686  -17.3274  -18.7078 C   0  0  0  0  0  0  0  0  0  0  0  0
   24.1970  -18.3290  -18.0620 C   0  0  0  0  0  0  0  0  0  0  0  0
   23.1509  -18.0525  -17.2317 C   0  0  0  0  0  0  0  0  0  0  0  0
   22.3809  -19.1038  -16.5005 C   0  0  0  0  0  0  0  0  0  0  0  0
   22.9624  -19.4070  -15.1554 C   0  0  2  0  0  0  0  0  0  0  0  0
   24.2603  -20.0209  -15.1919 N   0  0  0  0  0  0  0  0  0  0  0  0
   22.0493  -20.3616  -14.4751 C   0  0  0  0  0  0  0  0  0  0  0  0
   21.9974  -21.5731  -14.8070 O   0  0  0  0  0  0  0  0  0  0  0  0
   22.7743  -16.7408  -17.0488 C   0  0  0  0  0  0  0  0  0  0  0  0
   23.4521  -15.7150  -17.7020 C   0  0  0  0  0  0  0  0  0  0  0  0
   20.0196  -19.2270  -10.8771 C   0  0  0  0  0  0  0  0  0  0  0  0
   20.4487  -20.6484  -11.1716 C   0  0  1  0  0  0  0  0  0  0  0  0
   19.7086  -21.5321  -10.4188 O   0  0  0  0  0  0  0  0  0  0  0  0
   20.3750  -20.9064  -12.6543 C   0  0  2  0  0  0  0  0  0  0  0  0
   21.1826  -19.9748  -13.4156 N   0  0  0  0  0  0  0  0  0  0  0  0
   18.9948  -20.8268  -13.1728 C   0  0  0  0  0  0  0  0  0  0  0  0
   18.0358  -21.7679  -12.8653 O   0  0  0  0  0  0  0  0  0  0  0  0
   18.6861  -19.8716  -13.9170 O   0  0  0  0  0  0  0  0  0  0  0  0
  1  2  1  0
  3  2  1  0
  4  3  1  0
  4  5  1  0
  5  1  1  0
  5  6  1  6
  6 15  1  0
  6  7  2  0
  8  9  1  0
  9 10  2  0
 10 11  1  0
 12 11  2  0
 12 13  1  0
 14 13  1  6
 14 16  1  0
 15 14  1  0
 16 17  2  0
 18 12  1  0
 19  9  1  0
 19 18  2  0
 21 20  1  6
 21 23  1  0
 22 21  1  0
 23 25  1  0
 23 24  1  6
 24 16  1  0
 25 26  1  0
 27 25  2  0
M  END
$$$$
