PYT.pdb
     RDKit          3D

 27 28  0  0  1  0  0  0  0  0999 V2000
   16.8968  -14.1502    4.6624 N   0  0  0  0  0  0  0  0  0  0  0  0
   17.1438  -12.8575    3.9824 C   0  0  0  0  0  0  0  0  0  0  0  0
   18.5757  -12.5994    4.3670 C   0  0  0  0  0  0  0  0  0  0  0  0
   19.2320  -13.9452    4.3984 C   0  0  0  0  0  0  0  0  0  0  0  0
   18.0932  -14.9196    4.3665 C   0  0  1  0  0  0  0  0  0  0  0  0
   18.2120  -16.0289    5.3018 C   0  0  0  0  0  0  0  0  0  0  0  0
   17.4626  -16.0971    6.3151 O   0  0  0  0  0  0  0  0  0  0  0  0
   14.5731  -20.8603    2.5337 O   0  0  0  0  0  0  0  0  0  0  0  0
   15.7519  -20.5295    3.2256 C   0  0  0  0  0  0  0  0  0  0  0  0
   15.7543  -20.5109    4.6031 C   0  0  0  0  0  0  0  0  0  0  0  0
   16.8956  -20.1904    5.2856 C   0  0  0  0  0  0  0  0  0  0  0  0
   18.0482  -19.8844    4.6237 C   0  0  0  0  0  0  0  0  0  0  0  0
   19.3238  -19.5272    5.3152 C   0  0  0  0  0  0  0  0  0  0  0  0
   19.2405  -18.2128    6.0257 C   0  0  2  0  0  0  0  0  0  0  0  0
   19.1345  -17.0725    5.1589 N   0  0  0  0  0  0  0  0  0  0  0  0
   20.4903  -18.0461    6.8118 C   0  0  0  0  0  0  0  0  0  0  0  0
   21.6128  -17.9572    6.2526 O   0  0  0  0  0  0  0  0  0  0  0  0
   18.0504  -19.9019    3.2470 C   0  0  0  0  0  0  0  0  0  0  0  0
   16.8935  -20.2269    2.5441 C   0  0  0  0  0  0  0  0  0  0  0  0
   21.8225  -15.2718    8.6330 C   0  0  0  0  0  0  0  0  0  0  0  0
   21.6486  -16.3550    9.6760 C   0  0  1  0  0  0  0  0  0  0  0  0
   20.5030  -16.1303   10.4056 O   0  0  0  0  0  0  0  0  0  0  0  0
   21.6907  -17.7092    9.0166 C   0  0  2  0  0  0  0  0  0  0  0  0
   20.5019  -17.9765    8.2325 N   0  0  0  0  0  0  0  0  0  0  0  0
   21.8373  -18.8075    9.9924 C   0  0  0  0  0  0  0  0  0  0  0  0
   22.9740  -18.9700   10.7550 O   0  0  0  0  0  0  0  0  0  0  0  0
   20.8966  -19.6183   10.1311 O   0  0  0  0  0  0  0  0  0  0  0  0
  1  2  1  0
  3  2  1  0
  4  3  1  0
  4  5  1  0
  5  1  1  0
  5  6  1  1
  6 15  1  0
  6  7  2  0
  8  9  1  0
  9 10  2  0
 10 11  1  0
 12 11  2  0
 12 13  1  0
 14 13  1  6
 14 16  1  0
 15 14  1  0
 16 17  2  0
 18 12  1  0
 19  9  1  0
 19 18  2  0
 21 20  1  6
 21 23  1  0
 22 21  1  0
 23 25  1  0
 23 24  1  1
 24 16  1  0
 25 26  1  0
 27 25  2  0
M  END
$$$$
