PYT.pdb
     RDKit          3D

 27 28  0  0  1  0  0  0  0  0999 V2000
   27.6970  -20.8132  -17.1170 N   0  0  0  0  0  0  0  0  0  0  0  0
   28.8948  -20.8527  -17.9877 C   0  0  0  0  0  0  0  0  0  0  0  0
   29.8034  -21.7455  -17.1865 C   0  0  0  0  0  0  0  0  0  0  0  0
   28.9061  -22.7546  -16.5389 C   0  0  0  0  0  0  0  0  0  0  0  0
   27.5250  -22.1999  -16.7191 C   0  0  1  0  0  0  0  0  0  0  0  0
   26.6779  -22.2742  -15.5374 C   0  0  0  0  0  0  0  0  0  0  0  0
   26.3809  -23.3910  -15.0298 O   0  0  0  0  0  0  0  0  0  0  0  0
   22.8807  -20.9023   -7.8200 O   0  0  0  0  0  0  0  0  0  0  0  0
   23.6075  -20.7379   -9.0126 C   0  0  0  0  0  0  0  0  0  0  0  0
   24.8955  -21.2186   -9.1007 C   0  0  0  0  0  0  0  0  0  0  0  0
   25.6110  -21.0638  -10.2563 C   0  0  0  0  0  0  0  0  0  0  0  0
   25.0704  -20.4351  -11.3391 C   0  0  0  0  0  0  0  0  0  0  0  0
   25.8033  -20.2371  -12.6261 C   0  0  0  0  0  0  0  0  0  0  0  0
   25.3508  -21.1835  -13.6934 C   0  0  2  0  0  0  0  0  0  0  0  0
   26.1425  -21.1533  -14.8914 N   0  0  0  0  0  0  0  0  0  0  0  0
   23.9674  -20.8007  -14.0773 C   0  0  0  0  0  0  0  0  0  0  0  0
   23.7088  -19.6731  -14.5694 O   0  0  0  0  0  0  0  0  0  0  0  0
   23.7833  -19.9530  -11.2556 C   0  0  0  0  0  0  0  0  0  0  0  0
   23.0477  -20.1061  -10.0836 C   0  0  0  0  0  0  0  0  0  0  0  0
   21.8260  -22.1126  -16.6854 C   0  0  0  0  0  0  0  0  0  0  0  0
   21.0179  -22.3002  -15.4192 C   0  0  1  0  0  0  0  0  0  0  0  0
   21.0371  -23.6225  -15.0368 O   0  0  0  0  0  0  0  0  0  0  0  0
   21.5114  -21.3547  -14.3548 C   0  0  2  0  0  0  0  0  0  0  0  0
   22.8553  -21.6730  -13.9163 N   0  0  0  0  0  0  0  0  0  0  0  0
   20.6431  -21.3469  -13.1606 C   0  0  0  0  0  0  0  0  0  0  0  0
   19.3241  -20.9495  -13.2101 O   0  0  0  0  0  0  0  0  0  0  0  0
   21.1220  -21.7140  -12.0664 O   0  0  0  0  0  0  0  0  0  0  0  0
  1  2  1  0
  3  2  1  0
  4  3  1  0
  4  5  1  0
  5  1  1  0
  5  6  1  1
  6 15  1  0
  6  7  2  0
  8  9  1  0
  9 10  2  0
 10 11  1  0
 12 11  2  0
 12 13  1  0
 14 13  1  1
 14 16  1  0
 15 14  1  0
 16 17  2  0
 18 12  1  0
 19  9  1  0
 19 18  2  0
 21 20  1  6
 21 23  1  0
 22 21  1  0
 23 25  1  0
 23 24  1  1
 24 16  1  0
 25 26  1  0
 27 25  2  0
M  END
$$$$
