PYT.pdb
     RDKit          3D

 27 28  0  0  1  0  0  0  0  0999 V2000
   28.4453  -21.1204  -17.6477 N   0  0  0  0  0  0  0  0  0  0  0  0
   29.6736  -21.2810  -18.4602 C   0  0  0  0  0  0  0  0  0  0  0  0
   30.5554  -22.0355  -17.5022 C   0  0  0  0  0  0  0  0  0  0  0  0
   29.6382  -22.9428  -16.7415 C   0  0  0  0  0  0  0  0  0  0  0  0
   28.2630  -22.4327  -17.0514 C   0  0  1  0  0  0  0  0  0  0  0  0
   27.3745  -22.3349  -15.9023 C   0  0  0  0  0  0  0  0  0  0  0  0
   26.6082  -23.2913  -15.6002 O   0  0  0  0  0  0  0  0  0  0  0  0
   24.3163  -20.4563   -7.9034 O   0  0  0  0  0  0  0  0  0  0  0  0
   25.0179  -20.4026   -9.1210 C   0  0  0  0  0  0  0  0  0  0  0  0
   26.0881  -21.2440   -9.3316 C   0  0  0  0  0  0  0  0  0  0  0  0
   26.7773  -21.1997  -10.5124 C   0  0  0  0  0  0  0  0  0  0  0  0
   26.4237  -20.3286  -11.5005 C   0  0  0  0  0  0  0  0  0  0  0  0
   27.1384  -20.2354  -12.8094 C   0  0  0  0  0  0  0  0  0  0  0  0
   26.5429  -21.1296  -13.8512 C   0  0  2  0  0  0  0  0  0  0  0  0
   27.2998  -21.2121  -15.0690 N   0  0  0  0  0  0  0  0  0  0  0  0
   25.2082  -20.5812  -14.2056 C   0  0  0  0  0  0  0  0  0  0  0  0
   25.0861  -19.4857  -14.8102 O   0  0  0  0  0  0  0  0  0  0  0  0
   25.3546  -19.4857  -11.2944 C   0  0  0  0  0  0  0  0  0  0  0  0
   24.6475  -19.5239  -10.0957 C   0  0  0  0  0  0  0  0  0  0  0  0
   22.7437  -21.5598  -16.5598 C   0  0  0  0  0  0  0  0  0  0  0  0
   21.9813  -21.5973  -15.2526 C   0  0  1  0  0  0  0  0  0  0  0  0
   21.7971  -22.9006  -14.8491 O   0  0  0  0  0  0  0  0  0  0  0  0
   22.6804  -20.7397  -14.2298 C   0  0  2  0  0  0  0  0  0  0  0  0
   23.9932  -21.2497  -13.8891 N   0  0  0  0  0  0  0  0  0  0  0  0
   21.9108  -20.6168  -12.9757 C   0  0  0  0  0  0  0  0  0  0  0  0
   20.6687  -20.0210  -12.9278 O   0  0  0  0  0  0  0  0  0  0  0  0
   22.4040  -21.0694  -11.9206 O   0  0  0  0  0  0  0  0  0  0  0  0
  1  2  1  0
  3  2  1  0
  4  3  1  0
  4  5  1  0
  5  1  1  0
  5  6  1  1
  6 15  1  0
  6  7  2  0
  8  9  1  0
  9 10  2  0
 10 11  1  0
 12 11  2  0
 12 13  1  0
 14 13  1  1
 14 16  1  0
 15 14  1  0
 16 17  2  0
 18 12  1  0
 19  9  1  0
 19 18  2  0
 21 20  1  6
 21 23  1  0
 22 21  1  0
 23 25  1  0
 23 24  1  1
 24 16  1  0
 25 26  1  0
 27 25  2  0
M  END
$$$$
