PYT.pdb
     RDKit          3D

 27 28  0  0  1  0  0  0  0  0999 V2000
   27.5168  -19.1546  -13.8522 N   0  0  0  0  0  0  0  0  0  0  0  0
   28.9254  -18.8681  -14.2106 C   0  0  0  0  0  0  0  0  0  0  0  0
   29.6308  -20.0200  -13.5469 C   0  0  0  0  0  0  0  0  0  0  0  0
   28.7008  -21.1871  -13.6733 C   0  0  0  0  0  0  0  0  0  0  0  0
   27.3935  -20.5826  -14.0894 C   0  0  1  0  0  0  0  0  0  0  0  0
   26.2292  -21.1022  -13.3866 C   0  0  0  0  0  0  0  0  0  0  0  0
   25.9118  -22.3200  -13.4831 O   0  0  0  0  0  0  0  0  0  0  0  0
   28.7480  -20.5830   -7.3041 O   0  0  0  0  0  0  0  0  0  0  0  0
   27.5906  -20.4710   -8.0951 C   0  0  0  0  0  0  0  0  0  0  0  0
   26.7753  -19.3685   -7.9625 C   0  0  0  0  0  0  0  0  0  0  0  0
   25.6473  -19.2500   -8.7272 C   0  0  0  0  0  0  0  0  0  0  0  0
   25.3064  -20.2127   -9.6312 C   0  0  0  0  0  0  0  0  0  0  0  0
   24.0879  -20.1375  -10.4928 C   0  0  0  0  0  0  0  0  0  0  0  0
   24.2803  -20.8103  -11.8156 C   0  0  2  0  0  0  0  0  0  0  0  0
   25.3962  -20.3213  -12.5762 N   0  0  0  0  0  0  0  0  0  0  0  0
   23.0603  -20.5645  -12.6273 C   0  0  0  0  0  0  0  0  0  0  0  0
   22.8837  -19.4802  -13.2386 O   0  0  0  0  0  0  0  0  0  0  0  0
   26.1184  -21.3164   -9.7671 C   0  0  0  0  0  0  0  0  0  0  0  0
   27.2684  -21.4453   -8.9931 C   0  0  0  0  0  0  0  0  0  0  0  0
   21.9173  -22.2519  -15.6534 C   0  0  0  0  0  0  0  0  0  0  0  0
   20.7622  -22.3965  -14.6859 C   0  0  1  0  0  0  0  0  0  0  0  0
   20.7130  -23.6820  -14.1959 O   0  0  0  0  0  0  0  0  0  0  0  0
   20.8608  -21.3429  -13.6131 C   0  0  2  0  0  0  0  0  0  0  0  0
   22.0221  -21.5270  -12.7663 N   0  0  0  0  0  0  0  0  0  0  0  0
   19.6714  -21.3153  -12.7386 C   0  0  0  0  0  0  0  0  0  0  0  0
   18.4114  -21.0244  -13.2159 O   0  0  0  0  0  0  0  0  0  0  0  0
   19.8133  -21.5646  -11.5224 O   0  0  0  0  0  0  0  0  0  0  0  0
  1  2  1  0
  3  2  1  0
  4  3  1  0
  4  5  1  0
  5  1  1  0
  5  6  1  1
  6 15  1  0
  6  7  2  0
  8  9  1  0
  9 10  2  0
 10 11  1  0
 12 11  2  0
 12 13  1  0
 14 13  1  1
 14 16  1  0
 15 14  1  0
 16 17  2  0
 18 12  1  0
 19  9  1  0
 19 18  2  0
 21 20  1  6
 21 23  1  0
 22 21  1  0
 23 25  1  0
 23 24  1  1
 24 16  1  0
 25 26  1  0
 27 25  2  0
M  END
$$$$
