PYT.pdb
     RDKit          3D

 27 28  0  0  1  0  0  0  0  0999 V2000
   28.1778  -21.0061  -17.3903 N   0  0  0  0  0  0  0  0  0  0  0  0
   29.3484  -21.1526  -18.2863 C   0  0  0  0  0  0  0  0  0  0  0  0
   30.1870  -22.1288  -17.5062 C   0  0  0  0  0  0  0  0  0  0  0  0
   29.2139  -23.0533  -16.8419 C   0  0  0  0  0  0  0  0  0  0  0  0
   27.8866  -22.3725  -16.9918 C   0  0  1  0  0  0  0  0  0  0  0  0
   27.0611  -22.3729  -15.7926 C   0  0  0  0  0  0  0  0  0  0  0  0
   26.5300  -23.4407  -15.3793 O   0  0  0  0  0  0  0  0  0  0  0  0
   23.6460  -20.7964   -7.9015 O   0  0  0  0  0  0  0  0  0  0  0  0
   24.3596  -20.6747   -9.1073 C   0  0  0  0  0  0  0  0  0  0  0  0
   23.8179  -19.9612  -10.1538 C   0  0  0  0  0  0  0  0  0  0  0  0
   24.5038  -19.8369  -11.3308 C   0  0  0  0  0  0  0  0  0  0  0  0
   25.7298  -20.4117  -11.4942 C   0  0  0  0  0  0  0  0  0  0  0  0
   26.5246  -20.3097  -12.7554 C   0  0  0  0  0  0  0  0  0  0  0  0
   25.9912  -21.1917  -13.8403 C   0  0  2  0  0  0  0  0  0  0  0  0
   26.7980  -21.2298  -15.0279 N   0  0  0  0  0  0  0  0  0  0  0  0
   24.6601  -20.6632  -14.2364 C   0  0  0  0  0  0  0  0  0  0  0  0
   24.5323  -19.5288  -14.7630 O   0  0  0  0  0  0  0  0  0  0  0  0
   26.2751  -21.1257  -10.4508 C   0  0  0  0  0  0  0  0  0  0  0  0
   25.5842  -21.2574   -9.2493 C   0  0  0  0  0  0  0  0  0  0  0  0
   22.4622  -21.4969  -16.8628 C   0  0  0  0  0  0  0  0  0  0  0  0
   21.6094  -21.7278  -15.6336 C   0  0  1  0  0  0  0  0  0  0  0  0
   21.5086  -23.0760  -15.3737 O   0  0  0  0  0  0  0  0  0  0  0  0
   22.1527  -20.9273  -14.4784 C   0  0  2  0  0  0  0  0  0  0  0  0
   23.4550  -21.3954  -14.0490 N   0  0  0  0  0  0  0  0  0  0  0  0
   21.2593  -20.9552  -13.3032 C   0  0  0  0  0  0  0  0  0  0  0  0
   19.9690  -20.4723  -13.3458 O   0  0  0  0  0  0  0  0  0  0  0  0
   21.6894  -21.4339  -12.2320 O   0  0  0  0  0  0  0  0  0  0  0  0
  1  2  1  0
  3  2  1  0
  4  3  1  0
  4  5  1  0
  5  1  1  0
  5  6  1  1
  6 15  1  0
  6  7  2  0
  8  9  1  0
  9 10  2  0
 10 11  1  0
 12 11  2  0
 12 13  1  0
 14 13  1  1
 14 16  1  0
 15 14  1  0
 16 17  2  0
 18 12  1  0
 19  9  1  0
 19 18  2  0
 21 20  1  6
 21 23  1  0
 22 21  1  0
 23 25  1  0
 23 24  1  1
 24 16  1  0
 25 26  1  0
 27 25  2  0
M  END
$$$$
