PYT.pdb
     RDKit          3D

 27 28  0  0  1  0  0  0  0  0999 V2000
   27.2347  -19.8024  -16.8648 N   0  0  0  0  0  0  0  0  0  0  0  0
   28.4598  -20.6336  -16.8089 C   0  0  0  0  0  0  0  0  0  0  0  0
   28.4751  -21.0256  -15.3560 C   0  0  0  0  0  0  0  0  0  0  0  0
   27.0378  -21.1943  -14.9703 C   0  0  0  0  0  0  0  0  0  0  0  0
   26.2705  -20.5732  -16.0986 C   0  0  1  0  0  0  0  0  0  0  0  0
   25.1667  -19.7172  -15.6883 C   0  0  0  0  0  0  0  0  0  0  0  0
   25.3887  -18.6011  -15.1421 O   0  0  0  0  0  0  0  0  0  0  0  0
   25.1301  -14.7957  -19.4233 O   0  0  0  0  0  0  0  0  0  0  0  0
   24.3491  -15.7447  -18.7398 C   0  0  0  0  0  0  0  0  0  0  0  0
   24.3931  -17.0682  -19.1194 C   0  0  0  0  0  0  0  0  0  0  0  0
   23.6373  -17.9991  -18.4611 C   0  0  0  0  0  0  0  0  0  0  0  0
   22.8293  -17.6415  -17.4222 C   0  0  0  0  0  0  0  0  0  0  0  0
   21.9822  -18.6133  -16.6667 C   0  0  0  0  0  0  0  0  0  0  0  0
   22.7037  -19.2168  -15.5028 C   0  0  2  0  0  0  0  0  0  0  0  0
   23.8176  -20.0504  -15.8595 N   0  0  0  0  0  0  0  0  0  0  0  0
   21.7369  -20.0742  -14.7693 C   0  0  0  0  0  0  0  0  0  0  0  0
   21.5589  -21.2795  -15.0793 O   0  0  0  0  0  0  0  0  0  0  0  0
   22.7821  -16.3198  -17.0393 C   0  0  0  0  0  0  0  0  0  0  0  0
   23.5479  -15.3655  -17.7036 C   0  0  0  0  0  0  0  0  0  0  0  0
   21.3847  -19.9294  -10.7813 C   0  0  0  0  0  0  0  0  0  0  0  0
   20.0197  -19.9285  -11.4355 C   0  0  1  0  0  0  0  0  0  0  0  0
   19.4531  -18.6769  -11.3474 O   0  0  0  0  0  0  0  0  0  0  0  0
   20.1303  -20.4452  -12.8466 C   0  0  2  0  0  0  0  0  0  0  0  0
   20.9568  -19.5958  -13.6803 N   0  0  0  0  0  0  0  0  0  0  0  0
   18.8151  -20.5725  -13.5056 C   0  0  0  0  0  0  0  0  0  0  0  0
   17.8744  -21.4958  -13.1026 O   0  0  0  0  0  0  0  0  0  0  0  0
   18.5463  -19.8155  -14.4627 O   0  0  0  0  0  0  0  0  0  0  0  0
  1  2  1  0
  3  2  1  0
  4  3  1  0
  4  5  1  0
  5  1  1  0
  5  6  1  1
  6 15  1  0
  6  7  2  0
  8  9  1  0
  9 10  2  0
 10 11  1  0
 12 11  2  0
 12 13  1  0
 14 13  1  6
 14 16  1  0
 15 14  1  0
 16 17  2  0
 18 12  1  0
 19  9  1  0
 19 18  2  0
 21 20  1  6
 21 23  1  0
 22 21  1  0
 23 25  1  0
 23 24  1  6
 24 16  1  0
 25 26  1  0
 27 25  2  0
M  END
$$$$
