PYT.pdb
     RDKit          3D

 27 28  0  0  1  0  0  0  0  0999 V2000
   27.1652  -18.8403  -18.0710 N   0  0  0  0  0  0  0  0  0  0  0  0
   28.1355  -18.3078  -19.0557 C   0  0  0  0  0  0  0  0  0  0  0  0
   29.4398  -18.6911  -18.4102 C   0  0  0  0  0  0  0  0  0  0  0  0
   29.1879  -20.0106  -17.7482 C   0  0  0  0  0  0  0  0  0  0  0  0
   27.6957  -20.1551  -17.7538 C   0  0  1  0  0  0  0  0  0  0  0  0
   27.1233  -20.6308  -16.5025 C   0  0  0  0  0  0  0  0  0  0  0  0
   27.1756  -21.8544  -16.1970 O   0  0  0  0  0  0  0  0  0  0  0  0
   23.9917  -21.4113   -8.3571 O   0  0  0  0  0  0  0  0  0  0  0  0
   24.5717  -20.9259   -9.5427 C   0  0  0  0  0  0  0  0  0  0  0  0
   25.8216  -21.3636   -9.9220 C   0  0  0  0  0  0  0  0  0  0  0  0
   26.3946  -20.8976  -11.0735 C   0  0  0  0  0  0  0  0  0  0  0  0
   25.7470  -19.9962  -11.8661 C   0  0  0  0  0  0  0  0  0  0  0  0
   26.3226  -19.4526  -13.1334 C   0  0  0  0  0  0  0  0  0  0  0  0
   25.8978  -20.2351  -14.3363 C   0  0  2  0  0  0  0  0  0  0  0  0
   26.4906  -19.7999  -15.5700 N   0  0  0  0  0  0  0  0  0  0  0  0
   24.4276  -20.0756  -14.4808 C   0  0  0  0  0  0  0  0  0  0  0  0
   23.9042  -18.9508  -14.6836 O   0  0  0  0  0  0  0  0  0  0  0  0
   24.4976  -19.5559  -11.4909 C   0  0  0  0  0  0  0  0  0  0  0  0
   23.9067  -20.0248  -10.3207 C   0  0  0  0  0  0  0  0  0  0  0  0
   22.1362  -21.7887  -16.9410 C   0  0  0  0  0  0  0  0  0  0  0  0
   21.5532  -22.0537  -15.5694 C   0  0  1  0  0  0  0  0  0  0  0  0
   21.7776  -23.3619  -15.2042 O   0  0  0  0  0  0  0  0  0  0  0  0
   22.0915  -21.0490  -14.5839 C   0  0  2  0  0  0  0  0  0  0  0  0
   23.5237  -21.1711  -14.4006 N   0  0  0  0  0  0  0  0  0  0  0  0
   21.4602  -21.1688  -13.2545 C   0  0  0  0  0  0  0  0  0  0  0  0
   22.1469  -21.6259  -12.1502 O   0  0  0  0  0  0  0  0  0  0  0  0
   20.2603  -20.8439  -13.1271 O   0  0  0  0  0  0  0  0  0  0  0  0
  1  2  1  0
  3  2  1  0
  4  3  1  0
  4  5  1  0
  5  1  1  0
  5  6  1  1
  6 15  1  0
  6  7  2  0
  8  9  1  0
  9 10  2  0
 10 11  1  0
 12 11  2  0
 12 13  1  0
 14 13  1  1
 14 16  1  0
 15 14  1  0
 16 17  2  0
 18 12  1  0
 19  9  1  0
 19 18  2  0
 21 20  1  6
 21 23  1  0
 22 21  1  0
 23 25  1  0
 23 24  1  1
 24 16  1  0
 25 26  1  0
 27 25  2  0
M  END
$$$$
