PYT.pdb
     RDKit          3D

 27 28  0  0  1  0  0  0  0  0999 V2000
   16.6497  -18.5484    3.6945 N   0  0  0  0  0  0  0  0  0  0  0  0
   15.3997  -19.2784    3.3792 C   0  0  0  0  0  0  0  0  0  0  0  0
   14.7897  -19.4087    4.7487 C   0  0  0  0  0  0  0  0  0  0  0  0
   15.1499  -18.1469    5.4707 C   0  0  0  0  0  0  0  0  0  0  0  0
   16.2124  -17.5177    4.6205 C   0  0  1  0  0  0  0  0  0  0  0  0
   17.3553  -16.9971    5.3569 C   0  0  0  0  0  0  0  0  0  0  0  0
   18.5322  -17.2404    4.9713 O   0  0  0  0  0  0  0  0  0  0  0  0
   22.0354  -10.4358    6.4911 O   0  0  0  0  0  0  0  0  0  0  0  0
   21.0445  -11.3816    6.8093 C   0  0  0  0  0  0  0  0  0  0  0  0
   21.1476  -12.1164    7.9699 C   0  0  0  0  0  0  0  0  0  0  0  0
   20.1892  -13.0390    8.2886 C   0  0  0  0  0  0  0  0  0  0  0  0
   19.1181  -13.2510    7.4713 C   0  0  0  0  0  0  0  0  0  0  0  0
   18.0415  -14.2440    7.7672 C   0  0  0  0  0  0  0  0  0  0  0  0
   18.3426  -15.5982    7.2061 C   0  0  2  0  0  0  0  0  0  0  0  0
   17.2458  -16.2128    6.5116 N   0  0  0  0  0  0  0  0  0  0  0  0
   18.6907  -16.4893    8.3431 C   0  0  0  0  0  0  0  0  0  0  0  0
   17.8145  -17.1582    8.9474 O   0  0  0  0  0  0  0  0  0  0  0  0
   19.0109  -12.5188    6.3102 C   0  0  0  0  0  0  0  0  0  0  0  0
   19.9817  -11.5778    5.9778 C   0  0  0  0  0  0  0  0  0  0  0  0
   21.6427  -19.1528    8.4676 C   0  0  0  0  0  0  0  0  0  0  0  0
   21.7379  -18.1977    9.6381 C   0  0  1  0  0  0  0  0  0  0  0  0
   22.7552  -17.2938    9.4302 O   0  0  0  0  0  0  0  0  0  0  0  0
   20.3971  -17.5549    9.8820 C   0  0  2  0  0  0  0  0  0  0  0  0
   20.0222  -16.6441    8.8191 N   0  0  0  0  0  0  0  0  0  0  0  0
   20.3555  -16.8006   11.1506 C   0  0  0  0  0  0  0  0  0  0  0  0
   20.4942  -17.4128   12.3778 O   0  0  0  0  0  0  0  0  0  0  0  0
   20.1885  -15.5628   11.1091 O   0  0  0  0  0  0  0  0  0  0  0  0
  1  2  1  0
  3  2  1  0
  4  3  1  0
  4  5  1  0
  5  1  1  0
  5  6  1  1
  6 15  1  0
  6  7  2  0
  8  9  1  0
  9 10  2  0
 10 11  1  0
 12 11  2  0
 12 13  1  0
 14 13  1  1
 14 16  1  0
 15 14  1  0
 16 17  2  0
 18 12  1  0
 19  9  1  0
 19 18  2  0
 21 20  1  6
 21 23  1  0
 22 21  1  0
 23 25  1  0
 23 24  1  6
 24 16  1  0
 25 26  1  0
 27 25  2  0
M  END
$$$$
