PYT.pdb
     RDKit          3D

 27 28  0  0  1  0  0  0  0  0999 V2000
   27.6580  -20.5002  -15.4897 N   0  0  0  0  0  0  0  0  0  0  0  0
   28.2177  -20.1639  -16.8195 C   0  0  0  0  0  0  0  0  0  0  0  0
   27.5977  -18.8138  -17.0592 C   0  0  0  0  0  0  0  0  0  0  0  0
   27.5375  -18.1551  -15.7155 C   0  0  0  0  0  0  0  0  0  0  0  0
   27.8032  -19.2633  -14.7415 C   0  0  1  0  0  0  0  0  0  0  0  0
   26.9238  -19.2807  -13.5813 C   0  0  0  0  0  0  0  0  0  0  0  0
   26.7578  -18.2404  -12.8861 O   0  0  0  0  0  0  0  0  0  0  0  0
   20.5512  -19.0799  -16.3325 O   0  0  0  0  0  0  0  0  0  0  0  0
   21.4138  -19.6335  -15.3696 C   0  0  0  0  0  0  0  0  0  0  0  0
   21.2376  -19.3292  -14.0376 C   0  0  0  0  0  0  0  0  0  0  0  0
   22.0712  -19.8625  -13.0931 C   0  0  0  0  0  0  0  0  0  0  0  0
   23.0877  -20.7008  -13.4453 C   0  0  0  0  0  0  0  0  0  0  0  0
   24.0286  -21.3125  -12.4588 C   0  0  0  0  0  0  0  0  0  0  0  0
   25.1920  -20.4232  -12.1507 C   0  0  2  0  0  0  0  0  0  0  0  0
   26.2166  -20.4122  -13.1572 N   0  0  0  0  0  0  0  0  0  0  0  0
   25.8188  -20.9197  -10.8983 C   0  0  0  0  0  0  0  0  0  0  0  0
   26.6211  -21.8876  -10.9025 O   0  0  0  0  0  0  0  0  0  0  0  0
   23.2675  -21.0077  -14.7755 C   0  0  0  0  0  0  0  0  0  0  0  0
   22.4240  -20.4696  -15.7435 C   0  0  0  0  0  0  0  0  0  0  0  0
   26.5907  -18.4826   -7.6449 C   0  0  0  0  0  0  0  0  0  0  0  0
   27.2109  -19.8432   -7.8804 C   0  0  1  0  0  0  0  0  0  0  0  0
   27.8465  -20.2778   -6.7391 O   0  0  0  0  0  0  0  0  0  0  0  0
   26.1643  -20.7989   -8.3920 C   0  0  2  0  0  0  0  0  0  0  0  0
   25.5572  -20.3411   -9.6254 N   0  0  0  0  0  0  0  0  0  0  0  0
   25.0785  -21.0214   -7.4165 C   0  0  0  0  0  0  0  0  0  0  0  0
   23.7473  -20.9108   -7.7565 O   0  0  0  0  0  0  0  0  0  0  0  0
   25.3782  -21.3206   -6.2408 O   0  0  0  0  0  0  0  0  0  0  0  0
  1  2  1  0
  3  2  1  0
  4  3  1  0
  4  5  1  0
  5  1  1  0
  5  6  1  1
  6 15  1  0
  6  7  2  0
  8  9  1  0
  9 10  2  0
 10 11  1  0
 12 11  2  0
 12 13  1  0
 14 13  1  6
 14 16  1  0
 15 14  1  0
 16 17  2  0
 18 12  1  0
 19  9  1  0
 19 18  2  0
 21 20  1  1
 21 23  1  0
 22 21  1  0
 23 25  1  0
 23 24  1  6
 24 16  1  0
 25 26  1  0
 27 25  2  0
M  END
$$$$
