TGA.pdb
     RDKit          3D

 17 16  0  0  1  0  0  0  0  0999 V2000
   10.5071  -14.3208   18.1226 C   0  0  0  0  0  0  0  0  0  0  0  0
    9.8871  -14.4225   19.4911 C   0  0  1  0  0  0  0  0  0  0  0  0
   10.5662  -13.4839   20.3023 O   0  0  0  0  0  0  0  0  0  0  0  0
    8.4319  -14.0044   19.5037 C   0  0  2  0  0  0  0  0  0  0  0  0
    8.3621  -12.7048   18.8615 N   0  0  0  0  0  0  0  0  0  0  0  0
    7.8527  -13.9925   20.8591 C   0  0  0  0  0  0  0  0  0  0  0  0
    7.5361  -12.8770   21.3449 O   0  0  0  0  0  0  0  0  0  0  0  0
    7.6289  -15.1466   21.6495 N   0  0  0  0  0  0  0  0  0  0  0  0
    7.0699  -15.1528   22.9559 C   0  0  0  0  0  0  0  0  0  0  0  0
    7.8993  -14.4993   23.9771 C   0  0  0  0  0  0  0  0  0  0  0  0
    9.1220  -14.3177   23.7549 O   0  0  0  0  0  0  0  0  0  0  0  0
    7.2106  -12.4773   27.0516 C   0  0  0  0  0  0  0  0  0  0  0  0
    8.1583  -13.3423   26.2094 C   0  0  2  0  0  0  0  0  0  0  0  0
    7.3705  -14.0597   25.2181 N   0  0  0  0  0  0  0  0  0  0  0  0
    8.7512  -14.3332   27.1342 C   0  0  0  0  0  0  0  0  0  0  0  0
    8.4813  -15.6835   26.9419 O   0  0  0  0  0  0  0  0  0  0  0  0
    9.4854  -13.9981   28.0811 O   0  0  0  0  0  0  0  0  0  0  0  0
  2  1  1  6
  2  3  1  0
  4  6  1  0
  4  2  1  0
  4  5  1  1
  6  7  2  0
  8  6  1  0
  8  9  1  0
 10 14  1  0
 10  9  1  0
 11 10  2  0
 13 14  1  0
 13 12  1  1
 15 13  1  0
 16 15  1  0
 17 15  2  0
M  END
$$$$
