TGA.pdb
     RDKit          3D

 17 16  0  0  1  0  0  0  0  0999 V2000
    7.8052  -12.6356   19.9866 C   0  0  0  0  0  0  0  0  0  0  0  0
    7.7123  -14.1336   19.8653 C   0  0  1  0  0  0  0  0  0  0  0  0
    8.1982  -14.4556   18.5767 O   0  0  0  0  0  0  0  0  0  0  0  0
    8.6180  -14.8543   20.8414 C   0  0  2  0  0  0  0  0  0  0  0  0
    8.5134  -16.2711   20.5447 N   0  0  0  0  0  0  0  0  0  0  0  0
    8.2991  -14.5503   22.2480 C   0  0  0  0  0  0  0  0  0  0  0  0
    8.5277  -13.3831   22.6554 O   0  0  0  0  0  0  0  0  0  0  0  0
    7.7549  -15.4787   23.1693 N   0  0  0  0  0  0  0  0  0  0  0  0
    7.5349  -15.2329   24.5515 C   0  0  0  0  0  0  0  0  0  0  0  0
    8.7608  -15.0921   25.3484 C   0  0  0  0  0  0  0  0  0  0  0  0
    9.8732  -15.3302   24.8161 O   0  0  0  0  0  0  0  0  0  0  0  0
    9.6916  -13.5218   28.6107 C   0  0  0  0  0  0  0  0  0  0  0  0
    9.9417  -14.5748   27.5225 C   0  0  2  0  0  0  0  0  0  0  0  0
    8.7402  -14.6938   26.7100 N   0  0  0  0  0  0  0  0  0  0  0  0
   10.1533  -15.8592   28.2258 C   0  0  0  0  0  0  0  0  0  0  0  0
   11.3299  -16.0525   28.9408 O   0  0  0  0  0  0  0  0  0  0  0  0
    9.3113  -16.7749   28.1991 O   0  0  0  0  0  0  0  0  0  0  0  0
  2  1  1  1
  2  3  1  0
  4  6  1  0
  4  2  1  0
  4  5  1  1
  6  7  2  0
  8  6  1  0
  8  9  1  0
 10 14  1  0
 10  9  1  0
 11 10  2  0
 13 14  1  0
 13 12  1  1
 15 13  1  0
 16 15  1  0
 17 15  2  0
M  END
$$$$
