TGA.pdb
     RDKit          3D

 17 16  0  0  1  0  0  0  0  0999 V2000
    8.4275  -12.5832   19.2034 C   0  0  0  0  0  0  0  0  0  0  0  0
    8.1573  -13.9390   18.6066 C   0  0  1  0  0  0  0  0  0  0  0  0
    9.1215  -14.1205   17.5879 O   0  0  0  0  0  0  0  0  0  0  0  0
    8.3810  -15.0651   19.5937 C   0  0  2  0  0  0  0  0  0  0  0  0
    8.2381  -16.3063   18.8553 N   0  0  0  0  0  0  0  0  0  0  0  0
    7.4757  -14.9953   20.7548 C   0  0  0  0  0  0  0  0  0  0  0  0
    6.3087  -15.4391   20.6079 O   0  0  0  0  0  0  0  0  0  0  0  0
    7.8281  -14.4646   22.0201 N   0  0  0  0  0  0  0  0  0  0  0  0
    6.9904  -14.4500   23.1679 C   0  0  0  0  0  0  0  0  0  0  0  0
    7.5903  -13.8218   24.3525 C   0  0  0  0  0  0  0  0  0  0  0  0
    8.8352  -13.6636   24.4030 O   0  0  0  0  0  0  0  0  0  0  0  0
    6.2328  -12.1283   27.4509 C   0  0  0  0  0  0  0  0  0  0  0  0
    7.3813  -12.6975   26.6067 C   0  0  2  0  0  0  0  0  0  0  0  0
    6.8128  -13.3811   25.4545 N   0  0  0  0  0  0  0  0  0  0  0  0
    8.0613  -13.7034   27.4520 C   0  0  0  0  0  0  0  0  0  0  0  0
    9.0060  -13.2794   28.3798 O   0  0  0  0  0  0  0  0  0  0  0  0
    7.8157  -14.9197   27.3605 O   0  0  0  0  0  0  0  0  0  0  0  0
  2  1  1  1
  2  3  1  0
  4  6  1  0
  4  2  1  0
  4  5  1  6
  6  7  2  0
  8  6  1  0
  8  9  1  0
 10 14  1  0
 10  9  1  0
 11 10  2  0
 13 14  1  0
 13 12  1  1
 15 13  1  0
 16 15  1  0
 17 15  2  0
M  END
$$$$
