TGA.pdb
     RDKit          3D

 17 16  0  0  1  0  0  0  0  0999 V2000
    8.4809  -12.5278   20.5386 C   0  0  0  0  0  0  0  0  0  0  0  0
    7.7838  -13.6480   19.8128 C   0  0  1  0  0  0  0  0  0  0  0  0
    8.3753  -13.7146   18.5298 O   0  0  0  0  0  0  0  0  0  0  0  0
    8.0293  -14.9982   20.4524 C   0  0  2  0  0  0  0  0  0  0  0  0
    7.3641  -15.9845   19.6211 N   0  0  0  0  0  0  0  0  0  0  0  0
    7.5835  -15.0548   21.8563 C   0  0  0  0  0  0  0  0  0  0  0  0
    6.3495  -14.9601   22.0773 O   0  0  0  0  0  0  0  0  0  0  0  0
    8.4459  -15.2081   22.9696 N   0  0  0  0  0  0  0  0  0  0  0  0
    8.0450  -15.1658   24.3323 C   0  0  0  0  0  0  0  0  0  0  0  0
    9.1423  -14.9469   25.2840 C   0  0  0  0  0  0  0  0  0  0  0  0
   10.3235  -15.1832   24.9286 O   0  0  0  0  0  0  0  0  0  0  0  0
    9.4789  -13.2492   28.6230 C   0  0  0  0  0  0  0  0  0  0  0  0
    9.9978  -14.2118   27.5461 C   0  0  2  0  0  0  0  0  0  0  0  0
    8.9206  -14.4743   26.6034 N   0  0  0  0  0  0  0  0  0  0  0  0
   10.3236  -15.4773   28.2399 C   0  0  0  0  0  0  0  0  0  0  0  0
   11.4883  -15.5535   28.9953 O   0  0  0  0  0  0  0  0  0  0  0  0
    9.5884  -16.4786   28.1700 O   0  0  0  0  0  0  0  0  0  0  0  0
  2  1  1  1
  2  3  1  0
  4  6  1  0
  4  2  1  0
  4  5  1  6
  6  7  2  0
  8  6  1  0
  8  9  1  0
 10 14  1  0
 10  9  1  0
 11 10  2  0
 13 14  1  0
 13 12  1  1
 15 13  1  0
 16 15  1  0
 17 15  2  0
M  END
$$$$
