TGA.pdb
     RDKit          3D

 17 16  0  0  1  0  0  0  0  0999 V2000
    9.7433  -18.0877   18.8230 C   0  0  0  0  0  0  0  0  0  0  0  0
    9.2494  -18.0570   20.2452 C   0  0  1  0  0  0  0  0  0  0  0  0
    9.1506  -19.4064   20.6573 O   0  0  0  0  0  0  0  0  0  0  0  0
   10.2370  -17.4066   21.1908 C   0  0  2  0  0  0  0  0  0  0  0  0
   11.4319  -18.2302   21.1828 N   0  0  0  0  0  0  0  0  0  0  0  0
    9.6917  -17.2216   22.5477 C   0  0  0  0  0  0  0  0  0  0  0  0
    9.9606  -18.1003   23.4057 O   0  0  0  0  0  0  0  0  0  0  0  0
    8.8887  -16.1264   22.9507 N   0  0  0  0  0  0  0  0  0  0  0  0
    8.3658  -15.9267   24.2568 C   0  0  0  0  0  0  0  0  0  0  0  0
    9.3306  -15.3865   25.2238 C   0  0  0  0  0  0  0  0  0  0  0  0
   10.5490  -15.3451   24.9218 O   0  0  0  0  0  0  0  0  0  0  0  0
    9.0486  -13.0515   28.0636 C   0  0  0  0  0  0  0  0  0  0  0  0
    9.8372  -14.1810   27.3869 C   0  0  2  0  0  0  0  0  0  0  0  0
    8.9388  -14.9041   26.4992 N   0  0  0  0  0  0  0  0  0  0  0  0
   10.2590  -15.1002   28.4668 C   0  0  0  0  0  0  0  0  0  0  0  0
   11.2757  -14.7075   29.3300 O   0  0  0  0  0  0  0  0  0  0  0  0
    9.7331  -16.2160   28.6291 O   0  0  0  0  0  0  0  0  0  0  0  0
  2  1  1  6
  2  3  1  0
  4  6  1  0
  4  2  1  0
  4  5  1  1
  6  7  2  0
  8  6  1  0
  8  9  1  0
 10 14  1  0
 10  9  1  0
 11 10  2  0
 13 14  1  0
 13 12  1  1
 15 13  1  0
 16 15  1  0
 17 15  2  0
M  END
$$$$
