TGA.pdb
     RDKit          3D

 17 16  0  0  1  0  0  0  0  0999 V2000
    7.4605  -12.2294   19.2602 C   0  0  0  0  0  0  0  0  0  0  0  0
    7.7846  -13.4580   18.4521 C   0  0  1  0  0  0  0  0  0  0  0  0
    8.5840  -13.0191   17.3710 O   0  0  0  0  0  0  0  0  0  0  0  0
    8.6327  -14.4516   19.2175 C   0  0  2  0  0  0  0  0  0  0  0  0
    9.0791  -15.4480   18.2613 N   0  0  0  0  0  0  0  0  0  0  0  0
    7.9199  -15.0501   20.3605 C   0  0  0  0  0  0  0  0  0  0  0  0
    7.3143  -16.1340   20.1633 O   0  0  0  0  0  0  0  0  0  0  0  0
    7.8702  -14.4907   21.6610 N   0  0  0  0  0  0  0  0  0  0  0  0
    7.1561  -15.0339   22.7630 C   0  0  0  0  0  0  0  0  0  0  0  0
    7.9226  -15.9873   23.5760 C   0  0  0  0  0  0  0  0  0  0  0  0
    7.3893  -16.5014   24.5903 O   0  0  0  0  0  0  0  0  0  0  0  0
   11.0389  -17.9861   23.0283 C   0  0  0  0  0  0  0  0  0  0  0  0
    9.9856  -17.3927   23.9737 C   0  0  2  0  0  0  0  0  0  0  0  0
    9.2558  -16.3557   23.2596 N   0  0  0  0  0  0  0  0  0  0  0  0
   10.7312  -16.7544   25.0808 C   0  0  0  0  0  0  0  0  0  0  0  0
   10.6610  -15.3746   25.2359 O   0  0  0  0  0  0  0  0  0  0  0  0
   11.4211  -17.4127   25.8801 O   0  0  0  0  0  0  0  0  0  0  0  0
  2  1  1  1
  2  3  1  0
  4  6  1  0
  4  2  1  0
  4  5  1  6
  6  7  2  0
  8  6  1  0
  8  9  1  0
 10 14  1  0
 10  9  1  0
 11 10  2  0
 13 14  1  0
 13 12  1  6
 15 13  1  0
 16 15  1  0
 17 15  2  0
M  END
$$$$
