TGA.pdb
     RDKit          3D

 17 16  0  0  1  0  0  0  0  0999 V2000
    9.9283  -12.7301   19.9999 C   0  0  0  0  0  0  0  0  0  0  0  0
    9.1405  -13.4479   18.9361 C   0  0  1  0  0  0  0  0  0  0  0  0
   10.0399  -13.6815   17.8698 O   0  0  0  0  0  0  0  0  0  0  0  0
    8.6663  -14.8140   19.3846 C   0  0  2  0  0  0  0  0  0  0  0  0
    8.0016  -15.4229   18.2471 N   0  0  0  0  0  0  0  0  0  0  0  0
    7.7999  -14.7554   20.5757 C   0  0  0  0  0  0  0  0  0  0  0  0
    6.6877  -14.1816   20.4563 O   0  0  0  0  0  0  0  0  0  0  0  0
    8.1324  -15.2988   21.8410 N   0  0  0  0  0  0  0  0  0  0  0  0
    7.3125  -15.2445   23.0004 C   0  0  0  0  0  0  0  0  0  0  0  0
    7.7815  -14.3141   24.0358 C   0  0  0  0  0  0  0  0  0  0  0  0
    8.9826  -13.9471   24.0369 O   0  0  0  0  0  0  0  0  0  0  0  0
    6.1668  -12.4442   26.9065 C   0  0  0  0  0  0  0  0  0  0  0  0
    7.3884  -12.9514   26.1281 C   0  0  2  0  0  0  0  0  0  0  0  0
    6.9242  -13.8071   25.0462 N   0  0  0  0  0  0  0  0  0  0  0  0
    8.1690  -13.7815   27.0717 C   0  0  0  0  0  0  0  0  0  0  0  0
    8.9327  -13.1556   28.0505 O   0  0  0  0  0  0  0  0  0  0  0  0
    8.1651  -15.0246   27.0189 O   0  0  0  0  0  0  0  0  0  0  0  0
  2  1  1  1
  2  3  1  0
  4  6  1  0
  4  2  1  0
  4  5  1  6
  6  7  2  0
  8  6  1  0
  8  9  1  0
 10 14  1  0
 10  9  1  0
 11 10  2  0
 13 14  1  0
 13 12  1  1
 15 13  1  0
 16 15  1  0
 17 15  2  0
M  END
$$$$
