TGA.pdb
     RDKit          3D

 17 16  0  0  1  0  0  0  0  0999 V2000
   -7.7679  -28.6368   30.4208 C   0  0  0  0  0  0  0  0  0  0  0  0
   -6.4220  -29.2581   30.1563 C   0  0  1  0  0  0  0  0  0  0  0  0
   -6.6350  -30.6555   30.1108 O   0  0  0  0  0  0  0  0  0  0  0  0
   -5.8622  -28.8803   28.8012 C   0  0  2  0  0  0  0  0  0  0  0  0
   -4.6888  -29.7067   28.5856 N   0  0  0  0  0  0  0  0  0  0  0  0
   -5.5640  -27.4412   28.6873 C   0  0  0  0  0  0  0  0  0  0  0  0
   -4.5191  -27.0195   29.2448 O   0  0  0  0  0  0  0  0  0  0  0  0
   -6.3701  -26.5039   27.9956 N   0  0  0  0  0  0  0  0  0  0  0  0
   -6.1042  -25.1122   27.8876 C   0  0  0  0  0  0  0  0  0  0  0  0
   -6.6204  -24.3047   29.0008 C   0  0  0  0  0  0  0  0  0  0  0  0
   -7.3703  -24.8394   29.8548 O   0  0  0  0  0  0  0  0  0  0  0  0
   -6.0241  -20.7737   30.2316 C   0  0  0  0  0  0  0  0  0  0  0  0
   -6.7183  -22.1406   30.3032 C   0  0  2  0  0  0  0  0  0  0  0  0
   -6.3036  -22.9301   29.1531 N   0  0  0  0  0  0  0  0  0  0  0  0
   -8.1695  -21.8780   30.1848 C   0  0  0  0  0  0  0  0  0  0  0  0
   -8.8755  -21.4643   31.3087 O   0  0  0  0  0  0  0  0  0  0  0  0
   -8.7813  -22.0154   29.1101 O   0  0  0  0  0  0  0  0  0  0  0  0
  2  1  1  6
  2  3  1  0
  4  6  1  0
  4  2  1  0
  4  5  1  1
  6  7  2  0
  8  6  1  0
  8  9  1  0
 10 14  1  0
 10  9  1  0
 11 10  2  0
 13 14  1  0
 13 12  1  6
 15 13  1  0
 16 15  1  0
 17 15  2  0
M  END
$$$$
