TGA.pdb
     RDKit          3D

 17 16  0  0  1  0  0  0  0  0999 V2000
   -3.1227  -27.3218   26.5811 C   0  0  0  0  0  0  0  0  0  0  0  0
   -3.6126  -26.0031   26.0442 C   0  0  1  0  0  0  0  0  0  0  0  0
   -2.8634  -25.7523   24.8711 O   0  0  0  0  0  0  0  0  0  0  0  0
   -5.0614  -26.0543   25.6071 C   0  0  2  0  0  0  0  0  0  0  0  0
   -5.2941  -24.8815   24.7844 N   0  0  0  0  0  0  0  0  0  0  0  0
   -5.9979  -26.1385   26.7422 C   0  0  0  0  0  0  0  0  0  0  0  0
   -5.8452  -27.0888   27.5510 O   0  0  0  0  0  0  0  0  0  0  0  0
   -7.0543  -25.2262   26.9842 N   0  0  0  0  0  0  0  0  0  0  0  0
   -7.9644  -25.2920   28.0736 C   0  0  0  0  0  0  0  0  0  0  0  0
   -8.2920  -23.9919   28.6736 C   0  0  0  0  0  0  0  0  0  0  0  0
   -7.6485  -22.9716   28.3241 O   0  0  0  0  0  0  0  0  0  0  0  0
  -10.8585  -22.7700   31.1829 C   0  0  0  0  0  0  0  0  0  0  0  0
   -9.7241  -22.5467   30.1736 C   0  0  2  0  0  0  0  0  0  0  0  0
   -9.3171  -23.8392   29.6427 N   0  0  0  0  0  0  0  0  0  0  0  0
   -8.5900  -21.9833   30.9387 C   0  0  0  0  0  0  0  0  0  0  0  0
   -8.4702  -20.6027   31.0516 O   0  0  0  0  0  0  0  0  0  0  0  0
   -7.7373  -22.7053   31.4862 O   0  0  0  0  0  0  0  0  0  0  0  0
  2  1  1  6
  2  3  1  0
  4  6  1  0
  4  2  1  0
  4  5  1  1
  6  7  2  0
  8  6  1  0
  8  9  1  0
 10 14  1  0
 10  9  1  0
 11 10  2  0
 13 14  1  0
 13 12  1  1
 15 13  1  0
 16 15  1  0
 17 15  2  0
M  END
$$$$
