TGA.pdb
     RDKit          3D

 17 16  0  0  1  0  0  0  0  0999 V2000
    9.3417  -12.9584   17.9267 C   0  0  0  0  0  0  0  0  0  0  0  0
    8.5209  -13.1937   19.1670 C   0  0  1  0  0  0  0  0  0  0  0  0
    7.1701  -13.0241   18.7838 O   0  0  0  0  0  0  0  0  0  0  0  0
    8.6311  -14.6150   19.6773 C   0  0  2  0  0  0  0  0  0  0  0  0
    8.2778  -15.4872   18.5724 N   0  0  0  0  0  0  0  0  0  0  0  0
    7.8029  -14.8588   20.8720 C   0  0  0  0  0  0  0  0  0  0  0  0
    6.6061  -15.1973   20.6889 O   0  0  0  0  0  0  0  0  0  0  0  0
    8.2603  -14.7387   22.2073 N   0  0  0  0  0  0  0  0  0  0  0  0
    7.4758  -14.9707   23.3693 C   0  0  0  0  0  0  0  0  0  0  0  0
    7.8443  -14.1468   24.5282 C   0  0  0  0  0  0  0  0  0  0  0  0
    9.0330  -13.7631   24.6592 O   0  0  0  0  0  0  0  0  0  0  0  0
    5.9487  -12.5252   27.3751 C   0  0  0  0  0  0  0  0  0  0  0  0
    7.2457  -12.9345   26.6639 C   0  0  2  0  0  0  0  0  0  0  0  0
    6.9023  -13.7620   25.5170 N   0  0  0  0  0  0  0  0  0  0  0  0
    8.0031  -13.7669   27.6243 C   0  0  0  0  0  0  0  0  0  0  0  0
    8.6597  -13.1495   28.6830 O   0  0  0  0  0  0  0  0  0  0  0  0
    8.0726  -15.0045   27.5164 O   0  0  0  0  0  0  0  0  0  0  0  0
  2  1  1  6
  2  3  1  0
  4  6  1  0
  4  2  1  0
  4  5  1  6
  6  7  2  0
  8  6  1  0
  8  9  1  0
 10 14  1  0
 10  9  1  0
 11 10  2  0
 13 14  1  0
 13 12  1  1
 15 13  1  0
 16 15  1  0
 17 15  2  0
M  END
$$$$
