TGA.pdb
     RDKit          3D

 17 16  0  0  1  0  0  0  0  0999 V2000
    8.2055  -20.1978   19.7499 C   0  0  0  0  0  0  0  0  0  0  0  0
    8.7721  -19.3168   18.6681 C   0  0  1  0  0  0  0  0  0  0  0  0
    8.9367  -20.1436   17.5324 O   0  0  0  0  0  0  0  0  0  0  0  0
    7.8147  -18.2217   18.2476 C   0  0  2  0  0  0  0  0  0  0  0  0
    8.2964  -17.7060   16.9794 N   0  0  0  0  0  0  0  0  0  0  0  0
    7.6726  -17.1652   19.2657 C   0  0  0  0  0  0  0  0  0  0  0  0
    8.5470  -16.2624   19.2906 O   0  0  0  0  0  0  0  0  0  0  0  0
    6.6228  -17.0970   20.2144 N   0  0  0  0  0  0  0  0  0  0  0  0
    6.4936  -16.1096   21.2281 C   0  0  0  0  0  0  0  0  0  0  0  0
    7.4955  -16.2000   22.2985 C   0  0  0  0  0  0  0  0  0  0  0  0
    8.2882  -17.1740   22.3207 O   0  0  0  0  0  0  0  0  0  0  0  0
    8.5054  -13.9894   25.2081 C   0  0  0  0  0  0  0  0  0  0  0  0
    8.6669  -15.2282   24.3166 C   0  0  2  0  0  0  0  0  0  0  0  0
    7.6063  -15.2216   23.3200 N   0  0  0  0  0  0  0  0  0  0  0  0
    8.4690  -16.4025   25.1945 C   0  0  0  0  0  0  0  0  0  0  0  0
    9.5320  -16.8549   25.9681 O   0  0  0  0  0  0  0  0  0  0  0  0
    7.3803  -17.0007   25.2643 O   0  0  0  0  0  0  0  0  0  0  0  0
  2  1  1  1
  2  3  1  0
  4  6  1  0
  4  2  1  0
  4  5  1  6
  6  7  2  0
  8  6  1  0
  8  9  1  0
 10 14  1  0
 10  9  1  0
 11 10  2  0
 13 14  1  0
 13 12  1  1
 15 13  1  0
 16 15  1  0
 17 15  2  0
M  END
$$$$
