TGA.pdb
     RDKit          3D

 17 16  0  0  1  0  0  0  0  0999 V2000
    5.6426  -17.0782   21.3317 C   0  0  0  0  0  0  0  0  0  0  0  0
    6.6018  -17.7095   20.3576 C   0  0  1  0  0  0  0  0  0  0  0  0
    6.0097  -18.9296   19.9561 O   0  0  0  0  0  0  0  0  0  0  0  0
    6.7682  -16.8941   19.0927 C   0  0  2  0  0  0  0  0  0  0  0  0
    7.4193  -17.7534   18.1210 N   0  0  0  0  0  0  0  0  0  0  0  0
    7.5070  -15.6383   19.3156 C   0  0  0  0  0  0  0  0  0  0  0  0
    8.7601  -15.7078   19.3897 O   0  0  0  0  0  0  0  0  0  0  0  0
    6.9052  -14.3631   19.4515 N   0  0  0  0  0  0  0  0  0  0  0  0
    7.5997  -13.1480   19.6975 C   0  0  0  0  0  0  0  0  0  0  0  0
    8.1211  -13.0096   21.0637 C   0  0  0  0  0  0  0  0  0  0  0  0
    8.8231  -12.0105   21.3577 O   0  0  0  0  0  0  0  0  0  0  0  0
    7.3557  -14.2057   24.4387 C   0  0  0  0  0  0  0  0  0  0  0  0
    8.4495  -13.9006   23.4062 C   0  0  2  0  0  0  0  0  0  0  0  0
    7.8616  -13.9686   22.0767 N   0  0  0  0  0  0  0  0  0  0  0  0
    9.4496  -14.9844   23.5255 C   0  0  0  0  0  0  0  0  0  0  0  0
    9.5695  -15.9100   22.4951 O   0  0  0  0  0  0  0  0  0  0  0  0
   10.1892  -15.0958   24.5199 O   0  0  0  0  0  0  0  0  0  0  0  0
  2  1  1  1
  2  3  1  0
  4  6  1  0
  4  2  1  0
  4  5  1  6
  6  7  2  0
  8  6  1  0
  8  9  1  0
 10 14  1  0
 10  9  1  0
 11 10  2  0
 13 14  1  0
 13 12  1  1
 15 13  1  0
 16 15  1  0
 17 15  2  0
M  END
$$$$
