MIL.pdb
     RDKit          3D

 25 24  0  0  1  0  0  0  0  0999 V2000
    8.8321  -19.4248   29.2242 C   0  0  0  0  0  0  0  0  0  0  0  0
    7.5169  -20.0090   28.1568 S   0  0  0  0  0  0  0  0  0  0  0  0
    6.9459  -18.7274   27.0089 C   0  0  0  0  0  0  0  0  0  0  0  0
    6.5309  -19.4151   25.7035 C   0  0  0  0  0  0  0  0  0  0  0  0
    5.9575  -18.4224   24.7296 C   0  0  2  0  0  0  0  0  0  0  0  0
    5.5707  -19.0987   23.5334 N   0  0  0  0  0  0  0  0  0  0  0  0
    6.8321  -17.2934   24.4380 C   0  0  0  0  0  0  0  0  0  0  0  0
    7.6208  -17.3731   23.4625 O   0  0  0  0  0  0  0  0  0  0  0  0
    5.1380  -12.6105   26.3455 C   0  0  0  0  0  0  0  0  0  0  0  0
    5.7127  -13.5453   25.3300 C   0  0  0  0  0  0  0  0  0  0  0  0
    7.1875  -13.7498   25.5856 C   0  0  2  0  0  0  0  0  0  0  0  0
    7.9561  -12.4866   25.2701 C   0  0  0  0  0  0  0  0  0  0  0  0
    7.6932  -14.9393   24.8400 C   0  0  2  0  0  0  0  0  0  0  0  0
    6.8691  -16.0796   25.1825 N   0  0  0  0  0  0  0  0  0  0  0  0
    9.1371  -15.2062   25.1036 C   0  0  0  0  0  0  0  0  0  0  0  0
   10.0168  -14.5227   24.5201 O   0  0  0  0  0  0  0  0  0  0  0  0
   10.6284  -13.5054   28.3190 C   0  0  0  0  0  0  0  0  0  0  0  0
   10.2201  -14.9013   28.6117 C   0  0  2  0  0  0  0  0  0  0  0  0
   10.2615  -15.1061   30.1286 C   0  0  0  0  0  0  0  0  0  0  0  0
   10.9512  -16.0116   27.9607 C   0  0  0  0  0  0  0  0  0  0  0  0
   10.9756  -16.1406   26.4918 C   0  0  2  0  0  0  0  0  0  0  0  0
    9.5755  -16.2052   25.9908 N   0  0  0  0  0  0  0  0  0  0  0  0
   11.6702  -17.2736   25.8846 C   0  0  0  0  0  0  0  0  0  0  0  0
   12.8947  -17.5430   26.0155 O   0  0  0  0  0  0  0  0  0  0  0  0
   10.9290  -18.1565   25.0790 O   0  0  0  0  0  0  0  0  0  0  0  0
  1  2  1  0
  2  3  1  0
  3  4  1  0
  5  4  1  0
  5  6  1  6
  7  5  1  0
  8  7  2  0
 10 11  1  0
 10  9  1  0
 11 13  1  0
 11 12  1  6
 13 14  1  1
 14  7  1  0
 15 22  1  0
 15 13  1  0
 16 15  2  0
 18 19  1  1
 18 17  1  0
 21 20  1  1
 20 18  1  0
 21 22  1  0
 23 21  1  0
 24 23  2  0
 25 23  1  0
M  END
$$$$
