MIL.pdb
     RDKit          3D

 25 24  0  0  1  0  0  0  0  0999 V2000
    5.7840  -20.6437   24.3643 C   0  0  0  0  0  0  0  0  0  0  0  0
    5.8599  -20.4787   22.5817 S   0  0  0  0  0  0  0  0  0  0  0  0
    5.8476  -18.7446   22.0532 C   0  0  0  0  0  0  0  0  0  0  0  0
    6.9029  -17.9946   22.8735 C   0  0  0  0  0  0  0  0  0  0  0  0
    6.8703  -16.5206   22.5753 C   0  0  2  0  0  0  0  0  0  0  0  0
    7.1895  -16.3063   21.2005 N   0  0  0  0  0  0  0  0  0  0  0  0
    7.7162  -15.7131   23.4453 C   0  0  0  0  0  0  0  0  0  0  0  0
    8.8974  -15.4718   23.0894 O   0  0  0  0  0  0  0  0  0  0  0  0
    5.8064  -11.8117   26.5323 C   0  0  0  0  0  0  0  0  0  0  0  0
    6.7375  -12.6183   25.6849 C   0  0  0  0  0  0  0  0  0  0  0  0
    7.4532  -13.6458   26.5299 C   0  0  2  0  0  0  0  0  0  0  0  0
    8.3191  -12.9644   27.5653 C   0  0  0  0  0  0  0  0  0  0  0  0
    8.2155  -14.5984   25.6708 C   0  0  2  0  0  0  0  0  0  0  0  0
    7.3077  -15.1617   24.6935 N   0  0  0  0  0  0  0  0  0  0  0  0
    8.8973  -15.6620   26.4643 C   0  0  0  0  0  0  0  0  0  0  0  0
    8.2151  -16.4667   27.1486 O   0  0  0  0  0  0  0  0  0  0  0  0
   11.4261  -19.0126   24.4360 C   0  0  0  0  0  0  0  0  0  0  0  0
   11.8216  -17.7042   25.0129 C   0  0  2  0  0  0  0  0  0  0  0  0
   13.1459  -17.2779   24.3732 C   0  0  0  0  0  0  0  0  0  0  0  0
   11.9396  -17.5771   26.4829 C   0  0  0  0  0  0  0  0  0  0  0  0
   10.8702  -16.9399   27.2736 C   0  0  2  0  0  0  0  0  0  0  0  0
   10.2950  -15.8147   26.4870 N   0  0  0  0  0  0  0  0  0  0  0  0
   11.1852  -16.3880   28.5893 C   0  0  0  0  0  0  0  0  0  0  0  0
   11.6253  -17.0390   29.5750 O   0  0  0  0  0  0  0  0  0  0  0  0
   10.9893  -15.0113   28.7995 O   0  0  0  0  0  0  0  0  0  0  0  0
  1  2  1  0
  2  3  1  0
  3  4  1  0
  5  4  1  0
  5  6  1  6
  7  5  1  0
  8  7  2  0
 10 11  1  0
 10  9  1  0
 11 13  1  0
 11 12  1  1
 13 14  1  6
 14  7  1  0
 15 22  1  0
 15 13  1  0
 16 15  2  0
 18 19  1  6
 18 17  1  0
 21 20  1  6
 20 18  1  0
 21 22  1  0
 23 21  1  0
 24 23  2  0
 25 23  1  0
M  END
$$$$
