MIL.pdb
     RDKit          3D

 25 24  0  0  1  0  0  0  0  0999 V2000
    9.0365  -12.3238   17.9222 C   0  0  0  0  0  0  0  0  0  0  0  0
    8.0722  -12.7682   19.3656 S   0  0  0  0  0  0  0  0  0  0  0  0
    7.7016  -14.5418   19.4223 C   0  0  0  0  0  0  0  0  0  0  0  0
    7.0759  -14.8489   20.7873 C   0  0  0  0  0  0  0  0  0  0  0  0
    6.7916  -16.3189   20.9318 C   0  0  2  0  0  0  0  0  0  0  0  0
    5.6912  -16.6750   20.0951 N   0  0  0  0  0  0  0  0  0  0  0  0
    6.5732  -16.7562   22.3049 C   0  0  0  0  0  0  0  0  0  0  0  0
    5.4277  -16.6304   22.8069 O   0  0  0  0  0  0  0  0  0  0  0  0
    7.0811  -21.2125   24.6779 C   0  0  0  0  0  0  0  0  0  0  0  0
    6.7704  -19.7996   24.3001 C   0  0  0  0  0  0  0  0  0  0  0  0
    7.7419  -18.8557   24.9692 C   0  0  2  0  0  0  0  0  0  0  0  0
    7.7376  -19.0705   26.4658 C   0  0  0  0  0  0  0  0  0  0  0  0
    7.4561  -17.4428   24.5840 C   0  0  2  0  0  0  0  0  0  0  0  0
    7.5716  -17.3273   23.1453 N   0  0  0  0  0  0  0  0  0  0  0  0
    8.3427  -16.4697   25.2860 C   0  0  0  0  0  0  0  0  0  0  0  0
    9.5062  -16.2607   24.8571 O   0  0  0  0  0  0  0  0  0  0  0  0
    7.4294  -12.2305   25.4109 C   0  0  0  0  0  0  0  0  0  0  0  0
    7.0325  -12.9963   26.6180 C   0  0  2  0  0  0  0  0  0  0  0  0
    6.1461  -12.0990   27.4862 C   0  0  0  0  0  0  0  0  0  0  0  0
    8.0892  -13.5888   27.4684 C   0  0  0  0  0  0  0  0  0  0  0  0
    8.8687  -14.7512   27.0036 C   0  0  2  0  0  0  0  0  0  0  0  0
    7.9356  -15.7580   26.4284 N   0  0  0  0  0  0  0  0  0  0  0  0
    9.7048  -15.4789   27.9557 C   0  0  0  0  0  0  0  0  0  0  0  0
    9.4790  -16.6370   28.3993 O   0  0  0  0  0  0  0  0  0  0  0  0
   10.8703  -14.8536   28.4339 O   0  0  0  0  0  0  0  0  0  0  0  0
  1  2  1  0
  2  3  1  0
  3  4  1  0
  5  4  1  0
  5  6  1  6
  7  5  1  0
  8  7  2  0
 10 11  1  0
 10  9  1  0
 11 13  1  0
 11 12  1  1
 13 14  1  6
 14  7  1  0
 15 22  1  0
 15 13  1  0
 16 15  2  0
 18 19  1  1
 18 17  1  0
 21 20  1  1
 20 18  1  0
 21 22  1  0
 23 21  1  0
 24 23  2  0
 25 23  1  0
M  END
$$$$
