MIL.pdb
     RDKit          3D

 25 24  0  0  1  0  0  0  0  0999 V2000
    8.1175  -11.4685   18.8181 C   0  0  0  0  0  0  0  0  0  0  0  0
    7.9416  -12.9100   17.7685 S   0  0  0  0  0  0  0  0  0  0  0  0
    7.9539  -14.4543   18.7179 C   0  0  0  0  0  0  0  0  0  0  0  0
    8.5064  -14.1448   20.1136 C   0  0  0  0  0  0  0  0  0  0  0  0
    8.6109  -15.3961   20.9419 C   0  0  2  0  0  0  0  0  0  0  0  0
    7.3680  -16.0973   20.9030 N   0  0  0  0  0  0  0  0  0  0  0  0
    9.0479  -15.1731   22.3143 C   0  0  0  0  0  0  0  0  0  0  0  0
   10.2604  -14.9232   22.5320 O   0  0  0  0  0  0  0  0  0  0  0  0
    5.7064  -12.4504   25.3950 C   0  0  0  0  0  0  0  0  0  0  0  0
    6.9422  -12.9868   24.7464 C   0  0  0  0  0  0  0  0  0  0  0  0
    7.4239  -14.2165   25.4799 C   0  0  2  0  0  0  0  0  0  0  0  0
    7.6965  -13.8903   26.9308 C   0  0  0  0  0  0  0  0  0  0  0  0
    8.6016  -14.8170   24.7880 C   0  0  2  0  0  0  0  0  0  0  0  0
    8.1971  -15.2153   23.4560 N   0  0  0  0  0  0  0  0  0  0  0  0
    9.1887  -15.9586   25.5481 C   0  0  0  0  0  0  0  0  0  0  0  0
    9.2209  -17.1044   25.0310 O   0  0  0  0  0  0  0  0  0  0  0  0
   11.2263  -13.7507   28.8606 C   0  0  0  0  0  0  0  0  0  0  0  0
   10.7796  -15.1117   29.2467 C   0  0  2  0  0  0  0  0  0  0  0  0
   10.9983  -15.2799   30.7528 C   0  0  0  0  0  0  0  0  0  0  0  0
   11.3598  -16.2801   28.5473 C   0  0  0  0  0  0  0  0  0  0  0  0
   10.7876  -16.7591   27.2753 C   0  0  2  0  0  0  0  0  0  0  0  0
    9.7201  -15.8166   26.8423 N   0  0  0  0  0  0  0  0  0  0  0  0
   10.1923  -18.0921   27.2156 C   0  0  0  0  0  0  0  0  0  0  0  0
   10.8263  -19.1811   27.1792 O   0  0  0  0  0  0  0  0  0  0  0  0
    8.7899  -18.1962   27.1967 O   0  0  0  0  0  0  0  0  0  0  0  0
  1  2  1  0
  2  3  1  0
  3  4  1  0
  5  4  1  0
  5  6  1  1
  7  5  1  0
  8  7  2  0
 10 11  1  0
 10  9  1  0
 11 13  1  0
 11 12  1  1
 13 14  1  6
 14  7  1  0
 15 22  1  0
 15 13  1  0
 16 15  2  0
 18 19  1  1
 18 17  1  0
 21 20  1  1
 20 18  1  0
 21 22  1  0
 23 21  1  0
 24 23  2  0
 25 23  1  0
M  END
$$$$
