MIL.pdb
     RDKit          3D

 25 24  0  0  1  0  0  0  0  0999 V2000
    1.8819  -18.1024   19.5112 C   0  0  0  0  0  0  0  0  0  0  0  0
    2.4650  -19.7367   19.9578 S   0  0  0  0  0  0  0  0  0  0  0  0
    3.6370  -19.6920   21.3401 C   0  0  0  0  0  0  0  0  0  0  0  0
    4.7005  -18.6352   21.0219 C   0  0  0  0  0  0  0  0  0  0  0  0
    5.6501  -18.4615   22.1755 C   0  0  2  0  0  0  0  0  0  0  0  0
    4.9283  -18.0115   23.3220 N   0  0  0  0  0  0  0  0  0  0  0  0
    6.7859  -17.5928   21.8928 C   0  0  0  0  0  0  0  0  0  0  0  0
    7.7664  -18.0622   21.2618 O   0  0  0  0  0  0  0  0  0  0  0  0
    6.7809  -13.0593   19.5576 C   0  0  0  0  0  0  0  0  0  0  0  0
    7.2777  -14.3472   20.1323 C   0  0  0  0  0  0  0  0  0  0  0  0
    7.7628  -14.1337   21.5470 C   0  0  2  0  0  0  0  0  0  0  0  0
    8.9183  -13.1587   21.5652 C   0  0  0  0  0  0  0  0  0  0  0  0
    8.0917  -15.4368   22.1951 C   0  0  2  0  0  0  0  0  0  0  0  0
    6.8803  -16.2253   22.2803 N   0  0  0  0  0  0  0  0  0  0  0  0
    8.7296  -15.2637   23.5326 C   0  0  0  0  0  0  0  0  0  0  0  0
    9.8986  -14.8075   23.6143 O   0  0  0  0  0  0  0  0  0  0  0  0
    8.2675  -11.9457   26.2417 C   0  0  0  0  0  0  0  0  0  0  0  0
    7.3629  -13.1213   26.2709 C   0  0  2  0  0  0  0  0  0  0  0  0
    6.0906  -12.7298   27.0276 C   0  0  0  0  0  0  0  0  0  0  0  0
    7.8692  -14.3997   26.8189 C   0  0  0  0  0  0  0  0  0  0  0  0
    8.7543  -15.2662   26.0185 C   0  0  2  0  0  0  0  0  0  0  0  0
    8.0765  -15.5917   24.7340 N   0  0  0  0  0  0  0  0  0  0  0  0
    9.1963  -16.5439   26.5724 C   0  0  0  0  0  0  0  0  0  0  0  0
    8.9821  -17.6791   26.0679 O   0  0  0  0  0  0  0  0  0  0  0  0
    9.9277  -16.5330   27.7737 O   0  0  0  0  0  0  0  0  0  0  0  0
  1  2  1  0
  2  3  1  0
  3  4  1  0
  5  4  1  0
  5  6  1  1
  7  5  1  0
  8  7  2  0
 10 11  1  0
 10  9  1  0
 11 13  1  0
 11 12  1  6
 13 14  1  1
 14  7  1  0
 15 22  1  0
 15 13  1  0
 16 15  2  0
 18 19  1  1
 18 17  1  0
 21 20  1  1
 20 18  1  0
 21 22  1  0
 23 21  1  0
 24 23  2  0
 25 23  1  0
M  END
$$$$
