MIL.pdb
     RDKit          3D

 25 24  0  0  1  0  0  0  0  0999 V2000
    6.4797  -20.0163   21.7430 C   0  0  0  0  0  0  0  0  0  0  0  0
    7.3519  -19.5887   20.2374 S   0  0  0  0  0  0  0  0  0  0  0  0
    7.6456  -17.8052   20.0988 C   0  0  0  0  0  0  0  0  0  0  0  0
    8.0606  -17.2873   21.4804 C   0  0  0  0  0  0  0  0  0  0  0  0
    8.2098  -15.7906   21.4728 C   0  0  2  0  0  0  0  0  0  0  0  0
    9.1238  -15.4090   20.4446 N   0  0  0  0  0  0  0  0  0  0  0  0
    8.5927  -15.2187   22.7576 C   0  0  0  0  0  0  0  0  0  0  0  0
    9.8079  -14.9884   22.9813 O   0  0  0  0  0  0  0  0  0  0  0  0
    5.3696  -11.9678   25.7178 C   0  0  0  0  0  0  0  0  0  0  0  0
    6.5483  -12.6163   25.0654 C   0  0  0  0  0  0  0  0  0  0  0  0
    6.9460  -13.8597   25.8255 C   0  0  2  0  0  0  0  0  0  0  0  0
    7.2311  -13.5233   27.2717 C   0  0  0  0  0  0  0  0  0  0  0  0
    8.0865  -14.5480   25.1532 C   0  0  2  0  0  0  0  0  0  0  0  0
    7.6847  -14.8913   23.8052 N   0  0  0  0  0  0  0  0  0  0  0  0
    8.5550  -15.7461   25.9087 C   0  0  0  0  0  0  0  0  0  0  0  0
    7.9730  -16.8502   25.7548 O   0  0  0  0  0  0  0  0  0  0  0  0
   13.2720  -16.1656   26.5294 C   0  0  0  0  0  0  0  0  0  0  0  0
   12.3341  -15.7550   27.6029 C   0  0  2  0  0  0  0  0  0  0  0  0
   13.1543  -15.2047   28.7730 C   0  0  0  0  0  0  0  0  0  0  0  0
   11.3656  -16.7457   28.1241 C   0  0  0  0  0  0  0  0  0  0  0  0
   10.0790  -16.9751   27.4407 C   0  0  2  0  0  0  0  0  0  0  0  0
    9.6384  -15.7039   26.8041 N   0  0  0  0  0  0  0  0  0  0  0  0
    8.9344  -17.4535   28.2126 C   0  0  0  0  0  0  0  0  0  0  0  0
    7.9147  -16.7766   28.5144 O   0  0  0  0  0  0  0  0  0  0  0  0
    8.9471  -18.7834   28.6700 O   0  0  0  0  0  0  0  0  0  0  0  0
  1  2  1  0
  2  3  1  0
  3  4  1  0
  5  4  1  0
  5  6  1  6
  7  5  1  0
  8  7  2  0
 10 11  1  0
 10  9  1  0
 11 13  1  0
 11 12  1  1
 13 14  1  6
 14  7  1  0
 15 22  1  0
 15 13  1  0
 16 15  2  0
 18 19  1  1
 18 17  1  0
 21 20  1  1
 20 18  1  0
 21 22  1  0
 23 21  1  0
 24 23  2  0
 25 23  1  0
M  END
$$$$
