MIL.pdb
     RDKit          3D

 25 24  0  0  1  0  0  0  0  0999 V2000
    8.0723  -11.4596   19.1143 C   0  0  0  0  0  0  0  0  0  0  0  0
    7.3129  -12.8558   18.2869 S   0  0  0  0  0  0  0  0  0  0  0  0
    7.0950  -14.2734   19.3957 C   0  0  0  0  0  0  0  0  0  0  0  0
    8.0836  -14.1197   20.5568 C   0  0  0  0  0  0  0  0  0  0  0  0
    7.9714  -15.2723   21.5167 C   0  0  2  0  0  0  0  0  0  0  0  0
    6.6088  -15.6892   21.6020 N   0  0  0  0  0  0  0  0  0  0  0  0
    8.5262  -15.0091   22.8386 C   0  0  0  0  0  0  0  0  0  0  0  0
    9.7679  -14.8520   22.9552 O   0  0  0  0  0  0  0  0  0  0  0  0
    5.8841  -11.9626   26.1225 C   0  0  0  0  0  0  0  0  0  0  0  0
    7.0372  -12.6328   25.4466 C   0  0  0  0  0  0  0  0  0  0  0  0
    7.3947  -13.9098   26.1702 C   0  0  2  0  0  0  0  0  0  0  0  0
    7.9286  -13.6003   27.5506 C   0  0  0  0  0  0  0  0  0  0  0  0
    8.3343  -14.7338   25.3550 C   0  0  2  0  0  0  0  0  0  0  0  0
    7.7622  -14.9126   24.0369 N   0  0  0  0  0  0  0  0  0  0  0  0
    8.6510  -16.0421   25.9984 C   0  0  0  0  0  0  0  0  0  0  0  0
    7.7592  -16.9233   26.0971 O   0  0  0  0  0  0  0  0  0  0  0  0
   12.4713  -20.0998   26.8117 C   0  0  0  0  0  0  0  0  0  0  0  0
   11.6768  -19.6246   25.6525 C   0  0  2  0  0  0  0  0  0  0  0  0
   12.5101  -19.8265   24.3838 C   0  0  0  0  0  0  0  0  0  0  0  0
   11.1533  -18.2401   25.6636 C   0  0  0  0  0  0  0  0  0  0  0  0
   10.2662  -17.7773   26.7470 C   0  0  2  0  0  0  0  0  0  0  0  0
    9.9239  -16.3480   26.5117 N   0  0  0  0  0  0  0  0  0  0  0  0
   10.7269  -17.8554   28.1314 C   0  0  0  0  0  0  0  0  0  0  0  0
   10.4859  -18.7954   28.9360 O   0  0  0  0  0  0  0  0  0  0  0  0
   11.5107  -16.8014   28.6341 O   0  0  0  0  0  0  0  0  0  0  0  0
  1  2  1  0
  2  3  1  0
  3  4  1  0
  5  4  1  0
  5  6  1  1
  7  5  1  0
  8  7  2  0
 10 11  1  0
 10  9  1  0
 11 13  1  0
 11 12  1  1
 13 14  1  6
 14  7  1  0
 15 22  1  0
 15 13  1  0
 16 15  2  0
 18 19  1  6
 18 17  1  0
 21 20  1  6
 20 18  1  0
 21 22  1  0
 23 21  1  0
 24 23  2  0
 25 23  1  0
M  END
$$$$
