MIL.pdb
     RDKit          3D

 25 24  0  0  1  0  0  0  0  0999 V2000
    7.6620  -11.5723   19.2775 C   0  0  0  0  0  0  0  0  0  0  0  0
    7.5001  -13.0984   18.3527 S   0  0  0  0  0  0  0  0  0  0  0  0
    7.5215  -14.5571   19.4288 C   0  0  0  0  0  0  0  0  0  0  0  0
    8.1500  -14.1474   20.7653 C   0  0  0  0  0  0  0  0  0  0  0  0
    8.2391  -15.3212   21.7017 C   0  0  2  0  0  0  0  0  0  0  0  0
    6.9436  -15.8978   21.8662 N   0  0  0  0  0  0  0  0  0  0  0  0
    8.8483  -15.0165   22.9903 C   0  0  0  0  0  0  0  0  0  0  0  0
   10.0728  -14.7355   23.0313 O   0  0  0  0  0  0  0  0  0  0  0  0
    6.3003  -12.0325   26.2832 C   0  0  0  0  0  0  0  0  0  0  0  0
    7.4030  -12.7274   25.5507 C   0  0  0  0  0  0  0  0  0  0  0  0
    7.8813  -13.9227   26.3411 C   0  0  2  0  0  0  0  0  0  0  0  0
    8.5121  -13.4756   27.6405 C   0  0  0  0  0  0  0  0  0  0  0  0
    8.7891  -14.7726   25.5166 C   0  0  2  0  0  0  0  0  0  0  0  0
    8.1570  -15.0103   24.2357 N   0  0  0  0  0  0  0  0  0  0  0  0
    9.1484  -16.0506   26.1973 C   0  0  0  0  0  0  0  0  0  0  0  0
    8.2541  -16.8973   26.4517 O   0  0  0  0  0  0  0  0  0  0  0  0
   11.2783  -19.3917   24.5164 C   0  0  0  0  0  0  0  0  0  0  0  0
   12.1656  -18.4371   25.2251 C   0  0  2  0  0  0  0  0  0  0  0  0
   13.6178  -18.8460   24.9634 C   0  0  0  0  0  0  0  0  0  0  0  0
   11.9821  -18.2353   26.6800 C   0  0  0  0  0  0  0  0  0  0  0  0
   10.7212  -17.6863   27.2127 C   0  0  2  0  0  0  0  0  0  0  0  0
   10.4652  -16.3646   26.5778 N   0  0  0  0  0  0  0  0  0  0  0  0
   10.5858  -17.4717   28.6516 C   0  0  0  0  0  0  0  0  0  0  0  0
   10.4484  -18.3738   29.5212 O   0  0  0  0  0  0  0  0  0  0  0  0
   10.6086  -16.1508   29.1340 O   0  0  0  0  0  0  0  0  0  0  0  0
  1  2  1  0
  2  3  1  0
  3  4  1  0
  5  4  1  0
  5  6  1  1
  7  5  1  0
  8  7  2  0
 10 11  1  0
 10  9  1  0
 11 13  1  0
 11 12  1  1
 13 14  1  6
 14  7  1  0
 15 22  1  0
 15 13  1  0
 16 15  2  0
 18 19  1  1
 18 17  1  0
 21 20  1  1
 20 18  1  0
 21 22  1  0
 23 21  1  0
 24 23  2  0
 25 23  1  0
M  END
$$$$
