MIL.pdb
     RDKit          3D

 25 24  0  0  1  0  0  0  0  0999 V2000
    7.0554  -20.9532   28.1739 C   0  0  0  0  0  0  0  0  0  0  0  0
    7.3501  -19.1860   28.2001 S   0  0  0  0  0  0  0  0  0  0  0  0
    6.9187  -18.3961   26.6265 C   0  0  0  0  0  0  0  0  0  0  0  0
    6.5673  -19.5019   25.6250 C   0  0  0  0  0  0  0  0  0  0  0  0
    6.1701  -18.9197   24.2962 C   0  0  2  0  0  0  0  0  0  0  0  0
    5.7901  -19.9725   23.4102 N   0  0  0  0  0  0  0  0  0  0  0  0
    7.1797  -18.0599   23.6913 C   0  0  0  0  0  0  0  0  0  0  0  0
    8.1240  -18.5895   23.0527 O   0  0  0  0  0  0  0  0  0  0  0  0
    6.1121  -13.7253   21.0489 C   0  0  0  0  0  0  0  0  0  0  0  0
    6.7455  -14.9562   21.6137 C   0  0  0  0  0  0  0  0  0  0  0  0
    7.7435  -14.5841   22.6850 C   0  0  2  0  0  0  0  0  0  0  0  0
    8.8186  -13.6877   22.1136 C   0  0  0  0  0  0  0  0  0  0  0  0
    8.2938  -15.8056   23.3419 C   0  0  2  0  0  0  0  0  0  0  0  0
    7.1864  -16.6374   23.7646 N   0  0  0  0  0  0  0  0  0  0  0  0
    9.2026  -15.4812   24.4796 C   0  0  0  0  0  0  0  0  0  0  0  0
    9.4934  -14.2829   24.7264 O   0  0  0  0  0  0  0  0  0  0  0  0
   10.4658  -12.8426   27.0639 C   0  0  0  0  0  0  0  0  0  0  0  0
    9.3777  -13.8501   27.1080 C   0  0  2  0  0  0  0  0  0  0  0  0
    8.3296  -13.3813   28.1211 C   0  0  0  0  0  0  0  0  0  0  0  0
    9.7208  -15.2610   27.3953 C   0  0  0  0  0  0  0  0  0  0  0  0
   10.5784  -16.0315   26.4757 C   0  0  2  0  0  0  0  0  0  0  0  0
    9.7636  -16.4683   25.3092 N   0  0  0  0  0  0  0  0  0  0  0  0
   11.2535  -17.2319   26.9638 C   0  0  0  0  0  0  0  0  0  0  0  0
   12.1092  -17.2714   27.8886 O   0  0  0  0  0  0  0  0  0  0  0  0
   10.9374  -18.4649   26.3656 O   0  0  0  0  0  0  0  0  0  0  0  0
  1  2  1  0
  2  3  1  0
  3  4  1  0
  5  4  1  0
  5  6  1  6
  7  5  1  0
  8  7  2  0
 10 11  1  0
 10  9  1  0
 11 13  1  0
 11 12  1  6
 13 14  1  1
 14  7  1  0
 15 22  1  0
 15 13  1  0
 16 15  2  0
 18 19  1  1
 18 17  1  0
 21 20  1  1
 20 18  1  0
 21 22  1  0
 23 21  1  0
 24 23  2  0
 25 23  1  0
M  END
$$$$
