MIL.pdb
     RDKit          3D

 25 24  0  0  1  0  0  0  0  0999 V2000
    7.4194  -20.8322   21.8498 C   0  0  0  0  0  0  0  0  0  0  0  0
    8.1084  -20.4786   20.2340 S   0  0  0  0  0  0  0  0  0  0  0  0
    8.1812  -18.6992   19.8947 C   0  0  0  0  0  0  0  0  0  0  0  0
    8.7040  -18.0004   21.1547 C   0  0  0  0  0  0  0  0  0  0  0  0
    8.6219  -16.5050   21.0153 C   0  0  2  0  0  0  0  0  0  0  0  0
    9.3723  -16.0919   19.8732 N   0  0  0  0  0  0  0  0  0  0  0  0
    9.0252  -15.7678   22.2062 C   0  0  0  0  0  0  0  0  0  0  0  0
   10.1882  -15.2942   22.2618 O   0  0  0  0  0  0  0  0  0  0  0  0
    5.7066  -12.5491   24.9160 C   0  0  0  0  0  0  0  0  0  0  0  0
    6.9315  -13.1528   24.3073 C   0  0  0  0  0  0  0  0  0  0  0  0
    7.4827  -14.2330   25.2081 C   0  0  2  0  0  0  0  0  0  0  0  0
    7.8113  -13.6650   26.5703 C   0  0  0  0  0  0  0  0  0  0  0  0
    8.6452  -14.9138   24.5666 C   0  0  2  0  0  0  0  0  0  0  0  0
    8.1932  -15.5334   23.3384 N   0  0  0  0  0  0  0  0  0  0  0  0
    9.2982  -15.9029   25.4727 C   0  0  0  0  0  0  0  0  0  0  0  0
    9.1171  -17.1339   25.2902 O   0  0  0  0  0  0  0  0  0  0  0  0
    9.8519  -14.4647   29.1625 C   0  0  0  0  0  0  0  0  0  0  0  0
   11.1630  -15.1252   29.3759 C   0  0  2  0  0  0  0  0  0  0  0  0
   12.1828  -14.0527   29.7691 C   0  0  0  0  0  0  0  0  0  0  0  0
   11.7341  -15.9496   28.2872 C   0  0  0  0  0  0  0  0  0  0  0  0
   10.8601  -16.5840   27.2830 C   0  0  2  0  0  0  0  0  0  0  0  0
   10.1245  -15.5213   26.5447 N   0  0  0  0  0  0  0  0  0  0  0  0
    9.8470  -17.5422   27.7194 C   0  0  0  0  0  0  0  0  0  0  0  0
    8.6041  -17.3352   27.7549 O   0  0  0  0  0  0  0  0  0  0  0  0
   10.2708  -18.8152   28.1413 O   0  0  0  0  0  0  0  0  0  0  0  0
  1  2  1  0
  2  3  1  0
  3  4  1  0
  5  4  1  0
  5  6  1  6
  7  5  1  0
  8  7  2  0
 10 11  1  0
 10  9  1  0
 11 13  1  0
 11 12  1  1
 13 14  1  6
 14  7  1  0
 15 22  1  0
 15 13  1  0
 16 15  2  0
 18 19  1  6
 18 17  1  0
 21 20  1  1
 20 18  1  0
 21 22  1  0
 23 21  1  0
 24 23  2  0
 25 23  1  0
M  END
$$$$
