MIL.pdb
     RDKit          3D

 25 24  0  0  1  0  0  0  0  0999 V2000
    6.5662  -17.8101   27.6805 C   0  0  0  0  0  0  0  0  0  0  0  0
    6.8937  -19.4952   27.1670 S   0  0  0  0  0  0  0  0  0  0  0  0
    7.1933  -19.6219   25.3835 C   0  0  0  0  0  0  0  0  0  0  0  0
    6.0434  -18.9113   24.6610 C   0  0  0  0  0  0  0  0  0  0  0  0
    6.2149  -18.9881   23.1686 C   0  0  2  0  0  0  0  0  0  0  0  0
    6.4983  -20.3354   22.7912 N   0  0  0  0  0  0  0  0  0  0  0  0
    7.2101  -18.0692   22.6304 C   0  0  0  0  0  0  0  0  0  0  0  0
    8.3728  -18.4939   22.4119 O   0  0  0  0  0  0  0  0  0  0  0  0
    7.5450  -12.6637   19.6964 C   0  0  0  0  0  0  0  0  0  0  0  0
    8.2588  -13.7848   20.3814 C   0  0  0  0  0  0  0  0  0  0  0  0
    7.2662  -14.6874   21.0758 C   0  0  2  0  0  0  0  0  0  0  0  0
    6.3717  -13.8808   21.9898 C   0  0  0  0  0  0  0  0  0  0  0  0
    7.9672  -15.7994   21.7819 C   0  0  2  0  0  0  0  0  0  0  0  0
    6.9704  -16.6989   22.3241 N   0  0  0  0  0  0  0  0  0  0  0  0
    8.8965  -15.3071   22.8401 C   0  0  0  0  0  0  0  0  0  0  0  0
    9.7887  -14.4699   22.5497 O   0  0  0  0  0  0  0  0  0  0  0  0
    6.6283  -13.0470   27.3417 C   0  0  0  0  0  0  0  0  0  0  0  0
    7.5367  -12.7770   26.2002 C   0  0  2  0  0  0  0  0  0  0  0  0
    7.0545  -11.5077   25.4924 C   0  0  0  0  0  0  0  0  0  0  0  0
    7.7476  -13.8363   25.1881 C   0  0  0  0  0  0  0  0  0  0  0  0
    8.9252  -14.7214   25.2560 C   0  0  2  0  0  0  0  0  0  0  0  0
    8.8247  -15.7406   24.1759 N   0  0  0  0  0  0  0  0  0  0  0  0
    9.1907  -15.4659   26.4849 C   0  0  0  0  0  0  0  0  0  0  0  0
    8.8915  -16.6724   26.6944 O   0  0  0  0  0  0  0  0  0  0  0  0
    9.8367  -14.8000   27.5419 O   0  0  0  0  0  0  0  0  0  0  0  0
  1  2  1  0
  2  3  1  0
  3  4  1  0
  5  4  1  0
  5  6  1  1
  7  5  1  0
  8  7  2  0
 10 11  1  0
 10  9  1  0
 11 13  1  0
 11 12  1  1
 13 14  1  1
 14  7  1  0
 15 22  1  0
 15 13  1  0
 16 15  2  0
 18 19  1  6
 18 17  1  0
 21 20  1  1
 20 18  1  0
 21 22  1  0
 23 21  1  0
 24 23  2  0
 25 23  1  0
M  END
$$$$
