MIL.pdb
     RDKit          3D

 25 24  0  0  1  0  0  0  0  0999 V2000
    6.9448  -19.1231   27.0715 C   0  0  0  0  0  0  0  0  0  0  0  0
    6.1757  -20.5287   26.2693 S   0  0  0  0  0  0  0  0  0  0  0  0
    5.8430  -20.2184   24.5145 C   0  0  0  0  0  0  0  0  0  0  0  0
    6.7578  -19.0773   24.0561 C   0  0  0  0  0  0  0  0  0  0  0  0
    6.4604  -18.6855   22.6346 C   0  0  2  0  0  0  0  0  0  0  0  0
    6.4473  -19.8525   21.8125 N   0  0  0  0  0  0  0  0  0  0  0  0
    7.3529  -17.6686   22.0927 C   0  0  0  0  0  0  0  0  0  0  0  0
    8.4112  -18.0327   21.5205 O   0  0  0  0  0  0  0  0  0  0  0  0
    6.2344  -13.1046   19.5850 C   0  0  0  0  0  0  0  0  0  0  0  0
    7.0047  -14.2903   20.0711 C   0  0  0  0  0  0  0  0  0  0  0  0
    7.5500  -14.0256   21.4549 C   0  0  2  0  0  0  0  0  0  0  0  0
    8.5081  -12.8563   21.4278 C   0  0  0  0  0  0  0  0  0  0  0  0
    8.1577  -15.2617   22.0287 C   0  0  2  0  0  0  0  0  0  0  0  0
    7.1214  -16.2646   22.1584 N   0  0  0  0  0  0  0  0  0  0  0  0
    8.8436  -15.0093   23.3293 C   0  0  0  0  0  0  0  0  0  0  0  0
    9.9627  -14.4360   23.3459 O   0  0  0  0  0  0  0  0  0  0  0  0
    8.3920  -11.6483   26.0801 C   0  0  0  0  0  0  0  0  0  0  0  0
    7.4716  -12.8118   26.0834 C   0  0  2  0  0  0  0  0  0  0  0  0
    6.2133  -12.4267   26.8665 C   0  0  0  0  0  0  0  0  0  0  0  0
    7.9659  -14.1134   26.5859 C   0  0  0  0  0  0  0  0  0  0  0  0
    8.9440  -14.8994   25.8109 C   0  0  2  0  0  0  0  0  0  0  0  0
    8.2910  -15.3878   24.5657 N   0  0  0  0  0  0  0  0  0  0  0  0
    9.5655  -16.0716   26.4228 C   0  0  0  0  0  0  0  0  0  0  0  0
   10.2183  -16.0809   27.5011 O   0  0  0  0  0  0  0  0  0  0  0  0
    9.4377  -17.3112   25.7707 O   0  0  0  0  0  0  0  0  0  0  0  0
  1  2  1  0
  2  3  1  0
  3  4  1  0
  5  4  1  0
  5  6  1  6
  7  5  1  0
  8  7  2  0
 10 11  1  0
 10  9  1  0
 11 13  1  0
 11 12  1  6
 13 14  1  1
 14  7  1  0
 15 22  1  0
 15 13  1  0
 16 15  2  0
 18 19  1  1
 18 17  1  0
 21 20  1  1
 20 18  1  0
 21 22  1  0
 23 21  1  0
 24 23  2  0
 25 23  1  0
M  END
$$$$
