MIL.pdb
     RDKit          3D

 25 24  0  0  1  0  0  0  0  0999 V2000
    8.7152  -19.1838   28.9630 C   0  0  0  0  0  0  0  0  0  0  0  0
    7.6840  -20.5481   28.4284 S   0  0  0  0  0  0  0  0  0  0  0  0
    6.5789  -20.0801   27.0696 C   0  0  0  0  0  0  0  0  0  0  0  0
    7.2771  -18.9905   26.2484 C   0  0  0  0  0  0  0  0  0  0  0  0
    6.3543  -18.4298   25.2013 C   0  0  2  0  0  0  0  0  0  0  0  0
    6.1047  -19.4228   24.2065 N   0  0  0  0  0  0  0  0  0  0  0  0
    6.8147  -17.1846   24.5997 C   0  0  0  0  0  0  0  0  0  0  0  0
    7.2389  -17.2027   23.4166 O   0  0  0  0  0  0  0  0  0  0  0  0
    4.9689  -12.4990   26.3429 C   0  0  0  0  0  0  0  0  0  0  0  0
    5.5126  -13.5027   25.3772 C   0  0  0  0  0  0  0  0  0  0  0  0
    7.0197  -13.5517   25.4699 C   0  0  2  0  0  0  0  0  0  0  0  0
    7.6206  -12.2650   24.9512 C   0  0  0  0  0  0  0  0  0  0  0  0
    7.5525  -14.7620   24.7788 C   0  0  2  0  0  0  0  0  0  0  0  0
    6.8246  -15.9197   25.2548 N   0  0  0  0  0  0  0  0  0  0  0  0
    9.0239  -14.9237   24.9648 C   0  0  0  0  0  0  0  0  0  0  0  0
    9.8205  -14.2060   24.3079 O   0  0  0  0  0  0  0  0  0  0  0  0
   10.5700  -13.1890   28.0821 C   0  0  0  0  0  0  0  0  0  0  0  0
   10.4159  -14.6440   28.3268 C   0  0  2  0  0  0  0  0  0  0  0  0
   10.6133  -14.9031   29.8230 C   0  0  0  0  0  0  0  0  0  0  0  0
   11.2598  -15.5909   27.5638 C   0  0  0  0  0  0  0  0  0  0  0  0
   11.0425  -15.8012   26.1204 C   0  0  2  0  0  0  0  0  0  0  0  0
    9.5787  -15.8584   25.8570 N   0  0  0  0  0  0  0  0  0  0  0  0
   11.6112  -16.9829   25.4760 C   0  0  0  0  0  0  0  0  0  0  0  0
   12.8353  -17.2806   25.4319 O   0  0  0  0  0  0  0  0  0  0  0  0
   10.7361  -17.8834   24.8425 O   0  0  0  0  0  0  0  0  0  0  0  0
  1  2  1  0
  2  3  1  0
  3  4  1  0
  5  4  1  0
  5  6  1  6
  7  5  1  0
  8  7  2  0
 10 11  1  0
 10  9  1  0
 11 13  1  0
 11 12  1  6
 13 14  1  1
 14  7  1  0
 15 22  1  0
 15 13  1  0
 16 15  2  0
 18 19  1  1
 18 17  1  0
 21 20  1  1
 20 18  1  0
 21 22  1  0
 23 21  1  0
 24 23  2  0
 25 23  1  0
M  END
$$$$
