MIL.pdb
     RDKit          3D

 25 24  0  0  1  0  0  0  0  0999 V2000
    7.3690  -11.6972   18.8531 C   0  0  0  0  0  0  0  0  0  0  0  0
    7.2829  -13.2084   17.8943 S   0  0  0  0  0  0  0  0  0  0  0  0
    8.0489  -14.6092   18.7532 C   0  0  0  0  0  0  0  0  0  0  0  0
    8.0927  -14.2778   20.2490 C   0  0  0  0  0  0  0  0  0  0  0  0
    8.7045  -15.4059   21.0336 C   0  0  2  0  0  0  0  0  0  0  0  0
    7.8298  -16.5337   21.0058 N   0  0  0  0  0  0  0  0  0  0  0  0
    9.0719  -15.0569   22.4002 C   0  0  0  0  0  0  0  0  0  0  0  0
   10.2165  -14.5860   22.6193 O   0  0  0  0  0  0  0  0  0  0  0  0
    5.5500  -12.5999   25.4091 C   0  0  0  0  0  0  0  0  0  0  0  0
    6.8078  -13.0927   24.7684 C   0  0  0  0  0  0  0  0  0  0  0  0
    7.3681  -14.2585   25.5489 C   0  0  2  0  0  0  0  0  0  0  0  0
    7.6182  -13.8582   26.9853 C   0  0  0  0  0  0  0  0  0  0  0  0
    8.5827  -14.8082   24.8789 C   0  0  2  0  0  0  0  0  0  0  0  0
    8.2235  -15.2081   23.5344 N   0  0  0  0  0  0  0  0  0  0  0  0
    9.1946  -15.9346   25.6420 C   0  0  0  0  0  0  0  0  0  0  0  0
    9.3298  -17.0597   25.0966 O   0  0  0  0  0  0  0  0  0  0  0  0
   11.0101  -13.8561   28.8523 C   0  0  0  0  0  0  0  0  0  0  0  0
   10.5850  -15.1496   29.4415 C   0  0  2  0  0  0  0  0  0  0  0  0
   10.9739  -15.1539   30.9225 C   0  0  0  0  0  0  0  0  0  0  0  0
   11.0576  -16.4077   28.8210 C   0  0  0  0  0  0  0  0  0  0  0  0
   10.4954  -16.8753   27.5403 C   0  0  2  0  0  0  0  0  0  0  0  0
    9.6382  -15.8005   26.9696 N   0  0  0  0  0  0  0  0  0  0  0  0
    9.6830  -18.0895   27.5164 C   0  0  0  0  0  0  0  0  0  0  0  0
    8.4409  -18.1409   27.3076 O   0  0  0  0  0  0  0  0  0  0  0  0
   10.3200  -19.3228   27.7430 O   0  0  0  0  0  0  0  0  0  0  0  0
  1  2  1  0
  2  3  1  0
  3  4  1  0
  5  4  1  0
  5  6  1  1
  7  5  1  0
  8  7  2  0
 10 11  1  0
 10  9  1  0
 11 13  1  0
 11 12  1  1
 13 14  1  6
 14  7  1  0
 15 22  1  0
 15 13  1  0
 16 15  2  0
 18 19  1  1
 18 17  1  0
 21 20  1  1
 20 18  1  0
 21 22  1  0
 23 21  1  0
 24 23  2  0
 25 23  1  0
M  END
$$$$
