HNI.pdb
     RDKit          3D

 27 27  0  0  1  0  0  0  0  0999 V2000
    8.0591  -17.0913   18.7843 N   0  0  0  0  0  0  0  0  0  0  0  0
    8.3556  -15.9832   19.6737 C   0  0  1  0  0  0  0  0  0  0  0  0
    7.3899  -14.8540   19.2862 C   0  0  0  0  0  0  0  0  0  0  0  0
    7.6923  -14.3151   17.9519 C   0  0  0  0  0  0  0  0  0  0  0  0
    8.3945  -13.1791   17.6299 C   0  0  0  0  0  0  0  0  0  0  0  0
    8.4072  -13.1040   16.2864 N   0  0  0  0  0  0  0  0  0  0  0  0
    7.7455  -14.1405   15.7675 C   0  0  0  0  0  0  0  0  0  0  0  0
    7.2920  -14.9076   16.7981 N   0  0  0  0  0  0  0  0  0  0  0  0
    8.0593  -16.3132   21.0787 C   0  0  0  0  0  0  0  0  0  0  0  0
    6.8841  -16.5424   21.4196 O   0  0  0  0  0  0  0  0  0  0  0  0
   12.0059  -18.3321   24.1195 N   0  0  0  0  0  0  0  0  0  0  0  0
   10.8543  -18.1292   23.3521 C   0  0  0  0  0  0  0  0  0  0  0  0
   11.0737  -18.0682   22.0753 O   0  0  0  0  0  0  0  0  0  0  0  0
    9.4668  -17.9791   23.7552 C   0  0  0  0  0  0  0  0  0  0  0  0
    8.9114  -16.6330   23.4218 C   0  0  2  0  0  0  0  0  0  0  0  0
    9.1183  -16.3650   22.0211 N   0  0  0  0  0  0  0  0  0  0  0  0
    9.4587  -15.6276   24.3293 C   0  0  0  0  0  0  0  0  0  0  0  0
   10.4853  -14.9252   24.1344 O   0  0  0  0  0  0  0  0  0  0  0  0
    5.9748  -12.3623   26.0626 C   0  0  0  0  0  0  0  0  0  0  0  0
    7.2990  -12.9790   25.6255 C   0  0  0  0  0  0  0  0  0  0  0  0
    7.9274  -13.6040   26.8278 C   0  0  2  0  0  0  0  0  0  0  0  0
    8.2044  -12.6147   27.9272 C   0  0  0  0  0  0  0  0  0  0  0  0
    9.1790  -14.3954   26.5109 C   0  0  2  0  0  0  0  0  0  0  0  0
    8.7720  -15.4123   25.5566 N   0  0  0  0  0  0  0  0  0  0  0  0
    9.6700  -15.1010   27.7232 C   0  0  0  0  0  0  0  0  0  0  0  0
    9.4312  -16.4463   27.9833 O   0  0  0  0  0  0  0  0  0  0  0  0
   10.3567  -14.5036   28.6223 O   0  0  0  0  0  0  0  0  0  0  0  0
  2  1  1  6
  2  3  1  0
  4  5  2  0
  4  3  1  0
  6  5  1  0
  7  8  2  0
  7  6  1  0
  8  4  1  0
  9 10  2  0
  9  2  1  0
 12 11  1  0
 12 14  1  0
 13 12  2  0
 15 14  1  1
 15 16  1  0
 16  9  1  0
 17 18  2  0
 17 15  1  0
 20 21  1  0
 20 19  1  0
 21 22  1  1
 23 21  1  0
 23 24  1  6
 24 17  1  0
 25 23  1  0
 26 25  1  0
 27 25  2  0
M  END
$$$$
