HNI.pdb
     RDKit          3D

 27 27  0  0  1  0  0  0  0  0999 V2000
    8.8411  -16.9140   18.9799 N   0  0  0  0  0  0  0  0  0  0  0  0
    8.5407  -15.8366   19.9051 C   0  0  1  0  0  0  0  0  0  0  0  0
    7.3245  -15.1011   19.3240 C   0  0  0  0  0  0  0  0  0  0  0  0
    7.6494  -14.4328   18.0552 C   0  0  0  0  0  0  0  0  0  0  0  0
    8.2340  -13.2044   17.8634 C   0  0  0  0  0  0  0  0  0  0  0  0
    8.3266  -13.0273   16.5327 N   0  0  0  0  0  0  0  0  0  0  0  0
    7.8262  -14.0892   15.8975 C   0  0  0  0  0  0  0  0  0  0  0  0
    7.3983  -14.9777   16.8376 N   0  0  0  0  0  0  0  0  0  0  0  0
    8.1221  -16.3458   21.2226 C   0  0  0  0  0  0  0  0  0  0  0  0
    7.2091  -17.1894   21.2918 O   0  0  0  0  0  0  0  0  0  0  0  0
    9.3806  -19.3721   25.7219 N   0  0  0  0  0  0  0  0  0  0  0  0
    8.5777  -18.4705   25.0157 C   0  0  0  0  0  0  0  0  0  0  0  0
    7.4969  -18.1220   25.6422 O   0  0  0  0  0  0  0  0  0  0  0  0
    8.7621  -17.8686   23.7065 C   0  0  0  0  0  0  0  0  0  0  0  0
    8.5051  -16.3970   23.7064 C   0  0  2  0  0  0  0  0  0  0  0  0
    8.7665  -15.8670   22.3922 N   0  0  0  0  0  0  0  0  0  0  0  0
    9.2513  -15.7591   24.7882 C   0  0  0  0  0  0  0  0  0  0  0  0
   10.5016  -15.7617   24.9359 O   0  0  0  0  0  0  0  0  0  0  0  0
    6.0731  -12.3001   28.0604 C   0  0  0  0  0  0  0  0  0  0  0  0
    6.7820  -13.4920   27.4266 C   0  0  0  0  0  0  0  0  0  0  0  0
    8.0733  -13.0021   26.8577 C   0  0  2  0  0  0  0  0  0  0  0  0
    7.8971  -12.2382   25.5733 C   0  0  0  0  0  0  0  0  0  0  0  0
    9.1054  -14.0953   26.6768 C   0  0  2  0  0  0  0  0  0  0  0  0
    8.5017  -15.0632   25.7771 N   0  0  0  0  0  0  0  0  0  0  0  0
    9.3589  -14.7908   27.9654 C   0  0  0  0  0  0  0  0  0  0  0  0
   10.0616  -14.2240   29.0235 O   0  0  0  0  0  0  0  0  0  0  0  0
    8.9389  -15.9788   28.1872 O   0  0  0  0  0  0  0  0  0  0  0  0
  2  1  1  6
  2  3  1  0
  4  5  2  0
  4  3  1  0
  6  5  1  0
  7  8  2  0
  7  6  1  0
  8  4  1  0
  9 10  2  0
  9  2  1  0
 12 11  1  0
 12 14  1  0
 13 12  2  0
 15 14  1  6
 15 16  1  0
 16  9  1  0
 17 18  2  0
 17 15  1  0
 20 21  1  0
 20 19  1  0
 21 22  1  6
 23 21  1  0
 23 24  1  6
 24 17  1  0
 25 23  1  0
 26 25  1  0
 27 25  2  0
M  END
$$$$
