HNI.pdb
     RDKit          3D

 27 27  0  0  1  0  0  0  0  0999 V2000
    9.5081  -15.4023   19.3480 N   0  0  0  0  0  0  0  0  0  0  0  0
    8.6308  -14.5097   20.0830 C   0  0  1  0  0  0  0  0  0  0  0  0
    7.2743  -14.5569   19.3650 C   0  0  0  0  0  0  0  0  0  0  0  0
    7.4169  -14.3286   17.9195 C   0  0  0  0  0  0  0  0  0  0  0  0
    7.7375  -13.1625   17.2677 C   0  0  0  0  0  0  0  0  0  0  0  0
    7.7488  -13.4488   15.9528 N   0  0  0  0  0  0  0  0  0  0  0  0
    7.4499  -14.7361   15.7659 C   0  0  0  0  0  0  0  0  0  0  0  0
    7.2395  -15.3000   16.9882 N   0  0  0  0  0  0  0  0  0  0  0  0
    8.3864  -14.9878   21.4550 C   0  0  0  0  0  0  0  0  0  0  0  0
    7.4753  -14.4738   22.1299 O   0  0  0  0  0  0  0  0  0  0  0  0
   12.0386  -18.5877   23.7058 N   0  0  0  0  0  0  0  0  0  0  0  0
   10.9518  -18.0420   23.0149 C   0  0  0  0  0  0  0  0  0  0  0  0
   11.2537  -17.5625   21.8483 O   0  0  0  0  0  0  0  0  0  0  0  0
    9.5537  -17.9302   23.3932 C   0  0  0  0  0  0  0  0  0  0  0  0
    9.0493  -16.5255   23.3298 C   0  0  2  0  0  0  0  0  0  0  0  0
    9.1933  -16.0271   21.9853 N   0  0  0  0  0  0  0  0  0  0  0  0
    9.6947  -15.7155   24.3600 C   0  0  0  0  0  0  0  0  0  0  0  0
   10.8035  -15.1271   24.2619 O   0  0  0  0  0  0  0  0  0  0  0  0
    6.3977  -12.3993   26.3584 C   0  0  0  0  0  0  0  0  0  0  0  0
    7.6382  -13.1266   25.8514 C   0  0  0  0  0  0  0  0  0  0  0  0
    8.2599  -13.8285   27.0142 C   0  0  2  0  0  0  0  0  0  0  0  0
    8.6042  -12.8985   28.1460 C   0  0  0  0  0  0  0  0  0  0  0  0
    9.4666  -14.6630   26.6395 C   0  0  2  0  0  0  0  0  0  0  0  0
    9.0119  -15.5699   25.5996 N   0  0  0  0  0  0  0  0  0  0  0  0
    9.9014  -15.4963   27.7907 C   0  0  0  0  0  0  0  0  0  0  0  0
   10.8918  -15.1145   28.6897 O   0  0  0  0  0  0  0  0  0  0  0  0
    9.3824  -16.6405   28.0321 O   0  0  0  0  0  0  0  0  0  0  0  0
  2  1  1  6
  2  3  1  0
  4  5  2  0
  4  3  1  0
  6  5  1  0
  7  8  2  0
  7  6  1  0
  8  4  1  0
  9 10  2  0
  9  2  1  0
 12 11  1  0
 12 14  1  0
 13 12  2  0
 15 14  1  6
 15 16  1  0
 16  9  1  0
 17 18  2  0
 17 15  1  0
 20 21  1  0
 20 19  1  0
 21 22  1  1
 23 21  1  0
 23 24  1  6
 24 17  1  0
 25 23  1  0
 26 25  1  0
 27 25  2  0
M  END
$$$$
