HNI.pdb
     RDKit          3D

 27 27  0  0  1  0  0  0  0  0999 V2000
    7.0411  -16.8928   19.8819 N   0  0  0  0  0  0  0  0  0  0  0  0
    7.6432  -15.8938   20.7458 C   0  0  1  0  0  0  0  0  0  0  0  0
    7.0439  -14.5452   20.3219 C   0  0  0  0  0  0  0  0  0  0  0  0
    7.6921  -14.0194   19.1113 C   0  0  0  0  0  0  0  0  0  0  0  0
    8.7784  -13.1834   19.0200 C   0  0  0  0  0  0  0  0  0  0  0  0
    8.9996  -12.9839   17.7078 N   0  0  0  0  0  0  0  0  0  0  0  0
    8.1000  -13.6580   16.9881 C   0  0  0  0  0  0  0  0  0  0  0  0
    7.2746  -14.3113   17.8531 N   0  0  0  0  0  0  0  0  0  0  0  0
    7.2632  -16.0873   22.1560 C   0  0  0  0  0  0  0  0  0  0  0  0
    6.2207  -15.5612   22.5875 O   0  0  0  0  0  0  0  0  0  0  0  0
    6.6429  -20.1217   23.0628 N   0  0  0  0  0  0  0  0  0  0  0  0
    6.6308  -19.1142   24.0328 C   0  0  0  0  0  0  0  0  0  0  0  0
    5.4441  -18.6924   24.3425 O   0  0  0  0  0  0  0  0  0  0  0  0
    7.7257  -18.4738   24.7410 C   0  0  0  0  0  0  0  0  0  0  0  0
    7.8540  -17.0219   24.4135 C   0  0  2  0  0  0  0  0  0  0  0  0
    8.0914  -16.8708   23.0002 N   0  0  0  0  0  0  0  0  0  0  0  0
    8.8557  -16.4012   25.2767 C   0  0  0  0  0  0  0  0  0  0  0  0
   10.0906  -16.3161   25.0466 O   0  0  0  0  0  0  0  0  0  0  0  0
    6.7356  -12.3507   28.0076 C   0  0  0  0  0  0  0  0  0  0  0  0
    7.6809  -13.2104   27.1756 C   0  0  0  0  0  0  0  0  0  0  0  0
    8.4269  -14.1025   28.1131 C   0  0  2  0  0  0  0  0  0  0  0  0
    9.2447  -13.3422   29.1218 C   0  0  0  0  0  0  0  0  0  0  0  0
    9.2895  -15.1293   27.4099 C   0  0  2  0  0  0  0  0  0  0  0  0
    8.4024  -15.8335   26.5000 N   0  0  0  0  0  0  0  0  0  0  0  0
    9.8067  -16.1282   28.3811 C   0  0  0  0  0  0  0  0  0  0  0  0
   11.0359  -16.0167   29.0225 O   0  0  0  0  0  0  0  0  0  0  0  0
    9.1411  -17.1748   28.6945 O   0  0  0  0  0  0  0  0  0  0  0  0
  2  1  1  6
  2  3  1  0
  4  5  2  0
  4  3  1  0
  6  5  1  0
  7  8  2  0
  7  6  1  0
  8  4  1  0
  9 10  2  0
  9  2  1  0
 12 11  1  0
 12 14  1  0
 13 12  2  0
 15 14  1  6
 15 16  1  0
 16  9  1  0
 17 18  2  0
 17 15  1  0
 20 21  1  0
 20 19  1  0
 21 22  1  1
 23 21  1  0
 23 24  1  6
 24 17  1  0
 25 23  1  0
 26 25  1  0
 27 25  2  0
M  END
$$$$
