HNI.pdb
     RDKit          3D

 27 27  0  0  1  0  0  0  0  0999 V2000
    5.8014  -16.7672   20.2037 N   0  0  0  0  0  0  0  0  0  0  0  0
    6.9554  -16.2857   20.9407 C   0  0  1  0  0  0  0  0  0  0  0  0
    6.9127  -14.7535   20.8482 C   0  0  0  0  0  0  0  0  0  0  0  0
    7.6365  -14.2605   19.6671 C   0  0  0  0  0  0  0  0  0  0  0  0
    8.3086  -14.9866   18.7140 C   0  0  0  0  0  0  0  0  0  0  0  0
    8.8060  -14.0977   17.8347 N   0  0  0  0  0  0  0  0  0  0  0  0
    8.4712  -12.8592   18.2027 C   0  0  0  0  0  0  0  0  0  0  0  0
    7.7388  -12.9451   19.3484 N   0  0  0  0  0  0  0  0  0  0  0  0
    6.8665  -16.6135   22.3743 C   0  0  0  0  0  0  0  0  0  0  0  0
    5.7996  -16.4128   22.9837 O   0  0  0  0  0  0  0  0  0  0  0  0
    7.9934  -18.4495   27.2217 N   0  0  0  0  0  0  0  0  0  0  0  0
    8.3114  -19.2146   26.0949 C   0  0  0  0  0  0  0  0  0  0  0  0
    8.6266  -20.4439   26.3622 O   0  0  0  0  0  0  0  0  0  0  0  0
    8.3428  -18.8537   24.6880 C   0  0  0  0  0  0  0  0  0  0  0  0
    8.0291  -17.4118   24.4550 C   0  0  2  0  0  0  0  0  0  0  0  0
    7.9982  -17.1532   23.0378 N   0  0  0  0  0  0  0  0  0  0  0  0
    8.9500  -16.5706   25.2154 C   0  0  0  0  0  0  0  0  0  0  0  0
   10.1801  -16.4194   24.9934 O   0  0  0  0  0  0  0  0  0  0  0  0
    6.6059  -12.1393   26.7046 C   0  0  0  0  0  0  0  0  0  0  0  0
    7.6645  -13.1241   26.2204 C   0  0  0  0  0  0  0  0  0  0  0  0
    8.2779  -13.7597   27.4250 C   0  0  2  0  0  0  0  0  0  0  0  0
    8.9747  -12.7710   28.3202 C   0  0  0  0  0  0  0  0  0  0  0  0
    9.2077  -14.9079   27.0930 C   0  0  2  0  0  0  0  0  0  0  0  0
    8.4151  -15.8458   26.3166 N   0  0  0  0  0  0  0  0  0  0  0  0
    9.6312  -15.6102   28.3323 C   0  0  0  0  0  0  0  0  0  0  0  0
    9.1853  -16.8776   28.6923 O   0  0  0  0  0  0  0  0  0  0  0  0
   10.4487  -15.0828   29.1632 O   0  0  0  0  0  0  0  0  0  0  0  0
  2  1  1  6
  2  3  1  0
  4  5  2  0
  4  3  1  0
  6  5  1  0
  7  8  2  0
  7  6  1  0
  8  4  1  0
  9 10  2  0
  9  2  1  0
 12 11  1  0
 12 14  1  0
 13 12  2  0
 15 14  1  6
 15 16  1  0
 16  9  1  0
 17 18  2  0
 17 15  1  0
 20 21  1  0
 20 19  1  0
 21 22  1  6
 23 21  1  0
 23 24  1  6
 24 17  1  0
 25 23  1  0
 26 25  1  0
 27 25  2  0
M  END
$$$$
