HNI.pdb
     RDKit          3D

 27 27  0  0  1  0  0  0  0  0999 V2000
    9.5529  -15.5202   19.1872 N   0  0  0  0  0  0  0  0  0  0  0  0
    8.6849  -14.6720   19.9834 C   0  0  1  0  0  0  0  0  0  0  0  0
    7.3368  -14.6315   19.2495 C   0  0  0  0  0  0  0  0  0  0  0  0
    7.4999  -14.2686   17.8340 C   0  0  0  0  0  0  0  0  0  0  0  0
    7.8899  -13.0637   17.3017 C   0  0  0  0  0  0  0  0  0  0  0  0
    7.8920  -13.2175   15.9649 N   0  0  0  0  0  0  0  0  0  0  0  0
    7.5213  -14.4606   15.6504 C   0  0  0  0  0  0  0  0  0  0  0  0
    7.2725  -15.1306   16.8103 N   0  0  0  0  0  0  0  0  0  0  0  0
    8.4138  -15.2553   21.3089 C   0  0  0  0  0  0  0  0  0  0  0  0
    7.4338  -14.8566   21.9650 O   0  0  0  0  0  0  0  0  0  0  0  0
    9.1348  -19.7395   21.7323 N   0  0  0  0  0  0  0  0  0  0  0  0
   10.0597  -18.7743   22.1434 C   0  0  0  0  0  0  0  0  0  0  0  0
   11.0526  -18.6110   21.3252 O   0  0  0  0  0  0  0  0  0  0  0  0
   10.0825  -17.9343   23.3285 C   0  0  0  0  0  0  0  0  0  0  0  0
    9.2362  -16.7116   23.1854 C   0  0  2  0  0  0  0  0  0  0  0  0
    9.2740  -16.2626   21.8167 N   0  0  0  0  0  0  0  0  0  0  0  0
    9.6320  -15.7112   24.1736 C   0  0  0  0  0  0  0  0  0  0  0  0
   10.7127  -15.0654   24.1912 O   0  0  0  0  0  0  0  0  0  0  0  0
    6.7358  -11.3429   26.7673 C   0  0  0  0  0  0  0  0  0  0  0  0
    7.9473  -12.2391   26.9996 C   0  0  0  0  0  0  0  0  0  0  0  0
    7.8299  -13.4090   26.0783 C   0  0  2  0  0  0  0  0  0  0  0  0
    6.5030  -14.1104   26.1856 C   0  0  0  0  0  0  0  0  0  0  0  0
    8.9602  -14.4062   26.2234 C   0  0  2  0  0  0  0  0  0  0  0  0
    8.7136  -15.4307   25.2233 N   0  0  0  0  0  0  0  0  0  0  0  0
    8.9042  -15.0670   27.5534 C   0  0  0  0  0  0  0  0  0  0  0  0
    8.5453  -16.3979   27.7397 O   0  0  0  0  0  0  0  0  0  0  0  0
    9.1877  -14.4410   28.6325 O   0  0  0  0  0  0  0  0  0  0  0  0
  2  1  1  6
  2  3  1  0
  4  5  2  0
  4  3  1  0
  6  5  1  0
  7  8  2  0
  7  6  1  0
  8  4  1  0
  9 10  2  0
  9  2  1  0
 12 11  1  0
 12 14  1  0
 13 12  2  0
 15 14  1  6
 15 16  1  0
 16  9  1  0
 17 18  2  0
 17 15  1  0
 20 21  1  0
 20 19  1  0
 21 22  1  1
 23 21  1  0
 23 24  1  6
 24 17  1  0
 25 23  1  0
 26 25  1  0
 27 25  2  0
M  END
$$$$
