HNI.pdb
     RDKit          3D

 27 27  0  0  1  0  0  0  0  0999 V2000
    8.7435  -16.0104   19.6849 N   0  0  0  0  0  0  0  0  0  0  0  0
    8.1796  -14.8396   20.3316 C   0  0  1  0  0  0  0  0  0  0  0  0
    6.9752  -14.4181   19.4775 C   0  0  0  0  0  0  0  0  0  0  0  0
    7.3694  -14.1198   18.0927 C   0  0  0  0  0  0  0  0  0  0  0  0
    8.1177  -13.0659   17.6271 C   0  0  0  0  0  0  0  0  0  0  0  0
    8.2118  -13.2219   16.2938 N   0  0  0  0  0  0  0  0  0  0  0  0
    7.5563  -14.3221   15.9181 C   0  0  0  0  0  0  0  0  0  0  0  0
    7.0235  -14.8950   17.0335 N   0  0  0  0  0  0  0  0  0  0  0  0
    7.6455  -15.1551   21.6679 C   0  0  0  0  0  0  0  0  0  0  0  0
    7.0109  -14.2867   22.2949 O   0  0  0  0  0  0  0  0  0  0  0  0
    7.7532  -19.6742   25.8824 N   0  0  0  0  0  0  0  0  0  0  0  0
    7.1843  -18.6601   25.1052 C   0  0  0  0  0  0  0  0  0  0  0  0
    6.2611  -17.9823   25.7138 O   0  0  0  0  0  0  0  0  0  0  0  0
    7.4623  -18.2501   23.7396 C   0  0  0  0  0  0  0  0  0  0  0  0
    7.5807  -16.7680   23.5948 C   0  0  2  0  0  0  0  0  0  0  0  0
    7.8624  -16.4440   22.2192 N   0  0  0  0  0  0  0  0  0  0  0  0
    8.5445  -16.2468   24.5608 C   0  0  0  0  0  0  0  0  0  0  0  0
    9.7820  -16.4783   24.5807 O   0  0  0  0  0  0  0  0  0  0  0  0
    6.5035  -11.7112   26.7093 C   0  0  0  0  0  0  0  0  0  0  0  0
    7.4438  -12.6833   26.0053 C   0  0  0  0  0  0  0  0  0  0  0  0
    8.0812  -13.5369   27.0523 C   0  0  2  0  0  0  0  0  0  0  0  0
    8.8819  -12.7439   28.0494 C   0  0  0  0  0  0  0  0  0  0  0  0
    8.9221  -14.6607   26.4839 C   0  0  2  0  0  0  0  0  0  0  0  0
    8.0472  -15.3919   25.5836 N   0  0  0  0  0  0  0  0  0  0  0  0
    9.3312  -15.6007   27.5598 C   0  0  0  0  0  0  0  0  0  0  0  0
   10.5760  -15.5701   28.1797 O   0  0  0  0  0  0  0  0  0  0  0  0
    8.5489  -16.5162   27.9920 O   0  0  0  0  0  0  0  0  0  0  0  0
  2  1  1  6
  2  3  1  0
  4  5  2  0
  4  3  1  0
  6  5  1  0
  7  8  2  0
  7  6  1  0
  8  4  1  0
  9 10  2  0
  9  2  1  0
 12 11  1  0
 12 14  1  0
 13 12  2  0
 15 14  1  6
 15 16  1  0
 16  9  1  0
 17 18  2  0
 17 15  1  0
 20 21  1  0
 20 19  1  0
 21 22  1  1
 23 21  1  0
 23 24  1  6
 24 17  1  0
 25 23  1  0
 26 25  1  0
 27 25  2  0
M  END
$$$$
