HNI.pdb
     RDKit          3D

 27 27  0  0  1  0  0  0  0  0999 V2000
    9.0162  -16.1068   19.6884 N   0  0  0  0  0  0  0  0  0  0  0  0
    8.5296  -14.9018   20.3349 C   0  0  1  0  0  0  0  0  0  0  0  0
    7.3018  -14.4512   19.5305 C   0  0  0  0  0  0  0  0  0  0  0  0
    7.6268  -14.2500   18.1107 C   0  0  0  0  0  0  0  0  0  0  0  0
    8.2585  -13.1806   17.5235 C   0  0  0  0  0  0  0  0  0  0  0  0
    8.3294  -13.4523   16.2075 N   0  0  0  0  0  0  0  0  0  0  0  0
    7.7708  -14.6386   15.9582 C   0  0  0  0  0  0  0  0  0  0  0  0
    7.3263  -15.1501   17.1401 N   0  0  0  0  0  0  0  0  0  0  0  0
    8.0499  -15.1685   21.7022 C   0  0  0  0  0  0  0  0  0  0  0  0
    7.4739  -14.2653   22.3366 O   0  0  0  0  0  0  0  0  0  0  0  0
    7.4093  -19.8514   21.9222 N   0  0  0  0  0  0  0  0  0  0  0  0
    7.1246  -18.9747   22.9741 C   0  0  0  0  0  0  0  0  0  0  0  0
    5.8575  -18.8029   23.1911 O   0  0  0  0  0  0  0  0  0  0  0  0
    8.0144  -18.2355   23.8529 C   0  0  0  0  0  0  0  0  0  0  0  0
    7.9340  -16.7583   23.6458 C   0  0  2  0  0  0  0  0  0  0  0  0
    8.2517  -16.4508   22.2743 N   0  0  0  0  0  0  0  0  0  0  0  0
    8.7547  -16.0689   24.6382 C   0  0  0  0  0  0  0  0  0  0  0  0
   10.0086  -15.9552   24.6219 O   0  0  0  0  0  0  0  0  0  0  0  0
    6.2937  -11.7833   26.5139 C   0  0  0  0  0  0  0  0  0  0  0  0
    7.3293  -12.7693   25.9843 C   0  0  0  0  0  0  0  0  0  0  0  0
    7.8203  -13.5769   27.1410 C   0  0  2  0  0  0  0  0  0  0  0  0
    8.4256  -12.7343   28.2309 C   0  0  0  0  0  0  0  0  0  0  0  0
    8.7776  -14.6803   26.7425 C   0  0  2  0  0  0  0  0  0  0  0  0
    8.0816  -15.4621   25.7350 N   0  0  0  0  0  0  0  0  0  0  0  0
    9.0418  -15.5819   27.8939 C   0  0  0  0  0  0  0  0  0  0  0  0
   10.1025  -15.4147   28.7780 O   0  0  0  0  0  0  0  0  0  0  0  0
    8.2956  -16.5893   28.1496 O   0  0  0  0  0  0  0  0  0  0  0  0
  2  1  1  6
  2  3  1  0
  4  5  2  0
  4  3  1  0
  6  5  1  0
  7  8  2  0
  7  6  1  0
  8  4  1  0
  9 10  2  0
  9  2  1  0
 12 11  1  0
 12 14  1  0
 13 12  2  0
 15 14  1  6
 15 16  1  0
 16  9  1  0
 17 18  2  0
 17 15  1  0
 20 21  1  0
 20 19  1  0
 21 22  1  1
 23 21  1  0
 23 24  1  6
 24 17  1  0
 25 23  1  0
 26 25  1  0
 27 25  2  0
M  END
$$$$
