HNI.pdb
     RDKit          3D

 27 27  0  0  1  0  0  0  0  0999 V2000
    8.6396  -17.7537   18.4768 N   0  0  0  0  0  0  0  0  0  0  0  0
    8.6372  -16.6261   19.3909 C   0  0  1  0  0  0  0  0  0  0  0  0
    7.5141  -15.6932   18.9156 C   0  0  0  0  0  0  0  0  0  0  0  0
    7.9612  -14.8186   17.8215 C   0  0  0  0  0  0  0  0  0  0  0  0
    9.2110  -14.7283   17.2581 C   0  0  0  0  0  0  0  0  0  0  0  0
    9.1308  -13.7921   16.2949 N   0  0  0  0  0  0  0  0  0  0  0  0
    7.8903  -13.3025   16.2399 C   0  0  0  0  0  0  0  0  0  0  0  0
    7.1465  -13.9356   17.1898 N   0  0  0  0  0  0  0  0  0  0  0  0
    8.2817  -17.0322   20.7618 C   0  0  0  0  0  0  0  0  0  0  0  0
    7.4514  -17.9435   20.9351 O   0  0  0  0  0  0  0  0  0  0  0  0
   11.3274  -18.9808   24.1351 N   0  0  0  0  0  0  0  0  0  0  0  0
   10.3780  -18.4678   23.2452 C   0  0  0  0  0  0  0  0  0  0  0  0
   10.8465  -18.2076   22.0642 O   0  0  0  0  0  0  0  0  0  0  0  0
    8.9655  -18.1848   23.4329 C   0  0  0  0  0  0  0  0  0  0  0  0
    8.6346  -16.7418   23.2335 C   0  0  2  0  0  0  0  0  0  0  0  0
    8.8916  -16.3783   21.8630 N   0  0  0  0  0  0  0  0  0  0  0  0
    9.3288  -15.9276   24.2280 C   0  0  0  0  0  0  0  0  0  0  0  0
   10.5423  -15.5928   24.2039 O   0  0  0  0  0  0  0  0  0  0  0  0
    6.0023  -12.3393   26.3910 C   0  0  0  0  0  0  0  0  0  0  0  0
    7.1852  -13.0567   25.7499 C   0  0  0  0  0  0  0  0  0  0  0  0
    7.9443  -13.7425   26.8383 C   0  0  2  0  0  0  0  0  0  0  0  0
    8.3960  -12.8016   27.9223 C   0  0  0  0  0  0  0  0  0  0  0  0
    9.1163  -14.5581   26.3341 C   0  0  2  0  0  0  0  0  0  0  0  0
    8.5686  -15.4612   25.3365 N   0  0  0  0  0  0  0  0  0  0  0  0
    9.6760  -15.3962   27.4263 C   0  0  0  0  0  0  0  0  0  0  0  0
   10.7043  -14.9832   28.2669 O   0  0  0  0  0  0  0  0  0  0  0  0
    9.2389  -16.5744   27.6668 O   0  0  0  0  0  0  0  0  0  0  0  0
  2  1  1  6
  2  3  1  0
  4  5  2  0
  4  3  1  0
  6  5  1  0
  7  8  2  0
  7  6  1  0
  8  4  1  0
  9 10  2  0
  9  2  1  0
 12 11  1  0
 12 14  1  0
 13 12  2  0
 15 14  1  6
 15 16  1  0
 16  9  1  0
 17 18  2  0
 17 15  1  0
 20 21  1  0
 20 19  1  0
 21 22  1  1
 23 21  1  0
 23 24  1  6
 24 17  1  0
 25 23  1  0
 26 25  1  0
 27 25  2  0
M  END
$$$$
