HNI.pdb
     RDKit          3D

 27 27  0  0  1  0  0  0  0  0999 V2000
    8.1157  -16.6191   19.7117 N   0  0  0  0  0  0  0  0  0  0  0  0
    8.7219  -15.6526   20.6091 C   0  0  1  0  0  0  0  0  0  0  0  0
    7.9382  -14.3455   20.4219 C   0  0  0  0  0  0  0  0  0  0  0  0
    8.0709  -13.8243   19.0534 C   0  0  0  0  0  0  0  0  0  0  0  0
    7.0769  -13.5426   18.1478 C   0  0  0  0  0  0  0  0  0  0  0  0
    7.6870  -13.0895   17.0373 N   0  0  0  0  0  0  0  0  0  0  0  0
    9.0094  -13.0798   17.2177 C   0  0  0  0  0  0  0  0  0  0  0  0
    9.2650  -13.5372   18.4754 N   0  0  0  0  0  0  0  0  0  0  0  0
    8.5524  -16.0345   22.0220 C   0  0  0  0  0  0  0  0  0  0  0  0
    7.4581  -15.8394   22.5825 O   0  0  0  0  0  0  0  0  0  0  0  0
   10.6728  -19.8192   22.3201 N   0  0  0  0  0  0  0  0  0  0  0  0
    9.9963  -19.2977   23.4277 C   0  0  0  0  0  0  0  0  0  0  0  0
    8.8584  -19.8707   23.6703 O   0  0  0  0  0  0  0  0  0  0  0  0
   10.3640  -18.2284   24.3398 C   0  0  0  0  0  0  0  0  0  0  0  0
    9.5737  -16.9809   24.1148 C   0  0  2  0  0  0  0  0  0  0  0  0
    9.6392  -16.6193   22.7214 N   0  0  0  0  0  0  0  0  0  0  0  0
   10.0078  -15.9398   25.0430 C   0  0  0  0  0  0  0  0  0  0  0  0
   11.1035  -15.3203   25.0113 O   0  0  0  0  0  0  0  0  0  0  0  0
    6.3859  -12.4202   26.2673 C   0  0  0  0  0  0  0  0  0  0  0  0
    7.6975  -13.1393   25.9715 C   0  0  0  0  0  0  0  0  0  0  0  0
    8.1835  -13.7410   27.2493 C   0  0  2  0  0  0  0  0  0  0  0  0
    8.3780  -12.7238   28.3410 C   0  0  0  0  0  0  0  0  0  0  0  0
    9.4366  -14.5750   27.0844 C   0  0  2  0  0  0  0  0  0  0  0  0
    9.1123  -15.5824   26.0892 N   0  0  0  0  0  0  0  0  0  0  0  0
    9.7559  -15.2907   28.3471 C   0  0  0  0  0  0  0  0  0  0  0  0
   10.6051  -14.7868   29.3268 O   0  0  0  0  0  0  0  0  0  0  0  0
    9.2605  -16.4388   28.6180 O   0  0  0  0  0  0  0  0  0  0  0  0
  2  1  1  6
  2  3  1  0
  4  5  2  0
  4  3  1  0
  6  5  1  0
  7  8  2  0
  7  6  1  0
  8  4  1  0
  9 10  2  0
  9  2  1  0
 12 11  1  0
 12 14  1  0
 13 12  2  0
 15 14  1  6
 15 16  1  0
 16  9  1  0
 17 18  2  0
 17 15  1  0
 20 21  1  0
 20 19  1  0
 21 22  1  1
 23 21  1  0
 23 24  1  6
 24 17  1  0
 25 23  1  0
 26 25  1  0
 27 25  2  0
M  END
$$$$
