KRW.pdb
     RDKit          3D

 35 36  0  0  1  0  0  0  0  0999 V2000
   30.2597  -23.2606  -18.3283 N   0  0  0  0  0  0  0  0  0  0  0  0
   30.0924  -23.3893  -16.8958 C   0  0  1  0  0  0  0  0  0  0  0  0
   31.4083  -23.4619  -16.1945 C   0  0  0  0  0  0  0  0  0  0  0  0
   31.9117  -24.8931  -16.3666 C   0  0  0  0  0  0  0  0  0  0  0  0
   33.0907  -24.9697  -17.3012 C   0  0  0  0  0  0  0  0  0  0  0  0
   33.5692  -26.3702  -17.5502 C   0  0  0  0  0  0  0  0  0  0  0  0
   34.8041  -26.5350  -16.7744 N   0  0  0  0  0  0  0  0  0  0  0  0
   29.2244  -22.2733  -16.4607 C   0  0  0  0  0  0  0  0  0  0  0  0
   29.2370  -21.1329  -17.0006 O   0  0  0  0  0  0  0  0  0  0  0  0
   25.0643  -21.6839  -20.1987 N   0  0  0  0  0  0  0  0  0  0  0  0
   24.2742  -21.1125  -19.1523 C   0  0  0  0  0  0  0  0  0  0  0  0
   23.0079  -21.3348  -19.0501 N   0  0  0  0  0  0  0  0  0  0  0  0
   24.8502  -20.2578  -18.1546 N   0  0  0  0  0  0  0  0  0  0  0  0
   26.2516  -19.9390  -18.1842 C   0  0  0  0  0  0  0  0  0  0  0  0
   27.0987  -20.6764  -17.2073 C   0  0  0  0  0  0  0  0  0  0  0  0
   26.6205  -20.7258  -15.7945 C   0  0  0  0  0  0  0  0  0  0  0  0
   27.4689  -21.4382  -14.8240 C   0  0  2  0  0  0  0  0  0  0  0  0
   28.3254  -22.4507  -15.3947 N   0  0  0  0  0  0  0  0  0  0  0  0
   26.7967  -21.9022  -13.5947 C   0  0  0  0  0  0  0  0  0  0  0  0
   26.6131  -23.1377  -13.4660 O   0  0  0  0  0  0  0  0  0  0  0  0
   22.5104  -20.9157  -18.2332 N   0  0  0  0  0  0  0  0  0  0  0  0
   26.3493  -21.0498  -12.5633 C   0  0  2  0  0  0  0  0  0  0  0  0
   25.8244  -21.4999  -11.2944 C   0  0  0  0  0  0  0  0  0  0  0  0
   26.9012  -21.7554  -10.2672 C   0  0  0  0  0  0  0  0  0  0  0  0
   26.9729  -20.7152   -9.2422 C   0  0  0  0  0  0  0  0  0  0  0  0
   26.0516  -19.6970   -9.0743 N   0  0  0  0  0  0  0  0  0  0  0  0
   26.4017  -18.9217   -8.0541 C   0  0  0  0  0  0  0  0  0  0  0  0
   27.5440  -19.3765   -7.5093 C   0  0  0  0  0  0  0  0  0  0  0  0
   28.3030  -18.9428   -6.4607 C   0  0  0  0  0  0  0  0  0  0  0  0
   29.4494  -19.6494   -6.1468 C   0  0  0  0  0  0  0  0  0  0  0  0
   29.8129  -20.7500   -6.8651 C   0  0  0  0  0  0  0  0  0  0  0  0
   29.0626  -21.1991   -7.9210 C   0  0  0  0  0  0  0  0  0  0  0  0
   27.9142  -20.4983   -8.2415 C   0  0  0  0  0  0  0  0  0  0  0  0
   24.7984  -20.5491  -10.7968 O   0  0  0  0  0  0  0  0  0  0  0  0
   24.9105  -19.3338  -11.0986 O   0  0  0  0  0  0  0  0  0  0  0  0
  2  1  1  6
  2  3  1  0
  3  4  1  0
  5  6  1  0
  5  4  1  0
  7  6  1  0
  8  2  1  0
  8  9  2  0
 10 11  1  0
 11 13  1  0
 12 11  2  0
 13 14  1  0
 14 15  1  0
 15 16  1  0
 17 16  1  6
 17 18  1  0
 18  8  1  0
 19 17  1  0
 19 21  1  0
 20 19  2  0
 22 21  1  0
 22 33  1  0
 22 23  1  6
 24 23  1  0
 24 25  2  0
 26 25  1  0
 27 32  2  0
 27 26  1  0
 28 27  1  0
 29 30  1  0
 29 28  2  0
 30 31  2  0
 31 32  1  0
 32 24  1  0
 33 34  2  0
 33 35  1  0
M  END
$$$$
