KRW.pdb
     RDKit          3D

 35 36  0  0  1  0  0  0  0  0999 V2000
   19.6351  -21.0090  -12.5620 N   0  0  0  0  0  0  0  0  0  0  0  0
   20.8261  -20.4071  -13.1241 C   0  0  1  0  0  0  0  0  0  0  0  0
   20.8615  -18.9341  -12.8842 C   0  0  0  0  0  0  0  0  0  0  0  0
   20.0781  -18.2910  -14.0260 C   0  0  0  0  0  0  0  0  0  0  0  0
   20.8821  -18.2273  -15.2985 C   0  0  0  0  0  0  0  0  0  0  0  0
   20.1655  -17.5466  -16.4278 C   0  0  0  0  0  0  0  0  0  0  0  0
   21.0919  -17.5369  -17.5662 N   0  0  0  0  0  0  0  0  0  0  0  0
   21.9836  -21.1475  -12.5761 C   0  0  0  0  0  0  0  0  0  0  0  0
   22.0138  -21.6222  -11.4074 O   0  0  0  0  0  0  0  0  0  0  0  0
   26.8360  -25.6322  -15.9302 N   0  0  0  0  0  0  0  0  0  0  0  0
   26.3389  -24.5250  -16.6867 C   0  0  0  0  0  0  0  0  0  0  0  0
   25.5991  -24.6852  -17.7310 N   0  0  0  0  0  0  0  0  0  0  0  0
   26.6367  -23.1697  -16.3230 N   0  0  0  0  0  0  0  0  0  0  0  0
   27.4043  -22.8804  -15.1425 C   0  0  0  0  0  0  0  0  0  0  0  0
   26.6322  -22.3373  -13.9916 C   0  0  0  0  0  0  0  0  0  0  0  0
   25.1617  -22.5918  -13.9792 C   0  0  0  0  0  0  0  0  0  0  0  0
   24.3759  -21.9315  -12.9229 C   0  0  2  0  0  0  0  0  0  0  0  0
   23.1285  -21.3546  -13.3651 N   0  0  0  0  0  0  0  0  0  0  0  0
   25.1247  -21.0269  -12.0289 C   0  0  0  0  0  0  0  0  0  0  0  0
   25.2627  -19.8339  -12.3954 O   0  0  0  0  0  0  0  0  0  0  0  0
   25.2768  -23.8256  -18.2286 N   0  0  0  0  0  0  0  0  0  0  0  0
   25.6925  -21.4170  -10.7976 C   0  0  2  0  0  0  0  0  0  0  0  0
   26.4542  -20.5468   -9.9311 C   0  0  0  0  0  0  0  0  0  0  0  0
   26.3616  -20.9350   -8.4749 C   0  0  0  0  0  0  0  0  0  0  0  0
   27.0891  -20.0241   -7.5923 C   0  0  0  0  0  0  0  0  0  0  0  0
   27.0709  -18.6438   -7.6817 N   0  0  0  0  0  0  0  0  0  0  0  0
   27.8314  -18.1100   -6.7324 C   0  0  0  0  0  0  0  0  0  0  0  0
   28.3776  -19.0860   -5.9858 C   0  0  0  0  0  0  0  0  0  0  0  0
   29.2177  -19.0644   -4.9099 C   0  0  0  0  0  0  0  0  0  0  0  0
   29.6036  -20.2717   -4.3572 C   0  0  0  0  0  0  0  0  0  0  0  0
   29.1576  -21.4527   -4.8725 C   0  0  0  0  0  0  0  0  0  0  0  0
   28.3140  -21.4927   -5.9523 C   0  0  0  0  0  0  0  0  0  0  0  0
   27.9228  -20.2896   -6.5111 C   0  0  0  0  0  0  0  0  0  0  0  0
   27.8624  -20.4656  -10.3945 O   0  0  0  0  0  0  0  0  0  0  0  0
   28.3271  -21.4182  -11.0707 O   0  0  0  0  0  0  0  0  0  0  0  0
  2  1  1  1
  2  3  1  0
  3  4  1  0
  5  6  1  0
  5  4  1  0
  7  6  1  0
  8  2  1  0
  8  9  2  0
 10 11  1  0
 11 13  1  0
 12 11  2  0
 13 14  1  0
 14 15  1  0
 15 16  1  0
 17 16  1  6
 17 18  1  0
 18  8  1  0
 19 17  1  0
 19 21  1  0
 20 19  2  0
 22 21  1  0
 22 33  1  0
 22 23  1  1
 24 23  1  0
 24 25  2  0
 26 25  1  0
 27 32  2  0
 27 26  1  0
 28 27  1  0
 29 30  1  0
 29 28  2  0
 30 31  2  0
 31 32  1  0
 32 24  1  0
 33 34  2  0
 33 35  1  0
M  END
$$$$
