KRW.pdb
     RDKit          3D

 35 36  0  0  1  0  0  0  0  0999 V2000
   31.7312  -24.2246  -22.9460 N   0  0  0  0  0  0  0  0  0  0  0  0
   30.7509  -23.4378  -22.2272 C   0  0  1  0  0  0  0  0  0  0  0  0
   30.1487  -22.3844  -23.0968 C   0  0  0  0  0  0  0  0  0  0  0  0
   30.4445  -22.7922  -24.5380 C   0  0  0  0  0  0  0  0  0  0  0  0
   29.2190  -22.7153  -25.4108 C   0  0  0  0  0  0  0  0  0  0  0  0
   29.4877  -23.0343  -26.8524 C   0  0  0  0  0  0  0  0  0  0  0  0
   28.1950  -22.9675  -27.5442 N   0  0  0  0  0  0  0  0  0  0  0  0
   29.7764  -24.3877  -21.6472 C   0  0  0  0  0  0  0  0  0  0  0  0
   29.4707  -25.4857  -22.1887 O   0  0  0  0  0  0  0  0  0  0  0  0
   25.8248  -28.8436  -16.3672 N   0  0  0  0  0  0  0  0  0  0  0  0
   27.1549  -29.3400  -16.5404 C   0  0  0  0  0  0  0  0  0  0  0  0
   27.4073  -30.5998  -16.6528 N   0  0  0  0  0  0  0  0  0  0  0  0
   28.2857  -28.4594  -16.5997 N   0  0  0  0  0  0  0  0  0  0  0  0
   28.1090  -27.0348  -16.5248 C   0  0  0  0  0  0  0  0  0  0  0  0
   27.6328  -26.3802  -17.7739 C   0  0  0  0  0  0  0  0  0  0  0  0
   28.6314  -25.5864  -18.5484 C   0  0  0  0  0  0  0  0  0  0  0  0
   28.1511  -24.9079  -19.7642 C   0  0  2  0  0  0  0  0  0  0  0  0
   29.1356  -24.0899  -20.4320 N   0  0  0  0  0  0  0  0  0  0  0  0
   26.8437  -24.2320  -19.6545 C   0  0  0  0  0  0  0  0  0  0  0  0
   26.8021  -23.1510  -19.0168 O   0  0  0  0  0  0  0  0  0  0  0  0
   28.3995  -30.8784  -16.8211 N   0  0  0  0  0  0  0  0  0  0  0  0
   25.6459  -24.7222  -20.2162 C   0  0  2  0  0  0  0  0  0  0  0  0
   24.3518  -24.0965  -20.0676 C   0  0  0  0  0  0  0  0  0  0  0  0
   23.5521  -24.0824  -21.3483 C   0  0  0  0  0  0  0  0  0  0  0  0
   22.2605  -23.4113  -21.2093 C   0  0  0  0  0  0  0  0  0  0  0  0
   22.0753  -22.0412  -21.1618 N   0  0  0  0  0  0  0  0  0  0  0  0
   20.7846  -21.7543  -21.0352 C   0  0  0  0  0  0  0  0  0  0  0  0
   20.0685  -22.8918  -20.9933 C   0  0  0  0  0  0  0  0  0  0  0  0
   18.7307  -23.1363  -20.8740 C   0  0  0  0  0  0  0  0  0  0  0  0
   18.3047  -24.4518  -20.8633 C   0  0  0  0  0  0  0  0  0  0  0  0
   19.1964  -25.4779  -20.9689 C   0  0  0  0  0  0  0  0  0  0  0  0
   20.5430  -25.2504  -21.0893 C   0  0  0  0  0  0  0  0  0  0  0  0
   20.9776  -23.9375  -21.1010 C   0  0  0  0  0  0  0  0  0  0  0  0
   23.6013  -24.7275  -18.9527 O   0  0  0  0  0  0  0  0  0  0  0  0
   23.8300  -25.9341  -18.6831 O   0  0  0  0  0  0  0  0  0  0  0  0
  2  1  1  6
  2  3  1  0
  3  4  1  0
  5  6  1  0
  5  4  1  0
  7  6  1  0
  8  2  1  0
  8  9  2  0
 10 11  1  0
 11 13  1  0
 12 11  2  0
 13 14  1  0
 14 15  1  0
 15 16  1  0
 17 16  1  1
 17 18  1  0
 18  8  1  0
 19 17  1  0
 19 21  1  0
 20 19  2  0
 22 21  1  0
 22 33  1  0
 22 23  1  6
 24 23  1  0
 24 25  2  0
 26 25  1  0
 27 32  2  0
 27 26  1  0
 28 27  1  0
 29 30  1  0
 29 28  2  0
 30 31  2  0
 31 32  1  0
 32 24  1  0
 33 34  2  0
 33 35  1  0
M  END
$$$$
