KRW.pdb
     RDKit          3D

 35 36  0  0  1  0  0  0  0  0999 V2000
   29.2175  -20.1861  -15.6186 N   0  0  0  0  0  0  0  0  0  0  0  0
   29.1091  -18.9195  -14.9252 C   0  0  1  0  0  0  0  0  0  0  0  0
   29.1534  -17.7689  -15.8752 C   0  0  0  0  0  0  0  0  0  0  0  0
   28.9031  -18.3465  -17.2662 C   0  0  0  0  0  0  0  0  0  0  0  0
   30.1875  -18.6338  -17.9992 C   0  0  0  0  0  0  0  0  0  0  0  0
   29.9827  -19.0733  -19.4195 C   0  0  0  0  0  0  0  0  0  0  0  0
   30.1226  -17.8737  -20.2534 N   0  0  0  0  0  0  0  0  0  0  0  0
   27.8862  -18.9852  -14.0954 C   0  0  0  0  0  0  0  0  0  0  0  0
   27.3969  -17.9860  -13.5000 O   0  0  0  0  0  0  0  0  0  0  0  0
   20.2373  -21.0387  -12.6413 N   0  0  0  0  0  0  0  0  0  0  0  0
   20.4722  -20.6565  -13.9994 C   0  0  0  0  0  0  0  0  0  0  0  0
   19.7152  -19.8129  -14.6148 N   0  0  0  0  0  0  0  0  0  0  0  0
   21.5680  -21.1926  -14.7539 N   0  0  0  0  0  0  0  0  0  0  0  0
   22.5535  -22.0268  -14.1219 C   0  0  0  0  0  0  0  0  0  0  0  0
   23.5985  -21.3083  -13.3426 C   0  0  0  0  0  0  0  0  0  0  0  0
   24.8919  -21.0318  -14.0339 C   0  0  0  0  0  0  0  0  0  0  0  0
   25.9559  -20.3976  -13.2371 C   0  0  2  0  0  0  0  0  0  0  0  0
   27.2042  -20.2040  -13.9360 N   0  0  0  0  0  0  0  0  0  0  0  0
   26.1538  -20.9354  -11.8770 C   0  0  0  0  0  0  0  0  0  0  0  0
   27.2257  -21.5477  -11.6466 O   0  0  0  0  0  0  0  0  0  0  0  0
   19.9393  -19.6050  -15.6133 N   0  0  0  0  0  0  0  0  0  0  0  0
   25.2195  -20.8069  -10.8276 C   0  0  2  0  0  0  0  0  0  0  0  0
   25.5021  -21.0811   -9.4372 C   0  0  0  0  0  0  0  0  0  0  0  0
   26.7938  -20.4592   -8.9633 C   0  0  0  0  0  0  0  0  0  0  0  0
   26.9171  -20.4356   -7.5065 C   0  0  0  0  0  0  0  0  0  0  0  0
   25.8576  -20.4260   -6.6172 N   0  0  0  0  0  0  0  0  0  0  0  0
   26.3052  -20.4083   -5.3667 C   0  0  0  0  0  0  0  0  0  0  0  0
   27.6500  -20.4050   -5.3658 C   0  0  0  0  0  0  0  0  0  0  0  0
   28.5721  -20.3894   -4.3592 C   0  0  0  0  0  0  0  0  0  0  0  0
   29.9122  -20.3910   -4.6999 C   0  0  0  0  0  0  0  0  0  0  0  0
   30.3031  -20.4075   -6.0061 C   0  0  0  0  0  0  0  0  0  0  0  0
   29.3907  -20.4231   -7.0292 C   0  0  0  0  0  0  0  0  0  0  0  0
   28.0481  -20.4219   -6.6972 C   0  0  0  0  0  0  0  0  0  0  0  0
   24.3505  -20.6795   -8.5904 O   0  0  0  0  0  0  0  0  0  0  0  0
   23.7565  -19.6039   -8.8569 O   0  0  0  0  0  0  0  0  0  0  0  0
  2  1  1  6
  2  3  1  0
  3  4  1  0
  5  6  1  0
  5  4  1  0
  7  6  1  0
  8  2  1  0
  8  9  2  0
 10 11  1  0
 11 13  1  0
 12 11  2  0
 13 14  1  0
 14 15  1  0
 15 16  1  0
 17 16  1  6
 17 18  1  0
 18  8  1  0
 19 17  1  0
 19 21  1  0
 20 19  2  0
 22 21  1  0
 22 33  1  0
 22 23  1  6
 24 23  1  0
 24 25  2  0
 26 25  1  0
 27 32  2  0
 27 26  1  0
 28 27  1  0
 29 30  1  0
 29 28  2  0
 30 31  2  0
 31 32  1  0
 32 24  1  0
 33 34  2  0
 33 35  1  0
M  END
$$$$
