KRW.pdb
     RDKit          3D

 35 36  0  0  1  0  0  0  0  0999 V2000
   28.6616  -18.1411  -19.0614 N   0  0  0  0  0  0  0  0  0  0  0  0
   28.9389  -18.3394  -17.6541 C   0  0  1  0  0  0  0  0  0  0  0  0
   28.8969  -17.0517  -16.9002 C   0  0  0  0  0  0  0  0  0  0  0  0
   30.1210  -16.2525  -17.3406 C   0  0  0  0  0  0  0  0  0  0  0  0
   29.7459  -15.0596  -18.1806 C   0  0  0  0  0  0  0  0  0  0  0  0
   30.9275  -14.2728  -18.6676 C   0  0  0  0  0  0  0  0  0  0  0  0
   30.4010  -13.2419  -19.5700 N   0  0  0  0  0  0  0  0  0  0  0  0
   27.9926  -19.3675  -17.1685 C   0  0  0  0  0  0  0  0  0  0  0  0
   26.7447  -19.1899  -17.1096 O   0  0  0  0  0  0  0  0  0  0  0  0
   25.4987  -25.2951  -18.6019 N   0  0  0  0  0  0  0  0  0  0  0  0
   25.4274  -26.2943  -17.5811 C   0  0  0  0  0  0  0  0  0  0  0  0
   24.4266  -27.1017  -17.4809 N   0  0  0  0  0  0  0  0  0  0  0  0
   26.4702  -26.4540  -16.6091 N   0  0  0  0  0  0  0  0  0  0  0  0
   27.5762  -25.5368  -16.5646 C   0  0  0  0  0  0  0  0  0  0  0  0
   27.2612  -24.1752  -16.0524 C   0  0  0  0  0  0  0  0  0  0  0  0
   27.9884  -23.0301  -16.6745 C   0  0  0  0  0  0  0  0  0  0  0  0
   27.6738  -21.6826  -16.1701 C   0  0  2  0  0  0  0  0  0  0  0  0
   28.4668  -20.6200  -16.7415 N   0  0  0  0  0  0  0  0  0  0  0  0
   27.5391  -21.5546  -14.7060 C   0  0  0  0  0  0  0  0  0  0  0  0
   28.5956  -21.5075  -14.0290 O   0  0  0  0  0  0  0  0  0  0  0  0
   24.4520  -27.8059  -16.7103 N   0  0  0  0  0  0  0  0  0  0  0  0
   26.3058  -21.4842  -14.0244 C   0  0  1  0  0  0  0  0  0  0  0  0
   26.1592  -21.4942  -12.5868 C   0  0  0  0  0  0  0  0  0  0  0  0
   27.0547  -20.4946  -11.8949 C   0  0  0  0  0  0  0  0  0  0  0  0
   26.7683  -20.3615  -10.4672 C   0  0  0  0  0  0  0  0  0  0  0  0
   25.5644  -19.9401   -9.9319 N   0  0  0  0  0  0  0  0  0  0  0  0
   25.6272  -19.9321   -8.6050 C   0  0  0  0  0  0  0  0  0  0  0  0
   26.8457  -20.3375   -8.2057 C   0  0  0  0  0  0  0  0  0  0  0  0
   27.4054  -20.5005   -6.9712 C   0  0  0  0  0  0  0  0  0  0  0  0
   28.7132  -20.9438   -6.8995 C   0  0  0  0  0  0  0  0  0  0  0  0
   29.4255  -21.2110   -8.0311 C   0  0  0  0  0  0  0  0  0  0  0  0
   28.8792  -21.0527   -9.2784 C   0  0  0  0  0  0  0  0  0  0  0  0
   27.5714  -20.6098   -9.3592 C   0  0  0  0  0  0  0  0  0  0  0  0
   24.7335  -21.3115  -12.2147 O   0  0  0  0  0  0  0  0  0  0  0  0
   23.9532  -20.8051  -13.0606 O   0  0  0  0  0  0  0  0  0  0  0  0
  2  1  1  6
  2  3  1  0
  3  4  1  0
  5  6  1  0
  5  4  1  0
  7  6  1  0
  8  2  1  0
  8  9  2  0
 10 11  1  0
 11 13  1  0
 12 11  2  0
 13 14  1  0
 14 15  1  0
 15 16  1  0
 17 16  1  1
 17 18  1  0
 18  8  1  0
 19 17  1  0
 19 21  1  0
 20 19  2  0
 22 21  1  0
 22 33  1  0
 22 23  1  1
 24 23  1  0
 24 25  2  0
 26 25  1  0
 27 32  2  0
 27 26  1  0
 28 27  1  0
 29 30  1  0
 29 28  2  0
 30 31  2  0
 31 32  1  0
 32 24  1  0
 33 34  2  0
 33 35  1  0
M  END
$$$$
