KRW.pdb
     RDKit          3D

 35 36  0  0  1  0  0  0  0  0999 V2000
   30.4360  -22.3726  -19.1536 N   0  0  0  0  0  0  0  0  0  0  0  0
   29.9694  -23.2798  -18.1260 C   0  0  1  0  0  0  0  0  0  0  0  0
   31.0485  -23.5990  -17.1452 C   0  0  0  0  0  0  0  0  0  0  0  0
   32.1391  -24.3299  -17.9247 C   0  0  0  0  0  0  0  0  0  0  0  0
   32.6104  -25.5701  -17.2110 C   0  0  0  0  0  0  0  0  0  0  0  0
   33.8143  -26.2053  -17.8429 C   0  0  0  0  0  0  0  0  0  0  0  0
   34.2192  -27.3055  -16.9598 N   0  0  0  0  0  0  0  0  0  0  0  0
   28.7582  -22.6727  -17.5320 C   0  0  0  0  0  0  0  0  0  0  0  0
   28.5890  -21.4272  -17.4213 O   0  0  0  0  0  0  0  0  0  0  0  0
   23.6019  -26.5440  -17.8717 N   0  0  0  0  0  0  0  0  0  0  0  0
   22.9524  -25.4765  -18.5676 C   0  0  0  0  0  0  0  0  0  0  0  0
   22.6927  -25.5387  -19.8294 N   0  0  0  0  0  0  0  0  0  0  0  0
   22.5520  -24.2736  -17.8967 N   0  0  0  0  0  0  0  0  0  0  0  0
   22.7895  -24.1068  -16.4887 C   0  0  0  0  0  0  0  0  0  0  0  0
   24.0175  -23.3458  -16.1304 C   0  0  0  0  0  0  0  0  0  0  0  0
   25.2897  -23.7574  -16.7933 C   0  0  0  0  0  0  0  0  0  0  0  0
   26.5142  -23.0409  -16.3978 C   0  0  2  0  0  0  0  0  0  0  0  0
   27.7191  -23.4900  -17.0541 N   0  0  0  0  0  0  0  0  0  0  0  0
   26.7078  -22.8416  -14.9483 C   0  0  0  0  0  0  0  0  0  0  0  0
   27.2411  -23.7763  -14.3012 O   0  0  0  0  0  0  0  0  0  0  0  0
   22.1992  -24.7251  -20.2595 N   0  0  0  0  0  0  0  0  0  0  0  0
   26.3320  -21.6752  -14.2491 C   0  0  2  0  0  0  0  0  0  0  0  0
   26.5958  -21.4352  -12.8487 C   0  0  0  0  0  0  0  0  0  0  0  0
   27.2473  -20.0976  -12.5913 C   0  0  0  0  0  0  0  0  0  0  0  0
   26.7198  -19.0310  -13.4410 C   0  0  0  0  0  0  0  0  0  0  0  0
   25.5056  -18.3938  -13.2587 N   0  0  0  0  0  0  0  0  0  0  0  0
   25.3233  -17.4713  -14.1970 C   0  0  0  0  0  0  0  0  0  0  0  0
   26.3814  -17.4523  -15.0267 C   0  0  0  0  0  0  0  0  0  0  0  0
   26.6769  -16.7021  -16.1283 C   0  0  0  0  0  0  0  0  0  0  0  0
   27.8775  -16.9332  -16.7741 C   0  0  0  0  0  0  0  0  0  0  0  0
   28.7436  -17.8851  -16.3235 C   0  0  0  0  0  0  0  0  0  0  0  0
   28.4627  -18.6474  -15.2192 C   0  0  0  0  0  0  0  0  0  0  0  0
   27.2640  -18.4225  -14.5671 C   0  0  0  0  0  0  0  0  0  0  0  0
   25.3528  -21.6079  -12.0552 O   0  0  0  0  0  0  0  0  0  0  0  0
   24.2555  -21.6706  -12.6656 O   0  0  0  0  0  0  0  0  0  0  0  0
  2  1  1  6
  2  3  1  0
  3  4  1  0
  5  6  1  0
  5  4  1  0
  7  6  1  0
  8  2  1  0
  8  9  2  0
 10 11  1  0
 11 13  1  0
 12 11  2  0
 13 14  1  0
 14 15  1  0
 15 16  1  0
 17 16  1  1
 17 18  1  0
 18  8  1  0
 19 17  1  0
 19 21  1  0
 20 19  2  0
 22 21  1  0
 22 33  1  0
 22 23  1  6
 24 23  1  0
 24 25  2  0
 26 25  1  0
 27 32  2  0
 27 26  1  0
 28 27  1  0
 29 30  1  0
 29 28  2  0
 30 31  2  0
 31 32  1  0
 32 24  1  0
 33 34  2  0
 33 35  1  0
M  END
$$$$
