KRW.pdb
     RDKit          3D

 35 36  0  0  1  0  0  0  0  0999 V2000
   29.9816  -23.2079  -18.0004 N   0  0  0  0  0  0  0  0  0  0  0  0
   29.5328  -23.5690  -16.6719 C   0  0  1  0  0  0  0  0  0  0  0  0
   30.6678  -23.6148  -15.7033 C   0  0  0  0  0  0  0  0  0  0  0  0
   31.6309  -24.6829  -16.2158 C   0  0  0  0  0  0  0  0  0  0  0  0
   32.8253  -24.8482  -15.3127 C   0  0  0  0  0  0  0  0  0  0  0  0
   33.8794  -25.7584  -15.8720 C   0  0  0  0  0  0  0  0  0  0  0  0
   35.0170  -25.7001  -14.9465 N   0  0  0  0  0  0  0  0  0  0  0  0
   28.4529  -22.6252  -16.3098 C   0  0  0  0  0  0  0  0  0  0  0  0
   28.5884  -21.3710  -16.3390 O   0  0  0  0  0  0  0  0  0  0  0  0
   22.5563  -24.5917  -17.8570 N   0  0  0  0  0  0  0  0  0  0  0  0
   21.8302  -24.6491  -16.6262 C   0  0  0  0  0  0  0  0  0  0  0  0
   21.2209  -25.7179  -16.2389 N   0  0  0  0  0  0  0  0  0  0  0  0
   21.7403  -23.5161  -15.7511 N   0  0  0  0  0  0  0  0  0  0  0  0
   22.2795  -22.2428  -16.1443 C   0  0  0  0  0  0  0  0  0  0  0  0
   23.5969  -21.8913  -15.5473 C   0  0  0  0  0  0  0  0  0  0  0  0
   24.7937  -22.6149  -16.0683 C   0  0  0  0  0  0  0  0  0  0  0  0
   26.0880  -22.3142  -15.4331 C   0  0  2  0  0  0  0  0  0  0  0  0
   27.1961  -23.1092  -15.9070 N   0  0  0  0  0  0  0  0  0  0  0  0
   26.0746  -22.1940  -13.9621 C   0  0  0  0  0  0  0  0  0  0  0  0
   26.7585  -23.0189  -13.3073 O   0  0  0  0  0  0  0  0  0  0  0  0
   21.3164  -26.5691  -16.8362 N   0  0  0  0  0  0  0  0  0  0  0  0
   25.3451  -21.2180  -13.2510 C   0  0  1  0  0  0  0  0  0  0  0  0
   25.3645  -21.0618  -11.8145 C   0  0  0  0  0  0  0  0  0  0  0  0
   26.7619  -20.9875  -11.2474 C   0  0  0  0  0  0  0  0  0  0  0  0
   26.7891  -20.5777   -9.8440 C   0  0  0  0  0  0  0  0  0  0  0  0
   25.7494  -19.9577   -9.1746 N   0  0  0  0  0  0  0  0  0  0  0  0
   26.0895  -19.7209   -7.9126 C   0  0  0  0  0  0  0  0  0  0  0  0
   27.3403  -20.1612   -7.6891 C   0  0  0  0  0  0  0  0  0  0  0  0
   28.1366  -20.1547   -6.5803 C   0  0  0  0  0  0  0  0  0  0  0  0
   29.4039  -20.6985   -6.6820 C   0  0  0  0  0  0  0  0  0  0  0  0
   29.8472  -21.2271   -7.8581 C   0  0  0  0  0  0  0  0  0  0  0  0
   29.0609  -21.2417   -8.9811 C   0  0  0  0  0  0  0  0  0  0  0  0
   27.7918  -20.7000   -8.8880 C   0  0  0  0  0  0  0  0  0  0  0  0
   24.5411  -19.8930  -11.4140 O   0  0  0  0  0  0  0  0  0  0  0  0
   24.6901  -18.8122  -12.0389 O   0  0  0  0  0  0  0  0  0  0  0  0
  2  1  1  6
  2  3  1  0
  3  4  1  0
  5  6  1  0
  5  4  1  0
  7  6  1  0
  8  2  1  0
  8  9  2  0
 10 11  1  0
 11 13  1  0
 12 11  2  0
 13 14  1  0
 14 15  1  0
 15 16  1  0
 17 16  1  1
 17 18  1  0
 18  8  1  0
 19 17  1  0
 19 21  1  0
 20 19  2  0
 22 21  1  0
 22 33  1  0
 22 23  1  1
 24 23  1  0
 24 25  2  0
 26 25  1  0
 27 32  2  0
 27 26  1  0
 28 27  1  0
 29 30  1  0
 29 28  2  0
 30 31  2  0
 31 32  1  0
 32 24  1  0
 33 34  2  0
 33 35  1  0
M  END
$$$$
