KRW.pdb
     RDKit          3D

 35 36  0  0  1  0  0  0  0  0999 V2000
   26.8778  -24.1488  -17.8570 N   0  0  0  0  0  0  0  0  0  0  0  0
   27.4583  -23.3474  -16.7999 C   0  0  1  0  0  0  0  0  0  0  0  0
   28.7712  -22.7670  -17.2099 C   0  0  0  0  0  0  0  0  0  0  0  0
   29.6768  -23.9467  -17.5551 C   0  0  0  0  0  0  0  0  0  0  0  0
   30.4710  -24.4177  -16.3648 C   0  0  0  0  0  0  0  0  0  0  0  0
   31.4624  -25.4956  -16.6931 C   0  0  0  0  0  0  0  0  0  0  0  0
   32.2274  -25.7487  -15.4663 N   0  0  0  0  0  0  0  0  0  0  0  0
   26.4402  -22.3488  -16.4069 C   0  0  0  0  0  0  0  0  0  0  0  0
   26.6690  -21.4038  -15.6026 O   0  0  0  0  0  0  0  0  0  0  0  0
   21.4215  -17.0982  -19.4174 N   0  0  0  0  0  0  0  0  0  0  0  0
   21.8570  -18.1809  -20.2442 C   0  0  0  0  0  0  0  0  0  0  0  0
   22.2526  -18.0000  -21.4584 N   0  0  0  0  0  0  0  0  0  0  0  0
   21.8783  -19.5329  -19.7655 N   0  0  0  0  0  0  0  0  0  0  0  0
   21.1523  -19.9016  -18.5808 C   0  0  0  0  0  0  0  0  0  0  0  0
   21.9856  -20.3319  -17.4249 C   0  0  0  0  0  0  0  0  0  0  0  0
   23.2395  -21.0805  -17.7325 C   0  0  0  0  0  0  0  0  0  0  0  0
   24.0304  -21.5628  -16.5874 C   0  0  2  0  0  0  0  0  0  0  0  0
   25.1389  -22.4205  -16.9335 N   0  0  0  0  0  0  0  0  0  0  0  0
   23.2593  -22.0805  -15.4404 C   0  0  0  0  0  0  0  0  0  0  0  0
   22.6909  -23.1916  -15.5788 O   0  0  0  0  0  0  0  0  0  0  0  0
   22.5720  -18.8400  -21.9903 N   0  0  0  0  0  0  0  0  0  0  0  0
   23.1208  -21.4087  -14.2075 C   0  0  2  0  0  0  0  0  0  0  0  0
   22.4421  -21.9459  -13.0503 C   0  0  0  0  0  0  0  0  0  0  0  0
   22.5420  -21.0504  -11.8386 C   0  0  0  0  0  0  0  0  0  0  0  0
   21.4655  -20.0636  -11.7658 C   0  0  0  0  0  0  0  0  0  0  0  0
   20.5149  -19.9939  -10.7633 N   0  0  0  0  0  0  0  0  0  0  0  0
   19.6815  -18.9840  -10.9873 C   0  0  0  0  0  0  0  0  0  0  0  0
   20.0300  -18.3507  -12.1212 C   0  0  0  0  0  0  0  0  0  0  0  0
   19.5052  -17.2734  -12.7752 C   0  0  0  0  0  0  0  0  0  0  0  0
   20.1121  -16.8604  -13.9470 C   0  0  0  0  0  0  0  0  0  0  0  0
   21.2055  -17.5113  -14.4370 C   0  0  0  0  0  0  0  0  0  0  0  0
   21.7453  -18.5946  -13.7932 C   0  0  0  0  0  0  0  0  0  0  0  0
   21.1445  -19.0142  -12.6203 C   0  0  0  0  0  0  0  0  0  0  0  0
   21.0323  -22.2689  -13.3858 O   0  0  0  0  0  0  0  0  0  0  0  0
   20.3436  -22.8960  -12.5414 O   0  0  0  0  0  0  0  0  0  0  0  0
  2  1  1  6
  2  3  1  0
  3  4  1  0
  5  6  1  0
  5  4  1  0
  7  6  1  0
  8  2  1  0
  8  9  2  0
 10 11  1  0
 11 13  1  0
 12 11  2  0
 13 14  1  0
 14 15  1  0
 15 16  1  0
 17 16  1  6
 17 18  1  0
 18  8  1  0
 19 17  1  0
 19 21  1  0
 20 19  2  0
 22 21  1  0
 22 33  1  0
 22 23  1  1
 24 23  1  0
 24 25  2  0
 26 25  1  0
 27 32  2  0
 27 26  1  0
 28 27  1  0
 29 30  1  0
 29 28  2  0
 30 31  2  0
 31 32  1  0
 32 24  1  0
 33 34  2  0
 33 35  1  0
M  END
$$$$
