KRW.pdb
     RDKit          3D

 35 36  0  0  1  0  0  0  0  0999 V2000
   40.6701  -34.4130  -17.4675 N   0  0  0  0  0  0  0  0  0  0  0  0
   39.9645  -33.1988  -17.1142 C   0  0  1  0  0  0  0  0  0  0  0  0
   40.2664  -32.0916  -18.0688 C   0  0  0  0  0  0  0  0  0  0  0  0
   39.3992  -30.9081  -17.6467 C   0  0  0  0  0  0  0  0  0  0  0  0
   39.6451  -29.6927  -18.5022 C   0  0  0  0  0  0  0  0  0  0  0  0
   38.8689  -28.4846  -18.0661 C   0  0  0  0  0  0  0  0  0  0  0  0
   39.2020  -27.4101  -19.0088 N   0  0  0  0  0  0  0  0  0  0  0  0
   38.5307  -33.5476  -17.0104 C   0  0  0  0  0  0  0  0  0  0  0  0
   37.9620  -34.3797  -17.7695 O   0  0  0  0  0  0  0  0  0  0  0  0
   35.1037  -33.4732   -9.1997 N   0  0  0  0  0  0  0  0  0  0  0  0
   36.1218  -34.1257   -9.9633 C   0  0  0  0  0  0  0  0  0  0  0  0
   36.8355  -35.0837   -9.4770 N   0  0  0  0  0  0  0  0  0  0  0  0
   36.4053  -33.7490  -11.3180 N   0  0  0  0  0  0  0  0  0  0  0  0
   35.5880  -32.7790  -11.9945 C   0  0  0  0  0  0  0  0  0  0  0  0
   35.9991  -32.4522  -13.3872 C   0  0  0  0  0  0  0  0  0  0  0  0
   36.0266  -33.5759  -14.3690 C   0  0  0  0  0  0  0  0  0  0  0  0
   36.3356  -33.2361  -15.7684 C   0  0  2  0  0  0  0  0  0  0  0  0
   37.7251  -32.9436  -16.0295 N   0  0  0  0  0  0  0  0  0  0  0  0
   35.4291  -32.2671  -16.4145 C   0  0  0  0  0  0  0  0  0  0  0  0
   35.7285  -31.0504  -16.3329 O   0  0  0  0  0  0  0  0  0  0  0  0
   37.5818  -35.4850  -10.0873 N   0  0  0  0  0  0  0  0  0  0  0  0
   34.2544  -32.6203  -17.1117 C   0  0  1  0  0  0  0  0  0  0  0  0
   33.4071  -31.6882  -17.8199 C   0  0  0  0  0  0  0  0  0  0  0  0
   34.1817  -30.7401  -18.7036 C   0  0  0  0  0  0  0  0  0  0  0  0
   33.3284  -29.7710  -19.3898 C   0  0  0  0  0  0  0  0  0  0  0  0
   32.8540  -28.5950  -18.8371 N   0  0  0  0  0  0  0  0  0  0  0  0
   32.1108  -27.9372  -19.7200 C   0  0  0  0  0  0  0  0  0  0  0  0
   32.0572  -28.6279  -20.8726 C   0  0  0  0  0  0  0  0  0  0  0  0
   31.4369  -28.3873  -22.0646 C   0  0  0  0  0  0  0  0  0  0  0  0
   31.5821  -29.3180  -23.0770 C   0  0  0  0  0  0  0  0  0  0  0  0
   32.3245  -30.4463  -22.8903 C   0  0  0  0  0  0  0  0  0  0  0  0
   32.9539  -30.7037  -21.6999 C   0  0  0  0  0  0  0  0  0  0  0  0
   32.8141  -29.7778  -20.6820 C   0  0  0  0  0  0  0  0  0  0  0  0
   32.3593  -32.4194  -18.5762 O   0  0  0  0  0  0  0  0  0  0  0  0
   31.4220  -31.7596  -19.0928 O   0  0  0  0  0  0  0  0  0  0  0  0
  2  1  1  6
  2  3  1  0
  3  4  1  0
  5  6  1  0
  5  4  1  0
  7  6  1  0
  8  2  1  0
  8  9  2  0
 10 11  1  0
 11 13  1  0
 12 11  2  0
 13 14  1  0
 14 15  1  0
 15 16  1  0
 17 16  1  1
 17 18  1  0
 18  8  1  0
 19 17  1  0
 19 21  1  0
 20 19  2  0
 22 21  1  0
 22 33  1  0
 22 23  1  1
 24 23  1  0
 24 25  2  0
 26 25  1  0
 27 32  2  0
 27 26  1  0
 28 27  1  0
 29 30  1  0
 29 28  2  0
 30 31  2  0
 31 32  1  0
 32 24  1  0
 33 34  2  0
 33 35  1  0
M  END
$$$$
