KRW.pdb
     RDKit          3D

 35 36  0  0  1  0  0  0  0  0999 V2000
   25.4697  -24.8847  -17.9041 N   0  0  0  0  0  0  0  0  0  0  0  0
   25.3717  -25.6761  -16.6954 C   0  0  1  0  0  0  0  0  0  0  0  0
   25.8727  -27.0661  -16.9081 C   0  0  0  0  0  0  0  0  0  0  0  0
   24.7763  -27.8097  -17.6670 C   0  0  0  0  0  0  0  0  0  0  0  0
   23.8972  -28.6153  -16.7464 C   0  0  0  0  0  0  0  0  0  0  0  0
   22.8096  -29.3650  -17.4586 C   0  0  0  0  0  0  0  0  0  0  0  0
   22.0803  -30.1198  -16.4327 N   0  0  0  0  0  0  0  0  0  0  0  0
   26.0724  -24.9259  -15.6303 C   0  0  0  0  0  0  0  0  0  0  0  0
   27.2899  -25.0972  -15.3466 O   0  0  0  0  0  0  0  0  0  0  0  0
   25.8609  -17.4885  -15.6420 N   0  0  0  0  0  0  0  0  0  0  0  0
   26.8514  -17.9630  -14.7258 C   0  0  0  0  0  0  0  0  0  0  0  0
   27.1376  -17.3316  -13.6382 N   0  0  0  0  0  0  0  0  0  0  0  0
   27.5831  -19.1728  -14.9676 N   0  0  0  0  0  0  0  0  0  0  0  0
   27.3242  -19.9630  -16.1402 C   0  0  0  0  0  0  0  0  0  0  0  0
   26.5393  -21.2076  -15.9154 C   0  0  0  0  0  0  0  0  0  0  0  0
   27.0072  -22.1195  -14.8306 C   0  0  0  0  0  0  0  0  0  0  0  0
   25.9781  -22.8902  -14.1122 C   0  0  2  0  0  0  0  0  0  0  0  0
   25.3829  -23.9638  -14.8720 N   0  0  0  0  0  0  0  0  0  0  0  0
   24.9710  -22.0987  -13.3789 C   0  0  0  0  0  0  0  0  0  0  0  0
   24.1924  -21.3825  -14.0554 O   0  0  0  0  0  0  0  0  0  0  0  0
   27.8937  -17.7279  -13.0368 N   0  0  0  0  0  0  0  0  0  0  0  0
   24.8309  -22.0955  -11.9750 C   0  0  2  0  0  0  0  0  0  0  0  0
   23.8542  -21.3170  -11.2481 C   0  0  0  0  0  0  0  0  0  0  0  0
   24.1900  -21.1670   -9.7837 C   0  0  0  0  0  0  0  0  0  0  0  0
   25.2813  -20.2248   -9.5402 C   0  0  0  0  0  0  0  0  0  0  0  0
   25.5520  -19.1041  -10.3046 N   0  0  0  0  0  0  0  0  0  0  0  0
   26.6056  -18.4575   -9.8183 C   0  0  0  0  0  0  0  0  0  0  0  0
   27.0735  -19.1021   -8.7347 C   0  0  0  0  0  0  0  0  0  0  0  0
   28.1167  -18.8512   -7.8906 C   0  0  0  0  0  0  0  0  0  0  0  0
   28.3374  -19.7286   -6.8449 C   0  0  0  0  0  0  0  0  0  0  0  0
   27.5352  -20.8158   -6.6613 C   0  0  0  0  0  0  0  0  0  0  0  0
   26.4836  -21.0828   -7.4994 C   0  0  0  0  0  0  0  0  0  0  0  0
   26.2556  -20.2100   -8.5477 C   0  0  0  0  0  0  0  0  0  0  0  0
   23.6517  -20.0022  -11.9076 O   0  0  0  0  0  0  0  0  0  0  0  0
   24.5931  -19.5215  -12.5884 O   0  0  0  0  0  0  0  0  0  0  0  0
  2  1  1  6
  2  3  1  0
  3  4  1  0
  5  6  1  0
  5  4  1  0
  7  6  1  0
  8  2  1  0
  8  9  2  0
 10 11  1  0
 11 13  1  0
 12 11  2  0
 13 14  1  0
 14 15  1  0
 15 16  1  0
 17 16  1  6
 17 18  1  0
 18  8  1  0
 19 17  1  0
 19 21  1  0
 20 19  2  0
 22 21  1  0
 22 33  1  0
 22 23  1  6
 24 23  1  0
 24 25  2  0
 26 25  1  0
 27 32  2  0
 27 26  1  0
 28 27  1  0
 29 30  1  0
 29 28  2  0
 30 31  2  0
 31 32  1  0
 32 24  1  0
 33 34  2  0
 33 35  1  0
M  END
$$$$
