KRW.pdb
     RDKit          3D

 35 36  0  0  1  0  0  0  0  0999 V2000
   29.6629  -11.7450  -25.1180 N   0  0  0  0  0  0  0  0  0  0  0  0
   28.6392  -10.8808  -24.5685 C   0  0  1  0  0  0  0  0  0  0  0  0
   27.5460  -10.6305  -25.5538 C   0  0  0  0  0  0  0  0  0  0  0  0
   28.1842   -9.8966  -26.7307 C   0  0  0  0  0  0  0  0  0  0  0  0
   27.1578   -9.4256  -27.7277 C   0  0  0  0  0  0  0  0  0  0  0  0
   27.7500   -8.7093  -28.9060 C   0  0  0  0  0  0  0  0  0  0  0  0
   26.6251   -8.2936  -29.7521 N   0  0  0  0  0  0  0  0  0  0  0  0
   28.1936  -11.4935  -23.2979 C   0  0  0  0  0  0  0  0  0  0  0  0
   28.1021  -12.7397  -23.1228 O   0  0  0  0  0  0  0  0  0  0  0  0
   30.6669   -7.7960  -16.0559 N   0  0  0  0  0  0  0  0  0  0  0  0
   31.4708   -8.7368  -16.7729 C   0  0  0  0  0  0  0  0  0  0  0  0
   32.6629   -9.0500  -16.3928 N   0  0  0  0  0  0  0  0  0  0  0  0
   30.9924   -9.3870  -17.9587 N   0  0  0  0  0  0  0  0  0  0  0  0
   29.5937   -9.3689  -18.2899 C   0  0  0  0  0  0  0  0  0  0  0  0
   29.2090  -10.1531  -19.4951 C   0  0  0  0  0  0  0  0  0  0  0  0
   27.7504  -10.2892  -19.7803 C   0  0  0  0  0  0  0  0  0  0  0  0
   27.3667  -11.1374  -20.9215 C   0  0  2  0  0  0  0  0  0  0  0  0
   27.8450  -10.6811  -22.2050 N   0  0  0  0  0  0  0  0  0  0  0  0
   25.9528  -11.5580  -20.9688 C   0  0  0  0  0  0  0  0  0  0  0  0
   25.1097  -10.7126  -21.3578 O   0  0  0  0  0  0  0  0  0  0  0  0
   33.2130   -9.6870  -17.0109 N   0  0  0  0  0  0  0  0  0  0  0  0
   25.4926  -12.8412  -20.6050 C   0  0  2  0  0  0  0  0  0  0  0  0
   24.1052  -13.2453  -20.5973 C   0  0  0  0  0  0  0  0  0  0  0  0
   23.9169  -14.7159  -20.8829 C   0  0  0  0  0  0  0  0  0  0  0  0
   22.5105  -15.1069  -20.9685 C   0  0  0  0  0  0  0  0  0  0  0  0
   21.6800  -14.8635  -22.0476 N   0  0  0  0  0  0  0  0  0  0  0  0
   20.4654  -15.3478  -21.8134 C   0  0  0  0  0  0  0  0  0  0  0  0
   20.4321  -15.9215  -20.5975 C   0  0  0  0  0  0  0  0  0  0  0  0
   19.4409  -16.5509  -19.9010 C   0  0  0  0  0  0  0  0  0  0  0  0
   19.7366  -17.0428  -18.6430 C   0  0  0  0  0  0  0  0  0  0  0  0
   20.9845  -16.9030  -18.1114 C   0  0  0  0  0  0  0  0  0  0  0  0
   21.9912  -16.2737  -18.7969 C   0  0  0  0  0  0  0  0  0  0  0  0
   21.7041  -15.7790  -20.0561 C   0  0  0  0  0  0  0  0  0  0  0  0
   23.4599  -12.8414  -19.3225 O   0  0  0  0  0  0  0  0  0  0  0  0
   24.1370  -12.8949  -18.2644 O   0  0  0  0  0  0  0  0  0  0  0  0
  2  1  1  6
  2  3  1  0
  3  4  1  0
  5  6  1  0
  5  4  1  0
  7  6  1  0
  8  2  1  0
  8  9  2  0
 10 11  1  0
 11 13  1  0
 12 11  2  0
 13 14  1  0
 14 15  1  0
 15 16  1  0
 17 16  1  1
 17 18  1  0
 18  8  1  0
 19 17  1  0
 19 21  1  0
 20 19  2  0
 22 21  1  0
 22 33  1  0
 22 23  1  6
 24 23  1  0
 24 25  2  0
 26 25  1  0
 27 32  2  0
 27 26  1  0
 28 27  1  0
 29 30  1  0
 29 28  2  0
 30 31  2  0
 31 32  1  0
 32 24  1  0
 33 34  2  0
 33 35  1  0
M  END
$$$$
