KRW.pdb
     RDKit          3D

 35 36  0  0  1  0  0  0  0  0999 V2000
   23.2335  -18.9696  -16.5990 N   0  0  0  0  0  0  0  0  0  0  0  0
   23.6860  -18.2627  -15.4191 C   0  0  1  0  0  0  0  0  0  0  0  0
   23.1195  -16.8830  -15.3556 C   0  0  0  0  0  0  0  0  0  0  0  0
   23.7096  -16.1183  -16.5380 C   0  0  0  0  0  0  0  0  0  0  0  0
   22.6422  -15.5994  -17.4658 C   0  0  0  0  0  0  0  0  0  0  0  0
   23.1808  -14.7783  -18.6008 C   0  0  0  0  0  0  0  0  0  0  0  0
   24.3952  -14.1213  -18.1030 N   0  0  0  0  0  0  0  0  0  0  0  0
   23.3616  -19.1150  -14.2544 C   0  0  0  0  0  0  0  0  0  0  0  0
   22.2021  -19.2106  -13.7657 O   0  0  0  0  0  0  0  0  0  0  0  0
   24.4191  -24.5226  -16.8163 N   0  0  0  0  0  0  0  0  0  0  0  0
   23.3432  -24.7798  -15.9097 C   0  0  0  0  0  0  0  0  0  0  0  0
   22.1664  -25.1127  -16.3193 N   0  0  0  0  0  0  0  0  0  0  0  0
   23.5156  -24.6820  -14.4890 N   0  0  0  0  0  0  0  0  0  0  0  0
   24.7936  -24.3369  -13.9287 C   0  0  0  0  0  0  0  0  0  0  0  0
   25.0037  -22.8896  -13.6518 C   0  0  0  0  0  0  0  0  0  0  0  0
   23.9286  -22.1786  -12.8995 C   0  0  0  0  0  0  0  0  0  0  0  0
   24.1883  -20.7791  -12.5210 C   0  0  2  0  0  0  0  0  0  0  0  0
   24.3675  -19.8733  -13.6307 N   0  0  0  0  0  0  0  0  0  0  0  0
   25.1944  -20.5713  -11.4612 C   0  0  0  0  0  0  0  0  0  0  0  0
   26.2304  -19.9296  -11.7640 O   0  0  0  0  0  0  0  0  0  0  0  0
   21.4185  -25.2194  -15.5984 N   0  0  0  0  0  0  0  0  0  0  0  0
   25.0661  -21.0469  -10.1391 C   0  0  1  0  0  0  0  0  0  0  0  0
   26.1590  -21.1773   -9.2027 C   0  0  0  0  0  0  0  0  0  0  0  0
   26.9133  -19.8864   -8.9920 C   0  0  0  0  0  0  0  0  0  0  0  0
   28.0814  -20.0408   -8.1262 C   0  0  0  0  0  0  0  0  0  0  0  0
   29.2349  -20.7280   -8.4591 N   0  0  0  0  0  0  0  0  0  0  0  0
   30.1065  -20.6786   -7.4579 C   0  0  0  0  0  0  0  0  0  0  0  0
   29.5863  -19.9740   -6.4375 C   0  0  0  0  0  0  0  0  0  0  0  0
   30.0703  -19.6397   -5.2055 C   0  0  0  0  0  0  0  0  0  0  0  0
   29.2667  -18.8866   -4.3694 C   0  0  0  0  0  0  0  0  0  0  0  0
   28.0237  -18.4883   -4.7641 C   0  0  0  0  0  0  0  0  0  0  0  0
   27.5222  -18.8152   -5.9974 C   0  0  0  0  0  0  0  0  0  0  0  0
   28.3196  -19.5680   -6.8400 C   0  0  0  0  0  0  0  0  0  0  0  0
   25.6723  -21.7500   -7.9222 O   0  0  0  0  0  0  0  0  0  0  0  0
   26.3933  -22.5925   -7.3298 O   0  0  0  0  0  0  0  0  0  0  0  0
  2  1  1  6
  2  3  1  0
  3  4  1  0
  5  6  1  0
  5  4  1  0
  7  6  1  0
  8  2  1  0
  8  9  2  0
 10 11  1  0
 11 13  1  0
 12 11  2  0
 13 14  1  0
 14 15  1  0
 15 16  1  0
 17 16  1  6
 17 18  1  0
 18  8  1  0
 19 17  1  0
 19 21  1  0
 20 19  2  0
 22 21  1  0
 22 33  1  0
 22 23  1  1
 24 23  1  0
 24 25  2  0
 26 25  1  0
 27 32  2  0
 27 26  1  0
 28 27  1  0
 29 30  1  0
 29 28  2  0
 30 31  2  0
 31 32  1  0
 32 24  1  0
 33 34  2  0
 33 35  1  0
M  END
$$$$
