KRW.pdb
     RDKit          3D

 35 36  0  0  1  0  0  0  0  0999 V2000
   28.4772  -17.6131  -21.6436 N   0  0  0  0  0  0  0  0  0  0  0  0
   28.8376  -18.1149  -20.3340 C   0  0  1  0  0  0  0  0  0  0  0  0
   29.2627  -17.0120  -19.4222 C   0  0  0  0  0  0  0  0  0  0  0  0
   30.5056  -16.3863  -20.0505 C   0  0  0  0  0  0  0  0  0  0  0  0
   30.5918  -14.9065  -19.7815 C   0  0  0  0  0  0  0  0  0  0  0  0
   31.7321  -14.5250  -18.8836 C   0  0  0  0  0  0  0  0  0  0  0  0
   31.7953  -13.0586  -18.8869 N   0  0  0  0  0  0  0  0  0  0  0  0
   27.6892  -18.9089  -19.8451 C   0  0  0  0  0  0  0  0  0  0  0  0
   26.4864  -18.5683  -20.0166 O   0  0  0  0  0  0  0  0  0  0  0  0
   25.1188  -25.6975  -15.7116 N   0  0  0  0  0  0  0  0  0  0  0  0
   25.5915  -25.8491  -17.0529 C   0  0  0  0  0  0  0  0  0  0  0  0
   24.9541  -26.5485  -17.9294 N   0  0  0  0  0  0  0  0  0  0  0  0
   26.8053  -25.2281  -17.4985 N   0  0  0  0  0  0  0  0  0  0  0  0
   27.4880  -24.2748  -16.6669 C   0  0  0  0  0  0  0  0  0  0  0  0
   27.1055  -22.8514  -16.8745 C   0  0  0  0  0  0  0  0  0  0  0  0
   27.2473  -22.3041  -18.2556 C   0  0  0  0  0  0  0  0  0  0  0  0
   26.9055  -20.8852  -18.4529 C   0  0  2  0  0  0  0  0  0  0  0  0
   27.9056  -20.1109  -19.1489 N   0  0  0  0  0  0  0  0  0  0  0  0
   26.3719  -20.1778  -17.2725 C   0  0  0  0  0  0  0  0  0  0  0  0
   27.1956  -19.7942  -16.4058 O   0  0  0  0  0  0  0  0  0  0  0  0
   25.3763  -26.6274  -18.8812 N   0  0  0  0  0  0  0  0  0  0  0  0
   25.0035  -19.9092  -17.0582 C   0  0  2  0  0  0  0  0  0  0  0  0
   24.4847  -19.0872  -15.9888 C   0  0  0  0  0  0  0  0  0  0  0  0
   24.0846  -17.7053  -16.4472 C   0  0  0  0  0  0  0  0  0  0  0  0
   22.9722  -17.7167  -17.3961 C   0  0  0  0  0  0  0  0  0  0  0  0
   21.6554  -17.9952  -17.0770 N   0  0  0  0  0  0  0  0  0  0  0  0
   20.8919  -17.9193  -18.1613 C   0  0  0  0  0  0  0  0  0  0  0  0
   21.6466  -17.5950  -19.2261 C   0  0  0  0  0  0  0  0  0  0  0  0
   21.3477  -17.3983  -20.5436 C   0  0  0  0  0  0  0  0  0  0  0  0
   22.3769  -17.0660  -21.4052 C   0  0  0  0  0  0  0  0  0  0  0  0
   23.6565  -16.9383  -20.9518 C   0  0  0  0  0  0  0  0  0  0  0  0
   23.9743  -17.1324  -19.6324 C   0  0  0  0  0  0  0  0  0  0  0  0
   22.9507  -17.4647  -18.7638 C   0  0  0  0  0  0  0  0  0  0  0  0
   23.3715  -19.7858  -15.2981 O   0  0  0  0  0  0  0  0  0  0  0  0
   22.8815  -20.8112  -15.8359 O   0  0  0  0  0  0  0  0  0  0  0  0
  2  1  1  6
  2  3  1  0
  3  4  1  0
  5  6  1  0
  5  4  1  0
  7  6  1  0
  8  2  1  0
  8  9  2  0
 10 11  1  0
 11 13  1  0
 12 11  2  0
 13 14  1  0
 14 15  1  0
 15 16  1  0
 17 16  1  1
 17 18  1  0
 18  8  1  0
 19 17  1  0
 19 21  1  0
 20 19  2  0
 22 21  1  0
 22 33  1  0
 22 23  1  6
 24 23  1  0
 24 25  2  0
 26 25  1  0
 27 32  2  0
 27 26  1  0
 28 27  1  0
 29 30  1  0
 29 28  2  0
 30 31  2  0
 31 32  1  0
 32 24  1  0
 33 34  2  0
 33 35  1  0
M  END
$$$$
