AAM.pdb
     RDKit          3D

 19 18  0  0  1  0  0  0  0  0999 V2000
    9.1600  -12.2763   19.7523 C   0  0  0  0  0  0  0  0  0  0  0  0
    8.4858  -13.5242   19.2698 C   0  0  2  0  0  0  0  0  0  0  0  0
    7.3121  -13.1591   18.5120 N   0  0  0  0  0  0  0  0  0  0  0  0
    8.1223  -14.3727   20.4450 C   0  0  0  0  0  0  0  0  0  0  0  0
    7.1611  -14.0557   21.1910 O   0  0  0  0  0  0  0  0  0  0  0  0
    9.0190  -17.7215   21.7166 C   0  0  0  0  0  0  0  0  0  0  0  0
    8.5245  -16.3314   21.9467 C   0  0  2  0  0  0  0  0  0  0  0  0
    8.8385  -15.5561   20.7630 N   0  0  0  0  0  0  0  0  0  0  0  0
    9.1328  -15.7023   23.1474 C   0  0  0  0  0  0  0  0  0  0  0  0
   10.2147  -15.1107   23.0192 O   0  0  0  0  0  0  0  0  0  0  0  0
    5.7517  -11.4305   25.7824 C   0  0  0  0  0  0  0  0  0  0  0  0
    6.5961  -12.3652   27.0791 S   0  0  0  0  0  0  0  0  0  0  0  0
    7.1966  -13.9249   26.3614 C   0  0  0  0  0  0  0  0  0  0  0  0
    8.6685  -13.8023   25.9832 C   0  0  0  0  0  0  0  0  0  0  0  0
    9.1930  -15.1332   25.5446 C   0  0  2  0  0  0  0  0  0  0  0  0
    8.5627  -15.7305   24.4358 N   0  0  0  0  0  0  0  0  0  0  0  0
    9.3516  -16.0479   26.6968 C   0  0  0  0  0  0  0  0  0  0  0  0
    8.8130  -17.3036   26.6494 O   0  0  0  0  0  0  0  0  0  0  0  0
    9.9746  -15.6624   27.6958 O   0  0  0  0  0  0  0  0  0  0  0  0
  2  3  1  0
  2  1  1  1
  4  2  1  0
  5  4  2  0
  7  6  1  6
  7  9  1  0
  7  8  1  0
  8  4  1  0
  9 10  2  0
 11 12  1  0
 12 13  1  0
 14 13  1  0
 15 14  1  1
 16 15  1  0
 16  9  1  0
 17 18  1  0
 17 15  1  0
 19 17  2  0
M  END
$$$$
