AAM.pdb
     RDKit          3D

 19 18  0  0  1  0  0  0  0  0999 V2000
    8.6937  -12.0119   19.6201 C   0  0  0  0  0  0  0  0  0  0  0  0
    8.6252  -13.3771   19.0070 C   0  0  2  0  0  0  0  0  0  0  0  0
    7.7382  -13.3350   17.8684 N   0  0  0  0  0  0  0  0  0  0  0  0
    8.1383  -14.3518   20.0298 C   0  0  0  0  0  0  0  0  0  0  0  0
    6.9120  -14.4478   20.2903 O   0  0  0  0  0  0  0  0  0  0  0  0
    9.2040  -17.4983   21.2963 C   0  0  0  0  0  0  0  0  0  0  0  0
    8.5388  -16.2103   21.6544 C   0  0  2  0  0  0  0  0  0  0  0  0
    9.0292  -15.1980   20.7401 N   0  0  0  0  0  0  0  0  0  0  0  0
    8.8040  -15.8038   23.0587 C   0  0  0  0  0  0  0  0  0  0  0  0
    9.9141  -15.3259   23.3348 O   0  0  0  0  0  0  0  0  0  0  0  0
    6.3417  -10.7544   26.3739 C   0  0  0  0  0  0  0  0  0  0  0  0
    6.6611  -12.3859   27.0840 S   0  0  0  0  0  0  0  0  0  0  0  0
    6.7944  -13.5859   25.7237 C   0  0  0  0  0  0  0  0  0  0  0  0
    7.1278  -14.9702   26.2688 C   0  0  0  0  0  0  0  0  0  0  0  0
    8.2050  -15.5966   25.4403 C   0  0  2  0  0  0  0  0  0  0  0  0
    7.8746  -15.9243   24.1110 N   0  0  0  0  0  0  0  0  0  0  0  0
    8.8657  -16.6991   26.1732 C   0  0  0  0  0  0  0  0  0  0  0  0
    9.6452  -16.4230   27.2621 O   0  0  0  0  0  0  0  0  0  0  0  0
    8.7032  -17.8656   25.7892 O   0  0  0  0  0  0  0  0  0  0  0  0
  2  3  1  0
  2  1  1  1
  4  2  1  0
  5  4  2  0
  7  6  1  6
  7  9  1  0
  7  8  1  0
  8  4  1  0
  9 10  2  0
 11 12  1  0
 12 13  1  0
 14 13  1  0
 15 14  1  1
 16 15  1  0
 16  9  1  0
 17 18  1  0
 17 15  1  0
 19 17  2  0
M  END
$$$$
