AAM.pdb
     RDKit          3D

 19 18  0  0  1  0  0  0  0  0999 V2000
   12.1592  -14.0559   20.6872 C   0  0  0  0  0  0  0  0  0  0  0  0
   11.1036  -14.6500   19.8056 C   0  0  2  0  0  0  0  0  0  0  0  0
   10.7346  -13.6820   18.7996 N   0  0  0  0  0  0  0  0  0  0  0  0
    9.9239  -15.0320   20.6397 C   0  0  0  0  0  0  0  0  0  0  0  0
    8.8682  -14.3500   20.6065 O   0  0  0  0  0  0  0  0  0  0  0  0
    8.8251  -18.1924   22.0088 C   0  0  0  0  0  0  0  0  0  0  0  0
    8.7284  -16.7034   22.0649 C   0  0  2  0  0  0  0  0  0  0  0  0
    9.9471  -16.1661   21.4928 N   0  0  0  0  0  0  0  0  0  0  0  0
    8.5458  -16.1965   23.4495 C   0  0  0  0  0  0  0  0  0  0  0  0
    7.5669  -16.5933   24.0986 O   0  0  0  0  0  0  0  0  0  0  0  0
    6.1967  -11.3544   25.2900 C   0  0  0  0  0  0  0  0  0  0  0  0
    6.4875  -12.0385   26.9379 S   0  0  0  0  0  0  0  0  0  0  0  0
    7.8753  -13.2096   26.8346 C   0  0  0  0  0  0  0  0  0  0  0  0
    7.9557  -13.8143   25.4373 C   0  0  0  0  0  0  0  0  0  0  0  0
    9.1275  -14.7407   25.3512 C   0  0  2  0  0  0  0  0  0  0  0  0
    9.4141  -15.2866   24.0849 N   0  0  0  0  0  0  0  0  0  0  0  0
    9.0886  -15.7490   26.4334 C   0  0  0  0  0  0  0  0  0  0  0  0
    9.2748  -15.3630   27.7317 O   0  0  0  0  0  0  0  0  0  0  0  0
    8.8860  -16.9374   26.1480 O   0  0  0  0  0  0  0  0  0  0  0  0
  2  3  1  0
  2  1  1  1
  4  2  1  0
  5  4  2  0
  7  6  1  1
  7  9  1  0
  7  8  1  0
  8  4  1  0
  9 10  2  0
 11 12  1  0
 12 13  1  0
 14 13  1  0
 15 14  1  6
 16 15  1  0
 16  9  1  0
 17 18  1  0
 17 15  1  0
 19 17  2  0
M  END
$$$$
