AAM.pdb
     RDKit          3D

 19 18  0  0  1  0  0  0  0  0999 V2000
    6.0682  -18.8661   22.7920 C   0  0  0  0  0  0  0  0  0  0  0  0
    6.1679  -18.3979   21.3724 C   0  0  2  0  0  0  0  0  0  0  0  0
    6.5040  -19.5223   20.5311 N   0  0  0  0  0  0  0  0  0  0  0  0
    7.2082  -17.3290   21.2789 C   0  0  0  0  0  0  0  0  0  0  0  0
    8.4308  -17.6211   21.3054 O   0  0  0  0  0  0  0  0  0  0  0  0
    7.2464  -13.6721   20.6484 C   0  0  0  0  0  0  0  0  0  0  0  0
    7.8762  -14.9216   21.1698 C   0  0  2  0  0  0  0  0  0  0  0  0
    6.8626  -15.9577   21.1581 N   0  0  0  0  0  0  0  0  0  0  0  0
    8.4220  -14.7545   22.5416 C   0  0  0  0  0  0  0  0  0  0  0  0
    9.4090  -14.0209   22.6984 O   0  0  0  0  0  0  0  0  0  0  0  0
    7.0739  -10.3994   27.0618 C   0  0  0  0  0  0  0  0  0  0  0  0
    6.5956  -12.1385   26.9403 S   0  0  0  0  0  0  0  0  0  0  0  0
    7.9090  -13.0327   26.0551 C   0  0  0  0  0  0  0  0  0  0  0  0
    7.5866  -14.5214   25.9914 C   0  0  0  0  0  0  0  0  0  0  0  0
    8.4528  -15.1856   24.9679 C   0  0  2  0  0  0  0  0  0  0  0  0
    7.8932  -15.3771   23.6897 N   0  0  0  0  0  0  0  0  0  0  0  0
    9.0922  -16.4002   25.5203 C   0  0  0  0  0  0  0  0  0  0  0  0
    9.7826  -16.3314   26.6984 O   0  0  0  0  0  0  0  0  0  0  0  0
    8.9931  -17.4709   24.9051 O   0  0  0  0  0  0  0  0  0  0  0  0
  2  3  1  0
  2  1  1  1
  4  2  1  0
  5  4  2  0
  7  6  1  1
  7  9  1  0
  7  8  1  0
  8  4  1  0
  9 10  2  0
 11 12  1  0
 12 13  1  0
 14 13  1  0
 15 14  1  1
 16 15  1  0
 16  9  1  0
 17 18  1  0
 17 15  1  0
 19 17  2  0
M  END
$$$$
