AAM.pdb
     RDKit          3D

 19 18  0  0  1  0  0  0  0  0999 V2000
    8.6416  -12.1972   19.3851 C   0  0  0  0  0  0  0  0  0  0  0  0
    8.5142  -13.5898   18.8478 C   0  0  2  0  0  0  0  0  0  0  0  0
    7.3502  -13.6583   17.9959 N   0  0  0  0  0  0  0  0  0  0  0  0
    8.4004  -14.5486   19.9885 C   0  0  0  0  0  0  0  0  0  0  0  0
    7.3167  -14.6747   20.6135 O   0  0  0  0  0  0  0  0  0  0  0  0
   10.3994  -17.3412   21.3217 C   0  0  0  0  0  0  0  0  0  0  0  0
    9.3756  -16.2716   21.5161 C   0  0  2  0  0  0  0  0  0  0  0  0
    9.4973  -15.3458   20.4075 N   0  0  0  0  0  0  0  0  0  0  0  0
    9.5419  -15.5519   22.8052 C   0  0  0  0  0  0  0  0  0  0  0  0
    9.8145  -14.3429   22.7749 O   0  0  0  0  0  0  0  0  0  0  0  0
    6.4221  -11.4006   27.5866 C   0  0  0  0  0  0  0  0  0  0  0  0
    6.2057  -12.7377   26.3893 S   0  0  0  0  0  0  0  0  0  0  0  0
    7.6588  -13.8277   26.4799 C   0  0  0  0  0  0  0  0  0  0  0  0
    7.8816  -14.5264   25.1433 C   0  0  0  0  0  0  0  0  0  0  0  0
    9.0912  -15.4035   25.2237 C   0  0  2  0  0  0  0  0  0  0  0  0
    9.4113  -16.1512   24.0739 N   0  0  0  0  0  0  0  0  0  0  0  0
    9.0840  -16.2061   26.4666 C   0  0  0  0  0  0  0  0  0  0  0  0
    9.1268  -17.5709   26.3970 O   0  0  0  0  0  0  0  0  0  0  0  0
    9.0394  -15.6282   27.5615 O   0  0  0  0  0  0  0  0  0  0  0  0
  2  3  1  0
  2  1  1  1
  4  2  1  0
  5  4  2  0
  7  6  1  6
  7  9  1  0
  7  8  1  0
  8  4  1  0
  9 10  2  0
 11 12  1  0
 12 13  1  0
 14 13  1  0
 15 14  1  6
 16 15  1  0
 16  9  1  0
 17 18  1  0
 17 15  1  0
 19 17  2  0
M  END
$$$$
