AAM.pdb
     RDKit          3D

 19 18  0  0  1  0  0  0  0  0999 V2000
    8.5499  -12.1411   19.6096 C   0  0  0  0  0  0  0  0  0  0  0  0
    8.4913  -13.5398   19.0760 C   0  0  2  0  0  0  0  0  0  0  0  0
    7.5320  -13.5898   17.9978 N   0  0  0  0  0  0  0  0  0  0  0  0
    8.1064  -14.4714   20.1793 C   0  0  0  0  0  0  0  0  0  0  0  0
    6.9262  -14.4987   20.6120 O   0  0  0  0  0  0  0  0  0  0  0  0
    9.3471  -17.5967   21.4851 C   0  0  0  0  0  0  0  0  0  0  0  0
    8.6423  -16.3143   21.7825 C   0  0  2  0  0  0  0  0  0  0  0  0
    9.0457  -15.3522   20.7761 N   0  0  0  0  0  0  0  0  0  0  0  0
    8.9521  -15.7959   23.1400 C   0  0  0  0  0  0  0  0  0  0  0  0
   10.0433  -15.2365   23.3230 O   0  0  0  0  0  0  0  0  0  0  0  0
    6.6636  -11.0991   27.2347 C   0  0  0  0  0  0  0  0  0  0  0  0
    5.7934  -12.3514   26.2637 S   0  0  0  0  0  0  0  0  0  0  0  0
    7.0301  -13.3627   25.3942 C   0  0  0  0  0  0  0  0  0  0  0  0
    7.3981  -14.5840   26.2293 C   0  0  0  0  0  0  0  0  0  0  0  0
    8.4344  -15.3939   25.5158 C   0  0  2  0  0  0  0  0  0  0  0  0
    8.0858  -15.8959   24.2469 N   0  0  0  0  0  0  0  0  0  0  0  0
    9.0225  -16.4133   26.4126 C   0  0  0  0  0  0  0  0  0  0  0  0
    9.6487  -16.0275   27.5651 O   0  0  0  0  0  0  0  0  0  0  0  0
    8.9392  -17.6109   26.1065 O   0  0  0  0  0  0  0  0  0  0  0  0
  2  3  1  0
  2  1  1  1
  4  2  1  0
  5  4  2  0
  7  6  1  6
  7  9  1  0
  7  8  1  0
  8  4  1  0
  9 10  2  0
 11 12  1  0
 12 13  1  0
 14 13  1  0
 15 14  1  1
 16 15  1  0
 16  9  1  0
 17 18  1  0
 17 15  1  0
 19 17  2  0
M  END
$$$$
