AAM.pdb
     RDKit          3D

 19 18  0  0  1  0  0  0  0  0999 V2000
    8.4539  -12.3378   19.3940 C   0  0  0  0  0  0  0  0  0  0  0  0
    8.3189  -13.7388   18.8807 C   0  0  2  0  0  0  0  0  0  0  0  0
    7.1177  -13.8321   18.0848 N   0  0  0  0  0  0  0  0  0  0  0  0
    8.2700  -14.6838   20.0374 C   0  0  0  0  0  0  0  0  0  0  0  0
    7.2226  -14.8039   20.7225 O   0  0  0  0  0  0  0  0  0  0  0  0
   10.3857  -17.4282   21.3115 C   0  0  0  0  0  0  0  0  0  0  0  0
    9.3274  -16.3960   21.5220 C   0  0  2  0  0  0  0  0  0  0  0  0
    9.3901  -15.4741   20.4052 N   0  0  0  0  0  0  0  0  0  0  0  0
    9.4953  -15.6615   22.8025 C   0  0  0  0  0  0  0  0  0  0  0  0
    9.8781  -14.4830   22.7607 O   0  0  0  0  0  0  0  0  0  0  0  0
    6.3660  -11.3312   27.6219 C   0  0  0  0  0  0  0  0  0  0  0  0
    6.3558  -12.3977   26.1622 S   0  0  0  0  0  0  0  0  0  0  0  0
    7.7013  -13.6100   26.3299 C   0  0  0  0  0  0  0  0  0  0  0  0
    7.8543  -14.4135   25.0433 C   0  0  0  0  0  0  0  0  0  0  0  0
    8.9598  -15.4103   25.1950 C   0  0  2  0  0  0  0  0  0  0  0  0
    9.2487  -16.2140   24.0751 N   0  0  0  0  0  0  0  0  0  0  0  0
    8.8140  -16.1786   26.4511 C   0  0  0  0  0  0  0  0  0  0  0  0
    9.1570  -15.6059   27.6442 O   0  0  0  0  0  0  0  0  0  0  0  0
    8.3799  -17.3380   26.4058 O   0  0  0  0  0  0  0  0  0  0  0  0
  2  3  1  0
  2  1  1  1
  4  2  1  0
  5  4  2  0
  7  6  1  6
  7  9  1  0
  7  8  1  0
  8  4  1  0
  9 10  2  0
 11 12  1  0
 12 13  1  0
 14 13  1  0
 15 14  1  6
 16 15  1  0
 16  9  1  0
 17 18  1  0
 17 15  1  0
 19 17  2  0
M  END
$$$$
