AAM.pdb
     RDKit          3D

 19 18  0  0  1  0  0  0  0  0999 V2000
    7.5589  -18.6616   18.7957 C   0  0  0  0  0  0  0  0  0  0  0  0
    7.5835  -18.3140   20.2528 C   0  0  2  0  0  0  0  0  0  0  0  0
    6.2262  -18.2471   20.7411 N   0  0  0  0  0  0  0  0  0  0  0  0
    8.2833  -17.0062   20.4348 C   0  0  0  0  0  0  0  0  0  0  0  0
    9.5375  -16.9375   20.3774 O   0  0  0  0  0  0  0  0  0  0  0  0
    7.4230  -13.4910   20.1652 C   0  0  0  0  0  0  0  0  0  0  0  0
    8.2577  -14.5367   20.8281 C   0  0  2  0  0  0  0  0  0  0  0  0
    7.5696  -15.8035   20.6769 N   0  0  0  0  0  0  0  0  0  0  0  0
    8.4926  -14.2500   22.2669 C   0  0  0  0  0  0  0  0  0  0  0  0
    8.0319  -13.2019   22.7424 O   0  0  0  0  0  0  0  0  0  0  0  0
    6.1124  -11.1895   26.9674 C   0  0  0  0  0  0  0  0  0  0  0  0
    6.1942  -12.9478   26.5555 S   0  0  0  0  0  0  0  0  0  0  0  0
    7.6742  -13.2284   25.5362 C   0  0  0  0  0  0  0  0  0  0  0  0
    7.7417  -14.6844   25.0892 C   0  0  0  0  0  0  0  0  0  0  0  0
    9.1006  -14.9848   24.5395 C   0  0  2  0  0  0  0  0  0  0  0  0
    9.2100  -15.0925   23.1394 N   0  0  0  0  0  0  0  0  0  0  0  0
    9.7329  -16.1061   25.2688 C   0  0  0  0  0  0  0  0  0  0  0  0
   10.0647  -17.2525   24.6017 O   0  0  0  0  0  0  0  0  0  0  0  0
    9.9557  -15.9915   26.4821 O   0  0  0  0  0  0  0  0  0  0  0  0
  2  3  1  0
  2  1  1  6
  4  2  1  0
  5  4  2  0
  7  6  1  1
  7  9  1  0
  7  8  1  0
  8  4  1  0
  9 10  2  0
 11 12  1  0
 12 13  1  0
 14 13  1  0
 15 14  1  6
 16 15  1  0
 16  9  1  0
 17 18  1  0
 17 15  1  0
 19 17  2  0
M  END
$$$$
