AAM.pdb
     RDKit          3D

 19 18  0  0  1  0  0  0  0  0999 V2000
    6.9976  -18.4528   19.8869 C   0  0  0  0  0  0  0  0  0  0  0  0
    7.6760  -17.4234   19.0356 C   0  0  2  0  0  0  0  0  0  0  0  0
    8.7071  -18.0665   18.2557 N   0  0  0  0  0  0  0  0  0  0  0  0
    8.2529  -16.3611   19.9143 C   0  0  0  0  0  0  0  0  0  0  0  0
    9.3557  -16.5369   20.4920 O   0  0  0  0  0  0  0  0  0  0  0  0
    7.4059  -12.8444   20.7558 C   0  0  0  0  0  0  0  0  0  0  0  0
    8.1349  -14.1207   21.0190 C   0  0  2  0  0  0  0  0  0  0  0  0
    7.5875  -15.1261   20.1299 N   0  0  0  0  0  0  0  0  0  0  0  0
    8.0131  -14.5651   22.4315 C   0  0  0  0  0  0  0  0  0  0  0  0
    7.0862  -15.3322   22.7307 O   0  0  0  0  0  0  0  0  0  0  0  0
    6.7124  -11.5004   27.7859 C   0  0  0  0  0  0  0  0  0  0  0  0
    5.8169  -12.1460   26.3544 S   0  0  0  0  0  0  0  0  0  0  0  0
    7.0322  -12.7552   25.1462 C   0  0  0  0  0  0  0  0  0  0  0  0
    7.3593  -14.2197   25.4155 C   0  0  0  0  0  0  0  0  0  0  0  0
    8.6803  -14.5662   24.8040 C   0  0  2  0  0  0  0  0  0  0  0  0
    8.8843  -14.1726   23.4672 N   0  0  0  0  0  0  0  0  0  0  0  0
    9.0314  -15.9799   25.0633 C   0  0  0  0  0  0  0  0  0  0  0  0
    9.0319  -16.4584   26.3440 O   0  0  0  0  0  0  0  0  0  0  0  0
    9.3219  -16.7171   24.1109 O   0  0  0  0  0  0  0  0  0  0  0  0
  2  3  1  0
  2  1  1  1
  4  2  1  0
  5  4  2  0
  7  6  1  1
  7  9  1  0
  7  8  1  0
  8  4  1  0
  9 10  2  0
 11 12  1  0
 12 13  1  0
 14 13  1  0
 15 14  1  6
 16 15  1  0
 16  9  1  0
 17 18  1  0
 17 15  1  0
 19 17  2  0
M  END
$$$$
