AAM.pdb
     RDKit          3D

 19 18  0  0  1  0  0  0  0  0999 V2000
    8.6557  -12.0584   19.4557 C   0  0  0  0  0  0  0  0  0  0  0  0
    8.5819  -13.4423   18.8868 C   0  0  2  0  0  0  0  0  0  0  0  0
    7.6148  -13.4567   17.8145 N   0  0  0  0  0  0  0  0  0  0  0  0
    8.1969  -14.3989   19.9685 C   0  0  0  0  0  0  0  0  0  0  0  0
    7.0025  -14.4852   20.3518 O   0  0  0  0  0  0  0  0  0  0  0  0
    9.4686  -17.5121   21.1996 C   0  0  0  0  0  0  0  0  0  0  0  0
    8.7497  -16.2521   21.5538 C   0  0  2  0  0  0  0  0  0  0  0  0
    9.1519  -15.2382   20.5992 N   0  0  0  0  0  0  0  0  0  0  0  0
    9.0443  -15.7984   22.9376 C   0  0  0  0  0  0  0  0  0  0  0  0
   10.1256  -15.2322   23.1551 O   0  0  0  0  0  0  0  0  0  0  0  0
    6.2157  -10.6036   26.0614 C   0  0  0  0  0  0  0  0  0  0  0  0
    6.1030  -12.3487   26.5197 S   0  0  0  0  0  0  0  0  0  0  0  0
    7.4022  -13.2590   25.6299 C   0  0  0  0  0  0  0  0  0  0  0  0
    7.3835  -14.7313   26.0253 C   0  0  0  0  0  0  0  0  0  0  0  0
    8.4769  -15.4629   25.3124 C   0  0  2  0  0  0  0  0  0  0  0  0
    8.1741  -15.9678   24.0329 N   0  0  0  0  0  0  0  0  0  0  0  0
    9.1199  -16.4554   26.2016 C   0  0  0  0  0  0  0  0  0  0  0  0
    9.7690  -16.0394   27.3307 O   0  0  0  0  0  0  0  0  0  0  0  0
    9.0614  -17.6582   25.9105 O   0  0  0  0  0  0  0  0  0  0  0  0
  2  3  1  0
  2  1  1  1
  4  2  1  0
  5  4  2  0
  7  6  1  6
  7  9  1  0
  7  8  1  0
  8  4  1  0
  9 10  2  0
 11 12  1  0
 12 13  1  0
 14 13  1  0
 15 14  1  1
 16 15  1  0
 16  9  1  0
 17 18  1  0
 17 15  1  0
 19 17  2  0
M  END
$$$$
