AAM.pdb
     RDKit          3D

 19 18  0  0  1  0  0  0  0  0999 V2000
    7.3556  -12.9763   18.2248 C   0  0  0  0  0  0  0  0  0  0  0  0
    8.6507  -13.3421   18.8832 C   0  0  2  0  0  0  0  0  0  0  0  0
    9.5085  -13.9752   17.9093 N   0  0  0  0  0  0  0  0  0  0  0  0
    8.3770  -14.2581   20.0319 C   0  0  0  0  0  0  0  0  0  0  0  0
    7.5364  -13.9463   20.9134 O   0  0  0  0  0  0  0  0  0  0  0  0
    9.5288  -17.6516   21.0534 C   0  0  0  0  0  0  0  0  0  0  0  0
    8.7463  -16.3986   21.2710 C   0  0  2  0  0  0  0  0  0  0  0  0
    9.0466  -15.5015   20.1728 N   0  0  0  0  0  0  0  0  0  0  0  0
    9.0651  -15.7461   22.5672 C   0  0  0  0  0  0  0  0  0  0  0  0
   10.0214  -14.9584   22.6116 O   0  0  0  0  0  0  0  0  0  0  0  0
    6.5242  -11.1955   28.0951 C   0  0  0  0  0  0  0  0  0  0  0  0
    6.1279  -12.2315   26.6676 S   0  0  0  0  0  0  0  0  0  0  0  0
    7.5372  -13.3379   26.3546 C   0  0  0  0  0  0  0  0  0  0  0  0
    7.2718  -14.1995   25.1252 C   0  0  0  0  0  0  0  0  0  0  0  0
    8.4500  -15.0828   24.8597 C   0  0  2  0  0  0  0  0  0  0  0  0
    8.3514  -15.9610   23.7631 N   0  0  0  0  0  0  0  0  0  0  0  0
    8.9123  -15.7399   26.1023 C   0  0  0  0  0  0  0  0  0  0  0  0
    9.6032  -15.0204   27.0374 O   0  0  0  0  0  0  0  0  0  0  0  0
    8.6657  -16.9407   26.2812 O   0  0  0  0  0  0  0  0  0  0  0  0
  2  3  1  0
  2  1  1  6
  4  2  1  0
  5  4  2  0
  7  6  1  6
  7  9  1  0
  7  8  1  0
  8  4  1  0
  9 10  2  0
 11 12  1  0
 12 13  1  0
 14 13  1  0
 15 14  1  1
 16 15  1  0
 16  9  1  0
 17 18  1  0
 17 15  1  0
 19 17  2  0
M  END
$$$$
