AAM.pdb
     RDKit          3D

 19 18  0  0  1  0  0  0  0  0999 V2000
    8.5038  -12.3138   19.2531 C   0  0  0  0  0  0  0  0  0  0  0  0
    8.4200  -13.7515   18.8402 C   0  0  2  0  0  0  0  0  0  0  0  0
    7.2425  -13.9367   18.0251 N   0  0  0  0  0  0  0  0  0  0  0  0
    8.3671  -14.6116   20.0612 C   0  0  0  0  0  0  0  0  0  0  0  0
    7.3536  -14.6058   20.8053 O   0  0  0  0  0  0  0  0  0  0  0  0
   10.3688  -17.4429   21.3445 C   0  0  0  0  0  0  0  0  0  0  0  0
    9.3345  -16.3833   21.5374 C   0  0  2  0  0  0  0  0  0  0  0  0
    9.4454  -15.4593   20.4260 N   0  0  0  0  0  0  0  0  0  0  0  0
    9.4953  -15.6583   22.8242 C   0  0  0  0  0  0  0  0  0  0  0  0
    9.8722  -14.4776   22.7930 O   0  0  0  0  0  0  0  0  0  0  0  0
    6.3369  -11.3531   27.5874 C   0  0  0  0  0  0  0  0  0  0  0  0
    6.2167  -12.5489   26.2369 S   0  0  0  0  0  0  0  0  0  0  0  0
    7.5923  -13.7285   26.3931 C   0  0  0  0  0  0  0  0  0  0  0  0
    7.8150  -14.4607   25.0745 C   0  0  0  0  0  0  0  0  0  0  0  0
    8.9464  -15.4296   25.2160 C   0  0  2  0  0  0  0  0  0  0  0  0
    9.2483  -16.2224   24.0917 N   0  0  0  0  0  0  0  0  0  0  0  0
    8.8280  -16.2052   26.4704 C   0  0  0  0  0  0  0  0  0  0  0  0
    9.4520  -15.7660   27.6049 O   0  0  0  0  0  0  0  0  0  0  0  0
    8.1607  -17.2490   26.4774 O   0  0  0  0  0  0  0  0  0  0  0  0
  2  3  1  0
  2  1  1  1
  4  2  1  0
  5  4  2  0
  7  6  1  6
  7  9  1  0
  7  8  1  0
  8  4  1  0
  9 10  2  0
 11 12  1  0
 12 13  1  0
 14 13  1  0
 15 14  1  6
 16 15  1  0
 16  9  1  0
 17 18  1  0
 17 15  1  0
 19 17  2  0
M  END
$$$$
