AAM.pdb
     RDKit          3D

 19 18  0  0  1  0  0  0  0  0999 V2000
    7.0286  -13.1041   18.6276 C   0  0  0  0  0  0  0  0  0  0  0  0
    8.3457  -13.3142   19.3098 C   0  0  2  0  0  0  0  0  0  0  0  0
    9.3097  -13.7705   18.3364 N   0  0  0  0  0  0  0  0  0  0  0  0
    8.1773  -14.3149   20.4069 C   0  0  0  0  0  0  0  0  0  0  0  0
    7.3285  -14.1316   21.3162 O   0  0  0  0  0  0  0  0  0  0  0  0
    9.5558  -17.6772   21.1916 C   0  0  0  0  0  0  0  0  0  0  0  0
    8.8417  -16.4234   21.5759 C   0  0  2  0  0  0  0  0  0  0  0  0
    8.9590  -15.4980   20.4663 N   0  0  0  0  0  0  0  0  0  0  0  0
    9.3914  -15.8116   22.8133 C   0  0  0  0  0  0  0  0  0  0  0  0
   10.0932  -14.7952   22.7073 O   0  0  0  0  0  0  0  0  0  0  0  0
    6.6138  -11.3137   27.7606 C   0  0  0  0  0  0  0  0  0  0  0  0
    6.5296  -12.3748   26.2994 S   0  0  0  0  0  0  0  0  0  0  0  0
    7.9466  -13.5144   26.3374 C   0  0  0  0  0  0  0  0  0  0  0  0
    7.9734  -14.3691   25.0752 C   0  0  0  0  0  0  0  0  0  0  0  0
    8.9916  -15.4562   25.2191 C   0  0  2  0  0  0  0  0  0  0  0  0
    9.1706  -16.3094   24.1129 N   0  0  0  0  0  0  0  0  0  0  0  0
    8.8214  -16.1776   26.4996 C   0  0  0  0  0  0  0  0  0  0  0  0
    9.4394  -15.7171   27.6289 O   0  0  0  0  0  0  0  0  0  0  0  0
    8.1165  -17.1959   26.5329 O   0  0  0  0  0  0  0  0  0  0  0  0
  2  3  1  0
  2  1  1  6
  4  2  1  0
  5  4  2  0
  7  6  1  6
  7  9  1  0
  7  8  1  0
  8  4  1  0
  9 10  2  0
 11 12  1  0
 12 13  1  0
 14 13  1  0
 15 14  1  6
 16 15  1  0
 16  9  1  0
 17 18  1  0
 17 15  1  0
 19 17  2  0
M  END
$$$$
