ECR.pdb
     RDKit          3D

 27 26  0  0  1  0  0  0  0  0999 V2000
   18.5051  -14.9907  -19.9358 N   0  0  0  0  0  0  0  0  0  0  0  0
   18.8087  -14.8765  -18.5070 C   0  0  1  0  0  0  0  0  0  0  0  0
   20.1954  -15.3955  -18.2405 C   0  0  0  0  0  0  0  0  0  0  0  0
   21.2316  -14.6786  -19.0469 C   0  0  0  0  0  0  0  0  0  0  0  0
   22.4178  -14.3130  -18.2186 C   0  0  0  0  0  0  0  0  0  0  0  0
   22.4592  -14.6094  -17.0122 O   0  0  0  0  0  0  0  0  0  0  0  0
   18.5179  -13.5373  -17.9990 C   0  0  0  0  0  0  0  0  0  0  0  0
   18.5141  -12.5652  -18.7989 O   0  0  0  0  0  0  0  0  0  0  0  0
   23.4636  -13.6445  -18.8055 O   0  0  0  0  0  0  0  0  0  0  0  0
   18.2335  -13.2716  -16.6191 N   0  0  0  0  0  0  0  0  0  0  0  0
   17.9154  -11.9514  -16.2117 C   0  0  1  0  0  0  0  0  0  0  0  0
   16.9313  -12.0433  -15.0555 C   0  0  0  0  0  0  0  0  0  0  0  0
   16.4497  -10.3738  -14.5332 S   0  0  0  0  0  0  0  0  0  0  0  0
   19.0929  -11.1895  -15.7089 C   0  0  0  0  0  0  0  0  0  0  0  0
   20.0368  -11.7540  -15.0942 O   0  0  0  0  0  0  0  0  0  0  0  0
   24.9196   -6.7201  -19.9279 N   0  0  0  0  0  0  0  0  0  0  0  0
   25.3298   -6.7188  -18.5671 C   0  0  0  0  0  0  0  0  0  0  0  0
   26.5294   -6.3846  -18.2368 N   0  0  0  0  0  0  0  0  0  0  0  0
   24.4214   -7.0888  -17.5303 N   0  0  0  0  0  0  0  0  0  0  0  0
   23.1414   -7.6687  -17.8095 C   0  0  0  0  0  0  0  0  0  0  0  0
   22.4330   -7.9256  -16.4729 C   0  0  0  0  0  0  0  0  0  0  0  0
   21.1796   -8.6883  -16.7808 C   0  0  0  0  0  0  0  0  0  0  0  0
   20.3916   -9.0359  -15.5379 C   0  0  2  0  0  0  0  0  0  0  0  0
   19.2062   -9.7850  -15.9002 N   0  0  0  0  0  0  0  0  0  0  0  0
   20.0149   -7.8431  -14.7601 C   0  0  0  0  0  0  0  0  0  0  0  0
   20.8066   -7.4121  -13.8871 O   0  0  0  0  0  0  0  0  0  0  0  0
   18.8225   -7.1637  -14.9411 O   0  0  0  0  0  0  0  0  0  0  0  0
  2  1  1  6
  2  3  1  0
  4  3  1  0
  5  4  1  0
  5  6  2  0
  7  2  1  0
  8  7  2  0
  9  5  1  0
 10  7  1  0
 11 12  1  1
 11 10  1  0
 12 13  1  0
 14 11  1  0
 14 15  2  0
 16 17  1  0
 17 18  2  0
 19 17  1  0
 20 19  1  0
 21 22  1  0
 21 20  1  0
 23 22  1  6
 23 24  1  0
 24 14  1  0
 25 23  1  0
 25 27  1  0
 26 25  2  0
M  END
$$$$
