ECR.pdb
     RDKit          3D

 27 26  0  0  1  0  0  0  0  0999 V2000
   28.3085  -19.6957  -14.7261 N   0  0  0  0  0  0  0  0  0  0  0  0
   27.2908  -20.2815  -15.6025 C   0  0  1  0  0  0  0  0  0  0  0  0
   27.9454  -21.2076  -16.5909 C   0  0  0  0  0  0  0  0  0  0  0  0
   28.6771  -22.3258  -15.9184 C   0  0  0  0  0  0  0  0  0  0  0  0
   29.2070  -23.3100  -16.9072 C   0  0  0  0  0  0  0  0  0  0  0  0
   29.8504  -24.3025  -16.5253 O   0  0  0  0  0  0  0  0  0  0  0  0
   26.1792  -20.8434  -14.8379 C   0  0  0  0  0  0  0  0  0  0  0  0
   25.1699  -21.2783  -15.4521 O   0  0  0  0  0  0  0  0  0  0  0  0
   28.9750  -23.1057  -18.2449 O   0  0  0  0  0  0  0  0  0  0  0  0
   26.1800  -20.9253  -13.4064 N   0  0  0  0  0  0  0  0  0  0  0  0
   25.0437  -21.4424  -12.7344 C   0  0  1  0  0  0  0  0  0  0  0  0
   25.4278  -21.6804  -11.2819 C   0  0  0  0  0  0  0  0  0  0  0  0
   25.7501  -20.0901  -10.4702 S   0  0  0  0  0  0  0  0  0  0  0  0
   23.8881  -20.5022  -12.7205 C   0  0  0  0  0  0  0  0  0  0  0  0
   24.0446  -19.2551  -12.8079 O   0  0  0  0  0  0  0  0  0  0  0  0
   20.0350  -15.8190  -16.5380 N   0  0  0  0  0  0  0  0  0  0  0  0
   21.3661  -16.2621  -16.7663 C   0  0  0  0  0  0  0  0  0  0  0  0
   22.2823  -15.4399  -17.1463 N   0  0  0  0  0  0  0  0  0  0  0  0
   21.7218  -17.6317  -16.5803 N   0  0  0  0  0  0  0  0  0  0  0  0
   20.7377  -18.6685  -16.4840 C   0  0  0  0  0  0  0  0  0  0  0  0
   20.4685  -18.9332  -14.9968 C   0  0  0  0  0  0  0  0  0  0  0  0
   21.5887  -19.7941  -14.4953 C   0  0  0  0  0  0  0  0  0  0  0  0
   21.4074  -20.1983  -13.0496 C   0  0  2  0  0  0  0  0  0  0  0  0
   22.5502  -20.9706  -12.6075 N   0  0  0  0  0  0  0  0  0  0  0  0
   20.1680  -20.9638  -12.8317 C   0  0  0  0  0  0  0  0  0  0  0  0
   20.1783  -22.2039  -13.0233 O   0  0  0  0  0  0  0  0  0  0  0  0
   18.9794  -20.3843  -12.4227 O   0  0  0  0  0  0  0  0  0  0  0  0
  2  1  1  1
  2  3  1  0
  4  3  1  0
  5  4  1  0
  5  6  2  0
  7  2  1  0
  8  7  2  0
  9  5  1  0
 10  7  1  0
 11 12  1  1
 11 10  1  0
 12 13  1  0
 14 11  1  0
 14 15  2  0
 16 17  1  0
 17 18  2  0
 19 17  1  0
 20 19  1  0
 21 22  1  0
 21 20  1  0
 23 22  1  6
 23 24  1  0
 24 14  1  0
 25 23  1  0
 25 27  1  0
 26 25  2  0
M  END
$$$$
