ECR.pdb
     RDKit          3D

 27 26  0  0  1  0  0  0  0  0999 V2000
   21.8784  -14.2378  -20.9322 N   0  0  0  0  0  0  0  0  0  0  0  0
   21.2521  -14.2757  -19.6081 C   0  0  1  0  0  0  0  0  0  0  0  0
   20.5516  -12.9714  -19.3414 C   0  0  0  0  0  0  0  0  0  0  0  0
   21.3913  -12.0343  -18.5321 C   0  0  0  0  0  0  0  0  0  0  0  0
   20.6474  -10.7876  -18.1865 C   0  0  0  0  0  0  0  0  0  0  0  0
   20.1611  -10.6380  -17.0525 O   0  0  0  0  0  0  0  0  0  0  0  0
   20.4486  -15.4829  -19.4257 C   0  0  0  0  0  0  0  0  0  0  0  0
   19.7067  -15.8738  -20.3647 O   0  0  0  0  0  0  0  0  0  0  0  0
   20.5066   -9.8071  -19.1372 O   0  0  0  0  0  0  0  0  0  0  0  0
   20.4627  -16.2535  -18.2167 N   0  0  0  0  0  0  0  0  0  0  0  0
   19.6624  -17.4199  -18.1209 C   0  0  1  0  0  0  0  0  0  0  0  0
   20.4777  -18.4892  -17.4099 C   0  0  0  0  0  0  0  0  0  0  0  0
   19.4680  -19.9813  -17.1960 S   0  0  0  0  0  0  0  0  0  0  0  0
   18.4252  -17.2216  -17.3147 C   0  0  0  0  0  0  0  0  0  0  0  0
   18.4287  -16.5570  -16.2443 O   0  0  0  0  0  0  0  0  0  0  0  0
    9.7810  -17.5952  -19.4895 N   0  0  0  0  0  0  0  0  0  0  0  0
    9.8574  -17.2367  -18.1162 C   0  0  0  0  0  0  0  0  0  0  0  0
    8.7913  -16.9994  -17.4329 N   0  0  0  0  0  0  0  0  0  0  0  0
   11.1196  -17.1299  -17.4586 N   0  0  0  0  0  0  0  0  0  0  0  0
   12.3578  -17.3503  -18.1450 C   0  0  0  0  0  0  0  0  0  0  0  0
   13.4896  -17.3136  -17.1096 C   0  0  0  0  0  0  0  0  0  0  0  0
   14.7732  -17.5198  -17.8561 C   0  0  0  0  0  0  0  0  0  0  0  0
   15.9676  -17.6349  -16.9360 C   0  0  2  0  0  0  0  0  0  0  0  0
   17.1790  -17.7755  -17.7174 N   0  0  0  0  0  0  0  0  0  0  0  0
   15.8436  -18.7596  -15.9930 C   0  0  0  0  0  0  0  0  0  0  0  0
   16.1424  -19.9145  -16.3822 O   0  0  0  0  0  0  0  0  0  0  0  0
   15.4110  -18.6111  -14.6866 O   0  0  0  0  0  0  0  0  0  0  0  0
  2  1  1  6
  2  3  1  0
  4  3  1  0
  5  4  1  0
  5  6  2  0
  7  2  1  0
  8  7  2  0
  9  5  1  0
 10  7  1  0
 11 12  1  1
 11 10  1  0
 12 13  1  0
 14 11  1  0
 14 15  2  0
 16 17  1  0
 17 18  2  0
 19 17  1  0
 20 19  1  0
 21 22  1  0
 21 20  1  0
 23 22  1  6
 23 24  1  0
 24 14  1  0
 25 23  1  0
 25 27  1  0
 26 25  2  0
M  END
$$$$
