ECR.pdb
     RDKit          3D

 27 26  0  0  1  0  0  0  0  0999 V2000
   12.8666  -12.0463  -13.0646 N   0  0  0  0  0  0  0  0  0  0  0  0
   13.9119  -11.6914  -14.0281 C   0  0  1  0  0  0  0  0  0  0  0  0
   13.3286  -11.6434  -15.4139 C   0  0  0  0  0  0  0  0  0  0  0  0
   12.9786  -13.0044  -15.9271 C   0  0  0  0  0  0  0  0  0  0  0  0
   14.1975  -13.7890  -16.2816 C   0  0  0  0  0  0  0  0  0  0  0  0
   14.1294  -15.0193  -16.4444 O   0  0  0  0  0  0  0  0  0  0  0  0
   14.6556  -10.5064  -13.6052 C   0  0  0  0  0  0  0  0  0  0  0  0
   14.0236   -9.5088  -13.1691 O   0  0  0  0  0  0  0  0  0  0  0  0
   15.3960  -13.1349  -16.4259 O   0  0  0  0  0  0  0  0  0  0  0  0
   16.0858  -10.4218  -13.6628 N   0  0  0  0  0  0  0  0  0  0  0  0
   16.7292   -9.2060  -13.3195 C   0  0  1  0  0  0  0  0  0  0  0  0
   17.6841   -9.4908  -12.1702 C   0  0  0  0  0  0  0  0  0  0  0  0
   16.7652   -9.5042  -10.6058 S   0  0  0  0  0  0  0  0  0  0  0  0
   17.5515   -8.6410  -14.4260 C   0  0  0  0  0  0  0  0  0  0  0  0
   18.2378   -9.3751  -15.1859 O   0  0  0  0  0  0  0  0  0  0  0  0
   14.9675   -0.9321  -16.6945 N   0  0  0  0  0  0  0  0  0  0  0  0
   14.4375   -2.0615  -17.3754 C   0  0  0  0  0  0  0  0  0  0  0  0
   13.4286   -1.9442  -18.1680 N   0  0  0  0  0  0  0  0  0  0  0  0
   15.0104   -3.3565  -17.1975 N   0  0  0  0  0  0  0  0  0  0  0  0
   16.3200   -3.5414  -16.6464 C   0  0  0  0  0  0  0  0  0  0  0  0
   16.5963   -5.0488  -16.5703 C   0  0  0  0  0  0  0  0  0  0  0  0
   17.9538   -5.2149  -15.9562 C   0  0  0  0  0  0  0  0  0  0  0  0
   18.3381   -6.6669  -15.7818 C   0  0  2  0  0  0  0  0  0  0  0  0
   17.5999   -7.2420  -14.6764 N   0  0  0  0  0  0  0  0  0  0  0  0
   19.7846   -6.8429  -15.5666 C   0  0  0  0  0  0  0  0  0  0  0  0
   20.1985   -7.1166  -14.4141 O   0  0  0  0  0  0  0  0  0  0  0  0
   20.7231   -6.7217  -16.5770 O   0  0  0  0  0  0  0  0  0  0  0  0
  2  1  1  1
  2  3  1  0
  4  3  1  0
  5  4  1  0
  5  6  2  0
  7  2  1  0
  8  7  2  0
  9  5  1  0
 10  7  1  0
 11 12  1  1
 11 10  1  0
 12 13  1  0
 14 11  1  0
 14 15  2  0
 16 17  1  0
 17 18  2  0
 19 17  1  0
 20 19  1  0
 21 22  1  0
 21 20  1  0
 23 22  1  1
 23 24  1  0
 24 14  1  0
 25 23  1  0
 25 27  1  0
 26 25  2  0
M  END
$$$$
