ECR.pdb
     RDKit          3D

 27 26  0  0  1  0  0  0  0  0999 V2000
   22.3078  -14.5440  -17.7259 N   0  0  0  0  0  0  0  0  0  0  0  0
   22.1107  -13.1832  -18.2319 C   0  0  1  0  0  0  0  0  0  0  0  0
   21.2207  -13.2172  -19.4443 C   0  0  0  0  0  0  0  0  0  0  0  0
   19.7932  -13.4901  -19.0897 C   0  0  0  0  0  0  0  0  0  0  0  0
   18.8563  -12.9243  -20.1042 C   0  0  0  0  0  0  0  0  0  0  0  0
   18.9314  -11.7280  -20.4330 O   0  0  0  0  0  0  0  0  0  0  0  0
   21.7085  -12.2651  -17.1682 C   0  0  0  0  0  0  0  0  0  0  0  0
   20.7666  -12.5917  -16.3994 O   0  0  0  0  0  0  0  0  0  0  0  0
   17.9095  -13.7417  -20.6703 O   0  0  0  0  0  0  0  0  0  0  0  0
   22.3400  -10.9958  -16.9535 N   0  0  0  0  0  0  0  0  0  0  0  0
   21.8286  -10.1180  -15.9647 C   0  0  1  0  0  0  0  0  0  0  0  0
   22.9238   -9.8844  -14.9353 C   0  0  0  0  0  0  0  0  0  0  0  0
   22.2925   -8.8226  -13.6065 S   0  0  0  0  0  0  0  0  0  0  0  0
   21.4556   -8.7789  -16.5008 C   0  0  0  0  0  0  0  0  0  0  0  0
   22.2138   -8.1390  -17.2773 O   0  0  0  0  0  0  0  0  0  0  0  0
   13.5057   -5.4625  -16.3795 N   0  0  0  0  0  0  0  0  0  0  0  0
   14.5321   -5.0264  -15.4982 C   0  0  0  0  0  0  0  0  0  0  0  0
   14.2472   -4.5170  -14.3497 N   0  0  0  0  0  0  0  0  0  0  0  0
   15.9067   -5.1418  -15.8644 N   0  0  0  0  0  0  0  0  0  0  0  0
   16.3154   -5.4668  -17.1986 C   0  0  0  0  0  0  0  0  0  0  0  0
   17.8489   -5.4436  -17.2461 C   0  0  0  0  0  0  0  0  0  0  0  0
   18.3255   -6.7291  -16.6397 C   0  0  0  0  0  0  0  0  0  0  0  0
   19.8320   -6.8573  -16.6610 C   0  0  2  0  0  0  0  0  0  0  0  0
   20.2222   -8.1589  -16.1595 N   0  0  0  0  0  0  0  0  0  0  0  0
   20.4967   -5.7982  -15.8826 C   0  0  0  0  0  0  0  0  0  0  0  0
   20.6987   -5.9803  -14.6576 O   0  0  0  0  0  0  0  0  0  0  0  0
   20.9156   -4.5996  -16.4340 O   0  0  0  0  0  0  0  0  0  0  0  0
  2  1  1  1
  2  3  1  0
  4  3  1  0
  5  4  1  0
  5  6  2  0
  7  2  1  0
  8  7  2  0
  9  5  1  0
 10  7  1  0
 11 12  1  1
 11 10  1  0
 12 13  1  0
 14 11  1  0
 14 15  2  0
 16 17  1  0
 17 18  2  0
 19 17  1  0
 20 19  1  0
 21 22  1  0
 21 20  1  0
 23 22  1  1
 23 24  1  0
 24 14  1  0
 25 23  1  0
 25 27  1  0
 26 25  2  0
M  END
$$$$
