ECR.pdb
     RDKit          3D

 27 26  0  0  1  0  0  0  0  0999 V2000
   21.1210  -16.7349  -18.2966 N   0  0  0  0  0  0  0  0  0  0  0  0
   21.8747  -16.9335  -17.0559 C   0  0  1  0  0  0  0  0  0  0  0  0
   21.0490  -17.7308  -16.0834 C   0  0  0  0  0  0  0  0  0  0  0  0
   19.8167  -16.9986  -15.6555 C   0  0  0  0  0  0  0  0  0  0  0  0
   19.0262  -17.7844  -14.6632 C   0  0  0  0  0  0  0  0  0  0  0  0
   17.9542  -17.3402  -14.2179 O   0  0  0  0  0  0  0  0  0  0  0  0
   23.2209  -17.4390  -17.3175 C   0  0  0  0  0  0  0  0  0  0  0  0
   23.5736  -17.6586  -18.5059 O   0  0  0  0  0  0  0  0  0  0  0  0
   19.4979  -19.0051  -14.2477 O   0  0  0  0  0  0  0  0  0  0  0  0
   24.1714  -17.7008  -16.2764 N   0  0  0  0  0  0  0  0  0  0  0  0
   25.5054  -18.0401  -16.6159 C   0  0  1  0  0  0  0  0  0  0  0  0
   26.0961  -16.8816  -17.4050 C   0  0  0  0  0  0  0  0  0  0  0  0
   27.8146  -17.2606  -17.8466 S   0  0  0  0  0  0  0  0  0  0  0  0
   26.3838  -18.2385  -15.4290 C   0  0  0  0  0  0  0  0  0  0  0  0
   26.4531  -17.3864  -14.5035 O   0  0  0  0  0  0  0  0  0  0  0  0
   21.7768  -21.5327  -10.4505 N   0  0  0  0  0  0  0  0  0  0  0  0
   22.8755  -21.0249   -9.7055 C   0  0  0  0  0  0  0  0  0  0  0  0
   22.7727  -20.8032   -8.4405 N   0  0  0  0  0  0  0  0  0  0  0  0
   24.1227  -20.7470  -10.3413 N   0  0  0  0  0  0  0  0  0  0  0  0
   24.2939  -20.8471  -11.7603 C   0  0  0  0  0  0  0  0  0  0  0  0
   25.7564  -20.5183  -12.0880 C   0  0  0  0  0  0  0  0  0  0  0  0
   25.8838  -20.5298  -13.5817 C   0  0  0  0  0  0  0  0  0  0  0  0
   27.2715  -20.1519  -14.0487 C   0  0  2  0  0  0  0  0  0  0  0  0
   27.1875  -19.4028  -15.2854 N   0  0  0  0  0  0  0  0  0  0  0  0
   28.1422  -21.3260  -14.2297 C   0  0  0  0  0  0  0  0  0  0  0  0
   28.1155  -21.9393  -15.3240 O   0  0  0  0  0  0  0  0  0  0  0  0
   28.9980  -21.7955  -13.2481 O   0  0  0  0  0  0  0  0  0  0  0  0
  2  1  1  6
  2  3  1  0
  4  3  1  0
  5  4  1  0
  5  6  2  0
  7  2  1  0
  8  7  2  0
  9  5  1  0
 10  7  1  0
 11 12  1  6
 11 10  1  0
 12 13  1  0
 14 11  1  0
 14 15  2  0
 16 17  1  0
 17 18  2  0
 19 17  1  0
 20 19  1  0
 21 22  1  0
 21 20  1  0
 23 22  1  6
 23 24  1  0
 24 14  1  0
 25 23  1  0
 25 27  1  0
 26 25  2  0
M  END
$$$$
