ECR.pdb
     RDKit          3D

 27 26  0  0  1  0  0  0  0  0999 V2000
   24.6563  -21.0221  -16.7253 N   0  0  0  0  0  0  0  0  0  0  0  0
   25.0281  -20.1269  -15.6267 C   0  0  1  0  0  0  0  0  0  0  0  0
   25.8990  -19.0173  -16.1498 C   0  0  0  0  0  0  0  0  0  0  0  0
   25.5008  -18.5877  -17.5263 C   0  0  0  0  0  0  0  0  0  0  0  0
   26.3362  -17.4501  -18.0110 C   0  0  0  0  0  0  0  0  0  0  0  0
   27.2713  -17.0149  -17.3175 O   0  0  0  0  0  0  0  0  0  0  0  0
   23.8615  -19.7127  -14.8497 C   0  0  0  0  0  0  0  0  0  0  0  0
   24.0327  -19.0658  -13.7834 O   0  0  0  0  0  0  0  0  0  0  0  0
   26.0592  -16.8896  -19.2334 O   0  0  0  0  0  0  0  0  0  0  0  0
   22.5158  -20.0097  -15.2454 N   0  0  0  0  0  0  0  0  0  0  0  0
   21.4394  -19.6339  -14.4027 C   0  0  1  0  0  0  0  0  0  0  0  0
   20.7357  -18.4476  -15.0440 C   0  0  0  0  0  0  0  0  0  0  0  0
   20.2063  -18.8896  -16.7221 S   0  0  0  0  0  0  0  0  0  0  0  0
   20.4135  -20.7025  -14.2442 C   0  0  0  0  0  0  0  0  0  0  0  0
   20.1955  -21.5539  -15.1470 O   0  0  0  0  0  0  0  0  0  0  0  0
   17.2965  -24.6589   -7.0586 N   0  0  0  0  0  0  0  0  0  0  0  0
   18.2968  -24.1498   -7.9306 C   0  0  0  0  0  0  0  0  0  0  0  0
   19.4856  -23.9002   -7.5012 N   0  0  0  0  0  0  0  0  0  0  0  0
   18.0089  -23.9014   -9.3062 N   0  0  0  0  0  0  0  0  0  0  0  0
   16.9218  -23.0641   -9.7183 C   0  0  0  0  0  0  0  0  0  0  0  0
   17.0386  -22.8422  -11.2320 C   0  0  0  0  0  0  0  0  0  0  0  0
   18.1930  -21.9109  -11.4505 C   0  0  0  0  0  0  0  0  0  0  0  0
   18.5703  -21.7867  -12.9095 C   0  0  2  0  0  0  0  0  0  0  0  0
   19.6302  -20.8115  -13.0624 N   0  0  0  0  0  0  0  0  0  0  0  0
   17.4228  -21.4197  -13.7569 C   0  0  0  0  0  0  0  0  0  0  0  0
   16.8676  -22.3090  -14.4463 O   0  0  0  0  0  0  0  0  0  0  0  0
   16.9173  -20.1334  -13.8355 O   0  0  0  0  0  0  0  0  0  0  0  0
  2  1  1  6
  2  3  1  0
  4  3  1  0
  5  4  1  0
  5  6  2  0
  7  2  1  0
  8  7  2  0
  9  5  1  0
 10  7  1  0
 11 12  1  6
 11 10  1  0
 12 13  1  0
 14 11  1  0
 14 15  2  0
 16 17  1  0
 17 18  2  0
 19 17  1  0
 20 19  1  0
 21 22  1  0
 21 20  1  0
 23 22  1  1
 23 24  1  0
 24 14  1  0
 25 23  1  0
 25 27  1  0
 26 25  2  0
M  END
$$$$
