ECR.pdb
     RDKit          3D

 27 26  0  0  1  0  0  0  0  0999 V2000
   16.4339  -11.6790  -11.3294 N   0  0  0  0  0  0  0  0  0  0  0  0
   15.6674  -11.2920  -12.5166 C   0  0  1  0  0  0  0  0  0  0  0  0
   14.5303  -12.2554  -12.7219 C   0  0  0  0  0  0  0  0  0  0  0  0
   14.4286  -13.2541  -11.6127 C   0  0  0  0  0  0  0  0  0  0  0  0
   13.2216  -14.1191  -11.7600 C   0  0  0  0  0  0  0  0  0  0  0  0
   13.2756  -15.1680  -12.4247 O   0  0  0  0  0  0  0  0  0  0  0  0
   15.3090   -9.8754  -12.4893 C   0  0  0  0  0  0  0  0  0  0  0  0
   14.5864   -9.4075  -13.4079 O   0  0  0  0  0  0  0  0  0  0  0  0
   12.0497  -13.7421  -11.1519 O   0  0  0  0  0  0  0  0  0  0  0  0
   15.7443   -8.9808  -11.4568 N   0  0  0  0  0  0  0  0  0  0  0  0
   15.3278   -7.6259  -11.4832 C   0  0  1  0  0  0  0  0  0  0  0  0
   14.9128   -7.2367  -10.0725 C   0  0  0  0  0  0  0  0  0  0  0  0
   16.1669   -7.8058   -8.8914 S   0  0  0  0  0  0  0  0  0  0  0  0
   16.4102   -6.6838  -11.8838 C   0  0  0  0  0  0  0  0  0  0  0  0
   17.6216   -6.9144  -11.6250 O   0  0  0  0  0  0  0  0  0  0  0  0
   19.7546   -7.9737  -12.9295 N   0  0  0  0  0  0  0  0  0  0  0  0
   20.7408   -7.8040  -13.9389 C   0  0  0  0  0  0  0  0  0  0  0  0
   21.7376   -8.6147  -14.0344 N   0  0  0  0  0  0  0  0  0  0  0  0
   20.6517   -6.7291  -14.8735 N   0  0  0  0  0  0  0  0  0  0  0  0
   19.8383   -5.5746  -14.6321 C   0  0  0  0  0  0  0  0  0  0  0  0
   18.3720   -6.0250  -14.5913 C   0  0  0  0  0  0  0  0  0  0  0  0
   17.5389   -4.7900  -14.4236 C   0  0  0  0  0  0  0  0  0  0  0  0
   17.1544   -4.5407  -12.9826 C   0  0  2  0  0  0  0  0  0  0  0  0
   16.1253   -5.4764  -12.5789 N   0  0  0  0  0  0  0  0  0  0  0  0
   16.6961   -3.1595  -12.7546 C   0  0  0  0  0  0  0  0  0  0  0  0
   15.4729   -2.9476  -12.5721 O   0  0  0  0  0  0  0  0  0  0  0  0
   17.5500   -2.0702  -12.7303 O   0  0  0  0  0  0  0  0  0  0  0  0
  2  1  1  1
  2  3  1  0
  4  3  1  0
  5  4  1  0
  5  6  2  0
  7  2  1  0
  8  7  2  0
  9  5  1  0
 10  7  1  0
 11 12  1  1
 11 10  1  0
 12 13  1  0
 14 11  1  0
 14 15  2  0
 16 17  1  0
 17 18  2  0
 19 17  1  0
 20 19  1  0
 21 22  1  0
 21 20  1  0
 23 22  1  6
 23 24  1  0
 24 14  1  0
 25 23  1  0
 25 27  1  0
 26 25  2  0
M  END
$$$$
