ECR.pdb
     RDKit          3D

 27 26  0  0  1  0  0  0  0  0999 V2000
   32.8674   -7.0498  -17.6265 N   0  0  0  0  0  0  0  0  0  0  0  0
   32.5146   -8.4718  -17.6163 C   0  0  1  0  0  0  0  0  0  0  0  0
   33.3105   -9.1838  -16.5566 C   0  0  0  0  0  0  0  0  0  0  0  0
   34.7198   -9.4423  -16.9868 C   0  0  0  0  0  0  0  0  0  0  0  0
   34.8086  -10.6160  -17.9042 C   0  0  0  0  0  0  0  0  0  0  0  0
   34.0321  -11.5776  -17.7739 O   0  0  0  0  0  0  0  0  0  0  0  0
   31.0670   -8.6682  -17.5698 C   0  0  0  0  0  0  0  0  0  0  0  0
   30.3597   -7.8639  -16.9082 O   0  0  0  0  0  0  0  0  0  0  0  0
   35.7594  -10.6207  -18.8947 O   0  0  0  0  0  0  0  0  0  0  0  0
   30.4040   -9.7437  -18.2476 N   0  0  0  0  0  0  0  0  0  0  0  0
   28.9929   -9.8569  -18.1681 C   0  0  1  0  0  0  0  0  0  0  0  0
   28.3898   -8.5638  -18.6952 C   0  0  0  0  0  0  0  0  0  0  0  0
   26.5795   -8.6764  -18.6537 S   0  0  0  0  0  0  0  0  0  0  0  0
   28.4413  -10.9572  -19.0075 C   0  0  0  0  0  0  0  0  0  0  0  0
   28.7523  -11.0870  -20.2216 O   0  0  0  0  0  0  0  0  0  0  0  0
   25.5651  -18.1483  -15.3731 N   0  0  0  0  0  0  0  0  0  0  0  0
   26.5817  -17.1568  -15.4315 C   0  0  0  0  0  0  0  0  0  0  0  0
   27.3620  -16.9478  -14.4278 N   0  0  0  0  0  0  0  0  0  0  0  0
   26.7638  -16.3659  -16.6055 N   0  0  0  0  0  0  0  0  0  0  0  0
   25.8396  -16.4019  -17.6997 C   0  0  0  0  0  0  0  0  0  0  0  0
   26.3755  -15.4841  -18.8064 C   0  0  0  0  0  0  0  0  0  0  0  0
   26.6683  -14.1577  -18.1720 C   0  0  0  0  0  0  0  0  0  0  0  0
   27.2003  -13.1459  -19.1617 C   0  0  2  0  0  0  0  0  0  0  0  0
   27.5350  -11.9151  -18.4755 N   0  0  0  0  0  0  0  0  0  0  0  0
   26.2476  -12.8715  -20.2511 C   0  0  0  0  0  0  0  0  0  0  0  0
   25.4716  -11.8910  -20.1470 O   0  0  0  0  0  0  0  0  0  0  0  0
   26.1603  -13.6443  -21.3963 O   0  0  0  0  0  0  0  0  0  0  0  0
  2  1  1  1
  2  3  1  0
  4  3  1  0
  5  4  1  0
  5  6  2  0
  7  2  1  0
  8  7  2  0
  9  5  1  0
 10  7  1  0
 11 12  1  6
 11 10  1  0
 12 13  1  0
 14 11  1  0
 14 15  2  0
 16 17  1  0
 17 18  2  0
 19 17  1  0
 20 19  1  0
 21 22  1  0
 21 20  1  0
 23 22  1  1
 23 24  1  0
 24 14  1  0
 25 23  1  0
 25 27  1  0
 26 25  2  0
M  END
$$$$
