ECR.pdb
     RDKit          3D

 27 26  0  0  1  0  0  0  0  0999 V2000
   28.2140  -18.6351  -17.6484 N   0  0  0  0  0  0  0  0  0  0  0  0
   27.0606  -19.2879  -17.0237 C   0  0  1  0  0  0  0  0  0  0  0  0
   27.5206  -20.4836  -16.2352 C   0  0  0  0  0  0  0  0  0  0  0  0
   28.2255  -21.4877  -17.0912 C   0  0  0  0  0  0  0  0  0  0  0  0
   28.6350  -22.6892  -16.3065 C   0  0  0  0  0  0  0  0  0  0  0  0
   28.3032  -22.8061  -15.1144 O   0  0  0  0  0  0  0  0  0  0  0  0
   26.2229  -18.3303  -16.3042 C   0  0  0  0  0  0  0  0  0  0  0  0
   25.2091  -18.7464  -15.6845 O   0  0  0  0  0  0  0  0  0  0  0  0
   29.3833  -23.6646  -16.9177 O   0  0  0  0  0  0  0  0  0  0  0  0
   26.5009  -16.9242  -16.2682 N   0  0  0  0  0  0  0  0  0  0  0  0
   25.5737  -16.0430  -15.6568 C   0  0  1  0  0  0  0  0  0  0  0  0
   26.2910  -14.7316  -15.3749 C   0  0  0  0  0  0  0  0  0  0  0  0
   27.2378  -14.2299  -16.8390 S   0  0  0  0  0  0  0  0  0  0  0  0
   24.4107  -15.7134  -16.5278 C   0  0  0  0  0  0  0  0  0  0  0  0
   24.4189  -15.9500  -17.7653 O   0  0  0  0  0  0  0  0  0  0  0  0
   20.3811  -21.6875  -14.6434 N   0  0  0  0  0  0  0  0  0  0  0  0
   19.5942  -20.5659  -14.2648 C   0  0  0  0  0  0  0  0  0  0  0  0
   18.6130  -20.6930  -13.4397 N   0  0  0  0  0  0  0  0  0  0  0  0
   19.8717  -19.2684  -14.7906 N   0  0  0  0  0  0  0  0  0  0  0  0
   20.4258  -19.0784  -16.0982 C   0  0  0  0  0  0  0  0  0  0  0  0
   20.4101  -17.5758  -16.4084 C   0  0  0  0  0  0  0  0  0  0  0  0
   21.7630  -17.0398  -16.0481 C   0  0  0  0  0  0  0  0  0  0  0  0
   21.9009  -15.5639  -16.3466 C   0  0  2  0  0  0  0  0  0  0  0  0
   23.2336  -15.1143  -16.0008 N   0  0  0  0  0  0  0  0  0  0  0  0
   20.8964  -14.7517  -15.6389 C   0  0  0  0  0  0  0  0  0  0  0  0
   21.1626  -14.3210  -14.4908 O   0  0  0  0  0  0  0  0  0  0  0  0
   19.6612  -14.4335  -16.1766 O   0  0  0  0  0  0  0  0  0  0  0  0
  2  1  1  1
  2  3  1  0
  4  3  1  0
  5  4  1  0
  5  6  2  0
  7  2  1  0
  8  7  2  0
  9  5  1  0
 10  7  1  0
 11 12  1  6
 11 10  1  0
 12 13  1  0
 14 11  1  0
 14 15  2  0
 16 17  1  0
 17 18  2  0
 19 17  1  0
 20 19  1  0
 21 22  1  0
 21 20  1  0
 23 22  1  1
 23 24  1  0
 24 14  1  0
 25 23  1  0
 25 27  1  0
 26 25  2  0
M  END
$$$$
