ECR.pdb
     RDKit          3D

 27 26  0  0  1  0  0  0  0  0999 V2000
   28.2458  -21.6518  -15.3299 N   0  0  0  0  0  0  0  0  0  0  0  0
   27.8266  -20.7043  -14.2940 C   0  0  1  0  0  0  0  0  0  0  0  0
   27.7486  -19.3191  -14.8757 C   0  0  0  0  0  0  0  0  0  0  0  0
   26.9791  -19.2875  -16.1582 C   0  0  0  0  0  0  0  0  0  0  0  0
   26.9764  -17.9241  -16.7650 C   0  0  0  0  0  0  0  0  0  0  0  0
   26.2444  -17.6683  -17.7364 O   0  0  0  0  0  0  0  0  0  0  0  0
   26.6348  -21.1698  -13.5874 C   0  0  0  0  0  0  0  0  0  0  0  0
   25.8493  -21.9647  -14.1669 O   0  0  0  0  0  0  0  0  0  0  0  0
   27.7931  -16.9550  -16.2369 O   0  0  0  0  0  0  0  0  0  0  0  0
   26.3113  -20.7617  -12.2515 N   0  0  0  0  0  0  0  0  0  0  0  0
   25.1287  -21.2473  -11.6385 C   0  0  1  0  0  0  0  0  0  0  0  0
   25.1410  -20.8047  -10.1832 C   0  0  0  0  0  0  0  0  0  0  0  0
   26.6672  -21.3773   -9.3867 S   0  0  0  0  0  0  0  0  0  0  0  0
   23.8828  -20.6954  -12.2407 C   0  0  0  0  0  0  0  0  0  0  0  0
   23.7258  -19.4594  -12.4278 O   0  0  0  0  0  0  0  0  0  0  0  0
   23.7466  -25.6288  -15.2970 N   0  0  0  0  0  0  0  0  0  0  0  0
   22.3802  -25.8477  -14.9724 C   0  0  0  0  0  0  0  0  0  0  0  0
   22.0054  -26.9262  -14.3756 N   0  0  0  0  0  0  0  0  0  0  0  0
   21.3872  -24.8765  -15.3003 N   0  0  0  0  0  0  0  0  0  0  0  0
   21.6862  -23.7155  -16.0849 C   0  0  0  0  0  0  0  0  0  0  0  0
   22.2964  -22.6572  -15.1565 C   0  0  0  0  0  0  0  0  0  0  0  0
   21.1750  -22.0967  -14.3345 C   0  0  0  0  0  0  0  0  0  0  0  0
   21.6455  -21.0544  -13.3451 C   0  0  2  0  0  0  0  0  0  0  0  0
   22.8093  -21.5412  -12.6336 N   0  0  0  0  0  0  0  0  0  0  0  0
   20.5930  -20.6738  -12.3875 C   0  0  0  0  0  0  0  0  0  0  0  0
   20.5558  -21.2406  -11.2687 O   0  0  0  0  0  0  0  0  0  0  0  0
   19.6320  -19.7145  -12.6567 O   0  0  0  0  0  0  0  0  0  0  0  0
  2  1  1  6
  2  3  1  0
  4  3  1  0
  5  4  1  0
  5  6  2  0
  7  2  1  0
  8  7  2  0
  9  5  1  0
 10  7  1  0
 11 12  1  1
 11 10  1  0
 12 13  1  0
 14 11  1  0
 14 15  2  0
 16 17  1  0
 17 18  2  0
 19 17  1  0
 20 19  1  0
 21 22  1  0
 21 20  1  0
 23 22  1  6
 23 24  1  0
 24 14  1  0
 25 23  1  0
 25 27  1  0
 26 25  2  0
M  END
$$$$
