ECR.pdb
     RDKit          3D

 27 26  0  0  1  0  0  0  0  0999 V2000
   33.1075  -12.3595  -18.2953 N   0  0  0  0  0  0  0  0  0  0  0  0
   31.7958  -12.1072  -18.8974 C   0  0  1  0  0  0  0  0  0  0  0  0
   31.0603  -13.4077  -19.0733 C   0  0  0  0  0  0  0  0  0  0  0  0
   31.7857  -14.3486  -19.9823 C   0  0  0  0  0  0  0  0  0  0  0  0
   30.9926  -15.5861  -20.2400 C   0  0  0  0  0  0  0  0  0  0  0  0
   30.4569  -15.7722  -21.3460 O   0  0  0  0  0  0  0  0  0  0  0  0
   31.0716  -11.0527  -18.1906 C   0  0  0  0  0  0  0  0  0  0  0  0
   30.7849  -11.2138  -16.9753 O   0  0  0  0  0  0  0  0  0  0  0  0
   30.8615  -16.5174  -19.2397 O   0  0  0  0  0  0  0  0  0  0  0  0
   30.6660   -9.8294  -18.8189 N   0  0  0  0  0  0  0  0  0  0  0  0
   29.9204   -8.8766  -18.0798 C   0  0  1  0  0  0  0  0  0  0  0  0
   30.6035   -7.5263  -18.2345 C   0  0  0  0  0  0  0  0  0  0  0  0
   31.9604   -7.3910  -17.0377 S   0  0  0  0  0  0  0  0  0  0  0  0
   28.5253   -8.7071  -18.5743 C   0  0  0  0  0  0  0  0  0  0  0  0
   28.1027   -9.3158  -19.5933 O   0  0  0  0  0  0  0  0  0  0  0  0
   21.9388  -12.7907  -19.1409 N   0  0  0  0  0  0  0  0  0  0  0  0
   21.3720  -11.4978  -19.3062 C   0  0  0  0  0  0  0  0  0  0  0  0
   20.1362  -11.3538  -19.6410 N   0  0  0  0  0  0  0  0  0  0  0  0
   22.1591  -10.3243  -19.1055 N   0  0  0  0  0  0  0  0  0  0  0  0
   23.5480  -10.3881  -18.7595 C   0  0  0  0  0  0  0  0  0  0  0  0
   24.0861   -8.9532  -18.6822 C   0  0  0  0  0  0  0  0  0  0  0  0
   25.5523   -9.0506  -18.3855 C   0  0  0  0  0  0  0  0  0  0  0  0
   26.2269   -7.6979  -18.3434 C   0  0  2  0  0  0  0  0  0  0  0  0
   27.6030   -7.8473  -17.9168 N   0  0  0  0  0  0  0  0  0  0  0  0
   25.5269   -6.7486  -17.4612 C   0  0  0  0  0  0  0  0  0  0  0  0
   25.9521   -6.5779  -16.2931 O   0  0  0  0  0  0  0  0  0  0  0  0
   24.4134   -6.0262  -17.8541 O   0  0  0  0  0  0  0  0  0  0  0  0
  2  1  1  1
  2  3  1  0
  4  3  1  0
  5  4  1  0
  5  6  2  0
  7  2  1  0
  8  7  2  0
  9  5  1  0
 10  7  1  0
 11 12  1  6
 11 10  1  0
 12 13  1  0
 14 11  1  0
 14 15  2  0
 16 17  1  0
 17 18  2  0
 19 17  1  0
 20 19  1  0
 21 22  1  0
 21 20  1  0
 23 22  1  1
 23 24  1  0
 24 14  1  0
 25 23  1  0
 25 27  1  0
 26 25  2  0
M  END
$$$$
