ECR.pdb
     RDKit          3D

 27 26  0  0  1  0  0  0  0  0999 V2000
   31.0467  -29.0197  -19.2401 N   0  0  0  0  0  0  0  0  0  0  0  0
   30.5623  -28.0076  -18.2980 C   0  0  1  0  0  0  0  0  0  0  0  0
   31.2411  -26.6934  -18.5727 C   0  0  0  0  0  0  0  0  0  0  0  0
   32.6952  -26.7245  -18.2222 C   0  0  0  0  0  0  0  0  0  0  0  0
   33.3326  -25.3868  -18.3991 C   0  0  0  0  0  0  0  0  0  0  0  0
   32.6543  -24.4079  -18.7547 O   0  0  0  0  0  0  0  0  0  0  0  0
   29.1021  -27.9749  -18.2447 C   0  0  0  0  0  0  0  0  0  0  0  0
   28.4422  -28.4919  -19.1839 O   0  0  0  0  0  0  0  0  0  0  0  0
   34.6784  -25.2504  -18.1640 O   0  0  0  0  0  0  0  0  0  0  0  0
   28.3746  -27.3764  -17.1638 N   0  0  0  0  0  0  0  0  0  0  0  0
   26.9573  -27.3604  -17.1983 C   0  0  1  0  0  0  0  0  0  0  0  0
   26.4715  -28.7997  -17.1186 C   0  0  0  0  0  0  0  0  0  0  0  0
   27.3392  -29.6607  -15.7780 S   0  0  0  0  0  0  0  0  0  0  0  0
   26.3474  -26.6408  -16.0451 C   0  0  0  0  0  0  0  0  0  0  0  0
   27.0310  -26.2789  -15.0506 O   0  0  0  0  0  0  0  0  0  0  0  0
   27.5664  -19.6886  -17.2211 N   0  0  0  0  0  0  0  0  0  0  0  0
   27.8905  -21.0002  -16.7798 C   0  0  0  0  0  0  0  0  0  0  0  0
   29.0864  -21.4638  -16.9013 N   0  0  0  0  0  0  0  0  0  0  0  0
   26.8972  -21.8385  -16.1902 N   0  0  0  0  0  0  0  0  0  0  0  0
   25.5038  -21.5067  -16.2207 C   0  0  0  0  0  0  0  0  0  0  0  0
   24.7354  -22.6080  -15.4784 C   0  0  0  0  0  0  0  0  0  0  0  0
   25.1180  -23.9120  -16.1113 C   0  0  0  0  0  0  0  0  0  0  0  0
   24.4455  -25.0958  -15.4534 C   0  0  2  0  0  0  0  0  0  0  0  0
   24.9605  -26.3282  -16.0135 N   0  0  0  0  0  0  0  0  0  0  0  0
   22.9794  -25.0554  -15.5890 C   0  0  0  0  0  0  0  0  0  0  0  0
   22.4567  -25.4575  -16.6565 O   0  0  0  0  0  0  0  0  0  0  0  0
   22.1370  -24.5933  -14.5925 O   0  0  0  0  0  0  0  0  0  0  0  0
  2  1  1  6
  2  3  1  0
  4  3  1  0
  5  4  1  0
  5  6  2  0
  7  2  1  0
  8  7  2  0
  9  5  1  0
 10  7  1  0
 11 12  1  1
 11 10  1  0
 12 13  1  0
 14 11  1  0
 14 15  2  0
 16 17  1  0
 17 18  2  0
 19 17  1  0
 20 19  1  0
 21 22  1  0
 21 20  1  0
 23 22  1  6
 23 24  1  0
 24 14  1  0
 25 23  1  0
 25 27  1  0
 26 25  2  0
M  END
$$$$
