QYN.pdb
     RDKit          3D

 30 30  0  0  1  0  0  0  0  0999 V2000
   28.6842  -25.5113  -17.8632 N   0  0  0  0  0  0  0  0  0  0  0  0
   29.2108  -24.5125  -18.7031 C   0  0  0  0  0  0  0  0  0  0  0  0
   29.6667  -24.8248  -19.8184 O   0  0  0  0  0  0  0  0  0  0  0  0
   29.2122  -23.1165  -18.2550 C   0  0  0  0  0  0  0  0  0  0  0  0
   28.6389  -22.8354  -16.9165 C   0  0  0  0  0  0  0  0  0  0  0  0
   27.2735  -22.2631  -16.9685 C   0  0  2  0  0  0  0  0  0  0  0  0
   27.1498  -20.8959  -17.3758 N   0  0  0  0  0  0  0  0  0  0  0  0
   26.5622  -22.3784  -15.6497 C   0  0  0  0  0  0  0  0  0  0  0  0
   26.4678  -23.4675  -15.0205 O   0  0  0  0  0  0  0  0  0  0  0  0
   23.8711  -20.5130   -7.6422 O   0  0  0  0  0  0  0  0  0  0  0  0
   24.3888  -20.4821   -8.9354 C   0  0  0  0  0  0  0  0  0  0  0  0
   23.6644  -19.8931   -9.9480 C   0  0  0  0  0  0  0  0  0  0  0  0
   24.1573  -19.8519  -11.2318 C   0  0  0  0  0  0  0  0  0  0  0  0
   25.4041  -20.4260  -11.4520 C   0  0  0  0  0  0  0  0  0  0  0  0
   25.9379  -20.3952  -12.8170 C   0  0  0  0  0  0  0  0  0  0  0  0
   25.2346  -21.3869  -13.7540 C   0  0  2  0  0  0  0  0  0  0  0  0
   25.9468  -21.2500  -15.0275 N   0  0  0  0  0  0  0  0  0  0  0  0
   23.8038  -21.1174  -13.8918 C   0  0  0  0  0  0  0  0  0  0  0  0
   23.3937  -20.0677  -14.4571 O   0  0  0  0  0  0  0  0  0  0  0  0
   26.1432  -21.0174  -10.4617 C   0  0  0  0  0  0  0  0  0  0  0  0
   25.6199  -21.0417   -9.1851 C   0  0  0  0  0  0  0  0  0  0  0  0
   19.3248  -19.5351  -11.2329 N   0  0  0  0  0  0  0  0  0  0  0  0
   19.7366  -20.4824  -12.2242 C   0  0  0  0  0  0  0  0  0  0  0  0
   18.9046  -20.9731  -12.9954 O   0  0  0  0  0  0  0  0  0  0  0  0
   21.1499  -20.8397  -12.2877 C   0  0  0  0  0  0  0  0  0  0  0  0
   21.3998  -21.7938  -13.4360 C   0  0  2  0  0  0  0  0  0  0  0  0
   22.8604  -22.0378  -13.3890 N   0  0  0  0  0  0  0  0  0  0  0  0
   21.1560  -21.1951  -14.7634 C   0  0  0  0  0  0  0  0  0  0  0  0
   21.6162  -19.9602  -15.1807 O   0  0  0  0  0  0  0  0  0  0  0  0
   20.4673  -21.8249  -15.6425 O   0  0  0  0  0  0  0  0  0  0  0  0
  2  1  1  0
  3  2  2  0
  4  2  1  0
  5  4  1  0
  6  7  1  1
  6  5  1  0
  8  6  1  0
  9  8  2  0
 10 11  1  0
 11 21  2  0
 11 12  1  0
 12 13  2  0
 13 14  1  0
 14 15  1  0
 16 15  1  1
 16 18  1  0
 16 17  1  0
 17  8  1  0
 18 19  2  0
 20 14  2  0
 21 20  1  0
 23 22  1  0
 24 23  2  0
 25 23  1  0
 26 25  1  1
 27 26  1  0
 27 18  1  0
 28 26  1  0
 29 28  1  0
 30 28  2  0
M  END
$$$$
