QYN.pdb
     RDKit          3D

 30 30  0  0  1  0  0  0  0  0999 V2000
   28.7616  -24.1555  -16.7193 N   0  0  0  0  0  0  0  0  0  0  0  0
   27.6958  -23.3607  -17.1805 C   0  0  0  0  0  0  0  0  0  0  0  0
   27.8146  -22.1218  -17.1954 O   0  0  0  0  0  0  0  0  0  0  0  0
   26.4608  -24.0025  -17.6413 C   0  0  0  0  0  0  0  0  0  0  0  0
   25.1955  -23.5757  -16.9960 C   0  0  0  0  0  0  0  0  0  0  0  0
   25.1427  -23.8760  -15.5463 C   0  0  2  0  0  0  0  0  0  0  0  0
   25.0996  -25.2550  -15.1627 N   0  0  0  0  0  0  0  0  0  0  0  0
   23.9739  -23.2124  -14.8742 C   0  0  0  0  0  0  0  0  0  0  0  0
   23.0050  -23.8629  -14.3955 O   0  0  0  0  0  0  0  0  0  0  0  0
   26.5016  -21.2414   -8.7656 O   0  0  0  0  0  0  0  0  0  0  0  0
   25.7545  -20.9212   -9.8973 C   0  0  0  0  0  0  0  0  0  0  0  0
   26.3693  -20.8631  -11.1284 C   0  0  0  0  0  0  0  0  0  0  0  0
   25.6500  -20.5488  -12.2583 C   0  0  0  0  0  0  0  0  0  0  0  0
   24.2924  -20.2966  -12.0971 C   0  0  0  0  0  0  0  0  0  0  0  0
   23.5157  -19.9534  -13.2922 C   0  0  0  0  0  0  0  0  0  0  0  0
   22.8375  -21.1726  -13.9322 C   0  0  2  0  0  0  0  0  0  0  0  0
   23.8929  -21.7933  -14.7377 N   0  0  0  0  0  0  0  0  0  0  0  0
   21.6704  -20.8132  -14.7368 C   0  0  0  0  0  0  0  0  0  0  0  0
   21.8044  -20.2557  -15.8597 O   0  0  0  0  0  0  0  0  0  0  0  0
   23.6587  -20.3480  -10.8838 C   0  0  0  0  0  0  0  0  0  0  0  0
   24.4091  -20.6664   -9.7704 C   0  0  0  0  0  0  0  0  0  0  0  0
   19.1716  -22.7223  -17.0020 N   0  0  0  0  0  0  0  0  0  0  0  0
   18.4010  -23.0666  -15.8454 C   0  0  0  0  0  0  0  0  0  0  0  0
   17.8508  -24.1711  -15.7740 O   0  0  0  0  0  0  0  0  0  0  0  0
   18.2922  -22.0817  -14.7744 C   0  0  0  0  0  0  0  0  0  0  0  0
   19.1558  -20.8763  -15.0790 C   0  0  2  0  0  0  0  0  0  0  0  0
   20.3719  -21.0894  -14.2599 N   0  0  0  0  0  0  0  0  0  0  0  0
   18.5858  -19.6046  -14.5914 C   0  0  0  0  0  0  0  0  0  0  0  0
   17.6765  -18.8207  -15.2766 O   0  0  0  0  0  0  0  0  0  0  0  0
   18.9251  -19.1386  -13.4462 O   0  0  0  0  0  0  0  0  0  0  0  0
  2  1  1  0
  3  2  2  0
  4  2  1  0
  5  4  1  0
  6  7  1  6
  6  5  1  0
  8  6  1  0
  9  8  2  0
 10 11  1  0
 11 21  2  0
 11 12  1  0
 12 13  2  0
 13 14  1  0
 14 15  1  0
 16 15  1  6
 16 18  1  0
 16 17  1  0
 17  8  1  0
 18 19  2  0
 20 14  2  0
 21 20  1  0
 23 22  1  0
 24 23  2  0
 25 23  1  0
 26 25  1  1
 27 26  1  0
 27 18  1  0
 28 26  1  0
 29 28  1  0
 30 28  2  0
M  END
$$$$
