QYN.pdb
     RDKit          3D

 30 30  0  0  1  0  0  0  0  0999 V2000
   26.5196  -16.0717  -19.4051 N   0  0  0  0  0  0  0  0  0  0  0  0
   27.0192  -16.6951  -20.5636 C   0  0  0  0  0  0  0  0  0  0  0  0
   27.5037  -15.9998  -21.4753 O   0  0  0  0  0  0  0  0  0  0  0  0
   26.9661  -18.1556  -20.6800 C   0  0  0  0  0  0  0  0  0  0  0  0
   26.4389  -18.9080  -19.5159 C   0  0  0  0  0  0  0  0  0  0  0  0
   27.4900  -19.3265  -18.5595 C   0  0  2  0  0  0  0  0  0  0  0  0
   28.4778  -20.2492  -19.0322 N   0  0  0  0  0  0  0  0  0  0  0  0
   26.9101  -19.9292  -17.3110 C   0  0  0  0  0  0  0  0  0  0  0  0
   26.3805  -21.0738  -17.2905 O   0  0  0  0  0  0  0  0  0  0  0  0
   24.9011  -21.1288   -8.8755 O   0  0  0  0  0  0  0  0  0  0  0  0
   25.4094  -20.6453  -10.0794 C   0  0  0  0  0  0  0  0  0  0  0  0
   25.0882  -19.3720  -10.4948 C   0  0  0  0  0  0  0  0  0  0  0  0
   25.5794  -18.8753  -11.6801 C   0  0  0  0  0  0  0  0  0  0  0  0
   26.4034  -19.7105  -12.4257 C   0  0  0  0  0  0  0  0  0  0  0  0
   26.9279  -19.1961  -13.6944 C   0  0  0  0  0  0  0  0  0  0  0  0
   26.1643  -19.7293  -14.9145 C   0  0  2  0  0  0  0  0  0  0  0  0
   26.9261  -19.2335  -16.0641 N   0  0  0  0  0  0  0  0  0  0  0  0
   24.7703  -19.2884  -14.9464 C   0  0  0  0  0  0  0  0  0  0  0  0
   24.4768  -18.0838  -15.1752 O   0  0  0  0  0  0  0  0  0  0  0  0
   26.7369  -20.9800  -12.0338 C   0  0  0  0  0  0  0  0  0  0  0  0
   26.2275  -21.4476  -10.8397 C   0  0  0  0  0  0  0  0  0  0  0  0
   19.2727  -21.1744  -16.1337 N   0  0  0  0  0  0  0  0  0  0  0  0
   20.2032  -20.1526  -15.7597 C   0  0  0  0  0  0  0  0  0  0  0  0
   19.7968  -19.0245  -15.4598 O   0  0  0  0  0  0  0  0  0  0  0  0
   21.6232  -20.4880  -15.7467 C   0  0  0  0  0  0  0  0  0  0  0  0
   22.3127  -19.8102  -14.5821 C   0  0  2  0  0  0  0  0  0  0  0  0
   23.7313  -20.2152  -14.7193 N   0  0  0  0  0  0  0  0  0  0  0  0
   21.8936  -20.3301  -13.2653 C   0  0  0  0  0  0  0  0  0  0  0  0
   20.9932  -19.7182  -12.4134 O   0  0  0  0  0  0  0  0  0  0  0  0
   22.3705  -21.4346  -12.8223 O   0  0  0  0  0  0  0  0  0  0  0  0
  2  1  1  0
  3  2  2  0
  4  2  1  0
  5  4  1  0
  6  7  1  6
  6  5  1  0
  8  6  1  0
  9  8  2  0
 10 11  1  0
 11 21  2  0
 11 12  1  0
 12 13  2  0
 13 14  1  0
 14 15  1  0
 16 15  1  1
 16 18  1  0
 16 17  1  0
 17  8  1  0
 18 19  2  0
 20 14  2  0
 21 20  1  0
 23 22  1  0
 24 23  2  0
 25 23  1  0
 26 25  1  6
 27 26  1  0
 27 18  1  0
 28 26  1  0
 29 28  1  0
 30 28  2  0
M  END
$$$$
