QYN.pdb
     RDKit          3D

 30 30  0  0  1  0  0  0  0  0999 V2000
   29.3753  -24.2862  -18.8424 N   0  0  0  0  0  0  0  0  0  0  0  0
   30.1939  -23.1481  -18.9650 C   0  0  0  0  0  0  0  0  0  0  0  0
   30.9474  -23.0362  -19.9494 O   0  0  0  0  0  0  0  0  0  0  0  0
   30.1457  -22.1071  -17.9338 C   0  0  0  0  0  0  0  0  0  0  0  0
   29.2407  -22.3379  -16.7817 C   0  0  0  0  0  0  0  0  0  0  0  0
   27.8525  -21.8799  -17.0218 C   0  0  2  0  0  0  0  0  0  0  0  0
   27.6696  -20.5128  -17.4064 N   0  0  0  0  0  0  0  0  0  0  0  0
   26.9687  -22.1060  -15.8276 C   0  0  0  0  0  0  0  0  0  0  0  0
   26.8939  -23.2181  -15.2372 O   0  0  0  0  0  0  0  0  0  0  0  0
   22.8964  -20.6861   -8.3081 O   0  0  0  0  0  0  0  0  0  0  0  0
   23.5661  -20.5601   -9.5234 C   0  0  0  0  0  0  0  0  0  0  0  0
   24.8712  -20.9868   -9.6322 C   0  0  0  0  0  0  0  0  0  0  0  0
   25.5506  -20.8716  -10.8230 C   0  0  0  0  0  0  0  0  0  0  0  0
   24.8641  -20.3114  -11.8941 C   0  0  0  0  0  0  0  0  0  0  0  0
   25.5789  -20.1762  -13.1670 C   0  0  0  0  0  0  0  0  0  0  0  0
   25.2675  -21.3143  -14.1487 C   0  0  2  0  0  0  0  0  0  0  0  0
   26.1554  -21.0639  -15.2874 N   0  0  0  0  0  0  0  0  0  0  0  0
   23.8603  -21.3500  -14.5453 C   0  0  0  0  0  0  0  0  0  0  0  0
   23.3887  -20.4907  -15.3383 O   0  0  0  0  0  0  0  0  0  0  0  0
   23.5667  -19.8798  -11.8105 C   0  0  0  0  0  0  0  0  0  0  0  0
   22.9139  -20.0099  -10.6018 C   0  0  0  0  0  0  0  0  0  0  0  0
   19.0139  -23.0226  -14.8574 N   0  0  0  0  0  0  0  0  0  0  0  0
   19.7307  -24.0206  -14.1225 C   0  0  0  0  0  0  0  0  0  0  0  0
   19.1661  -25.0676  -13.7869 O   0  0  0  0  0  0  0  0  0  0  0  0
   21.1273  -23.7587  -13.7910 C   0  0  0  0  0  0  0  0  0  0  0  0
   21.5767  -22.4499  -14.4047 C   0  0  2  0  0  0  0  0  0  0  0  0
   23.0097  -22.3554  -14.0399 N   0  0  0  0  0  0  0  0  0  0  0  0
   20.9479  -21.2640  -13.7899 C   0  0  0  0  0  0  0  0  0  0  0  0
   21.2735  -20.7359  -12.5545 O   0  0  0  0  0  0  0  0  0  0  0  0
   20.0177  -20.6311  -14.4044 O   0  0  0  0  0  0  0  0  0  0  0  0
  2  1  1  0
  3  2  2  0
  4  2  1  0
  5  4  1  0
  6  7  1  1
  6  5  1  0
  8  6  1  0
  9  8  2  0
 10 11  1  0
 11 21  2  0
 11 12  1  0
 12 13  2  0
 13 14  1  0
 14 15  1  0
 16 15  1  1
 16 18  1  0
 16 17  1  0
 17  8  1  0
 18 19  2  0
 20 14  2  0
 21 20  1  0
 23 22  1  0
 24 23  2  0
 25 23  1  0
 26 25  1  1
 27 26  1  0
 27 18  1  0
 28 26  1  0
 29 28  1  0
 30 28  2  0
M  END
$$$$
