QYN.pdb
     RDKit          3D

 30 30  0  0  1  0  0  0  0  0999 V2000
   24.3188  -19.7895  -18.7267 N   0  0  0  0  0  0  0  0  0  0  0  0
   24.8732  -20.6479  -19.6942 C   0  0  0  0  0  0  0  0  0  0  0  0
   24.8534  -20.3164  -20.8938 O   0  0  0  0  0  0  0  0  0  0  0  0
   25.4705  -21.9200  -19.2763 C   0  0  0  0  0  0  0  0  0  0  0  0
   25.4130  -22.2518  -17.8320 C   0  0  0  0  0  0  0  0  0  0  0  0
   26.2961  -21.4047  -16.9970 C   0  0  2  0  0  0  0  0  0  0  0  0
   27.6895  -21.3850  -17.3262 N   0  0  0  0  0  0  0  0  0  0  0  0
   26.2099  -21.7632  -15.5402 C   0  0  0  0  0  0  0  0  0  0  0  0
   25.8729  -22.9111  -15.1407 O   0  0  0  0  0  0  0  0  0  0  0  0
   26.4116  -20.4371   -6.8216 O   0  0  0  0  0  0  0  0  0  0  0  0
   26.6063  -20.3708   -8.1997 C   0  0  0  0  0  0  0  0  0  0  0  0
   25.6817  -19.7251   -8.9904 C   0  0  0  0  0  0  0  0  0  0  0  0
   25.8549  -19.6482  -10.3531 C   0  0  0  0  0  0  0  0  0  0  0  0
   26.9925  -20.2459  -10.8834 C   0  0  0  0  0  0  0  0  0  0  0  0
   27.1855  -20.1774  -12.3351 C   0  0  0  0  0  0  0  0  0  0  0  0
   26.2554  -21.1251  -13.1050 C   0  0  2  0  0  0  0  0  0  0  0  0
   26.5081  -20.8151  -14.5148 N   0  0  0  0  0  0  0  0  0  0  0  0
   24.8482  -20.9512  -12.7467 C   0  0  0  0  0  0  0  0  0  0  0  0
   24.4551  -21.1253  -11.5615 O   0  0  0  0  0  0  0  0  0  0  0  0
   27.9258  -20.8935  -10.1179 C   0  0  0  0  0  0  0  0  0  0  0  0
   27.7221  -20.9525   -8.7544 C   0  0  0  0  0  0  0  0  0  0  0  0
   19.9102  -18.8805  -15.3272 N   0  0  0  0  0  0  0  0  0  0  0  0
   20.6704  -18.8857  -14.1140 C   0  0  0  0  0  0  0  0  0  0  0  0
   20.1101  -18.6833  -13.0311 O   0  0  0  0  0  0  0  0  0  0  0  0
   22.1054  -19.1344  -14.2036 C   0  0  0  0  0  0  0  0  0  0  0  0
   22.4709  -20.3862  -13.4352 C   0  0  2  0  0  0  0  0  0  0  0  0
   23.9089  -20.5836  -13.7329 N   0  0  0  0  0  0  0  0  0  0  0  0
   21.8064  -21.6037  -13.9413 C   0  0  0  0  0  0  0  0  0  0  0  0
   22.2746  -22.4027  -14.9675 O   0  0  0  0  0  0  0  0  0  0  0  0
   20.7017  -22.0013  -13.4264 O   0  0  0  0  0  0  0  0  0  0  0  0
  2  1  1  0
  3  2  2  0
  4  2  1  0
  5  4  1  0
  6  7  1  6
  6  5  1  0
  8  6  1  0
  9  8  2  0
 10 11  1  0
 11 21  2  0
 11 12  1  0
 12 13  2  0
 13 14  1  0
 14 15  1  0
 16 15  1  1
 16 18  1  0
 16 17  1  0
 17  8  1  0
 18 19  2  0
 20 14  2  0
 21 20  1  0
 23 22  1  0
 24 23  2  0
 25 23  1  0
 26 25  1  6
 27 26  1  0
 27 18  1  0
 28 26  1  0
 29 28  1  0
 30 28  2  0
M  END
$$$$
