QYN.pdb
     RDKit          3D

 30 30  0  0  1  0  0  0  0  0999 V2000
   29.2860  -25.0017  -18.9777 N   0  0  0  0  0  0  0  0  0  0  0  0
   29.7855  -23.7346  -19.3320 C   0  0  0  0  0  0  0  0  0  0  0  0
   29.8693  -23.4209  -20.5336 O   0  0  0  0  0  0  0  0  0  0  0  0
   30.1971  -22.7990  -18.2809 C   0  0  0  0  0  0  0  0  0  0  0  0
   29.3985  -22.7920  -17.0312 C   0  0  0  0  0  0  0  0  0  0  0  0
   28.0528  -22.1947  -17.1951 C   0  0  2  0  0  0  0  0  0  0  0  0
   27.9884  -20.8092  -17.5506 N   0  0  0  0  0  0  0  0  0  0  0  0
   27.2096  -22.3553  -15.9615 C   0  0  0  0  0  0  0  0  0  0  0  0
   26.9971  -23.4763  -15.4238 O   0  0  0  0  0  0  0  0  0  0  0  0
   23.9159  -20.6999   -8.1169 O   0  0  0  0  0  0  0  0  0  0  0  0
   24.4762  -20.5945   -9.3882 C   0  0  0  0  0  0  0  0  0  0  0  0
   25.7458  -21.0767   -9.6179 C   0  0  0  0  0  0  0  0  0  0  0  0
   26.3174  -20.9826  -10.8658 C   0  0  0  0  0  0  0  0  0  0  0  0
   25.5608  -20.3855  -11.8675 C   0  0  0  0  0  0  0  0  0  0  0  0
   26.1611  -20.2724  -13.2002 C   0  0  0  0  0  0  0  0  0  0  0  0
   25.7499  -21.4162  -14.1377 C   0  0  2  0  0  0  0  0  0  0  0  0
   26.5952  -21.2365  -15.3213 N   0  0  0  0  0  0  0  0  0  0  0  0
   24.3258  -21.3914  -14.4694 C   0  0  0  0  0  0  0  0  0  0  0  0
   23.8764  -20.5943  -15.3367 O   0  0  0  0  0  0  0  0  0  0  0  0
   24.2968  -19.8985  -11.6636 C   0  0  0  0  0  0  0  0  0  0  0  0
   23.7526  -20.0088  -10.4004 C   0  0  0  0  0  0  0  0  0  0  0  0
   19.5300  -24.6980  -14.4326 N   0  0  0  0  0  0  0  0  0  0  0  0
   20.0520  -23.6893  -13.5610 C   0  0  0  0  0  0  0  0  0  0  0  0
   19.2819  -22.9497  -12.9384 O   0  0  0  0  0  0  0  0  0  0  0  0
   21.5011  -23.5701  -13.4385 C   0  0  0  0  0  0  0  0  0  0  0  0
   21.9845  -22.3095  -14.1231 C   0  0  2  0  0  0  0  0  0  0  0  0
   23.4334  -22.2670  -13.8161 N   0  0  0  0  0  0  0  0  0  0  0  0
   21.4341  -21.0717  -13.5359 C   0  0  0  0  0  0  0  0  0  0  0  0
   20.4550  -20.2814  -14.1083 O   0  0  0  0  0  0  0  0  0  0  0  0
   21.8605  -20.6451  -12.4046 O   0  0  0  0  0  0  0  0  0  0  0  0
  2  1  1  0
  3  2  2  0
  4  2  1  0
  5  4  1  0
  6  7  1  1
  6  5  1  0
  8  6  1  0
  9  8  2  0
 10 11  1  0
 11 21  2  0
 11 12  1  0
 12 13  2  0
 13 14  1  0
 14 15  1  0
 16 15  1  1
 16 18  1  0
 16 17  1  0
 17  8  1  0
 18 19  2  0
 20 14  2  0
 21 20  1  0
 23 22  1  0
 24 23  2  0
 25 23  1  0
 26 25  1  1
 27 26  1  0
 27 18  1  0
 28 26  1  0
 29 28  1  0
 30 28  2  0
M  END
$$$$
