QYN.pdb
     RDKit          3D

 30 30  0  0  1  0  0  0  0  0999 V2000
   28.3935  -17.9251  -17.4660 N   0  0  0  0  0  0  0  0  0  0  0  0
   27.6584  -18.5856  -18.4679 C   0  0  0  0  0  0  0  0  0  0  0  0
   26.6567  -18.0343  -18.9597 O   0  0  0  0  0  0  0  0  0  0  0  0
   28.0843  -19.9130  -18.9220 C   0  0  0  0  0  0  0  0  0  0  0  0
   27.2922  -21.0751  -18.4515 C   0  0  0  0  0  0  0  0  0  0  0  0
   27.9255  -21.8040  -17.3280 C   0  0  2  0  0  0  0  0  0  0  0  0
   28.4858  -23.0906  -17.6131 N   0  0  0  0  0  0  0  0  0  0  0  0
   26.9795  -21.9994  -16.1769 C   0  0  0  0  0  0  0  0  0  0  0  0
   26.1667  -22.9622  -16.1199 O   0  0  0  0  0  0  0  0  0  0  0  0
   23.3806  -20.6699   -8.2510 O   0  0  0  0  0  0  0  0  0  0  0  0
   24.1799  -20.6192   -9.3912 C   0  0  0  0  0  0  0  0  0  0  0  0
   23.7875  -19.8549  -10.4677 C   0  0  0  0  0  0  0  0  0  0  0  0
   24.5621  -19.7911  -11.6030 C   0  0  0  0  0  0  0  0  0  0  0  0
   25.7423  -20.5257  -11.6086 C   0  0  0  0  0  0  0  0  0  0  0  0
   26.5734  -20.4721  -12.8151 C   0  0  0  0  0  0  0  0  0  0  0  0
   25.9806  -21.2730  -13.9828 C   0  0  2  0  0  0  0  0  0  0  0  0
   26.9469  -21.0971  -15.0705 N   0  0  0  0  0  0  0  0  0  0  0  0
   24.6416  -20.8198  -14.3573 C   0  0  0  0  0  0  0  0  0  0  0  0
   24.4723  -19.7217  -14.9532 O   0  0  0  0  0  0  0  0  0  0  0  0
   26.1535  -21.2929  -10.5509 C   0  0  0  0  0  0  0  0  0  0  0  0
   25.3536  -21.3350   -9.4274 C   0  0  0  0  0  0  0  0  0  0  0  0
   19.6601  -20.9811  -15.3909 N   0  0  0  0  0  0  0  0  0  0  0  0
   20.4161  -22.0420  -15.9849 C   0  0  0  0  0  0  0  0  0  0  0  0
   19.9014  -22.7614  -16.8481 O   0  0  0  0  0  0  0  0  0  0  0  0
   21.7920  -22.2375  -15.5400 C   0  0  0  0  0  0  0  0  0  0  0  0
   22.1401  -21.2413  -14.4549 C   0  0  2  0  0  0  0  0  0  0  0  0
   23.5165  -21.6143  -14.0527 N   0  0  0  0  0  0  0  0  0  0  0  0
   21.3300  -21.3965  -13.2303 C   0  0  0  0  0  0  0  0  0  0  0  0
   21.7811  -21.9222  -12.0340 O   0  0  0  0  0  0  0  0  0  0  0  0
   20.1010  -21.0321  -13.2151 O   0  0  0  0  0  0  0  0  0  0  0  0
  2  1  1  0
  3  2  2  0
  4  2  1  0
  5  4  1  0
  6  7  1  6
  6  5  1  0
  8  6  1  0
  9  8  2  0
 10 11  1  0
 11 21  2  0
 11 12  1  0
 12 13  2  0
 13 14  1  0
 14 15  1  0
 16 15  1  1
 16 18  1  0
 16 17  1  0
 17  8  1  0
 18 19  2  0
 20 14  2  0
 21 20  1  0
 23 22  1  0
 24 23  2  0
 25 23  1  0
 26 25  1  6
 27 26  1  0
 27 18  1  0
 28 26  1  0
 29 28  1  0
 30 28  2  0
M  END
$$$$
