QYN.pdb
     RDKit          3D

 30 30  0  0  1  0  0  0  0  0999 V2000
   19.3885  -22.2229  -14.2298 N   0  0  0  0  0  0  0  0  0  0  0  0
   18.5866  -21.5255  -13.3072 C   0  0  0  0  0  0  0  0  0  0  0  0
   17.4517  -21.9556  -13.0310 O   0  0  0  0  0  0  0  0  0  0  0  0
   19.1000  -20.3037  -12.6804 C   0  0  0  0  0  0  0  0  0  0  0  0
   20.5158  -19.9510  -12.9457 C   0  0  0  0  0  0  0  0  0  0  0  0
   21.4778  -20.9643  -12.4535 C   0  0  2  0  0  0  0  0  0  0  0  0
   21.4393  -21.2828  -11.0580 N   0  0  0  0  0  0  0  0  0  0  0  0
   22.8999  -20.5906  -12.7638 C   0  0  0  0  0  0  0  0  0  0  0  0
   23.2069  -19.5325  -13.3779 O   0  0  0  0  0  0  0  0  0  0  0  0
   25.8232  -19.4325   -6.6215 O   0  0  0  0  0  0  0  0  0  0  0  0
   25.9238  -20.0148   -7.8834 C   0  0  0  0  0  0  0  0  0  0  0  0
   25.1541  -21.1145   -8.1921 C   0  0  0  0  0  0  0  0  0  0  0  0
   25.2382  -21.7045   -9.4322 C   0  0  0  0  0  0  0  0  0  0  0  0
   26.1254  -21.1435  -10.3435 C   0  0  0  0  0  0  0  0  0  0  0  0
   26.2300  -21.7670  -11.6662 C   0  0  0  0  0  0  0  0  0  0  0  0
   25.3730  -21.0618  -12.7266 C   0  0  2  0  0  0  0  0  0  0  0  0
   23.9958  -21.4205  -12.3769 N   0  0  0  0  0  0  0  0  0  0  0  0
   25.7170  -21.4629  -14.0902 C   0  0  0  0  0  0  0  0  0  0  0  0
   25.2968  -22.5499  -14.5712 O   0  0  0  0  0  0  0  0  0  0  0  0
   26.9012  -20.0506  -10.0599 C   0  0  0  0  0  0  0  0  0  0  0  0
   26.7926  -19.4827   -8.8070 C   0  0  0  0  0  0  0  0  0  0  0  0
   25.7498  -20.1400  -18.9154 N   0  0  0  0  0  0  0  0  0  0  0  0
   24.7235  -19.7898  -17.9806 C   0  0  0  0  0  0  0  0  0  0  0  0
   23.6338  -19.3700  -18.3856 O   0  0  0  0  0  0  0  0  0  0  0  0
   25.0083  -19.9445  -16.5579 C   0  0  0  0  0  0  0  0  0  0  0  0
   26.3851  -20.5415  -16.3594 C   0  0  2  0  0  0  0  0  0  0  0  0
   26.5296  -20.6298  -14.8874 N   0  0  0  0  0  0  0  0  0  0  0  0
   27.4810  -19.6543  -16.7973 C   0  0  0  0  0  0  0  0  0  0  0  0
   28.1519  -19.7467  -18.0024 O   0  0  0  0  0  0  0  0  0  0  0  0
   27.8871  -18.7028  -16.0401 O   0  0  0  0  0  0  0  0  0  0  0  0
  2  1  1  0
  3  2  2  0
  4  2  1  0
  5  4  1  0
  6  7  1  1
  6  5  1  0
  8  6  1  0
  9  8  2  0
 10 11  1  0
 11 21  2  0
 11 12  1  0
 12 13  2  0
 13 14  1  0
 14 15  1  0
 16 15  1  1
 16 18  1  0
 16 17  1  0
 17  8  1  0
 18 19  2  0
 20 14  2  0
 21 20  1  0
 23 22  1  0
 24 23  2  0
 25 23  1  0
 26 25  1  1
 27 26  1  0
 27 18  1  0
 28 26  1  0
 29 28  1  0
 30 28  2  0
M  END
$$$$
