QYN.pdb
     RDKit          3D

 30 30  0  0  1  0  0  0  0  0999 V2000
   28.5094  -17.4971  -18.1566 N   0  0  0  0  0  0  0  0  0  0  0  0
   28.3642  -17.9827  -19.4694 C   0  0  0  0  0  0  0  0  0  0  0  0
   29.0512  -17.4937  -20.3850 O   0  0  0  0  0  0  0  0  0  0  0  0
   27.4086  -19.0609  -19.7410 C   0  0  0  0  0  0  0  0  0  0  0  0
   26.6701  -19.6178  -18.5818 C   0  0  0  0  0  0  0  0  0  0  0  0
   27.4615  -20.5876  -17.7895 C   0  0  2  0  0  0  0  0  0  0  0  0
   27.8626  -21.7969  -18.4430 N   0  0  0  0  0  0  0  0  0  0  0  0
   26.7520  -21.0012  -16.5310 C   0  0  0  0  0  0  0  0  0  0  0  0
   25.7110  -21.7133  -16.5394 O   0  0  0  0  0  0  0  0  0  0  0  0
   24.6984  -20.5306   -7.9559 O   0  0  0  0  0  0  0  0  0  0  0  0
   25.3497  -20.4910   -9.1871 C   0  0  0  0  0  0  0  0  0  0  0  0
   25.7244  -19.2790   -9.7235 C   0  0  0  0  0  0  0  0  0  0  0  0
   26.3684  -19.2177  -10.9377 C   0  0  0  0  0  0  0  0  0  0  0  0
   26.6178  -20.4220  -11.5858 C   0  0  0  0  0  0  0  0  0  0  0  0
   27.2970  -20.3703  -12.8840 C   0  0  0  0  0  0  0  0  0  0  0  0
   26.3907  -20.7949  -14.0478 C   0  0  2  0  0  0  0  0  0  0  0  0
   27.2210  -20.6078  -15.2408 N   0  0  0  0  0  0  0  0  0  0  0  0
   25.1522  -20.0200  -14.1119 C   0  0  0  0  0  0  0  0  0  0  0  0
   25.1319  -18.8730  -14.6349 O   0  0  0  0  0  0  0  0  0  0  0  0
   26.2549  -21.6392  -11.0728 C   0  0  0  0  0  0  0  0  0  0  0  0
   25.6107  -21.6656   -9.8528 C   0  0  0  0  0  0  0  0  0  0  0  0
   20.6188  -18.0766  -14.5485 N   0  0  0  0  0  0  0  0  0  0  0  0
   20.9595  -19.2626  -15.2744 C   0  0  0  0  0  0  0  0  0  0  0  0
   20.1321  -19.7863  -16.0286 O   0  0  0  0  0  0  0  0  0  0  0  0
   22.2961  -19.8191  -15.0928 C   0  0  0  0  0  0  0  0  0  0  0  0
   22.6683  -19.8243  -13.6255 C   0  0  2  0  0  0  0  0  0  0  0  0
   23.9575  -20.5534  -13.5845 N   0  0  0  0  0  0  0  0  0  0  0  0
   21.7519  -20.6233  -12.7878 C   0  0  0  0  0  0  0  0  0  0  0  0
   21.9753  -21.9228  -12.3729 O   0  0  0  0  0  0  0  0  0  0  0  0
   20.6427  -20.1244  -12.3822 O   0  0  0  0  0  0  0  0  0  0  0  0
  2  1  1  0
  3  2  2  0
  4  2  1  0
  5  4  1  0
  6  7  1  6
  6  5  1  0
  8  6  1  0
  9  8  2  0
 10 11  1  0
 11 21  2  0
 11 12  1  0
 12 13  2  0
 13 14  1  0
 14 15  1  0
 16 15  1  1
 16 18  1  0
 16 17  1  0
 17  8  1  0
 18 19  2  0
 20 14  2  0
 21 20  1  0
 23 22  1  0
 24 23  2  0
 25 23  1  0
 26 25  1  6
 27 26  1  0
 27 18  1  0
 28 26  1  0
 29 28  1  0
 30 28  2  0
M  END
$$$$
