QYN.pdb
     RDKit          3D

 30 30  0  0  1  0  0  0  0  0999 V2000
   26.8467  -23.2296  -16.0908 N   0  0  0  0  0  0  0  0  0  0  0  0
   27.9530  -22.4206  -16.4104 C   0  0  0  0  0  0  0  0  0  0  0  0
   29.0720  -22.6958  -15.9398 O   0  0  0  0  0  0  0  0  0  0  0  0
   27.7739  -21.2666  -17.2967 C   0  0  0  0  0  0  0  0  0  0  0  0
   26.4214  -21.0556  -17.8674 C   0  0  0  0  0  0  0  0  0  0  0  0
   26.0354  -19.6282  -17.9565 C   0  0  2  0  0  0  0  0  0  0  0  0
   27.0834  -18.6574  -17.8584 N   0  0  0  0  0  0  0  0  0  0  0  0
   25.0128  -19.2539  -16.9209 C   0  0  0  0  0  0  0  0  0  0  0  0
   25.3279  -18.8308  -15.7752 O   0  0  0  0  0  0  0  0  0  0  0  0
   21.2725  -14.8868  -20.7944 O   0  0  0  0  0  0  0  0  0  0  0  0
   21.6428  -15.5248  -19.6124 C   0  0  0  0  0  0  0  0  0  0  0  0
   22.9579  -15.8811  -19.4109 C   0  0  0  0  0  0  0  0  0  0  0  0
   23.3447  -16.5118  -18.2509 C   0  0  0  0  0  0  0  0  0  0  0  0
   22.3564  -16.7675  -17.3072 C   0  0  0  0  0  0  0  0  0  0  0  0
   22.7538  -17.4455  -16.0697 C   0  0  0  0  0  0  0  0  0  0  0  0
   22.6290  -18.9727  -16.1607 C   0  0  2  0  0  0  0  0  0  0  0  0
   23.6118  -19.3568  -17.1777 N   0  0  0  0  0  0  0  0  0  0  0  0
   21.2775  -19.4099  -16.5084 C   0  0  0  0  0  0  0  0  0  0  0  0
   20.9327  -19.5538  -17.7126 O   0  0  0  0  0  0  0  0  0  0  0  0
   21.0425  -16.4231  -17.4848 C   0  0  0  0  0  0  0  0  0  0  0  0
   20.6880  -15.7916  -18.6593 C   0  0  0  0  0  0  0  0  0  0  0  0
   16.6099  -21.2694  -16.2797 N   0  0  0  0  0  0  0  0  0  0  0  0
   17.4756  -21.9603  -15.3725 C   0  0  0  0  0  0  0  0  0  0  0  0
   17.1751  -23.0889  -14.9679 O   0  0  0  0  0  0  0  0  0  0  0  0
   18.7031  -21.2931  -14.9518 C   0  0  0  0  0  0  0  0  0  0  0  0
   18.9311  -20.0437  -15.7753 C   0  0  2  0  0  0  0  0  0  0  0  0
   20.3382  -19.6774  -15.4905 N   0  0  0  0  0  0  0  0  0  0  0  0
   18.1363  -18.8852  -15.3211 C   0  0  0  0  0  0  0  0  0  0  0  0
   16.9005  -18.5180  -15.8200 O   0  0  0  0  0  0  0  0  0  0  0  0
   18.5773  -18.1205  -14.3915 O   0  0  0  0  0  0  0  0  0  0  0  0
  2  1  1  0
  3  2  2  0
  4  2  1  0
  5  4  1  0
  6  7  1  1
  6  5  1  0
  8  6  1  0
  9  8  2  0
 10 11  1  0
 11 21  2  0
 11 12  1  0
 12 13  2  0
 13 14  1  0
 14 15  1  0
 16 15  1  6
 16 18  1  0
 16 17  1  0
 17  8  1  0
 18 19  2  0
 20 14  2  0
 21 20  1  0
 23 22  1  0
 24 23  2  0
 25 23  1  0
 26 25  1  1
 27 26  1  0
 27 18  1  0
 28 26  1  0
 29 28  1  0
 30 28  2  0
M  END
$$$$
