QYN.pdb
     RDKit          3D

 30 30  0  0  1  0  0  0  0  0999 V2000
   26.0063  -18.5605  -18.0164 N   0  0  0  0  0  0  0  0  0  0  0  0
   26.2236  -19.5898  -18.9510 C   0  0  0  0  0  0  0  0  0  0  0  0
   25.4007  -19.7722  -19.8669 O   0  0  0  0  0  0  0  0  0  0  0  0
   27.4184  -20.4316  -18.8361 C   0  0  0  0  0  0  0  0  0  0  0  0
   28.3295  -20.1609  -17.6977 C   0  0  0  0  0  0  0  0  0  0  0  0
   28.6075  -21.3563  -16.8680 C   0  0  2  0  0  0  0  0  0  0  0  0
   28.8596  -22.5875  -17.5543 N   0  0  0  0  0  0  0  0  0  0  0  0
   27.5007  -21.6350  -15.8904 C   0  0  0  0  0  0  0  0  0  0  0  0
   26.7237  -22.6219  -16.0055 O   0  0  0  0  0  0  0  0  0  0  0  0
   22.7287  -20.7792   -8.5200 O   0  0  0  0  0  0  0  0  0  0  0  0
   23.6773  -20.6567   -9.5333 C   0  0  0  0  0  0  0  0  0  0  0  0
   24.9089  -21.2571   -9.3929 C   0  0  0  0  0  0  0  0  0  0  0  0
   25.8597  -21.1484  -10.3813 C   0  0  0  0  0  0  0  0  0  0  0  0
   25.5199  -20.4135  -11.5113 C   0  0  0  0  0  0  0  0  0  0  0  0
   26.5266  -20.2838  -12.5691 C   0  0  0  0  0  0  0  0  0  0  0  0
   26.1549  -21.0553  -13.8429 C   0  0  2  0  0  0  0  0  0  0  0  0
   27.2635  -20.7900  -14.7640 N   0  0  0  0  0  0  0  0  0  0  0  0
   24.8667  -20.6425  -14.3986 C   0  0  0  0  0  0  0  0  0  0  0  0
   24.7588  -19.5749  -15.0604 O   0  0  0  0  0  0  0  0  0  0  0  0
   24.3022  -19.8074  -11.6738 C   0  0  0  0  0  0  0  0  0  0  0  0
   23.3710  -19.9359  -10.6636 C   0  0  0  0  0  0  0  0  0  0  0  0
   20.2203  -20.6253  -16.2285 N   0  0  0  0  0  0  0  0  0  0  0  0
   21.1830  -21.4784  -16.8571 C   0  0  0  0  0  0  0  0  0  0  0  0
   20.9755  -21.9135  -17.9952 O   0  0  0  0  0  0  0  0  0  0  0  0
   22.3959  -21.8084  -16.1161 C   0  0  0  0  0  0  0  0  0  0  0  0
   22.3995  -21.1070  -14.7747 C   0  0  2  0  0  0  0  0  0  0  0  0
   23.7222  -21.4423  -14.1975 N   0  0  0  0  0  0  0  0  0  0  0  0
   21.4166  -21.6564  -13.8197 C   0  0  0  0  0  0  0  0  0  0  0  0
   20.3180  -20.9794  -13.3241 O   0  0  0  0  0  0  0  0  0  0  0  0
   21.5405  -22.8536  -13.3782 O   0  0  0  0  0  0  0  0  0  0  0  0
  2  1  1  0
  3  2  2  0
  4  2  1  0
  5  4  1  0
  6  7  1  6
  6  5  1  0
  8  6  1  0
  9  8  2  0
 10 11  1  0
 11 21  2  0
 11 12  1  0
 12 13  2  0
 13 14  1  0
 14 15  1  0
 16 15  1  1
 16 18  1  0
 16 17  1  0
 17  8  1  0
 18 19  2  0
 20 14  2  0
 21 20  1  0
 23 22  1  0
 24 23  2  0
 25 23  1  0
 26 25  1  6
 27 26  1  0
 27 18  1  0
 28 26  1  0
 29 28  1  0
 30 28  2  0
M  END
$$$$
