QYN.pdb
     RDKit          3D

 30 30  0  0  1  0  0  0  0  0999 V2000
   24.8649  -27.2217  -17.0276 N   0  0  0  0  0  0  0  0  0  0  0  0
   26.1159  -26.7509  -17.4677 C   0  0  0  0  0  0  0  0  0  0  0  0
   26.6663  -27.2900  -18.4453 O   0  0  0  0  0  0  0  0  0  0  0  0
   26.7529  -25.6290  -16.7714 C   0  0  0  0  0  0  0  0  0  0  0  0
   26.0289  -25.0538  -15.6119 C   0  0  0  0  0  0  0  0  0  0  0  0
   25.5432  -23.6740  -15.8458 C   0  0  2  0  0  0  0  0  0  0  0  0
   26.5211  -22.6281  -15.8641 N   0  0  0  0  0  0  0  0  0  0  0  0
   24.5028  -23.2637  -14.8421 C   0  0  0  0  0  0  0  0  0  0  0  0
   24.0424  -24.0571  -13.9763 O   0  0  0  0  0  0  0  0  0  0  0  0
   27.5843  -20.7734   -9.5536 O   0  0  0  0  0  0  0  0  0  0  0  0
   26.5573  -20.6289  -10.4840 C   0  0  0  0  0  0  0  0  0  0  0  0
   25.2454  -20.6916  -10.0693 C   0  0  0  0  0  0  0  0  0  0  0  0
   24.2163  -20.5514  -10.9717 C   0  0  0  0  0  0  0  0  0  0  0  0
   24.5622  -20.3466  -12.3025 C   0  0  0  0  0  0  0  0  0  0  0  0
   23.4751  -20.2028  -13.2756 C   0  0  0  0  0  0  0  0  0  0  0  0
   22.9725  -21.5508  -13.8107 C   0  0  2  0  0  0  0  0  0  0  0  0
   23.9709  -21.9388  -14.8109 N   0  0  0  0  0  0  0  0  0  0  0  0
   21.6276  -21.4679  -14.3789 C   0  0  0  0  0  0  0  0  0  0  0  0
   21.4396  -20.9952  -15.5325 O   0  0  0  0  0  0  0  0  0  0  0  0
   25.8590  -20.2807  -12.7390 C   0  0  0  0  0  0  0  0  0  0  0  0
   26.8673  -20.4251  -11.8082 C   0  0  0  0  0  0  0  0  0  0  0  0
   16.6135  -23.3897  -12.1763 N   0  0  0  0  0  0  0  0  0  0  0  0
   18.0022  -23.0868  -12.3484 C   0  0  0  0  0  0  0  0  0  0  0  0
   18.6690  -22.6733  -11.3934 O   0  0  0  0  0  0  0  0  0  0  0  0
   18.5889  -23.2814  -13.6702 C   0  0  0  0  0  0  0  0  0  0  0  0
   19.1471  -21.9758  -14.1948 C   0  0  2  0  0  0  0  0  0  0  0  0
   20.5177  -21.9201  -13.6348 N   0  0  0  0  0  0  0  0  0  0  0  0
   18.4655  -20.7833  -13.6532 C   0  0  0  0  0  0  0  0  0  0  0  0
   17.1593  -20.4180  -13.9207 O   0  0  0  0  0  0  0  0  0  0  0  0
   19.0851  -19.9837  -12.8657 O   0  0  0  0  0  0  0  0  0  0  0  0
  2  1  1  0
  3  2  2  0
  4  2  1  0
  5  4  1  0
  6  7  1  1
  6  5  1  0
  8  6  1  0
  9  8  2  0
 10 11  1  0
 11 21  2  0
 11 12  1  0
 12 13  2  0
 13 14  1  0
 14 15  1  0
 16 15  1  6
 16 18  1  0
 16 17  1  0
 17  8  1  0
 18 19  2  0
 20 14  2  0
 21 20  1  0
 23 22  1  0
 24 23  2  0
 25 23  1  0
 26 25  1  1
 27 26  1  0
 27 18  1  0
 28 26  1  0
 29 28  1  0
 30 28  2  0
M  END
$$$$
