QYN.pdb
     RDKit          3D

 30 30  0  0  1  0  0  0  0  0999 V2000
   16.0878  -11.9524  -14.5741 N   0  0  0  0  0  0  0  0  0  0  0  0
   15.9027  -12.5486  -15.8353 C   0  0  0  0  0  0  0  0  0  0  0  0
   14.8072  -13.0697  -16.1140 O   0  0  0  0  0  0  0  0  0  0  0  0
   17.0013  -12.5448  -16.8061 C   0  0  0  0  0  0  0  0  0  0  0  0
   18.2706  -11.9016  -16.3884 C   0  0  0  0  0  0  0  0  0  0  0  0
   19.4733  -12.7003  -16.7203 C   0  0  2  0  0  0  0  0  0  0  0  0
   19.5611  -14.0168  -16.1638 N   0  0  0  0  0  0  0  0  0  0  0  0
   20.7435  -11.9935  -16.3392 C   0  0  0  0  0  0  0  0  0  0  0  0
   20.9815  -11.6093  -15.1617 O   0  0  0  0  0  0  0  0  0  0  0  0
   29.2345   -9.8954  -16.8737 O   0  0  0  0  0  0  0  0  0  0  0  0
   27.9544  -10.4292  -17.0076 C   0  0  0  0  0  0  0  0  0  0  0  0
   27.2877  -10.3137  -18.2073 C   0  0  0  0  0  0  0  0  0  0  0  0
   26.0231  -10.8336  -18.3606 C   0  0  0  0  0  0  0  0  0  0  0  0
   25.4611  -11.4714  -17.2607 C   0  0  0  0  0  0  0  0  0  0  0  0
   24.1111  -12.0236  -17.4085 C   0  0  0  0  0  0  0  0  0  0  0  0
   23.0195  -11.0730  -16.8979 C   0  0  2  0  0  0  0  0  0  0  0  0
   21.7640  -11.7142  -17.2983 N   0  0  0  0  0  0  0  0  0  0  0  0
   23.1458   -9.7219  -17.4429 C   0  0  0  0  0  0  0  0  0  0  0  0
   22.9912   -9.5031  -18.6749 O   0  0  0  0  0  0  0  0  0  0  0  0
   26.1040  -11.5987  -16.0578 C   0  0  0  0  0  0  0  0  0  0  0  0
   27.3713  -11.0662  -15.9374 C   0  0  0  0  0  0  0  0  0  0  0  0
   23.5531   -4.6800  -17.7576 N   0  0  0  0  0  0  0  0  0  0  0  0
   22.3613   -5.1673  -17.1316 C   0  0  0  0  0  0  0  0  0  0  0  0
   21.4061   -4.4063  -16.9414 O   0  0  0  0  0  0  0  0  0  0  0  0
   22.3186   -6.5706  -16.7342 C   0  0  0  0  0  0  0  0  0  0  0  0
   23.6235   -7.2550  -17.0809 C   0  0  2  0  0  0  0  0  0  0  0  0
   23.4446   -8.6406  -16.5876 N   0  0  0  0  0  0  0  0  0  0  0  0
   24.7819   -6.7300  -16.3309 C   0  0  0  0  0  0  0  0  0  0  0  0
   25.7187   -5.8416  -16.8250 O   0  0  0  0  0  0  0  0  0  0  0  0
   24.9879   -7.0924  -15.1186 O   0  0  0  0  0  0  0  0  0  0  0  0
  2  1  1  0
  3  2  2  0
  4  2  1  0
  5  4  1  0
  6  7  1  1
  6  5  1  0
  8  6  1  0
  9  8  2  0
 10 11  1  0
 11 21  2  0
 11 12  1  0
 12 13  2  0
 13 14  1  0
 14 15  1  0
 16 15  1  6
 16 18  1  0
 16 17  1  0
 17  8  1  0
 18 19  2  0
 20 14  2  0
 21 20  1  0
 23 22  1  0
 24 23  2  0
 25 23  1  0
 26 25  1  1
 27 26  1  0
 27 18  1  0
 28 26  1  0
 29 28  1  0
 30 28  2  0
M  END
$$$$
