QYN.pdb
     RDKit          3D

 30 30  0  0  1  0  0  0  0  0999 V2000
   20.5079  -16.2473  -17.8867 N   0  0  0  0  0  0  0  0  0  0  0  0
   20.1035  -15.2610  -18.8055 C   0  0  0  0  0  0  0  0  0  0  0  0
   19.2317  -14.4355  -18.4771 O   0  0  0  0  0  0  0  0  0  0  0  0
   20.7170  -15.2162  -20.1363 C   0  0  0  0  0  0  0  0  0  0  0  0
   21.6485  -16.3151  -20.4888 C   0  0  0  0  0  0  0  0  0  0  0  0
   23.0404  -16.0737  -20.0428 C   0  0  2  0  0  0  0  0  0  0  0  0
   24.0610  -16.0744  -21.0472 N   0  0  0  0  0  0  0  0  0  0  0  0
   23.4764  -17.0586  -18.9949 C   0  0  0  0  0  0  0  0  0  0  0  0
   23.8669  -18.2243  -19.2772 O   0  0  0  0  0  0  0  0  0  0  0  0
   29.8604  -16.8795  -18.4584 O   0  0  0  0  0  0  0  0  0  0  0  0
   28.6369  -16.9148  -17.7926 C   0  0  0  0  0  0  0  0  0  0  0  0
   27.7617  -15.8582  -17.9144 C   0  0  0  0  0  0  0  0  0  0  0  0
   26.5487  -15.8730  -17.2654 C   0  0  0  0  0  0  0  0  0  0  0  0
   26.2555  -16.9908  -16.4926 C   0  0  0  0  0  0  0  0  0  0  0  0
   24.9691  -17.0161  -15.7899 C   0  0  0  0  0  0  0  0  0  0  0  0
   23.8643  -17.7140  -16.5950 C   0  0  2  0  0  0  0  0  0  0  0  0
   23.4739  -16.7274  -17.6058 N   0  0  0  0  0  0  0  0  0  0  0  0
   22.7342  -18.1275  -15.7640 C   0  0  0  0  0  0  0  0  0  0  0  0
   21.8514  -17.2990  -15.4121 O   0  0  0  0  0  0  0  0  0  0  0  0
   27.1093  -18.0533  -16.3560 C   0  0  0  0  0  0  0  0  0  0  0  0
   28.3178  -18.0069  -17.0203 C   0  0  0  0  0  0  0  0  0  0  0  0
   19.3622  -20.4612  -13.0047 N   0  0  0  0  0  0  0  0  0  0  0  0
   19.9825  -19.1878  -12.7960 C   0  0  0  0  0  0  0  0  0  0  0  0
   19.5212  -18.4038  -11.9593 O   0  0  0  0  0  0  0  0  0  0  0  0
   21.1582  -18.8575  -13.5945 C   0  0  0  0  0  0  0  0  0  0  0  0
   21.4583  -19.9717  -14.5742 C   0  0  2  0  0  0  0  0  0  0  0  0
   22.6200  -19.4695  -15.3447 N   0  0  0  0  0  0  0  0  0  0  0  0
   20.3950  -20.1763  -15.5779 C   0  0  0  0  0  0  0  0  0  0  0  0
   19.7904  -19.1773  -16.3177 O   0  0  0  0  0  0  0  0  0  0  0  0
   19.9553  -21.3548  -15.8260 O   0  0  0  0  0  0  0  0  0  0  0  0
  2  1  1  0
  3  2  2  0
  4  2  1  0
  5  4  1  0
  6  7  1  6
  6  5  1  0
  8  6  1  0
  9  8  2  0
 10 11  1  0
 11 21  2  0
 11 12  1  0
 12 13  2  0
 13 14  1  0
 14 15  1  0
 16 15  1  1
 16 18  1  0
 16 17  1  0
 17  8  1  0
 18 19  2  0
 20 14  2  0
 21 20  1  0
 23 22  1  0
 24 23  2  0
 25 23  1  0
 26 25  1  1
 27 26  1  0
 27 18  1  0
 28 26  1  0
 29 28  1  0
 30 28  2  0
M  END
$$$$
