PSC.pdb
     RDKit          3D

 20 20  0  0  1  0  0  0  0  0999 V2000
   18.0287  -12.3587  -16.2243 N   0  0  0  0  0  0  0  0  0  0  0  0
   16.9071  -12.7871  -15.4194 C   0  0  0  0  0  0  0  0  0  0  0  0
   15.8356  -11.7511  -15.7201 C   0  0  0  0  0  0  0  0  0  0  0  0
   16.6028  -10.4890  -15.9469 C   0  0  0  0  0  0  0  0  0  0  0  0
   17.9926  -10.9423  -16.3052 C   0  0  1  0  0  0  0  0  0  0  0  0
   19.0032  -10.2193  -15.5259 C   0  0  0  0  0  0  0  0  0  0  0  0
   19.0696  -10.4672  -14.2938 O   0  0  0  0  0  0  0  0  0  0  0  0
   22.9296   -7.5877  -14.9448 O   0  0  0  0  0  0  0  0  0  0  0  0
   21.9947   -7.9696  -15.9268 C   0  0  0  0  0  0  0  0  0  0  0  0
   20.8399   -8.6046  -15.1847 C   0  0  2  0  0  0  0  0  0  0  0  0
   19.9122   -9.2644  -16.0426 N   0  0  0  0  0  0  0  0  0  0  0  0
   20.1866   -7.5117  -14.4091 C   0  0  0  0  0  0  0  0  0  0  0  0
   19.2587   -6.8466  -14.9387 O   0  0  0  0  0  0  0  0  0  0  0  0
   20.5581   -7.1721  -13.0828 N   0  0  0  0  0  0  0  0  0  0  0  0
   19.9277   -6.1066  -12.3360 C   0  0  1  0  0  0  0  0  0  0  0  0
   19.6793   -6.6304  -10.9381 C   0  0  0  0  0  0  0  0  0  0  0  0
   19.0921   -5.3545   -9.8206 S   0  0  0  0  0  0  0  0  0  0  0  0
   20.8309   -4.9393  -12.3350 C   0  0  0  0  0  0  0  0  0  0  0  0
   22.0703   -5.0905  -12.2238 O   0  0  0  0  0  0  0  0  0  0  0  0
   20.3603   -3.6298  -12.4556 O   0  0  0  0  0  0  0  0  0  0  0  0
  2  1  1  0
  3  2  1  0
  4  3  1  0
  4  5  1  0
  5  6  1  1
  5  1  1  0
  6 11  1  0
  7  6  2  0
  9  8  1  0
 10  9  1  6
 10 12  1  0
 11 10  1  0
 12 14  1  0
 12 13  2  0
 14 15  1  0
 15 18  1  0
 15 16  1  1
 17 16  1  0
 18 20  1  0
 19 18  2  0
M  END
$$$$
