PSC.pdb
     RDKit          3D

 20 20  0  0  1  0  0  0  0  0999 V2000
   17.7966  -12.6474  -16.2825 N   0  0  0  0  0  0  0  0  0  0  0  0
   18.2470  -13.3220  -15.0861 C   0  0  0  0  0  0  0  0  0  0  0  0
   17.2328  -12.8999  -14.0349 C   0  0  0  0  0  0  0  0  0  0  0  0
   16.8534  -11.5103  -14.4323 C   0  0  0  0  0  0  0  0  0  0  0  0
   17.2019  -11.4190  -15.8937 C   0  0  1  0  0  0  0  0  0  0  0  0
   17.9712  -10.2034  -16.1800 C   0  0  0  0  0  0  0  0  0  0  0  0
   19.2230  -10.2719  -16.0696 O   0  0  0  0  0  0  0  0  0  0  0  0
   16.3559   -6.5333  -17.0331 O   0  0  0  0  0  0  0  0  0  0  0  0
   17.5776   -6.7777  -17.6904 C   0  0  0  0  0  0  0  0  0  0  0  0
   18.2743   -7.8597  -16.8959 C   0  0  2  0  0  0  0  0  0  0  0  0
   17.4245   -8.9570  -16.5708 N   0  0  0  0  0  0  0  0  0  0  0  0
   18.8117   -7.2019  -15.6706 C   0  0  0  0  0  0  0  0  0  0  0  0
   18.1925   -7.3222  -14.5817 O   0  0  0  0  0  0  0  0  0  0  0  0
   20.0041   -6.4334  -15.6619 N   0  0  0  0  0  0  0  0  0  0  0  0
   20.4949   -5.7533  -14.4842 C   0  0  1  0  0  0  0  0  0  0  0  0
   21.9165   -6.2218  -14.2607 C   0  0  0  0  0  0  0  0  0  0  0  0
   22.7527   -5.2902  -12.9745 S   0  0  0  0  0  0  0  0  0  0  0  0
   20.4247   -4.2983  -14.7218 C   0  0  0  0  0  0  0  0  0  0  0  0
   20.5696   -3.8317  -15.8762 O   0  0  0  0  0  0  0  0  0  0  0  0
   20.1975   -3.3828  -13.6918 O   0  0  0  0  0  0  0  0  0  0  0  0
  2  1  1  0
  3  2  1  0
  4  3  1  0
  4  5  1  0
  5  6  1  1
  5  1  1  0
  6 11  1  0
  7  6  2  0
  9  8  1  0
 10  9  1  1
 10 12  1  0
 11 10  1  0
 12 14  1  0
 12 13  2  0
 14 15  1  0
 15 18  1  0
 15 16  1  6
 17 16  1  0
 18 20  1  0
 19 18  2  0
M  END
$$$$
