PSC.pdb
     RDKit          3D

 20 20  0  0  1  0  0  0  0  0999 V2000
   19.8531  -12.3581  -18.3466 N   0  0  0  0  0  0  0  0  0  0  0  0
   19.5486  -13.7041  -17.9166 C   0  0  0  0  0  0  0  0  0  0  0  0
   18.0399  -13.6859  -17.7280 C   0  0  0  0  0  0  0  0  0  0  0  0
   17.7476  -12.2954  -17.2654 C   0  0  0  0  0  0  0  0  0  0  0  0
   18.9270  -11.4809  -17.7247 C   0  0  1  0  0  0  0  0  0  0  0  0
   19.4495  -10.6457  -16.6380 C   0  0  0  0  0  0  0  0  0  0  0  0
   18.6710   -9.7915  -16.1397 O   0  0  0  0  0  0  0  0  0  0  0  0
   23.3686  -10.5870  -15.1855 O   0  0  0  0  0  0  0  0  0  0  0  0
   22.3350  -10.3974  -14.2473 C   0  0  0  0  0  0  0  0  0  0  0  0
   21.1511   -9.8689  -15.0259 C   0  0  2  0  0  0  0  0  0  0  0  0
   20.7576  -10.7188  -16.1006 N   0  0  0  0  0  0  0  0  0  0  0  0
   21.5389   -8.5143  -15.5131 C   0  0  0  0  0  0  0  0  0  0  0  0
   21.7649   -8.3389  -16.7386 O   0  0  0  0  0  0  0  0  0  0  0  0
   21.6701   -7.3902  -14.6578 N   0  0  0  0  0  0  0  0  0  0  0  0
   21.9091   -6.0509  -15.1474 C   0  0  1  0  0  0  0  0  0  0  0  0
   20.6848   -5.6415  -15.9371 C   0  0  0  0  0  0  0  0  0  0  0  0
   20.6406   -3.8785  -16.2711 S   0  0  0  0  0  0  0  0  0  0  0  0
   22.1404   -5.1649  -13.9899 C   0  0  0  0  0  0  0  0  0  0  0  0
   21.6706   -5.4499  -12.8632 O   0  0  0  0  0  0  0  0  0  0  0  0
   22.8808   -3.9848  -14.0880 O   0  0  0  0  0  0  0  0  0  0  0  0
  2  1  1  0
  3  2  1  0
  4  3  1  0
  4  5  1  0
  5  6  1  1
  5  1  1  0
  6 11  1  0
  7  6  2  0
  9  8  1  0
 10  9  1  6
 10 12  1  0
 11 10  1  0
 12 14  1  0
 12 13  2  0
 14 15  1  0
 15 18  1  0
 15 16  1  1
 17 16  1  0
 18 20  1  0
 19 18  2  0
M  END
$$$$
