PSC.pdb
     RDKit          3D

 20 20  0  0  1  0  0  0  0  0999 V2000
   16.8680  -13.0401  -17.6668 N   0  0  0  0  0  0  0  0  0  0  0  0
   17.2821  -14.2642  -18.3144 C   0  0  0  0  0  0  0  0  0  0  0  0
   17.2995  -15.2789  -17.1821 C   0  0  0  0  0  0  0  0  0  0  0  0
   17.7042  -14.4815  -15.9848 C   0  0  0  0  0  0  0  0  0  0  0  0
   17.3677  -13.0578  -16.3387 C   0  0  1  0  0  0  0  0  0  0  0  0
   18.4930  -12.1610  -16.0541 C   0  0  0  0  0  0  0  0  0  0  0  0
   19.0396  -12.2595  -14.9247 O   0  0  0  0  0  0  0  0  0  0  0  0
   19.9969   -9.0907  -18.5005 O   0  0  0  0  0  0  0  0  0  0  0  0
   20.9153   -9.8757  -17.7760 C   0  0  0  0  0  0  0  0  0  0  0  0
   20.1585  -10.4165  -16.5835 C   0  0  2  0  0  0  0  0  0  0  0  0
   19.0179  -11.1921  -16.9434 N   0  0  0  0  0  0  0  0  0  0  0  0
   19.7786   -9.2361  -15.7558 C   0  0  0  0  0  0  0  0  0  0  0  0
   18.6583   -8.6910  -15.9330 O   0  0  0  0  0  0  0  0  0  0  0  0
   20.6242   -8.6815  -14.7609 N   0  0  0  0  0  0  0  0  0  0  0  0
   20.2353   -7.5647  -13.9290 C   0  0  1  0  0  0  0  0  0  0  0  0
   20.5643   -7.9393  -12.5001 C   0  0  0  0  0  0  0  0  0  0  0  0
   19.3818   -9.0959  -11.8034 S   0  0  0  0  0  0  0  0  0  0  0  0
   20.9812   -6.3706  -14.3717 C   0  0  0  0  0  0  0  0  0  0  0  0
   20.8216   -5.2681  -13.7970 O   0  0  0  0  0  0  0  0  0  0  0  0
   21.8868   -6.4064  -15.4344 O   0  0  0  0  0  0  0  0  0  0  0  0
  2  1  1  0
  3  2  1  0
  4  3  1  0
  4  5  1  0
  5  6  1  6
  5  1  1  0
  6 11  1  0
  7  6  2  0
  9  8  1  0
 10  9  1  6
 10 12  1  0
 11 10  1  0
 12 14  1  0
 12 13  2  0
 14 15  1  0
 15 18  1  0
 15 16  1  1
 17 16  1  0
 18 20  1  0
 19 18  2  0
M  END
$$$$
