PSC.pdb
     RDKit          3D

 20 20  0  0  1  0  0  0  0  0999 V2000
   19.9243   -9.3830  -16.2760 N   0  0  0  0  0  0  0  0  0  0  0  0
   20.4059  -10.6239  -15.7125 C   0  0  0  0  0  0  0  0  0  0  0  0
   19.6891  -10.7103  -14.3744 C   0  0  0  0  0  0  0  0  0  0  0  0
   19.5585   -9.2868  -13.9388 C   0  0  0  0  0  0  0  0  0  0  0  0
   19.6783   -8.4838  -15.2061 C   0  0  1  0  0  0  0  0  0  0  0  0
   20.6346   -7.3830  -15.0474 C   0  0  0  0  0  0  0  0  0  0  0  0
   20.3828   -6.5209  -14.1657 O   0  0  0  0  0  0  0  0  0  0  0  0
   23.6873   -6.5533  -17.6517 O   0  0  0  0  0  0  0  0  0  0  0  0
   23.9599   -6.1303  -16.3359 C   0  0  0  0  0  0  0  0  0  0  0  0
   22.6220   -6.0410  -15.6365 C   0  0  2  0  0  0  0  0  0  0  0  0
   21.8192   -7.2072  -15.8029 N   0  0  0  0  0  0  0  0  0  0  0  0
   21.9444   -4.8283  -16.1778 C   0  0  0  0  0  0  0  0  0  0  0  0
   21.2077   -4.9324  -17.1928 O   0  0  0  0  0  0  0  0  0  0  0  0
   22.0853   -3.5390  -15.6031 N   0  0  0  0  0  0  0  0  0  0  0  0
   21.4590   -2.3579  -16.1537 C   0  0  1  0  0  0  0  0  0  0  0  0
   19.9626   -2.5621  -16.0561 C   0  0  0  0  0  0  0  0  0  0  0  0
   19.0424   -1.0483  -16.3449 S   0  0  0  0  0  0  0  0  0  0  0  0
   21.9074   -1.1861  -15.3765 C   0  0  0  0  0  0  0  0  0  0  0  0
   22.3558   -1.3239  -14.2141 O   0  0  0  0  0  0  0  0  0  0  0  0
   21.8565    0.1131  -15.8865 O   0  0  0  0  0  0  0  0  0  0  0  0
  2  1  1  0
  3  2  1  0
  4  3  1  0
  4  5  1  0
  5  6  1  1
  5  1  1  0
  6 11  1  0
  7  6  2  0
  9  8  1  0
 10  9  1  6
 10 12  1  0
 11 10  1  0
 12 14  1  0
 12 13  2  0
 14 15  1  0
 15 18  1  0
 15 16  1  1
 17 16  1  0
 18 20  1  0
 19 18  2  0
M  END
$$$$
