PSC.pdb
     RDKit          3D

 20 20  0  0  1  0  0  0  0  0999 V2000
   20.1984  -12.5863  -16.7431 N   0  0  0  0  0  0  0  0  0  0  0  0
   19.2491  -13.5911  -16.3206 C   0  0  0  0  0  0  0  0  0  0  0  0
   18.0325  -13.3216  -17.1918 C   0  0  0  0  0  0  0  0  0  0  0  0
   18.0457  -11.8402  -17.3874 C   0  0  0  0  0  0  0  0  0  0  0  0
   19.4697  -11.4298  -17.1243 C   0  0  1  0  0  0  0  0  0  0  0  0
   19.5308  -10.2887  -16.2046 C   0  0  0  0  0  0  0  0  0  0  0  0
   18.6472  -10.2182  -15.3111 O   0  0  0  0  0  0  0  0  0  0  0  0
   22.3663   -7.3408  -16.3411 O   0  0  0  0  0  0  0  0  0  0  0  0
   21.7411   -7.4785  -15.0863 C   0  0  0  0  0  0  0  0  0  0  0  0
   20.4095   -8.1451  -15.3501 C   0  0  2  0  0  0  0  0  0  0  0  0
   20.5012   -9.2579  -16.2362 N   0  0  0  0  0  0  0  0  0  0  0  0
   19.5093   -7.0871  -15.8914 C   0  0  0  0  0  0  0  0  0  0  0  0
   19.3098   -7.0199  -17.1321 O   0  0  0  0  0  0  0  0  0  0  0  0
   18.8522   -6.1334  -15.0722 N   0  0  0  0  0  0  0  0  0  0  0  0
   18.0507   -5.0548  -15.6057 C   0  0  1  0  0  0  0  0  0  0  0  0
   16.6058   -5.3781  -15.2926 C   0  0  0  0  0  0  0  0  0  0  0  0
   15.5147   -3.9787  -15.5623 S   0  0  0  0  0  0  0  0  0  0  0  0
   18.4834   -3.7940  -14.9723 C   0  0  0  0  0  0  0  0  0  0  0  0
   19.0514   -3.8023  -13.8549 O   0  0  0  0  0  0  0  0  0  0  0  0
   18.2860   -2.5490  -15.5739 O   0  0  0  0  0  0  0  0  0  0  0  0
  2  1  1  0
  3  2  1  0
  4  3  1  0
  4  5  1  0
  5  6  1  1
  5  1  1  0
  6 11  1  0
  7  6  2  0
  9  8  1  0
 10  9  1  6
 10 12  1  0
 11 10  1  0
 12 14  1  0
 12 13  2  0
 14 15  1  0
 15 18  1  0
 15 16  1  1
 17 16  1  0
 18 20  1  0
 19 18  2  0
M  END
$$$$
