PSC.pdb
     RDKit          3D

 20 20  0  0  1  0  0  0  0  0999 V2000
   17.1974  -10.0223  -15.8953 N   0  0  0  0  0  0  0  0  0  0  0  0
   18.3768  -10.3580  -16.6605 C   0  0  0  0  0  0  0  0  0  0  0  0
   18.9176  -11.5940  -15.9592 C   0  0  0  0  0  0  0  0  0  0  0  0
   18.5681  -11.3793  -14.5222 C   0  0  0  0  0  0  0  0  0  0  0  0
   17.4328  -10.3915  -14.5455 C   0  0  1  0  0  0  0  0  0  0  0  0
   17.6661   -9.2938  -13.6010 C   0  0  0  0  0  0  0  0  0  0  0  0
   18.0585   -9.5993  -12.4448 O   0  0  0  0  0  0  0  0  0  0  0  0
   19.2484   -5.5612  -13.9837 O   0  0  0  0  0  0  0  0  0  0  0  0
   17.9527   -5.5488  -13.4311 C   0  0  0  0  0  0  0  0  0  0  0  0
   17.7196   -6.9349  -12.8729 C   0  0  2  0  0  0  0  0  0  0  0  0
   17.4873   -7.9170  -13.8796 N   0  0  0  0  0  0  0  0  0  0  0  0
   16.5624   -6.8234  -11.9396 C   0  0  0  0  0  0  0  0  0  0  0  0
   15.3918   -6.9228  -12.3908 O   0  0  0  0  0  0  0  0  0  0  0  0
   16.7081   -6.6074  -10.5451 N   0  0  0  0  0  0  0  0  0  0  0  0
   15.5853   -6.5367   -9.6369 C   0  0  1  0  0  0  0  0  0  0  0  0
   16.0543   -7.0861   -8.3070 C   0  0  0  0  0  0  0  0  0  0  0  0
   14.7585   -7.0785   -7.0651 S   0  0  0  0  0  0  0  0  0  0  0  0
   15.1577   -5.1280   -9.5316 C   0  0  0  0  0  0  0  0  0  0  0  0
   13.9700   -4.8399   -9.2529 O   0  0  0  0  0  0  0  0  0  0  0  0
   16.0380   -4.0626   -9.7333 O   0  0  0  0  0  0  0  0  0  0  0  0
  2  1  1  0
  3  2  1  0
  4  3  1  0
  4  5  1  0
  5  6  1  1
  5  1  1  0
  6 11  1  0
  7  6  2  0
  9  8  1  0
 10  9  1  6
 10 12  1  0
 11 10  1  0
 12 14  1  0
 12 13  2  0
 14 15  1  0
 15 18  1  0
 15 16  1  1
 17 16  1  0
 18 20  1  0
 19 18  2  0
M  END
$$$$
