PSC.pdb
     RDKit          3D

 20 20  0  0  1  0  0  0  0  0999 V2000
   19.3440  -13.2114  -17.1854 N   0  0  0  0  0  0  0  0  0  0  0  0
   17.9026  -13.3078  -17.2335 C   0  0  0  0  0  0  0  0  0  0  0  0
   17.5169  -12.3399  -18.3408 C   0  0  0  0  0  0  0  0  0  0  0  0
   18.5399  -11.2546  -18.2485 C   0  0  0  0  0  0  0  0  0  0  0  0
   19.7048  -11.8835  -17.5324 C   0  0  1  0  0  0  0  0  0  0  0  0
   20.1772  -11.0295  -16.4374 C   0  0  0  0  0  0  0  0  0  0  0  0
   19.3576  -10.7565  -15.5221 O   0  0  0  0  0  0  0  0  0  0  0  0
   24.0224   -9.7117  -16.0176 O   0  0  0  0  0  0  0  0  0  0  0  0
   23.2909   -9.7938  -14.8165 C   0  0  0  0  0  0  0  0  0  0  0  0
   21.8332   -9.6770  -15.2022 C   0  0  2  0  0  0  0  0  0  0  0  0
   21.4792  -10.4849  -16.3220 N   0  0  0  0  0  0  0  0  0  0  0  0
   21.5834   -8.2316  -15.4693 C   0  0  0  0  0  0  0  0  0  0  0  0
   21.6042   -7.8089  -16.6545 O   0  0  0  0  0  0  0  0  0  0  0  0
   21.3185   -7.2875  -14.4443 N   0  0  0  0  0  0  0  0  0  0  0  0
   21.1563   -5.8733  -14.6979 C   0  0  1  0  0  0  0  0  0  0  0  0
   19.7008   -5.5414  -14.4492 C   0  0  0  0  0  0  0  0  0  0  0  0
   19.4140   -3.7756  -14.3038 S   0  0  0  0  0  0  0  0  0  0  0  0
   22.0539   -5.1304  -13.7920 C   0  0  0  0  0  0  0  0  0  0  0  0
   22.5836   -4.0549  -14.1580 O   0  0  0  0  0  0  0  0  0  0  0  0
   22.3541   -5.5788  -12.5038 O   0  0  0  0  0  0  0  0  0  0  0  0
  2  1  1  0
  3  2  1  0
  4  3  1  0
  4  5  1  0
  5  6  1  1
  5  1  1  0
  6 11  1  0
  7  6  2  0
  9  8  1  0
 10  9  1  6
 10 12  1  0
 11 10  1  0
 12 14  1  0
 12 13  2  0
 14 15  1  0
 15 18  1  0
 15 16  1  1
 17 16  1  0
 18 20  1  0
 19 18  2  0
M  END
$$$$
