PSC.pdb
     RDKit          3D

 20 20  0  0  1  0  0  0  0  0999 V2000
   44.4975  -22.2526   -8.7024 N   0  0  0  0  0  0  0  0  0  0  0  0
   43.9957  -22.3372   -7.3496 C   0  0  0  0  0  0  0  0  0  0  0  0
   42.5928  -21.7600   -7.4525 C   0  0  0  0  0  0  0  0  0  0  0  0
   42.7055  -20.7165   -8.5161 C   0  0  0  0  0  0  0  0  0  0  0  0
   43.9228  -21.1065   -9.3107 C   0  0  1  0  0  0  0  0  0  0  0  0
   44.8144  -19.9592   -9.5114 C   0  0  0  0  0  0  0  0  0  0  0  0
   45.8765  -19.9274   -8.8369 O   0  0  0  0  0  0  0  0  0  0  0  0
   45.3135  -17.6823  -12.8750 O   0  0  0  0  0  0  0  0  0  0  0  0
   45.2391  -16.9067  -11.7014 C   0  0  0  0  0  0  0  0  0  0  0  0
   45.5472  -17.8452  -10.5561 C   0  0  2  0  0  0  0  0  0  0  0  0
   44.5817  -18.8824  -10.4011 N   0  0  0  0  0  0  0  0  0  0  0  0
   45.6425  -16.9987   -9.3326 C   0  0  0  0  0  0  0  0  0  0  0  0
   44.7271  -17.0520   -8.4706 O   0  0  0  0  0  0  0  0  0  0  0  0
   46.7268  -16.1197   -9.0796 N   0  0  0  0  0  0  0  0  0  0  0  0
   47.0910  -15.6792   -7.7515 C   0  0  1  0  0  0  0  0  0  0  0  0
   47.3751  -16.9207   -6.9340 C   0  0  0  0  0  0  0  0  0  0  0  0
   47.0677  -16.6753   -5.1828 S   0  0  0  0  0  0  0  0  0  0  0  0
   48.2760  -14.8058   -7.8578 C   0  0  0  0  0  0  0  0  0  0  0  0
   49.0590  -14.9069   -8.8314 O   0  0  0  0  0  0  0  0  0  0  0  0
   48.5809  -13.8394   -6.8967 O   0  0  0  0  0  0  0  0  0  0  0  0
  2  1  1  0
  3  2  1  0
  4  3  1  0
  4  5  1  0
  5  6  1  1
  5  1  1  0
  6 11  1  0
  7  6  2  0
  9  8  1  0
 10  9  1  6
 10 12  1  0
 11 10  1  0
 12 14  1  0
 12 13  2  0
 14 15  1  0
 15 18  1  0
 15 16  1  1
 17 16  1  0
 18 20  1  0
 19 18  2  0
M  END
$$$$
