QLF.pdb
     RDKit          3D

 29 29  0  0  1  0  0  0  0  0999 V2000
   25.1278  -19.9396  -16.3706 N   0  0  0  0  0  0  0  0  0  0  0  0
   24.0817  -20.2251  -15.4619 C   0  0  0  0  0  0  0  0  0  0  0  0
   23.2933  -21.1688  -15.6773 O   0  0  0  0  0  0  0  0  0  0  0  0
   23.9277  -19.3936  -14.2488 C   0  0  0  0  0  0  0  0  0  0  0  0
   24.0712  -20.2211  -12.9843 C   0  0  0  0  0  0  0  0  0  0  0  0
   25.5513  -20.2635  -12.6468 C   0  0  2  0  0  0  0  0  0  0  0  0
   26.1812  -21.2071  -13.5236 N   0  0  0  0  0  0  0  0  0  0  0  0
   25.6579  -20.7559  -11.2535 C   0  0  0  0  0  0  0  0  0  0  0  0
   25.6525  -21.9811  -11.0288 O   0  0  0  0  0  0  0  0  0  0  0  0
   27.7926  -20.9964   -6.3111 C   0  0  0  0  0  0  0  0  0  0  0  0
   26.9296  -19.7916   -6.5530 C   0  0  1  0  0  0  0  0  0  0  0  0
   27.5811  -18.5767   -5.8651 C   0  0  0  0  0  0  0  0  0  0  0  0
   26.7381  -19.4502   -7.9764 C   0  0  0  0  0  0  0  0  0  0  0  0
   25.8822  -20.3189   -8.8129 C   0  0  2  0  0  0  0  0  0  0  0  0
   25.7654  -19.8362  -10.1817 N   0  0  0  0  0  0  0  0  0  0  0  0
   24.5369  -20.5600   -8.2903 C   0  0  0  0  0  0  0  0  0  0  0  0
   23.6732  -19.6488   -8.3549 O   0  0  0  0  0  0  0  0  0  0  0  0
   24.1153  -21.7873   -7.6995 N   0  0  0  0  0  0  0  0  0  0  0  0
   22.7982  -21.8892   -7.1018 C   0  0  1  0  0  0  0  0  0  0  0  0
   22.2349  -23.2106   -7.6249 C   0  0  0  0  0  0  0  0  0  0  0  0
   20.9035  -23.5225   -7.1127 C   0  0  0  0  0  0  0  0  0  0  0  0
   19.7890  -23.2477   -7.9050 C   0  0  0  0  0  0  0  0  0  0  0  0
   18.5108  -23.5252   -7.4666 C   0  0  0  0  0  0  0  0  0  0  0  0
   18.2872  -24.0865   -6.2245 C   0  0  0  0  0  0  0  0  0  0  0  0
   19.3640  -24.3633   -5.4334 C   0  0  0  0  0  0  0  0  0  0  0  0
   20.6382  -24.0820   -5.8811 C   0  0  0  0  0  0  0  0  0  0  0  0
   22.7880  -21.8362   -5.6397 C   0  0  0  0  0  0  0  0  0  0  0  0
   23.8047  -22.1691   -4.9370 O   0  0  0  0  0  0  0  0  0  0  0  0
   21.6925  -21.4256   -4.8953 O   0  0  0  0  0  0  0  0  0  0  0  0
  2  3  2  0
  2  1  1  0
  4  2  1  0
  5  4  1  0
  6  5  1  0
  6  7  1  6
  8  6  1  0
  9  8  2  0
 11 10  1  6
 11 13  1  0
 11 12  1  0
 14 13  1  1
 14 16  1  0
 14 15  1  0
 15  8  1  0
 16 18  1  0
 17 16  2  0
 18 19  1  0
 19 20  1  1
 19 27  1  0
 21 20  1  0
 22 21  2  0
 23 22  1  0
 24 25  1  0
 24 23  2  0
 25 26  2  0
 26 21  1  0
 27 28  2  0
 27 29  1  0
M  END
$$$$
