QLF.pdb
     RDKit          3D

 29 29  0  0  1  0  0  0  0  0999 V2000
   22.3356  -21.9171  -15.9184 N   0  0  0  0  0  0  0  0  0  0  0  0
   21.0346  -21.8803  -15.3637 C   0  0  0  0  0  0  0  0  0  0  0  0
   20.0340  -21.7519  -16.0993 O   0  0  0  0  0  0  0  0  0  0  0  0
   20.8670  -21.9956  -13.8990 C   0  0  0  0  0  0  0  0  0  0  0  0
   22.1965  -22.2218  -13.2022 C   0  0  0  0  0  0  0  0  0  0  0  0
   22.4763  -20.9847  -12.3668 C   0  0  2  0  0  0  0  0  0  0  0  0
   22.5647  -19.8602  -13.2520 N   0  0  0  0  0  0  0  0  0  0  0  0
   23.7935  -21.1938  -11.7215 C   0  0  0  0  0  0  0  0  0  0  0  0
   23.9702  -22.1813  -10.9830 O   0  0  0  0  0  0  0  0  0  0  0  0
   28.6257  -19.4372  -14.0585 C   0  0  0  0  0  0  0  0  0  0  0  0
   27.5502  -20.2359  -13.3800 C   0  0  1  0  0  0  0  0  0  0  0  0
   27.9998  -21.7082  -13.3172 C   0  0  0  0  0  0  0  0  0  0  0  0
   27.2417  -19.8033  -12.0027 C   0  0  0  0  0  0  0  0  0  0  0  0
   26.1296  -20.4559  -11.2787 C   0  0  2  0  0  0  0  0  0  0  0  0
   24.8471  -20.2738  -11.9440 N   0  0  0  0  0  0  0  0  0  0  0  0
   25.9833  -20.0659   -9.8760 C   0  0  0  0  0  0  0  0  0  0  0  0
   25.1778  -19.1515   -9.5666 O   0  0  0  0  0  0  0  0  0  0  0  0
   26.7020  -20.6637   -8.7994 N   0  0  0  0  0  0  0  0  0  0  0  0
   26.6364  -20.0822   -7.4728 C   0  0  1  0  0  0  0  0  0  0  0  0
   27.1390  -21.1841   -6.5399 C   0  0  0  0  0  0  0  0  0  0  0  0
   28.1500  -20.7297   -5.5893 C   0  0  0  0  0  0  0  0  0  0  0  0
   29.4940  -20.7575   -5.9614 C   0  0  0  0  0  0  0  0  0  0  0  0
   30.4860  -20.3376   -5.0997 C   0  0  0  0  0  0  0  0  0  0  0  0
   30.1843  -19.8732   -3.8343 C   0  0  0  0  0  0  0  0  0  0  0  0
   28.8754  -19.8377   -3.4502 C   0  0  0  0  0  0  0  0  0  0  0  0
   27.8909  -20.2599   -4.3194 C   0  0  0  0  0  0  0  0  0  0  0  0
   27.4011  -18.8452   -7.3124 C   0  0  0  0  0  0  0  0  0  0  0  0
   28.3974  -18.5560   -8.0621 O   0  0  0  0  0  0  0  0  0  0  0  0
   27.1186  -17.8890   -6.3488 O   0  0  0  0  0  0  0  0  0  0  0  0
  2  3  2  0
  2  1  1  0
  4  2  1  0
  5  4  1  0
  6  5  1  0
  6  7  1  6
  8  6  1  0
  9  8  2  0
 11 10  1  1
 11 13  1  0
 11 12  1  0
 14 13  1  6
 14 16  1  0
 14 15  1  0
 15  8  1  0
 16 18  1  0
 17 16  2  0
 18 19  1  0
 19 20  1  1
 19 27  1  0
 21 20  1  0
 22 21  2  0
 23 22  1  0
 24 25  1  0
 24 23  2  0
 25 26  2  0
 26 21  1  0
 27 28  2  0
 27 29  1  0
M  END
$$$$
