QLF.pdb
     RDKit          3D

 29 29  0  0  1  0  0  0  0  0999 V2000
   21.3074  -17.9429  -12.9020 N   0  0  0  0  0  0  0  0  0  0  0  0
   20.0681  -18.6236  -12.9508 C   0  0  0  0  0  0  0  0  0  0  0  0
   19.1327  -18.1901  -13.6549 O   0  0  0  0  0  0  0  0  0  0  0  0
   19.8873  -19.8587  -12.1579 C   0  0  0  0  0  0  0  0  0  0  0  0
   21.1570  -20.2355  -11.4162 C   0  0  0  0  0  0  0  0  0  0  0  0
   22.1758  -20.6516  -12.4627 C   0  0  2  0  0  0  0  0  0  0  0  0
   21.7105  -21.8580  -13.0824 N   0  0  0  0  0  0  0  0  0  0  0  0
   23.4377  -20.9374  -11.7406 C   0  0  0  0  0  0  0  0  0  0  0  0
   23.5198  -21.9469  -11.0155 O   0  0  0  0  0  0  0  0  0  0  0  0
   28.4629  -19.6342  -13.9625 C   0  0  0  0  0  0  0  0  0  0  0  0
   27.2756  -20.2933  -13.3216 C   0  0  1  0  0  0  0  0  0  0  0  0
   27.5418  -21.8086  -13.2398 C   0  0  0  0  0  0  0  0  0  0  0  0
   26.9728  -19.8181  -11.9571 C   0  0  0  0  0  0  0  0  0  0  0  0
   25.8143  -20.3918  -11.2390 C   0  0  2  0  0  0  0  0  0  0  0  0
   24.5457  -20.0655  -11.8749 N   0  0  0  0  0  0  0  0  0  0  0  0
   25.7243  -20.0445   -9.8204 C   0  0  0  0  0  0  0  0  0  0  0  0
   25.0981  -19.0113   -9.4727 O   0  0  0  0  0  0  0  0  0  0  0  0
   26.3057  -20.8128   -8.7694 N   0  0  0  0  0  0  0  0  0  0  0  0
   26.6757  -20.1721   -7.5224 C   0  0  1  0  0  0  0  0  0  0  0  0
   27.3254  -21.2802   -6.6935 C   0  0  0  0  0  0  0  0  0  0  0  0
   27.9946  -20.7945   -5.4899 C   0  0  0  0  0  0  0  0  0  0  0  0
   29.3551  -20.4923   -5.5438 C   0  0  0  0  0  0  0  0  0  0  0  0
   30.0319  -20.0293   -4.4345 C   0  0  0  0  0  0  0  0  0  0  0  0
   29.3858  -19.8476   -3.2273 C   0  0  0  0  0  0  0  0  0  0  0  0
   28.0545  -20.1374   -3.1529 C   0  0  0  0  0  0  0  0  0  0  0  0
   27.3868  -20.5998   -4.2680 C   0  0  0  0  0  0  0  0  0  0  0  0
   27.5606  -19.0165   -7.6715 C   0  0  0  0  0  0  0  0  0  0  0  0
   28.4925  -18.9784   -8.5481 O   0  0  0  0  0  0  0  0  0  0  0  0
   27.4698  -17.8756   -6.8887 O   0  0  0  0  0  0  0  0  0  0  0  0
  2  3  2  0
  2  1  1  0
  4  2  1  0
  5  4  1  0
  6  5  1  0
  6  7  1  1
  8  6  1  0
  9  8  2  0
 11 10  1  1
 11 13  1  0
 11 12  1  0
 14 13  1  6
 14 16  1  0
 14 15  1  0
 15  8  1  0
 16 18  1  0
 17 16  2  0
 18 19  1  0
 19 20  1  1
 19 27  1  0
 21 20  1  0
 22 21  2  0
 23 22  1  0
 24 25  1  0
 24 23  2  0
 25 26  2  0
 26 21  1  0
 27 28  2  0
 27 29  1  0
M  END
$$$$
