QLF.pdb
     RDKit          3D

 29 29  0  0  1  0  0  0  0  0999 V2000
   28.2759  -25.4822  -16.9279 N   0  0  0  0  0  0  0  0  0  0  0  0
   26.9126  -25.5264  -16.5524 C   0  0  0  0  0  0  0  0  0  0  0  0
   26.5795  -25.4075  -15.3550 O   0  0  0  0  0  0  0  0  0  0  0  0
   25.8793  -25.7153  -17.5933 C   0  0  0  0  0  0  0  0  0  0  0  0
   25.0756  -26.9812  -17.3573 C   0  0  0  0  0  0  0  0  0  0  0  0
   25.7989  -28.1069  -18.0755 C   0  0  2  0  0  0  0  0  0  0  0  0
   25.4218  -28.0677  -19.4583 N   0  0  0  0  0  0  0  0  0  0  0  0
   25.3144  -29.3744  -17.4804 C   0  0  0  0  0  0  0  0  0  0  0  0
   24.2443  -29.8739  -17.8766 O   0  0  0  0  0  0  0  0  0  0  0  0
   25.8120  -34.3073  -16.1134 C   0  0  0  0  0  0  0  0  0  0  0  0
   26.2944  -33.4836  -14.9542 C   0  0  1  0  0  0  0  0  0  0  0  0
   27.5724  -34.1334  -14.3902 C   0  0  0  0  0  0  0  0  0  0  0  0
   26.6155  -32.0822  -15.2892 C   0  0  0  0  0  0  0  0  0  0  0  0
   25.5440  -31.2063  -15.8104 C   0  0  2  0  0  0  0  0  0  0  0  0
   26.0658  -30.0148  -16.4649 N   0  0  0  0  0  0  0  0  0  0  0  0
   24.5414  -30.7936  -14.8277 C   0  0  0  0  0  0  0  0  0  0  0  0
   24.8901  -30.1004  -13.8386 O   0  0  0  0  0  0  0  0  0  0  0  0
   23.1565  -31.1229  -14.9099 N   0  0  0  0  0  0  0  0  0  0  0  0
   22.2430  -30.6775  -13.8758 C   0  0  1  0  0  0  0  0  0  0  0  0
   22.1276  -29.1672  -14.0829 C   0  0  0  0  0  0  0  0  0  0  0  0
   21.1954  -28.5203  -13.1637 C   0  0  0  0  0  0  0  0  0  0  0  0
   21.6476  -28.1224  -11.9056 C   0  0  0  0  0  0  0  0  0  0  0  0
   20.8062  -27.5063  -11.0025 C   0  0  0  0  0  0  0  0  0  0  0  0
   19.4826  -27.2603  -11.3115 C   0  0  0  0  0  0  0  0  0  0  0  0
   19.0199  -27.6417  -12.5372 C   0  0  0  0  0  0  0  0  0  0  0  0
   19.8694  -28.2571  -13.4332 C   0  0  0  0  0  0  0  0  0  0  0  0
   20.9335  -31.3297  -13.8988 C   0  0  0  0  0  0  0  0  0  0  0  0
   20.2944  -31.5403  -14.9876 O   0  0  0  0  0  0  0  0  0  0  0  0
   20.2777  -31.7724  -12.7601 O   0  0  0  0  0  0  0  0  0  0  0  0
  2  3  2  0
  2  1  1  0
  4  2  1  0
  5  4  1  0
  6  5  1  0
  6  7  1  6
  8  6  1  0
  9  8  2  0
 11 10  1  6
 11 13  1  0
 11 12  1  0
 14 13  1  1
 14 16  1  0
 14 15  1  0
 15  8  1  0
 16 18  1  0
 17 16  2  0
 18 19  1  0
 19 20  1  6
 19 27  1  0
 21 20  1  0
 22 21  2  0
 23 22  1  0
 24 25  1  0
 24 23  2  0
 25 26  2  0
 26 21  1  0
 27 28  2  0
 27 29  1  0
M  END
$$$$
