QLF.pdb
     RDKit          3D

 29 29  0  0  1  0  0  0  0  0999 V2000
   26.1333  -18.4679  -18.7375 N   0  0  0  0  0  0  0  0  0  0  0  0
   27.0444  -17.4275  -18.4391 C   0  0  0  0  0  0  0  0  0  0  0  0
   27.3708  -16.5988  -19.3139 O   0  0  0  0  0  0  0  0  0  0  0  0
   27.6103  -17.3277  -17.0765 C   0  0  0  0  0  0  0  0  0  0  0  0
   26.9676  -18.3269  -16.1317 C   0  0  0  0  0  0  0  0  0  0  0  0
   28.0897  -19.1547  -15.5302 C   0  0  2  0  0  0  0  0  0  0  0  0
   28.5971  -20.0253  -16.5503 N   0  0  0  0  0  0  0  0  0  0  0  0
   27.4860  -19.9751  -14.4541 C   0  0  0  0  0  0  0  0  0  0  0  0
   26.6231  -20.8277  -14.7372 O   0  0  0  0  0  0  0  0  0  0  0  0
   30.2422  -20.7995   -9.5785 C   0  0  0  0  0  0  0  0  0  0  0  0
   29.4422  -21.0943  -10.8145 C   0  0  1  0  0  0  0  0  0  0  0  0
   29.3429  -22.6229  -10.9804 C   0  0  0  0  0  0  0  0  0  0  0  0
   28.0677  -20.5560  -10.7983 C   0  0  0  0  0  0  0  0  0  0  0  0
   27.2758  -20.5749  -12.0471 C   0  0  2  0  0  0  0  0  0  0  0  0
   27.8890  -19.7897  -13.1091 N   0  0  0  0  0  0  0  0  0  0  0  0
   25.8805  -20.1566  -11.9083 C   0  0  0  0  0  0  0  0  0  0  0  0
   25.6081  -18.9359  -11.7807 O   0  0  0  0  0  0  0  0  0  0  0  0
   24.7716  -21.0529  -11.9112 N   0  0  0  0  0  0  0  0  0  0  0  0
   23.4309  -20.5480  -11.6878 C   0  0  1  0  0  0  0  0  0  0  0  0
   22.9994  -19.9790  -13.0395 C   0  0  0  0  0  0  0  0  0  0  0  0
   21.6185  -19.5045  -13.0605 C   0  0  0  0  0  0  0  0  0  0  0  0
   20.7408  -20.0100  -14.0195 C   0  0  0  0  0  0  0  0  0  0  0  0
   19.4267  -19.5945  -14.0795 C   0  0  0  0  0  0  0  0  0  0  0  0
   18.9309  -18.6609  -13.1905 C   0  0  0  0  0  0  0  0  0  0  0  0
   19.7731  -18.1536  -12.2442 C   0  0  0  0  0  0  0  0  0  0  0  0
   21.0854  -18.5756  -12.1926 C   0  0  0  0  0  0  0  0  0  0  0  0
   22.4811  -21.5435  -11.1903 C   0  0  0  0  0  0  0  0  0  0  0  0
   22.4986  -22.7611  -11.5846 O   0  0  0  0  0  0  0  0  0  0  0  0
   21.4922  -21.2615  -10.2601 O   0  0  0  0  0  0  0  0  0  0  0  0
  2  3  2  0
  2  1  1  0
  4  2  1  0
  5  4  1  0
  6  5  1  0
  6  7  1  6
  8  6  1  0
  9  8  2  0
 11 10  1  1
 11 13  1  0
 11 12  1  0
 14 13  1  1
 14 16  1  0
 14 15  1  0
 15  8  1  0
 16 18  1  0
 17 16  2  0
 18 19  1  0
 19 20  1  6
 19 27  1  0
 21 20  1  0
 22 21  2  0
 23 22  1  0
 24 25  1  0
 24 23  2  0
 25 26  2  0
 26 21  1  0
 27 28  2  0
 27 29  1  0
M  END
$$$$
