QLF.pdb
     RDKit          3D

 29 29  0  0  1  0  0  0  0  0999 V2000
   22.0570  -26.0576  -17.2971 N   0  0  0  0  0  0  0  0  0  0  0  0
   23.0242  -25.8592  -18.3105 C   0  0  0  0  0  0  0  0  0  0  0  0
   22.9280  -26.4521  -19.4049 O   0  0  0  0  0  0  0  0  0  0  0  0
   24.1557  -24.9398  -18.0631 C   0  0  0  0  0  0  0  0  0  0  0  0
   24.0819  -24.3258  -16.6768 C   0  0  0  0  0  0  0  0  0  0  0  0
   25.2190  -23.3245  -16.5734 C   0  0  2  0  0  0  0  0  0  0  0  0
   26.4518  -24.0545  -16.5194 N   0  0  0  0  0  0  0  0  0  0  0  0
   25.0336  -22.5980  -15.2954 C   0  0  0  0  0  0  0  0  0  0  0  0
   24.5470  -23.1894  -14.3131 O   0  0  0  0  0  0  0  0  0  0  0  0
   28.8847  -19.1896  -13.5122 C   0  0  0  0  0  0  0  0  0  0  0  0
   27.7924  -20.1975  -13.7256 C   0  0  1  0  0  0  0  0  0  0  0  0
   27.9203  -21.2931  -12.6499 C   0  0  0  0  0  0  0  0  0  0  0  0
   26.4251  -19.6470  -13.6429 C   0  0  0  0  0  0  0  0  0  0  0  0
   25.2766  -20.5356  -13.9224 C   0  0  2  0  0  0  0  0  0  0  0  0
   25.4086  -21.2361  -15.1921 N   0  0  0  0  0  0  0  0  0  0  0  0
   23.9638  -19.8904  -13.8835 C   0  0  0  0  0  0  0  0  0  0  0  0
   23.5596  -19.3692  -12.8133 O   0  0  0  0  0  0  0  0  0  0  0  0
   23.0825  -19.8001  -15.0008 N   0  0  0  0  0  0  0  0  0  0  0  0
   21.8192  -19.1002  -14.8727 C   0  0  1  0  0  0  0  0  0  0  0  0
   21.8224  -18.0803  -16.0115 C   0  0  0  0  0  0  0  0  0  0  0  0
   22.9595  -17.1648  -15.9736 C   0  0  0  0  0  0  0  0  0  0  0  0
   24.0894  -17.4526  -16.7390 C   0  0  0  0  0  0  0  0  0  0  0  0
   25.1882  -16.6185  -16.7382 C   0  0  0  0  0  0  0  0  0  0  0  0
   25.2099  -15.4656  -15.9778 C   0  0  0  0  0  0  0  0  0  0  0  0
   24.1145  -15.1655  -15.2215 C   0  0  0  0  0  0  0  0  0  0  0  0
   23.0207  -16.0061  -15.2293 C   0  0  0  0  0  0  0  0  0  0  0  0
   20.6383  -19.9627  -14.9205 C   0  0  0  0  0  0  0  0  0  0  0  0
   19.4532  -19.5080  -14.7567 O   0  0  0  0  0  0  0  0  0  0  0  0
   20.6965  -21.3298  -15.1452 O   0  0  0  0  0  0  0  0  0  0  0  0
  2  3  2  0
  2  1  1  0
  4  2  1  0
  5  4  1  0
  6  5  1  0
  6  7  1  1
  8  6  1  0
  9  8  2  0
 11 10  1  1
 11 13  1  0
 11 12  1  0
 14 13  1  6
 14 16  1  0
 14 15  1  0
 15  8  1  0
 16 18  1  0
 17 16  2  0
 18 19  1  0
 19 20  1  6
 19 27  1  0
 21 20  1  0
 22 21  2  0
 23 22  1  0
 24 25  1  0
 24 23  2  0
 25 26  2  0
 26 21  1  0
 27 28  2  0
 27 29  1  0
M  END
$$$$
