QLF.pdb
     RDKit          3D

 29 29  0  0  1  0  0  0  0  0999 V2000
   21.0914  -19.9340  -13.6063 N   0  0  0  0  0  0  0  0  0  0  0  0
   21.3464  -19.3813  -14.8834 C   0  0  0  0  0  0  0  0  0  0  0  0
   20.4920  -18.6680  -15.4489 O   0  0  0  0  0  0  0  0  0  0  0  0
   22.6389  -19.6557  -15.5476 C   0  0  0  0  0  0  0  0  0  0  0  0
   23.5041  -20.5880  -14.7190 C   0  0  0  0  0  0  0  0  0  0  0  0
   24.0533  -19.7728  -13.5614 C   0  0  2  0  0  0  0  0  0  0  0  0
   24.7580  -18.6479  -14.1036 N   0  0  0  0  0  0  0  0  0  0  0  0
   25.0148  -20.6427  -12.8443 C   0  0  0  0  0  0  0  0  0  0  0  0
   24.7984  -21.8666  -12.7618 O   0  0  0  0  0  0  0  0  0  0  0  0
   30.3717  -19.5640  -13.0523 C   0  0  0  0  0  0  0  0  0  0  0  0
   28.9536  -20.0558  -13.0110 C   0  0  1  0  0  0  0  0  0  0  0  0
   28.8140  -21.2311  -13.9973 C   0  0  0  0  0  0  0  0  0  0  0  0
   28.5068  -20.5285  -11.6857 C   0  0  0  0  0  0  0  0  0  0  0  0
   27.0946  -20.9289  -11.5063 C   0  0  2  0  0  0  0  0  0  0  0  0
   26.1751  -20.0837  -12.2551 N   0  0  0  0  0  0  0  0  0  0  0  0
   26.6360  -20.9962  -10.1184 C   0  0  0  0  0  0  0  0  0  0  0  0
   27.4770  -21.1174   -9.1918 O   0  0  0  0  0  0  0  0  0  0  0  0
   25.2678  -20.9283   -9.7228 N   0  0  0  0  0  0  0  0  0  0  0  0
   24.9079  -21.0895   -8.3275 C   0  0  1  0  0  0  0  0  0  0  0  0
   25.4613  -19.8431   -7.6367 C   0  0  0  0  0  0  0  0  0  0  0  0
   26.6018  -20.1145   -6.7662 C   0  0  0  0  0  0  0  0  0  0  0  0
   27.6876  -19.2391   -6.7758 C   0  0  0  0  0  0  0  0  0  0  0  0
   28.7877  -19.4513   -5.9709 C   0  0  0  0  0  0  0  0  0  0  0  0
   28.8545  -20.5406   -5.1243 C   0  0  0  0  0  0  0  0  0  0  0  0
   27.8027  -21.4096   -5.0995 C   0  0  0  0  0  0  0  0  0  0  0  0
   26.7072  -21.1884   -5.9083 C   0  0  0  0  0  0  0  0  0  0  0  0
   23.4745  -21.2531   -8.0842 C   0  0  0  0  0  0  0  0  0  0  0  0
   22.5948  -20.9743   -8.9711 O   0  0  0  0  0  0  0  0  0  0  0  0
   22.9483  -21.7190   -6.8888 O   0  0  0  0  0  0  0  0  0  0  0  0
  2  3  2  0
  2  1  1  0
  4  2  1  0
  5  4  1  0
  6  5  1  0
  6  7  1  6
  8  6  1  0
  9  8  2  0
 11 10  1  1
 11 13  1  0
 11 12  1  0
 14 13  1  1
 14 16  1  0
 14 15  1  0
 15  8  1  0
 16 18  1  0
 17 16  2  0
 18 19  1  0
 19 20  1  1
 19 27  1  0
 21 20  1  0
 22 21  2  0
 23 22  1  0
 24 25  1  0
 24 23  2  0
 25 26  2  0
 26 21  1  0
 27 28  2  0
 27 29  1  0
M  END
$$$$
