QLF.pdb
     RDKit          3D

 29 29  0  0  1  0  0  0  0  0999 V2000
   22.7453  -19.5804  -18.4006 N   0  0  0  0  0  0  0  0  0  0  0  0
   23.2399  -18.2598  -18.2869 C   0  0  0  0  0  0  0  0  0  0  0  0
   22.9977  -17.4125  -19.1713 O   0  0  0  0  0  0  0  0  0  0  0  0
   24.0500  -17.8878  -17.1069 C   0  0  0  0  0  0  0  0  0  0  0  0
   24.1262  -19.0237  -16.1029 C   0  0  0  0  0  0  0  0  0  0  0  0
   25.3413  -19.8584  -16.4679 C   0  0  2  0  0  0  0  0  0  0  0  0
   24.9172  -20.8946  -17.3636 N   0  0  0  0  0  0  0  0  0  0  0  0
   25.8276  -20.4769  -15.2124 C   0  0  0  0  0  0  0  0  0  0  0  0
   25.2355  -21.4663  -14.7411 O   0  0  0  0  0  0  0  0  0  0  0  0
   29.6084  -22.3229  -11.8440 C   0  0  0  0  0  0  0  0  0  0  0  0
   29.5000  -20.8252  -11.8485 C   0  0  1  0  0  0  0  0  0  0  0  0
   30.9180  -20.2315  -11.7468 C   0  0  0  0  0  0  0  0  0  0  0  0
   28.8639  -20.2601  -13.0549 C   0  0  0  0  0  0  0  0  0  0  0  0
   27.4366  -20.5474  -13.3140 C   0  0  2  0  0  0  0  0  0  0  0  0
   26.9613  -19.9444  -14.5512 N   0  0  0  0  0  0  0  0  0  0  0  0
   26.5192  -20.1771  -12.2359 C   0  0  0  0  0  0  0  0  0  0  0  0
   26.1664  -18.9776  -12.1054 O   0  0  0  0  0  0  0  0  0  0  0  0
   25.9741  -21.1003  -11.2958 N   0  0  0  0  0  0  0  0  0  0  0  0
   25.2843  -20.6124  -10.1174 C   0  0  1  0  0  0  0  0  0  0  0  0
   23.9411  -21.3425  -10.1230 C   0  0  0  0  0  0  0  0  0  0  0  0
   22.8548  -20.5643  -10.7119 C   0  0  0  0  0  0  0  0  0  0  0  0
   22.0066  -19.8396   -9.8748 C   0  0  0  0  0  0  0  0  0  0  0  0
   20.9672  -19.0883  -10.3828 C   0  0  0  0  0  0  0  0  0  0  0  0
   20.7277  -19.0259  -11.7417 C   0  0  0  0  0  0  0  0  0  0  0  0
   21.5460  -19.7276  -12.5785 C   0  0  0  0  0  0  0  0  0  0  0  0
   22.5827  -20.4759  -12.0604 C   0  0  0  0  0  0  0  0  0  0  0  0
   26.0070  -20.8159   -8.8617 C   0  0  0  0  0  0  0  0  0  0  0  0
   25.5534  -20.4040   -7.7380 O   0  0  0  0  0  0  0  0  0  0  0  0
   27.2297  -21.4646   -8.7776 O   0  0  0  0  0  0  0  0  0  0  0  0
  2  3  2  0
  2  1  1  0
  4  2  1  0
  5  4  1  0
  6  5  1  0
  6  7  1  6
  8  6  1  0
  9  8  2  0
 11 10  1  6
 11 13  1  0
 11 12  1  0
 14 13  1  1
 14 16  1  0
 14 15  1  0
 15  8  1  0
 16 18  1  0
 17 16  2  0
 18 19  1  0
 19 20  1  1
 19 27  1  0
 21 20  1  0
 22 21  2  0
 23 22  1  0
 24 25  1  0
 24 23  2  0
 25 26  2  0
 26 21  1  0
 27 28  2  0
 27 29  1  0
M  END
$$$$
