QLF.pdb
     RDKit          3D

 29 29  0  0  1  0  0  0  0  0999 V2000
   25.3421  -17.9153  -17.5664 N   0  0  0  0  0  0  0  0  0  0  0  0
   26.2465  -18.3949  -18.5430 C   0  0  0  0  0  0  0  0  0  0  0  0
   27.0475  -17.6179  -19.1027 O   0  0  0  0  0  0  0  0  0  0  0  0
   26.2363  -19.8303  -18.8982 C   0  0  0  0  0  0  0  0  0  0  0  0
   25.2665  -20.6121  -18.0307 C   0  0  0  0  0  0  0  0  0  0  0  0
   26.0618  -21.1611  -16.8592 C   0  0  2  0  0  0  0  0  0  0  0  0
   26.6054  -22.4304  -17.2457 N   0  0  0  0  0  0  0  0  0  0  0  0
   25.1015  -21.3667  -15.7497 C   0  0  0  0  0  0  0  0  0  0  0  0
   24.3412  -22.3533  -15.7652 O   0  0  0  0  0  0  0  0  0  0  0  0
   26.4914  -20.8596  -10.5194 C   0  0  0  0  0  0  0  0  0  0  0  0
   25.8659  -21.2644  -11.8231 C   0  0  1  0  0  0  0  0  0  0  0  0
   25.3334  -22.7035  -11.6845 C   0  0  0  0  0  0  0  0  0  0  0  0
   24.7413  -20.4110  -12.2548 C   0  0  0  0  0  0  0  0  0  0  0  0
   24.1208  -20.6567  -13.5745 C   0  0  2  0  0  0  0  0  0  0  0  0
   25.0490  -20.4444  -14.6762 N   0  0  0  0  0  0  0  0  0  0  0  0
   22.9011  -19.8941  -13.8428 C   0  0  0  0  0  0  0  0  0  0  0  0
   22.9775  -18.7914  -14.4417 O   0  0  0  0  0  0  0  0  0  0  0  0
   21.5922  -20.3198  -13.4705 N   0  0  0  0  0  0  0  0  0  0  0  0
   20.4530  -19.9655  -14.2945 C   0  0  1  0  0  0  0  0  0  0  0  0
   20.7893  -20.5160  -15.6805 C   0  0  0  0  0  0  0  0  0  0  0  0
   21.1044  -19.4804  -16.6606 C   0  0  0  0  0  0  0  0  0  0  0  0
   20.5410  -18.2128  -16.5148 C   0  0  0  0  0  0  0  0  0  0  0  0
   20.8088  -17.2008  -17.4132 C   0  0  0  0  0  0  0  0  0  0  0  0
   21.6465  -17.4060  -18.4922 C   0  0  0  0  0  0  0  0  0  0  0  0
   22.2082  -18.6390  -18.6533 C   0  0  0  0  0  0  0  0  0  0  0  0
   21.9340  -19.6443  -17.7493 C   0  0  0  0  0  0  0  0  0  0  0  0
   19.1693  -20.4706  -13.8072 C   0  0  0  0  0  0  0  0  0  0  0  0
   18.0714  -19.8400  -13.9949 O   0  0  0  0  0  0  0  0  0  0  0  0
   19.0290  -21.6607  -13.1094 O   0  0  0  0  0  0  0  0  0  0  0  0
  2  3  2  0
  2  1  1  0
  4  2  1  0
  5  4  1  0
  6  5  1  0
  6  7  1  6
  8  6  1  0
  9  8  2  0
 11 10  1  1
 11 13  1  0
 11 12  1  0
 14 13  1  1
 14 16  1  0
 14 15  1  0
 15  8  1  0
 16 18  1  0
 17 16  2  0
 18 19  1  0
 19 20  1  6
 19 27  1  0
 21 20  1  0
 22 21  2  0
 23 22  1  0
 24 25  1  0
 24 23  2  0
 25 26  2  0
 26 21  1  0
 27 28  2  0
 27 29  1  0
M  END
$$$$
