GYS.pdb
     RDKit          3D

 23 23  0  0  1  0  0  0  0  0999 V2000
   20.1706  -20.0512  -10.6314 N   0  0  0  0  0  0  0  0  0  0  0  0
   21.0650  -20.8096  -11.4714 C   0  0  0  0  0  0  0  0  0  0  0  0
   22.4429  -20.2516  -11.4575 C   0  0  0  0  0  0  0  0  0  0  0  0
   22.6776  -19.0401  -11.2336 O   0  0  0  0  0  0  0  0  0  0  0  0
   26.8636  -18.9525   -5.7253 O   0  0  0  0  0  0  0  0  0  0  0  0
   26.6353  -19.5296   -6.9765 C   0  0  0  0  0  0  0  0  0  0  0  0
   25.9904  -20.7445   -7.0785 C   0  0  0  0  0  0  0  0  0  0  0  0
   25.7791  -21.2892   -8.3223 C   0  0  0  0  0  0  0  0  0  0  0  0
   26.1888  -20.6690   -9.5089 C   0  0  0  0  0  0  0  0  0  0  0  0
   25.8831  -21.3816  -10.7774 C   0  0  0  0  0  0  0  0  0  0  0  0
   24.9462  -20.5893  -11.6233 C   0  0  2  0  0  0  0  0  0  0  0  0
   23.6073  -21.0293  -11.6937 N   0  0  0  0  0  0  0  0  0  0  0  0
   25.4597  -20.6028  -13.0470 C   0  0  0  0  0  0  0  0  0  0  0  0
   25.0431  -21.4553  -13.8694 O   0  0  0  0  0  0  0  0  0  0  0  0
   26.8189  -19.4787   -9.3848 C   0  0  0  0  0  0  0  0  0  0  0  0
   27.0435  -18.9088   -8.1374 C   0  0  0  0  0  0  0  0  0  0  0  0
   28.3486  -18.3967  -16.3633 O   0  0  0  0  0  0  0  0  0  0  0  0
   27.9169  -18.4419  -15.0318 C   0  0  0  0  0  0  0  0  0  0  0  0
   26.9761  -19.5688  -14.8075 C   0  0  2  0  0  0  0  0  0  0  0  0
   26.4149  -19.6649  -13.4905 N   0  0  0  0  0  0  0  0  0  0  0  0
   27.5291  -20.8416  -15.3439 C   0  0  0  0  0  0  0  0  0  0  0  0
   27.2059  -21.2574  -16.6313 O   0  0  0  0  0  0  0  0  0  0  0  0
   28.2801  -21.5508  -14.6650 O   0  0  0  0  0  0  0  0  0  0  0  0
  2  3  1  0
  2  1  1  0
  3  4  2  0
  5  6  1  0
  6  7  2  0
  7  8  1  0
  9 10  1  0
  9  8  2  0
 11 10  1  1
 11 13  1  0
 12 11  1  0
 12  3  1  0
 13 20  1  0
 14 13  2  0
 15  9  1  0
 16 15  2  0
 16  6  1  0
 18 17  1  0
 19 18  1  1
 20 19  1  0
 21 22  1  0
 21 19  1  0
 23 21  2  0
M  END
$$$$
