GYS.pdb
     RDKit          3D

 23 23  0  0  1  0  0  0  0  0999 V2000
   30.8699   -8.9466  -19.0405 N   0  0  0  0  0  0  0  0  0  0  0  0
   30.1089   -8.9519  -17.8151 C   0  0  0  0  0  0  0  0  0  0  0  0
   28.6640   -9.1989  -18.0626 C   0  0  0  0  0  0  0  0  0  0  0  0
   28.1862   -9.3055  -19.2173 O   0  0  0  0  0  0  0  0  0  0  0  0
   28.0266  -15.9451  -17.6952 O   0  0  0  0  0  0  0  0  0  0  0  0
   27.4976  -14.6922  -17.3775 C   0  0  0  0  0  0  0  0  0  0  0  0
   27.3642  -14.3032  -16.0610 C   0  0  0  0  0  0  0  0  0  0  0  0
   26.8405  -13.0649  -15.7773 C   0  0  0  0  0  0  0  0  0  0  0  0
   26.4289  -12.1633  -16.7664 C   0  0  0  0  0  0  0  0  0  0  0  0
   25.8873  -10.8593  -16.3008 C   0  0  0  0  0  0  0  0  0  0  0  0
   26.3590   -9.7438  -17.1693 C   0  0  2  0  0  0  0  0  0  0  0  0
   27.7021   -9.3353  -17.0270 N   0  0  0  0  0  0  0  0  0  0  0  0
   25.5218   -8.5187  -16.8706 C   0  0  0  0  0  0  0  0  0  0  0  0
   25.8080   -7.7679  -15.9058 O   0  0  0  0  0  0  0  0  0  0  0  0
   26.5691  -12.5657  -18.0500 C   0  0  0  0  0  0  0  0  0  0  0  0
   27.0961  -13.8135  -18.3606 C   0  0  0  0  0  0  0  0  0  0  0  0
   21.9692   -5.5438  -18.4821 O   0  0  0  0  0  0  0  0  0  0  0  0
   22.6023   -6.7850  -18.6234 C   0  0  0  0  0  0  0  0  0  0  0  0
   23.5669   -7.0274  -17.5206 C   0  0  2  0  0  0  0  0  0  0  0  0
   24.4028   -8.1851  -17.6613 N   0  0  0  0  0  0  0  0  0  0  0  0
   22.9070   -6.8926  -16.1940 C   0  0  0  0  0  0  0  0  0  0  0  0
   22.8807   -5.6612  -15.5475 O   0  0  0  0  0  0  0  0  0  0  0  0
   22.3730   -7.8612  -15.6421 O   0  0  0  0  0  0  0  0  0  0  0  0
  2  3  1  0
  2  1  1  0
  3  4  2  0
  5  6  1  0
  6  7  2  0
  7  8  1  0
  9 10  1  0
  9  8  2  0
 11 10  1  1
 11 13  1  0
 12 11  1  0
 12  3  1  0
 13 20  1  0
 14 13  2  0
 15  9  1  0
 16 15  2  0
 16  6  1  0
 18 17  1  0
 19 18  1  6
 20 19  1  0
 21 22  1  0
 21 19  1  0
 23 21  2  0
M  END
$$$$
