GYS.pdb
     RDKit          3D

 23 23  0  0  1  0  0  0  0  0999 V2000
   17.5976  -10.6310  -17.2740 N   0  0  0  0  0  0  0  0  0  0  0  0
   18.9171  -11.2135  -17.2925 C   0  0  0  0  0  0  0  0  0  0  0  0
   19.8030  -10.6087  -16.2633 C   0  0  0  0  0  0  0  0  0  0  0  0
   19.6300  -10.7892  -15.0342 O   0  0  0  0  0  0  0  0  0  0  0  0
   24.0617  -15.1643  -15.8347 O   0  0  0  0  0  0  0  0  0  0  0  0
   23.8689  -13.7814  -15.8043 C   0  0  0  0  0  0  0  0  0  0  0  0
   23.6405  -13.0817  -16.9708 C   0  0  0  0  0  0  0  0  0  0  0  0
   23.4543  -11.7215  -16.9115 C   0  0  0  0  0  0  0  0  0  0  0  0
   23.4842  -10.9966  -15.7139 C   0  0  0  0  0  0  0  0  0  0  0  0
   23.2600   -9.5303  -15.8126 C   0  0  0  0  0  0  0  0  0  0  0  0
   21.8156   -9.1985  -15.6559 C   0  0  2  0  0  0  0  0  0  0  0  0
   20.9141   -9.7803  -16.5724 N   0  0  0  0  0  0  0  0  0  0  0  0
   21.6496   -7.7017  -15.8084 C   0  0  0  0  0  0  0  0  0  0  0  0
   21.5906   -7.1774  -16.9477 O   0  0  0  0  0  0  0  0  0  0  0  0
   23.7095  -11.7033  -14.5828 C   0  0  0  0  0  0  0  0  0  0  0  0
   23.9006  -13.0792  -14.6187 C   0  0  0  0  0  0  0  0  0  0  0  0
   19.1227   -5.2721  -13.9924 O   0  0  0  0  0  0  0  0  0  0  0  0
   20.0305   -4.9339  -15.0038 C   0  0  0  0  0  0  0  0  0  0  0  0
   21.3949   -5.4307  -14.6924 C   0  0  2  0  0  0  0  0  0  0  0  0
   21.5566   -6.8563  -14.6835 N   0  0  0  0  0  0  0  0  0  0  0  0
   21.9607   -4.7317  -13.5071 C   0  0  0  0  0  0  0  0  0  0  0  0
   22.0687   -3.3450  -13.4982 O   0  0  0  0  0  0  0  0  0  0  0  0
   22.3434   -5.3607  -12.5142 O   0  0  0  0  0  0  0  0  0  0  0  0
  2  3  1  0
  2  1  1  0
  3  4  2  0
  5  6  1  0
  6  7  2  0
  7  8  1  0
  9 10  1  0
  9  8  2  0
 11 10  1  6
 11 13  1  0
 12 11  1  0
 12  3  1  0
 13 20  1  0
 14 13  2  0
 15  9  1  0
 16 15  2  0
 16  6  1  0
 18 17  1  0
 19 18  1  1
 20 19  1  0
 21 22  1  0
 21 19  1  0
 23 21  2  0
M  END
$$$$
