GYS.pdb
     RDKit          3D

 23 23  0  0  1  0  0  0  0  0999 V2000
   17.8119  -13.3807  -16.5915 N   0  0  0  0  0  0  0  0  0  0  0  0
   19.0450  -12.7236  -16.9501 C   0  0  0  0  0  0  0  0  0  0  0  0
   19.2932  -11.5196  -16.1141 C   0  0  0  0  0  0  0  0  0  0  0  0
   18.5831  -11.2294  -15.1219 O   0  0  0  0  0  0  0  0  0  0  0  0
   22.0817   -3.5752  -13.5375 O   0  0  0  0  0  0  0  0  0  0  0  0
   22.0546   -4.8674  -14.0667 C   0  0  0  0  0  0  0  0  0  0  0  0
   21.9726   -5.9627  -13.2325 C   0  0  0  0  0  0  0  0  0  0  0  0
   21.9478   -7.2226  -13.7804 C   0  0  0  0  0  0  0  0  0  0  0  0
   22.0020   -7.4585  -15.1596 C   0  0  0  0  0  0  0  0  0  0  0  0
   21.9606   -8.8783  -15.5986 C   0  0  0  0  0  0  0  0  0  0  0  0
   20.5556   -9.3635  -15.7070 C   0  0  2  0  0  0  0  0  0  0  0  0
   20.3449  -10.5973  -16.3586 N   0  0  0  0  0  0  0  0  0  0  0  0
   19.7564   -8.3430  -16.4885 C   0  0  0  0  0  0  0  0  0  0  0  0
   19.7777   -8.3389  -17.7439 O   0  0  0  0  0  0  0  0  0  0  0  0
   22.0819   -6.3698  -15.9582 C   0  0  0  0  0  0  0  0  0  0  0  0
   22.1085   -5.0863  -15.4264 C   0  0  0  0  0  0  0  0  0  0  0  0
   16.1610   -5.7329  -17.5768 O   0  0  0  0  0  0  0  0  0  0  0  0
   16.8453   -6.7919  -16.9672 C   0  0  0  0  0  0  0  0  0  0  0  0
   18.1699   -6.3556  -16.4566 C   0  0  2  0  0  0  0  0  0  0  0  0
   18.9688   -7.3726  -15.8353 N   0  0  0  0  0  0  0  0  0  0  0  0
   18.0534   -5.0926  -15.6789 C   0  0  0  0  0  0  0  0  0  0  0  0
   17.9483   -3.8722  -16.3380 O   0  0  0  0  0  0  0  0  0  0  0  0
   18.0474   -5.0991  -14.4428 O   0  0  0  0  0  0  0  0  0  0  0  0
  2  3  1  0
  2  1  1  0
  3  4  2  0
  5  6  1  0
  6  7  2  0
  7  8  1  0
  9 10  1  0
  9  8  2  0
 11 10  1  6
 11 13  1  0
 12 11  1  0
 12  3  1  0
 13 20  1  0
 14 13  2  0
 15  9  1  0
 16 15  2  0
 16  6  1  0
 18 17  1  0
 19 18  1  1
 20 19  1  0
 21 22  1  0
 21 19  1  0
 23 21  2  0
M  END
$$$$
