GYS.pdb
     RDKit          3D

 23 23  0  0  1  0  0  0  0  0999 V2000
   19.8554  -21.8834  -12.9705 N   0  0  0  0  0  0  0  0  0  0  0  0
   19.0074  -23.0022  -13.3020 C   0  0  0  0  0  0  0  0  0  0  0  0
   19.4530  -24.2516  -12.6308 C   0  0  0  0  0  0  0  0  0  0  0  0
   20.6466  -24.4515  -12.3014 O   0  0  0  0  0  0  0  0  0  0  0  0
   17.8855  -24.2345   -5.7822 O   0  0  0  0  0  0  0  0  0  0  0  0
   17.9257  -24.9474   -6.9826 C   0  0  0  0  0  0  0  0  0  0  0  0
   16.8440  -24.9367   -7.8383 C   0  0  0  0  0  0  0  0  0  0  0  0
   16.9109  -25.6471   -9.0127 C   0  0  0  0  0  0  0  0  0  0  0  0
   18.0338  -26.3920   -9.3934 C   0  0  0  0  0  0  0  0  0  0  0  0
   17.9556  -27.1028  -10.6969 C   0  0  0  0  0  0  0  0  0  0  0  0
   18.9274  -26.5356  -11.6742 C   0  0  2  0  0  0  0  0  0  0  0  0
   18.5789  -25.3220  -12.3042 N   0  0  0  0  0  0  0  0  0  0  0  0
   19.1227  -27.5384  -12.7909 C   0  0  0  0  0  0  0  0  0  0  0  0
   18.5359  -27.3929  -13.8914 O   0  0  0  0  0  0  0  0  0  0  0  0
   19.0824  -26.3879   -8.5392 C   0  0  0  0  0  0  0  0  0  0  0  0
   19.0372  -25.6769   -7.3461 C   0  0  0  0  0  0  0  0  0  0  0  0
   21.6020  -30.0926  -15.6075 O   0  0  0  0  0  0  0  0  0  0  0  0
   21.3696  -29.1353  -14.6120 C   0  0  0  0  0  0  0  0  0  0  0  0
   20.3421  -29.6001  -13.6458 C   0  0  2  0  0  0  0  0  0  0  0  0
   19.9640  -28.6589  -12.6309 N   0  0  0  0  0  0  0  0  0  0  0  0
   20.6586  -30.9644  -13.1438 C   0  0  0  0  0  0  0  0  0  0  0  0
   21.6882  -31.1514  -12.2274 O   0  0  0  0  0  0  0  0  0  0  0  0
   20.0208  -31.9520  -13.5256 O   0  0  0  0  0  0  0  0  0  0  0  0
  2  3  1  0
  2  1  1  0
  3  4  2  0
  5  6  1  0
  6  7  2  0
  7  8  1  0
  9 10  1  0
  9  8  2  0
 11 10  1  1
 11 13  1  0
 12 11  1  0
 12  3  1  0
 13 20  1  0
 14 13  2  0
 15  9  1  0
 16 15  2  0
 16  6  1  0
 18 17  1  0
 19 18  1  1
 20 19  1  0
 21 22  1  0
 21 19  1  0
 23 21  2  0
M  END
$$$$
