GYS.pdb
     RDKit          3D

 23 23  0  0  1  0  0  0  0  0999 V2000
   16.3468  -13.0335    3.9592 N   0  0  0  0  0  0  0  0  0  0  0  0
   16.4110  -12.8916    5.3933 C   0  0  0  0  0  0  0  0  0  0  0  0
   17.5310  -13.6759    5.9768 C   0  0  0  0  0  0  0  0  0  0  0  0
   18.3339  -14.3325    5.2715 O   0  0  0  0  0  0  0  0  0  0  0  0
   22.5296   -9.2986    7.0418 O   0  0  0  0  0  0  0  0  0  0  0  0
   21.8240  -10.3916    7.5499 C   0  0  0  0  0  0  0  0  0  0  0  0
   20.4586  -10.3191    7.7308 C   0  0  0  0  0  0  0  0  0  0  0  0
   19.7897  -11.4096    8.2324 C   0  0  0  0  0  0  0  0  0  0  0  0
   20.4281  -12.6078    8.5749 C   0  0  0  0  0  0  0  0  0  0  0  0
   19.5666  -13.6995    9.1006 C   0  0  0  0  0  0  0  0  0  0  0  0
   18.8735  -14.4145    7.9918 C   0  0  2  0  0  0  0  0  0  0  0  0
   17.7928  -13.7535    7.3703 N   0  0  0  0  0  0  0  0  0  0  0  0
   18.3069  -15.7077    8.5374 C   0  0  0  0  0  0  0  0  0  0  0  0
   17.1368  -15.7526    8.9906 O   0  0  0  0  0  0  0  0  0  0  0  0
   21.7670  -12.6562    8.3890 C   0  0  0  0  0  0  0  0  0  0  0  0
   22.4642  -11.5658    7.8832 C   0  0  0  0  0  0  0  0  0  0  0  0
   17.6190  -20.2781    8.5735 O   0  0  0  0  0  0  0  0  0  0  0  0
   18.1984  -19.1419    7.9950 C   0  0  0  0  0  0  0  0  0  0  0  0
   18.6492  -18.1788    9.0317 C   0  0  2  0  0  0  0  0  0  0  0  0
   19.0702  -16.8933    8.5532 N   0  0  0  0  0  0  0  0  0  0  0  0
   19.5862  -18.8247    9.9901 C   0  0  0  0  0  0  0  0  0  0  0  0
   19.1104  -19.7350   10.9280 O   0  0  0  0  0  0  0  0  0  0  0  0
   20.7956  -18.5698    9.9747 O   0  0  0  0  0  0  0  0  0  0  0  0
  2  3  1  0
  2  1  1  0
  3  4  2  0
  5  6  1  0
  6  7  2  0
  7  8  1  0
  9 10  1  0
  9  8  2  0
 11 10  1  1
 11 13  1  0
 12 11  1  0
 12  3  1  0
 13 20  1  0
 14 13  2  0
 15  9  1  0
 16 15  2  0
 16  6  1  0
 18 17  1  0
 19 18  1  6
 20 19  1  0
 21 22  1  0
 21 19  1  0
 23 21  2  0
M  END
$$$$
