GYS.pdb
     RDKit          3D

 23 23  0  0  1  0  0  0  0  0999 V2000
   20.7900  -22.0160  -12.6197 N   0  0  0  0  0  0  0  0  0  0  0  0
   20.9300  -20.6638  -13.1020 C   0  0  0  0  0  0  0  0  0  0  0  0
   22.3252  -20.1694  -12.9643 C   0  0  0  0  0  0  0  0  0  0  0  0
   22.5957  -19.0305  -12.5138 O   0  0  0  0  0  0  0  0  0  0  0  0
   25.9509  -20.0418   -6.9435 O   0  0  0  0  0  0  0  0  0  0  0  0
   25.9158  -20.3979   -8.2935 C   0  0  0  0  0  0  0  0  0  0  0  0
   24.7451  -20.8477   -8.8674 C   0  0  0  0  0  0  0  0  0  0  0  0
   24.7393  -21.1913  -10.1979 C   0  0  0  0  0  0  0  0  0  0  0  0
   25.8737  -21.1085  -11.0145 C   0  0  0  0  0  0  0  0  0  0  0  0
   25.7069  -21.5116  -12.4358 C   0  0  0  0  0  0  0  0  0  0  0  0
   24.8186  -20.5594  -13.1607 C   0  0  2  0  0  0  0  0  0  0  0  0
   23.4675  -20.9315  -13.3256 N   0  0  0  0  0  0  0  0  0  0  0  0
   25.3660  -20.3647  -14.5584 C   0  0  0  0  0  0  0  0  0  0  0  0
   25.0413  -21.1448  -15.4871 O   0  0  0  0  0  0  0  0  0  0  0  0
   27.0102  -20.6649  -10.4306 C   0  0  0  0  0  0  0  0  0  0  0  0
   27.0396  -20.3118   -9.0869 C   0  0  0  0  0  0  0  0  0  0  0  0
   28.6180  -17.7041  -15.3523 O   0  0  0  0  0  0  0  0  0  0  0  0
   27.5231  -17.6834  -16.2251 C   0  0  0  0  0  0  0  0  0  0  0  0
   26.7523  -18.9508  -16.1542 C   0  0  2  0  0  0  0  0  0  0  0  0
   26.2509  -19.3084  -14.8584 N   0  0  0  0  0  0  0  0  0  0  0  0
   27.4569  -20.0458  -16.8740 C   0  0  0  0  0  0  0  0  0  0  0  0
   27.5866  -20.0032  -18.2583 O   0  0  0  0  0  0  0  0  0  0  0  0
   27.9378  -21.0079  -16.2648 O   0  0  0  0  0  0  0  0  0  0  0  0
  2  3  1  0
  2  1  1  0
  3  4  2  0
  5  6  1  0
  6  7  2  0
  7  8  1  0
  9 10  1  0
  9  8  2  0
 11 10  1  6
 11 13  1  0
 12 11  1  0
 12  3  1  0
 13 20  1  0
 14 13  2  0
 15  9  1  0
 16 15  2  0
 16  6  1  0
 18 17  1  0
 19 18  1  1
 20 19  1  0
 21 22  1  0
 21 19  1  0
 23 21  2  0
M  END
$$$$
