GYS.pdb
     RDKit          3D

 23 23  0  0  1  0  0  0  0  0999 V2000
   36.6986    1.6443   -4.3685 N   0  0  0  0  0  0  0  0  0  0  0  0
   36.7251    0.2443   -4.7153 C   0  0  0  0  0  0  0  0  0  0  0  0
   37.4853   -0.5574   -3.7207 C   0  0  0  0  0  0  0  0  0  0  0  0
   38.3037   -0.0415   -2.9224 O   0  0  0  0  0  0  0  0  0  0  0  0
   33.7262   -1.0250    1.7273 O   0  0  0  0  0  0  0  0  0  0  0  0
   34.5975   -1.6912    0.8627 C   0  0  0  0  0  0  0  0  0  0  0  0
   34.1563   -2.1407   -0.3643 C   0  0  0  0  0  0  0  0  0  0  0  0
   35.0351   -2.7933   -1.1951 C   0  0  0  0  0  0  0  0  0  0  0  0
   36.3735   -3.0302   -0.8588 C   0  0  0  0  0  0  0  0  0  0  0  0
   37.2009   -3.7451   -1.8661 C   0  0  0  0  0  0  0  0  0  0  0  0
   38.0280   -2.7884   -2.6548 C   0  0  2  0  0  0  0  0  0  0  0  0
   37.3570   -1.9649   -3.5836 N   0  0  0  0  0  0  0  0  0  0  0  0
   39.0374   -3.5792   -3.4589 C   0  0  0  0  0  0  0  0  0  0  0  0
   38.8101   -3.8746   -4.6579 O   0  0  0  0  0  0  0  0  0  0  0  0
   36.7841   -2.5805    0.3489 C   0  0  0  0  0  0  0  0  0  0  0  0
   35.9130   -1.9182    1.2054 C   0  0  0  0  0  0  0  0  0  0  0  0
   43.0639   -3.4255   -5.2066 O   0  0  0  0  0  0  0  0  0  0  0  0
   41.9038   -3.0930   -4.4960 C   0  0  0  0  0  0  0  0  0  0  0  0
   41.5046   -4.1856   -3.5729 C   0  0  2  0  0  0  0  0  0  0  0  0
   40.2555   -4.0053   -2.8903 N   0  0  0  0  0  0  0  0  0  0  0  0
   42.6396   -4.5890   -2.6996 C   0  0  0  0  0  0  0  0  0  0  0  0
   43.4490   -5.6628   -3.0555 O   0  0  0  0  0  0  0  0  0  0  0  0
   42.8864   -3.9856   -1.6494 O   0  0  0  0  0  0  0  0  0  0  0  0
  2  3  1  0
  2  1  1  0
  3  4  2  0
  5  6  1  0
  6  7  2  0
  7  8  1  0
  9 10  1  0
  9  8  2  0
 11 10  1  6
 11 13  1  0
 12 11  1  0
 12  3  1  0
 13 20  1  0
 14 13  2  0
 15  9  1  0
 16 15  2  0
 16  6  1  0
 18 17  1  0
 19 18  1  1
 20 19  1  0
 21 22  1  0
 21 19  1  0
 23 21  2  0
M  END
$$$$
