GYS.pdb
     RDKit          3D

 23 23  0  0  1  0  0  0  0  0999 V2000
   21.5701  -21.6280   -6.5633 N   0  0  0  0  0  0  0  0  0  0  0  0
   22.8838  -22.1514   -6.8479 C   0  0  0  0  0  0  0  0  0  0  0  0
   23.6663  -21.2367   -7.7203 C   0  0  0  0  0  0  0  0  0  0  0  0
   23.2434  -20.1073   -8.0647 O   0  0  0  0  0  0  0  0  0  0  0  0
   28.2415  -18.6399   -3.4834 O   0  0  0  0  0  0  0  0  0  0  0  0
   27.9955  -19.1762   -4.7493 C   0  0  0  0  0  0  0  0  0  0  0  0
   27.8898  -18.3511   -5.8494 C   0  0  0  0  0  0  0  0  0  0  0  0
   27.6473  -18.9058   -7.0830 C   0  0  0  0  0  0  0  0  0  0  0  0
   27.4994  -20.2832   -7.2869 C   0  0  0  0  0  0  0  0  0  0  0  0
   27.2456  -20.7305   -8.6818 C   0  0  0  0  0  0  0  0  0  0  0  0
   25.7885  -20.7064   -8.9942 C   0  0  2  0  0  0  0  0  0  0  0  0
   24.9499  -21.5530   -8.2386 N   0  0  0  0  0  0  0  0  0  0  0  0
   25.6021  -21.1229  -10.4374 C   0  0  0  0  0  0  0  0  0  0  0  0
   25.6023  -22.3368  -10.7580 O   0  0  0  0  0  0  0  0  0  0  0  0
   27.6071  -21.0730   -6.1941 C   0  0  0  0  0  0  0  0  0  0  0  0
   27.8520  -20.5341   -4.9369 C   0  0  0  0  0  0  0  0  0  0  0  0
   23.6665  -18.7649  -13.2383 O   0  0  0  0  0  0  0  0  0  0  0  0
   24.8784  -19.2869  -13.7073 C   0  0  0  0  0  0  0  0  0  0  0  0
   25.3375  -20.4228  -12.8680 C   0  0  2  0  0  0  0  0  0  0  0  0
   25.4234  -20.1670  -11.4588 N   0  0  0  0  0  0  0  0  0  0  0  0
   26.5391  -21.0721  -13.4581 C   0  0  0  0  0  0  0  0  0  0  0  0
   26.4899  -21.5960  -14.7457 O   0  0  0  0  0  0  0  0  0  0  0  0
   27.5968  -21.1597  -12.8244 O   0  0  0  0  0  0  0  0  0  0  0  0
  2  3  1  0
  2  1  1  0
  3  4  2  0
  5  6  1  0
  6  7  2  0
  7  8  1  0
  9 10  1  0
  9  8  2  0
 11 10  1  1
 11 13  1  0
 12 11  1  0
 12  3  1  0
 13 20  1  0
 14 13  2  0
 15  9  1  0
 16 15  2  0
 16  6  1  0
 18 17  1  0
 19 18  1  6
 20 19  1  0
 21 22  1  0
 21 19  1  0
 23 21  2  0
M  END
$$$$
