GYS.pdb
     RDKit          3D

 23 23  0  0  1  0  0  0  0  0999 V2000
   29.2162  -20.2952  -18.0610 N   0  0  0  0  0  0  0  0  0  0  0  0
   28.3628  -21.0820  -17.2046 C   0  0  0  0  0  0  0  0  0  0  0  0
   28.0947  -20.3981  -15.9122 C   0  0  0  0  0  0  0  0  0  0  0  0
   28.8572  -19.5196  -15.4431 O   0  0  0  0  0  0  0  0  0  0  0  0
   26.5002  -14.4821  -17.2645 O   0  0  0  0  0  0  0  0  0  0  0  0
   26.1958  -15.6246  -16.5212 C   0  0  0  0  0  0  0  0  0  0  0  0
   26.5933  -15.7282  -15.2045 C   0  0  0  0  0  0  0  0  0  0  0  0
   26.2802  -16.8638  -14.4969 C   0  0  0  0  0  0  0  0  0  0  0  0
   25.5693  -17.9370  -15.0477 C   0  0  0  0  0  0  0  0  0  0  0  0
   25.3034  -19.0941  -14.1529 C   0  0  0  0  0  0  0  0  0  0  0  0
   26.5256  -19.9296  -13.9818 C   0  0  2  0  0  0  0  0  0  0  0  0
   26.9639  -20.6727  -15.0984 N   0  0  0  0  0  0  0  0  0  0  0  0
   26.2623  -20.9438  -12.8895 C   0  0  0  0  0  0  0  0  0  0  0  0
   25.7408  -22.0536  -13.1591 O   0  0  0  0  0  0  0  0  0  0  0  0
   25.1897  -17.8134  -16.3400 C   0  0  0  0  0  0  0  0  0  0  0  0
   25.4952  -16.6744  -17.0750 C   0  0  0  0  0  0  0  0  0  0  0  0
   27.9621  -21.0254   -9.1372 O   0  0  0  0  0  0  0  0  0  0  0  0
   26.5715  -20.8704   -9.0774 C   0  0  0  0  0  0  0  0  0  0  0  0
   25.9360  -21.1948  -10.3798 C   0  0  2  0  0  0  0  0  0  0  0  0
   26.5925  -20.6752  -11.5450 N   0  0  0  0  0  0  0  0  0  0  0  0
   24.4682  -20.9557  -10.3326 C   0  0  0  0  0  0  0  0  0  0  0  0
   23.6894  -21.5747   -9.3605 O   0  0  0  0  0  0  0  0  0  0  0  0
   23.9137  -20.2096  -11.1473 O   0  0  0  0  0  0  0  0  0  0  0  0
  2  3  1  0
  2  1  1  0
  3  4  2  0
  5  6  1  0
  6  7  2  0
  7  8  1  0
  9 10  1  0
  9  8  2  0
 11 10  1  6
 11 13  1  0
 12 11  1  0
 12  3  1  0
 13 20  1  0
 14 13  2  0
 15  9  1  0
 16 15  2  0
 16  6  1  0
 18 17  1  0
 19 18  1  1
 20 19  1  0
 21 22  1  0
 21 19  1  0
 23 21  2  0
M  END
$$$$
