GYS.pdb
     RDKit          3D

 23 23  0  0  1  0  0  0  0  0999 V2000
   21.6904  -10.3130  -19.0843 N   0  0  0  0  0  0  0  0  0  0  0  0
   22.0397  -10.6280  -17.7206 C   0  0  0  0  0  0  0  0  0  0  0  0
   21.2596   -9.8176  -16.7487 C   0  0  0  0  0  0  0  0  0  0  0  0
   20.0181   -9.9359  -16.6150 O   0  0  0  0  0  0  0  0  0  0  0  0
   18.2140   -5.7818   -9.7468 O   0  0  0  0  0  0  0  0  0  0  0  0
   19.0999   -6.3274  -10.6784 C   0  0  0  0  0  0  0  0  0  0  0  0
   19.0781   -7.6784  -10.9556 C   0  0  0  0  0  0  0  0  0  0  0  0
   19.9611   -8.1883  -11.8768 C   0  0  0  0  0  0  0  0  0  0  0  0
   20.8955   -7.3997  -12.5591 C   0  0  0  0  0  0  0  0  0  0  0  0
   21.7796   -8.0975  -13.5297 C   0  0  0  0  0  0  0  0  0  0  0  0
   21.1813   -8.0959  -14.8947 C   0  0  2  0  0  0  0  0  0  0  0  0
   21.8405   -8.8458  -15.8918 N   0  0  0  0  0  0  0  0  0  0  0  0
   21.1530   -6.6703  -15.4025 C   0  0  0  0  0  0  0  0  0  0  0  0
   22.2117   -6.0968  -15.7585 O   0  0  0  0  0  0  0  0  0  0  0  0
   20.8987   -6.0781  -12.2716 C   0  0  0  0  0  0  0  0  0  0  0  0
   20.0151   -5.5403  -11.3437 C   0  0  0  0  0  0  0  0  0  0  0  0
   19.0360   -5.3284  -18.1440 O   0  0  0  0  0  0  0  0  0  0  0  0
   18.7790   -4.4524  -17.0820 C   0  0  0  0  0  0  0  0  0  0  0  0
   19.7775   -4.6148  -15.9948 C   0  0  2  0  0  0  0  0  0  0  0  0
   19.9452   -5.9477  -15.4909 N   0  0  0  0  0  0  0  0  0  0  0  0
   19.6041   -3.5704  -14.9494 C   0  0  0  0  0  0  0  0  0  0  0  0
   20.1730   -2.3121  -15.1163 O   0  0  0  0  0  0  0  0  0  0  0  0
   18.9576   -3.7948  -13.9201 O   0  0  0  0  0  0  0  0  0  0  0  0
  2  3  1  0
  2  1  1  0
  3  4  2  0
  5  6  1  0
  6  7  2  0
  7  8  1  0
  9 10  1  0
  9  8  2  0
 11 10  1  1
 11 13  1  0
 12 11  1  0
 12  3  1  0
 13 20  1  0
 14 13  2  0
 15  9  1  0
 16 15  2  0
 16  6  1  0
 18 17  1  0
 19 18  1  6
 20 19  1  0
 21 22  1  0
 21 19  1  0
 23 21  2  0
M  END
$$$$
