GYS.pdb
     RDKit          3D

 23 23  0  0  1  0  0  0  0  0999 V2000
   32.8004  -13.6500  -18.7457 N   0  0  0  0  0  0  0  0  0  0  0  0
   32.6350  -12.3123  -18.2319 C   0  0  0  0  0  0  0  0  0  0  0  0
   31.2423  -11.8219  -18.4047 C   0  0  0  0  0  0  0  0  0  0  0  0
   30.5216  -12.1651  -19.3721 O   0  0  0  0  0  0  0  0  0  0  0  0
   26.6061  -16.1553  -16.7296 O   0  0  0  0  0  0  0  0  0  0  0  0
   27.0182  -14.8212  -16.7026 C   0  0  0  0  0  0  0  0  0  0  0  0
   27.7413  -14.3345  -15.6337 C   0  0  0  0  0  0  0  0  0  0  0  0
   28.1338  -13.0176  -15.6334 C   0  0  0  0  0  0  0  0  0  0  0  0
   27.8350  -12.1299  -16.6742 C   0  0  0  0  0  0  0  0  0  0  0  0
   28.3339  -10.7368  -16.5305 C   0  0  0  0  0  0  0  0  0  0  0  0
   29.3026  -10.4015  -17.6123 C   0  0  2  0  0  0  0  0  0  0  0  0
   30.6062  -10.9300  -17.5012 N   0  0  0  0  0  0  0  0  0  0  0  0
   29.4698   -8.8978  -17.6550 C   0  0  0  0  0  0  0  0  0  0  0  0
   30.3570   -8.3330  -16.9693 O   0  0  0  0  0  0  0  0  0  0  0  0
   27.1253  -12.6289  -17.7119 C   0  0  0  0  0  0  0  0  0  0  0  0
   26.7178  -13.9572  -17.7337 C   0  0  0  0  0  0  0  0  0  0  0  0
   30.5058   -5.2125  -19.8129 O   0  0  0  0  0  0  0  0  0  0  0  0
   30.2903   -6.5575  -19.4875 C   0  0  0  0  0  0  0  0  0  0  0  0
   28.9284   -6.7671  -18.9337 C   0  0  2  0  0  0  0  0  0  0  0  0
   28.6403   -8.0907  -18.4608 N   0  0  0  0  0  0  0  0  0  0  0  0
   27.8920   -6.1856  -19.8289 C   0  0  0  0  0  0  0  0  0  0  0  0
   26.9331   -7.0058  -20.4144 O   0  0  0  0  0  0  0  0  0  0  0  0
   27.8598   -4.9737  -20.0701 O   0  0  0  0  0  0  0  0  0  0  0  0
  2  3  1  0
  2  1  1  0
  3  4  2  0
  5  6  1  0
  6  7  2  0
  7  8  1  0
  9 10  1  0
  9  8  2  0
 11 10  1  1
 11 13  1  0
 12 11  1  0
 12  3  1  0
 13 20  1  0
 14 13  2  0
 15  9  1  0
 16 15  2  0
 16  6  1  0
 18 17  1  0
 19 18  1  6
 20 19  1  0
 21 22  1  0
 21 19  1  0
 23 21  2  0
M  END
$$$$
