GYS.pdb
     RDKit          3D

 23 23  0  0  1  0  0  0  0  0999 V2000
   19.5451  -20.3846  -14.0837 N   0  0  0  0  0  0  0  0  0  0  0  0
   20.6368  -21.3230  -14.1751 C   0  0  0  0  0  0  0  0  0  0  0  0
   21.8744  -20.7945  -13.5433 C   0  0  0  0  0  0  0  0  0  0  0  0
   21.9801  -19.6057  -13.1577 O   0  0  0  0  0  0  0  0  0  0  0  0
   27.3038  -19.3312   -7.5058 O   0  0  0  0  0  0  0  0  0  0  0  0
   26.7635  -20.0186   -8.5949 C   0  0  0  0  0  0  0  0  0  0  0  0
   25.3967  -20.1149   -8.7522 C   0  0  0  0  0  0  0  0  0  0  0  0
   24.8924  -20.7973   -9.8331 C   0  0  0  0  0  0  0  0  0  0  0  0
   25.7025  -21.4092  -10.7975 C   0  0  0  0  0  0  0  0  0  0  0  0
   25.0076  -22.1061  -11.9118 C   0  0  0  0  0  0  0  0  0  0  0  0
   24.2575  -21.1389  -12.7622 C   0  0  2  0  0  0  0  0  0  0  0  0
   23.0380  -21.5773  -13.3204 N   0  0  0  0  0  0  0  0  0  0  0  0
   25.1332  -20.7547  -13.9354 C   0  0  0  0  0  0  0  0  0  0  0  0
   25.0957  -21.4125  -15.0042 O   0  0  0  0  0  0  0  0  0  0  0  0
   27.0395  -21.3018  -10.6230 C   0  0  0  0  0  0  0  0  0  0  0  0
   27.5718  -20.6166   -9.5376 C   0  0  0  0  0  0  0  0  0  0  0  0
   28.5286  -17.6280  -15.6440 O   0  0  0  0  0  0  0  0  0  0  0  0
   27.6500  -17.9511  -14.6023 C   0  0  0  0  0  0  0  0  0  0  0  0
   26.9162  -19.2105  -14.8864 C   0  0  2  0  0  0  0  0  0  0  0  0
   26.0117  -19.6538  -13.8646 N   0  0  0  0  0  0  0  0  0  0  0  0
   27.8355  -20.2600  -15.4032 C   0  0  0  0  0  0  0  0  0  0  0  0
   28.2197  -20.2572  -16.7401 O   0  0  0  0  0  0  0  0  0  0  0  0
   28.2741  -21.1485  -14.6642 O   0  0  0  0  0  0  0  0  0  0  0  0
  2  3  1  0
  2  1  1  0
  3  4  2  0
  5  6  1  0
  6  7  2  0
  7  8  1  0
  9 10  1  0
  9  8  2  0
 11 10  1  6
 11 13  1  0
 12 11  1  0
 12  3  1  0
 13 20  1  0
 14 13  2  0
 15  9  1  0
 16 15  2  0
 16  6  1  0
 18 17  1  0
 19 18  1  1
 20 19  1  0
 21 22  1  0
 21 19  1  0
 23 21  2  0
M  END
$$$$
