GYS.pdb
     RDKit          3D

 23 23  0  0  1  0  0  0  0  0999 V2000
   27.2066  -14.8165  -16.5658 N   0  0  0  0  0  0  0  0  0  0  0  0
   26.3021  -14.5278  -15.4798 C   0  0  0  0  0  0  0  0  0  0  0  0
   24.8897  -14.4631  -15.9390 C   0  0  0  0  0  0  0  0  0  0  0  0
   24.5655  -14.5933  -17.1436 O   0  0  0  0  0  0  0  0  0  0  0  0
   16.3773  -15.4987  -16.9112 O   0  0  0  0  0  0  0  0  0  0  0  0
   17.6162  -15.3188  -16.2921 C   0  0  0  0  0  0  0  0  0  0  0  0
   18.6764  -16.1469  -16.5964 C   0  0  0  0  0  0  0  0  0  0  0  0
   19.8841  -15.9471  -15.9720 C   0  0  0  0  0  0  0  0  0  0  0  0
   20.1002  -14.9340  -15.0300 C   0  0  0  0  0  0  0  0  0  0  0  0
   21.4642  -14.8423  -14.4457 C   0  0  0  0  0  0  0  0  0  0  0  0
   22.4225  -14.2425  -15.4168 C   0  0  2  0  0  0  0  0  0  0  0  0
   23.7895  -14.2503  -15.0668 N   0  0  0  0  0  0  0  0  0  0  0  0
   22.0558  -12.7873  -15.6136 C   0  0  0  0  0  0  0  0  0  0  0  0
   22.4366  -11.9151  -14.7946 O   0  0  0  0  0  0  0  0  0  0  0  0
   19.0468  -14.1341  -14.7473 C   0  0  0  0  0  0  0  0  0  0  0  0
   17.8162  -14.3175  -15.3663 C   0  0  0  0  0  0  0  0  0  0  0  0
   20.8721  -11.1533  -19.3872 O   0  0  0  0  0  0  0  0  0  0  0  0
   21.3628  -10.4520  -18.2787 C   0  0  0  0  0  0  0  0  0  0  0  0
   20.8572  -11.0299  -17.0076 C   0  0  2  0  0  0  0  0  0  0  0  0
   21.2808  -12.3692  -16.7151 N   0  0  0  0  0  0  0  0  0  0  0  0
   19.3967  -10.7908  -16.8552 C   0  0  0  0  0  0  0  0  0  0  0  0
   18.8934   -9.4943  -16.8816 O   0  0  0  0  0  0  0  0  0  0  0  0
   18.6059  -11.7287  -16.7034 O   0  0  0  0  0  0  0  0  0  0  0  0
  2  3  1  0
  2  1  1  0
  3  4  2  0
  5  6  1  0
  6  7  2  0
  7  8  1  0
  9 10  1  0
  9  8  2  0
 11 10  1  1
 11 13  1  0
 12 11  1  0
 12  3  1  0
 13 20  1  0
 14 13  2  0
 15  9  1  0
 16 15  2  0
 16  6  1  0
 18 17  1  0
 19 18  1  6
 20 19  1  0
 21 22  1  0
 21 19  1  0
 23 21  2  0
M  END
$$$$
