GYS.pdb
     RDKit          3D

 23 23  0  0  1  0  0  0  0  0999 V2000
   42.4302   -8.9232   -6.4767 N   0  0  0  0  0  0  0  0  0  0  0  0
   42.4576   -8.4688   -7.8455 C   0  0  0  0  0  0  0  0  0  0  0  0
   41.5532   -9.2694   -8.7121 C   0  0  0  0  0  0  0  0  0  0  0  0
   41.5133  -10.5223   -8.6698 O   0  0  0  0  0  0  0  0  0  0  0  0
   36.6561  -10.9710   -5.1687 O   0  0  0  0  0  0  0  0  0  0  0  0
   37.0564  -10.4882   -6.4166 C   0  0  0  0  0  0  0  0  0  0  0  0
   37.4388  -11.3609   -7.4138 C   0  0  0  0  0  0  0  0  0  0  0  0
   37.8282  -10.8583   -8.6320 C   0  0  0  0  0  0  0  0  0  0  0  0
   37.8582   -9.4884   -8.9203 C   0  0  0  0  0  0  0  0  0  0  0  0
   38.2981   -9.1008  -10.2865 C   0  0  0  0  0  0  0  0  0  0  0  0
   39.7477   -9.3862  -10.4826 C   0  0  2  0  0  0  0  0  0  0  0  0
   40.6610   -8.6969   -9.6569 N   0  0  0  0  0  0  0  0  0  0  0  0
   40.1191   -9.0199  -11.9034 C   0  0  0  0  0  0  0  0  0  0  0  0
   40.6836   -7.9271  -12.1557 O   0  0  0  0  0  0  0  0  0  0  0  0
   37.4790   -8.6514   -7.9278 C   0  0  0  0  0  0  0  0  0  0  0  0
   37.0816   -9.1371   -6.6880 C   0  0  0  0  0  0  0  0  0  0  0  0
   40.4125  -12.0675  -14.5317 O   0  0  0  0  0  0  0  0  0  0  0  0
   40.1004  -10.8930  -15.2278 C   0  0  0  0  0  0  0  0  0  0  0  0
   40.2181   -9.6993  -14.3522 C   0  0  2  0  0  0  0  0  0  0  0  0
   39.8447   -9.8887  -12.9798 N   0  0  0  0  0  0  0  0  0  0  0  0
   39.6223   -8.5000  -15.0005 C   0  0  0  0  0  0  0  0  0  0  0  0
   40.0402   -8.1098  -16.2685 O   0  0  0  0  0  0  0  0  0  0  0  0
   38.7520   -7.8303  -14.4331 O   0  0  0  0  0  0  0  0  0  0  0  0
  2  3  1  0
  2  1  1  0
  3  4  2  0
  5  6  1  0
  6  7  2  0
  7  8  1  0
  9 10  1  0
  9  8  2  0
 11 10  1  1
 11 13  1  0
 12 11  1  0
 12  3  1  0
 13 20  1  0
 14 13  2  0
 15  9  1  0
 16 15  2  0
 16  6  1  0
 18 17  1  0
 19 18  1  6
 20 19  1  0
 21 22  1  0
 21 19  1  0
 23 21  2  0
M  END
$$$$
