GYS.pdb
     RDKit          3D

 23 23  0  0  1  0  0  0  0  0999 V2000
   29.3246  -23.3065  -17.5512 N   0  0  0  0  0  0  0  0  0  0  0  0
   28.4773  -22.1571  -17.3464 C   0  0  0  0  0  0  0  0  0  0  0  0
   27.7113  -22.2543  -16.0761 C   0  0  0  0  0  0  0  0  0  0  0  0
   27.3451  -23.3517  -15.5916 O   0  0  0  0  0  0  0  0  0  0  0  0
   23.6853  -20.8795   -8.4341 O   0  0  0  0  0  0  0  0  0  0  0  0
   24.4753  -20.6981   -9.5715 C   0  0  0  0  0  0  0  0  0  0  0  0
   23.9893  -19.9972  -10.6554 C   0  0  0  0  0  0  0  0  0  0  0  0
   24.7883  -19.8340  -11.7614 C   0  0  0  0  0  0  0  0  0  0  0  0
   26.0878  -20.3480  -11.8492 C   0  0  0  0  0  0  0  0  0  0  0  0
   26.8292  -20.0833  -13.1104 C   0  0  0  0  0  0  0  0  0  0  0  0
   26.5455  -21.1346  -14.1279 C   0  0  2  0  0  0  0  0  0  0  0  0
   27.3274  -21.1271  -15.3025 N   0  0  0  0  0  0  0  0  0  0  0  0
   25.1113  -20.9813  -14.5867 C   0  0  0  0  0  0  0  0  0  0  0  0
   24.7960  -20.0916  -15.4145 O   0  0  0  0  0  0  0  0  0  0  0  0
   26.5434  -21.0314  -10.7746 C   0  0  0  0  0  0  0  0  0  0  0  0
   25.7532  -21.2090   -9.6454 C   0  0  0  0  0  0  0  0  0  0  0  0
   20.6813  -22.9684  -14.9077 O   0  0  0  0  0  0  0  0  0  0  0  0
   21.9854  -23.0891  -14.4116 C   0  0  0  0  0  0  0  0  0  0  0  0
   22.7034  -21.7900  -14.4597 C   0  0  2  0  0  0  0  0  0  0  0  0
   24.0923  -21.8272  -14.1019 N   0  0  0  0  0  0  0  0  0  0  0  0
   21.9160  -20.7190  -13.7914 C   0  0  0  0  0  0  0  0  0  0  0  0
   20.9026  -20.0617  -14.4811 O   0  0  0  0  0  0  0  0  0  0  0  0
   22.1421  -20.3926  -12.6208 O   0  0  0  0  0  0  0  0  0  0  0  0
  2  3  1  0
  2  1  1  0
  3  4  2  0
  5  6  1  0
  6  7  2  0
  7  8  1  0
  9 10  1  0
  9  8  2  0
 11 10  1  1
 11 13  1  0
 12 11  1  0
 12  3  1  0
 13 20  1  0
 14 13  2  0
 15  9  1  0
 16 15  2  0
 16  6  1  0
 18 17  1  0
 19 18  1  1
 20 19  1  0
 21 22  1  0
 21 19  1  0
 23 21  2  0
M  END
$$$$
