VKS.pdb
     RDKit          3D

 23 22  0  0  1  0  0  0  0  0999 V2000
    3.5933  -17.0790   20.7387 C   0  0  0  0  0  0  0  0  0  0  0  0
    4.0934  -18.5067   20.7977 C   0  0  2  0  0  0  0  0  0  0  0  0
    2.9159  -19.3680   21.2159 C   0  0  0  0  0  0  0  0  0  0  0  0
    5.1306  -18.5772   21.8955 C   0  0  2  0  0  0  0  0  0  0  0  0
    4.5689  -18.0778   23.1277 N   0  0  0  0  0  0  0  0  0  0  0  0
    6.3353  -17.7854   21.5788 C   0  0  0  0  0  0  0  0  0  0  0  0
    7.1173  -18.1614   20.6388 O   0  0  0  0  0  0  0  0  0  0  0  0
    6.6744  -16.6107   22.2751 N   0  0  0  0  0  0  0  0  0  0  0  0
    7.8695  -15.8075   21.9392 C   0  0  1  0  0  0  0  0  0  0  0  0
    7.4884  -14.3464   22.0231 C   0  0  0  0  0  0  0  0  0  0  0  0
    6.8975  -13.7962   20.7873 C   0  0  0  0  0  0  0  0  0  0  0  0
    7.9245  -13.6484   19.6900 C   0  0  0  0  0  0  0  0  0  0  0  0
    7.2345  -13.0995   18.4378 C   0  0  0  0  0  0  0  0  0  0  0  0
    8.2043  -13.2218   17.3609 N   0  0  0  0  0  0  0  0  0  0  0  0
    8.8333  -16.0961   23.0248 C   0  0  0  0  0  0  0  0  0  0  0  0
    8.4637  -15.9517   24.2453 O   0  0  0  0  0  0  0  0  0  0  0  0
   11.2502  -18.9635   23.3839 O   0  0  0  0  0  0  0  0  0  0  0  0
   11.1590  -18.1041   24.4970 C   0  0  0  0  0  0  0  0  0  0  0  0
   11.0773  -16.7167   23.9656 C   0  0  2  0  0  0  0  0  0  0  0  0
   10.1674  -16.5342   22.8640 N   0  0  0  0  0  0  0  0  0  0  0  0
   12.4738  -16.2561   23.6488 C   0  0  0  0  0  0  0  0  0  0  0  0
   13.3904  -16.1909   24.6595 O   0  0  0  0  0  0  0  0  0  0  0  0
   12.7713  -15.9443   22.4833 O   0  0  0  0  0  0  0  0  0  0  0  0
  2  1  1  1
  3  2  1  0
  4  5  1  1
  4  2  1  0
  6  4  1  0
  6  7  2  0
  8  9  1  0
  8  6  1  0
  9 15  1  0
  9 10  1  1
 11 10  1  0
 12 11  1  0
 12 13  1  0
 14 13  1  0
 15 16  2  0
 17 18  1  0
 19 18  1  6
 19 21  1  0
 20 15  1  0
 20 19  1  0
 21 23  2  0
 21 22  1  0
M  END
$$$$
