VKS.pdb
     RDKit          3D

 23 22  0  0  1  0  0  0  0  0999 V2000
    8.2449  -12.0509   26.1054 C   0  0  0  0  0  0  0  0  0  0  0  0
    6.8024  -12.3689   25.7740 C   0  0  2  0  0  0  0  0  0  0  0  0
    5.9604  -11.2484   26.3561 C   0  0  0  0  0  0  0  0  0  0  0  0
    6.4419  -13.6440   26.5020 C   0  0  2  0  0  0  0  0  0  0  0  0
    6.8193  -13.5342   27.8908 N   0  0  0  0  0  0  0  0  0  0  0  0
    7.1160  -14.8253   25.9287 C   0  0  0  0  0  0  0  0  0  0  0  0
    8.1002  -15.3607   26.5460 O   0  0  0  0  0  0  0  0  0  0  0  0
    6.7211  -15.4053   24.7091 N   0  0  0  0  0  0  0  0  0  0  0  0
    7.3510  -16.6313   24.1740 C   0  0  1  0  0  0  0  0  0  0  0  0
    6.5206  -17.1102   23.0043 C   0  0  0  0  0  0  0  0  0  0  0  0
    7.0438  -18.3179   22.3361 C   0  0  0  0  0  0  0  0  0  0  0  0
    6.1530  -18.7634   21.2009 C   0  0  0  0  0  0  0  0  0  0  0  0
    6.7772  -19.9940   20.5365 C   0  0  0  0  0  0  0  0  0  0  0  0
    5.8847  -21.1037   20.8319 N   0  0  0  0  0  0  0  0  0  0  0  0
    8.6633  -16.1839   23.6557 C   0  0  0  0  0  0  0  0  0  0  0  0
    8.7278  -15.1079   22.9591 O   0  0  0  0  0  0  0  0  0  0  0  0
   12.0879  -17.2594   25.2578 O   0  0  0  0  0  0  0  0  0  0  0  0
   12.2390  -16.1885   24.3542 C   0  0  0  0  0  0  0  0  0  0  0  0
   11.1517  -16.3173   23.3467 C   0  0  2  0  0  0  0  0  0  0  0  0
    9.9045  -16.8308   23.8521 N   0  0  0  0  0  0  0  0  0  0  0  0
   11.6825  -17.1160   22.1878 C   0  0  0  0  0  0  0  0  0  0  0  0
   12.8508  -16.7238   21.5984 O   0  0  0  0  0  0  0  0  0  0  0  0
   11.0570  -18.1119   21.7866 O   0  0  0  0  0  0  0  0  0  0  0  0
  2  1  1  1
  3  2  1  0
  4  5  1  1
  4  2  1  0
  6  4  1  0
  6  7  2  0
  8  9  1  0
  8  6  1  0
  9 15  1  0
  9 10  1  6
 11 10  1  0
 12 11  1  0
 12 13  1  0
 14 13  1  0
 15 16  2  0
 17 18  1  0
 19 18  1  1
 19 21  1  0
 20 15  1  0
 20 19  1  0
 21 23  2  0
 21 22  1  0
M  END
$$$$
