VKS.pdb
     RDKit          3D

 23 22  0  0  1  0  0  0  0  0999 V2000
    8.2959  -13.0766   18.6092 C   0  0  0  0  0  0  0  0  0  0  0  0
    7.6189  -13.4783   19.9023 C   0  0  2  0  0  0  0  0  0  0  0  0
    8.1851  -12.5850   20.9907 C   0  0  0  0  0  0  0  0  0  0  0  0
    8.0350  -14.8994   20.2077 C   0  0  2  0  0  0  0  0  0  0  0  0
    7.5355  -15.7833   19.1818 N   0  0  0  0  0  0  0  0  0  0  0  0
    7.5235  -15.3642   21.5118 C   0  0  0  0  0  0  0  0  0  0  0  0
    6.2718  -15.5767   21.6675 O   0  0  0  0  0  0  0  0  0  0  0  0
    8.3633  -15.5904   22.6179 N   0  0  0  0  0  0  0  0  0  0  0  0
    7.8450  -16.0420   23.9270 C   0  0  1  0  0  0  0  0  0  0  0  0
    8.1220  -17.5234   24.0526 C   0  0  0  0  0  0  0  0  0  0  0  0
    7.7549  -18.1060   25.3582 C   0  0  0  0  0  0  0  0  0  0  0  0
    8.0015  -19.5954   25.3990 C   0  0  0  0  0  0  0  0  0  0  0  0
    7.4416  -20.1534   26.7108 C   0  0  0  0  0  0  0  0  0  0  0  0
    7.7752  -21.5690   26.7177 N   0  0  0  0  0  0  0  0  0  0  0  0
    8.6752  -15.3311   24.9251 C   0  0  0  0  0  0  0  0  0  0  0  0
    9.9519  -15.4536   24.8794 O   0  0  0  0  0  0  0  0  0  0  0  0
    7.1466  -12.7881   27.6937 O   0  0  0  0  0  0  0  0  0  0  0  0
    8.5199  -12.5627   27.4721 C   0  0  0  0  0  0  0  0  0  0  0  0
    9.0734  -13.8130   26.8854 C   0  0  2  0  0  0  0  0  0  0  0  0
    8.2031  -14.4955   25.9627 N   0  0  0  0  0  0  0  0  0  0  0  0
    9.5301  -14.6953   28.0148 C   0  0  0  0  0  0  0  0  0  0  0  0
    9.0692  -15.9799   28.0743 O   0  0  0  0  0  0  0  0  0  0  0  0
   10.3128  -14.2478   28.8698 O   0  0  0  0  0  0  0  0  0  0  0  0
  2  1  1  6
  3  2  1  0
  4  5  1  6
  4  2  1  0
  6  4  1  0
  6  7  2  0
  8  9  1  0
  8  6  1  0
  9 15  1  0
  9 10  1  6
 11 10  1  0
 12 11  1  0
 12 13  1  0
 14 13  1  0
 15 16  2  0
 17 18  1  0
 19 18  1  1
 19 21  1  0
 20 15  1  0
 20 19  1  0
 21 23  2  0
 21 22  1  0
M  END
$$$$
