VKS.pdb
     RDKit          3D

 23 22  0  0  1  0  0  0  0  0999 V2000
    7.1436  -12.8993   19.3448 C   0  0  0  0  0  0  0  0  0  0  0  0
    8.5059  -13.3594   18.8711 C   0  0  2  0  0  0  0  0  0  0  0  0
    8.6714  -12.8524   17.4502 C   0  0  0  0  0  0  0  0  0  0  0  0
    8.4811  -14.8703   18.8228 C   0  0  2  0  0  0  0  0  0  0  0  0
    7.6319  -15.3082   17.7409 N   0  0  0  0  0  0  0  0  0  0  0  0
    7.9780  -15.4621   20.0778 C   0  0  0  0  0  0  0  0  0  0  0  0
    6.7875  -15.2079   20.4710 O   0  0  0  0  0  0  0  0  0  0  0  0
    8.7603  -16.3113   20.8819 N   0  0  0  0  0  0  0  0  0  0  0  0
    8.2285  -16.9624   22.0982 C   0  0  1  0  0  0  0  0  0  0  0  0
    8.4825  -18.4487   21.9808 C   0  0  0  0  0  0  0  0  0  0  0  0
    8.1645  -19.0212   20.6579 C   0  0  0  0  0  0  0  0  0  0  0  0
    8.3657  -20.5176   20.6294 C   0  0  0  0  0  0  0  0  0  0  0  0
    8.0059  -21.0383   19.2348 C   0  0  0  0  0  0  0  0  0  0  0  0
    8.1969  -22.4792   19.2845 N   0  0  0  0  0  0  0  0  0  0  0  0
    9.0641  -16.4373   23.2013 C   0  0  0  0  0  0  0  0  0  0  0  0
   10.3302  -16.3206   23.0272 O   0  0  0  0  0  0  0  0  0  0  0  0
    7.4688  -14.8248   26.4803 O   0  0  0  0  0  0  0  0  0  0  0  0
    8.8289  -14.4698   26.3813 C   0  0  0  0  0  0  0  0  0  0  0  0
    9.4705  -15.4656   25.4809 C   0  0  2  0  0  0  0  0  0  0  0  0
    8.6072  -16.0292   24.4751 N   0  0  0  0  0  0  0  0  0  0  0  0
   10.1269  -16.5135   26.3375 C   0  0  0  0  0  0  0  0  0  0  0  0
   11.0304  -16.1192   27.2831 O   0  0  0  0  0  0  0  0  0  0  0  0
    9.8408  -17.7117   26.1746 O   0  0  0  0  0  0  0  0  0  0  0  0
  2  1  1  6
  3  2  1  0
  4  5  1  6
  4  2  1  0
  6  4  1  0
  6  7  2  0
  8  9  1  0
  8  6  1  0
  9 15  1  0
  9 10  1  6
 11 10  1  0
 12 11  1  0
 12 13  1  0
 14 13  1  0
 15 16  2  0
 17 18  1  0
 19 18  1  1
 19 21  1  0
 20 15  1  0
 20 19  1  0
 21 23  2  0
 21 22  1  0
M  END
$$$$
