VKS.pdb
     RDKit          3D

 23 22  0  0  1  0  0  0  0  0999 V2000
    7.5615  -12.1984   18.8045 C   0  0  0  0  0  0  0  0  0  0  0  0
    8.2327  -13.3131   19.5783 C   0  0  2  0  0  0  0  0  0  0  0  0
    9.5594  -12.7672   20.0737 C   0  0  0  0  0  0  0  0  0  0  0  0
    8.5278  -14.4279   18.6005 C   0  0  2  0  0  0  0  0  0  0  0  0
    7.3016  -14.8647   17.9769 N   0  0  0  0  0  0  0  0  0  0  0  0
    9.1583  -15.5921   19.2529 C   0  0  0  0  0  0  0  0  0  0  0  0
    8.4289  -16.4963   19.7884 O   0  0  0  0  0  0  0  0  0  0  0  0
   10.5538  -15.7609   19.3169 N   0  0  0  0  0  0  0  0  0  0  0  0
   11.1800  -16.9713   19.8904 C   0  0  1  0  0  0  0  0  0  0  0  0
   12.4809  -17.2149   19.1587 C   0  0  0  0  0  0  0  0  0  0  0  0
   13.2362  -18.3928   19.6290 C   0  0  0  0  0  0  0  0  0  0  0  0
   14.5226  -18.5799   18.8603 C   0  0  0  0  0  0  0  0  0  0  0  0
   15.1911  -19.8775   19.3238 C   0  0  0  0  0  0  0  0  0  0  0  0
   16.4443  -19.9653   18.5910 N   0  0  0  0  0  0  0  0  0  0  0  0
   11.4988  -16.6028   21.2881 C   0  0  0  0  0  0  0  0  0  0  0  0
   12.2233  -15.5677   21.5134 O   0  0  0  0  0  0  0  0  0  0  0  0
    9.0735  -16.7367   24.0353 O   0  0  0  0  0  0  0  0  0  0  0  0
   10.2651  -16.9375   24.7604 C   0  0  0  0  0  0  0  0  0  0  0  0
   11.3849  -16.8424   23.7852 C   0  0  2  0  0  0  0  0  0  0  0  0
   11.0756  -17.2866   22.4504 N   0  0  0  0  0  0  0  0  0  0  0  0
   12.5754  -17.5499   24.3723 C   0  0  0  0  0  0  0  0  0  0  0  0
   13.1653  -18.5517   23.6550 O   0  0  0  0  0  0  0  0  0  0  0  0
   13.0017  -17.2166   25.4909 O   0  0  0  0  0  0  0  0  0  0  0  0
  2  1  1  6
  3  2  1  0
  4  5  1  1
  4  2  1  0
  6  4  1  0
  6  7  2  0
  8  9  1  0
  8  6  1  0
  9 15  1  0
  9 10  1  6
 11 10  1  0
 12 11  1  0
 12 13  1  0
 14 13  1  0
 15 16  2  0
 17 18  1  0
 19 18  1  1
 19 21  1  0
 20 15  1  0
 20 19  1  0
 21 23  2  0
 21 22  1  0
M  END
$$$$
