VKS.pdb
     RDKit          3D

 23 22  0  0  1  0  0  0  0  0999 V2000
   13.4834  -13.3729   18.1202 C   0  0  0  0  0  0  0  0  0  0  0  0
   14.9822  -13.3394   17.9098 C   0  0  2  0  0  0  0  0  0  0  0  0
   15.2128  -13.0946   16.4298 C   0  0  0  0  0  0  0  0  0  0  0  0
   15.5156  -14.7152   18.2393 C   0  0  2  0  0  0  0  0  0  0  0  0
   15.0926  -15.6554   17.2291 N   0  0  0  0  0  0  0  0  0  0  0  0
   15.0440  -15.1986   19.5516 C   0  0  0  0  0  0  0  0  0  0  0  0
   15.3815  -14.5795   20.6189 O   0  0  0  0  0  0  0  0  0  0  0  0
   14.2227  -16.3326   19.6907 N   0  0  0  0  0  0  0  0  0  0  0  0
   13.6680  -16.7542   20.9948 C   0  0  1  0  0  0  0  0  0  0  0  0
   12.6815  -17.8724   20.7428 C   0  0  0  0  0  0  0  0  0  0  0  0
   12.1263  -18.4857   21.9653 C   0  0  0  0  0  0  0  0  0  0  0  0
   11.1773  -19.6164   21.6463 C   0  0  0  0  0  0  0  0  0  0  0  0
   10.0135  -19.0658   20.8169 C   0  0  0  0  0  0  0  0  0  0  0  0
    9.1076  -20.1842   20.6076 N   0  0  0  0  0  0  0  0  0  0  0  0
   14.8232  -17.3152   21.7307 C   0  0  0  0  0  0  0  0  0  0  0  0
   15.3032  -18.4501   21.3718 O   0  0  0  0  0  0  0  0  0  0  0  0
   17.7534  -15.2553   23.5379 O   0  0  0  0  0  0  0  0  0  0  0  0
   17.9311  -16.6090   23.1890 C   0  0  0  0  0  0  0  0  0  0  0  0
   16.6412  -17.2983   23.4628 C   0  0  2  0  0  0  0  0  0  0  0  0
   15.4876  -16.7172   22.8255 N   0  0  0  0  0  0  0  0  0  0  0  0
   16.4836  -17.4168   24.9541 C   0  0  0  0  0  0  0  0  0  0  0  0
   15.3234  -16.9829   25.5298 O   0  0  0  0  0  0  0  0  0  0  0  0
   17.4023  -17.9031   25.6350 O   0  0  0  0  0  0  0  0  0  0  0  0
  2  1  1  6
  3  2  1  0
  4  5  1  6
  4  2  1  0
  6  4  1  0
  6  7  2  0
  8  9  1  0
  8  6  1  0
  9 15  1  0
  9 10  1  6
 11 10  1  0
 12 11  1  0
 12 13  1  0
 14 13  1  0
 15 16  2  0
 17 18  1  0
 19 18  1  1
 19 21  1  0
 20 15  1  0
 20 19  1  0
 21 23  2  0
 21 22  1  0
M  END
$$$$
