VKS.pdb
     RDKit          3D

 23 22  0  0  1  0  0  0  0  0999 V2000
    7.1248  -13.8886   19.3062 C   0  0  0  0  0  0  0  0  0  0  0  0
    8.0045  -12.9611   20.1173 C   0  0  2  0  0  0  0  0  0  0  0  0
    8.6061  -11.9636   19.1444 C   0  0  0  0  0  0  0  0  0  0  0  0
    9.1333  -13.7910   20.6855 C   0  0  2  0  0  0  0  0  0  0  0  0
    9.8129  -14.4838   19.6171 N   0  0  0  0  0  0  0  0  0  0  0  0
    8.6564  -14.7919   21.6598 C   0  0  0  0  0  0  0  0  0  0  0  0
    7.8644  -14.4400   22.6006 O   0  0  0  0  0  0  0  0  0  0  0  0
    9.0382  -16.1451   21.6041 N   0  0  0  0  0  0  0  0  0  0  0  0
    8.5258  -17.1528   22.5570 C   0  0  1  0  0  0  0  0  0  0  0  0
    8.4913  -18.4889   21.8494 C   0  0  0  0  0  0  0  0  0  0  0  0
    7.3997  -18.6328   20.8663 C   0  0  0  0  0  0  0  0  0  0  0  0
    7.4914  -19.9370   20.1105 C   0  0  0  0  0  0  0  0  0  0  0  0
    6.3848  -19.9741   19.0524 C   0  0  0  0  0  0  0  0  0  0  0  0
    6.5662  -21.2219   18.3278 N   0  0  0  0  0  0  0  0  0  0  0  0
    9.5528  -17.2204   23.6207 C   0  0  0  0  0  0  0  0  0  0  0  0
   10.7937  -17.2321   23.2935 O   0  0  0  0  0  0  0  0  0  0  0  0
    8.7361  -17.2096   27.6417 O   0  0  0  0  0  0  0  0  0  0  0  0
   10.0690  -16.8717   27.3328 C   0  0  0  0  0  0  0  0  0  0  0  0
   10.3582  -17.4411   25.9889 C   0  0  2  0  0  0  0  0  0  0  0  0
    9.3128  -17.2713   25.0127 N   0  0  0  0  0  0  0  0  0  0  0  0
   10.7579  -18.8800   26.1687 C   0  0  0  0  0  0  0  0  0  0  0  0
   11.7885  -19.1760   27.0150 O   0  0  0  0  0  0  0  0  0  0  0  0
   10.1509  -19.7710   25.5507 O   0  0  0  0  0  0  0  0  0  0  0  0
  2  1  1  6
  3  2  1  0
  4  5  1  6
  4  2  1  0
  6  4  1  0
  6  7  2  0
  8  9  1  0
  8  6  1  0
  9 15  1  0
  9 10  1  6
 11 10  1  0
 12 11  1  0
 12 13  1  0
 14 13  1  0
 15 16  2  0
 17 18  1  0
 19 18  1  1
 19 21  1  0
 20 15  1  0
 20 19  1  0
 21 23  2  0
 21 22  1  0
M  END
$$$$
