VKS.pdb
     RDKit          3D

 23 22  0  0  1  0  0  0  0  0999 V2000
    7.8414  -13.2244   27.3995 C   0  0  0  0  0  0  0  0  0  0  0  0
    7.2043  -12.2599   26.4219 C   0  0  2  0  0  0  0  0  0  0  0  0
    6.5478  -11.1679   27.2464 C   0  0  0  0  0  0  0  0  0  0  0  0
    6.1116  -13.0099   25.6943 C   0  0  2  0  0  0  0  0  0  0  0  0
    5.3296  -13.7688   26.6408 N   0  0  0  0  0  0  0  0  0  0  0  0
    6.6495  -13.9407   24.6830 C   0  0  0  0  0  0  0  0  0  0  0  0
    6.7147  -15.1924   24.9383 O   0  0  0  0  0  0  0  0  0  0  0  0
    7.1047  -13.5101   23.4232 N   0  0  0  0  0  0  0  0  0  0  0  0
    7.6008  -14.4508   22.3960 C   0  0  1  0  0  0  0  0  0  0  0  0
    7.7976  -13.6775   21.1113 C   0  0  0  0  0  0  0  0  0  0  0  0
    8.2345  -14.4976   19.9643 C   0  0  0  0  0  0  0  0  0  0  0  0
    8.3202  -13.6867   18.6931 C   0  0  0  0  0  0  0  0  0  0  0  0
    8.6517  -14.6254   17.5294 C   0  0  0  0  0  0  0  0  0  0  0  0
    8.7591  -13.7792   16.3514 N   0  0  0  0  0  0  0  0  0  0  0  0
    8.9309  -14.8759   22.8870 C   0  0  0  0  0  0  0  0  0  0  0  0
    9.7378  -13.9936   23.3534 O   0  0  0  0  0  0  0  0  0  0  0  0
    9.8674  -17.9357   24.8923 O   0  0  0  0  0  0  0  0  0  0  0  0
   10.9457  -17.8231   23.9920 C   0  0  0  0  0  0  0  0  0  0  0  0
   10.7829  -16.5246   23.2839 C   0  0  2  0  0  0  0  0  0  0  0  0
    9.4324  -16.1972   22.9052 N   0  0  0  0  0  0  0  0  0  0  0  0
   11.7341  -16.5068   22.1187 C   0  0  0  0  0  0  0  0  0  0  0  0
   13.0641  -16.7136   22.3517 O   0  0  0  0  0  0  0  0  0  0  0  0
   11.3009  -16.3062   20.9715 O   0  0  0  0  0  0  0  0  0  0  0  0
  2  1  1  1
  3  2  1  0
  4  5  1  1
  4  2  1  0
  6  4  1  0
  6  7  2  0
  8  9  1  0
  8  6  1  0
  9 15  1  0
  9 10  1  6
 11 10  1  0
 12 11  1  0
 12 13  1  0
 14 13  1  0
 15 16  2  0
 17 18  1  0
 19 18  1  6
 19 21  1  0
 20 15  1  0
 20 19  1  0
 21 23  2  0
 21 22  1  0
M  END
$$$$
