VKS.pdb
     RDKit          3D

 23 22  0  0  1  0  0  0  0  0999 V2000
    7.3486  -21.1765   23.1555 C   0  0  0  0  0  0  0  0  0  0  0  0
    6.1272  -20.2822   23.1728 C   0  0  2  0  0  0  0  0  0  0  0  0
    4.9183  -21.1917   23.2938 C   0  0  0  0  0  0  0  0  0  0  0  0
    6.0536  -19.5917   21.8297 C   0  0  2  0  0  0  0  0  0  0  0  0
    5.7518  -20.5590   20.8018 N   0  0  0  0  0  0  0  0  0  0  0  0
    7.3183  -18.9175   21.4771 C   0  0  0  0  0  0  0  0  0  0  0  0
    8.2675  -19.5832   20.9366 O   0  0  0  0  0  0  0  0  0  0  0  0
    7.5372  -17.5474   21.7112 N   0  0  0  0  0  0  0  0  0  0  0  0
    8.7765  -16.8597   21.2902 C   0  0  1  0  0  0  0  0  0  0  0  0
    8.4546  -15.3947   21.0967 C   0  0  0  0  0  0  0  0  0  0  0  0
    7.8743  -15.0644   19.7802 C   0  0  0  0  0  0  0  0  0  0  0  0
    7.5549  -13.5933   19.6592 C   0  0  0  0  0  0  0  0  0  0  0  0
    6.8890  -13.3420   18.3033 C   0  0  0  0  0  0  0  0  0  0  0  0
    6.5530  -11.9271   18.2791 N   0  0  0  0  0  0  0  0  0  0  0  0
    9.6871  -16.9826   22.4506 C   0  0  0  0  0  0  0  0  0  0  0  0
    9.2404  -16.7299   23.6269 O   0  0  0  0  0  0  0  0  0  0  0  0
   11.8625  -19.6820   23.0718 O   0  0  0  0  0  0  0  0  0  0  0  0
   12.5576  -18.7163   23.8271 C   0  0  0  0  0  0  0  0  0  0  0  0
   11.8909  -17.4100   23.5758 C   0  0  2  0  0  0  0  0  0  0  0  0
   11.0468  -17.3662   22.4096 N   0  0  0  0  0  0  0  0  0  0  0  0
   12.9488  -16.3407   23.5684 C   0  0  0  0  0  0  0  0  0  0  0  0
   13.7918  -16.2415   24.6388 O   0  0  0  0  0  0  0  0  0  0  0  0
   13.0404  -15.5699   22.5982 O   0  0  0  0  0  0  0  0  0  0  0  0
  2  1  1  6
  3  2  1  0
  4  5  1  6
  4  2  1  0
  6  4  1  0
  6  7  2  0
  8  9  1  0
  8  6  1  0
  9 15  1  0
  9 10  1  1
 11 10  1  0
 12 11  1  0
 12 13  1  0
 14 13  1  0
 15 16  2  0
 17 18  1  0
 19 18  1  6
 19 21  1  0
 20 15  1  0
 20 19  1  0
 21 23  2  0
 21 22  1  0
M  END
$$$$
