VKS.pdb
     RDKit          3D

 23 22  0  0  1  0  0  0  0  0999 V2000
    9.0305  -13.8180   18.9797 C   0  0  0  0  0  0  0  0  0  0  0  0
    7.6612  -14.0224   19.5921 C   0  0  2  0  0  0  0  0  0  0  0  0
    6.9476  -12.6844   19.5295 C   0  0  0  0  0  0  0  0  0  0  0  0
    7.8651  -14.3698   21.0493 C   0  0  2  0  0  0  0  0  0  0  0  0
    8.6266  -13.3278   21.6955 N   0  0  0  0  0  0  0  0  0  0  0  0
    8.5827  -15.6476   21.2248 C   0  0  0  0  0  0  0  0  0  0  0  0
    8.0053  -16.7498   20.9281 O   0  0  0  0  0  0  0  0  0  0  0  0
    9.9004  -15.7155   21.7135 N   0  0  0  0  0  0  0  0  0  0  0  0
   10.6037  -16.9995   21.9200 C   0  0  1  0  0  0  0  0  0  0  0  0
   11.8797  -16.9684   21.1088 C   0  0  0  0  0  0  0  0  0  0  0  0
   12.6488  -18.2282   21.1293 C   0  0  0  0  0  0  0  0  0  0  0  0
   13.8526  -18.1674   20.2194 C   0  0  0  0  0  0  0  0  0  0  0  0
   14.6805  -19.4417   20.4092 C   0  0  0  0  0  0  0  0  0  0  0  0
   15.8310  -19.3055   19.5300 N   0  0  0  0  0  0  0  0  0  0  0  0
   10.9689  -17.0013   23.3544 C   0  0  0  0  0  0  0  0  0  0  0  0
   11.6865  -17.9595   23.8169 O   0  0  0  0  0  0  0  0  0  0  0  0
    9.2855  -14.3658   25.8872 O   0  0  0  0  0  0  0  0  0  0  0  0
    9.5154  -15.6176   26.4923 C   0  0  0  0  0  0  0  0  0  0  0  0
   10.6145  -16.2699   25.7304 C   0  0  2  0  0  0  0  0  0  0  0  0
   10.6060  -16.0260   24.3109 N   0  0  0  0  0  0  0  0  0  0  0  0
   10.6099  -17.7355   26.0686 C   0  0  0  0  0  0  0  0  0  0  0  0
   10.7737  -18.1107   27.3719 O   0  0  0  0  0  0  0  0  0  0  0  0
   10.4586  -18.5766   25.1665 O   0  0  0  0  0  0  0  0  0  0  0  0
  2  1  1  6
  3  2  1  0
  4  5  1  6
  4  2  1  0
  6  4  1  0
  6  7  2  0
  8  9  1  0
  8  6  1  0
  9 15  1  0
  9 10  1  6
 11 10  1  0
 12 11  1  0
 12 13  1  0
 14 13  1  0
 15 16  2  0
 17 18  1  0
 19 18  1  1
 19 21  1  0
 20 15  1  0
 20 19  1  0
 21 23  2  0
 21 22  1  0
M  END
$$$$
