VKS.pdb
     RDKit          3D

 23 22  0  0  1  0  0  0  0  0999 V2000
    7.5719  -12.9480   20.6088 C   0  0  0  0  0  0  0  0  0  0  0  0
    8.7243  -13.3403   19.7089 C   0  0  2  0  0  0  0  0  0  0  0  0
    8.6920  -12.3998   18.5182 C   0  0  0  0  0  0  0  0  0  0  0  0
    8.4466  -14.7374   19.2020 C   0  0  2  0  0  0  0  0  0  0  0  0
    7.2353  -14.7379   18.4171 N   0  0  0  0  0  0  0  0  0  0  0  0
    8.2894  -15.7103   20.3007 C   0  0  0  0  0  0  0  0  0  0  0  0
    7.1266  -15.9571   20.7732 O   0  0  0  0  0  0  0  0  0  0  0  0
    9.3798  -16.3956   20.8675 N   0  0  0  0  0  0  0  0  0  0  0  0
    9.2162  -17.3812   21.9574 C   0  0  1  0  0  0  0  0  0  0  0  0
    9.9781  -18.6304   21.5751 C   0  0  0  0  0  0  0  0  0  0  0  0
    9.8674  -19.7362   22.5467 C   0  0  0  0  0  0  0  0  0  0  0  0
   10.5275  -20.9971   22.0416 C   0  0  0  0  0  0  0  0  0  0  0  0
   10.2894  -22.1199   23.0556 C   0  0  0  0  0  0  0  0  0  0  0  0
   11.4299  -22.0923   23.9577 N   0  0  0  0  0  0  0  0  0  0  0  0
    9.8913  -16.7678   23.1231 C   0  0  0  0  0  0  0  0  0  0  0  0
   11.0767  -16.2963   22.9839 O   0  0  0  0  0  0  0  0  0  0  0  0
    7.9767  -15.3833   26.3188 O   0  0  0  0  0  0  0  0  0  0  0  0
    9.3156  -14.9515   26.2368 C   0  0  0  0  0  0  0  0  0  0  0  0
   10.0672  -16.0109   25.5110 C   0  0  2  0  0  0  0  0  0  0  0  0
    9.3556  -16.6329   24.4241 N   0  0  0  0  0  0  0  0  0  0  0  0
   10.5664  -17.0049   26.5236 C   0  0  0  0  0  0  0  0  0  0  0  0
   11.2873  -16.5509   27.5914 O   0  0  0  0  0  0  0  0  0  0  0  0
   10.3184  -18.2135   26.3762 O   0  0  0  0  0  0  0  0  0  0  0  0
  2  1  1  1
  3  2  1  0
  4  5  1  1
  4  2  1  0
  6  4  1  0
  6  7  2  0
  8  9  1  0
  8  6  1  0
  9 15  1  0
  9 10  1  6
 11 10  1  0
 12 11  1  0
 12 13  1  0
 14 13  1  0
 15 16  2  0
 17 18  1  0
 19 18  1  1
 19 21  1  0
 20 15  1  0
 20 19  1  0
 21 23  2  0
 21 22  1  0
M  END
$$$$
