VKS.pdb
     RDKit          3D

 23 22  0  0  1  0  0  0  0  0999 V2000
    7.3784  -12.7045   21.2303 C   0  0  0  0  0  0  0  0  0  0  0  0
    8.6200  -13.2030   20.5218 C   0  0  2  0  0  0  0  0  0  0  0  0
    8.6074  -12.5935   19.1320 C   0  0  0  0  0  0  0  0  0  0  0  0
    8.4834  -14.7011   20.3707 C   0  0  2  0  0  0  0  0  0  0  0  0
    7.3697  -15.0027   19.5035 N   0  0  0  0  0  0  0  0  0  0  0  0
    8.2617  -15.3761   21.6645 C   0  0  0  0  0  0  0  0  0  0  0  0
    7.0716  -15.6468   22.0475 O   0  0  0  0  0  0  0  0  0  0  0  0
    9.3183  -15.7451   22.5172 N   0  0  0  0  0  0  0  0  0  0  0  0
    9.0943  -16.4533   23.7957 C   0  0  1  0  0  0  0  0  0  0  0  0
    9.8827  -17.7433   23.7588 C   0  0  0  0  0  0  0  0  0  0  0  0
    9.2812  -18.8044   22.9274 C   0  0  0  0  0  0  0  0  0  0  0  0
   10.1668  -20.0250   22.8456 C   0  0  0  0  0  0  0  0  0  0  0  0
    9.4264  -21.1222   22.0752 C   0  0  0  0  0  0  0  0  0  0  0  0
   10.3825  -22.2046   21.9035 N   0  0  0  0  0  0  0  0  0  0  0  0
    9.6965  -15.5738   24.8227 C   0  0  0  0  0  0  0  0  0  0  0  0
   10.8704  -15.0939   24.6263 O   0  0  0  0  0  0  0  0  0  0  0  0
    7.6165  -13.5906   27.6071 O   0  0  0  0  0  0  0  0  0  0  0  0
    8.9373  -13.1359   27.4205 C   0  0  0  0  0  0  0  0  0  0  0  0
    9.7423  -14.3121   26.9934 C   0  0  2  0  0  0  0  0  0  0  0  0
    9.0998  -15.1830   26.0430 N   0  0  0  0  0  0  0  0  0  0  0  0
   10.2002  -15.0369   28.2294 C   0  0  0  0  0  0  0  0  0  0  0  0
   10.8344  -14.3291   29.2105 O   0  0  0  0  0  0  0  0  0  0  0  0
    9.9971  -16.2579   28.3397 O   0  0  0  0  0  0  0  0  0  0  0  0
  2  1  1  1
  3  2  1  0
  4  5  1  6
  4  2  1  0
  6  4  1  0
  6  7  2  0
  8  9  1  0
  8  6  1  0
  9 15  1  0
  9 10  1  6
 11 10  1  0
 12 11  1  0
 12 13  1  0
 14 13  1  0
 15 16  2  0
 17 18  1  0
 19 18  1  1
 19 21  1  0
 20 15  1  0
 20 19  1  0
 21 23  2  0
 21 22  1  0
M  END
$$$$
