VKS.pdb
     RDKit          3D

 23 22  0  0  1  0  0  0  0  0999 V2000
    6.6744  -13.2622   20.8632 C   0  0  0  0  0  0  0  0  0  0  0  0
    7.9391  -13.2685   20.0311 C   0  0  2  0  0  0  0  0  0  0  0  0
    7.5133  -13.1100   18.5830 C   0  0  0  0  0  0  0  0  0  0  0  0
    8.5714  -14.6338   20.1802 C   0  0  2  0  0  0  0  0  0  0  0  0
    7.7018  -15.6367   19.6133 N   0  0  0  0  0  0  0  0  0  0  0  0
    8.8248  -14.9819   21.5919 C   0  0  0  0  0  0  0  0  0  0  0  0
    9.5683  -14.2295   22.3113 O   0  0  0  0  0  0  0  0  0  0  0  0
    8.2769  -16.1264   22.2000 N   0  0  0  0  0  0  0  0  0  0  0  0
    8.5427  -16.4778   23.6114 C   0  0  1  0  0  0  0  0  0  0  0  0
    7.6101  -17.6048   23.9952 C   0  0  0  0  0  0  0  0  0  0  0  0
    7.8764  -18.1945   25.3220 C   0  0  0  0  0  0  0  0  0  0  0  0
    6.9228  -19.3220   25.6382 C   0  0  0  0  0  0  0  0  0  0  0  0
    7.2986  -19.9209   26.9967 C   0  0  0  0  0  0  0  0  0  0  0  0
    6.2917  -20.9313   27.2805 N   0  0  0  0  0  0  0  0  0  0  0  0
    9.9266  -17.0031   23.6135 C   0  0  0  0  0  0  0  0  0  0  0  0
   10.3984  -17.5294   22.5423 O   0  0  0  0  0  0  0  0  0  0  0  0
   14.3274  -16.5024   23.7909 O   0  0  0  0  0  0  0  0  0  0  0  0
   12.9803  -16.0978   23.8784 C   0  0  0  0  0  0  0  0  0  0  0  0
   12.2437  -17.1950   24.5622 C   0  0  2  0  0  0  0  0  0  0  0  0
   10.8255  -16.9867   24.7040 N   0  0  0  0  0  0  0  0  0  0  0  0
   12.9257  -17.4666   25.8751 C   0  0  0  0  0  0  0  0  0  0  0  0
   14.2391  -17.8422   25.8691 O   0  0  0  0  0  0  0  0  0  0  0  0
   12.2911  -17.3467   26.9366 O   0  0  0  0  0  0  0  0  0  0  0  0
  2  1  1  1
  3  2  1  0
  4  5  1  1
  4  2  1  0
  6  4  1  0
  6  7  2  0
  8  9  1  0
  8  6  1  0
  9 15  1  0
  9 10  1  6
 11 10  1  0
 12 11  1  0
 12 13  1  0
 14 13  1  0
 15 16  2  0
 17 18  1  0
 19 18  1  1
 19 21  1  0
 20 15  1  0
 20 19  1  0
 21 23  2  0
 21 22  1  0
M  END
$$$$
