MMN.pdb
     RDKit          3D

 25 24  0  0  1  0  0  0  0  0999 V2000
   11.1720  -20.1112   21.1706 C   0  0  0  0  0  0  0  0  0  0  0  0
    9.4057  -20.4631   21.0900 S   0  0  0  0  0  0  0  0  0  0  0  0
    8.4655  -18.9856   20.5421 C   0  0  0  0  0  0  0  0  0  0  0  0
    8.8808  -17.8025   21.3581 C   0  0  0  0  0  0  0  0  0  0  0  0
    8.1157  -16.5503   21.1055 C   0  0  2  0  0  0  0  0  0  0  0  0
    8.5929  -16.0406   19.8083 N   0  0  0  0  0  0  0  0  0  0  0  0
    8.4325  -15.5021   22.1059 C   0  0  0  0  0  0  0  0  0  0  0  0
    9.5779  -14.9790   22.0631 O   0  0  0  0  0  0  0  0  0  0  0  0
    6.1507  -10.9740   28.0893 C   0  0  0  0  0  0  0  0  0  0  0  0
    5.6149  -11.5817   26.4675 S   0  0  0  0  0  0  0  0  0  0  0  0
    7.0143  -12.3745   25.6753 C   0  0  0  0  0  0  0  0  0  0  0  0
    6.6466  -13.3827   24.6311 C   0  0  0  0  0  0  0  0  0  0  0  0
    7.8739  -14.0434   24.0198 C   0  0  2  0  0  0  0  0  0  0  0  0
    7.5054  -15.0752   23.0931 N   0  0  0  0  0  0  0  0  0  0  0  0
    8.7711  -14.5675   25.0968 C   0  0  0  0  0  0  0  0  0  0  0  0
    9.2088  -13.8953   26.0377 O   0  0  0  0  0  0  0  0  0  0  0  0
   10.5134  -19.9384   27.2280 N   0  0  0  0  0  0  0  0  0  0  0  0
   10.1100  -18.6057   27.4871 C   0  0  0  0  0  0  0  0  0  0  0  0
   10.4665  -18.1192   28.5919 O   0  0  0  0  0  0  0  0  0  0  0  0
    9.3234  -17.9086   26.4688 C   0  0  0  0  0  0  0  0  0  0  0  0
    9.9622  -16.6033   25.9925 C   0  0  2  0  0  0  0  0  0  0  0  0
    9.1317  -15.9512   25.0088 N   0  0  0  0  0  0  0  0  0  0  0  0
   11.2849  -17.0322   25.4143 C   0  0  0  0  0  0  0  0  0  0  0  0
   12.1679  -17.5152   26.1691 O   0  0  0  0  0  0  0  0  0  0  0  0
   11.5885  -16.9251   24.0851 O   0  0  0  0  0  0  0  0  0  0  0  0
  1  2  1  0
  3  2  1  0
  4  3  1  0
  5  6  1  6
  5  4  1  0
  7  5  1  0
  8  7  2  0
 10  9  1  0
 10 11  1  0
 11 12  1  0
 13 12  1  1
 13 15  1  0
 13 14  1  0
 14  7  1  0
 15 16  2  0
 18 17  1  0
 19 18  2  0
 20 18  1  0
 21 20  1  6
 22 21  1  0
 22 15  1  0
 23 21  1  0
 24 23  2  0
 25 23  1  0
M  END
$$$$
