MMN.pdb
     RDKit          3D

 25 24  0  0  1  0  0  0  0  0999 V2000
    8.8113  -11.6038   19.4051 C   0  0  0  0  0  0  0  0  0  0  0  0
    7.4930  -12.6454   18.7515 S   0  0  0  0  0  0  0  0  0  0  0  0
    7.2282  -14.1160   19.8167 C   0  0  0  0  0  0  0  0  0  0  0  0
    8.5293  -14.8280   20.0120 C   0  0  0  0  0  0  0  0  0  0  0  0
    8.4807  -16.0160   20.9083 C   0  0  2  0  0  0  0  0  0  0  0  0
    7.1141  -16.5538   20.7915 N   0  0  0  0  0  0  0  0  0  0  0  0
    8.6581  -15.6377   22.3314 C   0  0  0  0  0  0  0  0  0  0  0  0
    9.8197  -15.3385   22.7172 O   0  0  0  0  0  0  0  0  0  0  0  0
    6.2871  -11.1632   25.5479 C   0  0  0  0  0  0  0  0  0  0  0  0
    6.9800  -12.0738   26.9540 S   0  0  0  0  0  0  0  0  0  0  0  0
    7.0288  -13.8142   26.5260 C   0  0  0  0  0  0  0  0  0  0  0  0
    6.9106  -14.0959   25.0602 C   0  0  0  0  0  0  0  0  0  0  0  0
    7.8277  -15.2286   24.6219 C   0  0  2  0  0  0  0  0  0  0  0  0
    7.5828  -15.6019   23.2580 N   0  0  0  0  0  0  0  0  0  0  0  0
    7.6852  -16.3978   25.5451 C   0  0  0  0  0  0  0  0  0  0  0  0
    6.6291  -17.0062   25.7529 O   0  0  0  0  0  0  0  0  0  0  0  0
    9.2129  -21.3774   25.0332 N   0  0  0  0  0  0  0  0  0  0  0  0
    9.9891  -20.3705   25.6574 C   0  0  0  0  0  0  0  0  0  0  0  0
   10.9007  -20.7666   26.4297 O   0  0  0  0  0  0  0  0  0  0  0  0
    9.6774  -18.9715   25.3622 C   0  0  0  0  0  0  0  0  0  0  0  0
    9.1234  -18.2036   26.5631 C   0  0  2  0  0  0  0  0  0  0  0  0
    8.8735  -16.8237   26.2226 N   0  0  0  0  0  0  0  0  0  0  0  0
   10.1970  -18.3373   27.6106 C   0  0  0  0  0  0  0  0  0  0  0  0
    9.9851  -19.0368   28.6345 O   0  0  0  0  0  0  0  0  0  0  0  0
   11.4175  -17.7286   27.5105 O   0  0  0  0  0  0  0  0  0  0  0  0
  1  2  1  0
  3  2  1  0
  4  3  1  0
  5  6  1  1
  5  4  1  0
  7  5  1  0
  8  7  2  0
 10  9  1  0
 10 11  1  0
 11 12  1  0
 13 12  1  1
 13 15  1  0
 13 14  1  0
 14  7  1  0
 15 16  2  0
 18 17  1  0
 19 18  2  0
 20 18  1  0
 21 20  1  6
 22 21  1  0
 22 15  1  0
 23 21  1  0
 24 23  2  0
 25 23  1  0
M  END
$$$$
