MMN.pdb
     RDKit          3D

 25 24  0  0  1  0  0  0  0  0999 V2000
    9.8606  -14.0412   28.9747 C   0  0  0  0  0  0  0  0  0  0  0  0
   11.4820  -14.5363   28.3616 S   0  0  0  0  0  0  0  0  0  0  0  0
   11.5494  -16.3466   28.0691 C   0  0  0  0  0  0  0  0  0  0  0  0
   10.1817  -16.8446   27.7234 C   0  0  0  0  0  0  0  0  0  0  0  0
    9.9613  -17.1640   26.2859 C   0  0  2  0  0  0  0  0  0  0  0  0
   10.9735  -16.3946   25.5418 N   0  0  0  0  0  0  0  0  0  0  0  0
    8.6413  -16.6811   25.8123 C   0  0  0  0  0  0  0  0  0  0  0  0
    7.6116  -17.2149   26.3046 O   0  0  0  0  0  0  0  0  0  0  0  0
    6.6055  -11.5990   28.3041 C   0  0  0  0  0  0  0  0  0  0  0  0
    6.3177  -11.8744   26.5355 S   0  0  0  0  0  0  0  0  0  0  0  0
    7.0819  -13.4305   26.0786 C   0  0  0  0  0  0  0  0  0  0  0  0
    6.9315  -13.7948   24.6341 C   0  0  0  0  0  0  0  0  0  0  0  0
    7.1927  -15.2741   24.3893 C   0  0  2  0  0  0  0  0  0  0  0  0
    8.5005  -15.6558   24.8401 N   0  0  0  0  0  0  0  0  0  0  0  0
    6.9925  -15.6036   22.9433 C   0  0  0  0  0  0  0  0  0  0  0  0
    5.9329  -15.4470   22.3256 O   0  0  0  0  0  0  0  0  0  0  0  0
    7.5136  -13.9791   18.2390 N   0  0  0  0  0  0  0  0  0  0  0  0
    8.6500  -14.2342   19.0448 C   0  0  0  0  0  0  0  0  0  0  0  0
    9.7631  -14.2319   18.4571 O   0  0  0  0  0  0  0  0  0  0  0  0
    8.4468  -14.4768   20.4736 C   0  0  0  0  0  0  0  0  0  0  0  0
    8.3220  -15.9591   20.8287 C   0  0  2  0  0  0  0  0  0  0  0  0
    8.1265  -16.1351   22.2477 N   0  0  0  0  0  0  0  0  0  0  0  0
    9.6228  -16.5583   20.3632 C   0  0  0  0  0  0  0  0  0  0  0  0
    9.6749  -17.1500   19.2543 O   0  0  0  0  0  0  0  0  0  0  0  0
   10.7776  -16.4942   21.0930 O   0  0  0  0  0  0  0  0  0  0  0  0
  1  2  1  0
  3  2  1  0
  4  3  1  0
  5  6  1  6
  5  4  1  0
  7  5  1  0
  8  7  2  0
 10  9  1  0
 10 11  1  0
 11 12  1  0
 13 12  1  6
 13 15  1  0
 13 14  1  0
 14  7  1  0
 15 16  2  0
 18 17  1  0
 19 18  2  0
 20 18  1  0
 21 20  1  1
 22 21  1  0
 22 15  1  0
 23 21  1  0
 24 23  2  0
 25 23  1  0
M  END
$$$$
