MMN.pdb
     RDKit          3D

 25 24  0  0  1  0  0  0  0  0999 V2000
    8.6701  -11.5297   19.3335 C   0  0  0  0  0  0  0  0  0  0  0  0
    7.1611  -12.5095   19.2197 S   0  0  0  0  0  0  0  0  0  0  0  0
    7.5466  -14.3009   19.1205 C   0  0  0  0  0  0  0  0  0  0  0  0
    8.7379  -14.6001   19.9745 C   0  0  0  0  0  0  0  0  0  0  0  0
    8.6707  -15.8734   20.7435 C   0  0  2  0  0  0  0  0  0  0  0  0
    7.2579  -16.2898   20.7117 N   0  0  0  0  0  0  0  0  0  0  0  0
    9.0121  -15.6705   22.1725 C   0  0  0  0  0  0  0  0  0  0  0  0
   10.2073  -15.3890   22.4547 O   0  0  0  0  0  0  0  0  0  0  0  0
    7.1922  -11.6411   27.1948 C   0  0  0  0  0  0  0  0  0  0  0  0
    6.1426  -12.8710   26.3748 S   0  0  0  0  0  0  0  0  0  0  0  0
    7.1367  -13.7350   25.1584 C   0  0  0  0  0  0  0  0  0  0  0  0
    7.4207  -15.1665   25.4933 C   0  0  0  0  0  0  0  0  0  0  0  0
    8.4854  -15.7638   24.5844 C   0  0  2  0  0  0  0  0  0  0  0  0
    8.0549  -15.7809   23.2155 N   0  0  0  0  0  0  0  0  0  0  0  0
    8.8632  -17.1322   25.0581 C   0  0  0  0  0  0  0  0  0  0  0  0
    8.5535  -18.1850   24.4885 O   0  0  0  0  0  0  0  0  0  0  0  0
   12.1016  -20.4371   27.2552 N   0  0  0  0  0  0  0  0  0  0  0  0
   12.4677  -19.6758   26.1183 C   0  0  0  0  0  0  0  0  0  0  0  0
   13.4943  -20.0574   25.4979 O   0  0  0  0  0  0  0  0  0  0  0  0
   11.6393  -18.5244   25.7584 C   0  0  0  0  0  0  0  0  0  0  0  0
   10.3953  -18.3707   26.6344 C   0  0  2  0  0  0  0  0  0  0  0  0
    9.6415  -17.1987   26.2591 N   0  0  0  0  0  0  0  0  0  0  0  0
   10.9429  -18.2612   28.0329 C   0  0  0  0  0  0  0  0  0  0  0  0
   10.6990  -19.1677   28.8705 O   0  0  0  0  0  0  0  0  0  0  0  0
   11.7085  -17.2093   28.4546 O   0  0  0  0  0  0  0  0  0  0  0  0
  1  2  1  0
  3  2  1  0
  4  3  1  0
  5  6  1  1
  5  4  1  0
  7  5  1  0
  8  7  2  0
 10  9  1  0
 10 11  1  0
 11 12  1  0
 13 12  1  1
 13 15  1  0
 13 14  1  0
 14  7  1  0
 15 16  2  0
 18 17  1  0
 19 18  2  0
 20 18  1  0
 21 20  1  6
 22 21  1  0
 22 15  1  0
 23 21  1  0
 24 23  2  0
 25 23  1  0
M  END
$$$$
