MMN.pdb
     RDKit          3D

 25 24  0  0  1  0  0  0  0  0999 V2000
    7.6437  -20.3202   20.0394 C   0  0  0  0  0  0  0  0  0  0  0  0
    6.2196  -19.4151   19.4049 S   0  0  0  0  0  0  0  0  0  0  0  0
    6.6229  -17.6414   19.1623 C   0  0  0  0  0  0  0  0  0  0  0  0
    7.3445  -17.1273   20.3678 C   0  0  0  0  0  0  0  0  0  0  0  0
    7.5733  -15.6563   20.3978 C   0  0  2  0  0  0  0  0  0  0  0  0
    8.6150  -15.3893   19.3909 N   0  0  0  0  0  0  0  0  0  0  0  0
    8.1303  -15.2138   21.6993 C   0  0  0  0  0  0  0  0  0  0  0  0
    9.3775  -15.2931   21.8598 O   0  0  0  0  0  0  0  0  0  0  0  0
    5.9961  -10.8228   26.3057 C   0  0  0  0  0  0  0  0  0  0  0  0
    6.6241  -12.2183   27.2777 S   0  0  0  0  0  0  0  0  0  0  0  0
    7.6383  -13.2369   26.2062 C   0  0  0  0  0  0  0  0  0  0  0  0
    7.0113  -13.5646   24.8866 C   0  0  0  0  0  0  0  0  0  0  0  0
    7.8977  -14.4703   24.0437 C   0  0  2  0  0  0  0  0  0  0  0  0
    7.3204  -14.7126   22.7525 N   0  0  0  0  0  0  0  0  0  0  0  0
    8.1728  -15.7490   24.7709 C   0  0  0  0  0  0  0  0  0  0  0  0
    7.3418  -16.6451   24.9586 O   0  0  0  0  0  0  0  0  0  0  0  0
   12.5724  -18.9643   23.9112 N   0  0  0  0  0  0  0  0  0  0  0  0
   11.3269  -18.4939   24.3944 C   0  0  0  0  0  0  0  0  0  0  0  0
   10.3002  -18.9425   23.8210 O   0  0  0  0  0  0  0  0  0  0  0  0
   11.3290  -17.5393   25.5036 C   0  0  0  0  0  0  0  0  0  0  0  0
    9.9276  -17.1235   25.9529 C   0  0  2  0  0  0  0  0  0  0  0  0
    9.5030  -15.9231   25.2736 N   0  0  0  0  0  0  0  0  0  0  0  0
   10.0671  -16.9087   27.4368 C   0  0  0  0  0  0  0  0  0  0  0  0
   10.3555  -17.8799   28.1827 O   0  0  0  0  0  0  0  0  0  0  0  0
    9.8950  -15.6906   28.0343 O   0  0  0  0  0  0  0  0  0  0  0  0
  1  2  1  0
  3  2  1  0
  4  3  1  0
  5  6  1  6
  5  4  1  0
  7  5  1  0
  8  7  2  0
 10  9  1  0
 10 11  1  0
 11 12  1  0
 13 12  1  1
 13 15  1  0
 13 14  1  0
 14  7  1  0
 15 16  2  0
 18 17  1  0
 19 18  2  0
 20 18  1  0
 21 20  1  6
 22 21  1  0
 22 15  1  0
 23 21  1  0
 24 23  2  0
 25 23  1  0
M  END
$$$$
