MMN.pdb
     RDKit          3D

 25 24  0  0  1  0  0  0  0  0999 V2000
    8.5075  -11.4984   19.7029 C   0  0  0  0  0  0  0  0  0  0  0  0
    7.1791  -12.5694   19.1214 S   0  0  0  0  0  0  0  0  0  0  0  0
    7.5522  -14.3309   19.4758 C   0  0  0  0  0  0  0  0  0  0  0  0
    8.6841  -14.4118   20.4506 C   0  0  0  0  0  0  0  0  0  0  0  0
    8.7815  -15.6866   21.2139 C   0  0  2  0  0  0  0  0  0  0  0  0
    7.4577  -16.3238   21.1058 N   0  0  0  0  0  0  0  0  0  0  0  0
    9.0096  -15.4449   22.6594 C   0  0  0  0  0  0  0  0  0  0  0  0
   10.1319  -14.9900   23.0071 O   0  0  0  0  0  0  0  0  0  0  0  0
    6.9917  -11.6669   27.5696 C   0  0  0  0  0  0  0  0  0  0  0  0
    6.1219  -12.2898   26.1060 S   0  0  0  0  0  0  0  0  0  0  0  0
    7.2331  -13.3780   25.2141 C   0  0  0  0  0  0  0  0  0  0  0  0
    7.3551  -14.7521   25.7960 C   0  0  0  0  0  0  0  0  0  0  0  0
    8.3634  -15.6042   25.0385 C   0  0  2  0  0  0  0  0  0  0  0  0
    8.0236  -15.7041   23.6479 N   0  0  0  0  0  0  0  0  0  0  0  0
    8.4817  -16.9543   25.6732 C   0  0  0  0  0  0  0  0  0  0  0  0
    7.5937  -17.8146   25.6690 O   0  0  0  0  0  0  0  0  0  0  0  0
   12.5189  -20.2960   24.7236 N   0  0  0  0  0  0  0  0  0  0  0  0
   11.5855  -19.2318   24.7713 C   0  0  0  0  0  0  0  0  0  0  0  0
   11.9348  -18.1574   24.2162 O   0  0  0  0  0  0  0  0  0  0  0  0
   10.3090  -19.4586   25.4502 C   0  0  0  0  0  0  0  0  0  0  0  0
   10.1149  -18.5861   26.6910 C   0  0  2  0  0  0  0  0  0  0  0  0
    9.7243  -17.2462   26.3238 N   0  0  0  0  0  0  0  0  0  0  0  0
   11.4581  -18.6121   27.3713 C   0  0  0  0  0  0  0  0  0  0  0  0
   12.1561  -17.5663   27.4128 O   0  0  0  0  0  0  0  0  0  0  0  0
   11.9746  -19.7328   27.9609 O   0  0  0  0  0  0  0  0  0  0  0  0
  1  2  1  0
  3  2  1  0
  4  3  1  0
  5  6  1  1
  5  4  1  0
  7  5  1  0
  8  7  2  0
 10  9  1  0
 10 11  1  0
 11 12  1  0
 13 12  1  1
 13 15  1  0
 13 14  1  0
 14  7  1  0
 15 16  2  0
 18 17  1  0
 19 18  2  0
 20 18  1  0
 21 20  1  6
 22 21  1  0
 22 15  1  0
 23 21  1  0
 24 23  2  0
 25 23  1  0
M  END
$$$$
