MMN.pdb
     RDKit          3D

 25 24  0  0  1  0  0  0  0  0999 V2000
    8.3568  -11.4014   19.1606 C   0  0  0  0  0  0  0  0  0  0  0  0
    7.5471  -12.7713   18.3135 S   0  0  0  0  0  0  0  0  0  0  0  0
    8.1276  -14.3842   18.9684 C   0  0  0  0  0  0  0  0  0  0  0  0
    8.3127  -14.2808   20.4493 C   0  0  0  0  0  0  0  0  0  0  0  0
    8.7547  -15.5303   21.1280 C   0  0  2  0  0  0  0  0  0  0  0  0
    7.6079  -16.4527   21.0616 N   0  0  0  0  0  0  0  0  0  0  0  0
    9.0250  -15.3062   22.5690 C   0  0  0  0  0  0  0  0  0  0  0  0
   10.1476  -14.8307   22.8871 O   0  0  0  0  0  0  0  0  0  0  0  0
    7.4081  -11.5867   27.4803 C   0  0  0  0  0  0  0  0  0  0  0  0
    6.2553  -12.1291   26.1905 S   0  0  0  0  0  0  0  0  0  0  0  0
    7.1176  -13.2733   25.1127 C   0  0  0  0  0  0  0  0  0  0  0  0
    7.3376  -14.6328   25.7003 C   0  0  0  0  0  0  0  0  0  0  0  0
    8.4237  -15.4032   24.9632 C   0  0  2  0  0  0  0  0  0  0  0  0
    8.0786  -15.6042   23.5849 N   0  0  0  0  0  0  0  0  0  0  0  0
    8.6990  -16.7013   25.6552 C   0  0  0  0  0  0  0  0  0  0  0  0
    7.8537  -17.5774   25.8707 O   0  0  0  0  0  0  0  0  0  0  0  0
   12.6997  -20.7410   25.2052 N   0  0  0  0  0  0  0  0  0  0  0  0
   12.5533  -19.7201   26.1759 C   0  0  0  0  0  0  0  0  0  0  0  0
   12.9839  -19.9808   27.3296 O   0  0  0  0  0  0  0  0  0  0  0  0
   11.9236  -18.4628   25.7707 C   0  0  0  0  0  0  0  0  0  0  0  0
   10.5567  -18.2298   26.4156 C   0  0  2  0  0  0  0  0  0  0  0  0
   10.0474  -16.9202   26.0867 N   0  0  0  0  0  0  0  0  0  0  0  0
   10.8182  -18.3755   27.8915 C   0  0  0  0  0  0  0  0  0  0  0  0
   10.8746  -17.3504   28.6187 O   0  0  0  0  0  0  0  0  0  0  0  0
   11.0013  -19.5859   28.5013 O   0  0  0  0  0  0  0  0  0  0  0  0
  1  2  1  0
  3  2  1  0
  4  3  1  0
  5  6  1  1
  5  4  1  0
  7  5  1  0
  8  7  2  0
 10  9  1  0
 10 11  1  0
 11 12  1  0
 13 12  1  1
 13 15  1  0
 13 14  1  0
 14  7  1  0
 15 16  2  0
 18 17  1  0
 19 18  2  0
 20 18  1  0
 21 20  1  6
 22 21  1  0
 22 15  1  0
 23 21  1  0
 24 23  2  0
 25 23  1  0
M  END
$$$$
