MMN.pdb
     RDKit          3D

 25 24  0  0  1  0  0  0  0  0999 V2000
    7.5427  -11.4824   19.8639 C   0  0  0  0  0  0  0  0  0  0  0  0
    8.7086  -12.6199   19.0914 S   0  0  0  0  0  0  0  0  0  0  0  0
    7.9601  -14.2813   18.8744 C   0  0  0  0  0  0  0  0  0  0  0  0
    7.3247  -14.7108   20.1588 C   0  0  0  0  0  0  0  0  0  0  0  0
    8.0202  -15.8123   20.8800 C   0  0  2  0  0  0  0  0  0  0  0  0
    7.0211  -16.8830   21.0412 N   0  0  0  0  0  0  0  0  0  0  0  0
    8.4187  -15.4062   22.2496 C   0  0  0  0  0  0  0  0  0  0  0  0
    9.5681  -14.9134   22.4031 O   0  0  0  0  0  0  0  0  0  0  0  0
    7.4555  -11.7205   27.5694 C   0  0  0  0  0  0  0  0  0  0  0  0
    6.1362  -12.0855   26.3807 S   0  0  0  0  0  0  0  0  0  0  0  0
    6.8065  -13.1593   25.1112 C   0  0  0  0  0  0  0  0  0  0  0  0
    7.0247  -14.5748   25.5479 C   0  0  0  0  0  0  0  0  0  0  0  0
    8.0660  -15.2812   24.6916 C   0  0  2  0  0  0  0  0  0  0  0  0
    7.5643  -15.5511   23.3745 N   0  0  0  0  0  0  0  0  0  0  0  0
    8.5320  -16.5319   25.3686 C   0  0  0  0  0  0  0  0  0  0  0  0
    7.7856  -17.3917   25.8505 O   0  0  0  0  0  0  0  0  0  0  0  0
   11.0440  -20.9165   23.7549 N   0  0  0  0  0  0  0  0  0  0  0  0
   11.7555  -19.7999   24.2579 C   0  0  0  0  0  0  0  0  0  0  0  0
   12.9050  -20.0305   24.7159 O   0  0  0  0  0  0  0  0  0  0  0  0
   11.1111  -18.4869   24.2078 C   0  0  0  0  0  0  0  0  0  0  0  0
   10.5540  -18.0292   25.5564 C   0  0  2  0  0  0  0  0  0  0  0  0
    9.9496  -16.7232   25.4486 N   0  0  0  0  0  0  0  0  0  0  0  0
   11.7552  -18.0181   26.4645 C   0  0  0  0  0  0  0  0  0  0  0  0
   12.4014  -19.0802   26.6563 O   0  0  0  0  0  0  0  0  0  0  0  0
   12.1948  -16.8937   27.1071 O   0  0  0  0  0  0  0  0  0  0  0  0
  1  2  1  0
  3  2  1  0
  4  3  1  0
  5  6  1  1
  5  4  1  0
  7  5  1  0
  8  7  2  0
 10  9  1  0
 10 11  1  0
 11 12  1  0
 13 12  1  1
 13 15  1  0
 13 14  1  0
 14  7  1  0
 15 16  2  0
 18 17  1  0
 19 18  2  0
 20 18  1  0
 21 20  1  6
 22 21  1  0
 22 15  1  0
 23 21  1  0
 24 23  2  0
 25 23  1  0
M  END
$$$$
