MMN.pdb
     RDKit          3D

 25 24  0  0  1  0  0  0  0  0999 V2000
    7.4497  -11.5213   19.3491 C   0  0  0  0  0  0  0  0  0  0  0  0
    8.5537  -12.7722   20.0319 S   0  0  0  0  0  0  0  0  0  0  0  0
    8.3307  -14.3817   19.1791 C   0  0  0  0  0  0  0  0  0  0  0  0
    9.2808  -15.3839   19.7545 C   0  0  0  0  0  0  0  0  0  0  0  0
    8.7274  -16.2415   20.8387 C   0  0  2  0  0  0  0  0  0  0  0  0
    7.2621  -16.1367   20.7279 N   0  0  0  0  0  0  0  0  0  0  0  0
    9.0805  -15.7233   22.1828 C   0  0  0  0  0  0  0  0  0  0  0  0
   10.3021  -15.5611   22.4455 O   0  0  0  0  0  0  0  0  0  0  0  0
    6.8122  -12.0038   27.5125 C   0  0  0  0  0  0  0  0  0  0  0  0
    6.0206  -12.3202   25.9125 S   0  0  0  0  0  0  0  0  0  0  0  0
    7.1614  -13.2609   24.8986 C   0  0  0  0  0  0  0  0  0  0  0  0
    7.4226  -14.6521   25.3867 C   0  0  0  0  0  0  0  0  0  0  0  0
    8.4801  -15.3597   24.5515 C   0  0  2  0  0  0  0  0  0  0  0  0
    8.1062  -15.4091   23.1669 N   0  0  0  0  0  0  0  0  0  0  0  0
    8.7427  -16.7278   25.0984 C   0  0  0  0  0  0  0  0  0  0  0  0
    8.3909  -17.7821   24.5567 O   0  0  0  0  0  0  0  0  0  0  0  0
   10.7672  -19.7606   24.7110 N   0  0  0  0  0  0  0  0  0  0  0  0
   11.7362  -18.7283   24.6737 C   0  0  0  0  0  0  0  0  0  0  0  0
   12.6112  -18.8162   23.7731 O   0  0  0  0  0  0  0  0  0  0  0  0
   11.6475  -17.6576   25.6672 C   0  0  0  0  0  0  0  0  0  0  0  0
   10.4533  -17.7996   26.6119 C   0  0  2  0  0  0  0  0  0  0  0  0
    9.4567  -16.7922   26.3387 N   0  0  0  0  0  0  0  0  0  0  0  0
   11.0509  -17.6395   27.9849 C   0  0  0  0  0  0  0  0  0  0  0  0
   11.3681  -16.4940   28.3969 O   0  0  0  0  0  0  0  0  0  0  0  0
   11.2733  -18.6919   28.8295 O   0  0  0  0  0  0  0  0  0  0  0  0
  1  2  1  0
  3  2  1  0
  4  3  1  0
  5  6  1  1
  5  4  1  0
  7  5  1  0
  8  7  2  0
 10  9  1  0
 10 11  1  0
 11 12  1  0
 13 12  1  1
 13 15  1  0
 13 14  1  0
 14  7  1  0
 15 16  2  0
 18 17  1  0
 19 18  2  0
 20 18  1  0
 21 20  1  6
 22 21  1  0
 22 15  1  0
 23 21  1  0
 24 23  2  0
 25 23  1  0
M  END
$$$$
