MMN.pdb
     RDKit          3D

 25 24  0  0  1  0  0  0  0  0999 V2000
    7.2863  -19.1438   28.2681 C   0  0  0  0  0  0  0  0  0  0  0  0
    8.5373  -19.5555   27.0371 S   0  0  0  0  0  0  0  0  0  0  0  0
    7.7638  -19.9500   25.4204 C   0  0  0  0  0  0  0  0  0  0  0  0
    6.3253  -19.5400   25.4455 C   0  0  0  0  0  0  0  0  0  0  0  0
    5.8445  -18.8176   24.2355 C   0  0  2  0  0  0  0  0  0  0  0  0
    6.1264  -19.7075   23.0957 N   0  0  0  0  0  0  0  0  0  0  0  0
    6.6180  -17.5754   23.9941 C   0  0  0  0  0  0  0  0  0  0  0  0
    7.2434  -17.4775   22.9047 O   0  0  0  0  0  0  0  0  0  0  0  0
    6.1617  -12.0796   27.5882 C   0  0  0  0  0  0  0  0  0  0  0  0
    6.9595  -11.4373   26.0923 S   0  0  0  0  0  0  0  0  0  0  0  0
    7.4774  -12.8310   25.0904 C   0  0  0  0  0  0  0  0  0  0  0  0
    6.7853  -14.1187   25.4141 C   0  0  0  0  0  0  0  0  0  0  0  0
    7.3043  -15.2727   24.5684 C   0  0  2  0  0  0  0  0  0  0  0  0
    6.6771  -16.5111   24.9322 N   0  0  0  0  0  0  0  0  0  0  0  0
    8.7947  -15.3612   24.6708 C   0  0  0  0  0  0  0  0  0  0  0  0
    9.5563  -14.3883   24.7168 O   0  0  0  0  0  0  0  0  0  0  0  0
   10.8357  -18.1788   28.5195 N   0  0  0  0  0  0  0  0  0  0  0  0
   11.2975  -17.4956   27.3680 C   0  0  0  0  0  0  0  0  0  0  0  0
   12.0126  -16.4798   27.5707 O   0  0  0  0  0  0  0  0  0  0  0  0
   10.9148  -18.0137   26.0540 C   0  0  0  0  0  0  0  0  0  0  0  0
   10.7487  -16.9243   24.9937 C   0  0  2  0  0  0  0  0  0  0  0  0
    9.3532  -16.6796   24.7194 N   0  0  0  0  0  0  0  0  0  0  0  0
   11.4694  -17.4714   23.7899 C   0  0  0  0  0  0  0  0  0  0  0  0
   10.8369  -17.6661   22.7200 O   0  0  0  0  0  0  0  0  0  0  0  0
   12.8028  -17.7753   23.7925 O   0  0  0  0  0  0  0  0  0  0  0  0
  1  2  1  0
  3  2  1  0
  4  3  1  0
  5  6  1  6
  5  4  1  0
  7  5  1  0
  8  7  2  0
 10  9  1  0
 10 11  1  0
 11 12  1  0
 13 12  1  1
 13 15  1  0
 13 14  1  0
 14  7  1  0
 15 16  2  0
 18 17  1  0
 19 18  2  0
 20 18  1  0
 21 20  1  1
 22 21  1  0
 22 15  1  0
 23 21  1  0
 24 23  2  0
 25 23  1  0
M  END
$$$$
