MMN.pdb
     RDKit          3D

 25 24  0  0  1  0  0  0  0  0999 V2000
    7.2496  -11.5676   19.8437 C   0  0  0  0  0  0  0  0  0  0  0  0
    6.6909  -13.1930   19.2998 S   0  0  0  0  0  0  0  0  0  0  0  0
    8.1106  -14.3328   19.0693 C   0  0  0  0  0  0  0  0  0  0  0  0
    8.9922  -14.2776   20.2766 C   0  0  0  0  0  0  0  0  0  0  0  0
    9.0397  -15.5226   21.0920 C   0  0  2  0  0  0  0  0  0  0  0  0
    7.6729  -16.0721   21.0693 N   0  0  0  0  0  0  0  0  0  0  0  0
    9.3488  -15.2362   22.5140 C   0  0  0  0  0  0  0  0  0  0  0  0
   10.4907  -14.7772   22.7839 O   0  0  0  0  0  0  0  0  0  0  0  0
    6.5699  -12.4614   27.8919 C   0  0  0  0  0  0  0  0  0  0  0  0
    5.9825  -12.5469   26.1790 S   0  0  0  0  0  0  0  0  0  0  0  0
    7.2355  -13.3712   25.1968 C   0  0  0  0  0  0  0  0  0  0  0  0
    7.7147  -14.6704   25.7664 C   0  0  0  0  0  0  0  0  0  0  0  0
    8.8269  -15.2843   24.9282 C   0  0  2  0  0  0  0  0  0  0  0  0
    8.4184  -15.4578   23.5635 N   0  0  0  0  0  0  0  0  0  0  0  0
    9.2801  -16.5755   25.5340 C   0  0  0  0  0  0  0  0  0  0  0  0
    8.5674  -17.5761   25.6739 O   0  0  0  0  0  0  0  0  0  0  0  0
   13.6614  -16.4375   24.5718 N   0  0  0  0  0  0  0  0  0  0  0  0
   13.0056  -17.6538   24.8828 C   0  0  0  0  0  0  0  0  0  0  0  0
   12.7400  -18.4091   23.9116 O   0  0  0  0  0  0  0  0  0  0  0  0
   12.6925  -17.9343   26.2846 C   0  0  0  0  0  0  0  0  0  0  0  0
   11.2069  -17.7914   26.6179 C   0  0  2  0  0  0  0  0  0  0  0  0
   10.6427  -16.6301   25.9731 N   0  0  0  0  0  0  0  0  0  0  0  0
   11.1781  -17.6690   28.1186 C   0  0  0  0  0  0  0  0  0  0  0  0
   10.7670  -16.6051   28.6494 O   0  0  0  0  0  0  0  0  0  0  0  0
   11.5816  -18.6712   28.9571 O   0  0  0  0  0  0  0  0  0  0  0  0
  1  2  1  0
  3  2  1  0
  4  3  1  0
  5  6  1  1
  5  4  1  0
  7  5  1  0
  8  7  2  0
 10  9  1  0
 10 11  1  0
 11 12  1  0
 13 12  1  1
 13 15  1  0
 13 14  1  0
 14  7  1  0
 15 16  2  0
 18 17  1  0
 19 18  2  0
 20 18  1  0
 21 20  1  6
 22 21  1  0
 22 15  1  0
 23 21  1  0
 24 23  2  0
 25 23  1  0
M  END
$$$$
