MMN.pdb
     RDKit          3D

 25 24  0  0  1  0  0  0  0  0999 V2000
    7.2553  -18.4792   19.0510 C   0  0  0  0  0  0  0  0  0  0  0  0
    7.2358  -17.3797   17.6224 S   0  0  0  0  0  0  0  0  0  0  0  0
    7.5160  -15.6385   18.1293 C   0  0  0  0  0  0  0  0  0  0  0  0
    7.0934  -15.4621   19.5534 C   0  0  0  0  0  0  0  0  0  0  0  0
    7.1960  -14.0748   20.0845 C   0  0  2  0  0  0  0  0  0  0  0  0
    8.1680  -13.3829   19.2203 N   0  0  0  0  0  0  0  0  0  0  0  0
    7.7666  -14.0517   21.4533 C   0  0  0  0  0  0  0  0  0  0  0  0
    9.0107  -13.8870   21.5663 O   0  0  0  0  0  0  0  0  0  0  0  0
    6.4687  -10.9555   27.1407 C   0  0  0  0  0  0  0  0  0  0  0  0
    7.8823  -12.0577   26.8700 S   0  0  0  0  0  0  0  0  0  0  0  0
    7.2568  -13.6517   26.3386 C   0  0  0  0  0  0  0  0  0  0  0  0
    6.6366  -13.6516   24.9758 C   0  0  0  0  0  0  0  0  0  0  0  0
    7.5929  -14.1765   23.9145 C   0  0  2  0  0  0  0  0  0  0  0  0
    6.9730  -14.2062   22.6206 N   0  0  0  0  0  0  0  0  0  0  0  0
    8.1121  -15.5245   24.3055 C   0  0  0  0  0  0  0  0  0  0  0  0
    7.4839  -16.3547   24.9724 O   0  0  0  0  0  0  0  0  0  0  0  0
   12.2220  -15.9991   21.5888 N   0  0  0  0  0  0  0  0  0  0  0  0
   11.5654  -17.0811   22.2245 C   0  0  0  0  0  0  0  0  0  0  0  0
   11.0563  -17.9480   21.4671 O   0  0  0  0  0  0  0  0  0  0  0  0
   11.5297  -17.1080   23.6872 C   0  0  0  0  0  0  0  0  0  0  0  0
   10.1141  -17.0595   24.2636 C   0  0  2  0  0  0  0  0  0  0  0  0
    9.4339  -15.8522   23.8606 N   0  0  0  0  0  0  0  0  0  0  0  0
   10.3230  -17.1148   25.7539 C   0  0  0  0  0  0  0  0  0  0  0  0
   10.0997  -18.1856   26.3753 O   0  0  0  0  0  0  0  0  0  0  0  0
   10.7520  -16.0435   26.4878 O   0  0  0  0  0  0  0  0  0  0  0  0
  1  2  1  0
  3  2  1  0
  4  3  1  0
  5  6  1  6
  5  4  1  0
  7  5  1  0
  8  7  2  0
 10  9  1  0
 10 11  1  0
 11 12  1  0
 13 12  1  1
 13 15  1  0
 13 14  1  0
 14  7  1  0
 15 16  2  0
 18 17  1  0
 19 18  2  0
 20 18  1  0
 21 20  1  6
 22 21  1  0
 22 15  1  0
 23 21  1  0
 24 23  2  0
 25 23  1  0
M  END
$$$$
