MMN.pdb
     RDKit          3D

 25 24  0  0  1  0  0  0  0  0999 V2000
    7.9712  -18.0840   28.4064 C   0  0  0  0  0  0  0  0  0  0  0  0
    7.4724  -19.7755   28.7808 S   0  0  0  0  0  0  0  0  0  0  0  0
    6.6071  -20.5369   27.3529 C   0  0  0  0  0  0  0  0  0  0  0  0
    6.1289  -19.4602   26.4309 C   0  0  0  0  0  0  0  0  0  0  0  0
    6.9254  -19.2837   25.1853 C   0  0  2  0  0  0  0  0  0  0  0  0
    8.3191  -19.5911   25.5507 N   0  0  0  0  0  0  0  0  0  0  0  0
    6.9180  -17.8741   24.7240 C   0  0  0  0  0  0  0  0  0  0  0  0
    5.8461  -17.4221   24.2400 O   0  0  0  0  0  0  0  0  0  0  0  0
    6.4998  -11.9502   25.8035 C   0  0  0  0  0  0  0  0  0  0  0  0
    7.0972  -13.0539   27.1118 S   0  0  0  0  0  0  0  0  0  0  0  0
    7.5863  -14.6049   26.3572 C   0  0  0  0  0  0  0  0  0  0  0  0
    7.1546  -14.7647   24.9324 C   0  0  0  0  0  0  0  0  0  0  0  0
    8.0408  -15.7431   24.1749 C   0  0  2  0  0  0  0  0  0  0  0  0
    8.0576  -17.0311   24.8074 N   0  0  0  0  0  0  0  0  0  0  0  0
    9.4217  -15.1854   24.0282 C   0  0  0  0  0  0  0  0  0  0  0  0
    9.7108  -14.1887   23.3561 O   0  0  0  0  0  0  0  0  0  0  0  0
   13.1204  -18.8011   24.1490 N   0  0  0  0  0  0  0  0  0  0  0  0
   11.9494  -18.9211   23.3616 C   0  0  0  0  0  0  0  0  0  0  0  0
   11.7873  -20.0179   22.7656 O   0  0  0  0  0  0  0  0  0  0  0  0
   11.0336  -17.7812   23.3021 C   0  0  0  0  0  0  0  0  0  0  0  0
   11.5443  -16.5491   24.0502 C   0  0  2  0  0  0  0  0  0  0  0  0
   10.4648  -15.8733   24.7290 N   0  0  0  0  0  0  0  0  0  0  0  0
   12.1530  -15.6918   22.9722 C   0  0  0  0  0  0  0  0  0  0  0  0
   13.2903  -15.1835   23.1479 O   0  0  0  0  0  0  0  0  0  0  0  0
   11.5266  -15.4283   21.7853 O   0  0  0  0  0  0  0  0  0  0  0  0
  1  2  1  0
  3  2  1  0
  4  3  1  0
  5  6  1  1
  5  4  1  0
  7  5  1  0
  8  7  2  0
 10  9  1  0
 10 11  1  0
 11 12  1  0
 13 12  1  1
 13 15  1  0
 13 14  1  0
 14  7  1  0
 15 16  2  0
 18 17  1  0
 19 18  2  0
 20 18  1  0
 21 20  1  6
 22 21  1  0
 22 15  1  0
 23 21  1  0
 24 23  2  0
 25 23  1  0
M  END
$$$$
