FDF.pdb
     RDKit          3D

 31 32  0  0  1  0  0  0  0  0999 V2000
   24.1654  -18.4173  -15.8515 N   0  0  0  0  0  0  0  0  0  0  0  0
   25.1685  -18.1444  -14.8613 C   0  0  1  0  0  0  0  0  0  0  0  0
   24.7951  -17.0140  -13.9503 C   0  0  0  0  0  0  0  0  0  0  0  0
   24.6152  -15.7214  -14.6249 C   0  0  0  0  0  0  0  0  0  0  0  0
   23.3497  -15.1813  -14.6994 C   0  0  0  0  0  0  0  0  0  0  0  0
   23.1117  -13.9574  -15.3285 C   0  0  0  0  0  0  0  0  0  0  0  0
   24.1563  -13.2543  -15.8967 C   0  0  0  0  0  0  0  0  0  0  0  0
   25.4156  -13.7912  -15.8229 C   0  0  0  0  0  0  0  0  0  0  0  0
   25.6422  -15.0151  -15.1918 C   0  0  0  0  0  0  0  0  0  0  0  0
   25.3937  -19.3412  -13.9737 C   0  0  0  0  0  0  0  0  0  0  0  0
   24.4384  -19.8818  -13.3613 O   0  0  0  0  0  0  0  0  0  0  0  0
   26.6860  -19.9070  -13.7917 N   0  0  0  0  0  0  0  0  0  0  0  0
   26.9287  -21.0473  -12.9204 C   0  0  1  0  0  0  0  0  0  0  0  0
   28.0103  -21.9293  -13.4327 C   0  0  0  0  0  0  0  0  0  0  0  0
   27.8002  -22.2018  -14.8663 C   0  0  0  0  0  0  0  0  0  0  0  0
   26.8193  -22.8316  -15.3311 O   0  0  0  0  0  0  0  0  0  0  0  0
   27.1764  -20.6398  -11.5371 C   0  0  0  0  0  0  0  0  0  0  0  0
   28.2256  -20.0516  -11.1673 O   0  0  0  0  0  0  0  0  0  0  0  0
   28.7458  -21.7339  -15.7674 O   0  0  0  0  0  0  0  0  0  0  0  0
   26.1616  -20.9336  -10.5667 N   0  0  0  0  0  0  0  0  0  0  0  0
   26.5112  -20.9203   -9.1346 C   0  0  1  0  0  0  0  0  0  0  0  0
   27.1371  -19.5946   -8.7841 C   0  0  0  0  0  0  0  0  0  0  0  0
   27.5016  -19.5592   -7.3601 C   0  0  0  0  0  0  0  0  0  0  0  0
   28.1832  -20.5523   -6.7176 C   0  0  0  0  0  0  0  0  0  0  0  0
   28.5065  -20.4514   -5.3690 C   0  0  0  0  0  0  0  0  0  0  0  0
   28.1485  -19.3410   -4.6300 C   0  0  0  0  0  0  0  0  0  0  0  0
   27.4538  -18.3340   -5.2928 C   0  0  0  0  0  0  0  0  0  0  0  0
   27.1406  -18.4425   -6.6194 C   0  0  0  0  0  0  0  0  0  0  0  0
   25.2676  -21.1010   -8.3743 C   0  0  0  0  0  0  0  0  0  0  0  0
   25.3043  -21.4803   -7.0490 O   0  0  0  0  0  0  0  0  0  0  0  0
   24.1511  -20.9198   -8.8957 O   0  0  0  0  0  0  0  0  0  0  0  0
  2  1  1  6
  3  2  1  0
  4  5  2  0
  4  3  1  0
  6  5  1  0
  7  6  2  0
  8  7  1  0
  8  9  2  0
  9  4  1  0
 10 11  2  0
 10  2  1  0
 12 10  1  0
 13 12  1  0
 13 14  1  6
 15 14  1  0
 16 15  2  0
 17 13  1  0
 18 17  2  0
 19 15  1  0
 20 17  1  0
 21 20  1  0
 21 22  1  1
 23 22  1  0
 24 23  2  0
 25 24  1  0
 26 25  2  0
 26 27  1  0
 27 28  2  0
 28 23  1  0
 29 21  1  0
 29 30  1  0
 31 29  2  0
M  END
$$$$
