FDF.pdb
     RDKit          3D

 31 32  0  0  1  0  0  0  0  0999 V2000
   18.3657  -15.1163    8.6449 N   0  0  0  0  0  0  0  0  0  0  0  0
   18.0252  -15.8105    7.4353 C   0  0  1  0  0  0  0  0  0  0  0  0
   19.1137  -15.7553    6.4061 C   0  0  0  0  0  0  0  0  0  0  0  0
   19.4154  -14.4059    5.9097 C   0  0  0  0  0  0  0  0  0  0  0  0
   18.5771  -13.8392    4.9743 C   0  0  0  0  0  0  0  0  0  0  0  0
   18.8096  -12.5612    4.4615 C   0  0  0  0  0  0  0  0  0  0  0  0
   19.9009  -11.8298    4.8887 C   0  0  0  0  0  0  0  0  0  0  0  0
   20.7353  -12.3931    5.8193 C   0  0  0  0  0  0  0  0  0  0  0  0
   20.4936  -13.6712    6.3252 C   0  0  0  0  0  0  0  0  0  0  0  0
   17.7740  -17.2723    7.7017 C   0  0  0  0  0  0  0  0  0  0  0  0
   18.6489  -17.9904    8.2483 O   0  0  0  0  0  0  0  0  0  0  0  0
   16.5462  -17.8983    7.3495 N   0  0  0  0  0  0  0  0  0  0  0  0
   16.2616  -19.2938    7.6494 C   0  0  1  0  0  0  0  0  0  0  0  0
   14.8072  -19.5490    7.8222 C   0  0  0  0  0  0  0  0  0  0  0  0
   14.5948  -20.9081    8.3527 C   0  0  0  0  0  0  0  0  0  0  0  0
   13.5896  -21.6166    8.1028 O   0  0  0  0  0  0  0  0  0  0  0  0
   16.8539  -20.2000    6.6650 C   0  0  0  0  0  0  0  0  0  0  0  0
   17.0653  -19.8766    5.4673 O   0  0  0  0  0  0  0  0  0  0  0  0
   15.5666  -21.4460    9.1840 O   0  0  0  0  0  0  0  0  0  0  0  0
   17.2051  -21.5196    7.1044 N   0  0  0  0  0  0  0  0  0  0  0  0
   17.7525  -22.4800    6.1292 C   0  0  1  0  0  0  0  0  0  0  0  0
   19.2361  -22.2559    5.9841 C   0  0  0  0  0  0  0  0  0  0  0  0
   19.7958  -23.1628    4.9711 C   0  0  0  0  0  0  0  0  0  0  0  0
   19.8725  -22.8720    3.6395 C   0  0  0  0  0  0  0  0  0  0  0  0
   20.4245  -23.7714    2.7340 C   0  0  0  0  0  0  0  0  0  0  0  0
   20.9154  -24.9933    3.1503 C   0  0  0  0  0  0  0  0  0  0  0  0
   20.8328  -25.2813    4.5090 C   0  0  0  0  0  0  0  0  0  0  0  0
   20.2884  -24.3901    5.3917 C   0  0  0  0  0  0  0  0  0  0  0  0
   17.5008  -23.8303    6.6492 C   0  0  0  0  0  0  0  0  0  0  0  0
   17.6650  -24.1078    7.9900 O   0  0  0  0  0  0  0  0  0  0  0  0
   17.1347  -24.7592    5.9046 O   0  0  0  0  0  0  0  0  0  0  0  0
  2  1  1  1
  3  2  1  0
  4  5  2  0
  4  3  1  0
  6  5  1  0
  7  6  2  0
  8  7  1  0
  8  9  2  0
  9  4  1  0
 10 11  2  0
 10  2  1  0
 12 10  1  0
 13 12  1  0
 13 14  1  6
 15 14  1  0
 16 15  2  0
 17 13  1  0
 18 17  2  0
 19 15  1  0
 20 17  1  0
 21 20  1  0
 21 22  1  1
 23 22  1  0
 24 23  2  0
 25 24  1  0
 26 25  2  0
 26 27  1  0
 27 28  2  0
 28 23  1  0
 29 21  1  0
 29 30  1  0
 31 29  2  0
M  END
$$$$
