FDF.pdb
     RDKit          3D

 31 32  0  0  1  0  0  0  0  0999 V2000
   21.8324  -11.8257  -20.4012 N   0  0  0  0  0  0  0  0  0  0  0  0
   20.8749  -11.5270  -19.3740 C   0  0  1  0  0  0  0  0  0  0  0  0
   21.0361  -12.3899  -18.1588 C   0  0  0  0  0  0  0  0  0  0  0  0
   20.8279  -13.8244  -18.3980 C   0  0  0  0  0  0  0  0  0  0  0  0
   19.5508  -14.2779  -18.6474 C   0  0  0  0  0  0  0  0  0  0  0  0
   19.2860  -15.6291  -18.8806 C   0  0  0  0  0  0  0  0  0  0  0  0
   20.3149  -16.5508  -18.8653 C   0  0  0  0  0  0  0  0  0  0  0  0
   21.5857  -16.1002  -18.6171 C   0  0  0  0  0  0  0  0  0  0  0  0
   21.8391  -14.7475  -18.3854 C   0  0  0  0  0  0  0  0  0  0  0  0
   21.0157  -10.1038  -18.8990 C   0  0  0  0  0  0  0  0  0  0  0  0
   22.1336   -9.5291  -18.8986 O   0  0  0  0  0  0  0  0  0  0  0  0
   19.8993   -9.3546  -18.4345 N   0  0  0  0  0  0  0  0  0  0  0  0
   20.0166   -7.9850  -17.9563 C   0  0  1  0  0  0  0  0  0  0  0  0
   19.1089   -7.0550  -18.6786 C   0  0  0  0  0  0  0  0  0  0  0  0
   19.3691   -5.6674  -18.2538 C   0  0  0  0  0  0  0  0  0  0  0  0
   20.4278   -5.0391  -18.4969 O   0  0  0  0  0  0  0  0  0  0  0  0
   19.8406   -7.8913  -16.5067 C   0  0  0  0  0  0  0  0  0  0  0  0
   19.2459   -8.7659  -15.8249 O   0  0  0  0  0  0  0  0  0  0  0  0
   18.3821   -5.0058  -17.5374 O   0  0  0  0  0  0  0  0  0  0  0  0
   20.3795   -6.7378  -15.8459 N   0  0  0  0  0  0  0  0  0  0  0  0
   20.2649   -6.6302  -14.3801 C   0  0  1  0  0  0  0  0  0  0  0  0
   21.3894   -7.3969  -13.7321 C   0  0  0  0  0  0  0  0  0  0  0  0
   21.3085   -7.2880  -12.2681 C   0  0  0  0  0  0  0  0  0  0  0  0
   20.6692   -8.1888  -11.4659 C   0  0  0  0  0  0  0  0  0  0  0  0
   20.6390   -8.0326  -10.0845 C   0  0  0  0  0  0  0  0  0  0  0  0
   21.2556   -6.9582   -9.4738 C   0  0  0  0  0  0  0  0  0  0  0  0
   21.9043   -6.0450  -10.2990 C   0  0  0  0  0  0  0  0  0  0  0  0
   21.9286   -6.2076  -11.6565 C   0  0  0  0  0  0  0  0  0  0  0  0
   20.3663   -5.2069  -14.0319 C   0  0  0  0  0  0  0  0  0  0  0  0
   20.9151   -4.3049  -14.9189 O   0  0  0  0  0  0  0  0  0  0  0  0
   19.9643   -4.7724  -12.9361 O   0  0  0  0  0  0  0  0  0  0  0  0
  2  1  1  6
  3  2  1  0
  4  5  2  0
  4  3  1  0
  6  5  1  0
  7  6  2  0
  8  7  1  0
  8  9  2  0
  9  4  1  0
 10 11  2  0
 10  2  1  0
 12 10  1  0
 13 12  1  0
 13 14  1  6
 15 14  1  0
 16 15  2  0
 17 13  1  0
 18 17  2  0
 19 15  1  0
 20 17  1  0
 21 20  1  0
 21 22  1  1
 23 22  1  0
 24 23  2  0
 25 24  1  0
 26 25  2  0
 26 27  1  0
 27 28  2  0
 28 23  1  0
 29 21  1  0
 29 30  1  0
 31 29  2  0
M  END
$$$$
