FDF.pdb
     RDKit          3D

 31 32  0  0  1  0  0  0  0  0999 V2000
   24.6337  -32.5540  -11.1453 N   0  0  0  0  0  0  0  0  0  0  0  0
   25.1510  -33.8719  -10.9070 C   0  0  1  0  0  0  0  0  0  0  0  0
   26.4693  -34.1105  -11.5796 C   0  0  0  0  0  0  0  0  0  0  0  0
   26.3903  -34.2646  -13.0385 C   0  0  0  0  0  0  0  0  0  0  0  0
   26.8949  -33.2641  -13.8406 C   0  0  0  0  0  0  0  0  0  0  0  0
   26.8487  -33.3491  -15.2337 C   0  0  0  0  0  0  0  0  0  0  0  0
   26.2878  -34.4545  -15.8435 C   0  0  0  0  0  0  0  0  0  0  0  0
   25.7856  -35.4502  -15.0460 C   0  0  0  0  0  0  0  0  0  0  0  0
   25.8370  -35.3550  -13.6546 C   0  0  0  0  0  0  0  0  0  0  0  0
   25.3823  -34.1057   -9.4364 C   0  0  0  0  0  0  0  0  0  0  0  0
   25.5016  -33.1418   -8.6386 O   0  0  0  0  0  0  0  0  0  0  0  0
   25.4749  -35.4162   -8.8912 N   0  0  0  0  0  0  0  0  0  0  0  0
   25.6528  -35.6642   -7.4681 C   0  0  1  0  0  0  0  0  0  0  0  0
   24.9963  -36.9233   -7.0278 C   0  0  0  0  0  0  0  0  0  0  0  0
   24.9229  -36.9640   -5.5558 C   0  0  0  0  0  0  0  0  0  0  0  0
   24.8533  -38.0186   -4.8792 O   0  0  0  0  0  0  0  0  0  0  0  0
   27.0618  -35.6259   -7.0749 C   0  0  0  0  0  0  0  0  0  0  0  0
   27.9775  -36.1882   -7.7298 O   0  0  0  0  0  0  0  0  0  0  0  0
   24.9310  -35.7602   -4.8661 O   0  0  0  0  0  0  0  0  0  0  0  0
   27.3981  -34.9068   -5.8802 N   0  0  0  0  0  0  0  0  0  0  0  0
   28.8095  -34.8288   -5.4615 C   0  0  1  0  0  0  0  0  0  0  0  0
   29.2844  -33.4019   -5.5644 C   0  0  0  0  0  0  0  0  0  0  0  0
   30.7493  -33.3390   -5.4545 C   0  0  0  0  0  0  0  0  0  0  0  0
   31.5998  -33.3441   -6.5223 C   0  0  0  0  0  0  0  0  0  0  0  0
   32.9775  -33.2713   -6.3493 C   0  0  0  0  0  0  0  0  0  0  0  0
   33.5357  -33.1914   -5.0886 C   0  0  0  0  0  0  0  0  0  0  0  0
   32.6614  -33.1871   -4.0062 C   0  0  0  0  0  0  0  0  0  0  0  0
   31.3079  -33.2589   -4.1867 C   0  0  0  0  0  0  0  0  0  0  0  0
   28.8821  -35.2790   -4.0654 C   0  0  0  0  0  0  0  0  0  0  0  0
   30.0534  -35.7985   -3.5556 O   0  0  0  0  0  0  0  0  0  0  0  0
   27.8990  -35.2074   -3.3041 O   0  0  0  0  0  0  0  0  0  0  0  0
  2  1  1  1
  3  2  1  0
  4  5  2  0
  4  3  1  0
  6  5  1  0
  7  6  2  0
  8  7  1  0
  8  9  2  0
  9  4  1  0
 10 11  2  0
 10  2  1  0
 12 10  1  0
 13 12  1  0
 13 14  1  6
 15 14  1  0
 16 15  2  0
 17 13  1  0
 18 17  2  0
 19 15  1  0
 20 17  1  0
 21 20  1  0
 21 22  1  1
 23 22  1  0
 24 23  2  0
 25 24  1  0
 26 25  2  0
 26 27  1  0
 27 28  2  0
 28 23  1  0
 29 21  1  0
 29 30  1  0
 31 29  2  0
M  END
$$$$
