FDF.pdb
     RDKit          3D

 31 32  0  0  1  0  0  0  0  0999 V2000
   29.4799  -19.2880  -14.2722 N   0  0  0  0  0  0  0  0  0  0  0  0
   28.7797  -20.5278  -14.0886 C   0  0  1  0  0  0  0  0  0  0  0  0
   28.6563  -20.9189  -12.6466 C   0  0  0  0  0  0  0  0  0  0  0  0
   29.9182  -21.3295  -12.0163 C   0  0  0  0  0  0  0  0  0  0  0  0
   30.2660  -20.7756  -10.8034 C   0  0  0  0  0  0  0  0  0  0  0  0
   31.4525  -21.1223  -10.1534 C   0  0  0  0  0  0  0  0  0  0  0  0
   32.3130  -22.0409  -10.7226 C   0  0  0  0  0  0  0  0  0  0  0  0
   31.9675  -22.5922  -11.9294 C   0  0  0  0  0  0  0  0  0  0  0  0
   30.7793  -22.2386  -12.5703 C   0  0  0  0  0  0  0  0  0  0  0  0
   27.3726  -20.4397  -14.6208 C   0  0  0  0  0  0  0  0  0  0  0  0
   26.7488  -19.3485  -14.6237 O   0  0  0  0  0  0  0  0  0  0  0  0
   26.6945  -21.5776  -15.1390 N   0  0  0  0  0  0  0  0  0  0  0  0
   25.3089  -21.5320  -15.5822 C   0  0  1  0  0  0  0  0  0  0  0  0
   25.0277  -22.5177  -16.6590 C   0  0  0  0  0  0  0  0  0  0  0  0
   25.8102  -22.1838  -17.8632 C   0  0  0  0  0  0  0  0  0  0  0  0
   25.8163  -21.0560  -18.4135 O   0  0  0  0  0  0  0  0  0  0  0  0
   24.3701  -21.6695  -14.4682 C   0  0  0  0  0  0  0  0  0  0  0  0
   24.3642  -22.6563  -13.6873 O   0  0  0  0  0  0  0  0  0  0  0  0
   26.5944  -23.1776  -18.4310 O   0  0  0  0  0  0  0  0  0  0  0  0
   23.4155  -20.6172  -14.2710 N   0  0  0  0  0  0  0  0  0  0  0  0
   22.4718  -20.7052  -13.1419 C   0  0  1  0  0  0  0  0  0  0  0  0
   22.7916  -19.6286  -12.1366 C   0  0  0  0  0  0  0  0  0  0  0  0
   23.7705  -20.1174  -11.1544 C   0  0  0  0  0  0  0  0  0  0  0  0
   25.1113  -20.2159  -11.3911 C   0  0  0  0  0  0  0  0  0  0  0  0
   25.9859  -20.6771  -10.4133 C   0  0  0  0  0  0  0  0  0  0  0  0
   25.5282  -21.0530   -9.1657 C   0  0  0  0  0  0  0  0  0  0  0  0
   24.1603  -20.9496   -8.9334 C   0  0  0  0  0  0  0  0  0  0  0  0
   23.3083  -20.4947   -9.9014 C   0  0  0  0  0  0  0  0  0  0  0  0
   21.1199  -20.5006  -13.6785 C   0  0  0  0  0  0  0  0  0  0  0  0
   20.0133  -20.9227  -12.9722 O   0  0  0  0  0  0  0  0  0  0  0  0
   20.9305  -19.9452  -14.7771 O   0  0  0  0  0  0  0  0  0  0  0  0
  2  1  1  1
  3  2  1  0
  4  5  2  0
  4  3  1  0
  6  5  1  0
  7  6  2  0
  8  7  1  0
  8  9  2  0
  9  4  1  0
 10 11  2  0
 10  2  1  0
 12 10  1  0
 13 12  1  0
 13 14  1  6
 15 14  1  0
 16 15  2  0
 17 13  1  0
 18 17  2  0
 19 15  1  0
 20 17  1  0
 21 20  1  0
 21 22  1  1
 23 22  1  0
 24 23  2  0
 25 24  1  0
 26 25  2  0
 26 27  1  0
 27 28  2  0
 28 23  1  0
 29 21  1  0
 29 30  1  0
 31 29  2  0
M  END
$$$$
