FDF.pdb
     RDKit          3D

 31 32  0  0  1  0  0  0  0  0999 V2000
   27.7138  -19.4015  -11.4312 N   0  0  0  0  0  0  0  0  0  0  0  0
   27.1353  -20.7150  -11.3961 C   0  0  1  0  0  0  0  0  0  0  0  0
   26.5875  -21.0742  -10.0478 C   0  0  0  0  0  0  0  0  0  0  0  0
   27.5132  -20.8395   -8.9314 C   0  0  0  0  0  0  0  0  0  0  0  0
   28.7070  -21.5272   -8.9023 C   0  0  0  0  0  0  0  0  0  0  0  0
   29.6288  -21.3506   -7.8683 C   0  0  0  0  0  0  0  0  0  0  0  0
   29.3574  -20.4698   -6.8393 C   0  0  0  0  0  0  0  0  0  0  0  0
   28.1699  -19.7853   -6.8677 C   0  0  0  0  0  0  0  0  0  0  0  0
   27.2557  -19.9694   -7.9059 C   0  0  0  0  0  0  0  0  0  0  0  0
   25.9823  -20.8253  -12.3600 C   0  0  0  0  0  0  0  0  0  0  0  0
   25.0828  -19.9481  -12.3964 O   0  0  0  0  0  0  0  0  0  0  0  0
   25.8622  -21.9176  -13.2633 N   0  0  0  0  0  0  0  0  0  0  0  0
   24.7956  -22.0077  -14.2495 C   0  0  1  0  0  0  0  0  0  0  0  0
   25.1924  -22.8063  -15.4391 C   0  0  0  0  0  0  0  0  0  0  0  0
   24.1479  -22.7170  -16.4758 C   0  0  0  0  0  0  0  0  0  0  0  0
   23.1216  -22.0004  -16.3871 O   0  0  0  0  0  0  0  0  0  0  0  0
   23.5462  -22.4966  -13.6655 C   0  0  0  0  0  0  0  0  0  0  0  0
   23.4257  -23.6365  -13.1461 O   0  0  0  0  0  0  0  0  0  0  0  0
   24.3033  -23.4728  -17.6288 O   0  0  0  0  0  0  0  0  0  0  0  0
   22.4117  -21.6193  -13.6951 N   0  0  0  0  0  0  0  0  0  0  0  0
   21.1393  -22.0695  -13.1022 C   0  0  1  0  0  0  0  0  0  0  0  0
   20.7164  -21.1001  -12.0282 C   0  0  0  0  0  0  0  0  0  0  0  0
   20.5327  -19.7553  -12.5934 C   0  0  0  0  0  0  0  0  0  0  0  0
   21.5451  -18.9886  -13.0941 C   0  0  0  0  0  0  0  0  0  0  0  0
   21.3015  -17.7268  -13.6252 C   0  0  0  0  0  0  0  0  0  0  0  0
   20.0241  -17.2032  -13.6648 C   0  0  0  0  0  0  0  0  0  0  0  0
   18.9985  -17.9914  -13.1521 C   0  0  0  0  0  0  0  0  0  0  0  0
   19.2483  -19.2311  -12.6320 C   0  0  0  0  0  0  0  0  0  0  0  0
   20.1360  -22.0943  -14.1747 C   0  0  0  0  0  0  0  0  0  0  0  0
   18.8798  -22.6160  -13.9484 O   0  0  0  0  0  0  0  0  0  0  0  0
   20.3841  -21.6498  -15.3114 O   0  0  0  0  0  0  0  0  0  0  0  0
  2  1  1  1
  3  2  1  0
  4  5  2  0
  4  3  1  0
  6  5  1  0
  7  6  2  0
  8  7  1  0
  8  9  2  0
  9  4  1  0
 10 11  2  0
 10  2  1  0
 12 10  1  0
 13 12  1  0
 13 14  1  6
 15 14  1  0
 16 15  2  0
 17 13  1  0
 18 17  2  0
 19 15  1  0
 20 17  1  0
 21 20  1  0
 21 22  1  1
 23 22  1  0
 24 23  2  0
 25 24  1  0
 26 25  2  0
 26 27  1  0
 27 28  2  0
 28 23  1  0
 29 21  1  0
 29 30  1  0
 31 29  2  0
M  END
$$$$
