FDF.pdb
     RDKit          3D

 31 32  0  0  1  0  0  0  0  0999 V2000
   22.8562  -18.9088  -16.1150 N   0  0  0  0  0  0  0  0  0  0  0  0
   23.7858  -18.5323  -15.0878 C   0  0  1  0  0  0  0  0  0  0  0  0
   23.3131  -17.3655  -14.2739 C   0  0  0  0  0  0  0  0  0  0  0  0
   22.9744  -16.1713  -15.0597 C   0  0  0  0  0  0  0  0  0  0  0  0
   23.9893  -15.4706  -15.6745 C   0  0  0  0  0  0  0  0  0  0  0  0
   23.7339  -14.3267  -16.4337 C   0  0  0  0  0  0  0  0  0  0  0  0
   22.4394  -13.8688  -16.5851 C   0  0  0  0  0  0  0  0  0  0  0  0
   21.4292  -14.5655  -15.9737 C   0  0  0  0  0  0  0  0  0  0  0  0
   21.6957  -15.7076  -15.2172 C   0  0  0  0  0  0  0  0  0  0  0  0
   24.0044  -19.6614  -14.1141 C   0  0  0  0  0  0  0  0  0  0  0  0
   23.0323  -20.2621  -13.5905 O   0  0  0  0  0  0  0  0  0  0  0  0
   25.3092  -20.0936  -13.7480 N   0  0  0  0  0  0  0  0  0  0  0  0
   25.5443  -21.2637  -12.9151 C   0  0  1  0  0  0  0  0  0  0  0  0
   26.3713  -22.2898  -13.6033 C   0  0  0  0  0  0  0  0  0  0  0  0
   27.4266  -21.6349  -14.3977 C   0  0  0  0  0  0  0  0  0  0  0  0
   27.2149  -20.9447  -15.4241 O   0  0  0  0  0  0  0  0  0  0  0  0
   26.1042  -20.9074  -11.6110 C   0  0  0  0  0  0  0  0  0  0  0  0
   26.9243  -19.9675  -11.4446 O   0  0  0  0  0  0  0  0  0  0  0  0
   28.7438  -21.7875  -13.9893 O   0  0  0  0  0  0  0  0  0  0  0  0
   25.6862  -21.6786  -10.4761 N   0  0  0  0  0  0  0  0  0  0  0  0
   26.2781  -21.3940   -9.1563 C   0  0  1  0  0  0  0  0  0  0  0  0
   26.9418  -20.0409   -9.1862 C   0  0  0  0  0  0  0  0  0  0  0  0
   27.5310  -19.7288   -7.8757 C   0  0  0  0  0  0  0  0  0  0  0  0
   27.1978  -18.6385   -7.1247 C   0  0  0  0  0  0  0  0  0  0  0  0
   27.7860  -18.4069   -5.8862 C   0  0  0  0  0  0  0  0  0  0  0  0
   28.7303  -19.2730   -5.3710 C   0  0  0  0  0  0  0  0  0  0  0  0
   29.0640  -20.3812   -6.1433 C   0  0  0  0  0  0  0  0  0  0  0  0
   28.4798  -20.6004   -7.3600 C   0  0  0  0  0  0  0  0  0  0  0  0
   25.1867  -21.3924   -8.1733 C   0  0  0  0  0  0  0  0  0  0  0  0
   25.3801  -21.9085   -6.9093 O   0  0  0  0  0  0  0  0  0  0  0  0
   24.0629  -20.9300   -8.4460 O   0  0  0  0  0  0  0  0  0  0  0  0
  2  1  1  6
  3  2  1  0
  4  5  2  0
  4  3  1  0
  6  5  1  0
  7  6  2  0
  8  7  1  0
  8  9  2  0
  9  4  1  0
 10 11  2  0
 10  2  1  0
 12 10  1  0
 13 12  1  0
 13 14  1  6
 15 14  1  0
 16 15  2  0
 17 13  1  0
 18 17  2  0
 19 15  1  0
 20 17  1  0
 21 20  1  0
 21 22  1  6
 23 22  1  0
 24 23  2  0
 25 24  1  0
 26 25  2  0
 26 27  1  0
 27 28  2  0
 28 23  1  0
 29 21  1  0
 29 30  1  0
 31 29  2  0
M  END
$$$$
