PLK.pdb
     RDKit          3D

 25 25  0  0  1  0  0  0  0  0999 V2000
    7.4872  -16.2078   20.8035 N   0  0  0  0  0  0  0  0  0  0  0  0
    6.8377  -16.3403   19.5289 C   0  0  0  0  0  0  0  0  0  0  0  0
    7.3489  -15.2232   18.6456 C   0  0  0  0  0  0  0  0  0  0  0  0
    7.8550  -14.2276   19.6967 C   0  0  0  0  0  0  0  0  0  0  0  0
    8.4625  -15.1715   20.7086 C   0  0  1  0  0  0  0  0  0  0  0  0
    8.6804  -14.5171   22.0219 C   0  0  0  0  0  0  0  0  0  0  0  0
    9.8029  -13.9922   22.2339 O   0  0  0  0  0  0  0  0  0  0  0  0
    8.0232  -11.7377   26.2560 C   0  0  0  0  0  0  0  0  0  0  0  0
    6.6829  -12.3705   26.0512 C   0  0  2  0  0  0  0  0  0  0  0  0
    6.1263  -12.9040   27.3516 C   0  0  0  0  0  0  0  0  0  0  0  0
    6.5784  -13.3126   24.9198 C   0  0  0  0  0  0  0  0  0  0  0  0
    7.8287  -13.8076   24.2945 C   0  0  2  0  0  0  0  0  0  0  0  0
    7.6818  -14.4636   23.0318 N   0  0  0  0  0  0  0  0  0  0  0  0
    8.6322  -14.6057   25.2713 C   0  0  0  0  0  0  0  0  0  0  0  0
    8.8767  -14.0606   26.3784 O   0  0  0  0  0  0  0  0  0  0  0  0
    9.1053  -15.9039   24.9941 N   0  0  0  0  0  0  0  0  0  0  0  0
    9.9075  -16.6335   25.9916 C   0  0  1  0  0  0  0  0  0  0  0  0
    9.2873  -17.9844   26.2367 C   0  0  0  0  0  0  0  0  0  0  0  0
   10.0233  -18.8030   27.2640 C   0  0  0  0  0  0  0  0  0  0  0  0
    9.3987  -20.2073   27.3191 C   0  0  0  0  0  0  0  0  0  0  0  0
   10.1809  -21.0051   28.3356 C   0  0  0  0  0  0  0  0  0  0  0  0
    9.5249  -22.3030   28.4845 N   0  0  0  0  0  0  0  0  0  0  0  0
   11.3104  -16.6647   25.5732 C   0  0  0  0  0  0  0  0  0  0  0  0
   12.3824  -16.9274   26.4076 O   0  0  0  0  0  0  0  0  0  0  0  0
   11.6402  -16.4390   24.3543 O   0  0  0  0  0  0  0  0  0  0  0  0
  1  2  1  0
  1  5  1  0
  2  3  1  0
  3  4  1  0
  5  4  1  0
  5  6  1  1
  6 13  1  0
  7  6  2  0
  9  8  1  1
  9 10  1  0
 12 11  1  1
 11  9  1  0
 12 13  1  0
 14 12  1  0
 15 14  2  0
 16 14  1  0
 17 23  1  0
 17 16  1  0
 17 18  1  6
 19 18  1  0
 20 19  1  0
 21 20  1  0
 22 21  1  0
 23 24  1  0
 25 23  2  0
M  END
$$$$
