PLK.pdb
     RDKit          3D

 25 25  0  0  1  0  0  0  0  0999 V2000
    7.0435  -14.6575   20.6730 N   0  0  0  0  0  0  0  0  0  0  0  0
    6.5261  -13.9328   19.5455 C   0  0  0  0  0  0  0  0  0  0  0  0
    7.5704  -12.9120   19.1498 C   0  0  0  0  0  0  0  0  0  0  0  0
    8.3758  -12.7984   20.4501 C   0  0  0  0  0  0  0  0  0  0  0  0
    8.3885  -14.2410   20.8999 C   0  0  1  0  0  0  0  0  0  0  0  0
    8.7588  -14.3767   22.3299 C   0  0  0  0  0  0  0  0  0  0  0  0
    9.9789  -14.4948   22.6087 O   0  0  0  0  0  0  0  0  0  0  0  0
    8.0900  -11.6551   26.1058 C   0  0  0  0  0  0  0  0  0  0  0  0
    6.9130  -12.4885   25.7072 C   0  0  2  0  0  0  0  0  0  0  0  0
    5.6591  -12.0406   26.4229 C   0  0  0  0  0  0  0  0  0  0  0  0
    7.1223  -13.9496   25.7160 C   0  0  0  0  0  0  0  0  0  0  0  0
    8.1042  -14.5287   24.7675 C   0  0  2  0  0  0  0  0  0  0  0  0
    7.7990  -14.3778   23.3782 N   0  0  0  0  0  0  0  0  0  0  0  0
    8.4331  -15.9399   25.1378 C   0  0  0  0  0  0  0  0  0  0  0  0
    7.5002  -16.7789   25.0453 O   0  0  0  0  0  0  0  0  0  0  0  0
    9.7130  -16.3395   25.5716 N   0  0  0  0  0  0  0  0  0  0  0  0
   10.0026  -17.7610   25.8285 C   0  0  1  0  0  0  0  0  0  0  0  0
   10.9572  -18.2713   24.7805 C   0  0  0  0  0  0  0  0  0  0  0  0
   11.3791  -19.6999   25.0005 C   0  0  0  0  0  0  0  0  0  0  0  0
   12.3369  -20.1135   23.8705 C   0  0  0  0  0  0  0  0  0  0  0  0
   12.7180  -21.5549   24.1125 C   0  0  0  0  0  0  0  0  0  0  0  0
   13.7218  -21.9242   23.1159 N   0  0  0  0  0  0  0  0  0  0  0  0
   10.4535  -17.9336   27.2110 C   0  0  0  0  0  0  0  0  0  0  0  0
   10.6564  -16.9054   28.1144 O   0  0  0  0  0  0  0  0  0  0  0  0
   10.6981  -19.1005   27.6840 O   0  0  0  0  0  0  0  0  0  0  0  0
  1  2  1  0
  1  5  1  0
  2  3  1  0
  3  4  1  0
  5  4  1  0
  5  6  1  1
  6 13  1  0
  7  6  2  0
  9  8  1  1
  9 10  1  0
 12 11  1  1
 11  9  1  0
 12 13  1  0
 14 12  1  0
 15 14  2  0
 16 14  1  0
 17 23  1  0
 17 16  1  0
 17 18  1  6
 19 18  1  0
 20 19  1  0
 21 20  1  0
 22 21  1  0
 23 24  1  0
 25 23  2  0
M  END
$$$$
