PLK.pdb
     RDKit          3D

 25 25  0  0  1  0  0  0  0  0999 V2000
    7.3301  -14.8919   20.1521 N   0  0  0  0  0  0  0  0  0  0  0  0
    6.8155  -14.3381   18.9304 C   0  0  0  0  0  0  0  0  0  0  0  0
    7.7449  -13.2174   18.5185 C   0  0  0  0  0  0  0  0  0  0  0  0
    8.4193  -12.8901   19.8565 C   0  0  0  0  0  0  0  0  0  0  0  0
    8.5854  -14.2767   20.4343 C   0  0  1  0  0  0  0  0  0  0  0  0
    8.8523  -14.2452   21.8931 C   0  0  0  0  0  0  0  0  0  0  0  0
   10.0474  -14.1304   22.2659 O   0  0  0  0  0  0  0  0  0  0  0  0
    5.9521  -12.6080   27.1563 C   0  0  0  0  0  0  0  0  0  0  0  0
    7.1600  -13.0797   26.4097 C   0  0  2  0  0  0  0  0  0  0  0  0
    8.3471  -12.1798   26.6671 C   0  0  0  0  0  0  0  0  0  0  0  0
    6.9523  -13.4105   24.9863 C   0  0  0  0  0  0  0  0  0  0  0  0
    8.0092  -14.1703   24.2758 C   0  0  2  0  0  0  0  0  0  0  0  0
    7.8220  -14.3388   22.8677 N   0  0  0  0  0  0  0  0  0  0  0  0
    8.3030  -15.4573   24.9786 C   0  0  0  0  0  0  0  0  0  0  0  0
    7.3165  -16.1896   25.2494 O   0  0  0  0  0  0  0  0  0  0  0  0
    9.6074  -15.8563   25.3326 N   0  0  0  0  0  0  0  0  0  0  0  0
    9.8472  -17.1882   25.9149 C   0  0  1  0  0  0  0  0  0  0  0  0
   10.9549  -17.8709   25.1555 C   0  0  0  0  0  0  0  0  0  0  0  0
   10.6612  -18.0349   23.6878 C   0  0  0  0  0  0  0  0  0  0  0  0
   11.8518  -18.7435   23.0201 C   0  0  0  0  0  0  0  0  0  0  0  0
   11.5826  -18.7660   21.5340 C   0  0  0  0  0  0  0  0  0  0  0  0
   12.7694  -19.3074   20.8740 N   0  0  0  0  0  0  0  0  0  0  0  0
   10.0710  -17.0664   27.3569 C   0  0  0  0  0  0  0  0  0  0  0  0
   10.0083  -18.1114   28.2615 O   0  0  0  0  0  0  0  0  0  0  0  0
   10.3493  -15.9321   27.8874 O   0  0  0  0  0  0  0  0  0  0  0  0
  1  2  1  0
  1  5  1  0
  2  3  1  0
  3  4  1  0
  5  4  1  0
  5  6  1  1
  6 13  1  0
  7  6  2  0
  9  8  1  6
  9 10  1  0
 12 11  1  1
 11  9  1  0
 12 13  1  0
 14 12  1  0
 15 14  2  0
 16 14  1  0
 17 23  1  0
 17 16  1  0
 17 18  1  6
 19 18  1  0
 20 19  1  0
 21 20  1  0
 22 21  1  0
 23 24  1  0
 25 23  2  0
M  END
$$$$
