PLK.pdb
     RDKit          3D

 25 25  0  0  1  0  0  0  0  0999 V2000
    7.2859  -15.2480   20.7561 N   0  0  0  0  0  0  0  0  0  0  0  0
    6.9013  -14.8264   19.4376 C   0  0  0  0  0  0  0  0  0  0  0  0
    7.9733  -13.8832   18.9370 C   0  0  0  0  0  0  0  0  0  0  0  0
    8.6119  -13.4383   20.2585 C   0  0  0  0  0  0  0  0  0  0  0  0
    8.5876  -14.7356   21.0333 C   0  0  1  0  0  0  0  0  0  0  0  0
    8.7817  -14.5206   22.4882 C   0  0  0  0  0  0  0  0  0  0  0  0
    9.9609  -14.5009   22.9235 O   0  0  0  0  0  0  0  0  0  0  0  0
    8.4771  -11.5867   26.3499 C   0  0  0  0  0  0  0  0  0  0  0  0
    7.1210  -11.7750   25.7462 C   0  0  2  0  0  0  0  0  0  0  0  0
    6.0572  -11.0809   26.5659 C   0  0  0  0  0  0  0  0  0  0  0  0
    6.7739  -13.1546   25.3529 C   0  0  0  0  0  0  0  0  0  0  0  0
    7.8367  -14.0144   24.7782 C   0  0  2  0  0  0  0  0  0  0  0  0
    7.6998  -14.3393   23.3918 N   0  0  0  0  0  0  0  0  0  0  0  0
    8.0683  -15.2183   25.6346 C   0  0  0  0  0  0  0  0  0  0  0  0
    8.2616  -15.0095   26.8601 O   0  0  0  0  0  0  0  0  0  0  0  0
    8.0755  -16.5317   25.1238 N   0  0  0  0  0  0  0  0  0  0  0  0
    8.0588  -17.6870   26.0380 C   0  0  1  0  0  0  0  0  0  0  0  0
    7.2506  -18.7983   25.4202 C   0  0  0  0  0  0  0  0  0  0  0  0
    7.2563  -20.0655   26.2335 C   0  0  0  0  0  0  0  0  0  0  0  0
    6.5021  -21.1571   25.4558 C   0  0  0  0  0  0  0  0  0  0  0  0
    6.5544  -22.4164   26.2882 C   0  0  0  0  0  0  0  0  0  0  0  0
    5.9824  -23.5011   25.4924 N   0  0  0  0  0  0  0  0  0  0  0  0
    9.4294  -18.0500   26.4040 C   0  0  0  0  0  0  0  0  0  0  0  0
    9.7841  -18.7956   27.5143 O   0  0  0  0  0  0  0  0  0  0  0  0
   10.4242  -17.6796   25.6839 O   0  0  0  0  0  0  0  0  0  0  0  0
  1  2  1  0
  1  5  1  0
  2  3  1  0
  3  4  1  0
  5  4  1  0
  5  6  1  1
  6 13  1  0
  7  6  2  0
  9  8  1  1
  9 10  1  0
 12 11  1  1
 11  9  1  0
 12 13  1  0
 14 12  1  0
 15 14  2  0
 16 14  1  0
 17 23  1  0
 17 16  1  0
 17 18  1  6
 19 18  1  0
 20 19  1  0
 21 20  1  0
 22 21  1  0
 23 24  1  0
 25 23  2  0
M  END
$$$$
