PLK.pdb
     RDKit          3D

 25 25  0  0  1  0  0  0  0  0999 V2000
    7.4006  -15.0179   20.8528 N   0  0  0  0  0  0  0  0  0  0  0  0
    6.7029  -14.6168   19.6627 C   0  0  0  0  0  0  0  0  0  0  0  0
    7.4505  -13.4378   19.0792 C   0  0  0  0  0  0  0  0  0  0  0  0
    8.2175  -12.9395   20.3103 C   0  0  0  0  0  0  0  0  0  0  0  0
    8.5997  -14.2523   20.9539 C   0  0  1  0  0  0  0  0  0  0  0  0
    9.0103  -14.0816   22.3691 C   0  0  0  0  0  0  0  0  0  0  0  0
   10.2019  -13.7514   22.5958 O   0  0  0  0  0  0  0  0  0  0  0  0
    7.6587  -11.2717   25.6983 C   0  0  0  0  0  0  0  0  0  0  0  0
    6.7797  -12.4738   25.5527 C   0  0  2  0  0  0  0  0  0  0  0  0
    5.4783  -12.2926   26.3002 C   0  0  0  0  0  0  0  0  0  0  0  0
    7.4278  -13.7804   25.7796 C   0  0  0  0  0  0  0  0  0  0  0  0
    8.4890  -14.2156   24.8397 C   0  0  2  0  0  0  0  0  0  0  0  0
    8.1190  -14.2749   23.4592 N   0  0  0  0  0  0  0  0  0  0  0  0
    9.1407  -15.4736   25.3187 C   0  0  0  0  0  0  0  0  0  0  0  0
    9.2790  -15.5983   26.5629 O   0  0  0  0  0  0  0  0  0  0  0  0
    9.5875  -16.4853   24.4452 N   0  0  0  0  0  0  0  0  0  0  0  0
   10.2588  -17.6848   24.9755 C   0  0  1  0  0  0  0  0  0  0  0  0
    9.8707  -18.8801   24.1445 C   0  0  0  0  0  0  0  0  0  0  0  0
   10.5800  -20.1453   24.5487 C   0  0  0  0  0  0  0  0  0  0  0  0
    9.6715  -21.3454   24.2329 C   0  0  0  0  0  0  0  0  0  0  0  0
   10.4221  -22.5927   24.6360 C   0  0  0  0  0  0  0  0  0  0  0  0
    9.6152  -23.7460   24.2409 N   0  0  0  0  0  0  0  0  0  0  0  0
   11.6997  -17.4437   25.0755 C   0  0  0  0  0  0  0  0  0  0  0  0
   12.3562  -16.3347   24.5719 O   0  0  0  0  0  0  0  0  0  0  0  0
   12.4700  -18.2857   25.6611 O   0  0  0  0  0  0  0  0  0  0  0  0
  1  2  1  0
  1  5  1  0
  2  3  1  0
  3  4  1  0
  5  4  1  0
  5  6  1  1
  6 13  1  0
  7  6  2  0
  9  8  1  1
  9 10  1  0
 12 11  1  1
 11  9  1  0
 12 13  1  0
 14 12  1  0
 15 14  2  0
 16 14  1  0
 17 23  1  0
 17 16  1  0
 17 18  1  6
 19 18  1  0
 20 19  1  0
 21 20  1  0
 22 21  1  0
 23 24  1  0
 25 23  2  0
M  END
$$$$
