PLK.pdb
     RDKit          3D

 25 25  0  0  1  0  0  0  0  0999 V2000
    7.2828  -14.8941   20.8023 N   0  0  0  0  0  0  0  0  0  0  0  0
    6.7397  -14.2774   19.6238 C   0  0  0  0  0  0  0  0  0  0  0  0
    7.6941  -13.1780   19.2114 C   0  0  0  0  0  0  0  0  0  0  0  0
    8.4359  -12.9250   20.5297 C   0  0  0  0  0  0  0  0  0  0  0  0
    8.5717  -14.3369   21.0514 C   0  0  1  0  0  0  0  0  0  0  0  0
    8.9002  -14.3684   22.4977 C   0  0  0  0  0  0  0  0  0  0  0  0
   10.0932  -14.1531   22.8306 O   0  0  0  0  0  0  0  0  0  0  0  0
    8.1258  -11.7468   25.9880 C   0  0  0  0  0  0  0  0  0  0  0  0
    6.9512  -12.6249   25.6912 C   0  0  2  0  0  0  0  0  0  0  0  0
    5.7148  -12.1475   26.4185 C   0  0  0  0  0  0  0  0  0  0  0  0
    7.1874  -14.0782   25.7947 C   0  0  0  0  0  0  0  0  0  0  0  0
    8.2021  -14.6944   24.9059 C   0  0  2  0  0  0  0  0  0  0  0  0
    7.9301  -14.6292   23.5031 N   0  0  0  0  0  0  0  0  0  0  0  0
    8.5434  -16.0760   25.3657 C   0  0  0  0  0  0  0  0  0  0  0  0
    7.5802  -16.8668   25.5374 O   0  0  0  0  0  0  0  0  0  0  0  0
    9.8664  -16.4993   25.6030 N   0  0  0  0  0  0  0  0  0  0  0  0
   10.1387  -17.8733   26.0600 C   0  0  1  0  0  0  0  0  0  0  0  0
   11.2936  -18.4387   25.2749 C   0  0  0  0  0  0  0  0  0  0  0  0
   11.2097  -18.1543   23.7987 C   0  0  0  0  0  0  0  0  0  0  0  0
   12.5062  -18.6363   23.1265 C   0  0  0  0  0  0  0  0  0  0  0  0
   12.3617  -18.3846   21.6441 C   0  0  0  0  0  0  0  0  0  0  0  0
   13.5852  -18.8480   20.9918 N   0  0  0  0  0  0  0  0  0  0  0  0
   10.3145  -17.8870   27.5136 C   0  0  0  0  0  0  0  0  0  0  0  0
   10.3618  -16.7626   28.3186 O   0  0  0  0  0  0  0  0  0  0  0  0
   10.4415  -18.9923   28.1520 O   0  0  0  0  0  0  0  0  0  0  0  0
  1  2  1  0
  1  5  1  0
  2  3  1  0
  3  4  1  0
  5  4  1  0
  5  6  1  1
  6 13  1  0
  7  6  2  0
  9  8  1  1
  9 10  1  0
 12 11  1  1
 11  9  1  0
 12 13  1  0
 14 12  1  0
 15 14  2  0
 16 14  1  0
 17 23  1  0
 17 16  1  0
 17 18  1  6
 19 18  1  0
 20 19  1  0
 21 20  1  0
 22 21  1  0
 23 24  1  0
 25 23  2  0
M  END
$$$$
