PLK.pdb
     RDKit          3D

 25 25  0  0  1  0  0  0  0  0999 V2000
    7.1936  -14.7531   20.6013 N   0  0  0  0  0  0  0  0  0  0  0  0
    6.6650  -13.9996   19.4982 C   0  0  0  0  0  0  0  0  0  0  0  0
    7.6370  -12.8751   19.2152 C   0  0  0  0  0  0  0  0  0  0  0  0
    8.3762  -12.7832   20.5559 C   0  0  0  0  0  0  0  0  0  0  0  0
    8.4893  -14.2467   20.9155 C   0  0  1  0  0  0  0  0  0  0  0  0
    8.8105  -14.4458   22.3499 C   0  0  0  0  0  0  0  0  0  0  0  0
   10.0203  -14.5790   22.6646 O   0  0  0  0  0  0  0  0  0  0  0  0
    7.8723  -11.6471   25.9644 C   0  0  0  0  0  0  0  0  0  0  0  0
    6.7419  -12.5539   25.5920 C   0  0  2  0  0  0  0  0  0  0  0  0
    5.4629  -12.1462   26.2873 C   0  0  0  0  0  0  0  0  0  0  0  0
    7.0261  -14.0010   25.6538 C   0  0  0  0  0  0  0  0  0  0  0  0
    8.0800  -14.5526   24.7683 C   0  0  2  0  0  0  0  0  0  0  0  0
    7.8155  -14.4907   23.3639 N   0  0  0  0  0  0  0  0  0  0  0  0
    8.4936  -15.9172   25.2196 C   0  0  0  0  0  0  0  0  0  0  0  0
    7.6271  -16.8254   25.1354 O   0  0  0  0  0  0  0  0  0  0  0  0
    9.7805  -16.2016   25.7185 N   0  0  0  0  0  0  0  0  0  0  0  0
   10.1418  -17.5756   26.1085 C   0  0  1  0  0  0  0  0  0  0  0  0
   11.3279  -18.0274   25.2967 C   0  0  0  0  0  0  0  0  0  0  0  0
   11.7566  -19.4389   25.5985 C   0  0  0  0  0  0  0  0  0  0  0  0
   12.9564  -19.7945   24.7044 C   0  0  0  0  0  0  0  0  0  0  0  0
   13.3625  -21.2094   25.0428 C   0  0  0  0  0  0  0  0  0  0  0  0
   14.5845  -21.5124   24.2999 N   0  0  0  0  0  0  0  0  0  0  0  0
   10.3230  -17.6481   27.5597 C   0  0  0  0  0  0  0  0  0  0  0  0
   10.3013  -18.8132   28.3057 O   0  0  0  0  0  0  0  0  0  0  0  0
   10.5199  -16.5872   28.2534 O   0  0  0  0  0  0  0  0  0  0  0  0
  1  2  1  0
  1  5  1  0
  2  3  1  0
  3  4  1  0
  5  4  1  0
  5  6  1  1
  6 13  1  0
  7  6  2  0
  9  8  1  1
  9 10  1  0
 12 11  1  1
 11  9  1  0
 12 13  1  0
 14 12  1  0
 15 14  2  0
 16 14  1  0
 17 23  1  0
 17 16  1  0
 17 18  1  6
 19 18  1  0
 20 19  1  0
 21 20  1  0
 22 21  1  0
 23 24  1  0
 25 23  2  0
M  END
$$$$
