PLK.pdb
     RDKit          3D

 25 25  0  0  1  0  0  0  0  0999 V2000
    7.1198  -14.8339   20.7625 N   0  0  0  0  0  0  0  0  0  0  0  0
    6.5850  -14.1153   19.6393 C   0  0  0  0  0  0  0  0  0  0  0  0
    7.5397  -12.9815   19.3353 C   0  0  0  0  0  0  0  0  0  0  0  0
    8.2696  -12.8459   20.6773 C   0  0  0  0  0  0  0  0  0  0  0  0
    8.4050  -14.2985   21.0717 C   0  0  1  0  0  0  0  0  0  0  0  0
    8.7213  -14.4587   22.5121 C   0  0  0  0  0  0  0  0  0  0  0  0
    9.9329  -14.5315   22.8395 O   0  0  0  0  0  0  0  0  0  0  0  0
    7.7713  -11.8363   26.3542 C   0  0  0  0  0  0  0  0  0  0  0  0
    6.6510  -12.6928   25.8538 C   0  0  2  0  0  0  0  0  0  0  0  0
    5.3412  -12.3158   26.5078 C   0  0  0  0  0  0  0  0  0  0  0  0
    6.9120  -14.1452   25.8212 C   0  0  0  0  0  0  0  0  0  0  0  0
    7.9752  -14.6522   24.9203 C   0  0  2  0  0  0  0  0  0  0  0  0
    7.7199  -14.5314   23.5180 N   0  0  0  0  0  0  0  0  0  0  0  0
    8.3939  -16.0324   25.3155 C   0  0  0  0  0  0  0  0  0  0  0  0
    7.5504  -16.9492   25.1404 O   0  0  0  0  0  0  0  0  0  0  0  0
    9.6615  -16.3222   25.8589 N   0  0  0  0  0  0  0  0  0  0  0  0
   10.0591  -17.7165   26.1206 C   0  0  1  0  0  0  0  0  0  0  0  0
   11.0054  -18.1747   25.0414 C   0  0  0  0  0  0  0  0  0  0  0  0
   11.4406  -19.6077   25.1965 C   0  0  0  0  0  0  0  0  0  0  0  0
   12.3363  -19.9854   24.0047 C   0  0  0  0  0  0  0  0  0  0  0  0
   12.6993  -21.4432   24.1624 C   0  0  0  0  0  0  0  0  0  0  0  0
   13.6131  -21.7952   23.0769 N   0  0  0  0  0  0  0  0  0  0  0  0
   10.5744  -17.8375   27.4860 C   0  0  0  0  0  0  0  0  0  0  0  0
   10.8581  -16.7745   28.3250 O   0  0  0  0  0  0  0  0  0  0  0  0
   10.8034  -18.9881   28.0046 O   0  0  0  0  0  0  0  0  0  0  0  0
  1  2  1  0
  1  5  1  0
  2  3  1  0
  3  4  1  0
  5  4  1  0
  5  6  1  1
  6 13  1  0
  7  6  2  0
  9  8  1  1
  9 10  1  0
 12 11  1  1
 11  9  1  0
 12 13  1  0
 14 12  1  0
 15 14  2  0
 16 14  1  0
 17 23  1  0
 17 16  1  0
 17 18  1  6
 19 18  1  0
 20 19  1  0
 21 20  1  0
 22 21  1  0
 23 24  1  0
 25 23  2  0
M  END
$$$$
