PLK.pdb
     RDKit          3D

 25 25  0  0  1  0  0  0  0  0999 V2000
    7.3122  -15.7494   21.2871 N   0  0  0  0  0  0  0  0  0  0  0  0
    6.7401  -15.3273   20.0387 C   0  0  0  0  0  0  0  0  0  0  0  0
    7.6381  -14.2476   19.4752 C   0  0  0  0  0  0  0  0  0  0  0  0
    8.3643  -13.7802   20.7425 C   0  0  0  0  0  0  0  0  0  0  0  0
    8.5709  -15.0991   21.4509 C   0  0  1  0  0  0  0  0  0  0  0  0
    8.8986  -14.9166   22.8861 C   0  0  0  0  0  0  0  0  0  0  0  0
   10.1012  -14.7112   23.1891 O   0  0  0  0  0  0  0  0  0  0  0  0
    8.1526  -11.8453   26.1184 C   0  0  0  0  0  0  0  0  0  0  0  0
    6.9526  -12.7156   25.9149 C   0  0  2  0  0  0  0  0  0  0  0  0
    5.7442  -12.1555   26.6300 C   0  0  0  0  0  0  0  0  0  0  0  0
    7.1596  -14.1620   26.1239 C   0  0  0  0  0  0  0  0  0  0  0  0
    8.1910  -14.8529   25.3127 C   0  0  2  0  0  0  0  0  0  0  0  0
    7.9174  -14.9651   23.9132 N   0  0  0  0  0  0  0  0  0  0  0  0
    8.5702  -16.1590   25.9348 C   0  0  0  0  0  0  0  0  0  0  0  0
    7.6798  -17.0472   25.9678 O   0  0  0  0  0  0  0  0  0  0  0  0
    9.8511  -16.4114   26.4654 N   0  0  0  0  0  0  0  0  0  0  0  0
   10.1745  -17.7304   27.0367 C   0  0  1  0  0  0  0  0  0  0  0  0
   11.2033  -18.4089   26.1701 C   0  0  0  0  0  0  0  0  0  0  0  0
   11.6715  -19.7299   26.7205 C   0  0  0  0  0  0  0  0  0  0  0  0
   12.7817  -20.2808   25.8098 C   0  0  0  0  0  0  0  0  0  0  0  0
   13.1929  -21.6229   26.3678 C   0  0  0  0  0  0  0  0  0  0  0  0
   14.2798  -22.1375   25.5365 N   0  0  0  0  0  0  0  0  0  0  0  0
   10.5527  -17.5825   28.4436 C   0  0  0  0  0  0  0  0  0  0  0  0
   10.7075  -16.3753   29.1018 O   0  0  0  0  0  0  0  0  0  0  0  0
   10.7732  -18.6103   29.1786 O   0  0  0  0  0  0  0  0  0  0  0  0
  1  2  1  0
  1  5  1  0
  2  3  1  0
  3  4  1  0
  5  4  1  0
  5  6  1  1
  6 13  1  0
  7  6  2  0
  9  8  1  1
  9 10  1  0
 12 11  1  1
 11  9  1  0
 12 13  1  0
 14 12  1  0
 15 14  2  0
 16 14  1  0
 17 23  1  0
 17 16  1  0
 17 18  1  6
 19 18  1  0
 20 19  1  0
 21 20  1  0
 22 21  1  0
 23 24  1  0
 25 23  2  0
M  END
$$$$
