PLK.pdb
     RDKit          3D

 25 25  0  0  1  0  0  0  0  0999 V2000
    7.3140  -15.0242   20.7146 N   0  0  0  0  0  0  0  0  0  0  0  0
    6.6837  -14.4771   19.5452 C   0  0  0  0  0  0  0  0  0  0  0  0
    7.4720  -13.2500   19.1424 C   0  0  0  0  0  0  0  0  0  0  0  0
    8.1775  -12.9097   20.4609 C   0  0  0  0  0  0  0  0  0  0  0  0
    8.5131  -14.2940   20.9657 C   0  0  1  0  0  0  0  0  0  0  0  0
    8.8500  -14.2950   22.4103 C   0  0  0  0  0  0  0  0  0  0  0  0
   10.0541  -14.1251   22.7294 O   0  0  0  0  0  0  0  0  0  0  0  0
    7.8872  -11.6721   26.0473 C   0  0  0  0  0  0  0  0  0  0  0  0
    6.7876  -12.6181   25.6803 C   0  0  2  0  0  0  0  0  0  0  0  0
    5.4975  -12.2534   26.3789 C   0  0  0  0  0  0  0  0  0  0  0  0
    7.1218  -14.0544   25.7439 C   0  0  0  0  0  0  0  0  0  0  0  0
    8.1625  -14.5791   24.8269 C   0  0  2  0  0  0  0  0  0  0  0  0
    7.8761  -14.4782   23.4291 N   0  0  0  0  0  0  0  0  0  0  0  0
    8.5848  -15.9551   25.2332 C   0  0  0  0  0  0  0  0  0  0  0  0
    7.7032  -16.8514   25.1889 O   0  0  0  0  0  0  0  0  0  0  0  0
    9.8958  -16.2624   25.6492 N   0  0  0  0  0  0  0  0  0  0  0  0
   10.2571  -17.6430   26.0154 C   0  0  1  0  0  0  0  0  0  0  0  0
   11.5504  -18.0148   25.3379 C   0  0  0  0  0  0  0  0  0  0  0  0
   11.9773  -19.4344   25.6019 C   0  0  0  0  0  0  0  0  0  0  0  0
   13.3534  -19.6666   24.9555 C   0  0  0  0  0  0  0  0  0  0  0  0
   13.7118  -21.1173   25.1756 C   0  0  0  0  0  0  0  0  0  0  0  0
   15.0206  -21.3506   24.5674 N   0  0  0  0  0  0  0  0  0  0  0  0
   10.2602  -17.7851   27.4728 C   0  0  0  0  0  0  0  0  0  0  0  0
   10.0230  -16.7600   28.3713 O   0  0  0  0  0  0  0  0  0  0  0  0
   10.4947  -18.9193   28.0241 O   0  0  0  0  0  0  0  0  0  0  0  0
  1  2  1  0
  1  5  1  0
  2  3  1  0
  3  4  1  0
  5  4  1  0
  5  6  1  1
  6 13  1  0
  7  6  2  0
  9  8  1  1
  9 10  1  0
 12 11  1  1
 11  9  1  0
 12 13  1  0
 14 12  1  0
 15 14  2  0
 16 14  1  0
 17 23  1  0
 17 16  1  0
 17 18  1  1
 19 18  1  0
 20 19  1  0
 21 20  1  0
 22 21  1  0
 23 24  1  0
 25 23  2  0
M  END
$$$$
