PLK.pdb
     RDKit          3D

 25 25  0  0  1  0  0  0  0  0999 V2000
    7.0920  -14.8149   20.4213 N   0  0  0  0  0  0  0  0  0  0  0  0
    6.5519  -14.0661   19.3205 C   0  0  0  0  0  0  0  0  0  0  0  0
    7.5041  -12.9231   19.0444 C   0  0  0  0  0  0  0  0  0  0  0  0
    8.2391  -12.8239   20.3868 C   0  0  0  0  0  0  0  0  0  0  0  0
    8.3778  -14.2867   20.7402 C   0  0  1  0  0  0  0  0  0  0  0  0
    8.6999  -14.4864   22.1744 C   0  0  0  0  0  0  0  0  0  0  0  0
    9.9079  -14.6425   22.4855 O   0  0  0  0  0  0  0  0  0  0  0  0
    7.8440  -11.7625   26.0154 C   0  0  0  0  0  0  0  0  0  0  0  0
    6.6846  -12.5816   25.5423 C   0  0  2  0  0  0  0  0  0  0  0  0
    5.4083  -12.1791   26.2455 C   0  0  0  0  0  0  0  0  0  0  0  0
    6.9048  -14.0399   25.4817 C   0  0  0  0  0  0  0  0  0  0  0  0
    7.9761  -14.5567   24.5960 C   0  0  2  0  0  0  0  0  0  0  0  0
    7.7078  -14.5072   23.1918 N   0  0  0  0  0  0  0  0  0  0  0  0
    8.4372  -15.9051   25.0499 C   0  0  0  0  0  0  0  0  0  0  0  0
    7.5922  -16.8358   25.0006 O   0  0  0  0  0  0  0  0  0  0  0  0
    9.7448  -16.1511   25.5143 N   0  0  0  0  0  0  0  0  0  0  0  0
   10.1472  -17.5079   25.9239 C   0  0  1  0  0  0  0  0  0  0  0  0
   11.3815  -17.9123   25.1603 C   0  0  0  0  0  0  0  0  0  0  0  0
   11.8797  -19.2883   25.5144 C   0  0  0  0  0  0  0  0  0  0  0  0
   13.0919  -19.6199   24.6278 C   0  0  0  0  0  0  0  0  0  0  0  0
   13.5618  -21.0031   25.0118 C   0  0  0  0  0  0  0  0  0  0  0  0
   14.5296  -21.4403   24.0071 N   0  0  0  0  0  0  0  0  0  0  0  0
   10.2752  -17.5687   27.3814 C   0  0  0  0  0  0  0  0  0  0  0  0
   10.2177  -18.7269   28.1361 O   0  0  0  0  0  0  0  0  0  0  0  0
   10.4547  -16.5031   28.0725 O   0  0  0  0  0  0  0  0  0  0  0  0
  1  2  1  0
  1  5  1  0
  2  3  1  0
  3  4  1  0
  5  4  1  0
  5  6  1  1
  6 13  1  0
  7  6  2  0
  9  8  1  1
  9 10  1  0
 12 11  1  1
 11  9  1  0
 12 13  1  0
 14 12  1  0
 15 14  2  0
 16 14  1  0
 17 23  1  0
 17 16  1  0
 17 18  1  6
 19 18  1  0
 20 19  1  0
 21 20  1  0
 22 21  1  0
 23 24  1  0
 25 23  2  0
M  END
$$$$
