PLK.pdb
     RDKit          3D

 25 25  0  0  1  0  0  0  0  0999 V2000
    7.1900  -14.6262   20.6754 N   0  0  0  0  0  0  0  0  0  0  0  0
    6.7075  -13.8985   19.5345 C   0  0  0  0  0  0  0  0  0  0  0  0
    7.7732  -12.8919   19.1599 C   0  0  0  0  0  0  0  0  0  0  0  0
    8.5502  -12.7844   20.4778 C   0  0  0  0  0  0  0  0  0  0  0  0
    8.5346  -14.2258   20.9317 C   0  0  1  0  0  0  0  0  0  0  0  0
    8.8707  -14.3617   22.3702 C   0  0  0  0  0  0  0  0  0  0  0  0
   10.0866  -14.4299   22.6820 O   0  0  0  0  0  0  0  0  0  0  0  0
    8.0928  -11.6314   26.0152 C   0  0  0  0  0  0  0  0  0  0  0  0
    6.9140  -12.4842   25.6658 C   0  0  2  0  0  0  0  0  0  0  0  0
    5.6753  -12.0335   26.4059 C   0  0  0  0  0  0  0  0  0  0  0  0
    7.1382  -13.9427   25.6989 C   0  0  0  0  0  0  0  0  0  0  0  0
    8.1576  -14.5218   24.7907 C   0  0  2  0  0  0  0  0  0  0  0  0
    7.8831  -14.4166   23.3908 N   0  0  0  0  0  0  0  0  0  0  0  0
    8.5126  -15.9134   25.2079 C   0  0  0  0  0  0  0  0  0  0  0  0
    7.5764  -16.7537   25.2220 O   0  0  0  0  0  0  0  0  0  0  0  0
    9.8196  -16.2939   25.5723 N   0  0  0  0  0  0  0  0  0  0  0  0
   10.1227  -17.6976   25.9018 C   0  0  1  0  0  0  0  0  0  0  0  0
   11.2339  -18.1887   25.0108 C   0  0  0  0  0  0  0  0  0  0  0  0
   11.2132  -19.6787   24.7948 C   0  0  0  0  0  0  0  0  0  0  0  0
   12.3702  -20.0596   23.8559 C   0  0  0  0  0  0  0  0  0  0  0  0
   12.2539  -21.5403   23.5808 C   0  0  0  0  0  0  0  0  0  0  0  0
   13.2467  -21.8844   22.5644 N   0  0  0  0  0  0  0  0  0  0  0  0
   10.3801  -17.8258   27.3376 C   0  0  0  0  0  0  0  0  0  0  0  0
   10.4310  -16.7718   28.2326 O   0  0  0  0  0  0  0  0  0  0  0  0
   10.5832  -18.9744   27.8711 O   0  0  0  0  0  0  0  0  0  0  0  0
  1  2  1  0
  1  5  1  0
  2  3  1  0
  3  4  1  0
  5  4  1  0
  5  6  1  1
  6 13  1  0
  7  6  2  0
  9  8  1  1
  9 10  1  0
 12 11  1  1
 11  9  1  0
 12 13  1  0
 14 12  1  0
 15 14  2  0
 16 14  1  0
 17 23  1  0
 17 16  1  0
 17 18  1  6
 19 18  1  0
 20 19  1  0
 21 20  1  0
 22 21  1  0
 23 24  1  0
 25 23  2  0
M  END
$$$$
