PLK.pdb
     RDKit          3D

 25 25  0  0  1  0  0  0  0  0999 V2000
    7.1012  -15.1853   20.5967 N   0  0  0  0  0  0  0  0  0  0  0  0
    6.5954  -14.8154   19.3039 C   0  0  0  0  0  0  0  0  0  0  0  0
    7.6094  -13.8859   18.6737 C   0  0  0  0  0  0  0  0  0  0  0  0
    8.3610  -13.3885   19.9145 C   0  0  0  0  0  0  0  0  0  0  0  0
    8.4182  -14.6559   20.7356 C   0  0  1  0  0  0  0  0  0  0  0  0
    8.7412  -14.3856   22.1579 C   0  0  0  0  0  0  0  0  0  0  0  0
    9.9486  -14.2067   22.4589 O   0  0  0  0  0  0  0  0  0  0  0  0
    6.1275  -11.8207   27.1739 C   0  0  0  0  0  0  0  0  0  0  0  0
    7.2817  -12.4740   26.4811 C   0  0  2  0  0  0  0  0  0  0  0  0
    8.5217  -11.6125   26.5550 C   0  0  0  0  0  0  0  0  0  0  0  0
    7.0056  -13.0183   25.1372 C   0  0  0  0  0  0  0  0  0  0  0  0
    7.9941  -13.9440   24.5328 C   0  0  2  0  0  0  0  0  0  0  0  0
    7.7506  -14.3229   23.1751 N   0  0  0  0  0  0  0  0  0  0  0  0
    8.2390  -15.1181   25.4262 C   0  0  0  0  0  0  0  0  0  0  0  0
    8.6021  -14.8643   26.6037 O   0  0  0  0  0  0  0  0  0  0  0  0
    8.0799  -16.4517   24.9994 N   0  0  0  0  0  0  0  0  0  0  0  0
    8.2062  -17.5617   25.9600 C   0  0  1  0  0  0  0  0  0  0  0  0
    7.7466  -18.8392   25.3068 C   0  0  0  0  0  0  0  0  0  0  0  0
    7.0964  -18.6250   23.9657 C   0  0  0  0  0  0  0  0  0  0  0  0
    6.6767  -19.9900   23.3946 C   0  0  0  0  0  0  0  0  0  0  0  0
    5.9482  -19.7273   22.0978 C   0  0  0  0  0  0  0  0  0  0  0  0
    5.5130  -21.0159   21.5618 N   0  0  0  0  0  0  0  0  0  0  0  0
    9.5670  -17.5987   26.4993 C   0  0  0  0  0  0  0  0  0  0  0  0
    9.9276  -18.1702   27.7067 O   0  0  0  0  0  0  0  0  0  0  0  0
   10.5463  -17.0788   25.8543 O   0  0  0  0  0  0  0  0  0  0  0  0
  1  2  1  0
  1  5  1  0
  2  3  1  0
  3  4  1  0
  5  4  1  0
  5  6  1  1
  6 13  1  0
  7  6  2  0
  9  8  1  6
  9 10  1  0
 12 11  1  1
 11  9  1  0
 12 13  1  0
 14 12  1  0
 15 14  2  0
 16 14  1  0
 17 23  1  0
 17 16  1  0
 17 18  1  6
 19 18  1  0
 20 19  1  0
 21 20  1  0
 22 21  1  0
 23 24  1  0
 25 23  2  0
M  END
$$$$
