PLK.pdb
     RDKit          3D

 25 25  0  0  1  0  0  0  0  0999 V2000
    7.2839  -14.8495   20.6107 N   0  0  0  0  0  0  0  0  0  0  0  0
    6.6697  -14.2344   19.4669 C   0  0  0  0  0  0  0  0  0  0  0  0
    7.4923  -13.0134   19.1174 C   0  0  0  0  0  0  0  0  0  0  0  0
    8.2065  -12.7509   20.4490 C   0  0  0  0  0  0  0  0  0  0  0  0
    8.5029  -14.1649   20.8926 C   0  0  1  0  0  0  0  0  0  0  0  0
    8.8390  -14.2384   22.3355 C   0  0  0  0  0  0  0  0  0  0  0  0
   10.0555  -14.2705   22.6510 O   0  0  0  0  0  0  0  0  0  0  0  0
    8.3298  -11.6971   26.1931 C   0  0  0  0  0  0  0  0  0  0  0  0
    7.0679  -12.3890   25.7835 C   0  0  2  0  0  0  0  0  0  0  0  0
    5.8842  -11.8793   26.5737 C   0  0  0  0  0  0  0  0  0  0  0  0
    7.1390  -13.8601   25.6866 C   0  0  0  0  0  0  0  0  0  0  0  0
    8.1190  -14.4602   24.7492 C   0  0  2  0  0  0  0  0  0  0  0  0
    7.8510  -14.2732   23.3566 N   0  0  0  0  0  0  0  0  0  0  0  0
    8.3852  -15.8893   25.1006 C   0  0  0  0  0  0  0  0  0  0  0  0
    7.3941  -16.6642   25.0985 O   0  0  0  0  0  0  0  0  0  0  0  0
    9.6693  -16.3725   25.4222 N   0  0  0  0  0  0  0  0  0  0  0  0
    9.8830  -17.8077   25.6781 C   0  0  1  0  0  0  0  0  0  0  0  0
   10.8456  -18.3568   24.6575 C   0  0  0  0  0  0  0  0  0  0  0  0
   11.2400  -19.7868   24.9159 C   0  0  0  0  0  0  0  0  0  0  0  0
   12.3212  -20.1940   23.9008 C   0  0  0  0  0  0  0  0  0  0  0  0
   12.6315  -21.6530   24.1390 C   0  0  0  0  0  0  0  0  0  0  0  0
   13.5519  -22.0901   23.0907 N   0  0  0  0  0  0  0  0  0  0  0  0
   10.2804  -18.0091   27.0730 C   0  0  0  0  0  0  0  0  0  0  0  0
   10.5251  -16.9963   27.9834 O   0  0  0  0  0  0  0  0  0  0  0  0
   10.4323  -19.1896   27.5514 O   0  0  0  0  0  0  0  0  0  0  0  0
  1  2  1  0
  1  5  1  0
  2  3  1  0
  3  4  1  0
  5  4  1  0
  5  6  1  1
  6 13  1  0
  7  6  2  0
  9  8  1  1
  9 10  1  0
 12 11  1  1
 11  9  1  0
 12 13  1  0
 14 12  1  0
 15 14  2  0
 16 14  1  0
 17 23  1  0
 17 16  1  0
 17 18  1  6
 19 18  1  0
 20 19  1  0
 21 20  1  0
 22 21  1  0
 23 24  1  0
 25 23  2  0
M  END
$$$$
