PLK.pdb
     RDKit          3D

 25 25  0  0  1  0  0  0  0  0999 V2000
    7.1749  -14.5017   20.6195 N   0  0  0  0  0  0  0  0  0  0  0  0
    6.6179  -13.7423   19.5346 C   0  0  0  0  0  0  0  0  0  0  0  0
    7.5869  -12.6219   19.2262 C   0  0  0  0  0  0  0  0  0  0  0  0
    8.3658  -12.5376   20.5447 C   0  0  0  0  0  0  0  0  0  0  0  0
    8.4819  -14.0027   20.8968 C   0  0  1  0  0  0  0  0  0  0  0  0
    8.8442  -14.2076   22.3206 C   0  0  0  0  0  0  0  0  0  0  0  0
   10.0658  -14.2851   22.6071 O   0  0  0  0  0  0  0  0  0  0  0  0
    8.3131  -11.7631   26.2202 C   0  0  0  0  0  0  0  0  0  0  0  0
    7.0727  -12.4954   25.8156 C   0  0  2  0  0  0  0  0  0  0  0  0
    5.8794  -12.0357   26.6219 C   0  0  0  0  0  0  0  0  0  0  0  0
    7.1949  -13.9621   25.7036 C   0  0  0  0  0  0  0  0  0  0  0  0
    8.1746  -14.5180   24.7390 C   0  0  2  0  0  0  0  0  0  0  0  0
    7.8754  -14.3176   23.3546 N   0  0  0  0  0  0  0  0  0  0  0  0
    8.4893  -15.9439   25.0625 C   0  0  0  0  0  0  0  0  0  0  0  0
    7.5232  -16.7497   25.0565 O   0  0  0  0  0  0  0  0  0  0  0  0
    9.7913  -16.3917   25.3629 N   0  0  0  0  0  0  0  0  0  0  0  0
   10.0567  -17.8260   25.5706 C   0  0  1  0  0  0  0  0  0  0  0  0
   11.0450  -18.3034   24.5385 C   0  0  0  0  0  0  0  0  0  0  0  0
   11.4923  -19.7253   24.7513 C   0  0  0  0  0  0  0  0  0  0  0  0
   12.4686  -20.1113   23.6275 C   0  0  0  0  0  0  0  0  0  0  0  0
   12.9119  -21.5315   23.8885 C   0  0  0  0  0  0  0  0  0  0  0  0
   13.7663  -21.9435   22.7761 N   0  0  0  0  0  0  0  0  0  0  0  0
   10.4532  -18.0610   26.9605 C   0  0  0  0  0  0  0  0  0  0  0  0
   10.6644  -17.0716   27.9044 O   0  0  0  0  0  0  0  0  0  0  0  0
   10.6368  -19.2515   27.4014 O   0  0  0  0  0  0  0  0  0  0  0  0
  1  2  1  0
  1  5  1  0
  2  3  1  0
  3  4  1  0
  5  4  1  0
  5  6  1  1
  6 13  1  0
  7  6  2  0
  9  8  1  1
  9 10  1  0
 12 11  1  1
 11  9  1  0
 12 13  1  0
 14 12  1  0
 15 14  2  0
 16 14  1  0
 17 23  1  0
 17 16  1  0
 17 18  1  6
 19 18  1  0
 20 19  1  0
 21 20  1  0
 22 21  1  0
 23 24  1  0
 25 23  2  0
M  END
$$$$
