PLK.pdb
     RDKit          3D

 25 25  0  0  1  0  0  0  0  0999 V2000
    7.0257  -15.0804   20.9052 N   0  0  0  0  0  0  0  0  0  0  0  0
    6.3556  -14.5255   19.7618 C   0  0  0  0  0  0  0  0  0  0  0  0
    7.2208  -13.4011   19.2359 C   0  0  0  0  0  0  0  0  0  0  0  0
    8.0620  -13.0746   20.4760 C   0  0  0  0  0  0  0  0  0  0  0  0
    8.3053  -14.4619   21.0239 C   0  0  1  0  0  0  0  0  0  0  0  0
    8.7589  -14.4328   22.4360 C   0  0  0  0  0  0  0  0  0  0  0  0
    9.9924  -14.3206   22.6511 O   0  0  0  0  0  0  0  0  0  0  0  0
    8.6216  -11.7453   26.0852 C   0  0  0  0  0  0  0  0  0  0  0  0
    7.3195  -12.4502   25.8693 C   0  0  2  0  0  0  0  0  0  0  0  0
    6.2306  -11.8646   26.7393 C   0  0  0  0  0  0  0  0  0  0  0  0
    7.3726  -13.9252   25.8819 C   0  0  0  0  0  0  0  0  0  0  0  0
    8.2577  -14.6089   24.9081 C   0  0  2  0  0  0  0  0  0  0  0  0
    7.8632  -14.5258   23.5356 N   0  0  0  0  0  0  0  0  0  0  0  0
    8.5457  -16.0104   25.3436 C   0  0  0  0  0  0  0  0  0  0  0  0
    7.5693  -16.8032   25.3736 O   0  0  0  0  0  0  0  0  0  0  0  0
    9.8342  -16.4497   25.7079 N   0  0  0  0  0  0  0  0  0  0  0  0
   10.0733  -17.8656   26.0376 C   0  0  1  0  0  0  0  0  0  0  0  0
   11.2318  -18.3774   25.2217 C   0  0  0  0  0  0  0  0  0  0  0  0
   11.0355  -18.2165   23.7375 C   0  0  0  0  0  0  0  0  0  0  0  0
   12.3200  -18.6589   23.0167 C   0  0  0  0  0  0  0  0  0  0  0  0
   12.0507  -18.5774   21.5327 C   0  0  0  0  0  0  0  0  0  0  0  0
   13.2707  -18.9805   20.8353 N   0  0  0  0  0  0  0  0  0  0  0  0
   10.2225  -18.0193   27.4862 C   0  0  0  0  0  0  0  0  0  0  0  0
   10.2717  -19.2292   28.1556 O   0  0  0  0  0  0  0  0  0  0  0  0
   10.3192  -16.9945   28.2515 O   0  0  0  0  0  0  0  0  0  0  0  0
  1  2  1  0
  1  5  1  0
  2  3  1  0
  3  4  1  0
  5  4  1  0
  5  6  1  1
  6 13  1  0
  7  6  2  0
  9  8  1  1
  9 10  1  0
 12 11  1  1
 11  9  1  0
 12 13  1  0
 14 12  1  0
 15 14  2  0
 16 14  1  0
 17 23  1  0
 17 16  1  0
 17 18  1  6
 19 18  1  0
 20 19  1  0
 21 20  1  0
 22 21  1  0
 23 24  1  0
 25 23  2  0
M  END
$$$$
