QYV.pdb
     RDKit          3D

 29 29  0  0  1  0  0  0  0  0999 V2000
   21.6336  -11.3995  -20.3127 N   0  0  0  0  0  0  0  0  0  0  0  0
   20.3767  -10.7587  -20.2673 C   0  0  0  0  0  0  0  0  0  0  0  0
   20.2591   -9.5998  -20.7972 O   0  0  0  0  0  0  0  0  0  0  0  0
   19.1841  -11.3456  -19.6459 C   0  0  0  0  0  0  0  0  0  0  0  0
   18.6681  -10.6048  -18.4496 C   0  0  0  0  0  0  0  0  0  0  0  0
   19.3829  -11.0510  -17.2203 C   0  0  2  0  0  0  0  0  0  0  0  0
   18.9926  -12.3956  -16.8139 N   0  0  0  0  0  0  0  0  0  0  0  0
   19.1061  -10.1250  -16.0616 C   0  0  0  0  0  0  0  0  0  0  0  0
   18.0237  -10.2016  -15.4494 O   0  0  0  0  0  0  0  0  0  0  0  0
   20.3698   -4.8694   -9.0857 O   0  0  0  0  0  0  0  0  0  0  0  0
   20.5109   -5.7217  -10.1865 C   0  0  0  0  0  0  0  0  0  0  0  0
   21.1944   -5.3238  -11.3126 C   0  0  0  0  0  0  0  0  0  0  0  0
   21.3267   -6.1723  -12.3911 C   0  0  0  0  0  0  0  0  0  0  0  0
   20.7803   -7.4493  -12.3826 C   0  0  0  0  0  0  0  0  0  0  0  0
   20.9434   -8.3128  -13.5474 C   0  0  0  0  0  0  0  0  0  0  0  0
   19.8229   -8.2146  -14.5605 C   0  0  2  0  0  0  0  0  0  0  0  0
   20.0481   -9.1562  -15.6384 N   0  0  0  0  0  0  0  0  0  0  0  0
   19.6410   -6.8340  -15.0694 C   0  0  0  0  0  0  0  0  0  0  0  0
   20.5200   -6.3456  -15.8172 O   0  0  0  0  0  0  0  0  0  0  0  0
   20.1017   -7.8342  -11.2551 C   0  0  0  0  0  0  0  0  0  0  0  0
   19.9533   -6.9978  -10.1525 C   0  0  0  0  0  0  0  0  0  0  0  0
   16.9373   -5.6044  -17.2048 C   0  0  0  0  0  0  0  0  0  0  0  0
   16.9913   -4.6585  -16.0250 C   0  0  1  0  0  0  0  0  0  0  0  0
   15.8979   -5.0677  -15.0630 C   0  0  0  0  0  0  0  0  0  0  0  0
   18.3066   -4.7349  -15.3000 C   0  0  2  0  0  0  0  0  0  0  0  0
   18.5189   -6.0666  -14.7374 N   0  0  0  0  0  0  0  0  0  0  0  0
   18.2724   -3.7789  -14.1704 C   0  0  0  0  0  0  0  0  0  0  0  0
   18.0507   -4.1930  -13.0150 O   0  0  0  0  0  0  0  0  0  0  0  0
   18.4841   -2.4345  -14.3884 O   0  0  0  0  0  0  0  0  0  0  0  0
  1  2  1  0
  2  3  2  0
  2  4  1  0
  4  5  1  0
  6  5  1  0
  6  7  1  1
  8  6  1  0
  8  9  2  0
 10 11  1  0
 11 12  2  0
 12 13  1  0
 14 13  2  0
 14 15  1  0
 16 15  1  1
 16 17  1  0
 17  8  1  0
 18 16  1  0
 18 26  1  0
 19 18  2  0
 20 14  1  0
 21 20  2  0
 21 11  1  0
 23 22  1  6
 23 25  1  0
 24 23  1  0
 25 26  1  1
 25 27  1  0
 27 28  2  0
 27 29  1  0
M  END
$$$$
