QYV.pdb
     RDKit          3D

 29 29  0  0  1  0  0  0  0  0999 V2000
   35.9293  -31.1903  -22.1261 N   0  0  0  0  0  0  0  0  0  0  0  0
   36.3519  -32.4507  -21.6515 C   0  0  0  0  0  0  0  0  0  0  0  0
   37.4693  -32.9187  -22.0638 O   0  0  0  0  0  0  0  0  0  0  0  0
   35.5828  -33.2650  -20.7037 C   0  0  0  0  0  0  0  0  0  0  0  0
   34.3244  -32.6251  -20.2002 C   0  0  0  0  0  0  0  0  0  0  0  0
   34.3721  -32.4935  -18.7165 C   0  0  2  0  0  0  0  0  0  0  0  0
   35.4712  -33.2518  -18.1314 N   0  0  0  0  0  0  0  0  0  0  0  0
   33.0923  -32.9820  -18.0839 C   0  0  0  0  0  0  0  0  0  0  0  0
   33.0109  -34.1548  -17.6715 O   0  0  0  0  0  0  0  0  0  0  0  0
   24.9938  -32.6484  -14.3909 O   0  0  0  0  0  0  0  0  0  0  0  0
   26.2591  -32.3610  -14.9147 C   0  0  0  0  0  0  0  0  0  0  0  0
   27.4058  -32.7584  -14.2659 C   0  0  0  0  0  0  0  0  0  0  0  0
   28.6470  -32.4693  -14.7916 C   0  0  0  0  0  0  0  0  0  0  0  0
   28.7865  -31.7724  -15.9849 C   0  0  0  0  0  0  0  0  0  0  0  0
   30.1203  -31.4868  -16.5032 C   0  0  0  0  0  0  0  0  0  0  0  0
   30.6898  -32.5694  -17.3948 C   0  0  2  0  0  0  0  0  0  0  0  0
   31.9621  -32.1412  -17.9401 N   0  0  0  0  0  0  0  0  0  0  0  0
   29.7458  -32.9758  -18.4633 C   0  0  0  0  0  0  0  0  0  0  0  0
   29.6444  -32.2569  -19.4847 O   0  0  0  0  0  0  0  0  0  0  0  0
   27.6369  -31.3818  -16.6219 C   0  0  0  0  0  0  0  0  0  0  0  0
   26.3716  -31.6605  -16.1134 C   0  0  0  0  0  0  0  0  0  0  0  0
   29.5388  -36.5660  -19.1355 C   0  0  0  0  0  0  0  0  0  0  0  0
   28.5049  -35.8836  -20.0044 C   0  0  1  0  0  0  0  0  0  0  0  0
   27.2922  -36.7861  -20.0629 C   0  0  0  0  0  0  0  0  0  0  0  0
   28.0764  -34.5586  -19.4370 C   0  0  2  0  0  0  0  0  0  0  0  0
   28.9692  -34.1354  -18.3606 N   0  0  0  0  0  0  0  0  0  0  0  0
   26.7253  -34.7163  -18.8534 C   0  0  0  0  0  0  0  0  0  0  0  0
   25.7217  -34.6647  -19.5920 O   0  0  0  0  0  0  0  0  0  0  0  0
   26.5706  -34.9199  -17.4991 O   0  0  0  0  0  0  0  0  0  0  0  0
  1  2  1  0
  2  3  2  0
  2  4  1  0
  4  5  1  0
  6  5  1  0
  6  7  1  1
  8  6  1  0
  8  9  2  0
 10 11  1  0
 11 12  2  0
 12 13  1  0
 14 13  2  0
 14 15  1  0
 16 15  1  6
 16 17  1  0
 17  8  1  0
 18 16  1  0
 18 26  1  0
 19 18  2  0
 20 14  1  0
 21 20  2  0
 21 11  1  0
 23 22  1  1
 23 25  1  0
 24 23  1  0
 25 26  1  1
 25 27  1  0
 27 28  2  0
 27 29  1  0
M  END
$$$$
