QYV.pdb
     RDKit          3D

 29 29  0  0  1  0  0  0  0  0999 V2000
   19.2647  -24.6185   -7.1741 N   0  0  0  0  0  0  0  0  0  0  0  0
   17.9006  -24.7611   -7.5081 C   0  0  0  0  0  0  0  0  0  0  0  0
   17.1863  -25.5819   -6.8345 O   0  0  0  0  0  0  0  0  0  0  0  0
   17.2437  -24.0177   -8.5892 C   0  0  0  0  0  0  0  0  0  0  0  0
   18.1528  -23.1344   -9.3889 C   0  0  0  0  0  0  0  0  0  0  0  0
   18.2596  -23.6374  -10.7876 C   0  0  2  0  0  0  0  0  0  0  0  0
   18.7300  -25.0163  -10.8425 N   0  0  0  0  0  0  0  0  0  0  0  0
   19.2143  -22.7964  -11.5987 C   0  0  0  0  0  0  0  0  0  0  0  0
   18.9762  -21.5873  -11.7818 O   0  0  0  0  0  0  0  0  0  0  0  0
   26.4640  -21.0216  -16.5470 O   0  0  0  0  0  0  0  0  0  0  0  0
   25.5337  -21.5500  -15.6452 C   0  0  0  0  0  0  0  0  0  0  0  0
   25.1596  -22.8731  -15.7008 C   0  0  0  0  0  0  0  0  0  0  0  0
   24.2419  -23.3822  -14.8069 C   0  0  0  0  0  0  0  0  0  0  0  0
   23.6650  -22.5869  -13.8251 C   0  0  0  0  0  0  0  0  0  0  0  0
   22.6965  -23.1679  -12.9012 C   0  0  0  0  0  0  0  0  0  0  0  0
   21.2959  -22.6084  -13.0300 C   0  0  2  0  0  0  0  0  0  0  0  0
   20.3903  -23.3414  -12.1686 N   0  0  0  0  0  0  0  0  0  0  0  0
   20.8213  -22.5915  -14.4345 C   0  0  0  0  0  0  0  0  0  0  0  0
   20.4773  -23.6718  -14.9684 O   0  0  0  0  0  0  0  0  0  0  0  0
   24.0458  -21.2705  -13.7797 C   0  0  0  0  0  0  0  0  0  0  0  0
   24.9698  -20.7308  -14.6698 C   0  0  0  0  0  0  0  0  0  0  0  0
   19.2448  -20.0890  -18.3837 C   0  0  0  0  0  0  0  0  0  0  0  0
   19.3938  -20.3215  -16.8961 C   0  0  1  0  0  0  0  0  0  0  0  0
   18.0448  -20.7543  -16.3655 C   0  0  0  0  0  0  0  0  0  0  0  0
   20.3881  -21.4076  -16.5911 C   0  0  2  0  0  0  0  0  0  0  0  0
   20.7484  -21.4064  -15.1751 N   0  0  0  0  0  0  0  0  0  0  0  0
   21.6233  -21.1385  -17.3610 C   0  0  0  0  0  0  0  0  0  0  0  0
   21.8141  -21.7186  -18.4484 O   0  0  0  0  0  0  0  0  0  0  0  0
   22.5630  -20.2507  -16.8829 O   0  0  0  0  0  0  0  0  0  0  0  0
  1  2  1  0
  2  3  2  0
  2  4  1  0
  4  5  1  0
  6  5  1  0
  6  7  1  1
  8  6  1  0
  8  9  2  0
 10 11  1  0
 11 12  2  0
 12 13  1  0
 14 13  2  0
 14 15  1  0
 16 15  1  6
 16 17  1  0
 17  8  1  0
 18 16  1  0
 18 26  1  0
 19 18  2  0
 20 14  1  0
 21 20  2  0
 21 11  1  0
 23 22  1  6
 23 25  1  0
 24 23  1  0
 25 26  1  1
 25 27  1  0
 27 28  2  0
 27 29  1  0
M  END
$$$$
