QYV.pdb
     RDKit          3D

 29 29  0  0  1  0  0  0  0  0999 V2000
   29.1290  -18.9424  -18.3548 N   0  0  0  0  0  0  0  0  0  0  0  0
   29.2946  -19.6801  -19.5468 C   0  0  0  0  0  0  0  0  0  0  0  0
   30.1908  -19.3066  -20.3804 O   0  0  0  0  0  0  0  0  0  0  0  0
   28.4962  -20.8618  -19.8921 C   0  0  0  0  0  0  0  0  0  0  0  0
   27.4979  -21.2730  -18.8525 C   0  0  0  0  0  0  0  0  0  0  0  0
   28.1949  -21.8617  -17.6741 C   0  0  2  0  0  0  0  0  0  0  0  0
   28.7614  -23.1726  -17.9677 N   0  0  0  0  0  0  0  0  0  0  0  0
   27.2524  -22.0223  -16.5067 C   0  0  0  0  0  0  0  0  0  0  0  0
   26.5280  -23.0327  -16.4270 O   0  0  0  0  0  0  0  0  0  0  0  0
   23.7236  -20.7647   -8.4407 O   0  0  0  0  0  0  0  0  0  0  0  0
   24.4973  -20.6887   -9.6041 C   0  0  0  0  0  0  0  0  0  0  0  0
   25.5371  -21.5622   -9.8266 C   0  0  0  0  0  0  0  0  0  0  0  0
   26.2924  -21.4775  -10.9767 C   0  0  0  0  0  0  0  0  0  0  0  0
   26.0354  -20.5164  -11.9460 C   0  0  0  0  0  0  0  0  0  0  0  0
   26.8621  -20.4624  -13.1472 C   0  0  0  0  0  0  0  0  0  0  0  0
   26.2481  -21.1296  -14.3593 C   0  0  2  0  0  0  0  0  0  0  0  0
   27.1605  -21.0494  -15.4820 N   0  0  0  0  0  0  0  0  0  0  0  0
   24.9160  -20.5730  -14.6963 C   0  0  0  0  0  0  0  0  0  0  0  0
   24.8505  -19.4284  -15.2023 O   0  0  0  0  0  0  0  0  0  0  0  0
   24.9969  -19.6520  -11.7130 C   0  0  0  0  0  0  0  0  0  0  0  0
   24.2187  -19.7153  -10.5608 C   0  0  0  0  0  0  0  0  0  0  0  0
   22.5324  -21.0766  -17.1673 C   0  0  0  0  0  0  0  0  0  0  0  0
   21.7530  -21.3171  -15.8929 C   0  0  1  0  0  0  0  0  0  0  0  0
   21.6881  -22.8126  -15.6742 C   0  0  0  0  0  0  0  0  0  0  0  0
   22.4210  -20.6969  -14.6969 C   0  0  2  0  0  0  0  0  0  0  0  0
   23.7364  -21.2894  -14.4648 N   0  0  0  0  0  0  0  0  0  0  0  0
   21.5933  -20.9783  -13.5024 C   0  0  0  0  0  0  0  0  0  0  0  0
   21.9546  -21.8536  -12.6908 O   0  0  0  0  0  0  0  0  0  0  0  0
   20.4263  -20.2787  -13.2826 O   0  0  0  0  0  0  0  0  0  0  0  0
  1  2  1  0
  2  3  2  0
  2  4  1  0
  4  5  1  0
  6  5  1  0
  6  7  1  6
  8  6  1  0
  8  9  2  0
 10 11  1  0
 11 12  2  0
 12 13  1  0
 14 13  2  0
 14 15  1  0
 16 15  1  1
 16 17  1  0
 17  8  1  0
 18 16  1  0
 18 26  1  0
 19 18  2  0
 20 14  1  0
 21 20  2  0
 21 11  1  0
 23 22  1  6
 23 25  1  0
 24 23  1  0
 25 26  1  1
 25 27  1  0
 27 28  2  0
 27 29  1  0
M  END
$$$$
