QYV.pdb
     RDKit          3D

 29 29  0  0  1  0  0  0  0  0999 V2000
   27.8106  -17.7318  -21.5085 N   0  0  0  0  0  0  0  0  0  0  0  0
   26.5486  -18.1733  -21.0555 C   0  0  0  0  0  0  0  0  0  0  0  0
   25.5761  -18.2085  -21.8865 O   0  0  0  0  0  0  0  0  0  0  0  0
   26.2805  -18.6006  -19.6777 C   0  0  0  0  0  0  0  0  0  0  0  0
   27.4316  -18.4359  -18.7320 C   0  0  0  0  0  0  0  0  0  0  0  0
   27.9555  -19.7694  -18.3218 C   0  0  2  0  0  0  0  0  0  0  0  0
   27.8328  -20.7599  -19.3846 N   0  0  0  0  0  0  0  0  0  0  0  0
   27.2177  -20.2986  -17.1167 C   0  0  0  0  0  0  0  0  0  0  0  0
   26.2380  -21.0529  -17.2694 O   0  0  0  0  0  0  0  0  0  0  0  0
   24.9749  -21.0788   -8.5045 O   0  0  0  0  0  0  0  0  0  0  0  0
   25.6385  -20.8101   -9.7068 C   0  0  0  0  0  0  0  0  0  0  0  0
   26.1195  -21.8280  -10.4980 C   0  0  0  0  0  0  0  0  0  0  0  0
   26.7718  -21.5509  -11.6804 C   0  0  0  0  0  0  0  0  0  0  0  0
   26.9668  -20.2459  -12.1145 C   0  0  0  0  0  0  0  0  0  0  0  0
   27.6646  -19.9993  -13.3720 C   0  0  0  0  0  0  0  0  0  0  0  0
   26.8527  -20.3147  -14.6100 C   0  0  2  0  0  0  0  0  0  0  0  0
   27.6054  -19.9627  -15.7970 N   0  0  0  0  0  0  0  0  0  0  0  0
   25.5212  -19.6629  -14.5935 C   0  0  0  0  0  0  0  0  0  0  0  0
   25.4566  -18.4185  -14.7272 O   0  0  0  0  0  0  0  0  0  0  0  0
   26.4831  -19.2404  -11.3176 C   0  0  0  0  0  0  0  0  0  0  0  0
   25.8210  -19.4922  -10.1194 C   0  0  0  0  0  0  0  0  0  0  0  0
   22.7101  -19.3228  -16.6787 C   0  0  0  0  0  0  0  0  0  0  0  0
   22.1508  -19.9539  -15.4224 C   0  0  1  0  0  0  0  0  0  0  0  0
   22.0397  -21.4420  -15.6711 C   0  0  0  0  0  0  0  0  0  0  0  0
   23.0502  -19.7427  -14.2359 C   0  0  2  0  0  0  0  0  0  0  0  0
   24.3412  -20.3979  -14.4330 N   0  0  0  0  0  0  0  0  0  0  0  0
   22.4152  -20.3657  -13.0528 C   0  0  0  0  0  0  0  0  0  0  0  0
   22.8862  -21.4192  -12.5798 O   0  0  0  0  0  0  0  0  0  0  0  0
   21.3069  -19.7881  -12.4715 O   0  0  0  0  0  0  0  0  0  0  0  0
  1  2  1  0
  2  3  2  0
  2  4  1  0
  4  5  1  0
  6  5  1  0
  6  7  1  6
  8  6  1  0
  8  9  2  0
 10 11  1  0
 11 12  2  0
 12 13  1  0
 14 13  2  0
 14 15  1  0
 16 15  1  1
 16 17  1  0
 17  8  1  0
 18 16  1  0
 18 26  1  0
 19 18  2  0
 20 14  1  0
 21 20  2  0
 21 11  1  0
 23 22  1  6
 23 25  1  0
 24 23  1  0
 25 26  1  6
 25 27  1  0
 27 28  2  0
 27 29  1  0
M  END
$$$$
