QYV.pdb
     RDKit          3D

 29 29  0  0  1  0  0  0  0  0999 V2000
   27.9576  -19.5011  -20.9542 N   0  0  0  0  0  0  0  0  0  0  0  0
   27.7205  -20.8767  -20.7439 C   0  0  0  0  0  0  0  0  0  0  0  0
   28.1939  -21.7167  -21.5852 O   0  0  0  0  0  0  0  0  0  0  0  0
   26.9593  -21.4087  -19.6079 C   0  0  0  0  0  0  0  0  0  0  0  0
   26.5144  -20.3813  -18.6115 C   0  0  0  0  0  0  0  0  0  0  0  0
   25.0292  -20.2596  -18.6260 C   0  0  2  0  0  0  0  0  0  0  0  0
   24.5583  -19.3901  -19.6974 N   0  0  0  0  0  0  0  0  0  0  0  0
   24.5147  -19.6988  -17.3231 C   0  0  0  0  0  0  0  0  0  0  0  0
   24.9810  -18.6328  -16.8779 O   0  0  0  0  0  0  0  0  0  0  0  0
   20.7083  -14.6343  -18.4654 O   0  0  0  0  0  0  0  0  0  0  0  0
   20.8949  -15.8287  -17.7606 C   0  0  0  0  0  0  0  0  0  0  0  0
   21.0140  -15.8357  -16.3897 C   0  0  0  0  0  0  0  0  0  0  0  0
   21.1978  -17.0187  -15.7061 C   0  0  0  0  0  0  0  0  0  0  0  0
   21.2690  -18.2374  -16.3686 C   0  0  0  0  0  0  0  0  0  0  0  0
   21.4663  -19.4648  -15.6045 C   0  0  0  0  0  0  0  0  0  0  0  0
   22.9166  -19.8240  -15.3617 C   0  0  2  0  0  0  0  0  0  0  0  0
   23.5045  -20.3518  -16.5762 N   0  0  0  0  0  0  0  0  0  0  0  0
   23.0841  -20.7577  -14.2223 C   0  0  0  0  0  0  0  0  0  0  0  0
   22.6274  -21.9204  -14.3225 O   0  0  0  0  0  0  0  0  0  0  0  0
   21.1489  -18.2175  -17.7343 C   0  0  0  0  0  0  0  0  0  0  0  0
   20.9629  -17.0377  -18.4490 C   0  0  0  0  0  0  0  0  0  0  0  0
   24.7347  -19.4296  -10.4519 C   0  0  0  0  0  0  0  0  0  0  0  0
   24.9024  -20.8487  -10.9493 C   0  0  1  0  0  0  0  0  0  0  0  0
   24.8657  -21.7612   -9.7433 C   0  0  0  0  0  0  0  0  0  0  0  0
   23.7931  -21.2559  -11.8793 C   0  0  2  0  0  0  0  0  0  0  0  0
   23.7355  -20.3756  -13.0441 N   0  0  0  0  0  0  0  0  0  0  0  0
   22.5072  -21.1195  -11.1590 C   0  0  0  0  0  0  0  0  0  0  0  0
   22.2037  -21.9423  -10.2723 O   0  0  0  0  0  0  0  0  0  0  0  0
   21.6442  -20.0887  -11.4628 O   0  0  0  0  0  0  0  0  0  0  0  0
  1  2  1  0
  2  3  2  0
  2  4  1  0
  4  5  1  0
  6  5  1  0
  6  7  1  6
  8  6  1  0
  8  9  2  0
 10 11  1  0
 11 12  2  0
 12 13  1  0
 14 13  2  0
 14 15  1  0
 16 15  1  6
 16 17  1  0
 17  8  1  0
 18 16  1  0
 18 26  1  0
 19 18  2  0
 20 14  1  0
 21 20  2  0
 21 11  1  0
 23 22  1  1
 23 25  1  0
 24 23  1  0
 25 26  1  6
 25 27  1  0
 27 28  2  0
 27 29  1  0
M  END
$$$$
