QYV.pdb
     RDKit          3D

 29 29  0  0  1  0  0  0  0  0999 V2000
   25.6470  -21.7949  -21.1562 N   0  0  0  0  0  0  0  0  0  0  0  0
   26.3291  -20.5597  -21.1934 C   0  0  0  0  0  0  0  0  0  0  0  0
   26.3800  -19.9197  -22.3003 O   0  0  0  0  0  0  0  0  0  0  0  0
   26.9882  -19.9567  -20.0293 C   0  0  0  0  0  0  0  0  0  0  0  0
   26.8747  -20.7480  -18.7615 C   0  0  0  0  0  0  0  0  0  0  0  0
   25.5258  -20.5599  -18.1565 C   0  0  2  0  0  0  0  0  0  0  0  0
   25.1564  -19.1528  -18.0609 N   0  0  0  0  0  0  0  0  0  0  0  0
   25.4648  -21.1437  -16.7665 C   0  0  0  0  0  0  0  0  0  0  0  0
   25.7248  -22.3487  -16.5863 O   0  0  0  0  0  0  0  0  0  0  0  0
   25.2027  -21.5229   -7.8901 O   0  0  0  0  0  0  0  0  0  0  0  0
   25.3090  -21.1303   -9.2290 C   0  0  0  0  0  0  0  0  0  0  0  0
   26.3754  -21.5243  -10.0045 C   0  0  0  0  0  0  0  0  0  0  0  0
   26.4694  -21.1312  -11.3224 C   0  0  0  0  0  0  0  0  0  0  0  0
   25.5005  -20.3298  -11.9127 C   0  0  0  0  0  0  0  0  0  0  0  0
   25.6419  -19.9362  -13.3107 C   0  0  0  0  0  0  0  0  0  0  0  0
   24.9783  -20.8754  -14.2950 C   0  0  2  0  0  0  0  0  0  0  0  0
   25.1167  -20.3579  -15.6412 N   0  0  0  0  0  0  0  0  0  0  0  0
   23.5601  -21.1409  -13.9542 C   0  0  0  0  0  0  0  0  0  0  0  0
   23.2934  -21.6687  -12.8493 O   0  0  0  0  0  0  0  0  0  0  0  0
   24.4430  -19.9439  -11.1301 C   0  0  0  0  0  0  0  0  0  0  0  0
   24.3235  -20.3263   -9.7972 C   0  0  0  0  0  0  0  0  0  0  0  0
   21.0194  -18.6234  -14.0941 C   0  0  0  0  0  0  0  0  0  0  0  0
   20.2872  -19.8448  -14.6052 C   0  0  1  0  0  0  0  0  0  0  0  0
   19.9791  -19.6121  -16.0679 C   0  0  0  0  0  0  0  0  0  0  0  0
   21.1216  -21.0909  -14.4943 C   0  0  2  0  0  0  0  0  0  0  0  0
   22.5174  -20.8191  -14.8303 N   0  0  0  0  0  0  0  0  0  0  0  0
   20.6163  -22.0791  -15.4736 C   0  0  0  0  0  0  0  0  0  0  0  0
   21.3091  -22.3766  -16.4670 O   0  0  0  0  0  0  0  0  0  0  0  0
   19.3850  -22.6718  -15.2935 O   0  0  0  0  0  0  0  0  0  0  0  0
  1  2  1  0
  2  3  2  0
  2  4  1  0
  4  5  1  0
  6  5  1  0
  6  7  1  1
  8  6  1  0
  8  9  2  0
 10 11  1  0
 11 12  2  0
 12 13  1  0
 14 13  2  0
 14 15  1  0
 16 15  1  1
 16 17  1  0
 17  8  1  0
 18 16  1  0
 18 26  1  0
 19 18  2  0
 20 14  1  0
 21 20  2  0
 21 11  1  0
 23 22  1  6
 23 25  1  0
 24 23  1  0
 25 26  1  6
 25 27  1  0
 27 28  2  0
 27 29  1  0
M  END
$$$$
