QYV.pdb
     RDKit          3D

 29 29  0  0  1  0  0  0  0  0999 V2000
   29.2165  -26.3938  -16.1725 N   0  0  0  0  0  0  0  0  0  0  0  0
   28.5867  -25.3219  -16.8410 C   0  0  0  0  0  0  0  0  0  0  0  0
   29.2006  -24.2018  -16.9194 O   0  0  0  0  0  0  0  0  0  0  0  0
   27.2594  -25.4137  -17.4597 C   0  0  0  0  0  0  0  0  0  0  0  0
   26.2676  -24.3995  -16.9759 C   0  0  0  0  0  0  0  0  0  0  0  0
   25.9448  -24.6392  -15.5409 C   0  0  2  0  0  0  0  0  0  0  0  0
   25.1394  -25.8395  -15.3507 N   0  0  0  0  0  0  0  0  0  0  0  0
   25.1812  -23.4786  -14.9520 C   0  0  0  0  0  0  0  0  0  0  0  0
   23.9573  -23.5814  -14.7436 O   0  0  0  0  0  0  0  0  0  0  0  0
   24.9421  -21.1858   -7.6259 O   0  0  0  0  0  0  0  0  0  0  0  0
   25.2213  -20.9855   -8.9823 C   0  0  0  0  0  0  0  0  0  0  0  0
   24.5529  -20.0307   -9.7138 C   0  0  0  0  0  0  0  0  0  0  0  0
   24.8365  -19.8425  -11.0497 C   0  0  0  0  0  0  0  0  0  0  0  0
   25.7987  -20.6023  -11.7025 C   0  0  0  0  0  0  0  0  0  0  0  0
   26.0648  -20.3700  -13.1183 C   0  0  0  0  0  0  0  0  0  0  0  0
   25.1365  -21.1088  -14.0584 C   0  0  2  0  0  0  0  0  0  0  0  0
   25.8167  -22.2569  -14.6227 N   0  0  0  0  0  0  0  0  0  0  0  0
   24.5834  -20.2273  -15.1144 C   0  0  0  0  0  0  0  0  0  0  0  0
   25.3675  -19.7244  -15.9528 O   0  0  0  0  0  0  0  0  0  0  0  0
   26.4580  -21.5503  -10.9631 C   0  0  0  0  0  0  0  0  0  0  0  0
   26.1912  -21.7610   -9.6133 C   0  0  0  0  0  0  0  0  0  0  0  0
   22.6278  -20.9400  -17.9381 C   0  0  0  0  0  0  0  0  0  0  0  0
   21.8243  -19.8868  -17.2069 C   0  0  1  0  0  0  0  0  0  0  0  0
   20.7579  -20.6017  -16.4068 C   0  0  0  0  0  0  0  0  0  0  0  0
   22.6719  -19.0913  -16.2529 C   0  0  2  0  0  0  0  0  0  0  0  0
   23.2156  -19.9439  -15.1981 N   0  0  0  0  0  0  0  0  0  0  0  0
   21.8135  -18.0765  -15.6015 C   0  0  0  0  0  0  0  0  0  0  0  0
   21.5299  -18.1892  -14.3922 O   0  0  0  0  0  0  0  0  0  0  0  0
   21.3264  -17.0084  -16.3237 O   0  0  0  0  0  0  0  0  0  0  0  0
  1  2  1  0
  2  3  2  0
  2  4  1  0
  4  5  1  0
  6  5  1  0
  6  7  1  6
  8  6  1  0
  8  9  2  0
 10 11  1  0
 11 12  2  0
 12 13  1  0
 14 13  2  0
 14 15  1  0
 16 15  1  6
 16 17  1  0
 17  8  1  0
 18 16  1  0
 18 26  1  0
 19 18  2  0
 20 14  1  0
 21 20  2  0
 21 11  1  0
 23 22  1  1
 23 25  1  0
 24 23  1  0
 25 26  1  1
 25 27  1  0
 27 28  2  0
 27 29  1  0
M  END
$$$$
