QYV.pdb
     RDKit          3D

 29 29  0  0  1  0  0  0  0  0999 V2000
   28.8565  -18.1136  -17.8090 N   0  0  0  0  0  0  0  0  0  0  0  0
   29.0292  -18.7406  -19.0618 C   0  0  0  0  0  0  0  0  0  0  0  0
   29.8336  -18.2137  -19.9062 O   0  0  0  0  0  0  0  0  0  0  0  0
   28.3384  -19.9726  -19.4593 C   0  0  0  0  0  0  0  0  0  0  0  0
   27.4729  -20.5800  -18.3971 C   0  0  0  0  0  0  0  0  0  0  0  0
   28.3128  -21.2991  -17.3978 C   0  0  2  0  0  0  0  0  0  0  0  0
   28.8869  -22.5243  -17.9407 N   0  0  0  0  0  0  0  0  0  0  0  0
   27.5086  -21.6731  -16.1771 C   0  0  0  0  0  0  0  0  0  0  0  0
   26.8053  -22.7014  -16.1871 O   0  0  0  0  0  0  0  0  0  0  0  0
   23.8558  -20.7691   -8.0756 O   0  0  0  0  0  0  0  0  0  0  0  0
   24.6518  -20.6399   -9.2191 C   0  0  0  0  0  0  0  0  0  0  0  0
   25.7315  -21.4659   -9.4327 C   0  0  0  0  0  0  0  0  0  0  0  0
   26.5085  -21.3291  -10.5631 C   0  0  0  0  0  0  0  0  0  0  0  0
   26.2342  -20.3613  -11.5209 C   0  0  0  0  0  0  0  0  0  0  0  0
   27.0849  -20.2512  -12.7014 C   0  0  0  0  0  0  0  0  0  0  0  0
   26.6034  -21.0471  -13.8956 C   0  0  2  0  0  0  0  0  0  0  0  0
   27.5251  -20.8840  -15.0015 N   0  0  0  0  0  0  0  0  0  0  0  0
   25.2157  -20.6988  -14.2842 C   0  0  0  0  0  0  0  0  0  0  0  0
   25.0142  -19.6335  -14.9126 O   0  0  0  0  0  0  0  0  0  0  0  0
   25.1559  -19.5444  -11.2970 C   0  0  0  0  0  0  0  0  0  0  0  0
   24.3550  -19.6609  -10.1646 C   0  0  0  0  0  0  0  0  0  0  0  0
   22.3438  -23.4874  -15.0509 C   0  0  0  0  0  0  0  0  0  0  0  0
   22.1891  -22.0163  -15.3689 C   0  0  1  0  0  0  0  0  0  0  0  0
   20.7082  -21.7277  -15.4801 C   0  0  0  0  0  0  0  0  0  0  0  0
   22.7572  -21.1416  -14.2856 C   0  0  2  0  0  0  0  0  0  0  0  0
   24.1311  -21.5249  -13.9686 N   0  0  0  0  0  0  0  0  0  0  0  0
   21.9510  -21.3352  -13.0594 C   0  0  0  0  0  0  0  0  0  0  0  0
   22.3118  -22.1703  -12.2063 O   0  0  0  0  0  0  0  0  0  0  0  0
   20.8044  -20.5978  -12.8556 O   0  0  0  0  0  0  0  0  0  0  0  0
  1  2  1  0
  2  3  2  0
  2  4  1  0
  4  5  1  0
  6  5  1  0
  6  7  1  6
  8  6  1  0
  8  9  2  0
 10 11  1  0
 11 12  2  0
 12 13  1  0
 14 13  2  0
 14 15  1  0
 16 15  1  1
 16 17  1  0
 17  8  1  0
 18 16  1  0
 18 26  1  0
 19 18  2  0
 20 14  1  0
 21 20  2  0
 21 11  1  0
 23 22  1  1
 23 25  1  0
 24 23  1  0
 25 26  1  1
 25 27  1  0
 27 28  2  0
 27 29  1  0
M  END
$$$$
