QYV.pdb
     RDKit          3D

 29 29  0  0  1  0  0  0  0  0999 V2000
   19.3621  -15.2498  -15.7347 N   0  0  0  0  0  0  0  0  0  0  0  0
   18.2150  -14.9806  -16.5119 C   0  0  0  0  0  0  0  0  0  0  0  0
   17.3235  -15.8915  -16.6264 O   0  0  0  0  0  0  0  0  0  0  0  0
   17.9777  -13.7076  -17.2019 C   0  0  0  0  0  0  0  0  0  0  0  0
   19.0792  -12.7008  -17.0623 C   0  0  0  0  0  0  0  0  0  0  0  0
   18.7751  -11.4894  -17.8752 C   0  0  2  0  0  0  0  0  0  0  0  0
   18.8273  -11.7596  -19.3070 N   0  0  0  0  0  0  0  0  0  0  0  0
   19.7526  -10.3773  -17.5842 C   0  0  0  0  0  0  0  0  0  0  0  0
   20.9144  -10.6489  -17.2257 O   0  0  0  0  0  0  0  0  0  0  0  0
   23.0033   -2.0709  -17.6453 O   0  0  0  0  0  0  0  0  0  0  0  0
   22.3139   -3.2661  -17.8779 C   0  0  0  0  0  0  0  0  0  0  0  0
   22.9636   -4.3827  -18.3518 C   0  0  0  0  0  0  0  0  0  0  0  0
   22.2737   -5.5548  -18.5772 C   0  0  0  0  0  0  0  0  0  0  0  0
   20.9092   -5.6527  -18.3368 C   0  0  0  0  0  0  0  0  0  0  0  0
   20.2192   -6.9130  -18.5916 C   0  0  0  0  0  0  0  0  0  0  0  0
   20.2868   -7.9048  -17.4500 C   0  0  2  0  0  0  0  0  0  0  0  0
   19.3903   -9.0139  -17.7060 N   0  0  0  0  0  0  0  0  0  0  0  0
   20.0146   -7.2735  -16.1364 C   0  0  0  0  0  0  0  0  0  0  0  0
   18.8299   -7.0011  -15.8316 O   0  0  0  0  0  0  0  0  0  0  0  0
   20.2730   -4.5337  -17.8647 C   0  0  0  0  0  0  0  0  0  0  0  0
   20.9453   -3.3380  -17.6285 C   0  0  0  0  0  0  0  0  0  0  0  0
   22.6703   -7.7589  -12.9941 C   0  0  0  0  0  0  0  0  0  0  0  0
   21.2197   -7.3624  -12.8268 C   0  0  1  0  0  0  0  0  0  0  0  0
   21.0931   -6.6482  -11.4992 C   0  0  0  0  0  0  0  0  0  0  0  0
   20.7623   -6.4242  -13.9094 C   0  0  2  0  0  0  0  0  0  0  0  0
   21.0413   -6.9755  -15.2335 N   0  0  0  0  0  0  0  0  0  0  0  0
   21.5267   -5.1626  -13.7866 C   0  0  0  0  0  0  0  0  0  0  0  0
   22.4494   -4.9169  -14.5889 O   0  0  0  0  0  0  0  0  0  0  0  0
   21.2243   -4.2587  -12.7910 O   0  0  0  0  0  0  0  0  0  0  0  0
  1  2  1  0
  2  3  2  0
  2  4  1  0
  4  5  1  0
  6  5  1  0
  6  7  1  6
  8  6  1  0
  8  9  2  0
 10 11  1  0
 11 12  2  0
 12 13  1  0
 14 13  2  0
 14 15  1  0
 16 15  1  6
 16 17  1  0
 17  8  1  0
 18 16  1  0
 18 26  1  0
 19 18  2  0
 20 14  1  0
 21 20  2  0
 21 11  1  0
 23 22  1  6
 23 25  1  0
 24 23  1  0
 25 26  1  6
 25 27  1  0
 27 28  2  0
 27 29  1  0
M  END
$$$$
