QYV.pdb
     RDKit          3D

 29 29  0  0  1  0  0  0  0  0999 V2000
   25.8713  -17.8463  -20.1134 N   0  0  0  0  0  0  0  0  0  0  0  0
   27.2728  -17.7061  -20.0203 C   0  0  0  0  0  0  0  0  0  0  0  0
   27.8838  -17.0348  -20.9223 O   0  0  0  0  0  0  0  0  0  0  0  0
   28.0805  -18.2861  -18.9413 C   0  0  0  0  0  0  0  0  0  0  0  0
   27.2917  -18.8950  -17.8218 C   0  0  0  0  0  0  0  0  0  0  0  0
   28.0546  -20.0174  -17.2059 C   0  0  2  0  0  0  0  0  0  0  0  0
   28.3043  -21.0981  -18.1520 N   0  0  0  0  0  0  0  0  0  0  0  0
   27.3112  -20.6022  -16.0302 C   0  0  0  0  0  0  0  0  0  0  0  0
   26.4039  -21.4346  -16.2201 O   0  0  0  0  0  0  0  0  0  0  0  0
   24.5046  -21.1777   -7.5722 O   0  0  0  0  0  0  0  0  0  0  0  0
   25.2477  -20.9378   -8.7333 C   0  0  0  0  0  0  0  0  0  0  0  0
   25.6806  -21.9738   -9.5289 C   0  0  0  0  0  0  0  0  0  0  0  0
   26.4122  -21.7251  -10.6705 C   0  0  0  0  0  0  0  0  0  0  0  0
   26.7375  -20.4316  -11.0579 C   0  0  0  0  0  0  0  0  0  0  0  0
   27.5156  -20.2153  -12.2732 C   0  0  0  0  0  0  0  0  0  0  0  0
   26.7799  -20.5464  -13.5540 C   0  0  2  0  0  0  0  0  0  0  0  0
   27.6129  -20.2322  -14.6972 N   0  0  0  0  0  0  0  0  0  0  0  0
   25.4608  -19.8749  -13.6375 C   0  0  0  0  0  0  0  0  0  0  0  0
   25.4230  -18.6236  -13.6945 O   0  0  0  0  0  0  0  0  0  0  0  0
   26.3006  -19.4078  -10.2572 C   0  0  0  0  0  0  0  0  0  0  0  0
   25.5606  -19.6308   -9.0996 C   0  0  0  0  0  0  0  0  0  0  0  0
   23.0075  -19.2066  -15.9322 C   0  0  0  0  0  0  0  0  0  0  0  0
   22.2393  -19.9432  -14.8567 C   0  0  1  0  0  0  0  0  0  0  0  0
   22.0897  -21.3797  -15.3068 C   0  0  0  0  0  0  0  0  0  0  0  0
   22.9654  -19.9377  -13.5398 C   0  0  2  0  0  0  0  0  0  0  0  0
   24.2634  -20.5990  -13.6538 N   0  0  0  0  0  0  0  0  0  0  0  0
   22.1630  -20.7060  -12.5617 C   0  0  0  0  0  0  0  0  0  0  0  0
   21.1428  -20.1940  -12.0592 O   0  0  0  0  0  0  0  0  0  0  0  0
   22.5370  -21.9834  -12.2037 O   0  0  0  0  0  0  0  0  0  0  0  0
  1  2  1  0
  2  3  2  0
  2  4  1  0
  4  5  1  0
  6  5  1  0
  6  7  1  6
  8  6  1  0
  8  9  2  0
 10 11  1  0
 11 12  2  0
 12 13  1  0
 14 13  2  0
 14 15  1  0
 16 15  1  1
 16 17  1  0
 17  8  1  0
 18 16  1  0
 18 26  1  0
 19 18  2  0
 20 14  1  0
 21 20  2  0
 21 11  1  0
 23 22  1  6
 23 25  1  0
 24 23  1  0
 25 26  1  6
 25 27  1  0
 27 28  2  0
 27 29  1  0
M  END
$$$$
