PNV.pdb
     RDKit          3D

 23 23  0  0  1  0  0  0  0  0999 V2000
    9.2292  -14.6561   18.7814 N   0  0  0  0  0  0  0  0  0  0  0  0
    8.5380  -14.3883   17.5591 C   0  0  0  0  0  0  0  0  0  0  0  0
    7.2659  -13.7067   18.0794 C   0  0  0  0  0  0  0  0  0  0  0  0
    7.8915  -12.7280   19.0808 C   0  0  0  0  0  0  0  0  0  0  0  0
    8.9471  -13.6165   19.7251 C   0  0  1  0  0  0  0  0  0  0  0  0
    8.3374  -14.2627   20.9427 C   0  0  0  0  0  0  0  0  0  0  0  0
    7.3366  -13.7974   21.5303 O   0  0  0  0  0  0  0  0  0  0  0  0
    7.4457  -18.8356   21.3076 N   0  0  0  0  0  0  0  0  0  0  0  0
    8.7342  -18.2680   21.5644 C   0  0  0  0  0  0  0  0  0  0  0  0
    9.6280  -18.4410   20.7191 O   0  0  0  0  0  0  0  0  0  0  0  0
    8.9164  -17.5091   22.8249 C   0  0  0  0  0  0  0  0  0  0  0  0
    8.3754  -16.0977   22.6803 C   0  0  2  0  0  0  0  0  0  0  0  0
    8.8960  -15.4613   21.4822 N   0  0  0  0  0  0  0  0  0  0  0  0
    8.7031  -15.2738   23.8694 C   0  0  0  0  0  0  0  0  0  0  0  0
    9.8829  -14.9043   24.0998 O   0  0  0  0  0  0  0  0  0  0  0  0
    6.3131  -12.2854   25.2346 C   0  0  0  0  0  0  0  0  0  0  0  0
    6.7981  -13.1761   26.3656 C   0  0  2  0  0  0  0  0  0  0  0  0
    7.2942  -12.2386   27.4592 C   0  0  0  0  0  0  0  0  0  0  0  0
    7.9808  -14.0152   25.9408 C   0  0  2  0  0  0  0  0  0  0  0  0
    7.7126  -14.8515   24.8171 N   0  0  0  0  0  0  0  0  0  0  0  0
    8.3889  -14.8465   27.0939 C   0  0  0  0  0  0  0  0  0  0  0  0
    8.0510  -16.0596   27.2203 O   0  0  0  0  0  0  0  0  0  0  0  0
    9.1842  -14.2488   28.0821 O   0  0  0  0  0  0  0  0  0  0  0  0
  1  2  1  0
  2  3  1  0
  4  3  1  0
  5  6  1  1
  5  1  1  0
  5  4  1  0
  6  7  2  0
  8  9  1  0
  9 10  2  0
  9 11  1  0
 12 11  1  1
 12 14  1  0
 13 12  1  0
 13  6  1  0
 14 15  2  0
 14 20  1  0
 17 16  1  6
 17 19  1  0
 18 17  1  0
 19 21  1  0
 19 20  1  6
 21 22  2  0
 21 23  1  0
M  END
$$$$
