PNV.pdb
     RDKit          3D

 23 23  0  0  1  0  0  0  0  0999 V2000
    9.1902  -15.0223   19.1384 N   0  0  0  0  0  0  0  0  0  0  0  0
    8.6128  -14.8985   17.8366 C   0  0  0  0  0  0  0  0  0  0  0  0
    7.3388  -14.1036   18.1501 C   0  0  0  0  0  0  0  0  0  0  0  0
    7.9303  -13.0214   19.0617 C   0  0  0  0  0  0  0  0  0  0  0  0
    8.8857  -13.8530   19.9070 C   0  0  1  0  0  0  0  0  0  0  0  0
    8.1494  -14.3020   21.1432 C   0  0  0  0  0  0  0  0  0  0  0  0
    7.3369  -13.5732   21.7531 O   0  0  0  0  0  0  0  0  0  0  0  0
    5.9142  -18.5217   24.1970 N   0  0  0  0  0  0  0  0  0  0  0  0
    7.2532  -18.0319   24.3207 C   0  0  0  0  0  0  0  0  0  0  0  0
    7.7713  -18.0258   25.4498 O   0  0  0  0  0  0  0  0  0  0  0  0
    7.9345  -17.5640   23.0898 C   0  0  0  0  0  0  0  0  0  0  0  0
    7.7101  -16.0757   22.8894 C   0  0  2  0  0  0  0  0  0  0  0  0
    8.3595  -15.6106   21.6755 N   0  0  0  0  0  0  0  0  0  0  0  0
    8.2032  -15.2980   24.0522 C   0  0  0  0  0  0  0  0  0  0  0  0
    9.4345  -15.1607   24.2682 O   0  0  0  0  0  0  0  0  0  0  0  0
    6.0368  -12.1007   25.6144 C   0  0  0  0  0  0  0  0  0  0  0  0
    6.6680  -12.9925   26.6699 C   0  0  2  0  0  0  0  0  0  0  0  0
    7.3378  -12.0569   27.6685 C   0  0  0  0  0  0  0  0  0  0  0  0
    7.7593  -13.8574   26.0829 C   0  0  2  0  0  0  0  0  0  0  0  0
    7.3229  -14.6625   24.9896 N   0  0  0  0  0  0  0  0  0  0  0  0
    8.2850  -14.7234   27.1603 C   0  0  0  0  0  0  0  0  0  0  0  0
    7.8359  -15.8842   27.3895 O   0  0  0  0  0  0  0  0  0  0  0  0
    9.3260  -14.2209   27.9541 O   0  0  0  0  0  0  0  0  0  0  0  0
  1  2  1  0
  2  3  1  0
  4  3  1  0
  5  6  1  1
  5  1  1  0
  5  4  1  0
  6  7  2  0
  8  9  1  0
  9 10  2  0
  9 11  1  0
 12 11  1  1
 12 14  1  0
 13 12  1  0
 13  6  1  0
 14 15  2  0
 14 20  1  0
 17 16  1  6
 17 19  1  0
 18 17  1  0
 19 21  1  0
 19 20  1  6
 21 22  2  0
 21 23  1  0
M  END
$$$$
