PNV.pdb
     RDKit          3D

 23 23  0  0  1  0  0  0  0  0999 V2000
    8.7210  -14.6882   19.6622 N   0  0  0  0  0  0  0  0  0  0  0  0
    7.7225  -14.4207   18.6749 C   0  0  0  0  0  0  0  0  0  0  0  0
    6.6889  -13.6429   19.4997 C   0  0  0  0  0  0  0  0  0  0  0  0
    7.6237  -12.6708   20.2299 C   0  0  0  0  0  0  0  0  0  0  0  0
    8.7739  -13.6006   20.5922 C   0  0  1  0  0  0  0  0  0  0  0  0
    8.5077  -14.1642   21.9646 C   0  0  0  0  0  0  0  0  0  0  0  0
    8.3235  -13.4453   22.9709 O   0  0  0  0  0  0  0  0  0  0  0  0
    5.8105  -18.3263   24.7729 N   0  0  0  0  0  0  0  0  0  0  0  0
    7.2137  -18.2380   24.5057 C   0  0  0  0  0  0  0  0  0  0  0  0
    8.0004  -18.6740   25.3626 O   0  0  0  0  0  0  0  0  0  0  0  0
    7.6356  -17.6310   23.2205 C   0  0  0  0  0  0  0  0  0  0  0  0
    8.0040  -16.1709   23.4162 C   0  0  2  0  0  0  0  0  0  0  0  0
    8.4549  -15.5767   22.1691 N   0  0  0  0  0  0  0  0  0  0  0  0
    9.0528  -16.0173   24.4537 C   0  0  0  0  0  0  0  0  0  0  0  0
   10.2631  -16.2375   24.1930 O   0  0  0  0  0  0  0  0  0  0  0  0
   10.4736  -13.6174   28.5222 C   0  0  0  0  0  0  0  0  0  0  0  0
    9.4793  -13.9025   27.4096 C   0  0  2  0  0  0  0  0  0  0  0  0
    8.1141  -14.0040   28.0782 C   0  0  0  0  0  0  0  0  0  0  0  0
    9.7463  -15.2396   26.7582 C   0  0  2  0  0  0  0  0  0  0  0  0
    8.7597  -15.6138   25.7987 N   0  0  0  0  0  0  0  0  0  0  0  0
    9.8161  -16.2616   27.8249 C   0  0  0  0  0  0  0  0  0  0  0  0
    8.9109  -17.1269   28.0078 O   0  0  0  0  0  0  0  0  0  0  0  0
   10.9409  -16.2572   28.6622 O   0  0  0  0  0  0  0  0  0  0  0  0
  1  2  1  0
  2  3  1  0
  4  3  1  0
  5  6  1  1
  5  1  1  0
  5  4  1  0
  6  7  2  0
  8  9  1  0
  9 10  2  0
  9 11  1  0
 12 11  1  6
 12 14  1  0
 13 12  1  0
 13  6  1  0
 14 15  2  0
 14 20  1  0
 17 16  1  1
 17 19  1  0
 18 17  1  0
 19 21  1  0
 19 20  1  6
 21 22  2  0
 21 23  1  0
M  END
$$$$
