PNV.pdb
     RDKit          3D

 23 23  0  0  1  0  0  0  0  0999 V2000
    8.9679  -14.9086   18.9987 N   0  0  0  0  0  0  0  0  0  0  0  0
    8.3287  -14.5160   17.7818 C   0  0  0  0  0  0  0  0  0  0  0  0
    7.2294  -13.5852   18.3096 C   0  0  0  0  0  0  0  0  0  0  0  0
    8.0550  -12.7460   19.2924 C   0  0  0  0  0  0  0  0  0  0  0  0
    8.9165  -13.8254   19.9340 C   0  0  1  0  0  0  0  0  0  0  0  0
    8.2051  -14.3234   21.1659 C   0  0  0  0  0  0  0  0  0  0  0  0
    7.1906  -13.7651   21.6378 O   0  0  0  0  0  0  0  0  0  0  0  0
    7.4661  -18.7017   21.3998 N   0  0  0  0  0  0  0  0  0  0  0  0
    8.6017  -18.1077   22.0368 C   0  0  0  0  0  0  0  0  0  0  0  0
    9.7046  -18.2038   21.4732 O   0  0  0  0  0  0  0  0  0  0  0  0
    8.3853  -17.4152   23.3297 C   0  0  0  0  0  0  0  0  0  0  0  0
    8.0913  -15.9428   23.1031 C   0  0  2  0  0  0  0  0  0  0  0  0
    8.6770  -15.4814   21.8558 N   0  0  0  0  0  0  0  0  0  0  0  0
    8.5920  -15.1169   24.2288 C   0  0  0  0  0  0  0  0  0  0  0  0
    9.8247  -14.9694   24.4295 O   0  0  0  0  0  0  0  0  0  0  0  0
    5.7886  -13.0292   26.7552 C   0  0  0  0  0  0  0  0  0  0  0  0
    7.2057  -12.5117   26.5759 C   0  0  2  0  0  0  0  0  0  0  0  0
    7.1654  -11.5765   25.3739 C   0  0  0  0  0  0  0  0  0  0  0  0
    8.1625  -13.6283   26.2278 C   0  0  2  0  0  0  0  0  0  0  0  0
    7.7179  -14.4438   25.1455 N   0  0  0  0  0  0  0  0  0  0  0  0
    8.3504  -14.4619   27.4348 C   0  0  0  0  0  0  0  0  0  0  0  0
    7.9284  -15.6519   27.5205 O   0  0  0  0  0  0  0  0  0  0  0  0
    9.0270  -13.8933   28.5234 O   0  0  0  0  0  0  0  0  0  0  0  0
  1  2  1  0
  2  3  1  0
  4  3  1  0
  5  6  1  1
  5  1  1  0
  5  4  1  0
  6  7  2  0
  8  9  1  0
  9 10  2  0
  9 11  1  0
 12 11  1  1
 12 14  1  0
 13 12  1  0
 13  6  1  0
 14 15  2  0
 14 20  1  0
 17 16  1  6
 17 19  1  0
 18 17  1  0
 19 21  1  0
 19 20  1  6
 21 22  2  0
 21 23  1  0
M  END
$$$$
