PNV.pdb
     RDKit          3D

 23 23  0  0  1  0  0  0  0  0999 V2000
    8.8418  -16.7034   19.9767 N   0  0  0  0  0  0  0  0  0  0  0  0
    8.2366  -17.0826   18.7383 C   0  0  0  0  0  0  0  0  0  0  0  0
    6.9132  -16.3094   18.8045 C   0  0  0  0  0  0  0  0  0  0  0  0
    7.4389  -14.9408   19.2545 C   0  0  0  0  0  0  0  0  0  0  0  0
    8.4653  -15.3597   20.2984 C   0  0  1  0  0  0  0  0  0  0  0  0
    7.7831  -15.3895   21.6422 C   0  0  0  0  0  0  0  0  0  0  0  0
    7.0605  -14.4579   22.0587 O   0  0  0  0  0  0  0  0  0  0  0  0
    7.1143  -19.9524   22.9063 N   0  0  0  0  0  0  0  0  0  0  0  0
    6.5186  -18.8965   23.6668 C   0  0  0  0  0  0  0  0  0  0  0  0
    5.2796  -18.8063   23.6710 O   0  0  0  0  0  0  0  0  0  0  0  0
    7.4224  -17.9789   24.4011 C   0  0  0  0  0  0  0  0  0  0  0  0
    7.3361  -16.5749   23.8291 C   0  0  2  0  0  0  0  0  0  0  0  0
    7.9421  -16.5126   22.5099 N   0  0  0  0  0  0  0  0  0  0  0  0
    7.9859  -15.5895   24.7273 C   0  0  0  0  0  0  0  0  0  0  0  0
    9.2341  -15.4364   24.7307 O   0  0  0  0  0  0  0  0  0  0  0  0
    6.0127  -12.0723   25.9248 C   0  0  0  0  0  0  0  0  0  0  0  0
    6.8037  -12.7756   27.0145 C   0  0  2  0  0  0  0  0  0  0  0  0
    7.5849  -11.6870   27.7396 C   0  0  0  0  0  0  0  0  0  0  0  0
    7.8216  -13.7285   26.4320 C   0  0  2  0  0  0  0  0  0  0  0  0
    7.2454  -14.7608   25.6344 N   0  0  0  0  0  0  0  0  0  0  0  0
    8.5788  -14.3285   27.5518 C   0  0  0  0  0  0  0  0  0  0  0  0
    8.3542  -15.4960   27.9856 O   0  0  0  0  0  0  0  0  0  0  0  0
    9.5857  -13.5563   28.1485 O   0  0  0  0  0  0  0  0  0  0  0  0
  1  2  1  0
  2  3  1  0
  4  3  1  0
  5  6  1  1
  5  1  1  0
  5  4  1  0
  6  7  2  0
  8  9  1  0
  9 10  2  0
  9 11  1  0
 12 11  1  1
 12 14  1  0
 13 12  1  0
 13  6  1  0
 14 15  2  0
 14 20  1  0
 17 16  1  6
 17 19  1  0
 18 17  1  0
 19 21  1  0
 19 20  1  1
 21 22  2  0
 21 23  1  0
M  END
$$$$
