PNV.pdb
     RDKit          3D

 23 23  0  0  1  0  0  0  0  0999 V2000
    7.9210  -14.9704   18.3325 N   0  0  0  0  0  0  0  0  0  0  0  0
    7.7896  -13.7853   17.5440 C   0  0  0  0  0  0  0  0  0  0  0  0
    7.7149  -12.7088   18.6344 C   0  0  0  0  0  0  0  0  0  0  0  0
    8.8783  -13.1646   19.5237 C   0  0  0  0  0  0  0  0  0  0  0  0
    8.6662  -14.6725   19.5185 C   0  0  1  0  0  0  0  0  0  0  0  0
    7.8002  -15.0290   20.6996 C   0  0  0  0  0  0  0  0  0  0  0  0
    6.5951  -14.7056   20.7815 O   0  0  0  0  0  0  0  0  0  0  0  0
    7.3105  -18.8825   25.3334 N   0  0  0  0  0  0  0  0  0  0  0  0
    6.7488  -17.9645   24.3901 C   0  0  0  0  0  0  0  0  0  0  0  0
    5.6169  -17.5078   24.6218 O   0  0  0  0  0  0  0  0  0  0  0  0
    7.5575  -17.6185   23.1965 C   0  0  0  0  0  0  0  0  0  0  0  0
    7.5542  -16.1175   22.9673 C   0  0  2  0  0  0  0  0  0  0  0  0
    8.3399  -15.7686   21.7957 N   0  0  0  0  0  0  0  0  0  0  0  0
    8.0726  -15.3932   24.1534 C   0  0  0  0  0  0  0  0  0  0  0  0
    9.3072  -15.3144   24.3794 O   0  0  0  0  0  0  0  0  0  0  0  0
    6.0121  -12.1052   25.6974 C   0  0  0  0  0  0  0  0  0  0  0  0
    6.6009  -13.0283   26.7506 C   0  0  2  0  0  0  0  0  0  0  0  0
    7.2827  -12.1253   27.7708 C   0  0  0  0  0  0  0  0  0  0  0  0
    7.6750  -13.9177   26.1686 C   0  0  2  0  0  0  0  0  0  0  0  0
    7.2141  -14.7461   25.1031 N   0  0  0  0  0  0  0  0  0  0  0  0
    8.2102  -14.7611   27.2593 C   0  0  0  0  0  0  0  0  0  0  0  0
    7.8142  -15.9444   27.4702 O   0  0  0  0  0  0  0  0  0  0  0  0
    9.1985  -14.2100   28.0873 O   0  0  0  0  0  0  0  0  0  0  0  0
  1  2  1  0
  2  3  1  0
  4  3  1  0
  5  6  1  1
  5  1  1  0
  5  4  1  0
  6  7  2  0
  8  9  1  0
  9 10  2  0
  9 11  1  0
 12 11  1  1
 12 14  1  0
 13 12  1  0
 13  6  1  0
 14 15  2  0
 14 20  1  0
 17 16  1  6
 17 19  1  0
 18 17  1  0
 19 21  1  0
 19 20  1  6
 21 22  2  0
 21 23  1  0
M  END
$$$$
