PNV.pdb
     RDKit          3D

 23 23  0  0  1  0  0  0  0  0999 V2000
    9.0536  -14.9314   19.3361 N   0  0  0  0  0  0  0  0  0  0  0  0
    8.4346  -14.8908   18.0483 C   0  0  0  0  0  0  0  0  0  0  0  0
    7.0992  -14.2129   18.3808 C   0  0  0  0  0  0  0  0  0  0  0  0
    7.6083  -13.0603   19.2550 C   0  0  0  0  0  0  0  0  0  0  0  0
    8.6591  -13.7795   20.0901 C   0  0  1  0  0  0  0  0  0  0  0  0
    8.0000  -14.2690   21.3542 C   0  0  0  0  0  0  0  0  0  0  0  0
    7.3281  -13.5260   22.1023 O   0  0  0  0  0  0  0  0  0  0  0  0
    6.1385  -17.2934   24.9788 N   0  0  0  0  0  0  0  0  0  0  0  0
    6.9018  -18.2114   24.1897 C   0  0  0  0  0  0  0  0  0  0  0  0
    6.8934  -19.4101   24.5160 O   0  0  0  0  0  0  0  0  0  0  0  0
    7.6531  -17.6692   23.0322 C   0  0  0  0  0  0  0  0  0  0  0  0
    7.4890  -16.1620   22.9489 C   0  0  2  0  0  0  0  0  0  0  0  0
    8.1229  -15.6351   21.7522 N   0  0  0  0  0  0  0  0  0  0  0  0
    8.0493  -15.4948   24.1493 C   0  0  0  0  0  0  0  0  0  0  0  0
    9.2734  -15.5749   24.4264 O   0  0  0  0  0  0  0  0  0  0  0  0
    6.0518  -12.1542   25.6678 C   0  0  0  0  0  0  0  0  0  0  0  0
    6.7492  -12.9927   26.7253 C   0  0  2  0  0  0  0  0  0  0  0  0
    7.5189  -12.0130   27.6021 C   0  0  0  0  0  0  0  0  0  0  0  0
    7.7697  -13.9221   26.1101 C   0  0  2  0  0  0  0  0  0  0  0  0
    7.2454  -14.7275   25.0563 N   0  0  0  0  0  0  0  0  0  0  0  0
    8.3019  -14.7903   27.1826 C   0  0  0  0  0  0  0  0  0  0  0  0
    7.9224  -15.9859   27.3506 O   0  0  0  0  0  0  0  0  0  0  0  0
    9.2681  -14.2493   28.0429 O   0  0  0  0  0  0  0  0  0  0  0  0
  1  2  1  0
  2  3  1  0
  4  3  1  0
  5  6  1  1
  5  1  1  0
  5  4  1  0
  6  7  2  0
  8  9  1  0
  9 10  2  0
  9 11  1  0
 12 11  1  1
 12 14  1  0
 13 12  1  0
 13  6  1  0
 14 15  2  0
 14 20  1  0
 17 16  1  6
 17 19  1  0
 18 17  1  0
 19 21  1  0
 19 20  1  6
 21 22  2  0
 21 23  1  0
M  END
$$$$
