PNV.pdb
     RDKit          3D

 23 23  0  0  1  0  0  0  0  0999 V2000
    9.1856  -14.6340   18.8973 N   0  0  0  0  0  0  0  0  0  0  0  0
    8.4358  -14.3589   17.7118 C   0  0  0  0  0  0  0  0  0  0  0  0
    7.1368  -13.7977   18.3045 C   0  0  0  0  0  0  0  0  0  0  0  0
    7.7249  -12.8253   19.3344 C   0  0  0  0  0  0  0  0  0  0  0  0
    8.8625  -13.6644   19.9004 C   0  0  1  0  0  0  0  0  0  0  0  0
    8.3424  -14.4112   21.1020 C   0  0  0  0  0  0  0  0  0  0  0  0
    7.2710  -14.1157   21.6749 O   0  0  0  0  0  0  0  0  0  0  0  0
   10.2456  -18.7852   21.0908 N   0  0  0  0  0  0  0  0  0  0  0  0
    9.1650  -18.4063   21.9491 C   0  0  0  0  0  0  0  0  0  0  0  0
    8.0405  -18.8808   21.7174 O   0  0  0  0  0  0  0  0  0  0  0  0
    9.4606  -17.4707   23.0607 C   0  0  0  0  0  0  0  0  0  0  0  0
    8.6960  -16.1712   22.8811 C   0  0  2  0  0  0  0  0  0  0  0  0
    9.0743  -15.5120   21.6426 N   0  0  0  0  0  0  0  0  0  0  0  0
    8.9198  -15.2552   24.0261 C   0  0  0  0  0  0  0  0  0  0  0  0
   10.0529  -14.7575   24.2493 O   0  0  0  0  0  0  0  0  0  0  0  0
    6.1910  -12.4730   25.1109 C   0  0  0  0  0  0  0  0  0  0  0  0
    6.7535  -13.1933   26.3245 C   0  0  2  0  0  0  0  0  0  0  0  0
    7.1253  -12.1073   27.3261 C   0  0  0  0  0  0  0  0  0  0  0  0
    8.0285  -13.9313   25.9881 C   0  0  2  0  0  0  0  0  0  0  0  0
    7.8761  -14.8834   24.9372 N   0  0  0  0  0  0  0  0  0  0  0  0
    8.4985  -14.6132   27.2134 C   0  0  0  0  0  0  0  0  0  0  0  0
    8.2522  -15.8298   27.4602 O   0  0  0  0  0  0  0  0  0  0  0  0
    9.2479  -13.8644   28.1320 O   0  0  0  0  0  0  0  0  0  0  0  0
  1  2  1  0
  2  3  1  0
  4  3  1  0
  5  6  1  1
  5  1  1  0
  5  4  1  0
  6  7  2  0
  8  9  1  0
  9 10  2  0
  9 11  1  0
 12 11  1  1
 12 14  1  0
 13 12  1  0
 13  6  1  0
 14 15  2  0
 14 20  1  0
 17 16  1  6
 17 19  1  0
 18 17  1  0
 19 21  1  0
 19 20  1  6
 21 22  2  0
 21 23  1  0
M  END
$$$$
