PNV.pdb
     RDKit          3D

 23 23  0  0  1  0  0  0  0  0999 V2000
    9.0673  -14.9143   19.0363 N   0  0  0  0  0  0  0  0  0  0  0  0
    8.3572  -14.7976   17.8011 C   0  0  0  0  0  0  0  0  0  0  0  0
    7.1659  -13.9282   18.2233 C   0  0  0  0  0  0  0  0  0  0  0  0
    7.9065  -12.8529   19.0279 C   0  0  0  0  0  0  0  0  0  0  0  0
    8.9070  -13.7090   19.7928 C   0  0  1  0  0  0  0  0  0  0  0  0
    8.2898  -14.0830   21.1161 C   0  0  0  0  0  0  0  0  0  0  0  0
    7.7471  -13.2490   21.8733 O   0  0  0  0  0  0  0  0  0  0  0  0
    6.3499  -18.7908   21.2718 N   0  0  0  0  0  0  0  0  0  0  0  0
    6.3447  -17.9701   22.4442 C   0  0  0  0  0  0  0  0  0  0  0  0
    5.2623  -17.7902   23.0269 O   0  0  0  0  0  0  0  0  0  0  0  0
    7.6347  -17.3885   22.8865 C   0  0  0  0  0  0  0  0  0  0  0  0
    7.6076  -15.8754   22.7624 C   0  0  2  0  0  0  0  0  0  0  0  0
    8.3034  -15.4393   21.5635 N   0  0  0  0  0  0  0  0  0  0  0  0
    8.2083  -15.2290   23.9547 C   0  0  0  0  0  0  0  0  0  0  0  0
    9.4461  -15.2837   24.1701 O   0  0  0  0  0  0  0  0  0  0  0  0
    7.8012  -11.6319   27.3578 C   0  0  0  0  0  0  0  0  0  0  0  0
    7.1731  -12.4577   26.2482 C   0  0  2  0  0  0  0  0  0  0  0  0
    5.8255  -12.9273   26.7816 C   0  0  0  0  0  0  0  0  0  0  0  0
    7.9832  -13.6995   25.9562 C   0  0  2  0  0  0  0  0  0  0  0  0
    7.4299  -14.5115   24.9226 N   0  0  0  0  0  0  0  0  0  0  0  0
    8.0832  -14.4840   27.2059 C   0  0  0  0  0  0  0  0  0  0  0  0
    8.7095  -14.0739   28.2264 O   0  0  0  0  0  0  0  0  0  0  0  0
    7.4516  -15.7352   27.2449 O   0  0  0  0  0  0  0  0  0  0  0  0
  1  2  1  0
  2  3  1  0
  4  3  1  0
  5  6  1  1
  5  1  1  0
  5  4  1  0
  6  7  2  0
  8  9  1  0
  9 10  2  0
  9 11  1  0
 12 11  1  1
 12 14  1  0
 13 12  1  0
 13  6  1  0
 14 15  2  0
 14 20  1  0
 17 16  1  1
 17 19  1  0
 18 17  1  0
 19 21  1  0
 19 20  1  6
 21 22  2  0
 21 23  1  0
M  END
$$$$
