PNV.pdb
     RDKit          3D

 23 23  0  0  1  0  0  0  0  0999 V2000
    8.0062  -14.9359   18.4855 N   0  0  0  0  0  0  0  0  0  0  0  0
    7.2954  -13.9114   17.7865 C   0  0  0  0  0  0  0  0  0  0  0  0
    7.0632  -12.8913   18.9084 C   0  0  0  0  0  0  0  0  0  0  0  0
    8.4691  -12.8594   19.5202 C   0  0  0  0  0  0  0  0  0  0  0  0
    8.8206  -14.3410   19.5022 C   0  0  1  0  0  0  0  0  0  0  0  0
    8.4057  -14.9380   20.8225 C   0  0  0  0  0  0  0  0  0  0  0  0
    7.2396  -14.8614   21.2671 O   0  0  0  0  0  0  0  0  0  0  0  0
   10.5384  -18.4357   25.3313 N   0  0  0  0  0  0  0  0  0  0  0  0
    9.4525  -18.0925   24.4646 C   0  0  0  0  0  0  0  0  0  0  0  0
    8.2955  -18.2965   24.8682 O   0  0  0  0  0  0  0  0  0  0  0  0
    9.7820  -17.5143   23.1397 C   0  0  0  0  0  0  0  0  0  0  0  0
    9.0052  -16.2298   22.9106 C   0  0  2  0  0  0  0  0  0  0  0  0
    9.3553  -15.6309   21.6337 N   0  0  0  0  0  0  0  0  0  0  0  0
    9.2444  -15.2567   24.0041 C   0  0  0  0  0  0  0  0  0  0  0  0
   10.2780  -14.5406   24.0233 O   0  0  0  0  0  0  0  0  0  0  0  0
    7.4349  -11.9986   27.1213 C   0  0  0  0  0  0  0  0  0  0  0  0
    7.2544  -13.0978   26.0883 C   0  0  2  0  0  0  0  0  0  0  0  0
    6.0520  -13.9143   26.5452 C   0  0  0  0  0  0  0  0  0  0  0  0
    8.4375  -14.0377   26.0680 C   0  0  2  0  0  0  0  0  0  0  0  0
    8.3277  -15.0717   25.0919 N   0  0  0  0  0  0  0  0  0  0  0  0
    8.5689  -14.6358   27.4142 C   0  0  0  0  0  0  0  0  0  0  0  0
    8.9049  -13.9658   28.4339 O   0  0  0  0  0  0  0  0  0  0  0  0
    8.3069  -16.0067   27.5492 O   0  0  0  0  0  0  0  0  0  0  0  0
  1  2  1  0
  2  3  1  0
  4  3  1  0
  5  6  1  1
  5  1  1  0
  5  4  1  0
  6  7  2  0
  8  9  1  0
  9 10  2  0
  9 11  1  0
 12 11  1  1
 12 14  1  0
 13 12  1  0
 13  6  1  0
 14 15  2  0
 14 20  1  0
 17 16  1  1
 17 19  1  0
 18 17  1  0
 19 21  1  0
 19 20  1  6
 21 22  2  0
 21 23  1  0
M  END
$$$$
