PNV.pdb
     RDKit          3D

 23 23  0  0  1  0  0  0  0  0999 V2000
    9.1776  -14.7036   18.9968 N   0  0  0  0  0  0  0  0  0  0  0  0
    8.6595  -14.4101   17.6972 C   0  0  0  0  0  0  0  0  0  0  0  0
    7.4148  -13.5865   18.0519 C   0  0  0  0  0  0  0  0  0  0  0  0
    8.0222  -12.6416   19.0960 C   0  0  0  0  0  0  0  0  0  0  0  0
    8.9009  -13.6090   19.8777 C   0  0  1  0  0  0  0  0  0  0  0  0
    8.0946  -14.1481   21.0314 C   0  0  0  0  0  0  0  0  0  0  0  0
    7.2124  -13.4812   21.6150 O   0  0  0  0  0  0  0  0  0  0  0  0
    8.0733  -18.9111   20.7934 N   0  0  0  0  0  0  0  0  0  0  0  0
    7.2329  -18.1990   21.7070 C   0  0  0  0  0  0  0  0  0  0  0  0
    6.0069  -18.2140   21.5066 O   0  0  0  0  0  0  0  0  0  0  0  0
    7.8831  -17.4895   22.8348 C   0  0  0  0  0  0  0  0  0  0  0  0
    7.6775  -15.9902   22.7110 C   0  0  2  0  0  0  0  0  0  0  0  0
    8.3155  -15.4750   21.5113 N   0  0  0  0  0  0  0  0  0  0  0  0
    8.1990  -15.2774   23.9027 C   0  0  0  0  0  0  0  0  0  0  0  0
    9.4337  -15.1079   24.0708 O   0  0  0  0  0  0  0  0  0  0  0  0
    5.9539  -12.2792   25.7005 C   0  0  0  0  0  0  0  0  0  0  0  0
    6.6940  -13.1633   26.6897 C   0  0  2  0  0  0  0  0  0  0  0  0
    7.3667  -12.2199   27.6790 C   0  0  0  0  0  0  0  0  0  0  0  0
    7.7966  -13.9461   26.0150 C   0  0  2  0  0  0  0  0  0  0  0  0
    7.3435  -14.7439   24.9231 N   0  0  0  0  0  0  0  0  0  0  0  0
    8.4321  -14.8102   27.0330 C   0  0  0  0  0  0  0  0  0  0  0  0
    8.0454  -15.9918   27.2697 O   0  0  0  0  0  0  0  0  0  0  0  0
    9.5086  -14.2817   27.7596 O   0  0  0  0  0  0  0  0  0  0  0  0
  1  2  1  0
  2  3  1  0
  4  3  1  0
  5  6  1  1
  5  1  1  0
  5  4  1  0
  6  7  2  0
  8  9  1  0
  9 10  2  0
  9 11  1  0
 12 11  1  1
 12 14  1  0
 13 12  1  0
 13  6  1  0
 14 15  2  0
 14 20  1  0
 17 16  1  6
 17 19  1  0
 18 17  1  0
 19 21  1  0
 19 20  1  6
 21 22  2  0
 21 23  1  0
M  END
$$$$
