PNV.pdb
     RDKit          3D

 23 23  0  0  1  0  0  0  0  0999 V2000
    8.3894  -14.9749   18.7240 N   0  0  0  0  0  0  0  0  0  0  0  0
    7.8774  -14.1415   17.6816 C   0  0  0  0  0  0  0  0  0  0  0  0
    7.2604  -12.9950   18.4929 C   0  0  0  0  0  0  0  0  0  0  0  0
    8.4066  -12.7325   19.4773 C   0  0  0  0  0  0  0  0  0  0  0  0
    8.8207  -14.1577   19.8180 C   0  0  1  0  0  0  0  0  0  0  0  0
    8.0506  -14.5913   21.0390 C   0  0  0  0  0  0  0  0  0  0  0  0
    6.8360  -14.3424   21.2007 O   0  0  0  0  0  0  0  0  0  0  0  0
   10.1874  -16.8015   22.1891 N   0  0  0  0  0  0  0  0  0  0  0  0
    9.4130  -17.6840   23.0073 C   0  0  0  0  0  0  0  0  0  0  0  0
    9.8134  -18.8514   23.1495 O   0  0  0  0  0  0  0  0  0  0  0  0
    8.1817  -17.1445   23.6327 C   0  0  0  0  0  0  0  0  0  0  0  0
    8.0331  -15.6646   23.3271 C   0  0  2  0  0  0  0  0  0  0  0  0
    8.6984  -15.3213   22.0817 N   0  0  0  0  0  0  0  0  0  0  0  0
    8.5724  -14.8328   24.4304 C   0  0  0  0  0  0  0  0  0  0  0  0
    9.8037  -14.5943   24.5234 O   0  0  0  0  0  0  0  0  0  0  0  0
    5.8830  -12.8036   27.1209 C   0  0  0  0  0  0  0  0  0  0  0  0
    7.3101  -12.3281   26.9087 C   0  0  2  0  0  0  0  0  0  0  0  0
    7.2687  -11.3870   25.7113 C   0  0  0  0  0  0  0  0  0  0  0  0
    8.2241  -13.4714   26.5332 C   0  0  2  0  0  0  0  0  0  0  0  0
    7.7390  -14.2558   25.4454 N   0  0  0  0  0  0  0  0  0  0  0  0
    8.3978  -14.3281   27.7262 C   0  0  0  0  0  0  0  0  0  0  0  0
    7.8819  -15.4793   27.8264 O   0  0  0  0  0  0  0  0  0  0  0  0
    9.1702  -13.8275   28.7840 O   0  0  0  0  0  0  0  0  0  0  0  0
  1  2  1  0
  2  3  1  0
  4  3  1  0
  5  6  1  1
  5  1  1  0
  5  4  1  0
  6  7  2  0
  8  9  1  0
  9 10  2  0
  9 11  1  0
 12 11  1  1
 12 14  1  0
 13 12  1  0
 13  6  1  0
 14 15  2  0
 14 20  1  0
 17 16  1  6
 17 19  1  0
 18 17  1  0
 19 21  1  0
 19 20  1  6
 21 22  2  0
 21 23  1  0
M  END
$$$$
