PNV.pdb
     RDKit          3D

 23 23  0  0  1  0  0  0  0  0999 V2000
    8.9241  -14.7055   19.1352 N   0  0  0  0  0  0  0  0  0  0  0  0
    8.2077  -14.4951   17.9162 C   0  0  0  0  0  0  0  0  0  0  0  0
    7.0642  -13.5915   18.3949 C   0  0  0  0  0  0  0  0  0  0  0  0
    7.8640  -12.5932   19.2409 C   0  0  0  0  0  0  0  0  0  0  0  0
    8.8299  -13.5323   19.9509 C   0  0  1  0  0  0  0  0  0  0  0  0
    8.2091  -13.9406   21.2624 C   0  0  0  0  0  0  0  0  0  0  0  0
    7.5484  -13.1546   21.9759 O   0  0  0  0  0  0  0  0  0  0  0  0
    7.8714  -18.6293   21.0205 N   0  0  0  0  0  0  0  0  0  0  0  0
    7.0931  -17.8788   21.9580 C   0  0  0  0  0  0  0  0  0  0  0  0
    5.8677  -17.7999   21.7696 O   0  0  0  0  0  0  0  0  0  0  0  0
    7.8029  -17.2445   23.0946 C   0  0  0  0  0  0  0  0  0  0  0  0
    7.7418  -15.7314   22.9836 C   0  0  2  0  0  0  0  0  0  0  0  0
    8.3575  -15.2751   21.7490 N   0  0  0  0  0  0  0  0  0  0  0  0
    8.4005  -15.0819   24.1431 C   0  0  0  0  0  0  0  0  0  0  0  0
    9.6407  -15.1809   24.3263 O   0  0  0  0  0  0  0  0  0  0  0  0
    6.0239  -12.9207   27.0407 C   0  0  0  0  0  0  0  0  0  0  0  0
    7.4766  -12.5420   26.8078 C   0  0  2  0  0  0  0  0  0  0  0  0
    7.4658  -11.4696   25.7257 C   0  0  0  0  0  0  0  0  0  0  0  0
    8.2708  -13.7055   26.2609 C   0  0  2  0  0  0  0  0  0  0  0  0
    7.6782  -14.3116   25.1139 N   0  0  0  0  0  0  0  0  0  0  0  0
    8.4112  -14.7092   27.3379 C   0  0  0  0  0  0  0  0  0  0  0  0
    7.8242  -15.8301   27.3132 O   0  0  0  0  0  0  0  0  0  0  0  0
    9.2338  -14.3888   28.4273 O   0  0  0  0  0  0  0  0  0  0  0  0
  1  2  1  0
  2  3  1  0
  4  3  1  0
  5  6  1  1
  5  1  1  0
  5  4  1  0
  6  7  2  0
  8  9  1  0
  9 10  2  0
  9 11  1  0
 12 11  1  1
 12 14  1  0
 13 12  1  0
 13  6  1  0
 14 15  2  0
 14 20  1  0
 17 16  1  6
 17 19  1  0
 18 17  1  0
 19 21  1  0
 19 20  1  6
 21 22  2  0
 21 23  1  0
M  END
$$$$
