PNV.pdb
     RDKit          3D

 23 23  0  0  1  0  0  0  0  0999 V2000
    8.9058  -14.9051   19.1376 N   0  0  0  0  0  0  0  0  0  0  0  0
    8.2777  -14.6197   17.8856 C   0  0  0  0  0  0  0  0  0  0  0  0
    7.2301  -13.5815   18.3077 C   0  0  0  0  0  0  0  0  0  0  0  0
    8.1040  -12.6800   19.1885 C   0  0  0  0  0  0  0  0  0  0  0  0
    8.9155  -13.7227   19.9454 C   0  0  1  0  0  0  0  0  0  0  0  0
    8.1896  -14.0431   21.2269 C   0  0  0  0  0  0  0  0  0  0  0  0
    7.6551  -13.1683   21.9427 O   0  0  0  0  0  0  0  0  0  0  0  0
    6.9803  -18.5253   20.8965 N   0  0  0  0  0  0  0  0  0  0  0  0
    6.3721  -17.7790   21.9554 C   0  0  0  0  0  0  0  0  0  0  0  0
    5.1424  -17.6069   21.9178 O   0  0  0  0  0  0  0  0  0  0  0  0
    7.2526  -17.2603   23.0297 C   0  0  0  0  0  0  0  0  0  0  0  0
    7.4045  -15.7540   22.9135 C   0  0  2  0  0  0  0  0  0  0  0  0
    8.0837  -15.3932   21.6806 N   0  0  0  0  0  0  0  0  0  0  0  0
    8.1422  -15.1987   24.0743 C   0  0  0  0  0  0  0  0  0  0  0  0
    9.3943  -15.2861   24.1517 O   0  0  0  0  0  0  0  0  0  0  0  0
    6.0179  -13.0077   27.1510 C   0  0  0  0  0  0  0  0  0  0  0  0
    7.4754  -12.7267   26.8278 C   0  0  2  0  0  0  0  0  0  0  0  0
    7.4688  -11.6858   25.7153 C   0  0  0  0  0  0  0  0  0  0  0  0
    8.1657  -13.9518   26.2746 C   0  0  2  0  0  0  0  0  0  0  0  0
    7.4867  -14.5368   25.1651 N   0  0  0  0  0  0  0  0  0  0  0  0
    8.2816  -14.9428   27.3662 C   0  0  0  0  0  0  0  0  0  0  0  0
    7.6619  -16.0463   27.3612 O   0  0  0  0  0  0  0  0  0  0  0  0
    9.1183  -14.6303   28.4471 O   0  0  0  0  0  0  0  0  0  0  0  0
  1  2  1  0
  2  3  1  0
  4  3  1  0
  5  6  1  1
  5  1  1  0
  5  4  1  0
  6  7  2  0
  8  9  1  0
  9 10  2  0
  9 11  1  0
 12 11  1  1
 12 14  1  0
 13 12  1  0
 13  6  1  0
 14 15  2  0
 14 20  1  0
 17 16  1  6
 17 19  1  0
 18 17  1  0
 19 21  1  0
 19 20  1  6
 21 22  2  0
 21 23  1  0
M  END
$$$$
