LRH.pdb
     RDKit          3D

 30 30  0  0  1  0  0  0  0  0999 V2000
   14.8176  -14.1707  -16.0335 C   0  0  0  0  0  0  0  0  0  0  0  0
   16.2525  -14.5278  -16.2222 C   0  0  1  0  0  0  0  0  0  0  0  0
   16.4893  -14.6241  -17.7369 C   0  0  0  0  0  0  0  0  0  0  0  0
   17.1918  -13.4846  -15.7070 C   0  0  0  0  0  0  0  0  0  0  0  0
   18.6508  -13.7611  -15.9075 C   0  0  2  0  0  0  0  0  0  0  0  0
   19.0037  -15.0384  -15.3383 N   0  0  0  0  0  0  0  0  0  0  0  0
   19.4881  -12.6393  -15.5359 C   0  0  0  0  0  0  0  0  0  0  0  0
   19.1434  -11.9304  -14.5556 O   0  0  0  0  0  0  0  0  0  0  0  0
   27.9861  -11.0770  -16.7065 N   0  0  0  0  0  0  0  0  0  0  0  0
   27.1758  -11.9129  -15.8632 C   0  0  0  0  0  0  0  0  0  0  0  0
   27.7324  -12.9621  -15.3804 N   0  0  0  0  0  0  0  0  0  0  0  0
   25.8321  -11.6095  -15.5702 N   0  0  0  0  0  0  0  0  0  0  0  0
   25.2568  -10.3853  -16.0506 C   0  0  0  0  0  0  0  0  0  0  0  0
   23.8316  -10.1907  -15.5873 C   0  0  0  0  0  0  0  0  0  0  0  0
   22.9761  -11.3256  -16.0963 C   0  0  0  0  0  0  0  0  0  0  0  0
   21.5288  -11.1701  -15.6984 C   0  0  2  0  0  0  0  0  0  0  0  0
   20.7027  -12.2393  -16.1877 N   0  0  0  0  0  0  0  0  0  0  0  0
   20.9478   -9.8768  -16.1162 C   0  0  0  0  0  0  0  0  0  0  0  0
   20.5872   -9.6843  -17.3036 O   0  0  0  0  0  0  0  0  0  0  0  0
   27.2046  -13.7162  -14.8854 N   0  0  0  0  0  0  0  0  0  0  0  0
   20.7806   -8.8168  -15.1903 C   0  0  1  0  0  0  0  0  0  0  0  0
   20.1818   -7.5770  -15.6557 C   0  0  0  0  0  0  0  0  0  0  0  0
   18.6954   -7.6145  -15.5919 C   0  0  0  0  0  0  0  0  0  0  0  0
   18.1199   -6.3469  -16.0700 C   0  0  0  0  0  0  0  0  0  0  0  0
   18.6614   -5.3495  -16.8517 N   0  0  0  0  0  0  0  0  0  0  0  0
   17.7457   -4.3443  -17.0077 C   0  0  0  0  0  0  0  0  0  0  0  0
   16.6525   -4.7178  -16.3296 N   0  0  0  0  0  0  0  0  0  0  0  0
   16.8628   -5.9121  -15.7648 C   0  0  0  0  0  0  0  0  0  0  0  0
   20.7291   -6.4707  -14.8844 O   0  0  0  0  0  0  0  0  0  0  0  0
   21.6668   -6.5979  -13.8584 O   0  0  0  0  0  0  0  0  0  0  0  0
  2  1  1  6
  3  2  1  0
  4  2  1  0
  5  6  1  1
  5  7  1  0
  5  4  1  0
  7  8  2  0
 10  9  1  0
 10 12  1  0
 11 10  2  0
 12 13  1  0
 13 14  1  0
 14 15  1  0
 16 15  1  6
 16 18  1  0
 17  7  1  0
 17 16  1  0
 18 20  1  0
 19 18  2  0
 20 21  1  0
 21 22  1  6
 22 23  1  0
 23 24  2  0
 23 27  1  0
 24 25  1  0
 25 26  1  0
 27 26  2  0
 28 29  1  0
 28 21  1  0
 30 28  2  0
M  END
$$$$
