LRH.pdb
     RDKit          3D

 30 30  0  0  1  0  0  0  0  0999 V2000
   37.1431   -9.3405  -10.2038 C   0  0  0  0  0  0  0  0  0  0  0  0
   37.6631  -10.3665   -9.2557 C   0  0  1  0  0  0  0  0  0  0  0  0
   38.5608  -11.3087  -10.0716 C   0  0  0  0  0  0  0  0  0  0  0  0
   38.5190   -9.7890   -8.1740 C   0  0  0  0  0  0  0  0  0  0  0  0
   39.0244  -10.7599   -7.1508 C   0  0  2  0  0  0  0  0  0  0  0  0
   37.9236  -11.4511   -6.5260 N   0  0  0  0  0  0  0  0  0  0  0  0
   40.0029  -10.1726   -6.2590 C   0  0  0  0  0  0  0  0  0  0  0  0
   39.6042   -9.6643   -5.1797 O   0  0  0  0  0  0  0  0  0  0  0  0
   48.5560  -11.4709   -4.2243 N   0  0  0  0  0  0  0  0  0  0  0  0
   47.8819  -10.8164   -3.1364 C   0  0  0  0  0  0  0  0  0  0  0  0
   48.4793  -10.8137   -2.0020 N   0  0  0  0  0  0  0  0  0  0  0  0
   46.6242  -10.2017   -3.2908 N   0  0  0  0  0  0  0  0  0  0  0  0
   45.9363  -10.2920   -4.5473 C   0  0  0  0  0  0  0  0  0  0  0  0
   44.6244   -9.5419   -4.5480 C   0  0  0  0  0  0  0  0  0  0  0  0
   43.6577  -10.2167   -5.4909 C   0  0  0  0  0  0  0  0  0  0  0  0
   42.3260   -9.5089   -5.5434 C   0  0  2  0  0  0  0  0  0  0  0  0
   41.4188  -10.1063   -6.4843 N   0  0  0  0  0  0  0  0  0  0  0  0
   42.4473   -8.0649   -5.8349 C   0  0  0  0  0  0  0  0  0  0  0  0
   42.6992   -7.6595   -6.9965 O   0  0  0  0  0  0  0  0  0  0  0  0
   48.1025  -10.3302   -1.1555 N   0  0  0  0  0  0  0  0  0  0  0  0
   42.2834   -7.0962   -4.8134 C   0  0  2  0  0  0  0  0  0  0  0  0
   42.3234   -5.6899   -5.1780 C   0  0  0  0  0  0  0  0  0  0  0  0
   41.4745   -4.8554   -4.2847 C   0  0  0  0  0  0  0  0  0  0  0  0
   40.0585   -4.9453   -4.6761 C   0  0  0  0  0  0  0  0  0  0  0  0
   39.4514   -5.6184   -5.7142 N   0  0  0  0  0  0  0  0  0  0  0  0
   38.1045   -5.3771   -5.6886 C   0  0  0  0  0  0  0  0  0  0  0  0
   37.8838   -4.5645   -4.6468 N   0  0  0  0  0  0  0  0  0  0  0  0
   39.0428   -4.2989   -4.0335 C   0  0  0  0  0  0  0  0  0  0  0  0
   43.7086   -5.2431   -5.1810 O   0  0  0  0  0  0  0  0  0  0  0  0
   44.7317   -5.8051   -4.4159 O   0  0  0  0  0  0  0  0  0  0  0  0
  2  1  1  6
  3  2  1  0
  4  2  1  0
  5  6  1  1
  5  7  1  0
  5  4  1  0
  7  8  2  0
 10  9  1  0
 10 12  1  0
 11 10  2  0
 12 13  1  0
 13 14  1  0
 14 15  1  0
 16 15  1  6
 16 18  1  0
 17  7  1  0
 17 16  1  0
 18 20  1  0
 19 18  2  0
 20 21  1  0
 21 22  1  1
 22 23  1  0
 23 24  2  0
 23 27  1  0
 24 25  1  0
 25 26  1  0
 27 26  2  0
 28 29  1  0
 28 21  1  0
 30 28  2  0
M  END
$$$$
