LRH.pdb
     RDKit          3D

 30 30  0  0  1  0  0  0  0  0999 V2000
   28.3051  -26.1324  -22.2726 C   0  0  0  0  0  0  0  0  0  0  0  0
   29.7441  -25.8086  -22.0571 C   0  0  1  0  0  0  0  0  0  0  0  0
   29.8102  -24.8749  -20.8392 C   0  0  0  0  0  0  0  0  0  0  0  0
   30.5741  -27.0070  -21.7241 C   0  0  0  0  0  0  0  0  0  0  0  0
   32.0501  -26.7718  -21.6175 C   0  0  2  0  0  0  0  0  0  0  0  0
   32.5778  -26.3074  -22.8768 N   0  0  0  0  0  0  0  0  0  0  0  0
   32.7488  -27.8787  -20.9977 C   0  0  0  0  0  0  0  0  0  0  0  0
   33.1632  -28.8139  -21.7299 O   0  0  0  0  0  0  0  0  0  0  0  0
   40.0621  -28.8491  -16.8610 N   0  0  0  0  0  0  0  0  0  0  0  0
   39.4819  -30.1592  -16.7451 C   0  0  0  0  0  0  0  0  0  0  0  0
   40.2443  -31.0944  -16.3117 N   0  0  0  0  0  0  0  0  0  0  0  0
   38.1411  -30.4217  -17.0869 N   0  0  0  0  0  0  0  0  0  0  0  0
   37.3201  -29.3681  -17.6123 C   0  0  0  0  0  0  0  0  0  0  0  0
   35.9495  -29.8501  -18.0278 C   0  0  0  0  0  0  0  0  0  0  0  0
   35.1539  -28.6928  -18.5815 C   0  0  0  0  0  0  0  0  0  0  0  0
   33.7911  -29.1203  -19.0686 C   0  0  2  0  0  0  0  0  0  0  0  0
   33.0241  -28.0258  -19.5968 N   0  0  0  0  0  0  0  0  0  0  0  0
   32.9968  -29.8157  -18.0340 C   0  0  0  0  0  0  0  0  0  0  0  0
   32.6104  -29.2125  -17.0025 O   0  0  0  0  0  0  0  0  0  0  0  0
   39.9032  -32.0572  -16.0900 N   0  0  0  0  0  0  0  0  0  0  0  0
   32.6483  -31.1822  -18.1752 C   0  0  1  0  0  0  0  0  0  0  0  0
   31.6870  -31.7526  -17.2462 C   0  0  0  0  0  0  0  0  0  0  0  0
   30.4215  -30.9708  -17.1996 C   0  0  0  0  0  0  0  0  0  0  0  0
   29.4498  -31.6033  -16.2929 C   0  0  0  0  0  0  0  0  0  0  0  0
   29.6347  -32.3049  -15.1213 N   0  0  0  0  0  0  0  0  0  0  0  0
   28.4227  -32.7274  -14.6464 C   0  0  0  0  0  0  0  0  0  0  0  0
   27.5012  -32.2914  -15.5155 N   0  0  0  0  0  0  0  0  0  0  0  0
   28.1016  -31.6186  -16.5037 C   0  0  0  0  0  0  0  0  0  0  0  0
   31.4515  -33.1430  -17.6063 O   0  0  0  0  0  0  0  0  0  0  0  0
   31.1027  -34.1534  -16.7088 O   0  0  0  0  0  0  0  0  0  0  0  0
  2  1  1  1
  3  2  1  0
  4  2  1  0
  5  6  1  6
  5  7  1  0
  5  4  1  0
  7  8  2  0
 10  9  1  0
 10 12  1  0
 11 10  2  0
 12 13  1  0
 13 14  1  0
 14 15  1  0
 16 15  1  1
 16 18  1  0
 17  7  1  0
 17 16  1  0
 18 20  1  0
 19 18  2  0
 20 21  1  0
 21 22  1  6
 22 23  1  0
 23 24  2  0
 23 27  1  0
 24 25  1  0
 25 26  1  0
 27 26  2  0
 28 29  1  0
 28 21  1  0
 30 28  2  0
M  END
$$$$
