LRH.pdb
     RDKit          3D

 30 30  0  0  1  0  0  0  0  0999 V2000
   22.4613  -11.4824  -17.4553 C   0  0  0  0  0  0  0  0  0  0  0  0
   23.8355  -12.0173  -17.2373 C   0  0  1  0  0  0  0  0  0  0  0  0
   24.2653  -11.5739  -15.8309 C   0  0  0  0  0  0  0  0  0  0  0  0
   23.8954  -13.5113  -17.2527 C   0  0  0  0  0  0  0  0  0  0  0  0
   25.2243  -14.1166  -16.9167 C   0  0  2  0  0  0  0  0  0  0  0  0
   26.2215  -13.7042  -17.8736 N   0  0  0  0  0  0  0  0  0  0  0  0
   25.1394  -15.5375  -16.6500 C   0  0  0  0  0  0  0  0  0  0  0  0
   24.9475  -16.3203  -17.6158 O   0  0  0  0  0  0  0  0  0  0  0  0
   26.3432  -21.3503  -10.6970 N   0  0  0  0  0  0  0  0  0  0  0  0
   26.5545  -22.0180  -11.9523 C   0  0  0  0  0  0  0  0  0  0  0  0
   25.9853  -23.1566  -12.1061 N   0  0  0  0  0  0  0  0  0  0  0  0
   27.3461  -21.4632  -12.9764 N   0  0  0  0  0  0  0  0  0  0  0  0
   27.3503  -20.0428  -13.1836 C   0  0  0  0  0  0  0  0  0  0  0  0
   26.1502  -19.5653  -13.9681 C   0  0  0  0  0  0  0  0  0  0  0  0
   26.2978  -18.0936  -14.2703 C   0  0  0  0  0  0  0  0  0  0  0  0
   25.2124  -17.5898  -15.1897 C   0  0  2  0  0  0  0  0  0  0  0  0
   25.2527  -16.1638  -15.3635 N   0  0  0  0  0  0  0  0  0  0  0  0
   23.8559  -17.9888  -14.7594 C   0  0  0  0  0  0  0  0  0  0  0  0
   23.3667  -17.5597  -13.6853 O   0  0  0  0  0  0  0  0  0  0  0  0
   26.0482  -23.7159  -12.9867 N   0  0  0  0  0  0  0  0  0  0  0  0
   23.0678  -18.8665  -15.5452 C   0  0  1  0  0  0  0  0  0  0  0  0
   21.7780  -19.2920  -15.0277 C   0  0  0  0  0  0  0  0  0  0  0  0
   20.7182  -19.2621  -16.0722 C   0  0  0  0  0  0  0  0  0  0  0  0
   20.5113  -17.8916  -16.5674 C   0  0  0  0  0  0  0  0  0  0  0  0
   20.9067  -17.2885  -17.7418 N   0  0  0  0  0  0  0  0  0  0  0  0
   20.5032  -15.9807  -17.7413 C   0  0  0  0  0  0  0  0  0  0  0  0
   19.8668  -15.7799  -16.5799 N   0  0  0  0  0  0  0  0  0  0  0  0
   19.8647  -16.9134  -15.8694 C   0  0  0  0  0  0  0  0  0  0  0  0
   21.9200  -20.6151  -14.4382 O   0  0  0  0  0  0  0  0  0  0  0  0
   23.0598  -21.4150  -14.5339 O   0  0  0  0  0  0  0  0  0  0  0  0
  2  1  1  1
  3  2  1  0
  4  2  1  0
  5  6  1  6
  5  7  1  0
  5  4  1  0
  7  8  2  0
 10  9  1  0
 10 12  1  0
 11 10  2  0
 12 13  1  0
 13 14  1  0
 14 15  1  0
 16 15  1  1
 16 18  1  0
 17  7  1  0
 17 16  1  0
 18 20  1  0
 19 18  2  0
 20 21  1  0
 21 22  1  6
 22 23  1  0
 23 24  2  0
 23 27  1  0
 24 25  1  0
 25 26  1  0
 27 26  2  0
 28 29  1  0
 28 21  1  0
 30 28  2  0
M  END
$$$$
