LRH.pdb
     RDKit          3D

 30 30  0  0  1  0  0  0  0  0999 V2000
   29.0122  -12.8848  -17.6739 C   0  0  0  0  0  0  0  0  0  0  0  0
   27.7887  -13.0014  -16.8303 C   0  0  1  0  0  0  0  0  0  0  0  0
   28.2091  -12.6647  -15.3918 C   0  0  0  0  0  0  0  0  0  0  0  0
   26.7200  -12.0247  -17.2044 C   0  0  0  0  0  0  0  0  0  0  0  0
   25.4626  -12.0874  -16.3918 C   0  0  2  0  0  0  0  0  0  0  0  0
   25.0637  -13.4581  -16.1870 N   0  0  0  0  0  0  0  0  0  0  0  0
   24.4381  -11.1865  -16.8778 C   0  0  0  0  0  0  0  0  0  0  0  0
   24.7537   -9.9940  -17.1243 O   0  0  0  0  0  0  0  0  0  0  0  0
   19.3920  -15.6532  -15.8005 N   0  0  0  0  0  0  0  0  0  0  0  0
   18.5727  -14.6618  -16.4426 C   0  0  0  0  0  0  0  0  0  0  0  0
   17.3112  -14.7207  -16.2215 N   0  0  0  0  0  0  0  0  0  0  0  0
   19.1127  -13.6653  -17.2784 N   0  0  0  0  0  0  0  0  0  0  0  0
   20.5287  -13.6188  -17.5090 C   0  0  0  0  0  0  0  0  0  0  0  0
   20.9176  -12.5809  -18.5364 C   0  0  0  0  0  0  0  0  0  0  0  0
   20.7757  -11.2017  -17.9391 C   0  0  0  0  0  0  0  0  0  0  0  0
   22.1133  -10.5740  -17.6325 C   0  0  2  0  0  0  0  0  0  0  0  0
   23.0619  -11.5199  -17.1125 N   0  0  0  0  0  0  0  0  0  0  0  0
   22.0167   -9.4245  -16.7083 C   0  0  0  0  0  0  0  0  0  0  0  0
   22.0283   -9.5935  -15.4639 O   0  0  0  0  0  0  0  0  0  0  0  0
   16.6217  -14.0621  -16.6492 N   0  0  0  0  0  0  0  0  0  0  0  0
   21.9083   -8.0991  -17.1984 C   0  0  2  0  0  0  0  0  0  0  0  0
   21.7583   -7.0156  -16.2414 C   0  0  0  0  0  0  0  0  0  0  0  0
   22.7287   -5.9141  -16.4859 C   0  0  0  0  0  0  0  0  0  0  0  0
   22.4940   -4.7956  -15.5583 C   0  0  0  0  0  0  0  0  0  0  0  0
   21.8686   -4.7589  -14.3308 N   0  0  0  0  0  0  0  0  0  0  0  0
   21.8699   -3.4752  -13.8564 C   0  0  0  0  0  0  0  0  0  0  0  0
   22.4888   -2.7291  -14.7809 N   0  0  0  0  0  0  0  0  0  0  0  0
   22.8664   -3.5057  -15.8027 C   0  0  0  0  0  0  0  0  0  0  0  0
   20.3822   -6.5426  -16.2769 O   0  0  0  0  0  0  0  0  0  0  0  0
   19.7060   -5.9686  -15.1993 O   0  0  0  0  0  0  0  0  0  0  0  0
  2  1  1  6
  3  2  1  0
  4  2  1  0
  5  6  1  6
  5  7  1  0
  5  4  1  0
  7  8  2  0
 10  9  1  0
 10 12  1  0
 11 10  2  0
 12 13  1  0
 13 14  1  0
 14 15  1  0
 16 15  1  1
 16 18  1  0
 17  7  1  0
 17 16  1  0
 18 20  1  0
 19 18  2  0
 20 21  1  0
 21 22  1  6
 22 23  1  0
 23 24  2  0
 23 27  1  0
 24 25  1  0
 25 26  1  0
 27 26  2  0
 28 29  1  0
 28 21  1  0
 30 28  2  0
M  END
$$$$
