LRH.pdb
     RDKit          3D

 30 30  0  0  1  0  0  0  0  0999 V2000
   27.6782  -14.0528  -19.9612 C   0  0  0  0  0  0  0  0  0  0  0  0
   27.2643  -14.1213  -18.5308 C   0  0  1  0  0  0  0  0  0  0  0  0
   26.6856  -12.7447  -18.1710 C   0  0  0  0  0  0  0  0  0  0  0  0
   26.1813  -15.1209  -18.2781 C   0  0  0  0  0  0  0  0  0  0  0  0
   25.7240  -15.2452  -16.8566 C   0  0  2  0  0  0  0  0  0  0  0  0
   26.8137  -14.9733  -15.9519 N   0  0  0  0  0  0  0  0  0  0  0  0
   24.9771  -16.4622  -16.6146 C   0  0  0  0  0  0  0  0  0  0  0  0
   23.9564  -16.6904  -17.3136 O   0  0  0  0  0  0  0  0  0  0  0  0
   26.6876  -20.2912  -10.1993 N   0  0  0  0  0  0  0  0  0  0  0  0
   25.7360  -21.0838  -10.9292 C   0  0  0  0  0  0  0  0  0  0  0  0
   24.6930  -21.4699  -10.2915 N   0  0  0  0  0  0  0  0  0  0  0  0
   25.9239  -21.4296  -12.2814 N   0  0  0  0  0  0  0  0  0  0  0  0
   26.7716  -20.6226  -13.1123 C   0  0  0  0  0  0  0  0  0  0  0  0
   26.0627  -19.4050  -13.6588 C   0  0  0  0  0  0  0  0  0  0  0  0
   25.2566  -19.7937  -14.8746 C   0  0  0  0  0  0  0  0  0  0  0  0
   24.4743  -18.6310  -15.4343 C   0  0  2  0  0  0  0  0  0  0  0  0
   25.2865  -17.4622  -15.6326 N   0  0  0  0  0  0  0  0  0  0  0  0
   23.2994  -18.2726  -14.6123 C   0  0  0  0  0  0  0  0  0  0  0  0
   23.3607  -17.3453  -13.7677 O   0  0  0  0  0  0  0  0  0  0  0  0
   23.9570  -22.0820  -10.7110 N   0  0  0  0  0  0  0  0  0  0  0  0
   22.0701  -18.9640  -14.7527 C   0  0  1  0  0  0  0  0  0  0  0  0
   20.8815  -18.3980  -14.1370 C   0  0  0  0  0  0  0  0  0  0  0  0
   20.5064  -17.0907  -14.7412 C   0  0  0  0  0  0  0  0  0  0  0  0
   19.2741  -16.5671  -14.1298 C   0  0  0  0  0  0  0  0  0  0  0  0
   18.7633  -16.7197  -12.8590 N   0  0  0  0  0  0  0  0  0  0  0  0
   17.5654  -16.0643  -12.7670 C   0  0  0  0  0  0  0  0  0  0  0  0
   17.3403  -15.5141  -13.9674 N   0  0  0  0  0  0  0  0  0  0  0  0
   18.3533  -15.8069  -14.7907 C   0  0  0  0  0  0  0  0  0  0  0  0
   19.7983  -19.3661  -14.2257 O   0  0  0  0  0  0  0  0  0  0  0  0
   18.8248  -19.5689  -13.2462 O   0  0  0  0  0  0  0  0  0  0  0  0
  2  1  1  6
  3  2  1  0
  4  2  1  0
  5  6  1  1
  5  7  1  0
  5  4  1  0
  7  8  2  0
 10  9  1  0
 10 12  1  0
 11 10  2  0
 12 13  1  0
 13 14  1  0
 14 15  1  0
 16 15  1  1
 16 18  1  0
 17  7  1  0
 17 16  1  0
 18 20  1  0
 19 18  2  0
 20 21  1  0
 21 22  1  6
 22 23  1  0
 23 24  2  0
 23 27  1  0
 24 25  1  0
 25 26  1  0
 27 26  2  0
 28 29  1  0
 28 21  1  0
 30 28  2  0
M  END
$$$$
