LRH.pdb
     RDKit          3D

 30 30  0  0  1  0  0  0  0  0999 V2000
   28.0205  -17.8917   -6.2552 C   0  0  0  0  0  0  0  0  0  0  0  0
   27.8707  -19.2632   -6.8200 C   0  0  1  0  0  0  0  0  0  0  0  0
   27.9324  -20.2389   -5.6353 C   0  0  0  0  0  0  0  0  0  0  0  0
   26.5518  -19.4839   -7.4890 C   0  0  0  0  0  0  0  0  0  0  0  0
   26.4329  -20.7354   -8.3044 C   0  0  2  0  0  0  0  0  0  0  0  0
   27.6579  -21.4940   -8.2436 N   0  0  0  0  0  0  0  0  0  0  0  0
   25.8937  -20.4916   -9.6263 C   0  0  0  0  0  0  0  0  0  0  0  0
   25.5710  -19.3161   -9.9367 O   0  0  0  0  0  0  0  0  0  0  0  0
   26.1330  -25.6831  -15.6928 N   0  0  0  0  0  0  0  0  0  0  0  0
   24.9121  -25.0026  -16.0283 C   0  0  0  0  0  0  0  0  0  0  0  0
   23.9308  -25.7304  -16.4172 N   0  0  0  0  0  0  0  0  0  0  0  0
   24.7815  -23.6031  -15.9402 N   0  0  0  0  0  0  0  0  0  0  0  0
   25.8441  -22.8226  -15.3726 C   0  0  0  0  0  0  0  0  0  0  0  0
   25.3439  -21.7730  -14.4071 C   0  0  0  0  0  0  0  0  0  0  0  0
   25.6780  -22.1868  -12.9943 C   0  0  0  0  0  0  0  0  0  0  0  0
   25.2860  -21.1352  -11.9855 C   0  0  2  0  0  0  0  0  0  0  0  0
   25.6814  -21.4780  -10.6472 N   0  0  0  0  0  0  0  0  0  0  0  0
   23.8406  -20.8262  -12.0012 C   0  0  0  0  0  0  0  0  0  0  0  0
   23.0324  -21.4820  -11.2985 O   0  0  0  0  0  0  0  0  0  0  0  0
   22.9939  -25.3433  -16.6715 N   0  0  0  0  0  0  0  0  0  0  0  0
   23.3246  -19.7820  -12.8087 C   0  0  2  0  0  0  0  0  0  0  0  0
   21.9027  -19.4894  -12.7395 C   0  0  0  0  0  0  0  0  0  0  0  0
   21.5508  -18.2438  -13.4741 C   0  0  0  0  0  0  0  0  0  0  0  0
   20.1361  -17.8956  -13.2643 C   0  0  0  0  0  0  0  0  0  0  0  0
   19.1660  -18.4942  -12.4899 N   0  0  0  0  0  0  0  0  0  0  0  0
   17.9834  -17.8219  -12.6399 C   0  0  0  0  0  0  0  0  0  0  0  0
   18.2218  -16.8205  -13.4971 N   0  0  0  0  0  0  0  0  0  0  0  0
   19.5039  -16.8534  -13.8777 C   0  0  0  0  0  0  0  0  0  0  0  0
   21.1604  -20.6388  -13.2360 O   0  0  0  0  0  0  0  0  0  0  0  0
   21.4949  -21.3764  -14.3727 O   0  0  0  0  0  0  0  0  0  0  0  0
  2  1  1  1
  3  2  1  0
  4  2  1  0
  5  6  1  6
  5  7  1  0
  5  4  1  0
  7  8  2  0
 10  9  1  0
 10 12  1  0
 11 10  2  0
 12 13  1  0
 13 14  1  0
 14 15  1  0
 16 15  1  6
 16 18  1  0
 17  7  1  0
 17 16  1  0
 18 20  1  0
 19 18  2  0
 20 21  1  0
 21 22  1  6
 22 23  1  0
 23 24  2  0
 23 27  1  0
 24 25  1  0
 25 26  1  0
 27 26  2  0
 28 29  1  0
 28 21  1  0
 30 28  2  0
M  END
$$$$
