LRH.pdb
     RDKit          3D

 30 30  0  0  1  0  0  0  0  0999 V2000
   28.2773  -18.5832   -5.8418 C   0  0  0  0  0  0  0  0  0  0  0  0
   28.2419  -19.8116   -6.6856 C   0  0  1  0  0  0  0  0  0  0  0  0
   28.4826  -21.0019   -5.7451 C   0  0  0  0  0  0  0  0  0  0  0  0
   26.9154  -20.0410   -7.3366 C   0  0  0  0  0  0  0  0  0  0  0  0
   26.9092  -20.9967   -8.4906 C   0  0  2  0  0  0  0  0  0  0  0  0
   28.2331  -21.5227   -8.7155 N   0  0  0  0  0  0  0  0  0  0  0  0
   26.2234  -20.4667   -9.6509 C   0  0  0  0  0  0  0  0  0  0  0  0
   25.6961  -19.3276   -9.5696 O   0  0  0  0  0  0  0  0  0  0  0  0
   29.7982  -22.4670  -15.2778 N   0  0  0  0  0  0  0  0  0  0  0  0
   28.4320  -22.2870  -15.6871 C   0  0  0  0  0  0  0  0  0  0  0  0
   27.8918  -23.2478  -16.3420 N   0  0  0  0  0  0  0  0  0  0  0  0
   27.7054  -21.1173  -15.3918 N   0  0  0  0  0  0  0  0  0  0  0  0
   28.2910  -20.1060  -14.5582 C   0  0  0  0  0  0  0  0  0  0  0  0
   27.5530  -19.9296  -13.2513 C   0  0  0  0  0  0  0  0  0  0  0  0
   26.2273  -20.6486  -13.3192 C   0  0  0  0  0  0  0  0  0  0  0  0
   25.4343  -20.5018  -12.0438 C   0  0  2  0  0  0  0  0  0  0  0  0
   26.0764  -21.1237  -10.9186 N   0  0  0  0  0  0  0  0  0  0  0  0
   24.0520  -21.0125  -12.1578 C   0  0  0  0  0  0  0  0  0  0  0  0
   23.5961  -21.8339  -11.3245 O   0  0  0  0  0  0  0  0  0  0  0  0
   26.8956  -23.2389  -16.6580 N   0  0  0  0  0  0  0  0  0  0  0  0
   23.2009  -20.5909  -13.2099 C   0  0  2  0  0  0  0  0  0  0  0  0
   21.7894  -20.9295  -13.1385 C   0  0  0  0  0  0  0  0  0  0  0  0
   21.0825  -20.1625  -12.0769 C   0  0  0  0  0  0  0  0  0  0  0  0
   19.6379  -20.4432  -12.1036 C   0  0  0  0  0  0  0  0  0  0  0  0
   18.9001  -21.2960  -12.8958 N   0  0  0  0  0  0  0  0  0  0  0  0
   17.5755  -21.1919  -12.5677 C   0  0  0  0  0  0  0  0  0  0  0  0
   17.4977  -20.2853  -11.5847 N   0  0  0  0  0  0  0  0  0  0  0  0
   18.7226  -19.8302  -11.2980 C   0  0  0  0  0  0  0  0  0  0  0  0
   21.1881  -20.7221  -14.4476 O   0  0  0  0  0  0  0  0  0  0  0  0
   20.3020  -21.6033  -15.0692 O   0  0  0  0  0  0  0  0  0  0  0  0
  2  1  1  1
  3  2  1  0
  4  2  1  0
  5  6  1  6
  5  7  1  0
  5  4  1  0
  7  8  2  0
 10  9  1  0
 10 12  1  0
 11 10  2  0
 12 13  1  0
 13 14  1  0
 14 15  1  0
 16 15  1  6
 16 18  1  0
 17  7  1  0
 17 16  1  0
 18 20  1  0
 19 18  2  0
 20 21  1  0
 21 22  1  6
 22 23  1  0
 23 24  2  0
 23 27  1  0
 24 25  1  0
 25 26  1  0
 27 26  2  0
 28 29  1  0
 28 21  1  0
 30 28  2  0
M  END
$$$$
