LRH.pdb
     RDKit          3D

 30 30  0  0  1  0  0  0  0  0999 V2000
   34.8277  -33.4841  -19.7173 C   0  0  0  0  0  0  0  0  0  0  0  0
   34.3018  -32.0918  -19.8005 C   0  0  1  0  0  0  0  0  0  0  0  0
   33.2112  -32.0944  -20.8821 C   0  0  0  0  0  0  0  0  0  0  0  0
   33.6502  -31.6316  -18.5358 C   0  0  0  0  0  0  0  0  0  0  0  0
   33.2044  -30.2013  -18.5121 C   0  0  2  0  0  0  0  0  0  0  0  0
   34.3435  -29.3203  -18.4350 N   0  0  0  0  0  0  0  0  0  0  0  0
   32.1427  -29.9630  -17.5563 C   0  0  0  0  0  0  0  0  0  0  0  0
   32.3802  -29.2259  -16.5650 O   0  0  0  0  0  0  0  0  0  0  0  0
   26.5943  -24.3308  -17.7829 N   0  0  0  0  0  0  0  0  0  0  0  0
   27.9163  -24.5635  -17.2686 C   0  0  0  0  0  0  0  0  0  0  0  0
   28.6927  -23.5467  -17.1844 N   0  0  0  0  0  0  0  0  0  0  0  0
   28.3554  -25.8413  -16.8712 N   0  0  0  0  0  0  0  0  0  0  0  0
   27.4589  -26.9594  -16.9501 C   0  0  0  0  0  0  0  0  0  0  0  0
   28.0518  -28.2230  -16.3707 C   0  0  0  0  0  0  0  0  0  0  0  0
   29.1554  -28.7220  -17.2719 C   0  0  0  0  0  0  0  0  0  0  0  0
   29.7451  -30.0222  -16.7832 C   0  0  2  0  0  0  0  0  0  0  0  0
   30.8115  -30.4957  -17.6221 N   0  0  0  0  0  0  0  0  0  0  0  0
   28.7386  -31.0931  -16.6258 C   0  0  0  0  0  0  0  0  0  0  0  0
   28.2546  -31.6769  -17.6268 O   0  0  0  0  0  0  0  0  0  0  0  0
   29.6750  -23.6017  -16.8318 N   0  0  0  0  0  0  0  0  0  0  0  0
   28.2901  -31.4924  -15.3419 C   0  0  2  0  0  0  0  0  0  0  0  0
   27.3676  -32.6113  -15.2462 C   0  0  0  0  0  0  0  0  0  0  0  0
   27.1458  -33.0353  -13.8369 C   0  0  0  0  0  0  0  0  0  0  0  0
   26.2817  -34.2255  -13.7793 C   0  0  0  0  0  0  0  0  0  0  0  0
   25.6541  -34.9328  -14.7818 N   0  0  0  0  0  0  0  0  0  0  0  0
   24.9294  -35.9560  -14.2333 C   0  0  0  0  0  0  0  0  0  0  0  0
   25.1080  -35.8801  -12.9079 N   0  0  0  0  0  0  0  0  0  0  0  0
   25.9136  -34.8507  -12.6235 C   0  0  0  0  0  0  0  0  0  0  0  0
   26.1210  -32.2522  -15.9061 O   0  0  0  0  0  0  0  0  0  0  0  0
   25.6593  -30.9475  -16.0873 O   0  0  0  0  0  0  0  0  0  0  0  0
  2  1  1  1
  3  2  1  0
  4  2  1  0
  5  6  1  1
  5  7  1  0
  5  4  1  0
  7  8  2  0
 10  9  1  0
 10 12  1  0
 11 10  2  0
 12 13  1  0
 13 14  1  0
 14 15  1  0
 16 15  1  6
 16 18  1  0
 17  7  1  0
 17 16  1  0
 18 20  1  0
 19 18  2  0
 20 21  1  0
 21 22  1  1
 22 23  1  0
 23 24  2  0
 23 27  1  0
 24 25  1  0
 25 26  1  0
 27 26  2  0
 28 29  1  0
 28 21  1  0
 30 28  2  0
M  END
$$$$
