LRH.pdb
     RDKit          3D

 30 30  0  0  1  0  0  0  0  0999 V2000
   14.4572   -4.3909   -6.9038 C   0  0  0  0  0  0  0  0  0  0  0  0
   14.1486   -5.5156   -7.8323 C   0  0  1  0  0  0  0  0  0  0  0  0
   13.4128   -4.9070   -9.0356 C   0  0  0  0  0  0  0  0  0  0  0  0
   15.3712   -6.1863   -8.3719 C   0  0  0  0  0  0  0  0  0  0  0  0
   15.1312   -7.2968   -9.3489 C   0  0  2  0  0  0  0  0  0  0  0  0
   14.6791   -8.4819   -8.6626 N   0  0  0  0  0  0  0  0  0  0  0  0
   16.2297   -7.4718  -10.2764 C   0  0  0  0  0  0  0  0  0  0  0  0
   17.2415   -8.1151   -9.8959 O   0  0  0  0  0  0  0  0  0  0  0  0
   18.7014  -12.7148  -14.8794 N   0  0  0  0  0  0  0  0  0  0  0  0
   17.7215  -12.0495  -15.6940 C   0  0  0  0  0  0  0  0  0  0  0  0
   17.0712  -12.7752  -16.5272 N   0  0  0  0  0  0  0  0  0  0  0  0
   17.4739  -10.6666  -15.5953 N   0  0  0  0  0  0  0  0  0  0  0  0
   18.2017   -9.8786  -14.6415 C   0  0  0  0  0  0  0  0  0  0  0  0
   17.8857   -8.4042  -14.7425 C   0  0  0  0  0  0  0  0  0  0  0  0
   16.7915   -8.0543  -13.7631 C   0  0  0  0  0  0  0  0  0  0  0  0
   17.3255   -7.3465  -12.5420 C   0  0  2  0  0  0  0  0  0  0  0  0
   16.2875   -6.9730  -11.6211 N   0  0  0  0  0  0  0  0  0  0  0  0
   18.1361   -6.1548  -12.8701 C   0  0  0  0  0  0  0  0  0  0  0  0
   17.6258   -5.1679  -13.4554 O   0  0  0  0  0  0  0  0  0  0  0  0
   16.3795  -12.3882  -17.2083 N   0  0  0  0  0  0  0  0  0  0  0  0
   19.5116   -6.0908  -12.5343 C   0  0  2  0  0  0  0  0  0  0  0  0
   20.3380   -5.0864  -13.1828 C   0  0  0  0  0  0  0  0  0  0  0  0
   20.8472   -5.5476  -14.5030 C   0  0  0  0  0  0  0  0  0  0  0  0
   21.4084   -6.9045  -14.4014 C   0  0  0  0  0  0  0  0  0  0  0  0
   21.7450   -7.6603  -13.2993 N   0  0  0  0  0  0  0  0  0  0  0  0
   22.2614   -8.8597  -13.7091 C   0  0  0  0  0  0  0  0  0  0  0  0
   22.2437   -8.8432  -15.0484 N   0  0  0  0  0  0  0  0  0  0  0  0
   21.7366   -7.6809  -15.4747 C   0  0  0  0  0  0  0  0  0  0  0  0
   19.5760   -3.8517  -13.2977 O   0  0  0  0  0  0  0  0  0  0  0  0
   18.2374   -3.7012  -12.9324 O   0  0  0  0  0  0  0  0  0  0  0  0
  2  1  1  1
  3  2  1  0
  4  2  1  0
  5  6  1  1
  5  7  1  0
  5  4  1  0
  7  8  2  0
 10  9  1  0
 10 12  1  0
 11 10  2  0
 12 13  1  0
 13 14  1  0
 14 15  1  0
 16 15  1  6
 16 18  1  0
 17  7  1  0
 17 16  1  0
 18 20  1  0
 19 18  2  0
 20 21  1  0
 21 22  1  1
 22 23  1  0
 23 24  2  0
 23 27  1  0
 24 25  1  0
 25 26  1  0
 27 26  2  0
 28 29  1  0
 28 21  1  0
 30 28  2  0
M  END
$$$$
