LRH.pdb
     RDKit          3D

 30 30  0  0  1  0  0  0  0  0999 V2000
   26.1173  -14.7721  -17.8314 C   0  0  0  0  0  0  0  0  0  0  0  0
   26.9712  -15.9907  -17.7409 C   0  0  1  0  0  0  0  0  0  0  0  0
   28.2370  -15.5879  -16.9695 C   0  0  0  0  0  0  0  0  0  0  0  0
   26.3335  -17.1008  -16.9683 C   0  0  0  0  0  0  0  0  0  0  0  0
   27.1579  -18.3411  -16.8032 C   0  0  2  0  0  0  0  0  0  0  0  0
   27.5174  -18.8816  -18.0910 N   0  0  0  0  0  0  0  0  0  0  0  0
   26.5828  -19.2717  -15.8542 C   0  0  0  0  0  0  0  0  0  0  0  0
   25.6623  -20.0357  -16.2434 O   0  0  0  0  0  0  0  0  0  0  0  0
   29.2677  -23.1232   -9.3895 N   0  0  0  0  0  0  0  0  0  0  0  0
   29.4387  -21.7652   -9.8288 C   0  0  0  0  0  0  0  0  0  0  0  0
   30.6428  -21.3549   -9.9884 N   0  0  0  0  0  0  0  0  0  0  0  0
   28.3468  -20.9111  -10.0771 N   0  0  0  0  0  0  0  0  0  0  0  0
   27.0081  -21.4210   -9.9862 C   0  0  0  0  0  0  0  0  0  0  0  0
   26.2752  -21.3714  -11.3069 C   0  0  0  0  0  0  0  0  0  0  0  0
   27.0064  -20.4526  -12.2556 C   0  0  0  0  0  0  0  0  0  0  0  0
   26.3003  -20.3267  -13.5833 C   0  0  2  0  0  0  0  0  0  0  0  0
   26.9621  -19.4169  -14.4775 N   0  0  0  0  0  0  0  0  0  0  0  0
   24.8819  -19.9328  -13.4513 C   0  0  0  0  0  0  0  0  0  0  0  0
   24.5646  -18.7706  -13.0964 O   0  0  0  0  0  0  0  0  0  0  0  0
   30.8849  -20.3728  -10.2513 N   0  0  0  0  0  0  0  0  0  0  0  0
   23.8388  -20.8538  -13.7208 C   0  0  1  0  0  0  0  0  0  0  0  0
   22.5160  -20.3343  -14.0252 C   0  0  0  0  0  0  0  0  0  0  0  0
   22.4821  -19.6178  -15.3292 C   0  0  0  0  0  0  0  0  0  0  0  0
   21.1240  -19.1329  -15.6236 C   0  0  0  0  0  0  0  0  0  0  0  0
   19.9430  -19.2839  -14.9296 N   0  0  0  0  0  0  0  0  0  0  0  0
   18.9286  -18.6747  -15.6174 C   0  0  0  0  0  0  0  0  0  0  0  0
   19.4780  -18.1544  -16.7228 N   0  0  0  0  0  0  0  0  0  0  0  0
   20.7888  -18.4211  -16.7387 C   0  0  0  0  0  0  0  0  0  0  0  0
   21.5586  -21.4298  -13.9843 O   0  0  0  0  0  0  0  0  0  0  0  0
   21.8921  -22.7786  -13.8518 O   0  0  0  0  0  0  0  0  0  0  0  0
  2  1  1  1
  3  2  1  0
  4  2  1  0
  5  6  1  6
  5  7  1  0
  5  4  1  0
  7  8  2  0
 10  9  1  0
 10 12  1  0
 11 10  2  0
 12 13  1  0
 13 14  1  0
 14 15  1  0
 16 15  1  1
 16 18  1  0
 17  7  1  0
 17 16  1  0
 18 20  1  0
 19 18  2  0
 20 21  1  0
 21 22  1  1
 22 23  1  0
 23 24  2  0
 23 27  1  0
 24 25  1  0
 25 26  1  0
 27 26  2  0
 28 29  1  0
 28 21  1  0
 30 28  2  0
M  END
$$$$
