LRH.pdb
     RDKit          3D

 30 30  0  0  1  0  0  0  0  0999 V2000
   26.4728  -20.1659  -18.9541 C   0  0  0  0  0  0  0  0  0  0  0  0
   26.4075  -21.4111  -18.1371 C   0  0  1  0  0  0  0  0  0  0  0  0
   25.3130  -22.2915  -18.7587 C   0  0  0  0  0  0  0  0  0  0  0  0
   27.6721  -22.2080  -18.1758 C   0  0  0  0  0  0  0  0  0  0  0  0
   27.6470  -23.5117  -17.4377 C   0  0  2  0  0  0  0  0  0  0  0  0
   27.1831  -23.3160  -16.0863 N   0  0  0  0  0  0  0  0  0  0  0  0
   28.8744  -24.2648  -17.5924 C   0  0  0  0  0  0  0  0  0  0  0  0
   29.4036  -24.3247  -18.7319 O   0  0  0  0  0  0  0  0  0  0  0  0
   35.9887  -25.7693  -12.5721 N   0  0  0  0  0  0  0  0  0  0  0  0
   36.2272  -26.5081  -13.7819 C   0  0  0  0  0  0  0  0  0  0  0  0
   37.3920  -27.0243  -13.9258 N   0  0  0  0  0  0  0  0  0  0  0  0
   35.2400  -26.6678  -14.7736 N   0  0  0  0  0  0  0  0  0  0  0  0
   33.9575  -26.0446  -14.6093 C   0  0  0  0  0  0  0  0  0  0  0  0
   33.0550  -26.2457  -15.8047 C   0  0  0  0  0  0  0  0  0  0  0  0
   31.7711  -25.4778  -15.6026 C   0  0  0  0  0  0  0  0  0  0  0  0
   30.8283  -25.6277  -16.7713 C   0  0  2  0  0  0  0  0  0  0  0  0
   29.5687  -24.9712  -16.5535 N   0  0  0  0  0  0  0  0  0  0  0  0
   30.5839  -27.0373  -17.1427 C   0  0  0  0  0  0  0  0  0  0  0  0
   29.9456  -27.8046  -16.3805 O   0  0  0  0  0  0  0  0  0  0  0  0
   37.6605  -27.6173  -14.7434 N   0  0  0  0  0  0  0  0  0  0  0  0
   31.0621  -27.5643  -18.3684 C   0  0  2  0  0  0  0  0  0  0  0  0
   30.8527  -28.9755  -18.6456 C   0  0  0  0  0  0  0  0  0  0  0  0
   30.3779  -29.2085  -20.0367 C   0  0  0  0  0  0  0  0  0  0  0  0
   30.0112  -30.6203  -20.2339 C   0  0  0  0  0  0  0  0  0  0  0  0
   29.6217  -31.5850  -19.3300 N   0  0  0  0  0  0  0  0  0  0  0  0
   29.4112  -32.7671  -19.9868 C   0  0  0  0  0  0  0  0  0  0  0  0
   29.6682  -32.5339  -21.2806 N   0  0  0  0  0  0  0  0  0  0  0  0
   30.0277  -31.2554  -21.4417 C   0  0  0  0  0  0  0  0  0  0  0  0
   32.0845  -29.6986  -18.3657 O   0  0  0  0  0  0  0  0  0  0  0  0
   33.2672  -29.1160  -17.9077 O   0  0  0  0  0  0  0  0  0  0  0  0
  2  1  1  6
  3  2  1  0
  4  2  1  0
  5  6  1  1
  5  7  1  0
  5  4  1  0
  7  8  2  0
 10  9  1  0
 10 12  1  0
 11 10  2  0
 12 13  1  0
 13 14  1  0
 14 15  1  0
 16 15  1  1
 16 18  1  0
 17  7  1  0
 17 16  1  0
 18 20  1  0
 19 18  2  0
 20 21  1  0
 21 22  1  6
 22 23  1  0
 23 24  2  0
 23 27  1  0
 24 25  1  0
 25 26  1  0
 27 26  2  0
 28 29  1  0
 28 21  1  0
 30 28  2  0
M  END
$$$$
