LRH.pdb
     RDKit          3D

 30 30  0  0  1  0  0  0  0  0999 V2000
   30.8736  -29.7898  -23.3451 C   0  0  0  0  0  0  0  0  0  0  0  0
   30.3127  -29.3000  -22.0538 C   0  0  1  0  0  0  0  0  0  0  0  0
   28.8648  -28.8708  -22.3345 C   0  0  0  0  0  0  0  0  0  0  0  0
   30.2492  -30.3587  -20.9997 C   0  0  0  0  0  0  0  0  0  0  0  0
   29.7227  -29.9237  -19.6660 C   0  0  2  0  0  0  0  0  0  0  0  0
   30.6326  -28.9930  -19.0450 N   0  0  0  0  0  0  0  0  0  0  0  0
   29.2851  -31.0361  -18.8484 C   0  0  0  0  0  0  0  0  0  0  0  0
   28.8485  -32.0678  -19.4206 O   0  0  0  0  0  0  0  0  0  0  0  0
   34.5034  -31.7237  -16.2486 N   0  0  0  0  0  0  0  0  0  0  0  0
   34.5669  -33.1096  -16.6251 C   0  0  0  0  0  0  0  0  0  0  0  0
   35.5978  -33.4830  -17.2897 N   0  0  0  0  0  0  0  0  0  0  0  0
   33.5540  -34.0283  -16.2885 N   0  0  0  0  0  0  0  0  0  0  0  0
   32.3740  -33.5716  -15.6109 C   0  0  0  0  0  0  0  0  0  0  0  0
   31.2754  -33.1643  -16.5654 C   0  0  0  0  0  0  0  0  0  0  0  0
   30.0532  -32.7510  -15.7814 C   0  0  0  0  0  0  0  0  0  0  0  0
   28.9394  -32.2670  -16.6771 C   0  0  2  0  0  0  0  0  0  0  0  0
   29.2959  -31.0860  -17.4140 N   0  0  0  0  0  0  0  0  0  0  0  0
   27.6751  -32.0237  -15.9511 C   0  0  0  0  0  0  0  0  0  0  0  0
   27.3112  -30.8573  -15.6607 O   0  0  0  0  0  0  0  0  0  0  0  0
   35.7983  -34.4811  -17.5260 N   0  0  0  0  0  0  0  0  0  0  0  0
   26.8369  -33.0982  -15.5615 C   0  0  2  0  0  0  0  0  0  0  0  0
   25.6206  -32.7975  -14.8249 C   0  0  0  0  0  0  0  0  0  0  0  0
   24.4900  -32.4505  -15.7284 C   0  0  0  0  0  0  0  0  0  0  0  0
   23.2536  -32.2357  -14.9592 C   0  0  0  0  0  0  0  0  0  0  0  0
   22.9613  -31.3378  -13.9554 N   0  0  0  0  0  0  0  0  0  0  0  0
   21.6779  -31.5377  -13.5241 C   0  0  0  0  0  0  0  0  0  0  0  0
   21.1849  -32.5472  -14.2535 N   0  0  0  0  0  0  0  0  0  0  0  0
   22.1160  -32.9733  -15.1144 C   0  0  0  0  0  0  0  0  0  0  0  0
   25.2993  -33.9267  -13.9646 O   0  0  0  0  0  0  0  0  0  0  0  0
   24.6427  -33.8348  -12.7365 O   0  0  0  0  0  0  0  0  0  0  0  0
  2  1  1  6
  3  2  1  0
  4  2  1  0
  5  6  1  1
  5  7  1  0
  5  4  1  0
  7  8  2  0
 10  9  1  0
 10 12  1  0
 11 10  2  0
 12 13  1  0
 13 14  1  0
 14 15  1  0
 16 15  1  1
 16 18  1  0
 17  7  1  0
 17 16  1  0
 18 20  1  0
 19 18  2  0
 20 21  1  0
 21 22  1  6
 22 23  1  0
 23 24  2  0
 23 27  1  0
 24 25  1  0
 25 26  1  0
 27 26  2  0
 28 29  1  0
 28 21  1  0
 30 28  2  0
M  END
$$$$
