SGE.pdb
     RDKit          3D

 20 19  0  0  1  0  0  0  0  0999 V2000
   17.1898  -13.2132  -14.6686 O   0  0  0  0  0  0  0  0  0  0  0  0
   16.8135  -13.5326  -15.9683 C   0  0  0  0  0  0  0  0  0  0  0  0
   17.8062  -12.9066  -16.9279 C   0  0  2  0  0  0  0  0  0  0  0  0
   19.1365  -13.3493  -16.5958 N   0  0  0  0  0  0  0  0  0  0  0  0
   17.7156  -11.4350  -16.8033 C   0  0  0  0  0  0  0  0  0  0  0  0
   16.6256  -10.8173  -16.9235 O   0  0  0  0  0  0  0  0  0  0  0  0
   18.8890  -10.6885  -16.5401 N   0  0  0  0  0  0  0  0  0  0  0  0
   18.7969   -9.2466  -16.4435 C   0  0  0  0  0  0  0  0  0  0  0  0
   19.9204   -8.7299  -15.5936 C   0  0  0  0  0  0  0  0  0  0  0  0
   20.6701   -9.4859  -14.9344 O   0  0  0  0  0  0  0  0  0  0  0  0
   20.1613   -7.3319  -15.5192 N   0  0  0  0  0  0  0  0  0  0  0  0
   21.2203   -6.7817  -14.7085 C   0  0  1  0  0  0  0  0  0  0  0  0
   21.4206   -5.3231  -15.0531 C   0  0  0  0  0  0  0  0  0  0  0  0
   21.7631   -5.2158  -16.5057 C   0  0  0  0  0  0  0  0  0  0  0  0
   21.8142   -3.8024  -16.9695 C   0  0  0  0  0  0  0  0  0  0  0  0
   22.4750   -3.4666  -17.9778 O   0  0  0  0  0  0  0  0  0  0  0  0
   20.9053   -6.9581  -13.2758 C   0  0  0  0  0  0  0  0  0  0  0  0
   21.8077   -6.7498  -12.4355 O   0  0  0  0  0  0  0  0  0  0  0  0
   21.1168   -2.8252  -16.2759 O   0  0  0  0  0  0  0  0  0  0  0  0
   19.6585   -7.3433  -12.8145 O   0  0  0  0  0  0  0  0  0  0  0  0
  1  2  1  0
  3  2  1  0
  3  4  1  1
  5  3  1  0
  6  5  2  0
  7  5  1  0
  8  7  1  0
  9 11  1  0
  9  8  1  0
 10  9  2  0
 12 11  1  0
 12 13  1  1
 13 14  1  0
 14 15  1  0
 15 16  2  0
 17 12  1  0
 17 20  1  0
 18 17  2  0
 19 15  1  0
M  END
$$$$
