SGE.pdb
     RDKit          3D

 20 19  0  0  1  0  0  0  0  0999 V2000
   14.3371  -14.7106  -16.5061 O   0  0  0  0  0  0  0  0  0  0  0  0
   15.3806  -14.0227  -17.1152 C   0  0  0  0  0  0  0  0  0  0  0  0
   16.3149  -13.5072  -16.0384 C   0  0  2  0  0  0  0  0  0  0  0  0
   15.5407  -12.9193  -14.9749 N   0  0  0  0  0  0  0  0  0  0  0  0
   17.2070  -12.4905  -16.6381 C   0  0  0  0  0  0  0  0  0  0  0  0
   17.1442  -12.1770  -17.8554 O   0  0  0  0  0  0  0  0  0  0  0  0
   18.1663  -11.8432  -15.8230 N   0  0  0  0  0  0  0  0  0  0  0  0
   18.9457  -10.7585  -16.3824 C   0  0  0  0  0  0  0  0  0  0  0  0
   18.7690   -9.5297  -15.5396 C   0  0  0  0  0  0  0  0  0  0  0  0
   17.9172   -9.4563  -14.6246 O   0  0  0  0  0  0  0  0  0  0  0  0
   19.5894   -8.3934  -15.7711 N   0  0  0  0  0  0  0  0  0  0  0  0
   19.5156   -7.2164  -14.9401 C   0  0  1  0  0  0  0  0  0  0  0  0
   20.8693   -6.5448  -14.8863 C   0  0  0  0  0  0  0  0  0  0  0  0
   20.8106   -5.4254  -13.8951 C   0  0  0  0  0  0  0  0  0  0  0  0
   22.1293   -4.7576  -13.7207 C   0  0  0  0  0  0  0  0  0  0  0  0
   23.1862   -5.4159  -13.5956 O   0  0  0  0  0  0  0  0  0  0  0  0
   18.4789   -6.2976  -15.4540 C   0  0  0  0  0  0  0  0  0  0  0  0
   18.2024   -6.3304  -16.6731 O   0  0  0  0  0  0  0  0  0  0  0  0
   22.2012   -3.3733  -13.6945 O   0  0  0  0  0  0  0  0  0  0  0  0
   17.7958   -5.3994  -14.6526 O   0  0  0  0  0  0  0  0  0  0  0  0
  1  2  1  0
  3  2  1  0
  3  4  1  1
  5  3  1  0
  6  5  2  0
  7  5  1  0
  8  7  1  0
  9 11  1  0
  9  8  1  0
 10  9  2  0
 12 11  1  0
 12 13  1  6
 13 14  1  0
 14 15  1  0
 15 16  2  0
 17 12  1  0
 17 20  1  0
 18 17  2  0
 19 15  1  0
M  END
$$$$
