SGE.pdb
     RDKit          3D

 20 19  0  0  1  0  0  0  0  0999 V2000
   11.7344   -7.6453  -10.1821 O   0  0  0  0  0  0  0  0  0  0  0  0
   11.2546   -8.4625   -9.1647 C   0  0  0  0  0  0  0  0  0  0  0  0
   12.3409   -8.6234   -8.1196 C   0  0  2  0  0  0  0  0  0  0  0  0
   12.5411   -7.3681   -7.4411 N   0  0  0  0  0  0  0  0  0  0  0  0
   13.5884   -9.0373   -8.7989 C   0  0  0  0  0  0  0  0  0  0  0  0
   13.6763  -10.1158   -9.4417 O   0  0  0  0  0  0  0  0  0  0  0  0
   14.7265   -8.1986   -8.7289 N   0  0  0  0  0  0  0  0  0  0  0  0
   15.9421   -8.6069   -9.4016 C   0  0  0  0  0  0  0  0  0  0  0  0
   16.7550   -7.3933   -9.7450 C   0  0  0  0  0  0  0  0  0  0  0  0
   16.6338   -6.3059   -9.1359 O   0  0  0  0  0  0  0  0  0  0  0  0
   17.7054   -7.4578  -10.7988 N   0  0  0  0  0  0  0  0  0  0  0  0
   18.4965   -6.3147  -11.1845 C   0  0  1  0  0  0  0  0  0  0  0  0
   19.7472   -6.7775  -11.8973 C   0  0  0  0  0  0  0  0  0  0  0  0
   20.6208   -5.5900  -12.1533 C   0  0  0  0  0  0  0  0  0  0  0  0
   21.8877   -5.9605  -12.8412 C   0  0  0  0  0  0  0  0  0  0  0  0
   22.3671   -7.1133  -12.7561 O   0  0  0  0  0  0  0  0  0  0  0  0
   17.6967   -5.4085  -12.0343 C   0  0  0  0  0  0  0  0  0  0  0  0
   16.8313   -5.9050  -12.7882 O   0  0  0  0  0  0  0  0  0  0  0  0
   22.5620   -5.0141  -13.5974 O   0  0  0  0  0  0  0  0  0  0  0  0
   17.8567   -4.0337  -12.0387 O   0  0  0  0  0  0  0  0  0  0  0  0
  1  2  1  0
  3  2  1  0
  3  4  1  6
  5  3  1  0
  6  5  2  0
  7  5  1  0
  8  7  1  0
  9 11  1  0
  9  8  1  0
 10  9  2  0
 12 11  1  0
 12 13  1  6
 13 14  1  0
 14 15  1  0
 15 16  2  0
 17 12  1  0
 17 20  1  0
 18 17  2  0
 19 15  1  0
M  END
$$$$
