SGE.pdb
     RDKit          3D

 20 19  0  0  1  0  0  0  0  0999 V2000
   16.5961  -24.8848   -4.8352 O   0  0  0  0  0  0  0  0  0  0  0  0
   16.1268  -24.1660   -3.7415 C   0  0  0  0  0  0  0  0  0  0  0  0
   14.6268  -23.9967   -3.8805 C   0  0  2  0  0  0  0  0  0  0  0  0
   14.3312  -23.3732   -5.1454 N   0  0  0  0  0  0  0  0  0  0  0  0
   14.1456  -23.1448   -2.7705 C   0  0  0  0  0  0  0  0  0  0  0  0
   13.1057  -22.4422   -2.8661 O   0  0  0  0  0  0  0  0  0  0  0  0
   14.8728  -23.1125   -1.5566 N   0  0  0  0  0  0  0  0  0  0  0  0
   14.2749  -22.4850   -0.3965 C   0  0  0  0  0  0  0  0  0  0  0  0
   15.2175  -22.5845    0.7669 C   0  0  0  0  0  0  0  0  0  0  0  0
   16.2736  -23.2558    0.7236 O   0  0  0  0  0  0  0  0  0  0  0  0
   14.9198  -21.8983    1.9746 N   0  0  0  0  0  0  0  0  0  0  0  0
   15.8040  -21.9394    3.1138 C   0  0  1  0  0  0  0  0  0  0  0  0
   16.3886  -20.5659    3.3551 C   0  0  0  0  0  0  0  0  0  0  0  0
   15.2678  -19.5827    3.4812 C   0  0  0  0  0  0  0  0  0  0  0  0
   15.7531  -18.2142    3.8086 C   0  0  0  0  0  0  0  0  0  0  0  0
   14.9850  -17.2264    3.7990 O   0  0  0  0  0  0  0  0  0  0  0  0
   15.0766  -22.4312    4.3022 C   0  0  0  0  0  0  0  0  0  0  0  0
   15.7348  -22.7469    5.3175 O   0  0  0  0  0  0  0  0  0  0  0  0
   17.0863  -18.0166    4.1336 O   0  0  0  0  0  0  0  0  0  0  0  0
   13.6994  -22.5608    4.3494 O   0  0  0  0  0  0  0  0  0  0  0  0
  1  2  1  0
  3  2  1  0
  3  4  1  6
  5  3  1  0
  6  5  2  0
  7  5  1  0
  8  7  1  0
  9 11  1  0
  9  8  1  0
 10  9  2  0
 12 11  1  0
 12 13  1  1
 13 14  1  0
 14 15  1  0
 15 16  2  0
 17 12  1  0
 17 20  1  0
 18 17  2  0
 19 15  1  0
M  END
$$$$
