SGE.pdb
     RDKit          3D

 20 19  0  0  1  0  0  0  0  0999 V2000
   15.9127  -12.2171  -14.5191 O   0  0  0  0  0  0  0  0  0  0  0  0
   16.3016  -12.7301  -15.7515 C   0  0  0  0  0  0  0  0  0  0  0  0
   17.7365  -12.3191  -16.0164 C   0  0  2  0  0  0  0  0  0  0  0  0
   18.5754  -12.7943  -14.9456 N   0  0  0  0  0  0  0  0  0  0  0  0
   17.7960  -10.8426  -16.0902 C   0  0  0  0  0  0  0  0  0  0  0  0
   17.1991  -10.1909  -16.9864 O   0  0  0  0  0  0  0  0  0  0  0  0
   18.5471  -10.1304  -15.1247 N   0  0  0  0  0  0  0  0  0  0  0  0
   18.4844   -8.6837  -15.1137 C   0  0  0  0  0  0  0  0  0  0  0  0
   19.8068   -8.1296  -14.6713 C   0  0  0  0  0  0  0  0  0  0  0  0
   20.4768   -8.6414  -13.7454 O   0  0  0  0  0  0  0  0  0  0  0  0
   20.3387   -6.9798  -15.3140 N   0  0  0  0  0  0  0  0  0  0  0  0
   21.6420   -6.4557  -14.9852 C   0  0  1  0  0  0  0  0  0  0  0  0
   22.1485   -5.5984  -16.1232 C   0  0  0  0  0  0  0  0  0  0  0  0
   23.5426   -5.1560  -15.8071 C   0  0  0  0  0  0  0  0  0  0  0  0
   24.1003   -4.2588  -16.8556 C   0  0  0  0  0  0  0  0  0  0  0  0
   24.3929   -3.0670  -16.6108 O   0  0  0  0  0  0  0  0  0  0  0  0
   21.5769   -5.6909  -13.7227 C   0  0  0  0  0  0  0  0  0  0  0  0
   20.5180   -5.0869  -13.4439 O   0  0  0  0  0  0  0  0  0  0  0  0
   24.3048   -4.7437  -18.1382 O   0  0  0  0  0  0  0  0  0  0  0  0
   22.6312   -5.6084  -12.8299 O   0  0  0  0  0  0  0  0  0  0  0  0
  1  2  1  0
  3  2  1  0
  3  4  1  1
  5  3  1  0
  6  5  2  0
  7  5  1  0
  8  7  1  0
  9 11  1  0
  9  8  1  0
 10  9  2  0
 12 11  1  0
 12 13  1  6
 13 14  1  0
 14 15  1  0
 15 16  2  0
 17 12  1  0
 17 20  1  0
 18 17  2  0
 19 15  1  0
M  END
$$$$
