SGE.pdb
     RDKit          3D

 20 19  0  0  1  0  0  0  0  0999 V2000
   20.4860  -14.2924  -16.8298 O   0  0  0  0  0  0  0  0  0  0  0  0
   20.0052  -13.1540  -16.1927 C   0  0  0  0  0  0  0  0  0  0  0  0
   20.0843  -11.9883  -17.1586 C   0  0  2  0  0  0  0  0  0  0  0  0
   21.4662  -11.6962  -17.4433 N   0  0  0  0  0  0  0  0  0  0  0  0
   19.4366  -10.8147  -16.5322 C   0  0  0  0  0  0  0  0  0  0  0  0
   18.2342  -10.8307  -16.1606 O   0  0  0  0  0  0  0  0  0  0  0  0
   20.1866   -9.6297  -16.3404 N   0  0  0  0  0  0  0  0  0  0  0  0
   19.5422   -8.4804  -15.7397 C   0  0  0  0  0  0  0  0  0  0  0  0
   20.5531   -7.3904  -15.5361 C   0  0  0  0  0  0  0  0  0  0  0  0
   21.7390   -7.4890  -15.9260 O   0  0  0  0  0  0  0  0  0  0  0  0
   20.1719   -6.1908  -14.8776 N   0  0  0  0  0  0  0  0  0  0  0  0
   21.0679   -5.0662  -14.7604 C   0  0  1  0  0  0  0  0  0  0  0  0
   20.2688   -3.7890  -14.6313 C   0  0  0  0  0  0  0  0  0  0  0  0
   19.5808   -3.5199  -15.9325 C   0  0  0  0  0  0  0  0  0  0  0  0
   18.7518   -2.2845  -15.8865 C   0  0  0  0  0  0  0  0  0  0  0  0
   18.0238   -1.9473  -16.8468 O   0  0  0  0  0  0  0  0  0  0  0  0
   21.9703   -5.2556  -13.6059 C   0  0  0  0  0  0  0  0  0  0  0  0
   21.6090   -6.0194  -12.6840 O   0  0  0  0  0  0  0  0  0  0  0  0
   18.7786   -1.4799  -14.7577 O   0  0  0  0  0  0  0  0  0  0  0  0
   23.1991   -4.6288  -13.4920 O   0  0  0  0  0  0  0  0  0  0  0  0
  1  2  1  0
  3  2  1  0
  3  4  1  1
  5  3  1  0
  6  5  2  0
  7  5  1  0
  8  7  1  0
  9 11  1  0
  9  8  1  0
 10  9  2  0
 12 11  1  0
 12 13  1  1
 13 14  1  0
 14 15  1  0
 15 16  2  0
 17 12  1  0
 17 20  1  0
 18 17  2  0
 19 15  1  0
M  END
$$$$
