SGE.pdb
     RDKit          3D

 20 19  0  0  1  0  0  0  0  0999 V2000
   12.0261  -12.6475  -10.3889 O   0  0  0  0  0  0  0  0  0  0  0  0
   12.4884  -11.5396  -11.0902 C   0  0  0  0  0  0  0  0  0  0  0  0
   13.5592  -11.9937  -12.0625 C   0  0  2  0  0  0  0  0  0  0  0  0
   14.6684  -12.5470  -11.3278 N   0  0  0  0  0  0  0  0  0  0  0  0
   14.0056  -10.8231  -12.8496 C   0  0  0  0  0  0  0  0  0  0  0  0
   13.2238  -10.1793  -13.5969 O   0  0  0  0  0  0  0  0  0  0  0  0
   15.3556  -10.4060  -12.7657 N   0  0  0  0  0  0  0  0  0  0  0  0
   15.7742   -9.2304  -13.5004 C   0  0  0  0  0  0  0  0  0  0  0  0
   17.2261   -8.9636  -13.2314 C   0  0  0  0  0  0  0  0  0  0  0  0
   17.7783   -9.2670  -12.1492 O   0  0  0  0  0  0  0  0  0  0  0  0
   18.0245   -8.3433  -14.2293 N   0  0  0  0  0  0  0  0  0  0  0  0
   19.4566   -8.2278  -14.0985 C   0  0  1  0  0  0  0  0  0  0  0  0
   20.1334   -8.9887  -15.2163 C   0  0  0  0  0  0  0  0  0  0  0  0
   21.6028   -9.0425  -14.9390 C   0  0  0  0  0  0  0  0  0  0  0  0
   22.3665   -9.6488  -16.0635 C   0  0  0  0  0  0  0  0  0  0  0  0
   22.0286  -10.7413  -16.5718 O   0  0  0  0  0  0  0  0  0  0  0  0
   19.8522   -6.8043  -14.0997 C   0  0  0  0  0  0  0  0  0  0  0  0
   20.8893   -6.4718  -13.4851 O   0  0  0  0  0  0  0  0  0  0  0  0
   23.4809   -8.9968  -16.5687 O   0  0  0  0  0  0  0  0  0  0  0  0
   19.1315   -5.8166  -14.7482 O   0  0  0  0  0  0  0  0  0  0  0  0
  1  2  1  0
  3  2  1  0
  3  4  1  1
  5  3  1  0
  6  5  2  0
  7  5  1  0
  8  7  1  0
  9 11  1  0
  9  8  1  0
 10  9  2  0
 12 11  1  0
 12 13  1  6
 13 14  1  0
 14 15  1  0
 15 16  2  0
 17 12  1  0
 17 20  1  0
 18 17  2  0
 19 15  1  0
M  END
$$$$
