SGE.pdb
     RDKit          3D

 20 19  0  0  1  0  0  0  0  0999 V2000
   18.1709  -13.4294  -16.4310 O   0  0  0  0  0  0  0  0  0  0  0  0
   19.2659  -12.7371  -15.9261 C   0  0  0  0  0  0  0  0  0  0  0  0
   19.2213  -11.3140  -16.4465 C   0  0  2  0  0  0  0  0  0  0  0  0
   19.4564  -11.3173  -17.8681 N   0  0  0  0  0  0  0  0  0  0  0  0
   20.2722  -10.5301  -15.7606 C   0  0  0  0  0  0  0  0  0  0  0  0
   20.1852  -10.2094  -14.5467 O   0  0  0  0  0  0  0  0  0  0  0  0
   21.4173  -10.1229  -16.4860 N   0  0  0  0  0  0  0  0  0  0  0  0
   22.4388   -9.3506  -15.8099 C   0  0  0  0  0  0  0  0  0  0  0  0
   22.2452   -7.8935  -16.1113 C   0  0  0  0  0  0  0  0  0  0  0  0
   22.4956   -7.3979  -17.2337 O   0  0  0  0  0  0  0  0  0  0  0  0
   21.7597   -7.0236  -15.0986 N   0  0  0  0  0  0  0  0  0  0  0  0
   21.3920   -5.6568  -15.3779 C   0  0  1  0  0  0  0  0  0  0  0  0
   19.9082   -5.5752  -15.6574 C   0  0  0  0  0  0  0  0  0  0  0  0
   19.5484   -4.1479  -15.9264 C   0  0  0  0  0  0  0  0  0  0  0  0
   18.0889   -3.9687  -16.1570 C   0  0  0  0  0  0  0  0  0  0  0  0
   17.5580   -2.8356  -16.1481 O   0  0  0  0  0  0  0  0  0  0  0  0
   21.7752   -4.7877  -14.2462 C   0  0  0  0  0  0  0  0  0  0  0  0
   21.8509   -5.2919  -13.1044 O   0  0  0  0  0  0  0  0  0  0  0  0
   17.2880   -5.0765  -16.3883 O   0  0  0  0  0  0  0  0  0  0  0  0
   22.0557   -3.4395  -14.3855 O   0  0  0  0  0  0  0  0  0  0  0  0
  1  2  1  0
  3  2  1  0
  3  4  1  6
  5  3  1  0
  6  5  2  0
  7  5  1  0
  8  7  1  0
  9 11  1  0
  9  8  1  0
 10  9  2  0
 12 11  1  0
 12 13  1  1
 13 14  1  0
 14 15  1  0
 15 16  2  0
 17 12  1  0
 17 20  1  0
 18 17  2  0
 19 15  1  0
M  END
$$$$
