SGE.pdb
     RDKit          3D

 20 19  0  0  1  0  0  0  0  0999 V2000
   18.8119  -11.2485  -14.3585 O   0  0  0  0  0  0  0  0  0  0  0  0
   19.7759  -10.2484  -14.4183 C   0  0  0  0  0  0  0  0  0  0  0  0
   20.5153  -10.3663  -15.7365 C   0  0  2  0  0  0  0  0  0  0  0  0
   21.1992  -11.6334  -15.7893 N   0  0  0  0  0  0  0  0  0  0  0  0
   21.4920   -9.2586  -15.8276 C   0  0  0  0  0  0  0  0  0  0  0  0
   22.7139   -9.4188  -15.5715 O   0  0  0  0  0  0  0  0  0  0  0  0
   21.0465   -7.9722  -16.2149 N   0  0  0  0  0  0  0  0  0  0  0  0
   22.0046   -6.8886  -16.2838 C   0  0  0  0  0  0  0  0  0  0  0  0
   21.3101   -5.6349  -16.7281 C   0  0  0  0  0  0  0  0  0  0  0  0
   20.0888   -5.6016  -17.0027 O   0  0  0  0  0  0  0  0  0  0  0  0
   22.0474   -4.4267  -16.8487 N   0  0  0  0  0  0  0  0  0  0  0  0
   21.4173   -3.1807  -17.2118 C   0  0  1  0  0  0  0  0  0  0  0  0
   20.3394   -2.8428  -16.2065 C   0  0  0  0  0  0  0  0  0  0  0  0
   19.6956   -1.5532  -16.6085 C   0  0  0  0  0  0  0  0  0  0  0  0
   18.5873   -1.1675  -15.6929 C   0  0  0  0  0  0  0  0  0  0  0  0
   17.7757   -0.2627  -15.9906 O   0  0  0  0  0  0  0  0  0  0  0  0
   22.4290   -2.1074  -17.2975 C   0  0  0  0  0  0  0  0  0  0  0  0
   23.5802   -2.3353  -16.8654 O   0  0  0  0  0  0  0  0  0  0  0  0
   18.4404   -1.8192  -14.4780 O   0  0  0  0  0  0  0  0  0  0  0  0
   22.1672   -0.8583  -17.8332 O   0  0  0  0  0  0  0  0  0  0  0  0
  1  2  1  0
  3  2  1  0
  3  4  1  1
  5  3  1  0
  6  5  2  0
  7  5  1  0
  8  7  1  0
  9 11  1  0
  9  8  1  0
 10  9  2  0
 12 11  1  0
 12 13  1  1
 13 14  1  0
 14 15  1  0
 15 16  2  0
 17 12  1  0
 17 20  1  0
 18 17  2  0
 19 15  1  0
M  END
$$$$
