SGE.pdb
     RDKit          3D

 20 19  0  0  1  0  0  0  0  0999 V2000
   18.5470  -12.3802  -16.1227 O   0  0  0  0  0  0  0  0  0  0  0  0
   18.8177  -11.9159  -17.4050 C   0  0  0  0  0  0  0  0  0  0  0  0
   20.0483  -11.0322  -17.3506 C   0  0  2  0  0  0  0  0  0  0  0  0
   21.1949  -11.8304  -16.9982 N   0  0  0  0  0  0  0  0  0  0  0  0
   19.8281   -9.9829  -16.3310 C   0  0  0  0  0  0  0  0  0  0  0  0
   18.8748   -9.1645  -16.4054 O   0  0  0  0  0  0  0  0  0  0  0  0
   20.7143   -9.8887  -15.2313 N   0  0  0  0  0  0  0  0  0  0  0  0
   20.4909   -8.8614  -14.2355 C   0  0  0  0  0  0  0  0  0  0  0  0
   21.1443   -7.5853  -14.6785 C   0  0  0  0  0  0  0  0  0  0  0  0
   22.1576   -7.5666  -15.4141 O   0  0  0  0  0  0  0  0  0  0  0  0
   20.6093   -6.3380  -14.2591 N   0  0  0  0  0  0  0  0  0  0  0  0
   21.1441   -5.0821  -14.7260 C   0  0  1  0  0  0  0  0  0  0  0  0
   20.0896   -4.0046  -14.6104 C   0  0  0  0  0  0  0  0  0  0  0  0
   20.6480   -2.7266  -15.1524 C   0  0  0  0  0  0  0  0  0  0  0  0
   19.6517   -1.6210  -15.1271 C   0  0  0  0  0  0  0  0  0  0  0  0
   18.4455   -1.8190  -15.3951 O   0  0  0  0  0  0  0  0  0  0  0  0
   22.3577   -4.7320  -13.9595 C   0  0  0  0  0  0  0  0  0  0  0  0
   22.4158   -5.0537  -12.7525 O   0  0  0  0  0  0  0  0  0  0  0  0
   20.0580   -0.3364  -14.8000 O   0  0  0  0  0  0  0  0  0  0  0  0
   23.4374   -4.0640  -14.5108 O   0  0  0  0  0  0  0  0  0  0  0  0
  1  2  1  0
  3  2  1  0
  3  4  1  1
  5  3  1  0
  6  5  2  0
  7  5  1  0
  8  7  1  0
  9 11  1  0
  9  8  1  0
 10  9  2  0
 12 11  1  0
 12 13  1  1
 13 14  1  0
 14 15  1  0
 15 16  2  0
 17 12  1  0
 17 20  1  0
 18 17  2  0
 19 15  1  0
M  END
$$$$
