SGE.pdb
     RDKit          3D

 20 19  0  0  1  0  0  0  0  0999 V2000
   15.8061  -16.0251  -16.7418 O   0  0  0  0  0  0  0  0  0  0  0  0
   16.3712  -14.8010  -17.0813 C   0  0  0  0  0  0  0  0  0  0  0  0
   17.6730  -14.6408  -16.3213 C   0  0  2  0  0  0  0  0  0  0  0  0
   17.3961  -14.5654  -14.9093 N   0  0  0  0  0  0  0  0  0  0  0  0
   18.3321  -13.3965  -16.7760 C   0  0  0  0  0  0  0  0  0  0  0  0
   19.1692  -13.3854  -17.7158 O   0  0  0  0  0  0  0  0  0  0  0  0
   18.0167  -12.1728  -16.1384 N   0  0  0  0  0  0  0  0  0  0  0  0
   18.5704  -10.9431  -16.6661 C   0  0  0  0  0  0  0  0  0  0  0  0
   18.8527   -9.9969  -15.5363 C   0  0  0  0  0  0  0  0  0  0  0  0
   18.4155  -10.1808  -14.3774 O   0  0  0  0  0  0  0  0  0  0  0  0
   19.6448   -8.8406  -15.7677 N   0  0  0  0  0  0  0  0  0  0  0  0
   19.9915   -7.9276  -14.7059 C   0  0  1  0  0  0  0  0  0  0  0  0
   21.0564   -6.9676  -15.1865 C   0  0  0  0  0  0  0  0  0  0  0  0
   21.4254   -6.0564  -14.0585 C   0  0  0  0  0  0  0  0  0  0  0  0
   22.3848   -4.9990  -14.4793 C   0  0  0  0  0  0  0  0  0  0  0  0
   23.2696   -5.2199  -15.3362 O   0  0  0  0  0  0  0  0  0  0  0  0
   18.7871   -7.2078  -14.2432 C   0  0  0  0  0  0  0  0  0  0  0  0
   17.8957   -6.9366  -15.0772 O   0  0  0  0  0  0  0  0  0  0  0  0
   22.3062   -3.7350  -13.9153 O   0  0  0  0  0  0  0  0  0  0  0  0
   18.5941   -6.8169  -12.9295 O   0  0  0  0  0  0  0  0  0  0  0  0
  1  2  1  0
  3  2  1  0
  3  4  1  1
  5  3  1  0
  6  5  2  0
  7  5  1  0
  8  7  1  0
  9 11  1  0
  9  8  1  0
 10  9  2  0
 12 11  1  0
 12 13  1  6
 13 14  1  0
 14 15  1  0
 15 16  2  0
 17 12  1  0
 17 20  1  0
 18 17  2  0
 19 15  1  0
M  END
$$$$
