SGE.pdb
     RDKit          3D

 20 19  0  0  1  0  0  0  0  0999 V2000
   25.7883  -20.9699  -18.3078 O   0  0  0  0  0  0  0  0  0  0  0  0
   25.3989  -21.2705  -17.0074 C   0  0  0  0  0  0  0  0  0  0  0  0
   26.5086  -20.8561  -16.0613 C   0  0  2  0  0  0  0  0  0  0  0  0
   27.7081  -21.5871  -16.3820 N   0  0  0  0  0  0  0  0  0  0  0  0
   26.0838  -21.1610  -14.6772 C   0  0  0  0  0  0  0  0  0  0  0  0
   26.9029  -21.2327  -13.7243 O   0  0  0  0  0  0  0  0  0  0  0  0
   24.7120  -21.3809  -14.4061 N   0  0  0  0  0  0  0  0  0  0  0  0
   24.1233  -20.7765  -13.2291 C   0  0  0  0  0  0  0  0  0  0  0  0
   22.7572  -20.2548  -13.5655 C   0  0  0  0  0  0  0  0  0  0  0  0
   22.5645  -19.0917  -13.9874 O   0  0  0  0  0  0  0  0  0  0  0  0
   21.6237  -21.0962  -13.4067 N   0  0  0  0  0  0  0  0  0  0  0  0
   20.3653  -20.8118  -14.0525 C   0  0  1  0  0  0  0  0  0  0  0  0
   20.5403  -20.8608  -15.5537 C   0  0  0  0  0  0  0  0  0  0  0  0
   19.2188  -20.5869  -16.2000 C   0  0  0  0  0  0  0  0  0  0  0  0
   19.2922  -20.6595  -17.6849 C   0  0  0  0  0  0  0  0  0  0  0  0
   18.2645  -20.7927  -18.3863 O   0  0  0  0  0  0  0  0  0  0  0  0
   19.3354  -21.7692  -13.5991 C   0  0  0  0  0  0  0  0  0  0  0  0
   19.7025  -22.8918  -13.1881 O   0  0  0  0  0  0  0  0  0  0  0  0
   20.5232  -20.5788  -18.3175 O   0  0  0  0  0  0  0  0  0  0  0  0
   17.9805  -21.4865  -13.6059 O   0  0  0  0  0  0  0  0  0  0  0  0
  1  2  1  0
  3  2  1  0
  3  4  1  6
  5  3  1  0
  6  5  2  0
  7  5  1  0
  8  7  1  0
  9 11  1  0
  9  8  1  0
 10  9  2  0
 12 11  1  0
 12 13  1  6
 13 14  1  0
 14 15  1  0
 15 16  2  0
 17 12  1  0
 17 20  1  0
 18 17  2  0
 19 15  1  0
M  END
$$$$
