SGE.pdb
     RDKit          3D

 20 19  0  0  1  0  0  0  0  0999 V2000
   15.8237  -12.0351  -17.0014 O   0  0  0  0  0  0  0  0  0  0  0  0
   16.8776  -12.6658  -16.3498 C   0  0  0  0  0  0  0  0  0  0  0  0
   16.8785  -12.2317  -14.8973 C   0  0  2  0  0  0  0  0  0  0  0  0
   15.6676  -12.6857  -14.2619 N   0  0  0  0  0  0  0  0  0  0  0  0
   16.9538  -10.7549  -14.8486 C   0  0  0  0  0  0  0  0  0  0  0  0
   15.9654  -10.0234  -15.1171 O   0  0  0  0  0  0  0  0  0  0  0  0
   18.1744  -10.1349  -14.4890 N   0  0  0  0  0  0  0  0  0  0  0  0
   18.2583   -8.6893  -14.5028 C   0  0  0  0  0  0  0  0  0  0  0  0
   19.6499   -8.2660  -14.1340 C   0  0  0  0  0  0  0  0  0  0  0  0
   20.4797   -9.0507  -13.6204 O   0  0  0  0  0  0  0  0  0  0  0  0
   20.0637   -6.9273  -14.3678 N   0  0  0  0  0  0  0  0  0  0  0  0
   21.4441   -6.5240  -14.2540 C   0  0  1  0  0  0  0  0  0  0  0  0
   22.1409   -6.7106  -15.5829 C   0  0  0  0  0  0  0  0  0  0  0  0
   23.5886   -6.3704  -15.4176 C   0  0  0  0  0  0  0  0  0  0  0  0
   24.3522   -6.5261  -16.6858 C   0  0  0  0  0  0  0  0  0  0  0  0
   25.5294   -6.1164  -16.7968 O   0  0  0  0  0  0  0  0  0  0  0  0
   21.5261   -5.1218  -13.7954 C   0  0  0  0  0  0  0  0  0  0  0  0
   20.5768   -4.3511  -14.0569 O   0  0  0  0  0  0  0  0  0  0  0  0
   23.7555   -7.1383  -17.7773 O   0  0  0  0  0  0  0  0  0  0  0  0
   22.6034   -4.6160  -13.0888 O   0  0  0  0  0  0  0  0  0  0  0  0
  1  2  1  0
  3  2  1  0
  3  4  1  6
  5  3  1  0
  6  5  2  0
  7  5  1  0
  8  7  1  0
  9 11  1  0
  9  8  1  0
 10  9  2  0
 12 11  1  0
 12 13  1  6
 13 14  1  0
 14 15  1  0
 15 16  2  0
 17 12  1  0
 17 20  1  0
 18 17  2  0
 19 15  1  0
M  END
$$$$
