IMK.pdb
     RDKit          3D

 26 25  0  0  1  0  0  0  0  0999 V2000
    7.0661  -12.0178   19.1290 C   0  0  0  0  0  0  0  0  0  0  0  0
    6.8947  -13.4577   19.6310 C   0  0  0  0  0  0  0  0  0  0  0  0
    8.1798  -13.8059   20.3408 C   0  0  2  0  0  0  0  0  0  0  0  0
    9.2893  -13.7955   19.3072 C   0  0  0  0  0  0  0  0  0  0  0  0
    8.1559  -15.1525   20.9917 C   0  0  2  0  0  0  0  0  0  0  0  0
    6.8266  -15.6954   20.9318 N   0  0  0  0  0  0  0  0  0  0  0  0
    8.6818  -15.1980   22.3540 C   0  0  0  0  0  0  0  0  0  0  0  0
    9.9193  -15.0247   22.5387 O   0  0  0  0  0  0  0  0  0  0  0  0
    5.4595  -11.6216   27.0762 C   0  0  0  0  0  0  0  0  0  0  0  0
    7.0180  -12.5719   27.2413 S   0  0  0  0  0  0  0  0  0  0  0  0
    7.3669  -13.2403   25.5558 C   0  0  0  0  0  0  0  0  0  0  0  0
    7.4007  -14.7276   25.7104 C   0  0  0  0  0  0  0  0  0  0  0  0
    8.4821  -15.3600   24.8805 C   0  0  2  0  0  0  0  0  0  0  0  0
    7.9052  -15.4247   23.5102 N   0  0  0  0  0  0  0  0  0  0  0  0
    8.8887  -16.7186   25.2969 C   0  0  0  0  0  0  0  0  0  0  0  0
    8.0509  -17.6856   25.2588 O   0  0  0  0  0  0  0  0  0  0  0  0
   10.1728  -17.0453   25.7403 N   0  0  0  0  0  0  0  0  0  0  0  0
   10.5086  -18.4375   26.2143 C   0  0  1  0  0  0  0  0  0  0  0  0
   11.7694  -18.7208   25.4823 C   0  0  0  0  0  0  0  0  0  0  0  0
   12.4663  -19.9965   25.5451 C   0  0  0  0  0  0  0  0  0  0  0  0
   13.7151  -20.2455   24.8067 C   0  0  0  0  0  0  0  0  0  0  0  0
   14.3668  -21.5828   25.0704 C   0  0  0  0  0  0  0  0  0  0  0  0
   15.6563  -21.7339   24.4708 N   0  0  0  0  0  0  0  0  0  0  0  0
   10.5702  -18.3122   27.6645 C   0  0  0  0  0  0  0  0  0  0  0  0
   10.4873  -19.4225   28.4881 O   0  0  0  0  0  0  0  0  0  0  0  0
   10.6971  -17.2152   28.2368 O   0  0  0  0  0  0  0  0  0  0  0  0
  2  1  1  0
  3  5  1  0
  3  2  1  0
  3  4  1  6
  5  6  1  1
  7  8  2  0
  7  5  1  0
 10  9  1  0
 11 10  1  0
 12 11  1  0
 13 12  1  1
 13 14  1  0
 14  7  1  0
 15 16  2  0
 15 13  1  0
 17 15  1  0
 18 17  1  0
 18 24  1  0
 18 19  1  6
 20 19  1  0
 21 20  1  0
 22 21  1  0
 22 23  1  0
 24 25  1  0
 26 24  2  0
M  END
$$$$
