IMK.pdb
     RDKit          3D

 26 25  0  0  1  0  0  0  0  0999 V2000
    6.9930  -18.7202   18.8625 C   0  0  0  0  0  0  0  0  0  0  0  0
    7.1894  -17.1992   18.9119 C   0  0  0  0  0  0  0  0  0  0  0  0
    7.8847  -16.9124   20.2198 C   0  0  2  0  0  0  0  0  0  0  0  0
    7.0193  -17.4761   21.3300 C   0  0  0  0  0  0  0  0  0  0  0  0
    8.0906  -15.4536   20.4788 C   0  0  2  0  0  0  0  0  0  0  0  0
    8.8549  -14.8752   19.4079 N   0  0  0  0  0  0  0  0  0  0  0  0
    8.6729  -15.1251   21.7778 C   0  0  0  0  0  0  0  0  0  0  0  0
    9.8999  -15.3527   21.9739 O   0  0  0  0  0  0  0  0  0  0  0  0
    5.3451  -12.1403   26.7023 C   0  0  0  0  0  0  0  0  0  0  0  0
    7.1133  -11.6879   26.8701 S   0  0  0  0  0  0  0  0  0  0  0  0
    8.0559  -13.1779   26.3217 C   0  0  0  0  0  0  0  0  0  0  0  0
    7.6640  -13.4010   24.8956 C   0  0  0  0  0  0  0  0  0  0  0  0
    8.5794  -14.3690   24.2004 C   0  0  2  0  0  0  0  0  0  0  0  0
    7.9635  -14.5606   22.8592 N   0  0  0  0  0  0  0  0  0  0  0  0
    8.7264  -15.6856   24.8557 C   0  0  0  0  0  0  0  0  0  0  0  0
    7.7581  -16.5228   24.8517 O   0  0  0  0  0  0  0  0  0  0  0  0
    9.8918  -16.1086   25.4999 N   0  0  0  0  0  0  0  0  0  0  0  0
   10.0125  -17.5005   26.0691 C   0  0  1  0  0  0  0  0  0  0  0  0
   11.1663  -18.0486   25.3114 C   0  0  0  0  0  0  0  0  0  0  0  0
   11.0280  -18.8631   24.1137 C   0  0  0  0  0  0  0  0  0  0  0  0
   12.1929  -19.3840   23.3803 C   0  0  0  0  0  0  0  0  0  0  0  0
   11.8706  -20.2653   22.1961 C   0  0  0  0  0  0  0  0  0  0  0  0
   13.0134  -20.6618   21.4333 N   0  0  0  0  0  0  0  0  0  0  0  0
   10.1720  -17.2846   27.5010 C   0  0  0  0  0  0  0  0  0  0  0  0
   10.1532  -18.3413   28.3958 O   0  0  0  0  0  0  0  0  0  0  0  0
   10.3299  -16.1536   27.9939 O   0  0  0  0  0  0  0  0  0  0  0  0
  2  1  1  0
  3  5  1  0
  3  2  1  0
  3  4  1  1
  5  6  1  6
  7  8  2  0
  7  5  1  0
 10  9  1  0
 11 10  1  0
 12 11  1  0
 13 12  1  1
 13 14  1  0
 14  7  1  0
 15 16  2  0
 15 13  1  0
 17 15  1  0
 18 17  1  0
 18 24  1  0
 18 19  1  6
 20 19  1  0
 21 20  1  0
 22 21  1  0
 22 23  1  0
 24 25  1  0
 26 24  2  0
M  END
$$$$
