IMK.pdb
     RDKit          3D

 26 25  0  0  1  0  0  0  0  0999 V2000
    7.9627  -16.8195   18.1411 C   0  0  0  0  0  0  0  0  0  0  0  0
    7.5650  -15.4304   18.6577 C   0  0  0  0  0  0  0  0  0  0  0  0
    8.0457  -15.3652   20.0863 C   0  0  2  0  0  0  0  0  0  0  0  0
    7.5074  -16.5869   20.8052 C   0  0  0  0  0  0  0  0  0  0  0  0
    7.5801  -14.1461   20.8175 C   0  0  2  0  0  0  0  0  0  0  0  0
    7.8695  -12.9741   20.0377 N   0  0  0  0  0  0  0  0  0  0  0  0
    8.0809  -14.0064   22.1828 C   0  0  0  0  0  0  0  0  0  0  0  0
    9.2168  -13.4857   22.3681 O   0  0  0  0  0  0  0  0  0  0  0  0
    6.8247  -12.2526   28.0453 C   0  0  0  0  0  0  0  0  0  0  0  0
    6.9856  -11.2882   26.4950 S   0  0  0  0  0  0  0  0  0  0  0  0
    6.3524  -12.3953   25.1597 C   0  0  0  0  0  0  0  0  0  0  0  0
    6.7914  -13.7744   25.5368 C   0  0  0  0  0  0  0  0  0  0  0  0
    7.9521  -14.2471   24.7077 C   0  0  2  0  0  0  0  0  0  0  0  0
    7.3859  -14.4136   23.3415 N   0  0  0  0  0  0  0  0  0  0  0  0
    8.5597  -15.5244   25.1365 C   0  0  0  0  0  0  0  0  0  0  0  0
    8.9482  -15.6830   26.3458 O   0  0  0  0  0  0  0  0  0  0  0  0
    8.7436  -16.6215   24.2911 N   0  0  0  0  0  0  0  0  0  0  0  0
    9.3778  -17.8970   24.7876 C   0  0  1  0  0  0  0  0  0  0  0  0
    8.8339  -18.9047   23.8419 C   0  0  0  0  0  0  0  0  0  0  0  0
    7.4626  -19.3893   23.8842 C   0  0  0  0  0  0  0  0  0  0  0  0
    6.9668  -20.4224   22.9604 C   0  0  0  0  0  0  0  0  0  0  0  0
    5.4995  -20.7576   23.0924 C   0  0  0  0  0  0  0  0  0  0  0  0
    5.0685  -21.8368   22.2589 N   0  0  0  0  0  0  0  0  0  0  0  0
   10.8076  -17.6199   24.7480 C   0  0  0  0  0  0  0  0  0  0  0  0
   11.3364  -16.6838   23.8752 O   0  0  0  0  0  0  0  0  0  0  0  0
   11.6230  -18.2023   25.4848 O   0  0  0  0  0  0  0  0  0  0  0  0
  2  1  1  0
  3  5  1  0
  3  2  1  0
  3  4  1  1
  5  6  1  6
  7  8  2  0
  7  5  1  0
 10  9  1  0
 11 10  1  0
 12 11  1  0
 13 12  1  1
 13 14  1  0
 14  7  1  0
 15 16  2  0
 15 13  1  0
 17 15  1  0
 18 17  1  0
 18 24  1  0
 18 19  1  6
 20 19  1  0
 21 20  1  0
 22 21  1  0
 22 23  1  0
 24 25  1  0
 26 24  2  0
M  END
$$$$
