IMK.pdb
     RDKit          3D

 26 25  0  0  1  0  0  0  0  0999 V2000
    8.9352  -12.5627   18.5617 C   0  0  0  0  0  0  0  0  0  0  0  0
    8.1326  -12.6552   19.8663 C   0  0  0  0  0  0  0  0  0  0  0  0
    7.4107  -13.9791   19.8170 C   0  0  2  0  0  0  0  0  0  0  0  0
    6.1195  -13.8241   20.5968 C   0  0  0  0  0  0  0  0  0  0  0  0
    8.1900  -15.1062   20.4168 C   0  0  2  0  0  0  0  0  0  0  0  0
    7.4663  -16.3368   20.2511 N   0  0  0  0  0  0  0  0  0  0  0  0
    8.5938  -14.9167   21.8081 C   0  0  0  0  0  0  0  0  0  0  0  0
    9.7633  -14.5089   22.0560 O   0  0  0  0  0  0  0  0  0  0  0  0
    7.2434  -11.5637   28.2767 C   0  0  0  0  0  0  0  0  0  0  0  0
    6.8081  -12.0184   26.5554 S   0  0  0  0  0  0  0  0  0  0  0  0
    7.3248  -13.7811   26.3672 C   0  0  0  0  0  0  0  0  0  0  0  0
    7.0690  -14.1259   24.9345 C   0  0  0  0  0  0  0  0  0  0  0  0
    8.2143  -14.8790   24.3188 C   0  0  2  0  0  0  0  0  0  0  0  0
    7.7675  -15.1564   22.9266 N   0  0  0  0  0  0  0  0  0  0  0  0
    8.5607  -16.1562   24.9771 C   0  0  0  0  0  0  0  0  0  0  0  0
    7.7290  -17.1292   24.9812 O   0  0  0  0  0  0  0  0  0  0  0  0
    9.7798  -16.3972   25.6158 N   0  0  0  0  0  0  0  0  0  0  0  0
   10.1037  -17.7480   26.2042 C   0  0  1  0  0  0  0  0  0  0  0  0
   11.1779  -18.2327   25.3004 C   0  0  0  0  0  0  0  0  0  0  0  0
   11.8632  -19.5042   25.4754 C   0  0  0  0  0  0  0  0  0  0  0  0
   12.9733  -19.9235   24.6046 C   0  0  0  0  0  0  0  0  0  0  0  0
   13.5691  -21.2753   24.9217 C   0  0  0  0  0  0  0  0  0  0  0  0
   14.5001  -21.7483   23.9447 N   0  0  0  0  0  0  0  0  0  0  0  0
   10.4512  -17.4567   27.5887 C   0  0  0  0  0  0  0  0  0  0  0  0
   10.4394  -18.4455   28.5582 O   0  0  0  0  0  0  0  0  0  0  0  0
   10.7719  -16.3180   27.9731 O   0  0  0  0  0  0  0  0  0  0  0  0
  2  1  1  0
  3  5  1  0
  3  2  1  0
  3  4  1  1
  5  6  1  1
  7  8  2  0
  7  5  1  0
 10  9  1  0
 11 10  1  0
 12 11  1  0
 13 12  1  1
 13 14  1  0
 14  7  1  0
 15 16  2  0
 15 13  1  0
 17 15  1  0
 18 17  1  0
 18 24  1  0
 18 19  1  6
 20 19  1  0
 21 20  1  0
 22 21  1  0
 22 23  1  0
 24 25  1  0
 26 24  2  0
M  END
$$$$
