IMK.pdb
     RDKit          3D

 26 25  0  0  1  0  0  0  0  0999 V2000
    7.1388  -12.1522   18.9602 C   0  0  0  0  0  0  0  0  0  0  0  0
    6.9970  -13.4465   19.7721 C   0  0  0  0  0  0  0  0  0  0  0  0
    8.3649  -14.0830   19.7815 C   0  0  2  0  0  0  0  0  0  0  0  0
    8.6995  -14.4667   18.3532 C   0  0  0  0  0  0  0  0  0  0  0  0
    8.4451  -15.3124   20.6298 C   0  0  2  0  0  0  0  0  0  0  0  0
    7.2183  -16.0537   20.5248 N   0  0  0  0  0  0  0  0  0  0  0  0
    8.8044  -15.0854   22.0276 C   0  0  0  0  0  0  0  0  0  0  0  0
   10.0251  -14.9890   22.3381 O   0  0  0  0  0  0  0  0  0  0  0  0
    6.4427  -11.9128   28.7067 C   0  0  0  0  0  0  0  0  0  0  0  0
    6.0240  -12.4885   27.0177 S   0  0  0  0  0  0  0  0  0  0  0  0
    7.3785  -13.6508   26.5448 C   0  0  0  0  0  0  0  0  0  0  0  0
    7.1390  -13.9861   25.1070 C   0  0  0  0  0  0  0  0  0  0  0  0
    8.3084  -14.6985   24.4880 C   0  0  2  0  0  0  0  0  0  0  0  0
    7.8805  -14.9614   23.0871 N   0  0  0  0  0  0  0  0  0  0  0  0
    8.6817  -15.9783   25.1261 C   0  0  0  0  0  0  0  0  0  0  0  0
    7.8739  -16.9711   25.1077 O   0  0  0  0  0  0  0  0  0  0  0  0
    9.9025  -16.2010   25.7682 N   0  0  0  0  0  0  0  0  0  0  0  0
   10.2604  -17.5568   26.3248 C   0  0  1  0  0  0  0  0  0  0  0  0
   11.4110  -17.9503   25.4722 C   0  0  0  0  0  0  0  0  0  0  0  0
   11.6619  -19.3172   25.0411 C   0  0  0  0  0  0  0  0  0  0  0  0
   12.5997  -19.6368   23.9525 C   0  0  0  0  0  0  0  0  0  0  0  0
   12.7697  -21.1086   23.6566 C   0  0  0  0  0  0  0  0  0  0  0  0
   13.5872  -21.3857   22.5164 N   0  0  0  0  0  0  0  0  0  0  0  0
   10.5079  -17.3048   27.7382 C   0  0  0  0  0  0  0  0  0  0  0  0
   10.8524  -16.0441   28.1960 O   0  0  0  0  0  0  0  0  0  0  0  0
   10.4267  -18.1966   28.6014 O   0  0  0  0  0  0  0  0  0  0  0  0
  2  1  1  0
  3  5  1  0
  3  2  1  0
  3  4  1  6
  5  6  1  1
  7  8  2  0
  7  5  1  0
 10  9  1  0
 11 10  1  0
 12 11  1  0
 13 12  1  1
 13 14  1  0
 14  7  1  0
 15 16  2  0
 15 13  1  0
 17 15  1  0
 18 17  1  0
 18 24  1  0
 18 19  1  6
 20 19  1  0
 21 20  1  0
 22 21  1  0
 22 23  1  0
 24 25  1  0
 26 24  2  0
M  END
$$$$
