IMK.pdb
     RDKit          3D

 26 25  0  0  1  0  0  0  0  0999 V2000
    7.3245  -12.0923   18.1436 C   0  0  0  0  0  0  0  0  0  0  0  0
    7.7747  -13.4915   18.5841 C   0  0  0  0  0  0  0  0  0  0  0  0
    7.9417  -13.4219   20.0819 C   0  0  2  0  0  0  0  0  0  0  0  0
    9.0234  -12.4000   20.3735 C   0  0  0  0  0  0  0  0  0  0  0  0
    8.3458  -14.7235   20.6984 C   0  0  2  0  0  0  0  0  0  0  0  0
    7.3365  -15.7141   20.4425 N   0  0  0  0  0  0  0  0  0  0  0  0
    8.6777  -14.6658   22.1200 C   0  0  0  0  0  0  0  0  0  0  0  0
    9.8243  -14.2636   22.4652 O   0  0  0  0  0  0  0  0  0  0  0  0
    6.6565  -11.3030   27.5198 C   0  0  0  0  0  0  0  0  0  0  0  0
    5.7954  -12.8893   27.2013 S   0  0  0  0  0  0  0  0  0  0  0  0
    7.1205  -14.0775   26.7094 C   0  0  0  0  0  0  0  0  0  0  0  0
    6.9441  -14.2929   25.2399 C   0  0  0  0  0  0  0  0  0  0  0  0
    8.1730  -14.8749   24.6001 C   0  0  2  0  0  0  0  0  0  0  0  0
    7.8042  -15.0303   23.1667 N   0  0  0  0  0  0  0  0  0  0  0  0
    8.6049  -16.1848   25.1313 C   0  0  0  0  0  0  0  0  0  0  0  0
    7.7972  -17.1778   25.1415 O   0  0  0  0  0  0  0  0  0  0  0  0
    9.8827  -16.4365   25.6375 N   0  0  0  0  0  0  0  0  0  0  0  0
   10.2906  -17.8178   26.0864 C   0  0  1  0  0  0  0  0  0  0  0  0
   11.4227  -18.1209   25.1742 C   0  0  0  0  0  0  0  0  0  0  0  0
   11.2515  -18.6273   23.8210 C   0  0  0  0  0  0  0  0  0  0  0  0
   12.3959  -18.9633   22.9584 C   0  0  0  0  0  0  0  0  0  0  0  0
   12.0426  -19.3993   21.5557 C   0  0  0  0  0  0  0  0  0  0  0  0
   13.1727  -19.7214   20.7407 N   0  0  0  0  0  0  0  0  0  0  0  0
   10.5767  -17.6582   27.5060 C   0  0  0  0  0  0  0  0  0  0  0  0
   10.4933  -18.7270   28.3827 O   0  0  0  0  0  0  0  0  0  0  0  0
   10.9058  -16.5670   28.0040 O   0  0  0  0  0  0  0  0  0  0  0  0
  2  1  1  0
  3  5  1  0
  3  2  1  0
  3  4  1  6
  5  6  1  1
  7  8  2  0
  7  5  1  0
 10  9  1  0
 11 10  1  0
 12 11  1  0
 13 12  1  1
 13 14  1  0
 14  7  1  0
 15 16  2  0
 15 13  1  0
 17 15  1  0
 18 17  1  0
 18 24  1  0
 18 19  1  6
 20 19  1  0
 21 20  1  0
 22 21  1  0
 22 23  1  0
 24 25  1  0
 26 24  2  0
M  END
$$$$
