IMK.pdb
     RDKit          3D

 26 25  0  0  1  0  0  0  0  0999 V2000
    6.8927  -11.3522   27.3050 C   0  0  0  0  0  0  0  0  0  0  0  0
    6.7322  -12.8749   27.4060 C   0  0  0  0  0  0  0  0  0  0  0  0
    6.8123  -13.3957   25.9922 C   0  0  2  0  0  0  0  0  0  0  0  0
    5.6417  -12.8132   25.2243 C   0  0  0  0  0  0  0  0  0  0  0  0
    6.7395  -14.8869   25.9007 C   0  0  2  0  0  0  0  0  0  0  0  0
    7.3163  -15.4728   27.0795 N   0  0  0  0  0  0  0  0  0  0  0  0
    7.3139  -15.4680   24.6895 C   0  0  0  0  0  0  0  0  0  0  0  0
    6.9902  -16.6441   24.3616 O   0  0  0  0  0  0  0  0  0  0  0  0
    8.8382  -13.0481   18.8124 C   0  0  0  0  0  0  0  0  0  0  0  0
    7.4633  -12.5596   19.9217 S   0  0  0  0  0  0  0  0  0  0  0  0
    7.2809  -13.9519   21.1207 C   0  0  0  0  0  0  0  0  0  0  0  0
    8.6682  -14.2776   21.5750 C   0  0  0  0  0  0  0  0  0  0  0  0
    8.6915  -15.4150   22.5567 C   0  0  2  0  0  0  0  0  0  0  0  0
    8.2223  -14.8103   23.8330 N   0  0  0  0  0  0  0  0  0  0  0  0
   10.0143  -16.0370   22.7758 C   0  0  0  0  0  0  0  0  0  0  0  0
   10.8707  -15.4824   23.5488 O   0  0  0  0  0  0  0  0  0  0  0  0
   10.4171  -17.2379   22.1861 N   0  0  0  0  0  0  0  0  0  0  0  0
   11.7625  -17.8487   22.4901 C   0  0  1  0  0  0  0  0  0  0  0  0
   11.4305  -19.2913   22.6098 C   0  0  0  0  0  0  0  0  0  0  0  0
   12.3760  -20.2990   23.0655 C   0  0  0  0  0  0  0  0  0  0  0  0
   12.0066  -21.7173   23.2009 C   0  0  0  0  0  0  0  0  0  0  0  0
   13.1275  -22.6407   23.6176 C   0  0  0  0  0  0  0  0  0  0  0  0
   12.7267  -24.0008   23.8035 N   0  0  0  0  0  0  0  0  0  0  0  0
   12.6020  -17.4278   21.3763 C   0  0  0  0  0  0  0  0  0  0  0  0
   12.0736  -17.2233   20.1126 O   0  0  0  0  0  0  0  0  0  0  0  0
   13.8246  -17.2328   21.4957 O   0  0  0  0  0  0  0  0  0  0  0  0
  2  1  1  0
  3  5  1  0
  3  2  1  0
  3  4  1  6
  5  6  1  1
  7  8  2  0
  7  5  1  0
 10  9  1  0
 11 10  1  0
 12 11  1  0
 13 12  1  6
 13 14  1  0
 14  7  1  0
 15 16  2  0
 15 13  1  0
 17 15  1  0
 18 17  1  0
 18 24  1  0
 18 19  1  6
 20 19  1  0
 21 20  1  0
 22 21  1  0
 22 23  1  0
 24 25  1  0
 26 24  2  0
M  END
$$$$
