IMK.pdb
     RDKit          3D

 26 25  0  0  1  0  0  0  0  0999 V2000
    6.8635  -12.4008   18.3594 C   0  0  0  0  0  0  0  0  0  0  0  0
    7.3840  -13.7789   18.7889 C   0  0  0  0  0  0  0  0  0  0  0  0
    7.8356  -13.6248   20.2203 C   0  0  2  0  0  0  0  0  0  0  0  0
    9.0592  -12.7292   20.2188 C   0  0  0  0  0  0  0  0  0  0  0  0
    8.2014  -14.9199   20.8732 C   0  0  2  0  0  0  0  0  0  0  0  0
    7.1671  -15.8896   20.6381 N   0  0  0  0  0  0  0  0  0  0  0  0
    8.5280  -14.8333   22.2947 C   0  0  0  0  0  0  0  0  0  0  0  0
    9.7385  -14.7261   22.6394 O   0  0  0  0  0  0  0  0  0  0  0  0
    8.4686  -12.4752   28.9487 C   0  0  0  0  0  0  0  0  0  0  0  0
    8.2216  -12.6093   27.1376 S   0  0  0  0  0  0  0  0  0  0  0  0
    6.9761  -13.9533   26.9097 C   0  0  0  0  0  0  0  0  0  0  0  0
    6.7945  -14.0888   25.4313 C   0  0  0  0  0  0  0  0  0  0  0  0
    7.9762  -14.7421   24.7719 C   0  0  2  0  0  0  0  0  0  0  0  0
    7.5821  -14.8597   23.3416 N   0  0  0  0  0  0  0  0  0  0  0  0
    8.3290  -16.0821   25.2862 C   0  0  0  0  0  0  0  0  0  0  0  0
    7.4372  -16.9955   25.3795 O   0  0  0  0  0  0  0  0  0  0  0  0
    9.6163  -16.4474   25.6884 N   0  0  0  0  0  0  0  0  0  0  0  0
    9.9424  -17.8671   26.0810 C   0  0  1  0  0  0  0  0  0  0  0  0
   10.9185  -18.2639   25.0344 C   0  0  0  0  0  0  0  0  0  0  0  0
   11.6654  -19.5123   25.0633 C   0  0  0  0  0  0  0  0  0  0  0  0
   12.6572  -19.8572   24.0319 C   0  0  0  0  0  0  0  0  0  0  0  0
   13.3412  -21.1922   24.2130 C   0  0  0  0  0  0  0  0  0  0  0  0
   14.4084  -21.4328   23.2920 N   0  0  0  0  0  0  0  0  0  0  0  0
   10.4162  -17.7544   27.4540 C   0  0  0  0  0  0  0  0  0  0  0  0
   11.0028  -16.5900   27.9209 O   0  0  0  0  0  0  0  0  0  0  0  0
   10.3234  -18.6861   28.2728 O   0  0  0  0  0  0  0  0  0  0  0  0
  2  1  1  0
  3  5  1  0
  3  2  1  0
  3  4  1  6
  5  6  1  1
  7  8  2  0
  7  5  1  0
 10  9  1  0
 11 10  1  0
 12 11  1  0
 13 12  1  1
 13 14  1  0
 14  7  1  0
 15 16  2  0
 15 13  1  0
 17 15  1  0
 18 17  1  0
 18 24  1  0
 18 19  1  6
 20 19  1  0
 21 20  1  0
 22 21  1  0
 22 23  1  0
 24 25  1  0
 26 24  2  0
M  END
$$$$
