IMK.pdb
     RDKit          3D

 26 25  0  0  1  0  0  0  0  0999 V2000
    7.3093  -12.3945   18.3937 C   0  0  0  0  0  0  0  0  0  0  0  0
    7.4916  -13.8274   18.9118 C   0  0  0  0  0  0  0  0  0  0  0  0
    7.8063  -13.7006   20.3819 C   0  0  2  0  0  0  0  0  0  0  0  0
    8.9255  -12.6873   20.5234 C   0  0  0  0  0  0  0  0  0  0  0  0
    8.2513  -14.9834   21.0096 C   0  0  2  0  0  0  0  0  0  0  0  0
    7.2352  -15.9850   20.8362 N   0  0  0  0  0  0  0  0  0  0  0  0
    8.6607  -14.8861   22.4087 C   0  0  0  0  0  0  0  0  0  0  0  0
    9.7744  -14.3582   22.6854 O   0  0  0  0  0  0  0  0  0  0  0  0
    9.2518  -12.5807   28.2328 C   0  0  0  0  0  0  0  0  0  0  0  0
    7.5531  -12.8489   27.5988 S   0  0  0  0  0  0  0  0  0  0  0  0
    7.4760  -14.6360   27.1409 C   0  0  0  0  0  0  0  0  0  0  0  0
    7.2284  -14.6644   25.6662 C   0  0  0  0  0  0  0  0  0  0  0  0
    8.3868  -15.2477   24.9074 C   0  0  2  0  0  0  0  0  0  0  0  0
    7.8985  -15.3432   23.5048 N   0  0  0  0  0  0  0  0  0  0  0  0
    8.8299  -16.5847   25.3553 C   0  0  0  0  0  0  0  0  0  0  0  0
    7.9911  -17.5470   25.4500 O   0  0  0  0  0  0  0  0  0  0  0  0
   10.1503  -16.8954   25.6904 N   0  0  0  0  0  0  0  0  0  0  0  0
   10.5622  -18.3062   26.0308 C   0  0  1  0  0  0  0  0  0  0  0  0
   11.7927  -18.4771   25.2169 C   0  0  0  0  0  0  0  0  0  0  0  0
   11.8206  -18.3591   23.7670 C   0  0  0  0  0  0  0  0  0  0  0  0
   13.0686  -18.4701   22.9947 C   0  0  0  0  0  0  0  0  0  0  0  0
   12.9241  -18.2866   21.5020 C   0  0  0  0  0  0  0  0  0  0  0  0
   14.1371  -18.4767   20.7687 N   0  0  0  0  0  0  0  0  0  0  0  0
   10.6948  -18.2956   27.4816 C   0  0  0  0  0  0  0  0  0  0  0  0
   10.6720  -19.4694   28.2160 O   0  0  0  0  0  0  0  0  0  0  0  0
   10.8323  -17.2454   28.1336 O   0  0  0  0  0  0  0  0  0  0  0  0
  2  1  1  0
  3  5  1  0
  3  2  1  0
  3  4  1  6
  5  6  1  1
  7  8  2  0
  7  5  1  0
 10  9  1  0
 11 10  1  0
 12 11  1  0
 13 12  1  1
 13 14  1  0
 14  7  1  0
 15 16  2  0
 15 13  1  0
 17 15  1  0
 18 17  1  0
 18 24  1  0
 18 19  1  6
 20 19  1  0
 21 20  1  0
 22 21  1  0
 22 23  1  0
 24 25  1  0
 26 24  2  0
M  END
$$$$
