IMK.pdb
     RDKit          3D

 26 25  0  0  1  0  0  0  0  0999 V2000
    6.9628  -12.3266   18.3541 C   0  0  0  0  0  0  0  0  0  0  0  0
    7.3895  -13.7464   18.7502 C   0  0  0  0  0  0  0  0  0  0  0  0
    7.8639  -13.6541   20.1794 C   0  0  2  0  0  0  0  0  0  0  0  0
    9.1004  -12.7766   20.1941 C   0  0  0  0  0  0  0  0  0  0  0  0
    8.2201  -14.9786   20.7765 C   0  0  2  0  0  0  0  0  0  0  0  0
    7.1153  -15.8866   20.6338 N   0  0  0  0  0  0  0  0  0  0  0  0
    8.6900  -14.9352   22.1592 C   0  0  0  0  0  0  0  0  0  0  0  0
    9.9102  -14.6980   22.3840 O   0  0  0  0  0  0  0  0  0  0  0  0
    6.3630  -10.7902   27.1558 C   0  0  0  0  0  0  0  0  0  0  0  0
    6.1708  -12.5981   26.9238 S   0  0  0  0  0  0  0  0  0  0  0  0
    7.5013  -13.0858   25.7400 C   0  0  0  0  0  0  0  0  0  0  0  0
    7.3222  -14.5534   25.5138 C   0  0  0  0  0  0  0  0  0  0  0  0
    8.4251  -15.1374   24.6768 C   0  0  2  0  0  0  0  0  0  0  0  0
    7.8761  -15.1406   23.2936 N   0  0  0  0  0  0  0  0  0  0  0  0
    8.8345  -16.5114   25.0360 C   0  0  0  0  0  0  0  0  0  0  0  0
    7.9885  -17.4711   24.9944 O   0  0  0  0  0  0  0  0  0  0  0  0
   10.1298  -16.8607   25.4264 N   0  0  0  0  0  0  0  0  0  0  0  0
   10.4969  -18.2906   25.7369 C   0  0  1  0  0  0  0  0  0  0  0  0
   11.6920  -18.4992   24.8802 C   0  0  0  0  0  0  0  0  0  0  0  0
   12.1115  -19.8029   24.3888 C   0  0  0  0  0  0  0  0  0  0  0  0
   13.2810  -19.9714   23.5111 C   0  0  0  0  0  0  0  0  0  0  0  0
   13.6494  -21.4014   23.1917 C   0  0  0  0  0  0  0  0  0  0  0  0
   14.7519  -21.5345   22.2907 N   0  0  0  0  0  0  0  0  0  0  0  0
   10.6780  -18.3034   27.1824 C   0  0  0  0  0  0  0  0  0  0  0  0
   10.3272  -17.2142   27.9625 O   0  0  0  0  0  0  0  0  0  0  0  0
   11.1534  -19.2797   27.7890 O   0  0  0  0  0  0  0  0  0  0  0  0
  2  1  1  0
  3  5  1  0
  3  2  1  0
  3  4  1  6
  5  6  1  1
  7  8  2  0
  7  5  1  0
 10  9  1  0
 11 10  1  0
 12 11  1  0
 13 12  1  1
 13 14  1  0
 14  7  1  0
 15 16  2  0
 15 13  1  0
 17 15  1  0
 18 17  1  0
 18 24  1  0
 18 19  1  6
 20 19  1  0
 21 20  1  0
 22 21  1  0
 22 23  1  0
 24 25  1  0
 26 24  2  0
M  END
$$$$
