IMK.pdb
     RDKit          3D

 26 25  0  0  1  0  0  0  0  0999 V2000
    7.6446  -11.8808   19.2492 C   0  0  0  0  0  0  0  0  0  0  0  0
    7.4414  -13.0909   20.1707 C   0  0  0  0  0  0  0  0  0  0  0  0
    8.3598  -14.1686   19.6496 C   0  0  2  0  0  0  0  0  0  0  0  0
    7.8755  -14.5504   18.2643 C   0  0  0  0  0  0  0  0  0  0  0  0
    8.3759  -15.4004   20.4981 C   0  0  2  0  0  0  0  0  0  0  0  0
    7.1092  -16.0722   20.4001 N   0  0  0  0  0  0  0  0  0  0  0  0
    8.7550  -15.1934   21.8938 C   0  0  0  0  0  0  0  0  0  0  0  0
    9.9623  -14.9450   22.1700 O   0  0  0  0  0  0  0  0  0  0  0  0
    6.8815  -11.8351   28.4366 C   0  0  0  0  0  0  0  0  0  0  0  0
    6.3770  -12.4041   26.7690 S   0  0  0  0  0  0  0  0  0  0  0  0
    7.3853  -13.9155   26.4396 C   0  0  0  0  0  0  0  0  0  0  0  0
    7.1348  -14.2633   25.0066 C   0  0  0  0  0  0  0  0  0  0  0  0
    8.3020  -14.9754   24.3832 C   0  0  2  0  0  0  0  0  0  0  0  0
    7.8645  -15.2486   22.9872 N   0  0  0  0  0  0  0  0  0  0  0  0
    8.6847  -16.2500   25.0263 C   0  0  0  0  0  0  0  0  0  0  0  0
    7.8652  -17.2329   25.0543 O   0  0  0  0  0  0  0  0  0  0  0  0
    9.9266  -16.4778   25.6247 N   0  0  0  0  0  0  0  0  0  0  0  0
   10.2367  -17.7822   26.3163 C   0  0  1  0  0  0  0  0  0  0  0  0
   11.3532  -18.3138   25.4938 C   0  0  0  0  0  0  0  0  0  0  0  0
   11.4535  -18.1230   24.0549 C   0  0  0  0  0  0  0  0  0  0  0  0
   12.6084  -18.6026   23.2785 C   0  0  0  0  0  0  0  0  0  0  0  0
   12.6068  -18.2240   21.8159 C   0  0  0  0  0  0  0  0  0  0  0  0
   13.8023  -18.5816   21.1174 N   0  0  0  0  0  0  0  0  0  0  0  0
   10.5214  -17.3944   27.6915 C   0  0  0  0  0  0  0  0  0  0  0  0
   10.6886  -18.3418   28.6876 O   0  0  0  0  0  0  0  0  0  0  0  0
   10.6271  -16.2062   28.0438 O   0  0  0  0  0  0  0  0  0  0  0  0
  2  1  1  0
  3  5  1  0
  3  2  1  0
  3  4  1  6
  5  6  1  1
  7  8  2  0
  7  5  1  0
 10  9  1  0
 11 10  1  0
 12 11  1  0
 13 12  1  1
 13 14  1  0
 14  7  1  0
 15 16  2  0
 15 13  1  0
 17 15  1  0
 18 17  1  0
 18 24  1  0
 18 19  1  6
 20 19  1  0
 21 20  1  0
 22 21  1  0
 22 23  1  0
 24 25  1  0
 26 24  2  0
M  END
$$$$
