IMK.pdb
     RDKit          3D

 26 25  0  0  1  0  0  0  0  0999 V2000
    7.8903  -11.9587   19.9431 C   0  0  0  0  0  0  0  0  0  0  0  0
    7.3014  -13.3737   19.8692 C   0  0  0  0  0  0  0  0  0  0  0  0
    8.4766  -14.3171   19.9413 C   0  0  2  0  0  0  0  0  0  0  0  0
    8.7049  -14.8692   18.5476 C   0  0  0  0  0  0  0  0  0  0  0  0
    8.2623  -15.4671   20.8735 C   0  0  2  0  0  0  0  0  0  0  0  0
    6.9233  -15.9676   20.7246 N   0  0  0  0  0  0  0  0  0  0  0  0
    8.5713  -15.2010   22.2765 C   0  0  0  0  0  0  0  0  0  0  0  0
    9.7637  -14.9407   22.6020 O   0  0  0  0  0  0  0  0  0  0  0  0
    7.0741  -11.0629   26.5295 C   0  0  0  0  0  0  0  0  0  0  0  0
    6.0384  -12.4472   27.1380 S   0  0  0  0  0  0  0  0  0  0  0  0
    7.0118  -13.9778   26.7928 C   0  0  0  0  0  0  0  0  0  0  0  0
    6.8356  -14.2473   25.3321 C   0  0  0  0  0  0  0  0  0  0  0  0
    8.0119  -14.9736   24.7432 C   0  0  2  0  0  0  0  0  0  0  0  0
    7.6271  -15.2100   23.3252 N   0  0  0  0  0  0  0  0  0  0  0  0
    8.3395  -16.2686   25.3759 C   0  0  0  0  0  0  0  0  0  0  0  0
    7.4722  -17.2092   25.4127 O   0  0  0  0  0  0  0  0  0  0  0  0
    9.5772  -16.5612   25.9546 N   0  0  0  0  0  0  0  0  0  0  0  0
    9.8276  -17.8775   26.6476 C   0  0  1  0  0  0  0  0  0  0  0  0
   10.7144  -18.5749   25.6817 C   0  0  0  0  0  0  0  0  0  0  0  0
   11.0405  -19.9904   25.7667 C   0  0  0  0  0  0  0  0  0  0  0  0
   11.8876  -20.6617   24.7676 C   0  0  0  0  0  0  0  0  0  0  0  0
   12.2500  -22.0939   25.0843 C   0  0  0  0  0  0  0  0  0  0  0  0
   13.1468  -22.6922   24.1446 N   0  0  0  0  0  0  0  0  0  0  0  0
   10.3840  -17.4971   27.9391 C   0  0  0  0  0  0  0  0  0  0  0  0
   10.3584  -18.3642   29.0186 O   0  0  0  0  0  0  0  0  0  0  0  0
   10.9048  -16.3860   28.1427 O   0  0  0  0  0  0  0  0  0  0  0  0
  2  1  1  0
  3  5  1  0
  3  2  1  0
  3  4  1  6
  5  6  1  1
  7  8  2  0
  7  5  1  0
 10  9  1  0
 11 10  1  0
 12 11  1  0
 13 12  1  1
 13 14  1  0
 14  7  1  0
 15 16  2  0
 15 13  1  0
 17 15  1  0
 18 17  1  0
 18 24  1  0
 18 19  1  6
 20 19  1  0
 21 20  1  0
 22 21  1  0
 22 23  1  0
 24 25  1  0
 26 24  2  0
M  END
$$$$
