KRV.pdb
     RDKit          3D

 28 27  0  0  1  0  0  0  0  0999 V2000
   26.9310  -18.5267  -18.1942 N   0  0  0  0  0  0  0  0  0  0  0  0
   26.5778  -17.9298  -16.9351 C   0  0  1  0  0  0  0  0  0  0  0  0
   25.7973  -16.6824  -17.1218 C   0  0  0  0  0  0  0  0  0  0  0  0
   24.6694  -16.8497  -18.0889 C   0  0  0  0  0  0  0  0  0  0  0  0
   23.9449  -15.6204  -18.4950 C   0  0  0  0  0  0  0  0  0  0  0  0
   22.8512  -15.9260  -19.4969 C   0  0  0  0  0  0  0  0  0  0  0  0
   21.6544  -16.2620  -18.7407 N   0  0  0  0  0  0  0  0  0  0  0  0
   25.8757  -18.9262  -16.0809 C   0  0  0  0  0  0  0  0  0  0  0  0
   25.2798  -19.8734  -16.6480 O   0  0  0  0  0  0  0  0  0  0  0  0
   28.6770  -22.8826  -10.1145 N   0  0  0  0  0  0  0  0  0  0  0  0
   28.8594  -21.5276  -10.5055 C   0  0  0  0  0  0  0  0  0  0  0  0
   30.0552  -21.0085  -10.6034 N   0  0  0  0  0  0  0  0  0  0  0  0
   27.7812  -20.6601  -10.8108 N   0  0  0  0  0  0  0  0  0  0  0  0
   26.4286  -20.9499  -10.3969 C   0  0  0  0  0  0  0  0  0  0  0  0
   25.4711  -20.9650  -11.5720 C   0  0  0  0  0  0  0  0  0  0  0  0
   26.0223  -19.9971  -12.5938 C   0  0  0  0  0  0  0  0  0  0  0  0
   25.2003  -19.8836  -13.8376 C   0  0  2  0  0  0  0  0  0  0  0  0
   25.8415  -18.8678  -14.6793 N   0  0  0  0  0  0  0  0  0  0  0  0
   23.7993  -19.5179  -13.6365 C   0  0  0  0  0  0  0  0  0  0  0  0
   23.3984  -18.4476  -13.1145 O   0  0  0  0  0  0  0  0  0  0  0  0
   30.2407  -20.0425  -10.8960 C   0  0  0  0  0  0  0  0  0  0  0  0
   21.4985  -20.3974  -16.3596 C   0  0  2  0  0  0  0  0  0  0  0  0
   20.5622  -20.4261  -15.1706 C   0  0  0  0  0  0  0  0  0  0  0  0
   20.0287  -21.8381  -15.0544 C   0  0  2  0  0  0  0  0  0  0  0  0
   21.3628  -20.0851  -13.9444 N   0  0  0  0  0  0  0  0  0  0  0  0
   22.7500  -20.4173  -14.0501 C   0  0  0  0  0  0  0  0  0  0  0  0
   20.7419  -20.6362  -12.7149 O   0  0  0  0  0  0  0  0  0  0  0  0
   21.2839  -21.7124  -12.0632 O   0  0  0  0  0  0  0  0  0  0  0  0
  2  1  1  6
  2  3  1  0
  3  4  1  0
  4  5  1  0
  5  6  1  0
  7  6  1  0
  8  9  2  0
  8  2  1  0
 10 11  1  0
 11 12  2  0
 13 14  1  0
 13 11  1  0
 14 15  1  0
 15 16  1  0
 17 16  1  1
 17 18  1  0
 18  8  1  0
 19 17  1  0
 20 19  2  0
 22 21  1  6
 22 24  1  0
 23 22  1  0
 24 26  1  0
 24 25  1  1
 25 19  1  0
 26 27  1  0
 28 26  2  0
M  END
$$$$
