KRV.pdb
     RDKit          3D

 28 27  0  0  1  0  0  0  0  0999 V2000
   27.4818  -19.6133  -18.0552 N   0  0  0  0  0  0  0  0  0  0  0  0
   27.3757  -20.5864  -17.0026 C   0  0  1  0  0  0  0  0  0  0  0  0
   28.7106  -21.0242  -16.5269 C   0  0  0  0  0  0  0  0  0  0  0  0
   29.2763  -22.1382  -17.3482 C   0  0  0  0  0  0  0  0  0  0  0  0
   29.6447  -23.3826  -16.6292 C   0  0  0  0  0  0  0  0  0  0  0  0
   30.2124  -24.4217  -17.5733 C   0  0  0  0  0  0  0  0  0  0  0  0
   30.6239  -25.5600  -16.7658 N   0  0  0  0  0  0  0  0  0  0  0  0
   26.5190  -20.0564  -15.9068 C   0  0  0  0  0  0  0  0  0  0  0  0
   26.5929  -18.8329  -15.6398 O   0  0  0  0  0  0  0  0  0  0  0  0
   19.6741  -17.3391  -14.9159 N   0  0  0  0  0  0  0  0  0  0  0  0
   20.0650  -17.5714  -16.2632 C   0  0  0  0  0  0  0  0  0  0  0  0
   19.6884  -16.7679  -17.2233 N   0  0  0  0  0  0  0  0  0  0  0  0
   20.8736  -18.6673  -16.6548 N   0  0  0  0  0  0  0  0  0  0  0  0
   21.3962  -19.6107  -15.6947 C   0  0  0  0  0  0  0  0  0  0  0  0
   22.8082  -19.2585  -15.2703 C   0  0  0  0  0  0  0  0  0  0  0  0
   23.3628  -20.4708  -14.5580 C   0  0  0  0  0  0  0  0  0  0  0  0
   24.7748  -20.3158  -14.0913 C   0  0  2  0  0  0  0  0  0  0  0  0
   25.6344  -20.8451  -15.1554 N   0  0  0  0  0  0  0  0  0  0  0  0
   25.1022  -20.9909  -12.8368 C   0  0  0  0  0  0  0  0  0  0  0  0
   24.9347  -22.2151  -12.6086 O   0  0  0  0  0  0  0  0  0  0  0  0
   19.9336  -16.8978  -18.2113 C   0  0  0  0  0  0  0  0  0  0  0  0
   26.0828  -18.7659   -9.1577 C   0  0  2  0  0  0  0  0  0  0  0  0
   26.8259  -20.0138   -9.5840 C   0  0  0  0  0  0  0  0  0  0  0  0
   27.1551  -20.7907   -8.3270 C   0  0  1  0  0  0  0  0  0  0  0  0
   25.9052  -20.8246  -10.4535 N   0  0  0  0  0  0  0  0  0  0  0  0
   25.6648  -20.2440  -11.7384 C   0  0  0  0  0  0  0  0  0  0  0  0
   24.6483  -21.1710   -9.7456 O   0  0  0  0  0  0  0  0  0  0  0  0
   24.6060  -22.1805   -8.8205 O   0  0  0  0  0  0  0  0  0  0  0  0
  2  1  1  6
  2  3  1  0
  3  4  1  0
  4  5  1  0
  5  6  1  0
  7  6  1  0
  8  9  2  0
  8  2  1  0
 10 11  1  0
 11 12  2  0
 13 14  1  0
 13 11  1  0
 14 15  1  0
 15 16  1  0
 17 16  1  6
 17 18  1  0
 18  8  1  0
 19 17  1  0
 20 19  2  0
 22 21  1  1
 22 24  1  0
 23 22  1  0
 24 26  1  0
 24 25  1  6
 25 19  1  0
 26 27  1  0
 28 26  2  0
M  END
$$$$
