KRV.pdb
     RDKit          3D

 28 27  0  0  1  0  0  0  0  0999 V2000
   26.8419  -19.3841  -18.5510 N   0  0  0  0  0  0  0  0  0  0  0  0
   26.7618  -20.4286  -17.5667 C   0  0  1  0  0  0  0  0  0  0  0  0
   28.1071  -20.8419  -17.0982 C   0  0  0  0  0  0  0  0  0  0  0  0
   28.5773  -22.1057  -17.7439 C   0  0  0  0  0  0  0  0  0  0  0  0
   28.0648  -23.3788  -17.1804 C   0  0  0  0  0  0  0  0  0  0  0  0
   28.5913  -24.5758  -17.9444 C   0  0  0  0  0  0  0  0  0  0  0  0
   28.0627  -25.7673  -17.2979 N   0  0  0  0  0  0  0  0  0  0  0  0
   25.8680  -20.0084  -16.4532 C   0  0  0  0  0  0  0  0  0  0  0  0
   26.2381  -19.0540  -15.7280 O   0  0  0  0  0  0  0  0  0  0  0  0
   18.3482  -22.8874  -12.7631 N   0  0  0  0  0  0  0  0  0  0  0  0
   19.3433  -23.5045  -13.5699 C   0  0  0  0  0  0  0  0  0  0  0  0
   19.4669  -24.8053  -13.6121 N   0  0  0  0  0  0  0  0  0  0  0  0
   20.2540  -22.7701  -14.3697 N   0  0  0  0  0  0  0  0  0  0  0  0
   20.2243  -21.3278  -14.4299 C   0  0  0  0  0  0  0  0  0  0  0  0
   21.5487  -20.7195  -14.0126 C   0  0  0  0  0  0  0  0  0  0  0  0
   22.4726  -20.8317  -15.2035 C   0  0  0  0  0  0  0  0  0  0  0  0
   23.8698  -20.3680  -14.9421 C   0  0  2  0  0  0  0  0  0  0  0  0
   24.6364  -20.6173  -16.1675 N   0  0  0  0  0  0  0  0  0  0  0  0
   24.5483  -21.0119  -13.8187 C   0  0  0  0  0  0  0  0  0  0  0  0
   24.9002  -22.2175  -13.7804 O   0  0  0  0  0  0  0  0  0  0  0  0
   20.1710  -25.2983  -14.1726 C   0  0  0  0  0  0  0  0  0  0  0  0
   26.6308  -18.7590  -10.8638 C   0  0  2  0  0  0  0  0  0  0  0  0
   26.8508  -20.2216  -11.1853 C   0  0  0  0  0  0  0  0  0  0  0  0
   27.4306  -20.8703   -9.9463 C   0  0  1  0  0  0  0  0  0  0  0  0
   25.5124  -20.8320  -11.4969 N   0  0  0  0  0  0  0  0  0  0  0  0
   24.8648  -20.2532  -12.6332 C   0  0  0  0  0  0  0  0  0  0  0  0
   24.6344  -20.8645  -10.3016 O   0  0  0  0  0  0  0  0  0  0  0  0
   24.9033  -21.6898   -9.2416 O   0  0  0  0  0  0  0  0  0  0  0  0
  2  1  1  6
  2  3  1  0
  3  4  1  0
  4  5  1  0
  5  6  1  0
  7  6  1  0
  8  9  2  0
  8  2  1  0
 10 11  1  0
 11 12  2  0
 13 14  1  0
 13 11  1  0
 14 15  1  0
 15 16  1  0
 17 16  1  6
 17 18  1  0
 18  8  1  0
 19 17  1  0
 20 19  2  0
 22 21  1  6
 22 24  1  0
 23 22  1  0
 24 26  1  0
 24 25  1  6
 25 19  1  0
 26 27  1  0
 28 26  2  0
M  END
$$$$
