KRV.pdb
     RDKit          3D

 28 27  0  0  1  0  0  0  0  0999 V2000
   19.4824  -25.6757   -8.6552 N   0  0  0  0  0  0  0  0  0  0  0  0
   18.4331  -24.6984   -8.5555 C   0  0  1  0  0  0  0  0  0  0  0  0
   17.7212  -24.5278   -9.8455 C   0  0  0  0  0  0  0  0  0  0  0  0
   18.6276  -24.6732  -11.0256 C   0  0  0  0  0  0  0  0  0  0  0  0
   17.9890  -24.6932  -12.3646 C   0  0  0  0  0  0  0  0  0  0  0  0
   18.9928  -25.0097  -13.4535 C   0  0  0  0  0  0  0  0  0  0  0  0
   18.2607  -25.0778  -14.7091 N   0  0  0  0  0  0  0  0  0  0  0  0
   17.5185  -25.0492   -7.4349 C   0  0  0  0  0  0  0  0  0  0  0  0
   16.3273  -24.6613   -7.5023 O   0  0  0  0  0  0  0  0  0  0  0  0
   18.8679  -30.8989   -0.8968 N   0  0  0  0  0  0  0  0  0  0  0  0
   17.6844  -30.2106   -0.5127 C   0  0  0  0  0  0  0  0  0  0  0  0
   17.0534  -30.5167    0.5906 N   0  0  0  0  0  0  0  0  0  0  0  0
   17.1149  -29.1652   -1.2816 N   0  0  0  0  0  0  0  0  0  0  0  0
   17.7966  -28.5987   -2.4214 C   0  0  0  0  0  0  0  0  0  0  0  0
   16.9470  -27.5599   -3.1265 C   0  0  0  0  0  0  0  0  0  0  0  0
   17.7096  -27.1413   -4.3626 C   0  0  0  0  0  0  0  0  0  0  0  0
   17.0126  -26.1132   -5.1949 C   0  0  2  0  0  0  0  0  0  0  0  0
   17.9107  -25.7878   -6.3080 N   0  0  0  0  0  0  0  0  0  0  0  0
   16.6511  -24.8788   -4.5004 C   0  0  0  0  0  0  0  0  0  0  0  0
   17.4605  -23.9889   -4.1374 O   0  0  0  0  0  0  0  0  0  0  0  0
   16.1844  -30.0671    0.8999 C   0  0  0  0  0  0  0  0  0  0  0  0
   13.8004  -22.5431   -5.5165 C   0  0  2  0  0  0  0  0  0  0  0  0
   13.5899  -22.8184   -4.0430 C   0  0  0  0  0  0  0  0  0  0  0  0
   12.4627  -23.8228   -3.9316 C   0  0  2  0  0  0  0  0  0  0  0  0
   14.8574  -23.4178   -3.4999 N   0  0  0  0  0  0  0  0  0  0  0  0
   15.2713  -24.6062   -4.1798 C   0  0  0  0  0  0  0  0  0  0  0  0
   14.7888  -23.6026   -2.0295 O   0  0  0  0  0  0  0  0  0  0  0  0
   14.7705  -22.5309   -1.1763 O   0  0  0  0  0  0  0  0  0  0  0  0
  2  1  1  6
  2  3  1  0
  3  4  1  0
  4  5  1  0
  5  6  1  0
  7  6  1  0
  8  9  2  0
  8  2  1  0
 10 11  1  0
 11 12  2  0
 13 14  1  0
 13 11  1  0
 14 15  1  0
 15 16  1  0
 17 16  1  1
 17 18  1  0
 18  8  1  0
 19 17  1  0
 20 19  2  0
 22 21  1  1
 22 24  1  0
 23 22  1  0
 24 26  1  0
 24 25  1  1
 25 19  1  0
 26 27  1  0
 28 26  2  0
M  END
$$$$
