KRV.pdb
     RDKit          3D

 28 27  0  0  1  0  0  0  0  0999 V2000
   24.2484  -22.1347  -11.8947 N   0  0  0  0  0  0  0  0  0  0  0  0
   23.5996  -20.8521  -11.8731 C   0  0  1  0  0  0  0  0  0  0  0  0
   23.8368  -20.1416  -10.5929 C   0  0  0  0  0  0  0  0  0  0  0  0
   23.4526  -20.9597   -9.4019 C   0  0  0  0  0  0  0  0  0  0  0  0
   22.0101  -21.2620   -9.2317 C   0  0  0  0  0  0  0  0  0  0  0  0
   21.7461  -21.9952   -7.9332 C   0  0  0  0  0  0  0  0  0  0  0  0
   20.3054  -22.1626   -7.8171 N   0  0  0  0  0  0  0  0  0  0  0  0
   24.0135  -20.0546  -13.0598 C   0  0  0  0  0  0  0  0  0  0  0  0
   23.6386  -18.8593  -13.1269 O   0  0  0  0  0  0  0  0  0  0  0  0
   28.2015  -23.0642  -16.9069 N   0  0  0  0  0  0  0  0  0  0  0  0
   29.3085  -22.7870  -16.0585 C   0  0  0  0  0  0  0  0  0  0  0  0
   30.5203  -23.1483  -16.3905 N   0  0  0  0  0  0  0  0  0  0  0  0
   29.1815  -22.1135  -14.8181 N   0  0  0  0  0  0  0  0  0  0  0  0
   27.9259  -21.5494  -14.3820 C   0  0  0  0  0  0  0  0  0  0  0  0
   27.6326  -20.2301  -15.0686 C   0  0  0  0  0  0  0  0  0  0  0  0
   26.3754  -20.4342  -15.8826 C   0  0  0  0  0  0  0  0  0  0  0  0
   25.1572  -19.7905  -15.3020 C   0  0  2  0  0  0  0  0  0  0  0  0
   24.7979  -20.5616  -14.1071 N   0  0  0  0  0  0  0  0  0  0  0  0
   23.9971  -19.7213  -16.1887 C   0  0  0  0  0  0  0  0  0  0  0  0
   23.3775  -20.7129  -16.6487 O   0  0  0  0  0  0  0  0  0  0  0  0
   31.3409  -23.0337  -15.7849 C   0  0  0  0  0  0  0  0  0  0  0  0
   20.7482  -18.1750  -15.6996 C   0  0  2  0  0  0  0  0  0  0  0  0
   21.2358  -17.4992  -16.9632 C   0  0  0  0  0  0  0  0  0  0  0  0
   21.7287  -16.1219  -16.5730 C   0  0  2  0  0  0  0  0  0  0  0  0
   22.3788  -18.3099  -17.5085 N   0  0  0  0  0  0  0  0  0  0  0  0
   23.4776  -18.4406  -16.6023 C   0  0  0  0  0  0  0  0  0  0  0  0
   22.8031  -17.8269  -18.8455 O   0  0  0  0  0  0  0  0  0  0  0  0
   21.9510  -17.8568  -19.9178 O   0  0  0  0  0  0  0  0  0  0  0  0
  2  1  1  1
  2  3  1  0
  3  4  1  0
  4  5  1  0
  5  6  1  0
  7  6  1  0
  8  9  2  0
  8  2  1  0
 10 11  1  0
 11 12  2  0
 13 14  1  0
 13 11  1  0
 14 15  1  0
 15 16  1  0
 17 16  1  6
 17 18  1  0
 18  8  1  0
 19 17  1  0
 20 19  2  0
 22 21  1  6
 22 24  1  0
 23 22  1  0
 24 26  1  0
 24 25  1  6
 25 19  1  0
 26 27  1  0
 28 26  2  0
M  END
$$$$
