KRV.pdb
     RDKit          3D

 28 27  0  0  1  0  0  0  0  0999 V2000
   28.2336  -22.8966  -17.8584 N   0  0  0  0  0  0  0  0  0  0  0  0
   27.8725  -21.6454  -17.2500 C   0  0  1  0  0  0  0  0  0  0  0  0
   27.4403  -20.6507  -18.2618 C   0  0  0  0  0  0  0  0  0  0  0  0
   28.5925  -19.9485  -18.9059 C   0  0  0  0  0  0  0  0  0  0  0  0
   29.1282  -20.5432  -20.1551 C   0  0  0  0  0  0  0  0  0  0  0  0
   30.2042  -19.6714  -20.7679 C   0  0  0  0  0  0  0  0  0  0  0  0
   30.6361  -20.3186  -21.9974 N   0  0  0  0  0  0  0  0  0  0  0  0
   26.8502  -21.8724  -16.1922 C   0  0  0  0  0  0  0  0  0  0  0  0
   26.0336  -22.8111  -16.3531 O   0  0  0  0  0  0  0  0  0  0  0  0
   23.3007  -20.3559   -9.6127 N   0  0  0  0  0  0  0  0  0  0  0  0
   24.3157  -20.8417   -8.7434 C   0  0  0  0  0  0  0  0  0  0  0  0
   24.0206  -21.3267   -7.5658 N   0  0  0  0  0  0  0  0  0  0  0  0
   25.6915  -20.8356   -9.0831 N   0  0  0  0  0  0  0  0  0  0  0  0
   26.1658  -20.2906  -10.3333 C   0  0  0  0  0  0  0  0  0  0  0  0
   25.4040  -20.8523  -11.5174 C   0  0  0  0  0  0  0  0  0  0  0  0
   26.3409  -20.7972  -12.7022 C   0  0  0  0  0  0  0  0  0  0  0  0
   25.7648  -21.3501  -13.9664 C   0  0  2  0  0  0  0  0  0  0  0  0
   26.7467  -21.0982  -15.0264 N   0  0  0  0  0  0  0  0  0  0  0  0
   24.4763  -20.7900  -14.3702 C   0  0  0  0  0  0  0  0  0  0  0  0
   24.2853  -19.6025  -14.7335 O   0  0  0  0  0  0  0  0  0  0  0  0
   24.7184  -21.5936   -6.8623 C   0  0  0  0  0  0  0  0  0  0  0  0
   21.1275  -23.3725  -15.2135 C   0  0  2  0  0  0  0  0  0  0  0  0
   21.3579  -22.0106  -15.8325 C   0  0  0  0  0  0  0  0  0  0  0  0
   19.9994  -21.4431  -16.1852 C   0  0  1  0  0  0  0  0  0  0  0  0
   22.0174  -21.1397  -14.7993 N   0  0  0  0  0  0  0  0  0  0  0  0
   23.2955  -21.6186  -14.3716 C   0  0  0  0  0  0  0  0  0  0  0  0
   21.1091  -20.8585  -13.6605 O   0  0  0  0  0  0  0  0  0  0  0  0
   19.9905  -20.0829  -13.8154 O   0  0  0  0  0  0  0  0  0  0  0  0
  2  1  1  6
  2  3  1  0
  3  4  1  0
  4  5  1  0
  5  6  1  0
  7  6  1  0
  8  9  2  0
  8  2  1  0
 10 11  1  0
 11 12  2  0
 13 14  1  0
 13 11  1  0
 14 15  1  0
 15 16  1  0
 17 16  1  1
 17 18  1  0
 18  8  1  0
 19 17  1  0
 20 19  2  0
 22 21  1  6
 22 24  1  0
 23 22  1  0
 24 26  1  0
 24 25  1  6
 25 19  1  0
 26 27  1  0
 28 26  2  0
M  END
$$$$
