KRV.pdb
     RDKit          3D

 28 27  0  0  1  0  0  0  0  0999 V2000
   18.1312  -23.6892  -12.7185 N   0  0  0  0  0  0  0  0  0  0  0  0
   17.7494  -22.5942  -13.5679 C   0  0  1  0  0  0  0  0  0  0  0  0
   16.5514  -21.8913  -13.0476 C   0  0  0  0  0  0  0  0  0  0  0  0
   15.6003  -22.8131  -12.3541 C   0  0  0  0  0  0  0  0  0  0  0  0
   15.6141  -22.8008  -10.8706 C   0  0  0  0  0  0  0  0  0  0  0  0
   14.4877  -23.6355  -10.2980 C   0  0  0  0  0  0  0  0  0  0  0  0
   14.7174  -23.7463   -8.8655 N   0  0  0  0  0  0  0  0  0  0  0  0
   18.9084  -21.6831  -13.7721 C   0  0  0  0  0  0  0  0  0  0  0  0
   18.7256  -20.6368  -14.4397 O   0  0  0  0  0  0  0  0  0  0  0  0
   27.2078  -20.0224  -11.0669 N   0  0  0  0  0  0  0  0  0  0  0  0
   26.7983  -21.2647  -11.6246 C   0  0  0  0  0  0  0  0  0  0  0  0
   27.6433  -22.0270  -12.2680 N   0  0  0  0  0  0  0  0  0  0  0  0
   25.4728  -21.7563  -11.5257 N   0  0  0  0  0  0  0  0  0  0  0  0
   24.3714  -20.9064  -11.1390 C   0  0  0  0  0  0  0  0  0  0  0  0
   23.5434  -20.4787  -12.3346 C   0  0  0  0  0  0  0  0  0  0  0  0
   22.2608  -21.2765  -12.2825 C   0  0  0  0  0  0  0  0  0  0  0  0
   21.3161  -20.9939  -13.4064 C   0  0  2  0  0  0  0  0  0  0  0  0
   20.1929  -21.9260  -13.2619 N   0  0  0  0  0  0  0  0  0  0  0  0
   21.8756  -21.1297  -14.7500 C   0  0  0  0  0  0  0  0  0  0  0  0
   22.2135  -22.2142  -15.2871 O   0  0  0  0  0  0  0  0  0  0  0  0
   27.3881  -22.9083  -12.7276 C   0  0  0  0  0  0  0  0  0  0  0  0
   20.5750  -19.3401  -17.9644 C   0  0  2  0  0  0  0  0  0  0  0  0
   22.0555  -19.0455  -17.8521 C   0  0  0  0  0  0  0  0  0  0  0  0
   22.1924  -17.6410  -17.3037 C   0  0  2  0  0  0  0  0  0  0  0  0
   22.6492  -20.0280  -16.8809 N   0  0  0  0  0  0  0  0  0  0  0  0
   22.0788  -19.9610  -15.5710 C   0  0  0  0  0  0  0  0  0  0  0  0
   24.1303  -19.9469  -16.8573 O   0  0  0  0  0  0  0  0  0  0  0  0
   24.8823  -20.3234  -17.9388 O   0  0  0  0  0  0  0  0  0  0  0  0
  2  1  1  1
  2  3  1  0
  3  4  1  0
  4  5  1  0
  5  6  1  0
  7  6  1  0
  8  9  2  0
  8  2  1  0
 10 11  1  0
 11 12  2  0
 13 14  1  0
 13 11  1  0
 14 15  1  0
 15 16  1  0
 17 16  1  1
 17 18  1  0
 18  8  1  0
 19 17  1  0
 20 19  2  0
 22 21  1  6
 22 24  1  0
 23 22  1  0
 24 26  1  0
 24 25  1  6
 25 19  1  0
 26 27  1  0
 28 26  2  0
M  END
$$$$
