KRV.pdb
     RDKit          3D

 28 27  0  0  1  0  0  0  0  0999 V2000
   30.8332  -24.1161  -16.0987 N   0  0  0  0  0  0  0  0  0  0  0  0
   29.7032  -23.5648  -16.7956 C   0  0  1  0  0  0  0  0  0  0  0  0
   28.7794  -24.6265  -17.2642 C   0  0  0  0  0  0  0  0  0  0  0  0
   28.4317  -24.4879  -18.7116 C   0  0  0  0  0  0  0  0  0  0  0  0
   27.5394  -25.5223  -19.2901 C   0  0  0  0  0  0  0  0  0  0  0  0
   27.3405  -25.3153  -20.7771 C   0  0  0  0  0  0  0  0  0  0  0  0
   26.5571  -26.4387  -21.2685 N   0  0  0  0  0  0  0  0  0  0  0  0
   29.0280  -22.5489  -15.9428 C   0  0  0  0  0  0  0  0  0  0  0  0
   29.0196  -22.7323  -14.7018 O   0  0  0  0  0  0  0  0  0  0  0  0
   24.6789  -15.9608  -17.1390 N   0  0  0  0  0  0  0  0  0  0  0  0
   25.4837  -15.1928  -16.2534 C   0  0  0  0  0  0  0  0  0  0  0  0
   25.0074  -14.1312  -15.6574 N   0  0  0  0  0  0  0  0  0  0  0  0
   26.8319  -15.5153  -15.9588 N   0  0  0  0  0  0  0  0  0  0  0  0
   27.4699  -16.6924  -16.4995 C   0  0  0  0  0  0  0  0  0  0  0  0
   27.2009  -17.9190  -15.6503 C   0  0  0  0  0  0  0  0  0  0  0  0
   27.8967  -19.0773  -16.3276 C   0  0  0  0  0  0  0  0  0  0  0  0
   27.7737  -20.3776  -15.5998 C   0  0  2  0  0  0  0  0  0  0  0  0
   28.4007  -21.3988  -16.4457 N   0  0  0  0  0  0  0  0  0  0  0  0
   26.4095  -20.7963  -15.2827 C   0  0  0  0  0  0  0  0  0  0  0  0
   25.5858  -21.2644  -16.1079 O   0  0  0  0  0  0  0  0  0  0  0  0
   25.5364  -13.5617  -14.9874 C   0  0  0  0  0  0  0  0  0  0  0  0
   25.6625  -23.1037  -12.4975 C   0  0  2  0  0  0  0  0  0  0  0  0
   24.6359  -22.0088  -12.3014 C   0  0  0  0  0  0  0  0  0  0  0  0
   25.0891  -21.1760  -11.1211 C   0  0  2  0  0  0  0  0  0  0  0  0
   24.6223  -21.1612  -13.5433 N   0  0  0  0  0  0  0  0  0  0  0  0
   25.9143  -20.6866  -13.9322 C   0  0  0  0  0  0  0  0  0  0  0  0
   23.6235  -20.0683  -13.4488 O   0  0  0  0  0  0  0  0  0  0  0  0
   24.0018  -18.7520  -13.4814 O   0  0  0  0  0  0  0  0  0  0  0  0
  2  1  1  1
  2  3  1  0
  3  4  1  0
  4  5  1  0
  5  6  1  0
  7  6  1  0
  8  9  2  0
  8  2  1  0
 10 11  1  0
 11 12  2  0
 13 14  1  0
 13 11  1  0
 14 15  1  0
 15 16  1  0
 17 16  1  6
 17 18  1  0
 18  8  1  0
 19 17  1  0
 20 19  2  0
 22 21  1  1
 22 24  1  0
 23 22  1  0
 24 26  1  0
 24 25  1  6
 25 19  1  0
 26 27  1  0
 28 26  2  0
M  END
$$$$
