KRV.pdb
     RDKit          3D

 28 27  0  0  1  0  0  0  0  0999 V2000
   18.2634  -26.2963  -12.6919 N   0  0  0  0  0  0  0  0  0  0  0  0
   18.1567  -24.9423  -12.2211 C   0  0  1  0  0  0  0  0  0  0  0  0
   16.8129  -24.3749  -12.4900 C   0  0  0  0  0  0  0  0  0  0  0  0
   15.7109  -25.3384  -12.1854 C   0  0  0  0  0  0  0  0  0  0  0  0
   14.9041  -25.0733  -10.9689 C   0  0  0  0  0  0  0  0  0  0  0  0
   14.5852  -23.5999  -10.8244 C   0  0  0  0  0  0  0  0  0  0  0  0
   13.8122  -23.4432   -9.6018 N   0  0  0  0  0  0  0  0  0  0  0  0
   18.5332  -24.8746  -10.7827 C   0  0  0  0  0  0  0  0  0  0  0  0
   18.6349  -25.9521  -10.1483 O   0  0  0  0  0  0  0  0  0  0  0  0
   22.6800  -20.4352  -11.3578 N   0  0  0  0  0  0  0  0  0  0  0  0
   23.3651  -20.5646  -10.1185 C   0  0  0  0  0  0  0  0  0  0  0  0
   24.5887  -21.0222  -10.0682 N   0  0  0  0  0  0  0  0  0  0  0  0
   22.7838  -20.2143   -8.8744 N   0  0  0  0  0  0  0  0  0  0  0  0
   21.4157  -20.5448   -8.5521 C   0  0  0  0  0  0  0  0  0  0  0  0
   21.1156  -22.0091   -8.8047 C   0  0  0  0  0  0  0  0  0  0  0  0
   19.6672  -22.2264   -8.4313 C   0  0  0  0  0  0  0  0  0  0  0  0
   19.1702  -23.6140   -8.6825 C   0  0  2  0  0  0  0  0  0  0  0  0
   18.7809  -23.6765  -10.0953 N   0  0  0  0  0  0  0  0  0  0  0  0
   18.0389  -24.0375   -7.8593 C   0  0  0  0  0  0  0  0  0  0  0  0
   16.8461  -23.6813   -8.0301 O   0  0  0  0  0  0  0  0  0  0  0  0
   25.1006  -21.2008   -9.1970 C   0  0  0  0  0  0  0  0  0  0  0  0
   16.2028  -27.0431   -4.4253 C   0  0  2  0  0  0  0  0  0  0  0  0
   17.4446  -26.6729   -5.2077 C   0  0  0  0  0  0  0  0  0  0  0  0
   17.6572  -27.7524   -6.2476 C   0  0  1  0  0  0  0  0  0  0  0  0
   17.1857  -25.3578   -5.8891 N   0  0  0  0  0  0  0  0  0  0  0  0
   18.2474  -24.9346   -6.7490 C   0  0  0  0  0  0  0  0  0  0  0  0
   16.7914  -24.3072   -4.9188 O   0  0  0  0  0  0  0  0  0  0  0  0
   15.5207  -24.2470   -4.4102 O   0  0  0  0  0  0  0  0  0  0  0  0
  2  1  1  1
  2  3  1  0
  3  4  1  0
  4  5  1  0
  5  6  1  0
  7  6  1  0
  8  9  2  0
  8  2  1  0
 10 11  1  0
 11 12  2  0
 13 14  1  0
 13 11  1  0
 14 15  1  0
 15 16  1  0
 17 16  1  1
 17 18  1  0
 18  8  1  0
 19 17  1  0
 20 19  2  0
 22 21  1  1
 22 24  1  0
 23 22  1  0
 24 26  1  0
 24 25  1  1
 25 19  1  0
 26 27  1  0
 28 26  2  0
M  END
$$$$
