KRV.pdb
     RDKit          3D

 28 27  0  0  1  0  0  0  0  0999 V2000
   26.7255  -15.7391  -19.4076 N   0  0  0  0  0  0  0  0  0  0  0  0
   25.3172  -15.6396  -19.1371 C   0  0  1  0  0  0  0  0  0  0  0  0
   24.5492  -15.2975  -20.3590 C   0  0  0  0  0  0  0  0  0  0  0  0
   24.7990  -13.8978  -20.8216 C   0  0  0  0  0  0  0  0  0  0  0  0
   25.5063  -13.7342  -22.1154 C   0  0  0  0  0  0  0  0  0  0  0  0
   25.8683  -12.2860  -22.3708 C   0  0  0  0  0  0  0  0  0  0  0  0
   24.6332  -11.5180  -22.3274 N   0  0  0  0  0  0  0  0  0  0  0  0
   24.8367  -16.8886  -18.4856 C   0  0  0  0  0  0  0  0  0  0  0  0
   24.0088  -17.5971  -19.1072 O   0  0  0  0  0  0  0  0  0  0  0  0
   26.1585  -20.5524  -11.5703 N   0  0  0  0  0  0  0  0  0  0  0  0
   26.2610  -21.7962  -12.2518 C   0  0  0  0  0  0  0  0  0  0  0  0
   25.8226  -22.9015  -11.7086 N   0  0  0  0  0  0  0  0  0  0  0  0
   26.8335  -21.9252  -13.5417 N   0  0  0  0  0  0  0  0  0  0  0  0
   27.0164  -20.7877  -14.4120 C   0  0  0  0  0  0  0  0  0  0  0  0
   25.6927  -20.2383  -14.9062 C   0  0  0  0  0  0  0  0  0  0  0  0
   26.0192  -19.1438  -15.8962 C   0  0  0  0  0  0  0  0  0  0  0  0
   24.8284  -18.5818  -16.6044 C   0  0  2  0  0  0  0  0  0  0  0  0
   25.2554  -17.3195  -17.2174 N   0  0  0  0  0  0  0  0  0  0  0  0
   23.6570  -18.3302  -15.7669 C   0  0  0  0  0  0  0  0  0  0  0  0
   23.6315  -17.5680  -14.7684 O   0  0  0  0  0  0  0  0  0  0  0  0
   25.8433  -23.8173  -12.1712 C   0  0  0  0  0  0  0  0  0  0  0  0
   20.5096  -17.0522  -16.9046 C   0  0  2  0  0  0  0  0  0  0  0  0
   20.0528  -18.2641  -16.1211 C   0  0  0  0  0  0  0  0  0  0  0  0
   19.6625  -19.3266  -17.1265 C   0  0  2  0  0  0  0  0  0  0  0  0
   21.2157  -18.7476  -15.2996 N   0  0  0  0  0  0  0  0  0  0  0  0
   22.4034  -18.9804  -16.0617 C   0  0  0  0  0  0  0  0  0  0  0  0
   20.8452  -19.9133  -14.4601 O   0  0  0  0  0  0  0  0  0  0  0  0
   19.8888  -19.8140  -13.4843 O   0  0  0  0  0  0  0  0  0  0  0  0
  2  1  1  6
  2  3  1  0
  3  4  1  0
  4  5  1  0
  5  6  1  0
  7  6  1  0
  8  9  2  0
  8  2  1  0
 10 11  1  0
 11 12  2  0
 13 14  1  0
 13 11  1  0
 14 15  1  0
 15 16  1  0
 17 16  1  1
 17 18  1  0
 18  8  1  0
 19 17  1  0
 20 19  2  0
 22 21  1  6
 22 24  1  0
 23 22  1  0
 24 26  1  0
 24 25  1  1
 25 19  1  0
 26 27  1  0
 28 26  2  0
M  END
$$$$
