KRV.pdb
     RDKit          3D

 28 27  0  0  1  0  0  0  0  0999 V2000
   22.1642  -29.5514  -13.0220 N   0  0  0  0  0  0  0  0  0  0  0  0
   20.7544  -29.4456  -12.7620 C   0  0  1  0  0  0  0  0  0  0  0  0
   20.2628  -30.5820  -11.9453 C   0  0  0  0  0  0  0  0  0  0  0  0
   19.8928  -31.7689  -12.7758 C   0  0  0  0  0  0  0  0  0  0  0  0
   18.4984  -31.8282  -13.2789 C   0  0  0  0  0  0  0  0  0  0  0  0
   18.2332  -33.1171  -14.0286 C   0  0  0  0  0  0  0  0  0  0  0  0
   16.8663  -33.0553  -14.5235 N   0  0  0  0  0  0  0  0  0  0  0  0
   20.4494  -28.1229  -12.1514 C   0  0  0  0  0  0  0  0  0  0  0  0
   21.2885  -27.6318  -11.3586 O   0  0  0  0  0  0  0  0  0  0  0  0
   14.8487  -22.6381  -12.6282 N   0  0  0  0  0  0  0  0  0  0  0  0
   15.7127  -21.6112  -13.0983 C   0  0  0  0  0  0  0  0  0  0  0  0
   15.3565  -20.3544  -13.0494 N   0  0  0  0  0  0  0  0  0  0  0  0
   16.9954  -21.8701  -13.6426 N   0  0  0  0  0  0  0  0  0  0  0  0
   17.4622  -23.2143  -13.8882 C   0  0  0  0  0  0  0  0  0  0  0  0
   18.0071  -23.8599  -12.6295 C   0  0  0  0  0  0  0  0  0  0  0  0
   18.5100  -25.2289  -13.0263 C   0  0  0  0  0  0  0  0  0  0  0  0
   19.0251  -26.0477  -11.8863 C   0  0  2  0  0  0  0  0  0  0  0  0
   19.2787  -27.3939  -12.4106 N   0  0  0  0  0  0  0  0  0  0  0  0
   18.1366  -26.1484  -10.7299 C   0  0  0  0  0  0  0  0  0  0  0  0
   17.0323  -26.7476  -10.7156 O   0  0  0  0  0  0  0  0  0  0  0  0
   15.9406  -19.5777  -13.3791 C   0  0  0  0  0  0  0  0  0  0  0  0
   18.9563  -23.9206   -7.0844 C   0  0  2  0  0  0  0  0  0  0  0  0
   18.4091  -25.3309   -7.0309 C   0  0  0  0  0  0  0  0  0  0  0  0
   17.4413  -25.3921   -5.8683 C   0  0  1  0  0  0  0  0  0  0  0  0
   17.6729  -25.5893   -8.3163 N   0  0  0  0  0  0  0  0  0  0  0  0
   18.5039  -25.5307   -9.4790 C   0  0  0  0  0  0  0  0  0  0  0  0
   16.4684  -24.7320   -8.4387 O   0  0  0  0  0  0  0  0  0  0  0  0
   15.2769  -25.0905   -7.8652 O   0  0  0  0  0  0  0  0  0  0  0  0
  2  1  1  1
  2  3  1  0
  3  4  1  0
  4  5  1  0
  5  6  1  0
  7  6  1  0
  8  9  2  0
  8  2  1  0
 10 11  1  0
 11 12  2  0
 13 14  1  0
 13 11  1  0
 14 15  1  0
 15 16  1  0
 17 16  1  6
 17 18  1  0
 18  8  1  0
 19 17  1  0
 20 19  2  0
 22 21  1  1
 22 24  1  0
 23 22  1  0
 24 26  1  0
 24 25  1  1
 25 19  1  0
 26 27  1  0
 28 26  2  0
M  END
$$$$
