KRV.pdb
     RDKit          3D

 28 27  0  0  1  0  0  0  0  0999 V2000
   27.7668  -22.9030  -17.8555 N   0  0  0  0  0  0  0  0  0  0  0  0
   27.4930  -21.6903  -17.1339 C   0  0  1  0  0  0  0  0  0  0  0  0
   27.0996  -20.5889  -18.0462 C   0  0  0  0  0  0  0  0  0  0  0  0
   27.6688  -20.7493  -19.4194 C   0  0  0  0  0  0  0  0  0  0  0  0
   26.7906  -20.3828  -20.5576 C   0  0  0  0  0  0  0  0  0  0  0  0
   27.4927  -20.5768  -21.8853 C   0  0  0  0  0  0  0  0  0  0  0  0
   28.7179  -19.7930  -21.8446 N   0  0  0  0  0  0  0  0  0  0  0  0
   26.4812  -21.9489  -16.0734 C   0  0  0  0  0  0  0  0  0  0  0  0
   25.5224  -22.7106  -16.3462 O   0  0  0  0  0  0  0  0  0  0  0  0
   25.7430  -19.3557   -8.1270 N   0  0  0  0  0  0  0  0  0  0  0  0
   25.1186  -20.6240   -7.9745 C   0  0  0  0  0  0  0  0  0  0  0  0
   24.2110  -20.8234   -7.0549 N   0  0  0  0  0  0  0  0  0  0  0  0
   25.4282  -21.7405   -8.7906 N   0  0  0  0  0  0  0  0  0  0  0  0
   26.1941  -21.6064  -10.0073 C   0  0  0  0  0  0  0  0  0  0  0  0
   25.3100  -21.6567  -11.2376 C   0  0  0  0  0  0  0  0  0  0  0  0
   26.2274  -21.5683  -12.4356 C   0  0  0  0  0  0  0  0  0  0  0  0
   25.5232  -21.6245  -13.7534 C   0  0  2  0  0  0  0  0  0  0  0  0
   26.5371  -21.3906  -14.7871 N   0  0  0  0  0  0  0  0  0  0  0  0
   24.4359  -20.6633  -13.9290 C   0  0  0  0  0  0  0  0  0  0  0  0
   24.5644  -19.4136  -13.9088 O   0  0  0  0  0  0  0  0  0  0  0  0
   23.7161  -21.7119   -6.9182 C   0  0  0  0  0  0  0  0  0  0  0  0
   22.5454  -19.6290  -16.4995 C   0  0  2  0  0  0  0  0  0  0  0  0
   21.4115  -20.0649  -15.5965 C   0  0  0  0  0  0  0  0  0  0  0  0
   20.9103  -21.3952  -16.1171 C   0  0  2  0  0  0  0  0  0  0  0  0
   21.9671  -20.2407  -14.2104 N   0  0  0  0  0  0  0  0  0  0  0  0
   23.0874  -21.1276  -14.1459 C   0  0  0  0  0  0  0  0  0  0  0  0
   20.9062  -20.5987  -13.2371 O   0  0  0  0  0  0  0  0  0  0  0  0
   19.8016  -19.8072  -13.0633 O   0  0  0  0  0  0  0  0  0  0  0  0
  2  1  1  6
  2  3  1  0
  3  4  1  0
  4  5  1  0
  5  6  1  0
  7  6  1  0
  8  9  2  0
  8  2  1  0
 10 11  1  0
 11 12  2  0
 13 14  1  0
 13 11  1  0
 14 15  1  0
 15 16  1  0
 17 16  1  1
 17 18  1  0
 18  8  1  0
 19 17  1  0
 20 19  2  0
 22 21  1  6
 22 24  1  0
 23 22  1  0
 24 26  1  0
 24 25  1  1
 25 19  1  0
 26 27  1  0
 28 26  2  0
M  END
$$$$
