KRV.pdb
     RDKit          3D

 28 27  0  0  1  0  0  0  0  0999 V2000
   19.4037  -24.1837   -8.3501 N   0  0  0  0  0  0  0  0  0  0  0  0
   18.8207  -23.7611   -9.5942 C   0  0  1  0  0  0  0  0  0  0  0  0
   17.3686  -23.4935   -9.4539 C   0  0  0  0  0  0  0  0  0  0  0  0
   16.5784  -24.7349   -9.1895 C   0  0  0  0  0  0  0  0  0  0  0  0
   17.2850  -26.0289   -9.3552 C   0  0  0  0  0  0  0  0  0  0  0  0
   16.3508  -27.2023   -9.1457 C   0  0  0  0  0  0  0  0  0  0  0  0
   16.4559  -27.5938   -7.7483 N   0  0  0  0  0  0  0  0  0  0  0  0
   19.5715  -22.5956  -10.1358 C   0  0  0  0  0  0  0  0  0  0  0  0
   18.9728  -21.8216  -10.9209 O   0  0  0  0  0  0  0  0  0  0  0  0
   27.7794  -21.4112  -10.9825 N   0  0  0  0  0  0  0  0  0  0  0  0
   26.9032  -21.0169  -12.0308 C   0  0  0  0  0  0  0  0  0  0  0  0
   26.9843  -21.5585  -13.2178 N   0  0  0  0  0  0  0  0  0  0  0  0
   25.8998  -20.0294  -11.8684 N   0  0  0  0  0  0  0  0  0  0  0  0
   24.9317  -20.0948  -10.7991 C   0  0  0  0  0  0  0  0  0  0  0  0
   24.1455  -21.3906  -10.8298 C   0  0  0  0  0  0  0  0  0  0  0  0
   23.0374  -21.2506   -9.8114 C   0  0  0  0  0  0  0  0  0  0  0  0
   21.6646  -21.1979  -10.4015 C   0  0  2  0  0  0  0  0  0  0  0  0
   20.9091  -22.3124   -9.8198 N   0  0  0  0  0  0  0  0  0  0  0  0
   21.6006  -21.2906  -11.8590 C   0  0  0  0  0  0  0  0  0  0  0  0
   21.8162  -22.3320  -12.5281 O   0  0  0  0  0  0  0  0  0  0  0  0
   26.3983  -21.2868  -14.0153 C   0  0  0  0  0  0  0  0  0  0  0  0
   19.6940  -18.2910  -13.5627 C   0  0  2  0  0  0  0  0  0  0  0  0
   20.0815  -19.2932  -14.6288 C   0  0  0  0  0  0  0  0  0  0  0  0
   20.6058  -18.5081  -15.8123 C   0  0  2  0  0  0  0  0  0  0  0  0
   21.1765  -20.1599  -14.0713 N   0  0  0  0  0  0  0  0  0  0  0  0
   21.2684  -20.1270  -12.6443 C   0  0  0  0  0  0  0  0  0  0  0  0
   22.4784  -19.8865  -14.7280 O   0  0  0  0  0  0  0  0  0  0  0  0
   23.5377  -19.3755  -14.0256 O   0  0  0  0  0  0  0  0  0  0  0  0
  2  1  1  1
  2  3  1  0
  3  4  1  0
  4  5  1  0
  5  6  1  0
  7  6  1  0
  8  9  2  0
  8  2  1  0
 10 11  1  0
 11 12  2  0
 13 14  1  0
 13 11  1  0
 14 15  1  0
 15 16  1  0
 17 16  1  6
 17 18  1  0
 18  8  1  0
 19 17  1  0
 20 19  2  0
 22 21  1  6
 22 24  1  0
 23 22  1  0
 24 26  1  0
 24 25  1  6
 25 19  1  0
 26 27  1  0
 28 26  2  0
M  END
$$$$
