KRV.pdb
     RDKit          3D

 28 27  0  0  1  0  0  0  0  0999 V2000
   28.7005  -22.8380  -16.9788 N   0  0  0  0  0  0  0  0  0  0  0  0
   28.1484  -21.6073  -16.4822 C   0  0  1  0  0  0  0  0  0  0  0  0
   27.7100  -20.7202  -17.5872 C   0  0  0  0  0  0  0  0  0  0  0  0
   28.8139  -20.4085  -18.5462 C   0  0  0  0  0  0  0  0  0  0  0  0
   28.5009  -19.4640  -19.6467 C   0  0  0  0  0  0  0  0  0  0  0  0
   29.6784  -19.2937  -20.5837 C   0  0  0  0  0  0  0  0  0  0  0  0
   29.2464  -18.4226  -21.6661 N   0  0  0  0  0  0  0  0  0  0  0  0
   27.0598  -21.8962  -15.5091 C   0  0  0  0  0  0  0  0  0  0  0  0
   26.1388  -22.6691  -15.8669 O   0  0  0  0  0  0  0  0  0  0  0  0
   22.9631  -20.1872   -8.8576 N   0  0  0  0  0  0  0  0  0  0  0  0
   23.8799  -20.9685   -8.1020 C   0  0  0  0  0  0  0  0  0  0  0  0
   23.5198  -21.5341   -6.9798 N   0  0  0  0  0  0  0  0  0  0  0  0
   25.2220  -21.1861   -8.5019 N   0  0  0  0  0  0  0  0  0  0  0  0
   25.7928  -20.5217   -9.6497 C   0  0  0  0  0  0  0  0  0  0  0  0
   25.1690  -21.0009  -10.9456 C   0  0  0  0  0  0  0  0  0  0  0  0
   26.2763  -21.0360  -11.9738 C   0  0  0  0  0  0  0  0  0  0  0  0
   25.8357  -21.4676  -13.3358 C   0  0  2  0  0  0  0  0  0  0  0  0
   27.0037  -21.3546  -14.2158 N   0  0  0  0  0  0  0  0  0  0  0  0
   24.7311  -20.7037  -13.9130 C   0  0  0  0  0  0  0  0  0  0  0  0
   24.7744  -19.4851  -14.2161 O   0  0  0  0  0  0  0  0  0  0  0  0
   24.1239  -22.1537   -6.4281 C   0  0  0  0  0  0  0  0  0  0  0  0
   23.1238  -21.0960  -16.9833 C   0  0  2  0  0  0  0  0  0  0  0  0
   21.9156  -21.1362  -16.0725 C   0  0  0  0  0  0  0  0  0  0  0  0
   21.4754  -22.5815  -15.9757 C   0  0  2  0  0  0  0  0  0  0  0  0
   22.3430  -20.6455  -14.7170 N   0  0  0  0  0  0  0  0  0  0  0  0
   23.4670  -21.3465  -14.1775 C   0  0  0  0  0  0  0  0  0  0  0  0
   21.2024  -20.5923  -13.7698 O   0  0  0  0  0  0  0  0  0  0  0  0
   20.1097  -19.8027  -14.0133 O   0  0  0  0  0  0  0  0  0  0  0  0
  2  1  1  6
  2  3  1  0
  3  4  1  0
  4  5  1  0
  5  6  1  0
  7  6  1  0
  8  9  2  0
  8  2  1  0
 10 11  1  0
 11 12  2  0
 13 14  1  0
 13 11  1  0
 14 15  1  0
 15 16  1  0
 17 16  1  1
 17 18  1  0
 18  8  1  0
 19 17  1  0
 20 19  2  0
 22 21  1  6
 22 24  1  0
 23 22  1  0
 24 26  1  0
 24 25  1  1
 25 19  1  0
 26 27  1  0
 28 26  2  0
M  END
$$$$
