KRV.pdb
     RDKit          3D

 28 27  0  0  1  0  0  0  0  0999 V2000
   27.0394  -19.0004  -16.7807 N   0  0  0  0  0  0  0  0  0  0  0  0
   25.8910  -19.4297  -17.5311 C   0  0  1  0  0  0  0  0  0  0  0  0
   26.2821  -20.2178  -18.7252 C   0  0  0  0  0  0  0  0  0  0  0  0
   27.5978  -19.7887  -19.2911 C   0  0  0  0  0  0  0  0  0  0  0  0
   28.2938  -20.7527  -20.1784 C   0  0  0  0  0  0  0  0  0  0  0  0
   27.4449  -21.1147  -21.3791 C   0  0  0  0  0  0  0  0  0  0  0  0
   28.2788  -20.9571  -22.5610 N   0  0  0  0  0  0  0  0  0  0  0  0
   24.9486  -20.1615  -16.6413 C   0  0  0  0  0  0  0  0  0  0  0  0
   23.8451  -20.5199  -17.1183 O   0  0  0  0  0  0  0  0  0  0  0  0
   26.8908  -20.5302   -8.4368 N   0  0  0  0  0  0  0  0  0  0  0  0
   25.6151  -20.8339   -8.9866 C   0  0  0  0  0  0  0  0  0  0  0  0
   24.5591  -20.9405   -8.2232 N   0  0  0  0  0  0  0  0  0  0  0  0
   25.4001  -21.0390  -10.3723 N   0  0  0  0  0  0  0  0  0  0  0  0
   26.4769  -20.9587  -11.3309 C   0  0  0  0  0  0  0  0  0  0  0  0
   25.9865  -20.5052  -12.6918 C   0  0  0  0  0  0  0  0  0  0  0  0
   25.0686  -21.5902  -13.2064 C   0  0  0  0  0  0  0  0  0  0  0  0
   24.3004  -21.2137  -14.4326 C   0  0  2  0  0  0  0  0  0  0  0  0
   25.2223  -20.4736  -15.3008 N   0  0  0  0  0  0  0  0  0  0  0  0
   23.1073  -20.4004  -14.2045 C   0  0  0  0  0  0  0  0  0  0  0  0
   23.0891  -19.2923  -13.6126 O   0  0  0  0  0  0  0  0  0  0  0  0
   23.6279  -21.2056   -8.5633 C   0  0  0  0  0  0  0  0  0  0  0  0
   19.5614  -20.9541  -16.5070 C   0  0  2  0  0  0  0  0  0  0  0  0
   19.9482  -19.6941  -15.7629 C   0  0  0  0  0  0  0  0  0  0  0  0
   18.6688  -18.9468  -15.4519 C   0  0  1  0  0  0  0  0  0  0  0  0
   20.6198  -20.1028  -14.4812 N   0  0  0  0  0  0  0  0  0  0  0  0
   21.8211  -20.8550  -14.6736 C   0  0  0  0  0  0  0  0  0  0  0  0
   19.6734  -20.7758  -13.5581 O   0  0  0  0  0  0  0  0  0  0  0  0
   18.6662  -20.0829  -12.9398 O   0  0  0  0  0  0  0  0  0  0  0  0
  2  1  1  1
  2  3  1  0
  3  4  1  0
  4  5  1  0
  5  6  1  0
  7  6  1  0
  8  9  2  0
  8  2  1  0
 10 11  1  0
 11 12  2  0
 13 14  1  0
 13 11  1  0
 14 15  1  0
 15 16  1  0
 17 16  1  1
 17 18  1  0
 18  8  1  0
 19 17  1  0
 20 19  2  0
 22 21  1  6
 22 24  1  0
 23 22  1  0
 24 26  1  0
 24 25  1  6
 25 19  1  0
 26 27  1  0
 28 26  2  0
M  END
$$$$
