KRV.pdb
     RDKit          3D

 28 27  0  0  1  0  0  0  0  0999 V2000
   29.2310  -22.4144  -17.1985 N   0  0  0  0  0  0  0  0  0  0  0  0
   27.9857  -21.7022  -17.2900 C   0  0  1  0  0  0  0  0  0  0  0  0
   26.8823  -22.5866  -17.7375 C   0  0  0  0  0  0  0  0  0  0  0  0
   27.1314  -24.0249  -17.4141 C   0  0  0  0  0  0  0  0  0  0  0  0
   26.8857  -25.0091  -18.4966 C   0  0  0  0  0  0  0  0  0  0  0  0
   27.0085  -26.4316  -17.9919 C   0  0  0  0  0  0  0  0  0  0  0  0
   26.7207  -27.3139  -19.1126 N   0  0  0  0  0  0  0  0  0  0  0  0
   27.6929  -21.0250  -15.9973 C   0  0  0  0  0  0  0  0  0  0  0  0
   28.1340  -21.5466  -14.9451 O   0  0  0  0  0  0  0  0  0  0  0  0
   24.5820  -16.9391  -17.2118 N   0  0  0  0  0  0  0  0  0  0  0  0
   25.4850  -15.9869  -17.7594 C   0  0  0  0  0  0  0  0  0  0  0  0
   25.4576  -15.6842  -19.0309 N   0  0  0  0  0  0  0  0  0  0  0  0
   26.4596  -15.3114  -16.9834 N   0  0  0  0  0  0  0  0  0  0  0  0
   26.5380  -15.4712  -15.5505 C   0  0  0  0  0  0  0  0  0  0  0  0
   27.2454  -16.7553  -15.1650 C   0  0  0  0  0  0  0  0  0  0  0  0
   26.1704  -17.7961  -14.9511 C   0  0  0  0  0  0  0  0  0  0  0  0
   26.6915  -19.1565  -14.6147 C   0  0  2  0  0  0  0  0  0  0  0  0
   26.9527  -19.8379  -15.8870 N   0  0  0  0  0  0  0  0  0  0  0  0
   25.8047  -19.9890  -13.8038 C   0  0  0  0  0  0  0  0  0  0  0  0
   24.7912  -20.5964  -14.2311 O   0  0  0  0  0  0  0  0  0  0  0  0
   26.0010  -14.9227  -19.4527 C   0  0  0  0  0  0  0  0  0  0  0  0
   25.7461  -19.6551   -9.5126 C   0  0  2  0  0  0  0  0  0  0  0  0
   25.6967  -21.0374  -10.1273 C   0  0  0  0  0  0  0  0  0  0  0  0
   24.7192  -21.8561   -9.3110 C   0  0  1  0  0  0  0  0  0  0  0  0
   25.1879  -20.8982  -11.5355 N   0  0  0  0  0  0  0  0  0  0  0  0
   26.0636  -20.1638  -12.3955 C   0  0  0  0  0  0  0  0  0  0  0  0
   23.7987  -20.3787  -11.5663 O   0  0  0  0  0  0  0  0  0  0  0  0
   22.7217  -21.2145  -11.4304 O   0  0  0  0  0  0  0  0  0  0  0  0
  2  1  1  1
  2  3  1  0
  3  4  1  0
  4  5  1  0
  5  6  1  0
  7  6  1  0
  8  9  2  0
  8  2  1  0
 10 11  1  0
 11 12  2  0
 13 14  1  0
 13 11  1  0
 14 15  1  0
 15 16  1  0
 17 16  1  6
 17 18  1  0
 18  8  1  0
 19 17  1  0
 20 19  2  0
 22 21  1  1
 22 24  1  0
 23 22  1  0
 24 26  1  0
 24 25  1  1
 25 19  1  0
 26 27  1  0
 28 26  2  0
M  END
$$$$
