TTA.pdb
     RDKit          3D

 20 19  0  0  1  0  0  0  0  0999 V2000
   26.4412  -15.6401  -15.0268 C   0  0  0  0  0  0  0  0  0  0  0  0
   25.9454  -16.7195  -15.9421 C   0  0  1  0  0  0  0  0  0  0  0  0
   25.4740  -17.8258  -15.2502 O   0  0  0  0  0  0  0  0  0  0  0  0
   24.9145  -16.1835  -16.9329 C   0  0  2  0  0  0  0  0  0  0  0  0
   24.4572  -17.2670  -17.7835 N   0  0  0  0  0  0  0  0  0  0  0  0
   25.4770  -15.1186  -17.7857 C   0  0  0  0  0  0  0  0  0  0  0  0
   26.4983  -15.3738  -18.4615 O   0  0  0  0  0  0  0  0  0  0  0  0
   24.7691  -11.0416  -20.3282 C   0  0  0  0  0  0  0  0  0  0  0  0
   24.3947  -12.2940  -19.5827 C   0  0  1  0  0  0  0  0  0  0  0  0
   24.0011  -13.2983  -20.4589 O   0  0  0  0  0  0  0  0  0  0  0  0
   25.4516  -12.7379  -18.6137 C   0  0  2  0  0  0  0  0  0  0  0  0
   24.9091  -13.8472  -17.8607 N   0  0  0  0  0  0  0  0  0  0  0  0
   25.9641  -11.6570  -17.7476 C   0  0  0  0  0  0  0  0  0  0  0  0
   25.2685  -11.1419  -16.8340 O   0  0  0  0  0  0  0  0  0  0  0  0
   29.2139   -9.8298  -17.2937 C   0  0  0  0  0  0  0  0  0  0  0  0
   27.6990   -9.9921  -17.1034 C   0  0  2  0  0  0  0  0  0  0  0  0
   27.2697  -11.1136  -17.8703 N   0  0  0  0  0  0  0  0  0  0  0  0
   27.0808   -8.7203  -17.4475 C   0  0  0  0  0  0  0  0  0  0  0  0
   26.8336   -7.6734  -16.5708 O   0  0  0  0  0  0  0  0  0  0  0  0
   26.7353   -8.5427  -18.6450 O   0  0  0  0  0  0  0  0  0  0  0  0
  2  1  1  1
  2  3  1  0
  2  4  1  0
  4  5  1  6
  6  4  1  0
  6 12  1  0
  7  6  2  0
  9  8  1  6
 10  9  1  0
 11  9  1  0
 11 12  1  1
 11 13  1  0
 13 14  2  0
 16 15  1  6
 16 18  1  0
 17 13  1  0
 17 16  1  0
 18 19  1  0
 20 18  2  0
M  END
$$$$
