TTA.pdb
     RDKit          3D

 20 19  0  0  1  0  0  0  0  0999 V2000
   14.8037  -11.6014   -9.5309 C   0  0  0  0  0  0  0  0  0  0  0  0
   15.1868  -10.4179  -10.3683 C   0  0  1  0  0  0  0  0  0  0  0  0
   14.5679  -10.4247  -11.6099 O   0  0  0  0  0  0  0  0  0  0  0  0
   14.9559   -9.1058   -9.6221 C   0  0  2  0  0  0  0  0  0  0  0  0
   13.5300   -8.8929   -9.4548 N   0  0  0  0  0  0  0  0  0  0  0  0
   15.5233   -7.9547  -10.3503 C   0  0  0  0  0  0  0  0  0  0  0  0
   14.8693   -7.4695  -11.3000 O   0  0  0  0  0  0  0  0  0  0  0  0
   15.5449   -4.7064   -9.8859 C   0  0  0  0  0  0  0  0  0  0  0  0
   17.0120   -5.0396   -9.8540 C   0  0  1  0  0  0  0  0  0  0  0  0
   17.4806   -5.1080   -8.5475 O   0  0  0  0  0  0  0  0  0  0  0  0
   17.3557   -6.2531  -10.6679 C   0  0  2  0  0  0  0  0  0  0  0  0
   16.7560   -7.3956  -10.0147 N   0  0  0  0  0  0  0  0  0  0  0  0
   18.8030   -6.4265  -10.9052 C   0  0  0  0  0  0  0  0  0  0  0  0
   19.6363   -6.4782   -9.9634 O   0  0  0  0  0  0  0  0  0  0  0  0
   21.0222   -7.1499  -13.8349 C   0  0  0  0  0  0  0  0  0  0  0  0
   20.7774   -6.6463  -12.4053 C   0  0  2  0  0  0  0  0  0  0  0  0
   19.3708   -6.5484  -12.2004 N   0  0  0  0  0  0  0  0  0  0  0  0
   21.5242   -5.4069  -12.2492 C   0  0  0  0  0  0  0  0  0  0  0  0
   22.8679   -5.3040  -11.9183 O   0  0  0  0  0  0  0  0  0  0  0  0
   20.9060   -4.3250  -12.4280 O   0  0  0  0  0  0  0  0  0  0  0  0
  2  1  1  1
  2  3  1  0
  2  4  1  0
  4  5  1  6
  6  4  1  0
  6 12  1  0
  7  6  2  0
  9  8  1  1
 10  9  1  0
 11  9  1  0
 11 12  1  1
 11 13  1  0
 13 14  2  0
 16 15  1  6
 16 18  1  0
 17 13  1  0
 17 16  1  0
 18 19  1  0
 20 18  2  0
M  END
$$$$
