TTA.pdb
     RDKit          3D

 20 19  0  0  1  0  0  0  0  0999 V2000
   16.1926   -7.7419  -16.4416 C   0  0  0  0  0  0  0  0  0  0  0  0
   15.6242   -8.8187  -15.5662 C   0  0  1  0  0  0  0  0  0  0  0  0
   14.3013   -9.1056  -15.8704 O   0  0  0  0  0  0  0  0  0  0  0  0
   16.4981  -10.0707  -15.5799 C   0  0  2  0  0  0  0  0  0  0  0  0
   15.9078  -11.0779  -14.7174 N   0  0  0  0  0  0  0  0  0  0  0  0
   17.8672   -9.7879  -15.1076 C   0  0  0  0  0  0  0  0  0  0  0  0
   18.1138   -9.9111  -13.8874 O   0  0  0  0  0  0  0  0  0  0  0  0
   22.6056   -9.4159  -16.3764 C   0  0  0  0  0  0  0  0  0  0  0  0
   21.1494   -9.7044  -16.6227 C   0  0  1  0  0  0  0  0  0  0  0  0
   20.9354  -11.0635  -16.8186 O   0  0  0  0  0  0  0  0  0  0  0  0
   20.2490   -9.1103  -15.5788 C   0  0  2  0  0  0  0  0  0  0  0  0
   18.8861   -9.3911  -15.9731 N   0  0  0  0  0  0  0  0  0  0  0  0
   20.4860   -7.6743  -15.3285 C   0  0  0  0  0  0  0  0  0  0  0  0
   20.2072   -6.7896  -16.1790 O   0  0  0  0  0  0  0  0  0  0  0  0
   21.4582   -5.5380  -12.4167 C   0  0  0  0  0  0  0  0  0  0  0  0
   21.3035   -5.7890  -13.9235 C   0  0  2  0  0  0  0  0  0  0  0  0
   21.0417   -7.1754  -14.1213 N   0  0  0  0  0  0  0  0  0  0  0  0
   22.5005   -5.2754  -14.5729 C   0  0  0  0  0  0  0  0  0  0  0  0
   23.2231   -5.9166  -15.5692 O   0  0  0  0  0  0  0  0  0  0  0  0
   22.9277   -4.1495  -14.2061 O   0  0  0  0  0  0  0  0  0  0  0  0
  2  1  1  6
  2  3  1  0
  2  4  1  0
  4  5  1  1
  6  4  1  0
  6 12  1  0
  7  6  2  0
  9  8  1  1
 10  9  1  0
 11  9  1  0
 11 12  1  6
 11 13  1  0
 13 14  2  0
 16 15  1  1
 16 18  1  0
 17 13  1  0
 17 16  1  0
 18 19  1  0
 20 18  2  0
M  END
$$$$
