TTA.pdb
     RDKit          3D

 20 19  0  0  1  0  0  0  0  0999 V2000
   25.9937  -17.9193  -20.4312 C   0  0  0  0  0  0  0  0  0  0  0  0
   24.8308  -17.1915  -19.8256 C   0  0  1  0  0  0  0  0  0  0  0  0
   24.2609  -17.8886  -18.7700 O   0  0  0  0  0  0  0  0  0  0  0  0
   25.2069  -15.7650  -19.4314 C   0  0  2  0  0  0  0  0  0  0  0  0
   24.3107  -15.3031  -18.3874 N   0  0  0  0  0  0  0  0  0  0  0  0
   25.1157  -14.8386  -20.5763 C   0  0  0  0  0  0  0  0  0  0  0  0
   25.8005  -15.0811  -21.5948 O   0  0  0  0  0  0  0  0  0  0  0  0
   22.4098  -13.9917  -22.8576 C   0  0  0  0  0  0  0  0  0  0  0  0
   22.7732  -12.7420  -22.1023 C   0  0  1  0  0  0  0  0  0  0  0  0
   21.8564  -12.4857  -21.0898 O   0  0  0  0  0  0  0  0  0  0  0  0
   24.1960  -12.7385  -21.6240 C   0  0  2  0  0  0  0  0  0  0  0  0
   24.2960  -13.7106  -20.5578 N   0  0  0  0  0  0  0  0  0  0  0  0
   24.6930  -11.4052  -21.2285 C   0  0  0  0  0  0  0  0  0  0  0  0
   24.5417  -10.9502  -20.0649 O   0  0  0  0  0  0  0  0  0  0  0  0
   26.9331   -8.8102  -22.7213 C   0  0  0  0  0  0  0  0  0  0  0  0
   25.8865   -9.2714  -21.6970 C   0  0  2  0  0  0  0  0  0  0  0  0
   25.3760  -10.5336  -22.1167 N   0  0  0  0  0  0  0  0  0  0  0  0
   24.9042   -8.2050  -21.5718 C   0  0  0  0  0  0  0  0  0  0  0  0
   25.0623   -7.0361  -20.8406 O   0  0  0  0  0  0  0  0  0  0  0  0
   23.8090   -8.3444  -22.1768 O   0  0  0  0  0  0  0  0  0  0  0  0
  2  1  1  1
  2  3  1  0
  2  4  1  0
  4  5  1  1
  6  4  1  0
  6 12  1  0
  7  6  2  0
  9  8  1  1
 10  9  1  0
 11  9  1  0
 11 12  1  1
 11 13  1  0
 13 14  2  0
 16 15  1  6
 16 18  1  0
 17 13  1  0
 17 16  1  0
 18 19  1  0
 20 18  2  0
M  END
$$$$
