TTA.pdb
     RDKit          3D

 20 19  0  0  1  0  0  0  0  0999 V2000
   17.9101   -8.5783  -18.4479 C   0  0  0  0  0  0  0  0  0  0  0  0
   17.5413  -10.0043  -18.1664 C   0  0  1  0  0  0  0  0  0  0  0  0
   17.1600  -10.6890  -19.3111 O   0  0  0  0  0  0  0  0  0  0  0  0
   18.6509  -10.7304  -17.4092 C   0  0  2  0  0  0  0  0  0  0  0  0
   18.2153  -12.0789  -17.0953 N   0  0  0  0  0  0  0  0  0  0  0  0
   18.9972  -10.0410  -16.1514 C   0  0  0  0  0  0  0  0  0  0  0  0
   18.1559  -10.0325  -15.2255 O   0  0  0  0  0  0  0  0  0  0  0  0
   22.7638   -9.9447  -14.9090 C   0  0  0  0  0  0  0  0  0  0  0  0
   21.6141   -9.5087  -14.0416 C   0  0  1  0  0  0  0  0  0  0  0  0
   22.0689   -8.9114  -12.8721 O   0  0  0  0  0  0  0  0  0  0  0  0
   20.6080   -8.6725  -14.7779 C   0  0  2  0  0  0  0  0  0  0  0  0
   20.2237   -9.4042  -15.9648 N   0  0  0  0  0  0  0  0  0  0  0  0
   21.0704   -7.3023  -15.0773 C   0  0  0  0  0  0  0  0  0  0  0  0
   21.8682   -7.0535  -16.0183 O   0  0  0  0  0  0  0  0  0  0  0  0
   20.0084   -3.8524  -14.3069 C   0  0  0  0  0  0  0  0  0  0  0  0
   21.1243   -4.8513  -14.6451 C   0  0  2  0  0  0  0  0  0  0  0  0
   20.6589   -6.1625  -14.3380 N   0  0  0  0  0  0  0  0  0  0  0  0
   22.3186   -4.4240  -13.9315 C   0  0  0  0  0  0  0  0  0  0  0  0
   23.1916   -3.4234  -14.3346 O   0  0  0  0  0  0  0  0  0  0  0  0
   22.5944   -5.0073  -12.8506 O   0  0  0  0  0  0  0  0  0  0  0  0
  2  1  1  6
  2  3  1  0
  2  4  1  0
  4  5  1  1
  6  4  1  0
  6 12  1  0
  7  6  2  0
  9  8  1  6
 10  9  1  0
 11  9  1  0
 11 12  1  6
 11 13  1  0
 13 14  2  0
 16 15  1  1
 16 18  1  0
 17 13  1  0
 17 16  1  0
 18 19  1  0
 20 18  2  0
M  END
$$$$
