TTA.pdb
     RDKit          3D

 20 19  0  0  1  0  0  0  0  0999 V2000
   20.5838  -16.5639  -13.9669 C   0  0  0  0  0  0  0  0  0  0  0  0
   20.6834  -17.9438  -14.5455 C   0  0  1  0  0  0  0  0  0  0  0  0
   20.7347  -18.9262  -13.5673 O   0  0  0  0  0  0  0  0  0  0  0  0
   19.5738  -18.2063  -15.5612 C   0  0  2  0  0  0  0  0  0  0  0  0
   19.7037  -19.5572  -16.0761 N   0  0  0  0  0  0  0  0  0  0  0  0
   19.6330  -17.2616  -16.6932 C   0  0  0  0  0  0  0  0  0  0  0  0
   20.3980  -17.5229  -17.6479 O   0  0  0  0  0  0  0  0  0  0  0  0
   17.3393  -13.7419  -19.2024 C   0  0  0  0  0  0  0  0  0  0  0  0
   17.4679  -14.8391  -18.1806 C   0  0  1  0  0  0  0  0  0  0  0  0
   16.7744  -15.9759  -18.5781 O   0  0  0  0  0  0  0  0  0  0  0  0
   18.8920  -15.1208  -17.7985 C   0  0  2  0  0  0  0  0  0  0  0  0
   18.8681  -16.0962  -16.7309 N   0  0  0  0  0  0  0  0  0  0  0  0
   19.6702  -13.9145  -17.4517 C   0  0  0  0  0  0  0  0  0  0  0  0
   19.3952  -13.2028  -16.4509 O   0  0  0  0  0  0  0  0  0  0  0  0
   22.5859  -12.0522  -18.9316 C   0  0  0  0  0  0  0  0  0  0  0  0
   21.4462  -12.2339  -17.9190 C   0  0  2  0  0  0  0  0  0  0  0  0
   20.7819  -13.4606  -18.2087 N   0  0  0  0  0  0  0  0  0  0  0  0
   20.6173  -11.0392  -17.9812 C   0  0  0  0  0  0  0  0  0  0  0  0
   19.5874  -10.8108  -18.8828 O   0  0  0  0  0  0  0  0  0  0  0  0
   20.8462  -10.1243  -17.1473 O   0  0  0  0  0  0  0  0  0  0  0  0
  2  1  1  1
  2  3  1  0
  2  4  1  0
  4  5  1  6
  6  4  1  0
  6 12  1  0
  7  6  2  0
  9  8  1  6
 10  9  1  0
 11  9  1  0
 11 12  1  1
 11 13  1  0
 13 14  2  0
 16 15  1  6
 16 18  1  0
 17 13  1  0
 17 16  1  0
 18 19  1  0
 20 18  2  0
M  END
$$$$
