TTA.pdb
     RDKit          3D

 20 19  0  0  1  0  0  0  0  0999 V2000
   27.7092  -13.7843  -15.1563 C   0  0  0  0  0  0  0  0  0  0  0  0
   26.5208  -13.1434  -15.8086 C   0  0  1  0  0  0  0  0  0  0  0  0
   26.7939  -12.7088  -17.0976 O   0  0  0  0  0  0  0  0  0  0  0  0
   25.2965  -14.0547  -15.7604 C   0  0  2  0  0  0  0  0  0  0  0  0
   25.5541  -15.2472  -16.5466 N   0  0  0  0  0  0  0  0  0  0  0  0
   24.0949  -13.3862  -16.2959 C   0  0  0  0  0  0  0  0  0  0  0  0
   23.7806  -13.5921  -17.4892 O   0  0  0  0  0  0  0  0  0  0  0  0
   20.6732  -13.8622  -15.8967 C   0  0  0  0  0  0  0  0  0  0  0  0
   20.9359  -12.4791  -15.3651 C   0  0  1  0  0  0  0  0  0  0  0  0
   20.9740  -12.4767  -13.9759 O   0  0  0  0  0  0  0  0  0  0  0  0
   22.1365  -11.8291  -15.9890 C   0  0  2  0  0  0  0  0  0  0  0  0
   23.3055  -12.5392  -15.5188 N   0  0  0  0  0  0  0  0  0  0  0  0
   22.2207  -10.3735  -15.7545 C   0  0  0  0  0  0  0  0  0  0  0  0
   22.8414   -9.8861  -14.7741 O   0  0  0  0  0  0  0  0  0  0  0  0
   21.0467   -7.2682  -17.5234 C   0  0  0  0  0  0  0  0  0  0  0  0
   21.7230   -8.0114  -16.3626 C   0  0  2  0  0  0  0  0  0  0  0  0
   21.6161   -9.4113  -16.6051 N   0  0  0  0  0  0  0  0  0  0  0  0
   21.1111   -7.5374  -15.1301 C   0  0  0  0  0  0  0  0  0  0  0  0
   21.4624   -6.3866  -14.4387 O   0  0  0  0  0  0  0  0  0  0  0  0
   20.1785   -8.2250  -14.6379 O   0  0  0  0  0  0  0  0  0  0  0  0
  2  1  1  6
  2  3  1  0
  2  4  1  0
  4  5  1  6
  6  4  1  0
  6 12  1  0
  7  6  2  0
  9  8  1  6
 10  9  1  0
 11  9  1  0
 11 12  1  1
 11 13  1  0
 13 14  2  0
 16 15  1  6
 16 18  1  0
 17 13  1  0
 17 16  1  0
 18 19  1  0
 20 18  2  0
M  END
$$$$
