TTA.pdb
     RDKit          3D

 20 19  0  0  1  0  0  0  0  0999 V2000
   17.8146  -10.1150  -17.7571 C   0  0  0  0  0  0  0  0  0  0  0  0
   17.9817  -11.5427  -17.3298 C   0  0  1  0  0  0  0  0  0  0  0  0
   17.3617  -12.4313  -18.1963 O   0  0  0  0  0  0  0  0  0  0  0  0
   19.4515  -11.8924  -17.1081 C   0  0  2  0  0  0  0  0  0  0  0  0
   19.5628  -13.2941  -16.7482 N   0  0  0  0  0  0  0  0  0  0  0  0
   20.0515  -11.0794  -16.0327 C   0  0  0  0  0  0  0  0  0  0  0  0
   19.6472  -11.2496  -14.8611 O   0  0  0  0  0  0  0  0  0  0  0  0
   23.2333  -11.1061  -14.5285 C   0  0  0  0  0  0  0  0  0  0  0  0
   23.0954   -9.7399  -15.1440 C   0  0  1  0  0  0  0  0  0  0  0  0
   23.8065   -9.6542  -16.3349 O   0  0  0  0  0  0  0  0  0  0  0  0
   21.6670   -9.2980  -15.2772 C   0  0  2  0  0  0  0  0  0  0  0  0
   21.0474  -10.1353  -16.2806 N   0  0  0  0  0  0  0  0  0  0  0  0
   21.5082   -7.8572  -15.5593 C   0  0  0  0  0  0  0  0  0  0  0  0
   21.6728   -7.3763  -16.7107 O   0  0  0  0  0  0  0  0  0  0  0  0
   19.7753   -4.9727  -14.2270 C   0  0  0  0  0  0  0  0  0  0  0  0
   21.0693   -5.5103  -14.8545 C   0  0  2  0  0  0  0  0  0  0  0  0
   21.1603   -6.9030  -14.5676 N   0  0  0  0  0  0  0  0  0  0  0  0
   22.1646   -4.6919  -14.3559 C   0  0  0  0  0  0  0  0  0  0  0  0
   22.5474   -3.4550  -14.8553 O   0  0  0  0  0  0  0  0  0  0  0  0
   22.8317   -5.1358  -13.3849 O   0  0  0  0  0  0  0  0  0  0  0  0
  2  1  1  6
  2  3  1  0
  2  4  1  0
  4  5  1  1
  6  4  1  0
  6 12  1  0
  7  6  2  0
  9  8  1  6
 10  9  1  0
 11  9  1  0
 11 12  1  6
 11 13  1  0
 13 14  2  0
 16 15  1  1
 16 18  1  0
 17 13  1  0
 17 16  1  0
 18 19  1  0
 20 18  2  0
M  END
$$$$
