TTA.pdb
     RDKit          3D

 20 19  0  0  1  0  0  0  0  0999 V2000
   16.3260   -8.2866  -15.2122 C   0  0  0  0  0  0  0  0  0  0  0  0
   16.6974   -9.7353  -15.1023 C   0  0  1  0  0  0  0  0  0  0  0  0
   15.5871  -10.5608  -15.0013 O   0  0  0  0  0  0  0  0  0  0  0  0
   17.6260  -10.1627  -16.2366 C   0  0  2  0  0  0  0  0  0  0  0  0
   17.9171  -11.5791  -16.1111 N   0  0  0  0  0  0  0  0  0  0  0  0
   18.8981   -9.4152  -16.2140 C   0  0  0  0  0  0  0  0  0  0  0  0
   19.8544   -9.8864  -15.5594 O   0  0  0  0  0  0  0  0  0  0  0  0
   21.5896   -5.8292  -18.2868 C   0  0  0  0  0  0  0  0  0  0  0  0
   20.4751   -6.8385  -18.2269 C   0  0  1  0  0  0  0  0  0  0  0  0
   20.6459   -7.8290  -19.1866 O   0  0  0  0  0  0  0  0  0  0  0  0
   20.2535   -7.3864  -16.8471 C   0  0  2  0  0  0  0  0  0  0  0  0
   19.0653   -8.2097  -16.8947 N   0  0  0  0  0  0  0  0  0  0  0  0
   20.1894   -6.3530  -15.7941 C   0  0  0  0  0  0  0  0  0  0  0  0
   19.2340   -5.5380  -15.7103 O   0  0  0  0  0  0  0  0  0  0  0  0
   22.1333   -5.4960  -12.7049 C   0  0  0  0  0  0  0  0  0  0  0  0
   21.1120   -5.1739  -13.8052 C   0  0  2  0  0  0  0  0  0  0  0  0
   21.1882   -6.1929  -14.7981 N   0  0  0  0  0  0  0  0  0  0  0  0
   21.3867   -3.8218  -14.2683 C   0  0  0  0  0  0  0  0  0  0  0  0
   20.9687   -2.6510  -13.6516 O   0  0  0  0  0  0  0  0  0  0  0  0
   22.0632   -3.6903  -15.3218 O   0  0  0  0  0  0  0  0  0  0  0  0
  2  1  1  6
  2  3  1  0
  2  4  1  0
  4  5  1  1
  6  4  1  0
  6 12  1  0
  7  6  2  0
  9  8  1  1
 10  9  1  0
 11  9  1  0
 11 12  1  6
 11 13  1  0
 13 14  2  0
 16 15  1  1
 16 18  1  0
 17 13  1  0
 17 16  1  0
 18 19  1  0
 20 18  2  0
M  END
$$$$
