TTA.pdb
     RDKit          3D

 20 19  0  0  1  0  0  0  0  0999 V2000
   15.7395  -10.4836  -15.3856 C   0  0  0  0  0  0  0  0  0  0  0  0
   16.9674   -9.6286  -15.2859 C   0  0  1  0  0  0  0  0  0  0  0  0
   17.4029   -9.4772  -13.9774 O   0  0  0  0  0  0  0  0  0  0  0  0
   18.0784  -10.1355  -16.2028 C   0  0  2  0  0  0  0  0  0  0  0  0
   18.5029  -11.4512  -15.7609 N   0  0  0  0  0  0  0  0  0  0  0  0
   19.2473   -9.2349  -16.1961 C   0  0  0  0  0  0  0  0  0  0  0  0
   20.2670   -9.5870  -15.5626 O   0  0  0  0  0  0  0  0  0  0  0  0
   21.3911   -5.3013  -18.2975 C   0  0  0  0  0  0  0  0  0  0  0  0
   20.3967   -6.4278  -18.2155 C   0  0  1  0  0  0  0  0  0  0  0  0
   20.5995   -7.3487  -19.2363 O   0  0  0  0  0  0  0  0  0  0  0  0
   20.3367   -7.0594  -16.8551 C   0  0  2  0  0  0  0  0  0  0  0  0
   19.2500   -8.0136  -16.8691 N   0  0  0  0  0  0  0  0  0  0  0  0
   20.2295   -6.0890  -15.7470 C   0  0  0  0  0  0  0  0  0  0  0  0
   19.1950   -5.3977  -15.5577 O   0  0  0  0  0  0  0  0  0  0  0  0
   22.1504   -5.2146  -12.6726 C   0  0  0  0  0  0  0  0  0  0  0  0
   21.1751   -4.8553  -13.8026 C   0  0  2  0  0  0  0  0  0  0  0  0
   21.2718   -5.8563  -14.8118 N   0  0  0  0  0  0  0  0  0  0  0  0
   21.4873   -3.4992  -14.2290 C   0  0  0  0  0  0  0  0  0  0  0  0
   21.1344   -2.3356  -13.5604 O   0  0  0  0  0  0  0  0  0  0  0  0
   22.1353   -3.3570  -15.2989 O   0  0  0  0  0  0  0  0  0  0  0  0
  2  1  1  1
  2  3  1  0
  2  4  1  0
  4  5  1  1
  6  4  1  0
  6 12  1  0
  7  6  2  0
  9  8  1  1
 10  9  1  0
 11  9  1  0
 11 12  1  6
 11 13  1  0
 13 14  2  0
 16 15  1  1
 16 18  1  0
 17 13  1  0
 17 16  1  0
 18 19  1  0
 20 18  2  0
M  END
$$$$
