TTA.pdb
     RDKit          3D

 20 19  0  0  1  0  0  0  0  0999 V2000
   16.5693   -9.1731  -11.1237 C   0  0  0  0  0  0  0  0  0  0  0  0
   16.1165  -10.2912  -12.0145 C   0  0  1  0  0  0  0  0  0  0  0  0
   15.2100  -11.1341  -11.3879 O   0  0  0  0  0  0  0  0  0  0  0  0
   15.5825   -9.7657  -13.3450 C   0  0  2  0  0  0  0  0  0  0  0  0
   15.0705  -10.8748  -14.1289 N   0  0  0  0  0  0  0  0  0  0  0  0
   16.6321   -9.0812  -14.1242 C   0  0  0  0  0  0  0  0  0  0  0  0
   17.3349   -9.7620  -14.9038 O   0  0  0  0  0  0  0  0  0  0  0  0
   18.1224   -4.8267  -16.0392 C   0  0  0  0  0  0  0  0  0  0  0  0
   17.1704   -5.7678  -15.3520 C   0  0  1  0  0  0  0  0  0  0  0  0
   16.1018   -6.0903  -16.1799 O   0  0  0  0  0  0  0  0  0  0  0  0
   17.8526   -6.9733  -14.7734 C   0  0  2  0  0  0  0  0  0  0  0  0
   16.8624   -7.7098  -14.0192 N   0  0  0  0  0  0  0  0  0  0  0  0
   19.0565   -6.6578  -13.9785 C   0  0  0  0  0  0  0  0  0  0  0  0
   19.0020   -5.9880  -12.9144 O   0  0  0  0  0  0  0  0  0  0  0  0
   22.6932   -7.5880  -14.0809 C   0  0  0  0  0  0  0  0  0  0  0  0
   21.5061   -6.7719  -13.5499 C   0  0  2  0  0  0  0  0  0  0  0  0
   20.3625   -7.0786  -14.3425 N   0  0  0  0  0  0  0  0  0  0  0  0
   21.9105   -5.3739  -13.5425 C   0  0  0  0  0  0  0  0  0  0  0  0
   22.6159   -4.7374  -12.5310 O   0  0  0  0  0  0  0  0  0  0  0  0
   21.5979   -4.6692  -14.5377 O   0  0  0  0  0  0  0  0  0  0  0  0
  2  1  1  1
  2  3  1  0
  2  4  1  0
  4  5  1  6
  6  4  1  0
  6 12  1  0
  7  6  2  0
  9  8  1  6
 10  9  1  0
 11  9  1  0
 11 12  1  1
 11 13  1  0
 13 14  2  0
 16 15  1  6
 16 18  1  0
 17 13  1  0
 17 16  1  0
 18 19  1  0
 20 18  2  0
M  END
$$$$
