TTA.pdb
     RDKit          3D

 20 19  0  0  1  0  0  0  0  0999 V2000
   16.2763   -8.0272  -15.2355 C   0  0  0  0  0  0  0  0  0  0  0  0
   16.3559   -9.5016  -14.9736 C   0  0  1  0  0  0  0  0  0  0  0  0
   15.1085  -10.1088  -14.9786 O   0  0  0  0  0  0  0  0  0  0  0  0
   17.3293  -10.1881  -15.9291 C   0  0  2  0  0  0  0  0  0  0  0  0
   17.3704  -11.6086  -15.6341 N   0  0  0  0  0  0  0  0  0  0  0  0
   18.6941   -9.6405  -15.8070 C   0  0  0  0  0  0  0  0  0  0  0  0
   19.4585  -10.1321  -14.9474 O   0  0  0  0  0  0  0  0  0  0  0  0
   22.2789   -6.9948  -17.8986 C   0  0  0  0  0  0  0  0  0  0  0  0
   20.9786   -7.7519  -17.8764 C   0  0  1  0  0  0  0  0  0  0  0  0
   21.0740   -8.9304  -18.6067 O   0  0  0  0  0  0  0  0  0  0  0  0
   20.4444   -7.9597  -16.4890 C   0  0  2  0  0  0  0  0  0  0  0  0
   19.1540   -8.6006  -16.6143 N   0  0  0  0  0  0  0  0  0  0  0  0
   20.3932   -6.7286  -15.6749 C   0  0  0  0  0  0  0  0  0  0  0  0
   19.5836   -5.7962  -15.9178 O   0  0  0  0  0  0  0  0  0  0  0  0
   21.8996   -5.5221  -12.4685 C   0  0  0  0  0  0  0  0  0  0  0  0
   21.1924   -5.2855  -13.8106 C   0  0  2  0  0  0  0  0  0  0  0  0
   21.2428   -6.4950  -14.5620 N   0  0  0  0  0  0  0  0  0  0  0  0
   21.8215   -4.1305  -14.4337 C   0  0  0  0  0  0  0  0  0  0  0  0
   21.5550   -2.8013  -14.1369 O   0  0  0  0  0  0  0  0  0  0  0  0
   22.6865   -4.3442  -15.3229 O   0  0  0  0  0  0  0  0  0  0  0  0
  2  1  1  6
  2  3  1  0
  2  4  1  0
  4  5  1  1
  6  4  1  0
  6 12  1  0
  7  6  2  0
  9  8  1  1
 10  9  1  0
 11  9  1  0
 11 12  1  6
 11 13  1  0
 13 14  2  0
 16 15  1  1
 16 18  1  0
 17 13  1  0
 17 16  1  0
 18 19  1  0
 20 18  2  0
M  END
$$$$
