QTA.pdb
     RDKit          3D

 22 21  0  0  1  0  0  0  0  0999 V2000
   16.4269  -12.6819  -13.4720 N   0  0  0  0  0  0  0  0  0  0  0  0
   15.1071  -12.4328  -13.9765 C   0  0  0  0  0  0  0  0  0  0  0  0
   14.2279  -13.2671  -13.6997 O   0  0  0  0  0  0  0  0  0  0  0  0
   14.7815  -11.2557  -14.7828 C   0  0  0  0  0  0  0  0  0  0  0  0
   15.9131  -10.3428  -15.0804 C   0  0  0  0  0  0  0  0  0  0  0  0
   15.4815   -9.0868  -15.7778 C   0  0  2  0  0  0  0  0  0  0  0  0
   14.7317   -9.4050  -17.0031 N   0  0  0  0  0  0  0  0  0  0  0  0
   16.6769   -8.2869  -16.1649 C   0  0  0  0  0  0  0  0  0  0  0  0
   17.2632   -8.4423  -17.2663 O   0  0  0  0  0  0  0  0  0  0  0  0
   18.6795   -3.9604  -15.8756 C   0  0  0  0  0  0  0  0  0  0  0  0
   17.6899   -5.0870  -15.7962 C   0  0  1  0  0  0  0  0  0  0  0  0
   17.0823   -5.1326  -17.0790 O   0  0  0  0  0  0  0  0  0  0  0  0
   18.3239   -6.4534  -15.6329 C   0  0  2  0  0  0  0  0  0  0  0  0
   17.1775   -7.3250  -15.2835 N   0  0  0  0  0  0  0  0  0  0  0  0
   19.2458   -6.5552  -14.4910 C   0  0  0  0  0  0  0  0  0  0  0  0
   18.9038   -6.2180  -13.3043 O   0  0  0  0  0  0  0  0  0  0  0  0
   22.7797   -7.9036  -14.1679 C   0  0  0  0  0  0  0  0  0  0  0  0
   21.5969   -7.1060  -13.6955 C   0  0  2  0  0  0  0  0  0  0  0  0
   20.5594   -7.0405  -14.6867 N   0  0  0  0  0  0  0  0  0  0  0  0
   21.9772   -5.7613  -13.1695 C   0  0  0  0  0  0  0  0  0  0  0  0
   21.7656   -4.6498  -13.9437 O   0  0  0  0  0  0  0  0  0  0  0  0
   22.4781   -5.6591  -12.0385 O   0  0  0  0  0  0  0  0  0  0  0  0
  1  2  1  0
  2  4  1  0
  3  2  2  0
  4  5  1  0
  5  6  1  0
  6  8  1  0
  6  7  1  6
  8  9  2  0
 11 10  1  6
 11 12  1  0
 11 13  1  0
 13 15  1  0
 13 14  1  1
 14  8  1  0
 15 19  1  0
 15 16  2  0
 18 17  1  6
 18 20  1  0
 19 18  1  0
 20 22  2  0
 20 21  1  0
M  END
$$$$
