QTA.pdb
     RDKit          3D

 22 21  0  0  1  0  0  0  0  0999 V2000
   18.7828   -8.7769  -20.0517 N   0  0  0  0  0  0  0  0  0  0  0  0
   17.9187   -9.8957  -19.8067 C   0  0  0  0  0  0  0  0  0  0  0  0
   17.6788  -10.6474  -20.7675 O   0  0  0  0  0  0  0  0  0  0  0  0
   17.3325  -10.1651  -18.4931 C   0  0  0  0  0  0  0  0  0  0  0  0
   17.6303   -9.1676  -17.4354 C   0  0  0  0  0  0  0  0  0  0  0  0
   18.7423   -9.5971  -16.5248 C   0  0  2  0  0  0  0  0  0  0  0  0
   18.3982  -10.8546  -15.8427 N   0  0  0  0  0  0  0  0  0  0  0  0
   18.9734   -8.5575  -15.4835 C   0  0  0  0  0  0  0  0  0  0  0  0
   18.3277   -8.5295  -14.4050 O   0  0  0  0  0  0  0  0  0  0  0  0
   22.2451   -5.4993  -13.6065 C   0  0  0  0  0  0  0  0  0  0  0  0
   21.6856   -6.6105  -14.4474 C   0  0  1  0  0  0  0  0  0  0  0  0
   21.8073   -7.7752  -13.6442 O   0  0  0  0  0  0  0  0  0  0  0  0
   20.1988   -6.4926  -14.7141 C   0  0  2  0  0  0  0  0  0  0  0  0
   19.9392   -7.5704  -15.6974 N   0  0  0  0  0  0  0  0  0  0  0  0
   19.8075   -5.2488  -15.3954 C   0  0  0  0  0  0  0  0  0  0  0  0
   20.3085   -4.8990  -16.5203 O   0  0  0  0  0  0  0  0  0  0  0  0
   17.1214   -2.6785  -14.6565 C   0  0  0  0  0  0  0  0  0  0  0  0
   18.3679   -3.1538  -15.3485 C   0  0  2  0  0  0  0  0  0  0  0  0
   18.8460   -4.3952  -14.8069 N   0  0  0  0  0  0  0  0  0  0  0  0
   19.4300   -2.1063  -15.4138 C   0  0  0  0  0  0  0  0  0  0  0  0
   19.3196   -1.0901  -16.3273 O   0  0  0  0  0  0  0  0  0  0  0  0
   20.4005   -2.1612  -14.6421 O   0  0  0  0  0  0  0  0  0  0  0  0
  1  2  1  0
  2  4  1  0
  3  2  2  0
  4  5  1  0
  5  6  1  0
  6  8  1  0
  6  7  1  1
  8  9  2  0
 11 10  1  1
 11 12  1  0
 11 13  1  0
 13 15  1  0
 13 14  1  6
 14  8  1  0
 15 19  1  0
 15 16  2  0
 18 17  1  1
 18 20  1  0
 19 18  1  0
 20 22  2  0
 20 21  1  0
M  END
$$$$
