QTA.pdb
     RDKit          3D

 22 21  0  0  1  0  0  0  0  0999 V2000
   16.3693  -11.7586  -14.1500 N   0  0  0  0  0  0  0  0  0  0  0  0
   17.0396  -11.9745  -15.4000 C   0  0  0  0  0  0  0  0  0  0  0  0
   16.8761  -13.0789  -15.9472 O   0  0  0  0  0  0  0  0  0  0  0  0
   17.8838  -10.9567  -16.0270 C   0  0  0  0  0  0  0  0  0  0  0  0
   18.0006   -9.6720  -15.2931 C   0  0  0  0  0  0  0  0  0  0  0  0
   18.8774   -8.6772  -15.9943 C   0  0  2  0  0  0  0  0  0  0  0  0
   20.2583   -9.1767  -16.0863 N   0  0  0  0  0  0  0  0  0  0  0  0
   18.9009   -7.3979  -15.2319 C   0  0  0  0  0  0  0  0  0  0  0  0
   17.9244   -7.0064  -14.5433 O   0  0  0  0  0  0  0  0  0  0  0  0
   22.0596   -6.2437  -13.1997 C   0  0  0  0  0  0  0  0  0  0  0  0
   21.5971   -5.2053  -14.1809 C   0  0  1  0  0  0  0  0  0  0  0  0
   22.2760   -5.5145  -15.3893 O   0  0  0  0  0  0  0  0  0  0  0  0
   20.1285   -5.3073  -14.5393 C   0  0  2  0  0  0  0  0  0  0  0  0
   20.0418   -6.5920  -15.2727 N   0  0  0  0  0  0  0  0  0  0  0  0
   19.6714   -4.2874  -15.4960 C   0  0  0  0  0  0  0  0  0  0  0  0
   19.9076   -4.3731  -16.7512 O   0  0  0  0  0  0  0  0  0  0  0  0
   17.1496   -2.2753  -16.4266 C   0  0  0  0  0  0  0  0  0  0  0  0
   18.5110   -2.0503  -15.8311 C   0  0  2  0  0  0  0  0  0  0  0  0
   18.9435   -3.1657  -15.0362 N   0  0  0  0  0  0  0  0  0  0  0  0
   18.6187   -0.7495  -15.1060 C   0  0  0  0  0  0  0  0  0  0  0  0
   18.6212    0.4217  -15.8186 O   0  0  0  0  0  0  0  0  0  0  0  0
   18.7026   -0.7373  -13.8677 O   0  0  0  0  0  0  0  0  0  0  0  0
  1  2  1  0
  2  4  1  0
  3  2  2  0
  4  5  1  0
  5  6  1  0
  6  8  1  0
  6  7  1  1
  8  9  2  0
 11 10  1  1
 11 12  1  0
 11 13  1  0
 13 15  1  0
 13 14  1  6
 14  8  1  0
 15 19  1  0
 15 16  2  0
 18 17  1  1
 18 20  1  0
 19 18  1  0
 20 22  2  0
 20 21  1  0
M  END
$$$$
