QTA.pdb
     RDKit          3D

 22 21  0  0  1  0  0  0  0  0999 V2000
   14.6366  -12.0413  -14.7191 N   0  0  0  0  0  0  0  0  0  0  0  0
   15.6665  -12.3998  -15.6514 C   0  0  0  0  0  0  0  0  0  0  0  0
   15.5791  -11.9317  -16.7998 O   0  0  0  0  0  0  0  0  0  0  0  0
   16.7833  -13.2749  -15.2930 C   0  0  0  0  0  0  0  0  0  0  0  0
   18.0963  -12.6068  -15.1130 C   0  0  0  0  0  0  0  0  0  0  0  0
   18.8684  -12.4834  -16.3931 C   0  0  2  0  0  0  0  0  0  0  0  0
   19.3494  -13.8008  -16.8381 N   0  0  0  0  0  0  0  0  0  0  0  0
   20.0546  -11.6068  -16.1858 C   0  0  0  0  0  0  0  0  0  0  0  0
   21.1198  -12.0270  -15.6665 O   0  0  0  0  0  0  0  0  0  0  0  0
   20.4690   -8.3372  -18.6848 C   0  0  0  0  0  0  0  0  0  0  0  0
   21.5238   -9.0945  -17.9307 C   0  0  1  0  0  0  0  0  0  0  0  0
   22.6324   -8.2096  -17.8625 O   0  0  0  0  0  0  0  0  0  0  0  0
   21.1707   -9.3654  -16.4823 C   0  0  2  0  0  0  0  0  0  0  0  0
   19.9981  -10.2664  -16.5770 N   0  0  0  0  0  0  0  0  0  0  0  0
   20.6890   -8.1838  -15.7503 C   0  0  0  0  0  0  0  0  0  0  0  0
   19.5287   -7.6816  -15.9510 O   0  0  0  0  0  0  0  0  0  0  0  0
   22.2929   -6.0324  -13.0561 C   0  0  0  0  0  0  0  0  0  0  0  0
   21.2234   -6.3625  -14.0589 C   0  0  2  0  0  0  0  0  0  0  0  0
   21.5183   -7.5654  -14.7864 N   0  0  0  0  0  0  0  0  0  0  0  0
   20.8936   -5.2137  -14.9540 C   0  0  0  0  0  0  0  0  0  0  0  0
   19.8986   -4.3422  -14.5938 O   0  0  0  0  0  0  0  0  0  0  0  0
   21.5216   -5.0550  -16.0127 O   0  0  0  0  0  0  0  0  0  0  0  0
  1  2  1  0
  2  4  1  0
  3  2  2  0
  4  5  1  0
  5  6  1  0
  6  8  1  0
  6  7  1  1
  8  9  2  0
 11 10  1  6
 11 12  1  0
 11 13  1  0
 13 15  1  0
 13 14  1  6
 14  8  1  0
 15 19  1  0
 15 16  2  0
 18 17  1  6
 18 20  1  0
 19 18  1  0
 20 22  2  0
 20 21  1  0
M  END
$$$$
