QTA.pdb
     RDKit          3D

 22 21  0  0  1  0  0  0  0  0999 V2000
   17.5187  -15.9965  -14.8913 N   0  0  0  0  0  0  0  0  0  0  0  0
   17.0759  -16.0582  -16.2545 C   0  0  0  0  0  0  0  0  0  0  0  0
   17.0998  -17.1711  -16.8082 O   0  0  0  0  0  0  0  0  0  0  0  0
   16.6100  -14.8790  -16.9853 C   0  0  0  0  0  0  0  0  0  0  0  0
   16.6786  -13.5927  -16.2481 C   0  0  0  0  0  0  0  0  0  0  0  0
   16.1066  -12.4439  -17.0247 C   0  0  2  0  0  0  0  0  0  0  0  0
   15.6408  -12.8918  -18.3466 N   0  0  0  0  0  0  0  0  0  0  0  0
   17.1523  -11.4041  -17.2337 C   0  0  0  0  0  0  0  0  0  0  0  0
   18.0443  -11.5134  -18.1131 O   0  0  0  0  0  0  0  0  0  0  0  0
   16.4678   -8.0939  -18.2688 C   0  0  0  0  0  0  0  0  0  0  0  0
   17.2021   -7.9688  -16.9650 C   0  0  1  0  0  0  0  0  0  0  0  0
   16.1923   -8.0273  -15.9682 O   0  0  0  0  0  0  0  0  0  0  0  0
   18.1063   -9.1438  -16.6521 C   0  0  2  0  0  0  0  0  0  0  0  0
   17.1564  -10.2596  -16.4319 N   0  0  0  0  0  0  0  0  0  0  0  0
   18.8451   -9.0129  -15.3867 C   0  0  0  0  0  0  0  0  0  0  0  0
   18.2663   -9.0834  -14.2469 O   0  0  0  0  0  0  0  0  0  0  0  0
   22.5410   -8.5385  -14.6344 C   0  0  0  0  0  0  0  0  0  0  0  0
   21.0868   -8.6012  -14.2603 C   0  0  2  0  0  0  0  0  0  0  0  0
   20.2432   -8.8027  -15.4053 N   0  0  0  0  0  0  0  0  0  0  0  0
   20.6536   -7.4444  -13.4215 C   0  0  0  0  0  0  0  0  0  0  0  0
   20.8393   -7.4888  -12.0640 O   0  0  0  0  0  0  0  0  0  0  0  0
   20.1326   -6.4534  -13.9572 O   0  0  0  0  0  0  0  0  0  0  0  0
  1  2  1  0
  2  4  1  0
  3  2  2  0
  4  5  1  0
  5  6  1  0
  6  8  1  0
  6  7  1  6
  8  9  2  0
 11 10  1  6
 11 12  1  0
 11 13  1  0
 13 15  1  0
 13 14  1  1
 14  8  1  0
 15 19  1  0
 15 16  2  0
 18 17  1  6
 18 20  1  0
 19 18  1  0
 20 22  2  0
 20 21  1  0
M  END
$$$$
