QTA.pdb
     RDKit          3D

 22 21  0  0  1  0  0  0  0  0999 V2000
   15.1485  -12.7021  -14.0642 N   0  0  0  0  0  0  0  0  0  0  0  0
   15.2036  -14.0971  -14.3952 C   0  0  0  0  0  0  0  0  0  0  0  0
   14.3135  -14.8266  -13.9249 O   0  0  0  0  0  0  0  0  0  0  0  0
   16.2494  -14.6633  -15.2480 C   0  0  0  0  0  0  0  0  0  0  0  0
   17.2847  -13.7106  -15.7203 C   0  0  0  0  0  0  0  0  0  0  0  0
   16.9707  -13.1279  -17.0664 C   0  0  2  0  0  0  0  0  0  0  0  0
   17.0673  -14.1576  -18.1130 N   0  0  0  0  0  0  0  0  0  0  0  0
   17.9458  -12.0497  -17.3908 C   0  0  0  0  0  0  0  0  0  0  0  0
   18.9680  -12.2554  -18.0935 O   0  0  0  0  0  0  0  0  0  0  0  0
   16.8251   -9.3170  -19.2524 C   0  0  0  0  0  0  0  0  0  0  0  0
   17.4620   -8.7120  -18.0345 C   0  0  1  0  0  0  0  0  0  0  0  0
   16.4196   -8.6404  -17.0728 O   0  0  0  0  0  0  0  0  0  0  0  0
   18.5107   -9.5925  -17.3859 C   0  0  2  0  0  0  0  0  0  0  0  0
   17.7316  -10.7574  -16.9043 N   0  0  0  0  0  0  0  0  0  0  0  0
   19.1194   -9.0120  -16.1789 C   0  0  0  0  0  0  0  0  0  0  0  0
   18.4345   -8.7359  -15.1332 O   0  0  0  0  0  0  0  0  0  0  0  0
   22.7289   -8.2121  -15.2971 C   0  0  0  0  0  0  0  0  0  0  0  0
   21.2505   -8.2381  -15.0286 C   0  0  2  0  0  0  0  0  0  0  0  0
   20.5071   -8.7423  -16.1495 N   0  0  0  0  0  0  0  0  0  0  0  0
   20.7284   -6.9303  -14.5319 C   0  0  0  0  0  0  0  0  0  0  0  0
   20.8948   -6.5948  -13.2132 O   0  0  0  0  0  0  0  0  0  0  0  0
   20.1517   -6.1579  -15.3138 O   0  0  0  0  0  0  0  0  0  0  0  0
  1  2  1  0
  2  4  1  0
  3  2  2  0
  4  5  1  0
  5  6  1  0
  6  8  1  0
  6  7  1  6
  8  9  2  0
 11 10  1  6
 11 12  1  0
 11 13  1  0
 13 15  1  0
 13 14  1  1
 14  8  1  0
 15 19  1  0
 15 16  2  0
 18 17  1  6
 18 20  1  0
 19 18  1  0
 20 22  2  0
 20 21  1  0
M  END
$$$$
