QTA.pdb
     RDKit          3D

 22 21  0  0  1  0  0  0  0  0999 V2000
   22.8312  -20.4523  -10.8128 N   0  0  0  0  0  0  0  0  0  0  0  0
   23.2895  -20.7721   -9.4914 C   0  0  0  0  0  0  0  0  0  0  0  0
   22.4299  -21.1150   -8.6611 O   0  0  0  0  0  0  0  0  0  0  0  0
   24.7009  -20.7076   -9.1103 C   0  0  0  0  0  0  0  0  0  0  0  0
   25.6249  -20.1714  -10.1406 C   0  0  0  0  0  0  0  0  0  0  0  0
   25.4122  -20.7868  -11.4920 C   0  0  2  0  0  0  0  0  0  0  0  0
   25.8509  -22.1912  -11.4976 N   0  0  0  0  0  0  0  0  0  0  0  0
   26.2093  -20.0520  -12.5134 C   0  0  0  0  0  0  0  0  0  0  0  0
   26.8413  -18.9988  -12.2444 O   0  0  0  0  0  0  0  0  0  0  0  0
   28.8969  -21.4950  -14.4573 C   0  0  0  0  0  0  0  0  0  0  0  0
   27.9188  -20.9352  -15.4497 C   0  0  1  0  0  0  0  0  0  0  0  0
   27.0291  -22.0055  -15.7315 O   0  0  0  0  0  0  0  0  0  0  0  0
   27.0282  -19.8450  -14.8891 C   0  0  2  0  0  0  0  0  0  0  0  0
   26.2671  -20.5372  -13.8226 N   0  0  0  0  0  0  0  0  0  0  0  0
   26.0103  -19.3567  -15.8323 C   0  0  0  0  0  0  0  0  0  0  0  0
   24.8817  -19.9418  -15.9832 O   0  0  0  0  0  0  0  0  0  0  0  0
   25.9128  -16.3282  -18.1274 C   0  0  0  0  0  0  0  0  0  0  0  0
   25.3874  -17.6303  -17.5915 C   0  0  2  0  0  0  0  0  0  0  0  0
   26.2646  -18.2026  -16.6086 N   0  0  0  0  0  0  0  0  0  0  0  0
   25.0221  -18.5959  -18.6702 C   0  0  0  0  0  0  0  0  0  0  0  0
   23.8393  -18.4375  -19.3449 O   0  0  0  0  0  0  0  0  0  0  0  0
   25.7898  -19.5304  -18.9491 O   0  0  0  0  0  0  0  0  0  0  0  0
  1  2  1  0
  2  4  1  0
  3  2  2  0
  4  5  1  0
  5  6  1  0
  6  8  1  0
  6  7  1  1
  8  9  2  0
 11 10  1  1
 11 12  1  0
 11 13  1  0
 13 15  1  0
 13 14  1  1
 14  8  1  0
 15 19  1  0
 15 16  2  0
 18 17  1  6
 18 20  1  0
 19 18  1  0
 20 22  2  0
 20 21  1  0
M  END
$$$$
