QTA.pdb
     RDKit          3D

 22 21  0  0  1  0  0  0  0  0999 V2000
   16.7160  -10.6531  -13.6966 N   0  0  0  0  0  0  0  0  0  0  0  0
   16.8713  -11.8786  -14.4264 C   0  0  0  0  0  0  0  0  0  0  0  0
   16.0822  -12.8012  -14.1588 O   0  0  0  0  0  0  0  0  0  0  0  0
   17.9037  -12.0616  -15.4473 C   0  0  0  0  0  0  0  0  0  0  0  0
   18.7575  -10.8793  -15.7227 C   0  0  0  0  0  0  0  0  0  0  0  0
   18.3408  -10.1331  -16.9553 C   0  0  2  0  0  0  0  0  0  0  0  0
   18.7443  -10.8649  -18.1663 N   0  0  0  0  0  0  0  0  0  0  0  0
   18.9989   -8.7972  -16.9846 C   0  0  0  0  0  0  0  0  0  0  0  0
   20.0599   -8.5832  -17.6246 O   0  0  0  0  0  0  0  0  0  0  0  0
   18.0891   -4.0219  -15.9723 C   0  0  0  0  0  0  0  0  0  0  0  0
   17.7679   -5.4804  -16.1292 C   0  0  1  0  0  0  0  0  0  0  0  0
   17.0535   -5.5690  -17.3532 O   0  0  0  0  0  0  0  0  0  0  0  0
   18.9837   -6.3597  -16.3402 C   0  0  2  0  0  0  0  0  0  0  0  0
   18.4296   -7.7327  -16.2807 N   0  0  0  0  0  0  0  0  0  0  0  0
   19.9683   -6.2952  -15.2490 C   0  0  0  0  0  0  0  0  0  0  0  0
   19.6758   -6.6160  -14.0447 O   0  0  0  0  0  0  0  0  0  0  0  0
   23.6615   -5.3996  -15.2026 C   0  0  0  0  0  0  0  0  0  0  0  0
   22.3440   -5.7168  -14.5527 C   0  0  2  0  0  0  0  0  0  0  0  0
   21.2896   -5.8683  -15.5161 N   0  0  0  0  0  0  0  0  0  0  0  0
   21.9928   -4.7632  -13.4587 C   0  0  0  0  0  0  0  0  0  0  0  0
   22.4230   -5.0140  -12.1815 O   0  0  0  0  0  0  0  0  0  0  0  0
   21.3183   -3.7527  -13.7126 O   0  0  0  0  0  0  0  0  0  0  0  0
  1  2  1  0
  2  4  1  0
  3  2  2  0
  4  5  1  0
  5  6  1  0
  6  8  1  0
  6  7  1  6
  8  9  2  0
 11 10  1  6
 11 12  1  0
 11 13  1  0
 13 15  1  0
 13 14  1  1
 14  8  1  0
 15 19  1  0
 15 16  2  0
 18 17  1  6
 18 20  1  0
 19 18  1  0
 20 22  2  0
 20 21  1  0
M  END
$$$$
