QTA.pdb
     RDKit          3D

 22 21  0  0  1  0  0  0  0  0999 V2000
   15.1644  -12.1696  -17.2270 N   0  0  0  0  0  0  0  0  0  0  0  0
   15.6810  -11.4608  -18.3624 C   0  0  0  0  0  0  0  0  0  0  0  0
   15.0543  -11.5687  -19.4308 O   0  0  0  0  0  0  0  0  0  0  0  0
   16.8896  -10.6384  -18.2943 C   0  0  0  0  0  0  0  0  0  0  0  0
   17.5288  -10.5380  -16.9587 C   0  0  0  0  0  0  0  0  0  0  0  0
   18.9970  -10.8435  -16.9901 C   0  0  2  0  0  0  0  0  0  0  0  0
   19.2297  -12.2889  -16.8424 N   0  0  0  0  0  0  0  0  0  0  0  0
   19.6822  -10.1501  -15.8640 C   0  0  0  0  0  0  0  0  0  0  0  0
   19.2871  -10.2458  -14.6741 O   0  0  0  0  0  0  0  0  0  0  0  0
   23.0181  -10.8210  -14.7490 C   0  0  0  0  0  0  0  0  0  0  0  0
   22.9666   -9.3871  -15.1920 C   0  0  1  0  0  0  0  0  0  0  0  0
   23.1777   -9.4291  -16.5956 O   0  0  0  0  0  0  0  0  0  0  0  0
   21.6040   -8.7430  -15.0368 C   0  0  2  0  0  0  0  0  0  0  0  0
   20.8061   -9.3607  -16.1220 N   0  0  0  0  0  0  0  0  0  0  0  0
   21.5860   -7.2996  -15.3208 C   0  0  0  0  0  0  0  0  0  0  0  0
   21.5999   -6.8377  -16.5146 O   0  0  0  0  0  0  0  0  0  0  0  0
   21.3401   -4.2636  -13.0482 C   0  0  0  0  0  0  0  0  0  0  0  0
   21.5478   -4.9405  -14.3738 C   0  0  2  0  0  0  0  0  0  0  0  0
   21.5511   -6.3719  -14.2543 N   0  0  0  0  0  0  0  0  0  0  0  0
   22.7386   -4.4209  -15.1098 C   0  0  0  0  0  0  0  0  0  0  0  0
   22.5800   -3.4068  -16.0186 O   0  0  0  0  0  0  0  0  0  0  0  0
   23.8598   -4.9070  -14.8928 O   0  0  0  0  0  0  0  0  0  0  0  0
  1  2  1  0
  2  4  1  0
  3  2  2  0
  4  5  1  0
  5  6  1  0
  6  8  1  0
  6  7  1  1
  8  9  2  0
 11 10  1  6
 11 12  1  0
 11 13  1  0
 13 15  1  0
 13 14  1  6
 14  8  1  0
 15 19  1  0
 15 16  2  0
 18 17  1  1
 18 20  1  0
 19 18  1  0
 20 22  2  0
 20 21  1  0
M  END
$$$$
