QTA.pdb
     RDKit          3D

 22 21  0  0  1  0  0  0  0  0999 V2000
   21.1364  -16.1974  -14.5815 N   0  0  0  0  0  0  0  0  0  0  0  0
   21.0273  -16.7791  -15.8885 C   0  0  0  0  0  0  0  0  0  0  0  0
   21.4303  -17.9474  -16.0240 O   0  0  0  0  0  0  0  0  0  0  0  0
   20.4688  -16.0528  -17.0296 C   0  0  0  0  0  0  0  0  0  0  0  0
   19.9988  -14.6730  -16.7505 C   0  0  0  0  0  0  0  0  0  0  0  0
   18.5271  -14.6038  -16.4689 C   0  0  2  0  0  0  0  0  0  0  0  0
   17.8259  -15.7386  -17.0899 N   0  0  0  0  0  0  0  0  0  0  0  0
   17.9621  -13.3479  -17.0364 C   0  0  0  0  0  0  0  0  0  0  0  0
   17.5900  -13.2580  -18.2341 O   0  0  0  0  0  0  0  0  0  0  0  0
   14.9246  -12.1332  -16.4361 C   0  0  0  0  0  0  0  0  0  0  0  0
   15.8244  -11.0217  -15.9779 C   0  0  1  0  0  0  0  0  0  0  0  0
   16.1469  -11.3419  -14.6325 O   0  0  0  0  0  0  0  0  0  0  0  0
   17.1637  -10.9822  -16.6853 C   0  0  2  0  0  0  0  0  0  0  0  0
   17.8342  -12.2197  -16.2218 N   0  0  0  0  0  0  0  0  0  0  0  0
   18.0408   -9.8842  -16.2500 C   0  0  0  0  0  0  0  0  0  0  0  0
   18.5139   -9.8171  -15.0624 O   0  0  0  0  0  0  0  0  0  0  0  0
   19.4122   -6.8473  -18.0825 C   0  0  0  0  0  0  0  0  0  0  0  0
   19.1868   -7.6999  -16.8656 C   0  0  2  0  0  0  0  0  0  0  0  0
   18.3875   -8.8570  -17.1578 N   0  0  0  0  0  0  0  0  0  0  0  0
   18.6706   -6.9220  -15.7003 C   0  0  0  0  0  0  0  0  0  0  0  0
   19.5561   -6.2945  -14.8628 O   0  0  0  0  0  0  0  0  0  0  0  0
   17.4480   -6.8470  -15.5000 O   0  0  0  0  0  0  0  0  0  0  0  0
  1  2  1  0
  2  4  1  0
  3  2  2  0
  4  5  1  0
  5  6  1  0
  6  8  1  0
  6  7  1  6
  8  9  2  0
 11 10  1  6
 11 12  1  0
 11 13  1  0
 13 15  1  0
 13 14  1  1
 14  8  1  0
 15 19  1  0
 15 16  2  0
 18 17  1  6
 18 20  1  0
 19 18  1  0
 20 22  2  0
 20 21  1  0
M  END
$$$$
