QTA.pdb
     RDKit          3D

 22 21  0  0  1  0  0  0  0  0999 V2000
   28.3617  -20.1629  -11.8262 N   0  0  0  0  0  0  0  0  0  0  0  0
   27.9203  -20.7825  -10.6097 C   0  0  0  0  0  0  0  0  0  0  0  0
   28.7991  -21.1873   -9.8289 O   0  0  0  0  0  0  0  0  0  0  0  0
   26.5045  -20.9428  -10.2762 C   0  0  0  0  0  0  0  0  0  0  0  0
   25.5462  -20.2562  -11.1778 C   0  0  0  0  0  0  0  0  0  0  0  0
   25.0015  -21.1577  -12.2458 C   0  0  2  0  0  0  0  0  0  0  0  0
   26.0902  -21.8898  -12.9120 N   0  0  0  0  0  0  0  0  0  0  0  0
   24.2927  -20.3495  -13.2768 C   0  0  0  0  0  0  0  0  0  0  0  0
   24.8914  -19.5289  -14.0179 O   0  0  0  0  0  0  0  0  0  0  0  0
   24.0890  -20.4292  -16.1433 C   0  0  0  0  0  0  0  0  0  0  0  0
   22.6570  -20.6841  -15.7702 C   0  0  1  0  0  0  0  0  0  0  0  0
   22.6279  -22.0328  -15.3268 O   0  0  0  0  0  0  0  0  0  0  0  0
   22.1807  -19.8857  -14.5737 C   0  0  2  0  0  0  0  0  0  0  0  0
   22.9126  -20.4967  -13.4392 N   0  0  0  0  0  0  0  0  0  0  0  0
   20.7562  -20.0711  -14.2563 C   0  0  0  0  0  0  0  0  0  0  0  0
   20.3489  -20.9713  -13.4424 O   0  0  0  0  0  0  0  0  0  0  0  0
   17.6325  -18.2435  -15.4237 C   0  0  0  0  0  0  0  0  0  0  0  0
   18.3622  -19.3366  -14.6948 C   0  0  2  0  0  0  0  0  0  0  0  0
   19.7857  -19.2372  -14.8580 N   0  0  0  0  0  0  0  0  0  0  0  0
   17.8387  -20.6975  -15.0165 C   0  0  0  0  0  0  0  0  0  0  0  0
   16.6672  -21.1219  -14.4450 O   0  0  0  0  0  0  0  0  0  0  0  0
   18.4642  -21.4314  -15.7980 O   0  0  0  0  0  0  0  0  0  0  0  0
  1  2  1  0
  2  4  1  0
  3  2  2  0
  4  5  1  0
  5  6  1  0
  6  8  1  0
  6  7  1  6
  8  9  2  0
 11 10  1  1
 11 12  1  0
 11 13  1  0
 13 15  1  0
 13 14  1  1
 14  8  1  0
 15 19  1  0
 15 16  2  0
 18 17  1  6
 18 20  1  0
 19 18  1  0
 20 22  2  0
 20 21  1  0
M  END
$$$$
