MED.pdb
     RDKit          3D

 26 25  0  0  1  0  0  0  0  0999 V2000
    7.8718  -11.5119   26.8666 C   0  0  0  0  0  0  0  0  0  0  0  0
    6.4692  -12.1921   25.9308 S   0  0  0  0  0  0  0  0  0  0  0  0
    6.1942  -13.8681   26.4674 C   0  0  0  0  0  0  0  0  0  0  0  0
    7.1399  -14.8979   25.9983 C   0  0  0  0  0  0  0  0  0  0  0  0
    6.9074  -15.5687   24.7000 C   0  0  2  0  0  0  0  0  0  0  0  0
    5.6362  -16.3275   24.8988 N   0  0  0  0  0  0  0  0  0  0  0  0
    7.9726  -16.5040   24.3053 C   0  0  0  0  0  0  0  0  0  0  0  0
    8.2144  -17.5765   24.9022 O   0  0  0  0  0  0  0  0  0  0  0  0
    8.8321  -16.2411   23.1746 N   0  0  0  0  0  0  0  0  0  0  0  0
    9.8543  -17.1990   22.7514 C   0  0  1  0  0  0  0  0  0  0  0  0
   10.0413  -16.9749   21.2775 C   0  0  0  0  0  0  0  0  0  0  0  0
   11.0522  -17.8502   20.6237 C   0  0  0  0  0  0  0  0  0  0  0  0
   11.0561  -17.5715   19.1651 C   0  0  0  0  0  0  0  0  0  0  0  0
   11.4379  -16.4651   18.7019 O   0  0  0  0  0  0  0  0  0  0  0  0
   11.0769  -17.0657   23.5520 C   0  0  0  0  0  0  0  0  0  0  0  0
   11.6520  -15.9616   23.6008 O   0  0  0  0  0  0  0  0  0  0  0  0
   10.6325  -18.5397   18.2705 O   0  0  0  0  0  0  0  0  0  0  0  0
   11.6099  -18.1637   24.2647 N   0  0  0  0  0  0  0  0  0  0  0  0
   12.8373  -18.1374   25.0433 C   0  0  1  0  0  0  0  0  0  0  0  0
   13.5474  -16.8305   24.9218 C   0  0  0  0  0  0  0  0  0  0  0  0
   14.6384  -16.7777   23.9565 C   0  0  0  0  0  0  0  0  0  0  0  0
   15.1109  -15.7362   23.4233 O   0  0  0  0  0  0  0  0  0  0  0  0
   12.6762  -18.6216   26.4197 C   0  0  0  0  0  0  0  0  0  0  0  0
   13.7898  -18.8733   27.1929 O   0  0  0  0  0  0  0  0  0  0  0  0
   15.2605  -17.9731   23.5444 O   0  0  0  0  0  0  0  0  0  0  0  0
   11.5478  -18.8110   26.9039 O   0  0  0  0  0  0  0  0  0  0  0  0
  2  1  1  0
  3  4  1  0
  3  2  1  0
  4  5  1  0
  5  7  1  0
  5  6  1  1
  7  8  2  0
  9  7  1  0
 10  9  1  0
 10 11  1  6
 11 12  1  0
 12 13  1  0
 13 14  2  0
 13 17  1  0
 15 10  1  0
 16 15  2  0
 18 15  1  0
 19 20  1  1
 19 18  1  0
 20 21  1  0
 21 22  2  0
 21 25  1  0
 23 19  1  0
 24 23  1  0
 26 23  2  0
M  END
$$$$
