MED.pdb
     RDKit          3D

 26 25  0  0  1  0  0  0  0  0999 V2000
    6.0560  -11.3516   27.7055 C   0  0  0  0  0  0  0  0  0  0  0  0
    6.6745  -12.5650   26.5011 S   0  0  0  0  0  0  0  0  0  0  0  0
    6.8563  -14.1337   27.3250 C   0  0  0  0  0  0  0  0  0  0  0  0
    7.3710  -15.2649   26.5312 C   0  0  0  0  0  0  0  0  0  0  0  0
    6.7188  -15.6178   25.2507 C   0  0  2  0  0  0  0  0  0  0  0  0
    5.7413  -16.6865   25.6163 N   0  0  0  0  0  0  0  0  0  0  0  0
    7.6406  -16.1349   24.2269 C   0  0  0  0  0  0  0  0  0  0  0  0
    8.0608  -17.3129   24.1988 O   0  0  0  0  0  0  0  0  0  0  0  0
    8.1349  -15.2973   23.1590 N   0  0  0  0  0  0  0  0  0  0  0  0
    9.0975  -15.7979   22.1770 C   0  0  1  0  0  0  0  0  0  0  0  0
    8.9429  -14.9207   20.9669 C   0  0  0  0  0  0  0  0  0  0  0  0
    7.6649  -15.0836   20.2216 C   0  0  0  0  0  0  0  0  0  0  0  0
    7.8089  -16.2087   19.2632 C   0  0  0  0  0  0  0  0  0  0  0  0
    7.9071  -17.4022   19.6509 O   0  0  0  0  0  0  0  0  0  0  0  0
   10.4550  -15.8424   22.7327 C   0  0  0  0  0  0  0  0  0  0  0  0
   10.7017  -15.2157   23.7807 O   0  0  0  0  0  0  0  0  0  0  0  0
    7.8382  -15.9631   17.9009 O   0  0  0  0  0  0  0  0  0  0  0  0
   11.4817  -16.5808   22.1014 N   0  0  0  0  0  0  0  0  0  0  0  0
   12.5566  -17.2747   22.7918 C   0  0  1  0  0  0  0  0  0  0  0  0
   12.0547  -18.0659   23.9534 C   0  0  0  0  0  0  0  0  0  0  0  0
   12.7109  -17.8204   25.2315 C   0  0  0  0  0  0  0  0  0  0  0  0
   13.9557  -17.7639   25.4306 O   0  0  0  0  0  0  0  0  0  0  0  0
   13.4603  -18.0069   21.8962 C   0  0  0  0  0  0  0  0  0  0  0  0
   13.1189  -18.1830   20.5719 O   0  0  0  0  0  0  0  0  0  0  0  0
   11.9295  -17.6207   26.3872 O   0  0  0  0  0  0  0  0  0  0  0  0
   14.5335  -18.4745   22.3119 O   0  0  0  0  0  0  0  0  0  0  0  0
  2  1  1  0
  3  4  1  0
  3  2  1  0
  4  5  1  0
  5  7  1  0
  5  6  1  1
  7  8  2  0
  9  7  1  0
 10  9  1  0
 10 11  1  6
 11 12  1  0
 12 13  1  0
 13 14  2  0
 13 17  1  0
 15 10  1  0
 16 15  2  0
 18 15  1  0
 19 20  1  1
 19 18  1  0
 20 21  1  0
 21 22  2  0
 21 25  1  0
 23 19  1  0
 24 23  1  0
 26 23  2  0
M  END
$$$$
