MED.pdb
     RDKit          3D

 26 25  0  0  1  0  0  0  0  0999 V2000
    7.6140  -11.5486   27.6852 C   0  0  0  0  0  0  0  0  0  0  0  0
    6.3871  -12.2386   26.5345 S   0  0  0  0  0  0  0  0  0  0  0  0
    7.2004  -12.5923   24.9898 C   0  0  0  0  0  0  0  0  0  0  0  0
    7.8139  -13.9240   24.8318 C   0  0  0  0  0  0  0  0  0  0  0  0
    6.9726  -15.0758   24.4374 C   0  0  2  0  0  0  0  0  0  0  0  0
    5.9880  -15.2128   25.5524 N   0  0  0  0  0  0  0  0  0  0  0  0
    7.7121  -16.3390   24.2868 C   0  0  0  0  0  0  0  0  0  0  0  0
    7.5740  -17.3221   25.0480 O   0  0  0  0  0  0  0  0  0  0  0  0
    8.6708  -16.5344   23.2242 N   0  0  0  0  0  0  0  0  0  0  0  0
    9.0295  -17.8730   22.7540 C   0  0  1  0  0  0  0  0  0  0  0  0
    9.8008  -17.6676   21.4810 C   0  0  0  0  0  0  0  0  0  0  0  0
   11.2658  -17.4658   21.6497 C   0  0  0  0  0  0  0  0  0  0  0  0
   11.7332  -16.4803   20.6420 C   0  0  0  0  0  0  0  0  0  0  0  0
   11.2208  -15.3344   20.5470 O   0  0  0  0  0  0  0  0  0  0  0  0
    9.7438  -18.6301   23.7884 C   0  0  0  0  0  0  0  0  0  0  0  0
    9.6530  -19.8726   23.8015 O   0  0  0  0  0  0  0  0  0  0  0  0
   12.7595  -16.8078   19.7722 O   0  0  0  0  0  0  0  0  0  0  0  0
   10.5290  -17.9762   24.7650 N   0  0  0  0  0  0  0  0  0  0  0  0
   11.3648  -18.6444   25.7489 C   0  0  1  0  0  0  0  0  0  0  0  0
   12.0602  -19.8337   25.1752 C   0  0  0  0  0  0  0  0  0  0  0  0
   11.8318  -21.1030   25.8542 C   0  0  0  0  0  0  0  0  0  0  0  0
   11.1455  -21.2755   26.8989 O   0  0  0  0  0  0  0  0  0  0  0  0
   12.2320  -17.7336   26.5060 C   0  0  0  0  0  0  0  0  0  0  0  0
   12.9979  -16.8020   25.8375 O   0  0  0  0  0  0  0  0  0  0  0  0
   12.4083  -22.2810   25.3385 O   0  0  0  0  0  0  0  0  0  0  0  0
   12.2898  -17.7872   27.7458 O   0  0  0  0  0  0  0  0  0  0  0  0
  2  1  1  0
  3  4  1  0
  3  2  1  0
  4  5  1  0
  5  7  1  0
  5  6  1  1
  7  8  2  0
  9  7  1  0
 10  9  1  0
 10 11  1  6
 11 12  1  0
 12 13  1  0
 13 14  2  0
 13 17  1  0
 15 10  1  0
 16 15  2  0
 18 15  1  0
 19 20  1  6
 19 18  1  0
 20 21  1  0
 21 22  2  0
 21 25  1  0
 23 19  1  0
 24 23  1  0
 26 23  2  0
M  END
$$$$
