MED.pdb
     RDKit          3D

 26 25  0  0  1  0  0  0  0  0999 V2000
    8.2340  -12.2195   27.0023 C   0  0  0  0  0  0  0  0  0  0  0  0
    7.5716  -12.3245   25.3125 S   0  0  0  0  0  0  0  0  0  0  0  0
    6.3782  -13.6456   25.2566 C   0  0  0  0  0  0  0  0  0  0  0  0
    6.1707  -14.3224   23.9629 C   0  0  0  0  0  0  0  0  0  0  0  0
    7.3201  -14.5367   23.0558 C   0  0  2  0  0  0  0  0  0  0  0  0
    6.6968  -14.7672   21.7180 N   0  0  0  0  0  0  0  0  0  0  0  0
    8.1568  -15.6953   23.4060 C   0  0  0  0  0  0  0  0  0  0  0  0
    7.7373  -16.8736   23.4370 O   0  0  0  0  0  0  0  0  0  0  0  0
    9.5528  -15.5476   23.7459 N   0  0  0  0  0  0  0  0  0  0  0  0
   10.4162  -16.7102   23.9566 C   0  0  1  0  0  0  0  0  0  0  0  0
   11.7183  -16.3818   23.2824 C   0  0  0  0  0  0  0  0  0  0  0  0
   12.7882  -17.4057   23.4311 C   0  0  0  0  0  0  0  0  0  0  0  0
   14.0099  -16.9270   22.7358 C   0  0  0  0  0  0  0  0  0  0  0  0
   14.7608  -16.0518   23.2404 O   0  0  0  0  0  0  0  0  0  0  0  0
   10.5299  -17.0412   25.3817 C   0  0  0  0  0  0  0  0  0  0  0  0
   10.7561  -16.1292   26.1996 O   0  0  0  0  0  0  0  0  0  0  0  0
   14.3532  -17.4428   21.4976 O   0  0  0  0  0  0  0  0  0  0  0  0
   10.3878  -18.3711   25.8391 N   0  0  0  0  0  0  0  0  0  0  0  0
   10.5893  -18.8083   27.2108 C   0  0  1  0  0  0  0  0  0  0  0  0
   10.0063  -20.1598   27.4572 C   0  0  0  0  0  0  0  0  0  0  0  0
    8.5657  -20.2101   27.6733 C   0  0  0  0  0  0  0  0  0  0  0  0
    7.8664  -21.2539   27.7900 O   0  0  0  0  0  0  0  0  0  0  0  0
   11.9661  -18.6380   27.6906 C   0  0  0  0  0  0  0  0  0  0  0  0
   12.9977  -18.5136   26.7842 O   0  0  0  0  0  0  0  0  0  0  0  0
    7.8345  -19.0091   27.7684 O   0  0  0  0  0  0  0  0  0  0  0  0
   12.2210  -18.6045   28.9061 O   0  0  0  0  0  0  0  0  0  0  0  0
  2  1  1  0
  3  4  1  0
  3  2  1  0
  4  5  1  0
  5  7  1  0
  5  6  1  6
  7  8  2  0
  9  7  1  0
 10  9  1  0
 10 11  1  1
 11 12  1  0
 12 13  1  0
 13 14  2  0
 13 17  1  0
 15 10  1  0
 16 15  2  0
 18 15  1  0
 19 20  1  6
 19 18  1  0
 20 21  1  0
 21 22  2  0
 21 25  1  0
 23 19  1  0
 24 23  1  0
 26 23  2  0
M  END
$$$$
