MED.pdb
     RDKit          3D

 26 25  0  0  1  0  0  0  0  0999 V2000
    6.0572  -11.0073   26.4322 C   0  0  0  0  0  0  0  0  0  0  0  0
    7.0319  -12.2928   25.5939 S   0  0  0  0  0  0  0  0  0  0  0  0
    6.5840  -13.8751   26.2782 C   0  0  0  0  0  0  0  0  0  0  0  0
    7.3282  -15.0573   25.8059 C   0  0  0  0  0  0  0  0  0  0  0  0
    7.4334  -15.3247   24.3543 C   0  0  2  0  0  0  0  0  0  0  0  0
    6.0432  -15.6848   23.9433 N   0  0  0  0  0  0  0  0  0  0  0  0
    8.3417  -16.4297   24.0090 C   0  0  0  0  0  0  0  0  0  0  0  0
    8.1360  -17.6238   24.3204 O   0  0  0  0  0  0  0  0  0  0  0  0
    9.5619  -16.2055   23.2692 N   0  0  0  0  0  0  0  0  0  0  0  0
   10.6274  -17.2078   23.2290 C   0  0  1  0  0  0  0  0  0  0  0  0
   11.3017  -17.0365   21.8972 C   0  0  0  0  0  0  0  0  0  0  0  0
   10.4182  -17.2001   20.7106 C   0  0  0  0  0  0  0  0  0  0  0  0
   11.2115  -16.9392   19.4827 C   0  0  0  0  0  0  0  0  0  0  0  0
   11.5661  -15.7764   19.1561 O   0  0  0  0  0  0  0  0  0  0  0  0
   11.5195  -17.0875   24.3880 C   0  0  0  0  0  0  0  0  0  0  0  0
   11.4571  -16.0653   25.0973 O   0  0  0  0  0  0  0  0  0  0  0  0
   11.5833  -17.9878   18.6585 O   0  0  0  0  0  0  0  0  0  0  0  0
   12.4436  -18.1071   24.7108 N   0  0  0  0  0  0  0  0  0  0  0  0
   12.6833  -18.6238   26.0483 C   0  0  1  0  0  0  0  0  0  0  0  0
   11.4103  -18.9140   26.7710 C   0  0  0  0  0  0  0  0  0  0  0  0
   11.5433  -19.4764   28.1092 C   0  0  0  0  0  0  0  0  0  0  0  0
   12.6242  -19.7792   28.6855 O   0  0  0  0  0  0  0  0  0  0  0  0
   13.6756  -19.7045   26.0967 C   0  0  0  0  0  0  0  0  0  0  0  0
   13.3180  -20.9813   25.7184 O   0  0  0  0  0  0  0  0  0  0  0  0
   10.3878  -19.7260   28.8763 O   0  0  0  0  0  0  0  0  0  0  0  0
   14.8391  -19.4890   26.4754 O   0  0  0  0  0  0  0  0  0  0  0  0
  2  1  1  0
  3  4  1  0
  3  2  1  0
  4  5  1  0
  5  7  1  0
  5  6  1  1
  7  8  2  0
  9  7  1  0
 10  9  1  0
 10 11  1  6
 11 12  1  0
 12 13  1  0
 13 14  2  0
 13 17  1  0
 15 10  1  0
 16 15  2  0
 18 15  1  0
 19 20  1  6
 19 18  1  0
 20 21  1  0
 21 22  2  0
 21 25  1  0
 23 19  1  0
 24 23  1  0
 26 23  2  0
M  END
$$$$
