MED.pdb
     RDKit          3D

 26 25  0  0  1  0  0  0  0  0999 V2000
    7.5383  -11.5995   26.4256 C   0  0  0  0  0  0  0  0  0  0  0  0
    6.0108  -12.4457   25.9192 S   0  0  0  0  0  0  0  0  0  0  0  0
    6.0712  -14.1224   26.5172 C   0  0  0  0  0  0  0  0  0  0  0  0
    7.0905  -15.0165   25.9373 C   0  0  0  0  0  0  0  0  0  0  0  0
    6.7076  -15.9709   24.8732 C   0  0  2  0  0  0  0  0  0  0  0  0
    5.7703  -16.9189   25.5472 N   0  0  0  0  0  0  0  0  0  0  0  0
    7.8358  -16.7267   24.3065 C   0  0  0  0  0  0  0  0  0  0  0  0
    8.4346  -17.6431   24.9121 O   0  0  0  0  0  0  0  0  0  0  0  0
    8.3406  -16.4554   22.9807 N   0  0  0  0  0  0  0  0  0  0  0  0
    9.5721  -17.0747   22.4893 C   0  0  1  0  0  0  0  0  0  0  0  0
    9.6491  -16.7318   21.0284 C   0  0  0  0  0  0  0  0  0  0  0  0
   10.8122  -17.3077   20.2998 C   0  0  0  0  0  0  0  0  0  0  0  0
   10.6667  -17.0092   18.8524 C   0  0  0  0  0  0  0  0  0  0  0  0
   10.8504  -15.8524   18.3916 O   0  0  0  0  0  0  0  0  0  0  0  0
   10.7348  -16.6546   23.2799 C   0  0  0  0  0  0  0  0  0  0  0  0
   10.5790  -15.8174   24.1893 O   0  0  0  0  0  0  0  0  0  0  0  0
   10.3203  -18.0148   17.9659 O   0  0  0  0  0  0  0  0  0  0  0  0
   12.0219  -17.1816   23.0279 N   0  0  0  0  0  0  0  0  0  0  0  0
   12.9379  -17.6707   24.0453 C   0  0  1  0  0  0  0  0  0  0  0  0
   12.2726  -18.6192   24.9859 C   0  0  0  0  0  0  0  0  0  0  0  0
   12.4665  -18.3594   26.4069 C   0  0  0  0  0  0  0  0  0  0  0  0
   13.3838  -17.6592   26.9174 O   0  0  0  0  0  0  0  0  0  0  0  0
   14.2226  -18.1380   23.5104 C   0  0  0  0  0  0  0  0  0  0  0  0
   15.3598  -18.0529   24.2856 O   0  0  0  0  0  0  0  0  0  0  0  0
   11.5746  -18.9185   27.3440 O   0  0  0  0  0  0  0  0  0  0  0  0
   14.3051  -18.6110   22.3647 O   0  0  0  0  0  0  0  0  0  0  0  0
  2  1  1  0
  3  4  1  0
  3  2  1  0
  4  5  1  0
  5  7  1  0
  5  6  1  1
  7  8  2  0
  9  7  1  0
 10  9  1  0
 10 11  1  6
 11 12  1  0
 12 13  1  0
 13 14  2  0
 13 17  1  0
 15 10  1  0
 16 15  2  0
 18 15  1  0
 19 20  1  6
 19 18  1  0
 20 21  1  0
 21 22  2  0
 21 25  1  0
 23 19  1  0
 24 23  1  0
 26 23  2  0
M  END
$$$$
