MED.pdb
     RDKit          3D

 26 25  0  0  1  0  0  0  0  0999 V2000
    7.8339  -11.8235   26.9845 C   0  0  0  0  0  0  0  0  0  0  0  0
    8.0079  -12.7324   25.4195 S   0  0  0  0  0  0  0  0  0  0  0  0
    6.4570  -13.5292   25.0557 C   0  0  0  0  0  0  0  0  0  0  0  0
    6.3771  -14.3344   23.8228 C   0  0  0  0  0  0  0  0  0  0  0  0
    7.6050  -14.6006   23.0411 C   0  0  2  0  0  0  0  0  0  0  0  0
    7.1442  -14.6067   21.6202 N   0  0  0  0  0  0  0  0  0  0  0  0
    8.2472  -15.8887   23.3471 C   0  0  0  0  0  0  0  0  0  0  0  0
    7.6194  -16.9186   23.6792 O   0  0  0  0  0  0  0  0  0  0  0  0
    9.6805  -16.0556   23.2832 N   0  0  0  0  0  0  0  0  0  0  0  0
   10.3097  -17.3582   23.5041 C   0  0  1  0  0  0  0  0  0  0  0  0
   10.8998  -17.7584   22.1815 C   0  0  0  0  0  0  0  0  0  0  0  0
   11.6602  -16.6918   21.4748 C   0  0  0  0  0  0  0  0  0  0  0  0
   12.1880  -17.2430   20.2010 C   0  0  0  0  0  0  0  0  0  0  0  0
   11.5111  -17.2269   19.1398 O   0  0  0  0  0  0  0  0  0  0  0  0
   11.2690  -17.3081   24.6135 C   0  0  0  0  0  0  0  0  0  0  0  0
   11.9710  -16.2897   24.7622 O   0  0  0  0  0  0  0  0  0  0  0  0
   13.4569  -17.7952   20.1544 O   0  0  0  0  0  0  0  0  0  0  0  0
   11.4087  -18.3908   25.5114 N   0  0  0  0  0  0  0  0  0  0  0  0
   12.4201  -18.4880   26.5512 C   0  0  1  0  0  0  0  0  0  0  0  0
   11.9953  -19.3918   27.6602 C   0  0  0  0  0  0  0  0  0  0  0  0
   10.6385  -19.2055   28.1590 C   0  0  0  0  0  0  0  0  0  0  0  0
   10.1569  -18.1364   28.6251 O   0  0  0  0  0  0  0  0  0  0  0  0
   13.7730  -18.7391   26.0400 C   0  0  0  0  0  0  0  0  0  0  0  0
   14.8488  -18.7056   26.9018 O   0  0  0  0  0  0  0  0  0  0  0  0
    9.7370  -20.2886   28.1429 O   0  0  0  0  0  0  0  0  0  0  0  0
   13.9682  -18.9820   24.8373 O   0  0  0  0  0  0  0  0  0  0  0  0
  2  1  1  0
  3  4  1  0
  3  2  1  0
  4  5  1  0
  5  7  1  0
  5  6  1  6
  7  8  2  0
  9  7  1  0
 10  9  1  0
 10 11  1  6
 11 12  1  0
 12 13  1  0
 13 14  2  0
 13 17  1  0
 15 10  1  0
 16 15  2  0
 18 15  1  0
 19 20  1  1
 19 18  1  0
 20 21  1  0
 21 22  2  0
 21 25  1  0
 23 19  1  0
 24 23  1  0
 26 23  2  0
M  END
$$$$
