MED.pdb
     RDKit          3D

 26 25  0  0  1  0  0  0  0  0999 V2000
    6.1346  -10.8716   26.9641 C   0  0  0  0  0  0  0  0  0  0  0  0
    7.0817  -12.0701   25.9782 S   0  0  0  0  0  0  0  0  0  0  0  0
    6.1543  -13.5885   25.8947 C   0  0  0  0  0  0  0  0  0  0  0  0
    6.7914  -14.7406   25.2303 C   0  0  0  0  0  0  0  0  0  0  0  0
    8.0214  -14.5381   24.4330 C   0  0  2  0  0  0  0  0  0  0  0  0
    7.5514  -13.8377   23.2002 N   0  0  0  0  0  0  0  0  0  0  0  0
    8.7043  -15.7842   24.0510 C   0  0  0  0  0  0  0  0  0  0  0  0
    8.6401  -16.8446   24.7117 O   0  0  0  0  0  0  0  0  0  0  0  0
    9.5148  -15.8700   22.8584 N   0  0  0  0  0  0  0  0  0  0  0  0
   10.4067  -17.0053   22.6195 C   0  0  1  0  0  0  0  0  0  0  0  0
   10.9117  -16.8414   21.2139 C   0  0  0  0  0  0  0  0  0  0  0  0
   11.7682  -17.9504   20.7117 C   0  0  0  0  0  0  0  0  0  0  0  0
   12.2202  -17.6218   19.3359 C   0  0  0  0  0  0  0  0  0  0  0  0
   13.2233  -16.8916   19.1235 O   0  0  0  0  0  0  0  0  0  0  0  0
   11.4557  -17.0865   23.6424 C   0  0  0  0  0  0  0  0  0  0  0  0
   11.7796  -16.0551   24.2617 O   0  0  0  0  0  0  0  0  0  0  0  0
   11.5355  -18.1206   18.2407 O   0  0  0  0  0  0  0  0  0  0  0  0
   12.1013  -18.3094   23.9350 N   0  0  0  0  0  0  0  0  0  0  0  0
   12.5260  -18.7334   25.2591 C   0  0  1  0  0  0  0  0  0  0  0  0
   11.4254  -18.6218   26.2607 C   0  0  0  0  0  0  0  0  0  0  0  0
   11.7288  -19.0929   27.6063 C   0  0  0  0  0  0  0  0  0  0  0  0
   12.7816  -19.6877   27.9670 O   0  0  0  0  0  0  0  0  0  0  0  0
   13.2367  -20.0178   25.2701 C   0  0  0  0  0  0  0  0  0  0  0  0
   12.6067  -21.1541   24.8085 O   0  0  0  0  0  0  0  0  0  0  0  0
   10.7933  -18.8917   28.6408 O   0  0  0  0  0  0  0  0  0  0  0  0
   14.4026  -20.1008   25.6911 O   0  0  0  0  0  0  0  0  0  0  0  0
  2  1  1  0
  3  4  1  0
  3  2  1  0
  4  5  1  0
  5  7  1  0
  5  6  1  6
  7  8  2  0
  9  7  1  0
 10  9  1  0
 10 11  1  6
 11 12  1  0
 12 13  1  0
 13 14  2  0
 13 17  1  0
 15 10  1  0
 16 15  2  0
 18 15  1  0
 19 20  1  1
 19 18  1  0
 20 21  1  0
 21 22  2  0
 21 25  1  0
 23 19  1  0
 24 23  1  0
 26 23  2  0
M  END
$$$$
