MED.pdb
     RDKit          3D

 26 25  0  0  1  0  0  0  0  0999 V2000
    7.3072  -12.0466   27.5348 C   0  0  0  0  0  0  0  0  0  0  0  0
    6.3819  -11.6315   26.0259 S   0  0  0  0  0  0  0  0  0  0  0  0
    5.5998  -13.1125   25.4196 C   0  0  0  0  0  0  0  0  0  0  0  0
    6.4642  -14.2740   25.1394 C   0  0  0  0  0  0  0  0  0  0  0  0
    7.7773  -14.0696   24.4884 C   0  0  2  0  0  0  0  0  0  0  0  0
    7.4759  -13.1951   23.3156 N   0  0  0  0  0  0  0  0  0  0  0  0
    8.4158  -15.3086   24.0168 C   0  0  0  0  0  0  0  0  0  0  0  0
    8.3679  -16.3957   24.6341 O   0  0  0  0  0  0  0  0  0  0  0  0
    9.1592  -15.3551   22.7792 N   0  0  0  0  0  0  0  0  0  0  0  0
    9.8057  -16.5852   22.3208 C   0  0  1  0  0  0  0  0  0  0  0  0
    9.8800  -16.4764   20.8240 C   0  0  0  0  0  0  0  0  0  0  0  0
    8.5678  -16.4333   20.1229 C   0  0  0  0  0  0  0  0  0  0  0  0
    8.3828  -17.7019   19.3734 C   0  0  0  0  0  0  0  0  0  0  0  0
    8.0321  -18.7663   19.9466 O   0  0  0  0  0  0  0  0  0  0  0  0
   11.0977  -16.7907   22.9855 C   0  0  0  0  0  0  0  0  0  0  0  0
   11.8264  -15.8058   23.2116 O   0  0  0  0  0  0  0  0  0  0  0  0
    8.5961  -17.7397   18.0059 O   0  0  0  0  0  0  0  0  0  0  0  0
   11.5267  -18.0810   23.3715 N   0  0  0  0  0  0  0  0  0  0  0  0
   12.7774  -18.3766   24.0509 C   0  0  1  0  0  0  0  0  0  0  0  0
   12.6917  -19.6289   24.8581 C   0  0  0  0  0  0  0  0  0  0  0  0
   13.0435  -19.5118   26.2678 C   0  0  0  0  0  0  0  0  0  0  0  0
   13.6323  -18.5362   26.8096 O   0  0  0  0  0  0  0  0  0  0  0  0
   13.9584  -18.2861   23.1837 C   0  0  0  0  0  0  0  0  0  0  0  0
   13.8005  -18.0814   21.8293 O   0  0  0  0  0  0  0  0  0  0  0  0
   12.7190  -20.5580   27.1545 O   0  0  0  0  0  0  0  0  0  0  0  0
   15.1049  -18.3920   23.6502 O   0  0  0  0  0  0  0  0  0  0  0  0
  2  1  1  0
  3  4  1  0
  3  2  1  0
  4  5  1  0
  5  7  1  0
  5  6  1  6
  7  8  2  0
  9  7  1  0
 10  9  1  0
 10 11  1  6
 11 12  1  0
 12 13  1  0
 13 14  2  0
 13 17  1  0
 15 10  1  0
 16 15  2  0
 18 15  1  0
 19 20  1  6
 19 18  1  0
 20 21  1  0
 21 22  2  0
 21 25  1  0
 23 19  1  0
 24 23  1  0
 26 23  2  0
M  END
$$$$
