MED.pdb
     RDKit          3D

 26 25  0  0  1  0  0  0  0  0999 V2000
    7.4792  -11.4384   26.0124 C   0  0  0  0  0  0  0  0  0  0  0  0
    6.8724  -12.9238   26.8673 S   0  0  0  0  0  0  0  0  0  0  0  0
    6.7826  -14.2553   25.6877 C   0  0  0  0  0  0  0  0  0  0  0  0
    7.1597  -13.9573   24.2935 C   0  0  0  0  0  0  0  0  0  0  0  0
    7.0815  -15.0230   23.2699 C   0  0  2  0  0  0  0  0  0  0  0  0
    5.7405  -15.6446   23.4856 N   0  0  0  0  0  0  0  0  0  0  0  0
    8.1204  -16.0575   23.3960 C   0  0  0  0  0  0  0  0  0  0  0  0
    8.0183  -17.0606   24.1366 O   0  0  0  0  0  0  0  0  0  0  0  0
    9.3583  -15.9834   22.6555 N   0  0  0  0  0  0  0  0  0  0  0  0
   10.3945  -17.0076   22.7928 C   0  0  1  0  0  0  0  0  0  0  0  0
   11.4126  -16.7063   21.7295 C   0  0  0  0  0  0  0  0  0  0  0  0
   12.5866  -17.6206   21.6949 C   0  0  0  0  0  0  0  0  0  0  0  0
   13.4737  -17.2193   20.5737 C   0  0  0  0  0  0  0  0  0  0  0  0
   13.7339  -17.9999   19.6211 O   0  0  0  0  0  0  0  0  0  0  0  0
   10.9286  -17.0489   24.1590 C   0  0  0  0  0  0  0  0  0  0  0  0
   11.1854  -15.9783   24.7420 O   0  0  0  0  0  0  0  0  0  0  0  0
   14.0421  -15.9569   20.5535 O   0  0  0  0  0  0  0  0  0  0  0  0
   11.1552  -18.2771   24.8208 N   0  0  0  0  0  0  0  0  0  0  0  0
   11.6918  -18.4149   26.1648 C   0  0  1  0  0  0  0  0  0  0  0  0
   10.6438  -18.8247   27.1450 C   0  0  0  0  0  0  0  0  0  0  0  0
   11.0917  -19.0370   28.5157 C   0  0  0  0  0  0  0  0  0  0  0  0
   12.2861  -19.0074   28.9217 O   0  0  0  0  0  0  0  0  0  0  0  0
   12.9318  -19.1978   26.2302 C   0  0  0  0  0  0  0  0  0  0  0  0
   13.4679  -19.7307   25.0770 O   0  0  0  0  0  0  0  0  0  0  0  0
   10.1436  -19.3047   29.5234 O   0  0  0  0  0  0  0  0  0  0  0  0
   13.5107  -19.3912   27.3123 O   0  0  0  0  0  0  0  0  0  0  0  0
  2  1  1  0
  3  4  1  0
  3  2  1  0
  4  5  1  0
  5  7  1  0
  5  6  1  1
  7  8  2  0
  9  7  1  0
 10  9  1  0
 10 11  1  6
 11 12  1  0
 12 13  1  0
 13 14  2  0
 13 17  1  0
 15 10  1  0
 16 15  2  0
 18 15  1  0
 19 20  1  1
 19 18  1  0
 20 21  1  0
 21 22  2  0
 21 25  1  0
 23 19  1  0
 24 23  1  0
 26 23  2  0
M  END
$$$$
