MED.pdb
     RDKit          3D

 26 25  0  0  1  0  0  0  0  0999 V2000
    6.4068  -11.3801   27.1674 C   0  0  0  0  0  0  0  0  0  0  0  0
    7.3370  -12.5361   26.1168 S   0  0  0  0  0  0  0  0  0  0  0  0
    6.2612  -13.8848   25.6739 C   0  0  0  0  0  0  0  0  0  0  0  0
    6.8400  -14.9872   24.8836 C   0  0  0  0  0  0  0  0  0  0  0  0
    8.1920  -14.8391   24.3007 C   0  0  2  0  0  0  0  0  0  0  0  0
    7.9655  -14.0910   23.0278 N   0  0  0  0  0  0  0  0  0  0  0  0
    8.8620  -16.1142   24.0001 C   0  0  0  0  0  0  0  0  0  0  0  0
    8.8813  -17.0919   24.7803 O   0  0  0  0  0  0  0  0  0  0  0  0
    9.5596  -16.3289   22.7537 N   0  0  0  0  0  0  0  0  0  0  0  0
   10.2567  -17.5847   22.4735 C   0  0  1  0  0  0  0  0  0  0  0  0
   10.4014  -17.6491   20.9793 C   0  0  0  0  0  0  0  0  0  0  0  0
    9.1287  -17.8000   20.2224 C   0  0  0  0  0  0  0  0  0  0  0  0
    9.4224  -17.7166   18.7692 C   0  0  0  0  0  0  0  0  0  0  0  0
   10.3531  -18.3794   18.2411 O   0  0  0  0  0  0  0  0  0  0  0  0
   11.5193  -17.6733   23.2162 C   0  0  0  0  0  0  0  0  0  0  0  0
   11.9030  -16.6905   23.8787 O   0  0  0  0  0  0  0  0  0  0  0  0
    8.6654  -16.8940   17.9523 O   0  0  0  0  0  0  0  0  0  0  0  0
   12.3030  -18.8493   23.1922 N   0  0  0  0  0  0  0  0  0  0  0  0
   13.0398  -19.3850   24.3252 C   0  0  1  0  0  0  0  0  0  0  0  0
   12.2039  -19.4369   25.5604 C   0  0  0  0  0  0  0  0  0  0  0  0
   12.8987  -19.1955   26.8188 C   0  0  0  0  0  0  0  0  0  0  0  0
   14.1486  -19.1285   26.9782 O   0  0  0  0  0  0  0  0  0  0  0  0
   13.7685  -20.6236   24.0258 C   0  0  0  0  0  0  0  0  0  0  0  0
   15.1208  -20.7029   24.2831 O   0  0  0  0  0  0  0  0  0  0  0  0
   12.1531  -19.0126   28.0006 O   0  0  0  0  0  0  0  0  0  0  0  0
   13.1858  -21.6079   23.5410 O   0  0  0  0  0  0  0  0  0  0  0  0
  2  1  1  0
  3  4  1  0
  3  2  1  0
  4  5  1  0
  5  7  1  0
  5  6  1  6
  7  8  2  0
  9  7  1  0
 10  9  1  0
 10 11  1  6
 11 12  1  0
 12 13  1  0
 13 14  2  0
 13 17  1  0
 15 10  1  0
 16 15  2  0
 18 15  1  0
 19 20  1  1
 19 18  1  0
 20 21  1  0
 21 22  2  0
 21 25  1  0
 23 19  1  0
 24 23  1  0
 26 23  2  0
M  END
$$$$
