MED.pdb
     RDKit          3D

 26 25  0  0  1  0  0  0  0  0999 V2000
    5.4222  -11.4000   26.5775 C   0  0  0  0  0  0  0  0  0  0  0  0
    7.1338  -11.8640   26.1767 S   0  0  0  0  0  0  0  0  0  0  0  0
    7.5118  -13.3934   27.0078 C   0  0  0  0  0  0  0  0  0  0  0  0
    7.9914  -14.5173   26.1822 C   0  0  0  0  0  0  0  0  0  0  0  0
    7.1277  -15.0588   25.1096 C   0  0  2  0  0  0  0  0  0  0  0  0
    6.0036  -15.7193   25.8387 N   0  0  0  0  0  0  0  0  0  0  0  0
    7.7898  -16.0472   24.2436 C   0  0  0  0  0  0  0  0  0  0  0  0
    7.9505  -17.2485   24.5538 O   0  0  0  0  0  0  0  0  0  0  0  0
    8.3117  -15.6890   22.9453 N   0  0  0  0  0  0  0  0  0  0  0  0
    9.0554  -16.6487   22.1283 C   0  0  1  0  0  0  0  0  0  0  0  0
    8.7875  -16.2660   20.7002 C   0  0  0  0  0  0  0  0  0  0  0  0
    9.4341  -17.1322   19.6769 C   0  0  0  0  0  0  0  0  0  0  0  0
    8.5526  -17.2049   18.4841 C   0  0  0  0  0  0  0  0  0  0  0  0
    7.6309  -18.0571   18.3909 O   0  0  0  0  0  0  0  0  0  0  0  0
   10.4750  -16.6801   22.4987 C   0  0  0  0  0  0  0  0  0  0  0  0
   11.3192  -16.2255   21.7032 O   0  0  0  0  0  0  0  0  0  0  0  0
    8.7301  -16.3215   17.4328 O   0  0  0  0  0  0  0  0  0  0  0  0
   10.8980  -17.2151   23.7367 N   0  0  0  0  0  0  0  0  0  0  0  0
   12.2802  -17.3089   24.1772 C   0  0  1  0  0  0  0  0  0  0  0  0
   13.0222  -16.0320   23.9628 C   0  0  0  0  0  0  0  0  0  0  0  0
   13.9672  -16.0147   22.8532 C   0  0  0  0  0  0  0  0  0  0  0  0
   14.0215  -16.8495   21.9085 O   0  0  0  0  0  0  0  0  0  0  0  0
   12.4372  -17.8916   25.5154 C   0  0  0  0  0  0  0  0  0  0  0  0
   13.6962  -18.1999   25.9857 O   0  0  0  0  0  0  0  0  0  0  0  0
   14.9334  -14.9915   22.7787 O   0  0  0  0  0  0  0  0  0  0  0  0
   11.4504  -18.1144   26.2365 O   0  0  0  0  0  0  0  0  0  0  0  0
  2  1  1  0
  3  4  1  0
  3  2  1  0
  4  5  1  0
  5  7  1  0
  5  6  1  1
  7  8  2  0
  9  7  1  0
 10  9  1  0
 10 11  1  6
 11 12  1  0
 12 13  1  0
 13 14  2  0
 13 17  1  0
 15 10  1  0
 16 15  2  0
 18 15  1  0
 19 20  1  1
 19 18  1  0
 20 21  1  0
 21 22  2  0
 21 25  1  0
 23 19  1  0
 24 23  1  0
 26 23  2  0
M  END
$$$$
