MED.pdb
     RDKit          3D

 26 25  0  0  1  0  0  0  0  0999 V2000
    6.0895  -11.6785   25.4565 C   0  0  0  0  0  0  0  0  0  0  0  0
    7.3991  -12.2484   26.5816 S   0  0  0  0  0  0  0  0  0  0  0  0
    7.1233  -13.9712   26.9400 C   0  0  0  0  0  0  0  0  0  0  0  0
    7.8791  -14.9612   26.1503 C   0  0  0  0  0  0  0  0  0  0  0  0
    7.2008  -15.7046   25.0655 C   0  0  2  0  0  0  0  0  0  0  0  0
    6.1514  -16.5043   25.7658 N   0  0  0  0  0  0  0  0  0  0  0  0
    8.0817  -16.6136   24.3152 C   0  0  0  0  0  0  0  0  0  0  0  0
    8.4399  -17.7377   24.7314 O   0  0  0  0  0  0  0  0  0  0  0  0
    8.6053  -16.2614   23.0159 N   0  0  0  0  0  0  0  0  0  0  0  0
    9.4801  -17.1685   22.2720 C   0  0  1  0  0  0  0  0  0  0  0  0
    9.1590  -16.9496   20.8205 C   0  0  0  0  0  0  0  0  0  0  0  0
    9.9096  -17.8099   19.8656 C   0  0  0  0  0  0  0  0  0  0  0  0
    9.4177  -17.5420   18.4903 C   0  0  0  0  0  0  0  0  0  0  0  0
    8.1904  -17.5511   18.2110 O   0  0  0  0  0  0  0  0  0  0  0  0
   10.8894  -16.9633   22.6260 C   0  0  0  0  0  0  0  0  0  0  0  0
   11.6851  -16.5791   21.7478 O   0  0  0  0  0  0  0  0  0  0  0  0
   10.3147  -17.2723   17.4707 O   0  0  0  0  0  0  0  0  0  0  0  0
   11.3562  -17.1935   23.9401 N   0  0  0  0  0  0  0  0  0  0  0  0
   12.5641  -17.9272   24.2806 C   0  0  1  0  0  0  0  0  0  0  0  0
   13.7761  -17.3335   23.6436 C   0  0  0  0  0  0  0  0  0  0  0  0
   13.6586  -15.9497   23.2010 C   0  0  0  0  0  0  0  0  0  0  0  0
   12.5834  -15.3142   23.0217 O   0  0  0  0  0  0  0  0  0  0  0  0
   12.7014  -18.2093   25.7147 C   0  0  0  0  0  0  0  0  0  0  0  0
   11.7879  -17.6882   26.6065 O   0  0  0  0  0  0  0  0  0  0  0  0
   14.8241  -15.2040   22.9337 O   0  0  0  0  0  0  0  0  0  0  0  0
   13.6317  -18.9126   26.1427 O   0  0  0  0  0  0  0  0  0  0  0  0
  2  1  1  0
  3  4  1  0
  3  2  1  0
  4  5  1  0
  5  7  1  0
  5  6  1  1
  7  8  2  0
  9  7  1  0
 10  9  1  0
 10 11  1  6
 11 12  1  0
 12 13  1  0
 13 14  2  0
 13 17  1  0
 15 10  1  0
 16 15  2  0
 18 15  1  0
 19 20  1  1
 19 18  1  0
 20 21  1  0
 21 22  2  0
 21 25  1  0
 23 19  1  0
 24 23  1  0
 26 23  2  0
M  END
$$$$
