QMQ.pdb
     RDKit          3D

 27 26  0  0  1  0  0  0  0  0999 V2000
    7.9881  -12.4101   17.3528 N   0  0  0  0  0  0  0  0  0  0  0  0
    7.6749  -13.7419   16.9918 C   0  0  0  0  0  0  0  0  0  0  0  0
    7.5523  -14.0256   15.7824 O   0  0  0  0  0  0  0  0  0  0  0  0
    7.5049  -14.7281   18.0512 C   0  0  0  0  0  0  0  0  0  0  0  0
    7.7370  -14.2503   19.4471 C   0  0  0  0  0  0  0  0  0  0  0  0
    8.6865  -15.0440   20.2730 C   0  0  2  0  0  0  0  0  0  0  0  0
    8.5410  -16.4653   20.1524 N   0  0  0  0  0  0  0  0  0  0  0  0
    8.6788  -14.6195   21.7042 C   0  0  0  0  0  0  0  0  0  0  0  0
    8.6802  -13.3756   21.9711 O   0  0  0  0  0  0  0  0  0  0  0  0
    6.4711  -11.7932   27.8297 C   0  0  0  0  0  0  0  0  0  0  0  0
    6.4337  -12.3169   26.1063 S   0  0  0  0  0  0  0  0  0  0  0  0
    7.5106  -13.7598   25.9023 C   0  0  0  0  0  0  0  0  0  0  0  0
    7.5238  -14.1425   24.4355 C   0  0  0  0  0  0  0  0  0  0  0  0
    8.7110  -15.0722   24.1731 C   0  0  2  0  0  0  0  0  0  0  0  0
    8.6700  -15.4943   22.8047 N   0  0  0  0  0  0  0  0  0  0  0  0
    8.6588  -16.1469   25.1507 C   0  0  0  0  0  0  0  0  0  0  0  0
    7.5707  -16.6728   25.4493 O   0  0  0  0  0  0  0  0  0  0  0  0
   12.2136  -19.4313   23.7964 N   0  0  0  0  0  0  0  0  0  0  0  0
   12.9423  -18.7024   24.7634 C   0  0  0  0  0  0  0  0  0  0  0  0
   14.1321  -18.4243   24.5671 O   0  0  0  0  0  0  0  0  0  0  0  0
   12.2530  -18.2798   26.0138 C   0  0  0  0  0  0  0  0  0  0  0  0
   10.8367  -18.7674   25.9546 C   0  0  0  0  0  0  0  0  0  0  0  0
    9.8623  -17.8325   26.5885 C   0  0  2  0  0  0  0  0  0  0  0  0
    9.8409  -16.6019   25.7686 N   0  0  0  0  0  0  0  0  0  0  0  0
   10.1402  -17.4721   27.9711 C   0  0  0  0  0  0  0  0  0  0  0  0
   10.3908  -16.2831   28.2846 O   0  0  0  0  0  0  0  0  0  0  0  0
   10.1366  -18.4162   28.9769 O   0  0  0  0  0  0  0  0  0  0  0  0
  1  2  1  0
  2  3  2  0
  4  5  1  0
  4  2  1  0
  6  5  1  0
  6  7  1  1
  8  6  1  0
  9  8  2  0
 11 10  1  0
 12 11  1  0
 13 12  1  0
 14 13  1  1
 14 15  1  0
 15  8  1  0
 16 14  1  0
 16 24  1  0
 17 16  2  0
 19 21  1  0
 19 18  1  0
 20 19  2  0
 22 21  1  0
 23 22  1  6
 23 24  1  0
 23 25  1  0
 25 27  1  0
 26 25  2  0
M  END
$$$$
