QMQ.pdb
     RDKit          3D

 27 26  0  0  1  0  0  0  0  0999 V2000
    9.1695  -14.4249   17.5823 N   0  0  0  0  0  0  0  0  0  0  0  0
    7.9209  -14.9444   17.1661 C   0  0  0  0  0  0  0  0  0  0  0  0
    7.8335  -15.4726   16.0384 O   0  0  0  0  0  0  0  0  0  0  0  0
    6.7855  -14.8369   18.0733 C   0  0  0  0  0  0  0  0  0  0  0  0
    7.0794  -14.3347   19.4488 C   0  0  0  0  0  0  0  0  0  0  0  0
    7.8310  -15.2531   20.3463 C   0  0  2  0  0  0  0  0  0  0  0  0
    7.2137  -16.5315   20.5469 N   0  0  0  0  0  0  0  0  0  0  0  0
    8.1771  -14.6097   21.6482 C   0  0  0  0  0  0  0  0  0  0  0  0
    8.2289  -13.3399   21.7059 O   0  0  0  0  0  0  0  0  0  0  0  0
    6.5266  -11.5421   27.9509 C   0  0  0  0  0  0  0  0  0  0  0  0
    6.2400  -12.3217   26.3521 S   0  0  0  0  0  0  0  0  0  0  0  0
    7.6995  -13.2946   25.8975 C   0  0  0  0  0  0  0  0  0  0  0  0
    7.4674  -13.8898   24.5227 C   0  0  0  0  0  0  0  0  0  0  0  0
    8.7150  -14.6689   24.0995 C   0  0  2  0  0  0  0  0  0  0  0  0
    8.4564  -15.3010   22.8401 N   0  0  0  0  0  0  0  0  0  0  0  0
    9.0629  -15.5740   25.1826 C   0  0  0  0  0  0  0  0  0  0  0  0
    8.1733  -16.1946   25.7935 O   0  0  0  0  0  0  0  0  0  0  0  0
   14.5023  -17.0689   23.9199 N   0  0  0  0  0  0  0  0  0  0  0  0
   14.6148  -16.7270   25.2866 C   0  0  0  0  0  0  0  0  0  0  0  0
   15.6993  -16.3467   25.7459 O   0  0  0  0  0  0  0  0  0  0  0  0
   13.4099  -16.8334   26.1550 C   0  0  0  0  0  0  0  0  0  0  0  0
   12.2539  -17.2586   25.3006 C   0  0  0  0  0  0  0  0  0  0  0  0
   10.9301  -17.0774   25.9640 C   0  0  2  0  0  0  0  0  0  0  0  0
   10.4113  -15.7558   25.5497 N   0  0  0  0  0  0  0  0  0  0  0  0
   10.9372  -17.1457   27.4178 C   0  0  0  0  0  0  0  0  0  0  0  0
   11.0093  -18.2518   28.0062 O   0  0  0  0  0  0  0  0  0  0  0  0
   10.8669  -16.0071   28.1935 O   0  0  0  0  0  0  0  0  0  0  0  0
  1  2  1  0
  2  3  2  0
  4  5  1  0
  4  2  1  0
  6  5  1  0
  6  7  1  1
  8  6  1  0
  9  8  2  0
 11 10  1  0
 12 11  1  0
 13 12  1  0
 14 13  1  1
 14 15  1  0
 15  8  1  0
 16 14  1  0
 16 24  1  0
 17 16  2  0
 19 21  1  0
 19 18  1  0
 20 19  2  0
 22 21  1  0
 23 22  1  1
 23 24  1  0
 23 25  1  0
 25 27  1  0
 26 25  2  0
M  END
$$$$
