QMQ.pdb
     RDKit          3D

 27 26  0  0  1  0  0  0  0  0999 V2000
    7.3357  -12.8843   18.2513 N   0  0  0  0  0  0  0  0  0  0  0  0
    8.6771  -13.2876   18.4515 C   0  0  0  0  0  0  0  0  0  0  0  0
    9.5955  -12.4976   18.1502 O   0  0  0  0  0  0  0  0  0  0  0  0
    8.9302  -14.6140   18.9996 C   0  0  0  0  0  0  0  0  0  0  0  0
    7.7288  -15.4172   19.3769 C   0  0  0  0  0  0  0  0  0  0  0  0
    7.8948  -16.3732   20.5049 C   0  0  2  0  0  0  0  0  0  0  0  0
    6.7476  -17.1915   20.7695 N   0  0  0  0  0  0  0  0  0  0  0  0
    8.3766  -15.7000   21.7472 C   0  0  0  0  0  0  0  0  0  0  0  0
    9.5703  -15.2612   21.7790 O   0  0  0  0  0  0  0  0  0  0  0  0
    7.4040  -11.4835   28.1689 C   0  0  0  0  0  0  0  0  0  0  0  0
    6.6688  -12.2041   26.6903 S   0  0  0  0  0  0  0  0  0  0  0  0
    7.7650  -13.4993   26.0548 C   0  0  0  0  0  0  0  0  0  0  0  0
    7.1728  -14.0369   24.7671 C   0  0  0  0  0  0  0  0  0  0  0  0
    8.1383  -15.0590   24.1625 C   0  0  2  0  0  0  0  0  0  0  0  0
    7.6085  -15.5055   22.9085 N   0  0  0  0  0  0  0  0  0  0  0  0
    8.3522  -16.1060   25.1482 C   0  0  0  0  0  0  0  0  0  0  0  0
    7.4098  -16.8388   25.5015 O   0  0  0  0  0  0  0  0  0  0  0  0
   12.3428  -19.0633   22.6961 N   0  0  0  0  0  0  0  0  0  0  0  0
   12.3098  -18.7982   24.0839 C   0  0  0  0  0  0  0  0  0  0  0  0
   13.1201  -19.3464   24.8419 O   0  0  0  0  0  0  0  0  0  0  0  0
   11.2871  -17.8525   24.6101 C   0  0  0  0  0  0  0  0  0  0  0  0
   10.8415  -18.3458   25.9537 C   0  0  0  0  0  0  0  0  0  0  0  0
    9.9036  -17.4140   26.6446 C   0  0  2  0  0  0  0  0  0  0  0  0
    9.6292  -16.2995   25.7121 N   0  0  0  0  0  0  0  0  0  0  0  0
   10.3742  -16.8656   27.9080 C   0  0  0  0  0  0  0  0  0  0  0  0
   10.5512  -15.6306   28.0433 O   0  0  0  0  0  0  0  0  0  0  0  0
   10.6389  -17.6765   28.9921 O   0  0  0  0  0  0  0  0  0  0  0  0
  1  2  1  0
  2  3  2  0
  4  5  1  0
  4  2  1  0
  6  5  1  0
  6  7  1  1
  8  6  1  0
  9  8  2  0
 11 10  1  0
 12 11  1  0
 13 12  1  0
 14 13  1  1
 14 15  1  0
 15  8  1  0
 16 14  1  0
 16 24  1  0
 17 16  2  0
 19 21  1  0
 19 18  1  0
 20 19  2  0
 22 21  1  0
 23 22  1  6
 23 24  1  0
 23 25  1  0
 25 27  1  0
 26 25  2  0
M  END
$$$$
