QMQ.pdb
     RDKit          3D

 27 26  0  0  1  0  0  0  0  0999 V2000
    8.8924  -12.5942   17.6953 N   0  0  0  0  0  0  0  0  0  0  0  0
    7.8651  -13.4718   17.2753 C   0  0  0  0  0  0  0  0  0  0  0  0
    7.6377  -13.5930   16.0539 O   0  0  0  0  0  0  0  0  0  0  0  0
    7.1113  -14.1966   18.2904 C   0  0  0  0  0  0  0  0  0  0  0  0
    7.5306  -13.9832   19.7079 C   0  0  0  0  0  0  0  0  0  0  0  0
    7.9367  -15.1940   20.4713 C   0  0  2  0  0  0  0  0  0  0  0  0
    6.9054  -16.1781   20.6252 N   0  0  0  0  0  0  0  0  0  0  0  0
    8.5556  -14.8496   21.7854 C   0  0  0  0  0  0  0  0  0  0  0  0
    9.7470  -14.4037   21.7999 O   0  0  0  0  0  0  0  0  0  0  0  0
    7.5823  -11.3238   27.3256 C   0  0  0  0  0  0  0  0  0  0  0  0
    6.3832  -12.3698   26.4804 S   0  0  0  0  0  0  0  0  0  0  0  0
    7.1623  -13.1000   25.0165 C   0  0  0  0  0  0  0  0  0  0  0  0
    7.6446  -14.4915   25.3760 C   0  0  0  0  0  0  0  0  0  0  0  0
    8.6073  -14.9814   24.2917 C   0  0  2  0  0  0  0  0  0  0  0  0
    7.9219  -14.9788   23.0337 N   0  0  0  0  0  0  0  0  0  0  0  0
    9.1251  -16.2744   24.7080 C   0  0  0  0  0  0  0  0  0  0  0  0
    9.1108  -17.2399   23.9221 O   0  0  0  0  0  0  0  0  0  0  0  0
   14.1353  -15.7258   24.4375 N   0  0  0  0  0  0  0  0  0  0  0  0
   13.4214  -16.6488   23.6402 C   0  0  0  0  0  0  0  0  0  0  0  0
   13.8292  -16.9397   22.5084 O   0  0  0  0  0  0  0  0  0  0  0  0
   12.1780  -17.2589   24.1869 C   0  0  0  0  0  0  0  0  0  0  0  0
   11.9812  -16.7483   25.5824 C   0  0  0  0  0  0  0  0  0  0  0  0
   10.7954  -17.3405   26.2671 C   0  0  2  0  0  0  0  0  0  0  0  0
    9.6478  -16.4451   26.0056 N   0  0  0  0  0  0  0  0  0  0  0  0
   10.9256  -17.5314   27.7041 C   0  0  0  0  0  0  0  0  0  0  0  0
   11.8145  -18.2837   28.1718 O   0  0  0  0  0  0  0  0  0  0  0  0
   10.0849  -16.8969   28.5949 O   0  0  0  0  0  0  0  0  0  0  0  0
  1  2  1  0
  2  3  2  0
  4  5  1  0
  4  2  1  0
  6  5  1  0
  6  7  1  1
  8  6  1  0
  9  8  2  0
 11 10  1  0
 12 11  1  0
 13 12  1  0
 14 13  1  1
 14 15  1  0
 15  8  1  0
 16 14  1  0
 16 24  1  0
 17 16  2  0
 19 21  1  0
 19 18  1  0
 20 19  2  0
 22 21  1  0
 23 22  1  1
 23 24  1  0
 23 25  1  0
 25 27  1  0
 26 25  2  0
M  END
$$$$
