QMQ.pdb
     RDKit          3D

 27 26  0  0  1  0  0  0  0  0999 V2000
    8.4036  -12.8709   17.2565 N   0  0  0  0  0  0  0  0  0  0  0  0
    8.2790  -14.2467   16.9501 C   0  0  0  0  0  0  0  0  0  0  0  0
    8.1979  -14.5928   15.7535 O   0  0  0  0  0  0  0  0  0  0  0  0
    8.2472  -15.2038   18.0486 C   0  0  0  0  0  0  0  0  0  0  0  0
    8.2954  -14.6336   19.4282 C   0  0  0  0  0  0  0  0  0  0  0  0
    8.4237  -15.6066   20.5464 C   0  0  2  0  0  0  0  0  0  0  0  0
    7.3285  -16.5236   20.6703 N   0  0  0  0  0  0  0  0  0  0  0  0
    8.7155  -14.9343   21.8470 C   0  0  0  0  0  0  0  0  0  0  0  0
    9.7574  -14.2101   21.9386 O   0  0  0  0  0  0  0  0  0  0  0  0
    5.7684  -11.3010   28.0425 C   0  0  0  0  0  0  0  0  0  0  0  0
    5.5077  -12.2000   26.5030 S   0  0  0  0  0  0  0  0  0  0  0  0
    7.0724  -12.9520   25.9841 C   0  0  0  0  0  0  0  0  0  0  0  0
    6.8468  -13.6610   24.6634 C   0  0  0  0  0  0  0  0  0  0  0  0
    8.1595  -14.3065   24.2131 C   0  0  2  0  0  0  0  0  0  0  0  0
    7.9214  -15.0352   23.0027 N   0  0  0  0  0  0  0  0  0  0  0  0
    8.6673  -15.1004   25.3199 C   0  0  0  0  0  0  0  0  0  0  0  0
    8.7605  -14.6050   26.4582 O   0  0  0  0  0  0  0  0  0  0  0  0
    6.8757  -19.6750   28.0806 N   0  0  0  0  0  0  0  0  0  0  0  0
    6.8119  -19.7178   26.6695 C   0  0  0  0  0  0  0  0  0  0  0  0
    6.0145  -20.4776   26.1050 O   0  0  0  0  0  0  0  0  0  0  0  0
    7.7176  -18.8358   25.8827 C   0  0  0  0  0  0  0  0  0  0  0  0
    8.4957  -17.9883   26.8436 C   0  0  0  0  0  0  0  0  0  0  0  0
    9.6281  -17.2572   26.2044 C   0  0  2  0  0  0  0  0  0  0  0  0
    9.0585  -16.4384   25.1125 N   0  0  0  0  0  0  0  0  0  0  0  0
   10.6921  -18.0896   25.6627 C   0  0  0  0  0  0  0  0  0  0  0  0
   11.3646  -18.8374   26.4133 O   0  0  0  0  0  0  0  0  0  0  0  0
   10.9954  -18.0870   24.3170 O   0  0  0  0  0  0  0  0  0  0  0  0
  1  2  1  0
  2  3  2  0
  4  5  1  0
  4  2  1  0
  6  5  1  0
  6  7  1  1
  8  6  1  0
  9  8  2  0
 11 10  1  0
 12 11  1  0
 13 12  1  0
 14 13  1  1
 14 15  1  0
 15  8  1  0
 16 14  1  0
 16 24  1  0
 17 16  2  0
 19 21  1  0
 19 18  1  0
 20 19  2  0
 22 21  1  0
 23 22  1  6
 23 24  1  0
 23 25  1  0
 25 27  1  0
 26 25  2  0
M  END
$$$$
