QMQ.pdb
     RDKit          3D

 27 26  0  0  1  0  0  0  0  0999 V2000
    7.6187  -19.9514   19.0204 N   0  0  0  0  0  0  0  0  0  0  0  0
    8.7398  -20.1933   19.8489 C   0  0  0  0  0  0  0  0  0  0  0  0
    9.2821  -21.3172   19.8165 O   0  0  0  0  0  0  0  0  0  0  0  0
    9.2131  -19.1173   20.7104 C   0  0  0  0  0  0  0  0  0  0  0  0
    8.4079  -17.8594   20.7056 C   0  0  0  0  0  0  0  0  0  0  0  0
    9.1692  -16.5820   20.6575 C   0  0  2  0  0  0  0  0  0  0  0  0
   10.4067  -16.6498   19.9366 N   0  0  0  0  0  0  0  0  0  0  0  0
    9.3661  -15.9925   22.0149 C   0  0  0  0  0  0  0  0  0  0  0  0
   10.4648  -16.2071   22.6192 O   0  0  0  0  0  0  0  0  0  0  0  0
    6.7711  -11.3451   27.7309 C   0  0  0  0  0  0  0  0  0  0  0  0
    6.4784  -12.0158   26.0845 S   0  0  0  0  0  0  0  0  0  0  0  0
    7.4291  -13.5461   25.8908 C   0  0  0  0  0  0  0  0  0  0  0  0
    7.2844  -14.0202   24.4582 C   0  0  0  0  0  0  0  0  0  0  0  0
    8.5101  -14.8568   24.0834 C   0  0  2  0  0  0  0  0  0  0  0  0
    8.4220  -15.2048   22.6965 N   0  0  0  0  0  0  0  0  0  0  0  0
    8.5752  -15.9848   24.9982 C   0  0  0  0  0  0  0  0  0  0  0  0
    7.7741  -16.9313   24.8871 O   0  0  0  0  0  0  0  0  0  0  0  0
   12.6819  -20.1258   25.3764 N   0  0  0  0  0  0  0  0  0  0  0  0
   12.8648  -18.7281   25.2756 C   0  0  0  0  0  0  0  0  0  0  0  0
   13.6413  -18.2609   24.4328 O   0  0  0  0  0  0  0  0  0  0  0  0
   12.1090  -17.8366   26.1983 C   0  0  0  0  0  0  0  0  0  0  0  0
   10.6482  -18.1371   26.0465 C   0  0  0  0  0  0  0  0  0  0  0  0
    9.7716  -17.2259   26.8381 C   0  0  2  0  0  0  0  0  0  0  0  0
    9.5467  -16.0155   26.0187 N   0  0  0  0  0  0  0  0  0  0  0  0
   10.2877  -16.8247   28.1386 C   0  0  0  0  0  0  0  0  0  0  0  0
   10.6463  -17.6858   28.9781 O   0  0  0  0  0  0  0  0  0  0  0  0
   10.4011  -15.4958   28.4906 O   0  0  0  0  0  0  0  0  0  0  0  0
  1  2  1  0
  2  3  2  0
  4  5  1  0
  4  2  1  0
  6  5  1  0
  6  7  1  1
  8  6  1  0
  9  8  2  0
 11 10  1  0
 12 11  1  0
 13 12  1  0
 14 13  1  1
 14 15  1  0
 15  8  1  0
 16 14  1  0
 16 24  1  0
 17 16  2  0
 19 21  1  0
 19 18  1  0
 20 19  2  0
 22 21  1  0
 23 22  1  6
 23 24  1  0
 23 25  1  0
 25 27  1  0
 26 25  2  0
M  END
$$$$
