QMQ.pdb
     RDKit          3D

 27 26  0  0  1  0  0  0  0  0999 V2000
    7.8200  -12.5886   18.5621 N   0  0  0  0  0  0  0  0  0  0  0  0
    8.1626  -13.8444   18.0076 C   0  0  0  0  0  0  0  0  0  0  0  0
    7.6216  -14.1999   16.9402 O   0  0  0  0  0  0  0  0  0  0  0  0
    9.1332  -14.6737   18.7105 C   0  0  0  0  0  0  0  0  0  0  0  0
    9.3704  -14.3451   20.1480 C   0  0  0  0  0  0  0  0  0  0  0  0
    9.2727  -15.4729   21.1135 C   0  0  2  0  0  0  0  0  0  0  0  0
    8.1646  -16.3555   20.8924 N   0  0  0  0  0  0  0  0  0  0  0  0
    9.3174  -15.0062   22.5308 C   0  0  0  0  0  0  0  0  0  0  0  0
   10.2946  -14.2819   22.9035 O   0  0  0  0  0  0  0  0  0  0  0  0
    7.5552  -10.8413   25.5652 C   0  0  0  0  0  0  0  0  0  0  0  0
    6.5836  -11.8818   26.6694 S   0  0  0  0  0  0  0  0  0  0  0  0
    7.2416  -13.5695   26.6243 C   0  0  0  0  0  0  0  0  0  0  0  0
    7.1525  -14.0789   25.1993 C   0  0  0  0  0  0  0  0  0  0  0  0
    8.4218  -14.8691   24.8719 C   0  0  2  0  0  0  0  0  0  0  0  0
    8.3527  -15.3048   23.5088 N   0  0  0  0  0  0  0  0  0  0  0  0
    8.5481  -15.9343   25.8530 C   0  0  0  0  0  0  0  0  0  0  0  0
    8.5942  -15.6675   27.0682 O   0  0  0  0  0  0  0  0  0  0  0  0
   12.0124  -19.1639   22.5264 N   0  0  0  0  0  0  0  0  0  0  0  0
   12.2958  -19.3944   23.8916 C   0  0  0  0  0  0  0  0  0  0  0  0
   12.6168  -20.5254   24.2785 O   0  0  0  0  0  0  0  0  0  0  0  0
   12.2006  -18.2562   24.8469 C   0  0  0  0  0  0  0  0  0  0  0  0
   10.8603  -17.6086   24.6705 C   0  0  0  0  0  0  0  0  0  0  0  0
    9.8378  -18.0907   25.6438 C   0  0  2  0  0  0  0  0  0  0  0  0
    8.6195  -17.2785   25.4357 N   0  0  0  0  0  0  0  0  0  0  0  0
   10.2176  -18.0185   27.0470 C   0  0  0  0  0  0  0  0  0  0  0  0
   10.2527  -19.0543   27.7546 O   0  0  0  0  0  0  0  0  0  0  0  0
   10.5509  -16.8199   27.6431 O   0  0  0  0  0  0  0  0  0  0  0  0
  1  2  1  0
  2  3  2  0
  4  5  1  0
  4  2  1  0
  6  5  1  0
  6  7  1  1
  8  6  1  0
  9  8  2  0
 11 10  1  0
 12 11  1  0
 13 12  1  0
 14 13  1  1
 14 15  1  0
 15  8  1  0
 16 14  1  0
 16 24  1  0
 17 16  2  0
 19 21  1  0
 19 18  1  0
 20 19  2  0
 22 21  1  0
 23 22  1  6
 23 24  1  0
 23 25  1  0
 25 27  1  0
 26 25  2  0
M  END
$$$$
