QMQ.pdb
     RDKit          3D

 27 26  0  0  1  0  0  0  0  0999 V2000
    9.5729  -12.7535   18.2248 N   0  0  0  0  0  0  0  0  0  0  0  0
    8.2161  -13.1475   18.3003 C   0  0  0  0  0  0  0  0  0  0  0  0
    7.3836  -12.5878   17.5572 O   0  0  0  0  0  0  0  0  0  0  0  0
    7.8464  -14.1911   19.2479 C   0  0  0  0  0  0  0  0  0  0  0  0
    8.9214  -14.6594   20.1731 C   0  0  0  0  0  0  0  0  0  0  0  0
    8.5443  -15.7153   21.1511 C   0  0  2  0  0  0  0  0  0  0  0  0
    7.2608  -16.3121   20.9223 N   0  0  0  0  0  0  0  0  0  0  0  0
    8.6796  -15.2493   22.5629 C   0  0  0  0  0  0  0  0  0  0  0  0
    9.7976  -14.7772   22.9445 O   0  0  0  0  0  0  0  0  0  0  0  0
    6.6548  -11.1403   27.1926 C   0  0  0  0  0  0  0  0  0  0  0  0
    5.9829  -11.4322   25.5466 S   0  0  0  0  0  0  0  0  0  0  0  0
    6.9986  -12.6738   24.7039 C   0  0  0  0  0  0  0  0  0  0  0  0
    6.7555  -14.0171   25.3631 C   0  0  0  0  0  0  0  0  0  0  0  0
    7.8439  -14.9961   24.9164 C   0  0  2  0  0  0  0  0  0  0  0  0
    7.6566  -15.2883   23.5264 N   0  0  0  0  0  0  0  0  0  0  0  0
    7.7944  -16.1495   25.8000 C   0  0  0  0  0  0  0  0  0  0  0  0
    6.6996  -16.5968   26.1891 O   0  0  0  0  0  0  0  0  0  0  0  0
    6.1681  -20.1940   24.6894 N   0  0  0  0  0  0  0  0  0  0  0  0
    7.0289  -20.9611   25.5067 C   0  0  0  0  0  0  0  0  0  0  0  0
    6.6378  -22.0306   25.9913 O   0  0  0  0  0  0  0  0  0  0  0  0
    8.4056  -20.4586   25.7699 C   0  0  0  0  0  0  0  0  0  0  0  0
    8.4218  -18.9821   25.5115 C   0  0  0  0  0  0  0  0  0  0  0  0
    9.0176  -18.1927   26.6283 C   0  0  2  0  0  0  0  0  0  0  0  0
    8.9864  -16.7707   26.2232 N   0  0  0  0  0  0  0  0  0  0  0  0
   10.3803  -18.5476   26.9963 C   0  0  0  0  0  0  0  0  0  0  0  0
   10.6259  -19.6384   27.5660 O   0  0  0  0  0  0  0  0  0  0  0  0
   11.4408  -17.7056   26.7328 O   0  0  0  0  0  0  0  0  0  0  0  0
  1  2  1  0
  2  3  2  0
  4  5  1  0
  4  2  1  0
  6  5  1  0
  6  7  1  6
  8  6  1  0
  9  8  2  0
 11 10  1  0
 12 11  1  0
 13 12  1  0
 14 13  1  1
 14 15  1  0
 15  8  1  0
 16 14  1  0
 16 24  1  0
 17 16  2  0
 19 21  1  0
 19 18  1  0
 20 19  2  0
 22 21  1  0
 23 22  1  6
 23 24  1  0
 23 25  1  0
 25 27  1  0
 26 25  2  0
M  END
$$$$
