QMQ.pdb
     RDKit          3D

 27 26  0  0  1  0  0  0  0  0999 V2000
    8.9690  -13.5533   17.1358 N   0  0  0  0  0  0  0  0  0  0  0  0
    7.7703  -13.6394   17.8827 C   0  0  0  0  0  0  0  0  0  0  0  0
    6.8408  -12.8472   17.6243 O   0  0  0  0  0  0  0  0  0  0  0  0
    7.6731  -14.6504   18.9278 C   0  0  0  0  0  0  0  0  0  0  0  0
    8.9053  -15.4513   19.1941 C   0  0  0  0  0  0  0  0  0  0  0  0
    8.8431  -16.4105   20.3298 C   0  0  2  0  0  0  0  0  0  0  0  0
    7.6328  -17.1760   20.4009 N   0  0  0  0  0  0  0  0  0  0  0  0
    9.1462  -15.7560   21.6368 C   0  0  0  0  0  0  0  0  0  0  0  0
   10.3250  -15.3247   21.8437 O   0  0  0  0  0  0  0  0  0  0  0  0
    7.0428  -11.5609   27.7999 C   0  0  0  0  0  0  0  0  0  0  0  0
    6.4755  -12.4939   26.3668 S   0  0  0  0  0  0  0  0  0  0  0  0
    7.7892  -13.6245   25.8382 C   0  0  0  0  0  0  0  0  0  0  0  0
    7.4299  -14.1675   24.4693 C   0  0  0  0  0  0  0  0  0  0  0  0
    8.5596  -15.0777   23.9815 C   0  0  2  0  0  0  0  0  0  0  0  0
    8.2217  -15.5717   22.6798 N   0  0  0  0  0  0  0  0  0  0  0  0
    8.7740  -16.1008   24.9917 C   0  0  0  0  0  0  0  0  0  0  0  0
    7.8326  -16.8270   25.3607 O   0  0  0  0  0  0  0  0  0  0  0  0
   13.2697  -19.4033   24.1546 N   0  0  0  0  0  0  0  0  0  0  0  0
   13.1644  -19.8838   25.4795 C   0  0  0  0  0  0  0  0  0  0  0  0
   13.7446  -20.9251   25.8120 O   0  0  0  0  0  0  0  0  0  0  0  0
   12.3467  -19.1161   26.4588 C   0  0  0  0  0  0  0  0  0  0  0  0
   11.7781  -17.9196   25.7572 C   0  0  0  0  0  0  0  0  0  0  0  0
   10.4241  -17.5332   26.2498 C   0  0  2  0  0  0  0  0  0  0  0  0
   10.0506  -16.2786   25.5616 N   0  0  0  0  0  0  0  0  0  0  0  0
   10.3075  -17.3346   27.6869 C   0  0  0  0  0  0  0  0  0  0  0  0
   10.1341  -16.1862   28.1623 O   0  0  0  0  0  0  0  0  0  0  0  0
   10.3814  -18.3923   28.5693 O   0  0  0  0  0  0  0  0  0  0  0  0
  1  2  1  0
  2  3  2  0
  4  5  1  0
  4  2  1  0
  6  5  1  0
  6  7  1  1
  8  6  1  0
  9  8  2  0
 11 10  1  0
 12 11  1  0
 13 12  1  0
 14 13  1  1
 14 15  1  0
 15  8  1  0
 16 14  1  0
 16 24  1  0
 17 16  2  0
 19 21  1  0
 19 18  1  0
 20 19  2  0
 22 21  1  0
 23 22  1  1
 23 24  1  0
 23 25  1  0
 25 27  1  0
 26 25  2  0
M  END
$$$$
