QMQ.pdb
     RDKit          3D

 27 26  0  0  1  0  0  0  0  0999 V2000
    8.7301  -12.6780   16.6969 N   0  0  0  0  0  0  0  0  0  0  0  0
    7.9200  -13.8377   16.7250 C   0  0  0  0  0  0  0  0  0  0  0  0
    7.6782  -14.4303   15.6532 O   0  0  0  0  0  0  0  0  0  0  0  0
    7.3978  -14.2905   18.0081 C   0  0  0  0  0  0  0  0  0  0  0  0
    8.3312  -14.2093   19.1712 C   0  0  0  0  0  0  0  0  0  0  0  0
    8.3603  -15.3836   20.0844 C   0  0  2  0  0  0  0  0  0  0  0  0
    7.1845  -16.2030   20.0430 N   0  0  0  0  0  0  0  0  0  0  0  0
    8.7017  -14.9987   21.4858 C   0  0  0  0  0  0  0  0  0  0  0  0
    9.8296  -14.4550   21.7110 O   0  0  0  0  0  0  0  0  0  0  0  0
    7.1265  -11.4617   27.9535 C   0  0  0  0  0  0  0  0  0  0  0  0
    6.4833  -12.1905   26.4365 S   0  0  0  0  0  0  0  0  0  0  0  0
    7.5415  -13.5791   25.9515 C   0  0  0  0  0  0  0  0  0  0  0  0
    7.0966  -14.0645   24.5861 C   0  0  0  0  0  0  0  0  0  0  0  0
    8.2319  -14.8688   23.9483 C   0  0  2  0  0  0  0  0  0  0  0  0
    7.8667  -15.1895   22.6006 N   0  0  0  0  0  0  0  0  0  0  0  0
    8.5000  -16.0141   24.8026 C   0  0  0  0  0  0  0  0  0  0  0  0
    7.6053  -16.8479   25.0353 O   0  0  0  0  0  0  0  0  0  0  0  0
   13.7767  -18.8722   24.9547 N   0  0  0  0  0  0  0  0  0  0  0  0
   12.8138  -18.7845   23.9239 C   0  0  0  0  0  0  0  0  0  0  0  0
   13.0992  -19.1404   22.7735 O   0  0  0  0  0  0  0  0  0  0  0  0
   11.4593  -18.2587   24.2495 C   0  0  0  0  0  0  0  0  0  0  0  0
   11.4435  -17.8720   25.6977 C   0  0  0  0  0  0  0  0  0  0  0  0
   10.1113  -17.3920   26.1672 C   0  0  2  0  0  0  0  0  0  0  0  0
    9.7761  -16.1894   25.3744 N   0  0  0  0  0  0  0  0  0  0  0  0
   10.0208  -17.0634   27.5822 C   0  0  0  0  0  0  0  0  0  0  0  0
   10.2528  -15.8976   27.9845 O   0  0  0  0  0  0  0  0  0  0  0  0
    9.6787  -18.0129   28.5225 O   0  0  0  0  0  0  0  0  0  0  0  0
  1  2  1  0
  2  3  2  0
  4  5  1  0
  4  2  1  0
  6  5  1  0
  6  7  1  1
  8  6  1  0
  9  8  2  0
 11 10  1  0
 12 11  1  0
 13 12  1  0
 14 13  1  1
 14 15  1  0
 15  8  1  0
 16 14  1  0
 16 24  1  0
 17 16  2  0
 19 21  1  0
 19 18  1  0
 20 19  2  0
 22 21  1  0
 23 22  1  6
 23 24  1  0
 23 25  1  0
 25 27  1  0
 26 25  2  0
M  END
$$$$
