QMQ.pdb
     RDKit          3D

 27 26  0  0  1  0  0  0  0  0999 V2000
    7.4844  -14.6379   16.3031 N   0  0  0  0  0  0  0  0  0  0  0  0
    8.1939  -15.6209   17.0327 C   0  0  0  0  0  0  0  0  0  0  0  0
    8.8852  -16.4525   16.4090 O   0  0  0  0  0  0  0  0  0  0  0  0
    8.0842  -15.6227   18.4859 C   0  0  0  0  0  0  0  0  0  0  0  0
    7.0771  -14.6918   19.0772 C   0  0  0  0  0  0  0  0  0  0  0  0
    7.5996  -13.4204   19.6467 C   0  0  2  0  0  0  0  0  0  0  0  0
    8.5988  -12.7730   18.8479 N   0  0  0  0  0  0  0  0  0  0  0  0
    8.0575  -13.5821   21.0584 C   0  0  0  0  0  0  0  0  0  0  0  0
    9.2815  -13.8529   21.2750 O   0  0  0  0  0  0  0  0  0  0  0  0
    6.9822  -11.6899   28.4801 C   0  0  0  0  0  0  0  0  0  0  0  0
    6.0893  -12.1727   26.9916 S   0  0  0  0  0  0  0  0  0  0  0  0
    7.2047  -13.1013   25.9068 C   0  0  0  0  0  0  0  0  0  0  0  0
    6.6644  -13.0299   24.4923 C   0  0  0  0  0  0  0  0  0  0  0  0
    7.6780  -13.6665   23.5384 C   0  0  2  0  0  0  0  0  0  0  0  0
    7.2351  -13.4584   22.1919 N   0  0  0  0  0  0  0  0  0  0  0  0
    7.8392  -15.0585   23.9252 C   0  0  0  0  0  0  0  0  0  0  0  0
    7.1551  -15.9453   23.3816 O   0  0  0  0  0  0  0  0  0  0  0  0
   11.6405  -19.5830   21.8211 N   0  0  0  0  0  0  0  0  0  0  0  0
   11.6761  -18.3077   22.4291 C   0  0  0  0  0  0  0  0  0  0  0  0
   12.1807  -17.3477   21.8330 O   0  0  0  0  0  0  0  0  0  0  0  0
   11.0980  -18.1455   23.7917 C   0  0  0  0  0  0  0  0  0  0  0  0
   10.3364  -16.8547   23.8258 C   0  0  0  0  0  0  0  0  0  0  0  0
    9.3781  -16.7634   24.9655 C   0  0  2  0  0  0  0  0  0  0  0  0
    8.7721  -15.4152   24.9195 N   0  0  0  0  0  0  0  0  0  0  0  0
    9.9466  -16.9791   26.2878 C   0  0  0  0  0  0  0  0  0  0  0  0
   10.0440  -16.0317   27.1049 O   0  0  0  0  0  0  0  0  0  0  0  0
   10.3933  -18.2218   26.6867 O   0  0  0  0  0  0  0  0  0  0  0  0
  1  2  1  0
  2  3  2  0
  4  5  1  0
  4  2  1  0
  6  5  1  0
  6  7  1  6
  8  6  1  0
  9  8  2  0
 11 10  1  0
 12 11  1  0
 13 12  1  0
 14 13  1  1
 14 15  1  0
 15  8  1  0
 16 14  1  0
 16 24  1  0
 17 16  2  0
 19 21  1  0
 19 18  1  0
 20 19  2  0
 22 21  1  0
 23 22  1  6
 23 24  1  0
 23 25  1  0
 25 27  1  0
 26 25  2  0
M  END
$$$$
