QMQ.pdb
     RDKit          3D

 27 26  0  0  1  0  0  0  0  0999 V2000
    8.7229  -12.2343   18.6308 N   0  0  0  0  0  0  0  0  0  0  0  0
    8.1198  -13.2574   17.8617 C   0  0  0  0  0  0  0  0  0  0  0  0
    7.2977  -12.9414   16.9770 O   0  0  0  0  0  0  0  0  0  0  0  0
    8.4826  -14.6414   18.1385 C   0  0  0  0  0  0  0  0  0  0  0  0
    9.4841  -14.8612   19.2245 C   0  0  0  0  0  0  0  0  0  0  0  0
    9.0843  -15.7828   20.3220 C   0  0  2  0  0  0  0  0  0  0  0  0
    7.8008  -16.3981   20.1490 N   0  0  0  0  0  0  0  0  0  0  0  0
    9.1997  -15.1420   21.6654 C   0  0  0  0  0  0  0  0  0  0  0  0
   10.2963  -14.5792   21.9802 O   0  0  0  0  0  0  0  0  0  0  0  0
    6.6167  -11.0553   26.4425 C   0  0  0  0  0  0  0  0  0  0  0  0
    6.1185  -12.7711   26.6745 S   0  0  0  0  0  0  0  0  0  0  0  0
    7.4383  -13.8574   26.0734 C   0  0  0  0  0  0  0  0  0  0  0  0
    7.1900  -14.1436   24.6056 C   0  0  0  0  0  0  0  0  0  0  0  0
    8.3987  -14.8860   24.0307 C   0  0  2  0  0  0  0  0  0  0  0  0
    8.1795  -15.1066   22.6321 N   0  0  0  0  0  0  0  0  0  0  0  0
    8.5976  -16.0904   24.8201 C   0  0  0  0  0  0  0  0  0  0  0  0
    7.6735  -16.9138   24.9544 O   0  0  0  0  0  0  0  0  0  0  0  0
    9.9911  -20.5042   23.2903 N   0  0  0  0  0  0  0  0  0  0  0  0
   11.1100  -19.9520   23.9539 C   0  0  0  0  0  0  0  0  0  0  0  0
   12.0293  -20.6852   24.3398 O   0  0  0  0  0  0  0  0  0  0  0  0
   11.1585  -18.4806   24.1769 C   0  0  0  0  0  0  0  0  0  0  0  0
   11.2756  -18.2347   25.6510 C   0  0  0  0  0  0  0  0  0  0  0  0
   10.0805  -17.5590   26.2347 C   0  0  2  0  0  0  0  0  0  0  0  0
    9.8392  -16.3353   25.4402 N   0  0  0  0  0  0  0  0  0  0  0  0
   10.1840  -17.1950   27.6401 C   0  0  0  0  0  0  0  0  0  0  0  0
   10.1533  -18.0760   28.5333 O   0  0  0  0  0  0  0  0  0  0  0  0
   10.3196  -15.8807   28.0365 O   0  0  0  0  0  0  0  0  0  0  0  0
  1  2  1  0
  2  3  2  0
  4  5  1  0
  4  2  1  0
  6  5  1  0
  6  7  1  6
  8  6  1  0
  9  8  2  0
 11 10  1  0
 12 11  1  0
 13 12  1  0
 14 13  1  1
 14 15  1  0
 15  8  1  0
 16 14  1  0
 16 24  1  0
 17 16  2  0
 19 21  1  0
 19 18  1  0
 20 19  2  0
 22 21  1  0
 23 22  1  6
 23 24  1  0
 23 25  1  0
 25 27  1  0
 26 25  2  0
M  END
$$$$
