QMQ.pdb
     RDKit          3D

 27 26  0  0  1  0  0  0  0  0999 V2000
    6.1719  -19.6168   20.6155 N   0  0  0  0  0  0  0  0  0  0  0  0
    6.4527  -18.9666   19.3906 C   0  0  0  0  0  0  0  0  0  0  0  0
    6.4180  -19.6303   18.3339 O   0  0  0  0  0  0  0  0  0  0  0  0
    6.7750  -17.5455   19.4154 C   0  0  0  0  0  0  0  0  0  0  0  0
    6.7328  -16.8779   20.7508 C   0  0  0  0  0  0  0  0  0  0  0  0
    7.0772  -15.4308   20.7826 C   0  0  2  0  0  0  0  0  0  0  0  0
    7.7248  -14.9437   19.5997 N   0  0  0  0  0  0  0  0  0  0  0  0
    7.8435  -15.0614   22.0093 C   0  0  0  0  0  0  0  0  0  0  0  0
    9.1147  -15.0700   21.9597 O   0  0  0  0  0  0  0  0  0  0  0  0
    7.5178  -11.5906   27.8413 C   0  0  0  0  0  0  0  0  0  0  0  0
    6.1551  -11.6877   26.6668 S   0  0  0  0  0  0  0  0  0  0  0  0
    6.7247  -12.5301   25.1671 C   0  0  0  0  0  0  0  0  0  0  0  0
    7.0665  -13.9631   25.5247 C   0  0  0  0  0  0  0  0  0  0  0  0
    8.0047  -14.5331   24.4581 C   0  0  2  0  0  0  0  0  0  0  0  0
    7.2690  -14.6975   23.2398 N   0  0  0  0  0  0  0  0  0  0  0  0
    8.5949  -15.7506   24.9899 C   0  0  0  0  0  0  0  0  0  0  0  0
    7.9290  -16.8012   25.0422 O   0  0  0  0  0  0  0  0  0  0  0  0
   14.1866  -16.5525   23.4575 N   0  0  0  0  0  0  0  0  0  0  0  0
   14.1706  -17.6773   24.3131 C   0  0  0  0  0  0  0  0  0  0  0  0
   15.1628  -18.4126   24.3934 O   0  0  0  0  0  0  0  0  0  0  0  0
   12.9437  -17.9562   25.1094 C   0  0  0  0  0  0  0  0  0  0  0  0
   11.9542  -16.8623   24.8424 C   0  0  0  0  0  0  0  0  0  0  0  0
   10.6883  -17.0074   25.6184 C   0  0  2  0  0  0  0  0  0  0  0  0
    9.9268  -15.7509   25.4507 N   0  0  0  0  0  0  0  0  0  0  0  0
   10.8461  -17.2761   27.0401 C   0  0  0  0  0  0  0  0  0  0  0  0
   10.4908  -16.4287   27.8948 O   0  0  0  0  0  0  0  0  0  0  0  0
   11.3856  -18.4616   27.4944 O   0  0  0  0  0  0  0  0  0  0  0  0
  1  2  1  0
  2  3  2  0
  4  5  1  0
  4  2  1  0
  6  5  1  0
  6  7  1  6
  8  6  1  0
  9  8  2  0
 11 10  1  0
 12 11  1  0
 13 12  1  0
 14 13  1  1
 14 15  1  0
 15  8  1  0
 16 14  1  0
 16 24  1  0
 17 16  2  0
 19 21  1  0
 19 18  1  0
 20 19  2  0
 22 21  1  0
 23 22  1  1
 23 24  1  0
 23 25  1  0
 25 27  1  0
 26 25  2  0
M  END
$$$$
