QMQ.pdb
     RDKit          3D

 27 26  0  0  1  0  0  0  0  0999 V2000
    9.7544  -14.3340   17.2208 N   0  0  0  0  0  0  0  0  0  0  0  0
    8.4614  -13.7683   17.3212 C   0  0  0  0  0  0  0  0  0  0  0  0
    7.7914  -13.6071   16.2803 O   0  0  0  0  0  0  0  0  0  0  0  0
    7.9667  -13.3934   18.6398 C   0  0  0  0  0  0  0  0  0  0  0  0
    8.8379  -13.7449   19.8009 C   0  0  0  0  0  0  0  0  0  0  0  0
    8.4341  -14.9331   20.6002 C   0  0  2  0  0  0  0  0  0  0  0  0
    7.0634  -15.3229   20.4421 N   0  0  0  0  0  0  0  0  0  0  0  0
    8.7923  -14.7897   22.0423 C   0  0  0  0  0  0  0  0  0  0  0  0
   10.0107  -14.5933   22.3512 O   0  0  0  0  0  0  0  0  0  0  0  0
    7.5228  -11.4859   27.3441 C   0  0  0  0  0  0  0  0  0  0  0  0
    6.2483  -11.7312   26.0945 S   0  0  0  0  0  0  0  0  0  0  0  0
    6.9188  -12.7541   24.7576 C   0  0  0  0  0  0  0  0  0  0  0  0
    7.1311  -14.1574   25.2904 C   0  0  0  0  0  0  0  0  0  0  0  0
    8.2517  -14.8293   24.4934 C   0  0  2  0  0  0  0  0  0  0  0  0
    7.8800  -14.8545   23.1100 N   0  0  0  0  0  0  0  0  0  0  0  0
    8.5005  -16.1325   25.0877 C   0  0  0  0  0  0  0  0  0  0  0  0
    7.5905  -16.9799   25.1481 O   0  0  0  0  0  0  0  0  0  0  0  0
   13.6493  -18.8321   24.1650 N   0  0  0  0  0  0  0  0  0  0  0  0
   13.1917  -19.7869   25.1012 C   0  0  0  0  0  0  0  0  0  0  0  0
   13.8346  -20.8266   25.2949 O   0  0  0  0  0  0  0  0  0  0  0  0
   11.9294  -19.5170   25.8434 C   0  0  0  0  0  0  0  0  0  0  0  0
   11.3903  -18.1959   25.3842 C   0  0  0  0  0  0  0  0  0  0  0  0
   10.1126  -17.8137   26.0528 C   0  0  2  0  0  0  0  0  0  0  0  0
    9.7749  -16.4468   25.6007 N   0  0  0  0  0  0  0  0  0  0  0  0
   10.1293  -17.8376   27.5080 C   0  0  0  0  0  0  0  0  0  0  0  0
   10.1540  -16.7689   28.1654 O   0  0  0  0  0  0  0  0  0  0  0  0
   10.1173  -19.0251   28.2098 O   0  0  0  0  0  0  0  0  0  0  0  0
  1  2  1  0
  2  3  2  0
  4  5  1  0
  4  2  1  0
  6  5  1  0
  6  7  1  1
  8  6  1  0
  9  8  2  0
 11 10  1  0
 12 11  1  0
 13 12  1  0
 14 13  1  1
 14 15  1  0
 15  8  1  0
 16 14  1  0
 16 24  1  0
 17 16  2  0
 19 21  1  0
 19 18  1  0
 20 19  2  0
 22 21  1  0
 23 22  1  6
 23 24  1  0
 23 25  1  0
 25 27  1  0
 26 25  2  0
M  END
$$$$
