QMQ.pdb
     RDKit          3D

 27 26  0  0  1  0  0  0  0  0999 V2000
    8.1624  -18.7130   18.9861 N   0  0  0  0  0  0  0  0  0  0  0  0
    7.6357  -17.7223   18.1240 C   0  0  0  0  0  0  0  0  0  0  0  0
    7.2268  -18.0618   16.9944 O   0  0  0  0  0  0  0  0  0  0  0  0
    7.5961  -16.3427   18.5919 C   0  0  0  0  0  0  0  0  0  0  0  0
    8.0183  -16.1081   20.0052 C   0  0  0  0  0  0  0  0  0  0  0  0
    7.8113  -14.7362   20.5426 C   0  0  2  0  0  0  0  0  0  0  0  0
    8.2376  -13.6812   19.6703 N   0  0  0  0  0  0  0  0  0  0  0  0
    8.3890  -14.5740   21.9096 C   0  0  0  0  0  0  0  0  0  0  0  0
    9.6545  -14.5488   22.0374 O   0  0  0  0  0  0  0  0  0  0  0  0
    6.9787  -10.4851   27.0979 C   0  0  0  0  0  0  0  0  0  0  0  0
    7.2277  -12.2694   27.0789 S   0  0  0  0  0  0  0  0  0  0  0  0
    6.8571  -12.9015   25.4217 C   0  0  0  0  0  0  0  0  0  0  0  0
    7.0559  -14.4043   25.4282 C   0  0  0  0  0  0  0  0  0  0  0  0
    8.1276  -14.7701   24.3985 C   0  0  2  0  0  0  0  0  0  0  0  0
    7.6392  -14.4443   23.0917 N   0  0  0  0  0  0  0  0  0  0  0  0
    8.4745  -16.1681   24.5951 C   0  0  0  0  0  0  0  0  0  0  0  0
    7.7961  -17.0652   24.0614 O   0  0  0  0  0  0  0  0  0  0  0  0
   11.5086  -19.3467   21.8159 N   0  0  0  0  0  0  0  0  0  0  0  0
   12.1992  -18.2394   22.3584 C   0  0  0  0  0  0  0  0  0  0  0  0
   13.0456  -17.6413   21.6820 O   0  0  0  0  0  0  0  0  0  0  0  0
   11.8887  -17.8113   23.7503 C   0  0  0  0  0  0  0  0  0  0  0  0
   10.5126  -18.2971   24.0930 C   0  0  0  0  0  0  0  0  0  0  0  0
   10.0742  -17.9117   25.4658 C   0  0  2  0  0  0  0  0  0  0  0  0
    9.5825  -16.5189   25.3923 N   0  0  0  0  0  0  0  0  0  0  0  0
   11.0929  -17.9972   26.5018 C   0  0  0  0  0  0  0  0  0  0  0  0
   11.6646  -19.0866   26.7489 O   0  0  0  0  0  0  0  0  0  0  0  0
   11.4637  -16.8932   27.2413 O   0  0  0  0  0  0  0  0  0  0  0  0
  1  2  1  0
  2  3  2  0
  4  5  1  0
  4  2  1  0
  6  5  1  0
  6  7  1  6
  8  6  1  0
  9  8  2  0
 11 10  1  0
 12 11  1  0
 13 12  1  0
 14 13  1  1
 14 15  1  0
 15  8  1  0
 16 14  1  0
 16 24  1  0
 17 16  2  0
 19 21  1  0
 19 18  1  0
 20 19  2  0
 22 21  1  0
 23 22  1  6
 23 24  1  0
 23 25  1  0
 25 27  1  0
 26 25  2  0
M  END
$$$$
