PIW.pdb
     RDKit          3D

 30 32  0  0  1  0  0  0  0  0999 V2000
   22.0478  -17.5259  -15.8156 N   0  0  0  0  0  0  0  0  0  0  0  0
   22.0543  -16.2107  -16.3985 C   0  0  0  0  0  0  0  0  0  0  0  0
   23.0684  -15.3841  -15.6594 C   0  0  0  0  0  0  0  0  0  0  0  0
   23.4139  -16.2739  -14.4615 C   0  0  0  0  0  0  0  0  0  0  0  0
   23.2703  -17.6452  -15.0776 C   0  0  1  0  0  0  0  0  0  0  0  0
   23.2585  -18.7149  -14.0760 C   0  0  0  0  0  0  0  0  0  0  0  0
   22.1948  -19.0441  -13.5129 O   0  0  0  0  0  0  0  0  0  0  0  0
   24.9546  -24.3001  -13.3388 C   0  0  0  0  0  0  0  0  0  0  0  0
   24.6439  -23.0146  -12.6330 C   0  0  0  0  0  0  0  0  0  0  0  0
   24.8050  -21.8137  -13.5454 C   0  0  2  0  0  0  0  0  0  0  0  0
   26.1818  -21.7894  -14.1498 C   0  0  0  0  0  0  0  0  0  0  0  0
   24.4766  -20.5270  -12.8237 C   0  0  2  0  0  0  0  0  0  0  0  0
   24.4672  -19.3937  -13.7325 N   0  0  0  0  0  0  0  0  0  0  0  0
   25.4205  -20.2842  -11.6969 C   0  0  0  0  0  0  0  0  0  0  0  0
   26.3687  -19.4831  -11.7542 O   0  0  0  0  0  0  0  0  0  0  0  0
   25.2883  -20.9757  -10.4510 N   0  0  0  0  0  0  0  0  0  0  0  0
   26.0072  -20.6982   -9.2715 C   0  0  1  0  0  0  0  0  0  0  0  0
   25.8109  -19.3646   -8.6462 C   0  0  0  0  0  0  0  0  0  0  0  0
   27.0146  -18.9406   -7.8797 C   0  0  0  0  0  0  0  0  0  0  0  0
   27.9368  -17.9574   -8.1454 C   0  0  0  0  0  0  0  0  0  0  0  0
   28.8663  -17.9404   -7.1502 N   0  0  0  0  0  0  0  0  0  0  0  0
   28.5775  -18.8862   -6.2399 C   0  0  0  0  0  0  0  0  0  0  0  0
   29.1879  -19.2764   -5.0658 C   0  0  0  0  0  0  0  0  0  0  0  0
   28.6906  -20.3013   -4.2809 C   0  0  0  0  0  0  0  0  0  0  0  0
   27.5446  -20.9362   -4.7118 C   0  0  0  0  0  0  0  0  0  0  0  0
   26.9375  -20.5436   -5.8855 C   0  0  0  0  0  0  0  0  0  0  0  0
   27.4324  -19.5145   -6.6783 C   0  0  0  0  0  0  0  0  0  0  0  0
   25.7156  -21.7579   -8.2801 C   0  0  0  0  0  0  0  0  0  0  0  0
   24.5697  -21.7816   -7.5139 O   0  0  0  0  0  0  0  0  0  0  0  0
   26.5523  -22.6742   -8.1338 O   0  0  0  0  0  0  0  0  0  0  0  0
  1  2  1  0
  3  2  1  0
  4  3  1  0
  5  4  1  0
  5  1  1  0
  5  6  1  1
  6 13  1  0
  7  6  2  0
  9  8  1  0
 10  9  1  0
 10 11  1  1
 12 13  1  6
 12 10  1  0
 14 16  1  0
 14 12  1  0
 15 14  2  0
 17 16  1  0
 17 28  1  0
 17 18  1  1
 19 18  1  0
 20 19  2  0
 21 22  1  0
 21 20  1  0
 22 27  2  0
 23 22  1  0
 23 24  2  0
 24 25  1  0
 25 26  2  0
 27 19  1  0
 27 26  1  0
 28 30  2  0
 28 29  1  0
M  END
$$$$
