PIW.pdb
     RDKit          3D

 30 32  0  0  1  0  0  0  0  0999 V2000
   28.0318  -23.1182  -17.0454 N   0  0  0  0  0  0  0  0  0  0  0  0
   28.4507  -23.6320  -18.3222 C   0  0  0  0  0  0  0  0  0  0  0  0
   29.9127  -23.3256  -18.4851 C   0  0  0  0  0  0  0  0  0  0  0  0
   30.1850  -22.3721  -17.3177 C   0  0  0  0  0  0  0  0  0  0  0  0
   29.2272  -22.9122  -16.2825 C   0  0  1  0  0  0  0  0  0  0  0  0
   29.0573  -22.0053  -15.1440 C   0  0  0  0  0  0  0  0  0  0  0  0
   30.0247  -21.7243  -14.4077 O   0  0  0  0  0  0  0  0  0  0  0  0
   27.3396  -17.2616  -15.7180 C   0  0  0  0  0  0  0  0  0  0  0  0
   27.8679  -18.5935  -15.2775 C   0  0  0  0  0  0  0  0  0  0  0  0
   27.0188  -19.2052  -14.1797 C   0  0  2  0  0  0  0  0  0  0  0  0
   26.8660  -18.2453  -13.0322 C   0  0  0  0  0  0  0  0  0  0  0  0
   27.5717  -20.5401  -13.7362 C   0  0  2  0  0  0  0  0  0  0  0  0
   27.7797  -21.4319  -14.8639 N   0  0  0  0  0  0  0  0  0  0  0  0
   26.6885  -21.1798  -12.7212 C   0  0  0  0  0  0  0  0  0  0  0  0
   26.5272  -22.4082  -12.6260 O   0  0  0  0  0  0  0  0  0  0  0  0
   25.9554  -20.3988  -11.7722 N   0  0  0  0  0  0  0  0  0  0  0  0
   25.8360  -20.6705  -10.3949 C   0  0  1  0  0  0  0  0  0  0  0  0
   27.0502  -20.5034   -9.5549 C   0  0  0  0  0  0  0  0  0  0  0  0
   26.7386  -20.6704   -8.1087 C   0  0  0  0  0  0  0  0  0  0  0  0
   25.6704  -21.2777   -7.4939 C   0  0  0  0  0  0  0  0  0  0  0  0
   25.8218  -21.1808   -6.1440 N   0  0  0  0  0  0  0  0  0  0  0  0
   26.9604  -20.5263   -5.8583 C   0  0  0  0  0  0  0  0  0  0  0  0
   27.5659  -20.1705   -4.6708 C   0  0  0  0  0  0  0  0  0  0  0  0
   28.7657  -19.4829   -4.6313 C   0  0  0  0  0  0  0  0  0  0  0  0
   29.3531  -19.1555   -5.8354 C   0  0  0  0  0  0  0  0  0  0  0  0
   28.7452  -19.5127   -7.0199 C   0  0  0  0  0  0  0  0  0  0  0  0
   27.5397  -20.2035   -7.0659 C   0  0  0  0  0  0  0  0  0  0  0  0
   24.7360  -19.8469   -9.8446 C   0  0  0  0  0  0  0  0  0  0  0  0
   23.7169  -20.3645   -9.0736 O   0  0  0  0  0  0  0  0  0  0  0  0
   24.7350  -18.6227  -10.0938 O   0  0  0  0  0  0  0  0  0  0  0  0
  1  2  1  0
  3  2  1  0
  4  3  1  0
  5  4  1  0
  5  1  1  0
  5  6  1  1
  6 13  1  0
  7  6  2  0
  9  8  1  0
 10  9  1  0
 10 11  1  1
 12 13  1  6
 12 10  1  0
 14 16  1  0
 14 12  1  0
 15 14  2  0
 17 16  1  0
 17 28  1  0
 17 18  1  1
 19 18  1  0
 20 19  2  0
 21 22  1  0
 21 20  1  0
 22 27  2  0
 23 22  1  0
 23 24  2  0
 24 25  1  0
 25 26  2  0
 27 19  1  0
 27 26  1  0
 28 30  2  0
 28 29  1  0
M  END
$$$$
