PIW.pdb
     RDKit          3D

 30 32  0  0  1  0  0  0  0  0999 V2000
   28.0741  -22.3954  -17.4844 N   0  0  0  0  0  0  0  0  0  0  0  0
   28.6193  -22.8825  -18.7234 C   0  0  0  0  0  0  0  0  0  0  0  0
   30.1114  -22.9684  -18.5680 C   0  0  0  0  0  0  0  0  0  0  0  0
   30.3510  -22.2363  -17.2441 C   0  0  0  0  0  0  0  0  0  0  0  0
   29.0899  -22.5914  -16.4929 C   0  0  1  0  0  0  0  0  0  0  0  0
   28.9063  -21.7820  -15.2851 C   0  0  0  0  0  0  0  0  0  0  0  0
   29.7580  -21.8017  -14.3734 O   0  0  0  0  0  0  0  0  0  0  0  0
   27.3986  -16.7256  -15.8380 C   0  0  0  0  0  0  0  0  0  0  0  0
   27.9765  -18.0139  -15.3345 C   0  0  0  0  0  0  0  0  0  0  0  0
   27.0227  -18.7373  -14.4031 C   0  0  2  0  0  0  0  0  0  0  0  0
   26.6866  -17.8761  -13.2169 C   0  0  0  0  0  0  0  0  0  0  0  0
   27.5713  -20.0844  -13.9922 C   0  0  2  0  0  0  0  0  0  0  0  0
   27.7478  -20.9598  -15.1379 N   0  0  0  0  0  0  0  0  0  0  0  0
   26.7024  -20.7319  -12.9699 C   0  0  0  0  0  0  0  0  0  0  0  0
   25.6450  -21.3254  -13.2419 O   0  0  0  0  0  0  0  0  0  0  0  0
   27.0418  -20.7086  -11.5798 N   0  0  0  0  0  0  0  0  0  0  0  0
   26.3559  -21.3832  -10.5504 C   0  0  1  0  0  0  0  0  0  0  0  0
   27.1352  -21.7699   -9.3457 C   0  0  0  0  0  0  0  0  0  0  0  0
   27.2311  -20.6447   -8.3755 C   0  0  0  0  0  0  0  0  0  0  0  0
   26.5162  -19.4739   -8.2985 C   0  0  0  0  0  0  0  0  0  0  0  0
   26.9623  -18.7510   -7.2341 N   0  0  0  0  0  0  0  0  0  0  0  0
   27.9503  -19.4170   -6.6120 C   0  0  0  0  0  0  0  0  0  0  0  0
   28.7240  -19.1306   -5.5063 C   0  0  0  0  0  0  0  0  0  0  0  0
   29.7022  -19.9941   -5.0465 C   0  0  0  0  0  0  0  0  0  0  0  0
   29.8875  -21.1735   -5.7369 C   0  0  0  0  0  0  0  0  0  0  0  0
   29.1125  -21.4563   -6.8413 C   0  0  0  0  0  0  0  0  0  0  0  0
   28.1282  -20.5926   -7.3080 C   0  0  0  0  0  0  0  0  0  0  0  0
   25.1902  -20.5660  -10.1450 C   0  0  0  0  0  0  0  0  0  0  0  0
   24.1488  -21.0582   -9.3874 O   0  0  0  0  0  0  0  0  0  0  0  0
   25.1526  -19.3717  -10.5097 O   0  0  0  0  0  0  0  0  0  0  0  0
  1  2  1  0
  3  2  1  0
  4  3  1  0
  5  4  1  0
  5  1  1  0
  5  6  1  1
  6 13  1  0
  7  6  2  0
  9  8  1  0
 10  9  1  0
 10 11  1  1
 12 13  1  6
 12 10  1  0
 14 16  1  0
 14 12  1  0
 15 14  2  0
 17 16  1  0
 17 28  1  0
 17 18  1  1
 19 18  1  0
 20 19  2  0
 21 22  1  0
 21 20  1  0
 22 27  2  0
 23 22  1  0
 23 24  2  0
 24 25  1  0
 25 26  2  0
 27 19  1  0
 27 26  1  0
 28 30  2  0
 28 29  1  0
M  END
$$$$
