PIW.pdb
     RDKit          3D

 30 32  0  0  1  0  0  0  0  0999 V2000
   27.6939  -20.8579  -15.3799 N   0  0  0  0  0  0  0  0  0  0  0  0
   28.1672  -19.9325  -16.3745 C   0  0  0  0  0  0  0  0  0  0  0  0
   27.7336  -18.5535  -15.9644 C   0  0  0  0  0  0  0  0  0  0  0  0
   26.7616  -18.8381  -14.8154 C   0  0  0  0  0  0  0  0  0  0  0  0
   27.3850  -20.0773  -14.2185 C   0  0  1  0  0  0  0  0  0  0  0  0
   26.4982  -20.7522  -13.2669 C   0  0  0  0  0  0  0  0  0  0  0  0
   25.8953  -21.7950  -13.5924 O   0  0  0  0  0  0  0  0  0  0  0  0
   27.1853  -20.2180   -7.8489 C   0  0  0  0  0  0  0  0  0  0  0  0
   26.8619  -20.6982   -9.2317 C   0  0  0  0  0  0  0  0  0  0  0  0
   25.4617  -20.2995   -9.6571 C   0  0  2  0  0  0  0  0  0  0  0  0
   24.4365  -20.9126   -8.7435 C   0  0  0  0  0  0  0  0  0  0  0  0
   25.2095  -20.6413  -11.1075 C   0  0  2  0  0  0  0  0  0  0  0  0
   26.3136  -20.2225  -11.9535 N   0  0  0  0  0  0  0  0  0  0  0  0
   23.9302  -20.0474  -11.5874 C   0  0  0  0  0  0  0  0  0  0  0  0
   23.7214  -18.8242  -11.6528 O   0  0  0  0  0  0  0  0  0  0  0  0
   22.8390  -20.8701  -12.0122 N   0  0  0  0  0  0  0  0  0  0  0  0
   21.5965  -20.4114  -12.4927 C   0  0  1  0  0  0  0  0  0  0  0  0
   21.5968  -19.6229  -13.7521 C   0  0  0  0  0  0  0  0  0  0  0  0
   22.3989  -20.2920  -14.8128 C   0  0  0  0  0  0  0  0  0  0  0  0
   22.5425  -21.6256  -15.1106 C   0  0  0  0  0  0  0  0  0  0  0  0
   23.3841  -21.7546  -16.1735 N   0  0  0  0  0  0  0  0  0  0  0  0
   23.7955  -20.5413  -16.5797 C   0  0  0  0  0  0  0  0  0  0  0  0
   24.6353  -20.1253  -17.5921 C   0  0  0  0  0  0  0  0  0  0  0  0
   24.9119  -18.7890  -17.8190 C   0  0  0  0  0  0  0  0  0  0  0  0
   24.3136  -17.8639  -16.9893 C   0  0  0  0  0  0  0  0  0  0  0  0
   23.4750  -18.2833  -15.9788 C   0  0  0  0  0  0  0  0  0  0  0  0
   23.1933  -19.6246  -15.7459 C   0  0  0  0  0  0  0  0  0  0  0  0
   20.6876  -21.5710  -12.6346 C   0  0  0  0  0  0  0  0  0  0  0  0
   19.3399  -21.4474  -12.8973 O   0  0  0  0  0  0  0  0  0  0  0  0
   21.1702  -22.7166  -12.5091 O   0  0  0  0  0  0  0  0  0  0  0  0
  1  2  1  0
  3  2  1  0
  4  3  1  0
  5  4  1  0
  5  1  1  0
  5  6  1  1
  6 13  1  0
  7  6  2  0
  9  8  1  0
 10  9  1  0
 10 11  1  1
 12 13  1  6
 12 10  1  0
 14 16  1  0
 14 12  1  0
 15 14  2  0
 17 16  1  0
 17 28  1  0
 17 18  1  6
 19 18  1  0
 20 19  2  0
 21 22  1  0
 21 20  1  0
 22 27  2  0
 23 22  1  0
 23 24  2  0
 24 25  1  0
 25 26  2  0
 27 19  1  0
 27 26  1  0
 28 30  2  0
 28 29  1  0
M  END
$$$$
