PIW.pdb
     RDKit          3D

 30 32  0  0  1  0  0  0  0  0999 V2000
   26.4099  -17.6653  -16.4720 N   0  0  0  0  0  0  0  0  0  0  0  0
   26.4973  -16.8117  -17.6267 C   0  0  0  0  0  0  0  0  0  0  0  0
   26.7187  -17.6848  -18.8295 C   0  0  0  0  0  0  0  0  0  0  0  0
   27.0124  -19.0500  -18.2002 C   0  0  0  0  0  0  0  0  0  0  0  0
   26.1453  -18.9843  -16.9655 C   0  0  1  0  0  0  0  0  0  0  0  0
   26.4482  -20.0501  -16.0064 C   0  0  0  0  0  0  0  0  0  0  0  0
   26.1044  -21.2271  -16.2374 O   0  0  0  0  0  0  0  0  0  0  0  0
   29.6520  -20.9021  -10.8398 C   0  0  0  0  0  0  0  0  0  0  0  0
   29.3151  -21.4527  -12.1928 C   0  0  0  0  0  0  0  0  0  0  0  0
   28.8470  -20.3692  -13.1453 C   0  0  2  0  0  0  0  0  0  0  0  0
   28.6361  -19.0740  -12.4107 C   0  0  0  0  0  0  0  0  0  0  0  0
   27.6139  -20.8005  -13.9055 C   0  0  2  0  0  0  0  0  0  0  0  0
   27.1419  -19.7527  -14.7939 N   0  0  0  0  0  0  0  0  0  0  0  0
   26.5289  -21.2255  -12.9773 C   0  0  0  0  0  0  0  0  0  0  0  0
   26.6222  -22.1979  -12.2092 O   0  0  0  0  0  0  0  0  0  0  0  0
   25.2842  -20.5222  -12.9130 N   0  0  0  0  0  0  0  0  0  0  0  0
   24.2451  -20.7637  -11.9926 C   0  0  1  0  0  0  0  0  0  0  0  0
   23.9935  -19.7300  -10.9553 C   0  0  0  0  0  0  0  0  0  0  0  0
   22.8386  -20.0969  -10.0905 C   0  0  0  0  0  0  0  0  0  0  0  0
   22.7992  -20.8015   -8.9116 C   0  0  0  0  0  0  0  0  0  0  0  0
   21.5078  -20.8843   -8.4873 N   0  0  0  0  0  0  0  0  0  0  0  0
   20.7004  -20.2529   -9.3567 C   0  0  0  0  0  0  0  0  0  0  0  0
   19.3365  -20.0488   -9.3928 C   0  0  0  0  0  0  0  0  0  0  0  0
   18.7218  -19.3502  -10.4165 C   0  0  0  0  0  0  0  0  0  0  0  0
   19.5250  -18.8526  -11.4212 C   0  0  0  0  0  0  0  0  0  0  0  0
   20.8875  -19.0586  -11.3818 C   0  0  0  0  0  0  0  0  0  0  0  0
   21.5107  -19.7597  -10.3558 C   0  0  0  0  0  0  0  0  0  0  0  0
   22.9977  -21.0233  -12.7459 C   0  0  0  0  0  0  0  0  0  0  0  0
   22.7568  -20.5190  -14.0063 O   0  0  0  0  0  0  0  0  0  0  0  0
   22.1225  -21.7352  -12.2090 O   0  0  0  0  0  0  0  0  0  0  0  0
  1  2  1  0
  3  2  1  0
  4  3  1  0
  5  4  1  0
  5  1  1  0
  5  6  1  1
  6 13  1  0
  7  6  2  0
  9  8  1  0
 10  9  1  0
 10 11  1  1
 12 13  1  1
 12 10  1  0
 14 16  1  0
 14 12  1  0
 15 14  2  0
 17 16  1  0
 17 28  1  0
 17 18  1  1
 19 18  1  0
 20 19  2  0
 21 22  1  0
 21 20  1  0
 22 27  2  0
 23 22  1  0
 23 24  2  0
 24 25  1  0
 25 26  2  0
 27 19  1  0
 27 26  1  0
 28 30  2  0
 28 29  1  0
M  END
$$$$
