PIW.pdb
     RDKit          3D

 30 32  0  0  1  0  0  0  0  0999 V2000
   30.1151  -17.7460  -17.3888 N   0  0  0  0  0  0  0  0  0  0  0  0
   31.0691  -16.8501  -17.9863 C   0  0  0  0  0  0  0  0  0  0  0  0
   30.3285  -15.9607  -18.9446 C   0  0  0  0  0  0  0  0  0  0  0  0
   28.9500  -16.6243  -19.0172 C   0  0  0  0  0  0  0  0  0  0  0  0
   28.8237  -17.1671  -17.6136 C   0  0  1  0  0  0  0  0  0  0  0  0
   27.7145  -18.1146  -17.4732 C   0  0  0  0  0  0  0  0  0  0  0  0
   26.5340  -17.7324  -17.6048 O   0  0  0  0  0  0  0  0  0  0  0  0
   26.2658  -23.7827  -18.9571 C   0  0  0  0  0  0  0  0  0  0  0  0
   26.0189  -22.6234  -18.0393 C   0  0  0  0  0  0  0  0  0  0  0  0
   27.1630  -21.6280  -18.0628 C   0  0  2  0  0  0  0  0  0  0  0  0
   28.4685  -22.3156  -17.7719 C   0  0  0  0  0  0  0  0  0  0  0  0
   26.9058  -20.4724  -17.1234 C   0  0  2  0  0  0  0  0  0  0  0  0
   27.9732  -19.4889  -17.1835 N   0  0  0  0  0  0  0  0  0  0  0  0
   26.7119  -20.9469  -15.7246 C   0  0  0  0  0  0  0  0  0  0  0  0
   27.4615  -21.7653  -15.1656 O   0  0  0  0  0  0  0  0  0  0  0  0
   25.6245  -20.4771  -14.9215 N   0  0  0  0  0  0  0  0  0  0  0  0
   25.4041  -20.7885  -13.5652 C   0  0  1  0  0  0  0  0  0  0  0  0
   25.5364  -19.6860  -12.5779 C   0  0  0  0  0  0  0  0  0  0  0  0
   25.1060  -20.1174  -11.2196 C   0  0  0  0  0  0  0  0  0  0  0  0
   25.8382  -20.6302  -10.1762 C   0  0  0  0  0  0  0  0  0  0  0  0
   25.0043  -20.8768   -9.1281 N   0  0  0  0  0  0  0  0  0  0  0  0
   23.7456  -20.5393   -9.4573 C   0  0  0  0  0  0  0  0  0  0  0  0
   22.5502  -20.5898   -8.7705 C   0  0  0  0  0  0  0  0  0  0  0  0
   21.3569  -20.1760   -9.3349 C   0  0  0  0  0  0  0  0  0  0  0  0
   21.3943  -19.7016  -10.6294 C   0  0  0  0  0  0  0  0  0  0  0  0
   22.5906  -19.6526  -11.3125 C   0  0  0  0  0  0  0  0  0  0  0  0
   23.7927  -20.0669  -10.7507 C   0  0  0  0  0  0  0  0  0  0  0  0
   24.0681  -21.4123  -13.4349 C   0  0  0  0  0  0  0  0  0  0  0  0
   23.0154  -21.1278  -14.2785 O   0  0  0  0  0  0  0  0  0  0  0  0
   23.8903  -22.2368  -12.5132 O   0  0  0  0  0  0  0  0  0  0  0  0
  1  2  1  0
  3  2  1  0
  4  3  1  0
  5  4  1  0
  5  1  1  0
  5  6  1  6
  6 13  1  0
  7  6  2  0
  9  8  1  0
 10  9  1  0
 10 11  1  1
 12 13  1  1
 12 10  1  0
 14 16  1  0
 14 12  1  0
 15 14  2  0
 17 16  1  0
 17 28  1  0
 17 18  1  1
 19 18  1  0
 20 19  2  0
 21 22  1  0
 21 20  1  0
 22 27  2  0
 23 22  1  0
 23 24  2  0
 24 25  1  0
 25 26  2  0
 27 19  1  0
 27 26  1  0
 28 30  2  0
 28 29  1  0
M  END
$$$$
