PIW.pdb
     RDKit          3D

 30 32  0  0  1  0  0  0  0  0999 V2000
   27.9644  -18.1214  -17.1987 N   0  0  0  0  0  0  0  0  0  0  0  0
   27.8569  -16.7863  -17.7235 C   0  0  0  0  0  0  0  0  0  0  0  0
   27.4195  -15.8847  -16.6039 C   0  0  0  0  0  0  0  0  0  0  0  0
   27.0402  -16.8805  -15.5036 C   0  0  0  0  0  0  0  0  0  0  0  0
   28.0292  -17.9895  -15.7732 C   0  0  1  0  0  0  0  0  0  0  0  0
   27.7074  -19.2209  -15.0468 C   0  0  0  0  0  0  0  0  0  0  0  0
   26.9914  -20.0977  -15.5716 O   0  0  0  0  0  0  0  0  0  0  0  0
   30.4573  -20.6000  -10.1996 C   0  0  0  0  0  0  0  0  0  0  0  0
   29.3724  -20.0373  -11.0678 C   0  0  0  0  0  0  0  0  0  0  0  0
   28.8054  -21.0791  -12.0132 C   0  0  2  0  0  0  0  0  0  0  0  0
   29.9020  -21.7043  -12.8306 C   0  0  0  0  0  0  0  0  0  0  0  0
   27.7103  -20.4986  -12.8780 C   0  0  2  0  0  0  0  0  0  0  0  0
   28.2109  -19.4313  -13.7269 N   0  0  0  0  0  0  0  0  0  0  0  0
   26.5687  -20.0157  -12.0515 C   0  0  0  0  0  0  0  0  0  0  0  0
   26.4739  -18.8538  -11.6212 O   0  0  0  0  0  0  0  0  0  0  0  0
   25.4868  -20.8821  -11.6951 N   0  0  0  0  0  0  0  0  0  0  0  0
   24.3477  -20.5182  -10.9502 C   0  0  1  0  0  0  0  0  0  0  0  0
   23.0182  -20.8606  -11.5185 C   0  0  0  0  0  0  0  0  0  0  0  0
   22.7156  -20.0435  -12.7255 C   0  0  0  0  0  0  0  0  0  0  0  0
   23.4414  -19.0440  -13.3273 C   0  0  0  0  0  0  0  0  0  0  0  0
   22.7556  -18.5896  -14.4126 N   0  0  0  0  0  0  0  0  0  0  0  0
   21.6001  -19.2647  -14.5376 C   0  0  0  0  0  0  0  0  0  0  0  0
   20.5657  -19.1941  -15.4477 C   0  0  0  0  0  0  0  0  0  0  0  0
   19.4543  -20.0139  -15.3665 C   0  0  0  0  0  0  0  0  0  0  0  0
   19.4064  -20.9227  -14.3302 C   0  0  0  0  0  0  0  0  0  0  0  0
   20.4419  -20.9903  -13.4228 C   0  0  0  0  0  0  0  0  0  0  0  0
   21.5611  -20.1693  -13.4992 C   0  0  0  0  0  0  0  0  0  0  0  0
   24.4685  -21.0929   -9.5914 C   0  0  0  0  0  0  0  0  0  0  0  0
   23.6623  -20.7180   -8.5377 O   0  0  0  0  0  0  0  0  0  0  0  0
   25.3459  -21.9602   -9.3944 O   0  0  0  0  0  0  0  0  0  0  0  0
  1  2  1  0
  3  2  1  0
  4  3  1  0
  5  4  1  0
  5  1  1  0
  5  6  1  1
  6 13  1  0
  7  6  2  0
  9  8  1  0
 10  9  1  0
 10 11  1  6
 12 13  1  1
 12 10  1  0
 14 16  1  0
 14 12  1  0
 15 14  2  0
 17 16  1  0
 17 28  1  0
 17 18  1  6
 19 18  1  0
 20 19  2  0
 21 22  1  0
 21 20  1  0
 22 27  2  0
 23 22  1  0
 23 24  2  0
 24 25  1  0
 25 26  2  0
 27 19  1  0
 27 26  1  0
 28 30  2  0
 28 29  1  0
M  END
$$$$
