PIW.pdb
     RDKit          3D

 30 32  0  0  1  0  0  0  0  0999 V2000
   27.8968  -20.2909  -15.7369 N   0  0  0  0  0  0  0  0  0  0  0  0
   29.2317  -20.2628  -16.2724 C   0  0  0  0  0  0  0  0  0  0  0  0
   29.7949  -21.6527  -16.1794 C   0  0  0  0  0  0  0  0  0  0  0  0
   28.7619  -22.3728  -15.3074 C   0  0  0  0  0  0  0  0  0  0  0  0
   27.4953  -21.6664  -15.7287 C   0  0  1  0  0  0  0  0  0  0  0  0
   26.3676  -21.9515  -14.8372 C   0  0  0  0  0  0  0  0  0  0  0  0
   25.9029  -23.1064  -14.7525 O   0  0  0  0  0  0  0  0  0  0  0  0
   26.3931  -20.6214   -9.8039 C   0  0  0  0  0  0  0  0  0  0  0  0
   26.0746  -21.2489  -11.1276 C   0  0  0  0  0  0  0  0  0  0  0  0
   24.8860  -20.5865  -11.7976 C   0  0  2  0  0  0  0  0  0  0  0  0
   23.6633  -20.6896  -10.9282 C   0  0  0  0  0  0  0  0  0  0  0  0
   24.6509  -21.1486  -13.1807 C   0  0  2  0  0  0  0  0  0  0  0  0
   25.7866  -20.9082  -14.0539 N   0  0  0  0  0  0  0  0  0  0  0  0
   23.4044  -20.5976  -13.7825 C   0  0  0  0  0  0  0  0  0  0  0  0
   23.3057  -19.4388  -14.2202 O   0  0  0  0  0  0  0  0  0  0  0  0
   22.2174  -21.3891  -13.8952 N   0  0  0  0  0  0  0  0  0  0  0  0
   20.9994  -20.9748  -14.4696 C   0  0  1  0  0  0  0  0  0  0  0  0
   19.8162  -21.8526  -14.2765 C   0  0  0  0  0  0  0  0  0  0  0  0
   19.3090  -21.7825  -12.8786 C   0  0  0  0  0  0  0  0  0  0  0  0
   19.6826  -22.4888  -11.7609 C   0  0  0  0  0  0  0  0  0  0  0  0
   18.9312  -22.0752  -10.7031 N   0  0  0  0  0  0  0  0  0  0  0  0
   18.0754  -21.1170  -11.0981 C   0  0  0  0  0  0  0  0  0  0  0  0
   17.1171  -20.3815  -10.4318 C   0  0  0  0  0  0  0  0  0  0  0  0
   16.3426  -19.4289  -11.0694 C   0  0  0  0  0  0  0  0  0  0  0  0
   16.5581  -19.2295  -12.4169 C   0  0  0  0  0  0  0  0  0  0  0  0
   17.5165  -19.9662  -13.0794 C   0  0  0  0  0  0  0  0  0  0  0  0
   18.2977  -20.9247  -12.4442 C   0  0  0  0  0  0  0  0  0  0  0  0
   20.6886  -19.6110  -13.9852 C   0  0  0  0  0  0  0  0  0  0  0  0
   19.8767  -18.7323  -14.6704 O   0  0  0  0  0  0  0  0  0  0  0  0
   21.1891  -19.2424  -12.9015 O   0  0  0  0  0  0  0  0  0  0  0  0
  1  2  1  0
  3  2  1  0
  4  3  1  0
  5  4  1  0
  5  1  1  0
  5  6  1  1
  6 13  1  0
  7  6  2  0
  9  8  1  0
 10  9  1  0
 10 11  1  1
 12 13  1  6
 12 10  1  0
 14 16  1  0
 14 12  1  0
 15 14  2  0
 17 16  1  0
 17 28  1  0
 17 18  1  1
 19 18  1  0
 20 19  2  0
 21 22  1  0
 21 20  1  0
 22 27  2  0
 23 22  1  0
 23 24  2  0
 24 25  1  0
 25 26  2  0
 27 19  1  0
 27 26  1  0
 28 30  2  0
 28 29  1  0
M  END
$$$$
