PIW.pdb
     RDKit          3D

 30 32  0  0  1  0  0  0  0  0999 V2000
   28.0352  -19.9656  -16.8472 N   0  0  0  0  0  0  0  0  0  0  0  0
   28.1969  -18.8658  -17.7604 C   0  0  0  0  0  0  0  0  0  0  0  0
   27.8970  -17.5976  -17.0122 C   0  0  0  0  0  0  0  0  0  0  0  0
   27.3009  -18.1179  -15.7007 C   0  0  0  0  0  0  0  0  0  0  0  0
   28.0743  -19.4037  -15.5295 C   0  0  1  0  0  0  0  0  0  0  0  0
   27.5035  -20.2715  -14.4957 C   0  0  0  0  0  0  0  0  0  0  0  0
   26.6899  -21.1677  -14.7988 O   0  0  0  0  0  0  0  0  0  0  0  0
   30.2979  -21.5916  -10.0205 C   0  0  0  0  0  0  0  0  0  0  0  0
   29.3559  -21.5718  -11.1865 C   0  0  0  0  0  0  0  0  0  0  0  0
   28.0247  -20.9388  -10.8290 C   0  0  2  0  0  0  0  0  0  0  0  0
   27.3353  -21.7296   -9.7515 C   0  0  0  0  0  0  0  0  0  0  0  0
   27.1540  -20.7620  -12.0517 C   0  0  2  0  0  0  0  0  0  0  0  0
   27.8731  -20.1007  -13.1268 N   0  0  0  0  0  0  0  0  0  0  0  0
   25.9066  -20.0169  -11.7228 C   0  0  0  0  0  0  0  0  0  0  0  0
   25.8841  -18.8108  -11.4242 O   0  0  0  0  0  0  0  0  0  0  0  0
   24.6287  -20.6611  -11.7313 N   0  0  0  0  0  0  0  0  0  0  0  0
   23.3838  -20.0296  -11.5407 C   0  0  1  0  0  0  0  0  0  0  0  0
   22.8156  -19.2733  -12.6865 C   0  0  0  0  0  0  0  0  0  0  0  0
   22.6469  -20.1434  -13.8827 C   0  0  0  0  0  0  0  0  0  0  0  0
   22.0487  -21.3738  -14.0098 C   0  0  0  0  0  0  0  0  0  0  0  0
   22.1394  -21.7793  -15.3067 N   0  0  0  0  0  0  0  0  0  0  0  0
   22.7810  -20.8474  -16.0323 C   0  0  0  0  0  0  0  0  0  0  0  0
   23.1263  -20.7698  -17.3658 C   0  0  0  0  0  0  0  0  0  0  0  0
   23.8012  -19.6824  -17.8911 C   0  0  0  0  0  0  0  0  0  0  0  0
   24.1266  -18.6563  -17.0288 C   0  0  0  0  0  0  0  0  0  0  0  0
   23.7799  -18.7374  -15.6971 C   0  0  0  0  0  0  0  0  0  0  0  0
   23.1018  -19.8274  -15.1635 C   0  0  0  0  0  0  0  0  0  0  0  0
   22.4061  -21.0418  -11.0817 C   0  0  0  0  0  0  0  0  0  0  0  0
   21.1047  -20.7371  -10.7438 O   0  0  0  0  0  0  0  0  0  0  0  0
   22.7835  -22.2299  -10.9979 O   0  0  0  0  0  0  0  0  0  0  0  0
  1  2  1  0
  3  2  1  0
  4  3  1  0
  5  4  1  0
  5  1  1  0
  5  6  1  1
  6 13  1  0
  7  6  2  0
  9  8  1  0
 10  9  1  0
 10 11  1  1
 12 13  1  6
 12 10  1  0
 14 16  1  0
 14 12  1  0
 15 14  2  0
 17 16  1  0
 17 28  1  0
 17 18  1  6
 19 18  1  0
 20 19  2  0
 21 22  1  0
 21 20  1  0
 22 27  2  0
 23 22  1  0
 23 24  2  0
 24 25  1  0
 25 26  2  0
 27 19  1  0
 27 26  1  0
 28 30  2  0
 28 29  1  0
M  END
$$$$
