PIW.pdb
     RDKit          3D

 30 32  0  0  1  0  0  0  0  0999 V2000
   28.3445  -16.9778  -17.1785 N   0  0  0  0  0  0  0  0  0  0  0  0
   29.4232  -16.9978  -18.1302 C   0  0  0  0  0  0  0  0  0  0  0  0
   30.4021  -18.0516  -17.6952 C   0  0  0  0  0  0  0  0  0  0  0  0
   29.9029  -18.4108  -16.2924 C   0  0  0  0  0  0  0  0  0  0  0  0
   28.4150  -18.2180  -16.4641 C   0  0  1  0  0  0  0  0  0  0  0  0
   27.6964  -18.2104  -15.1870 C   0  0  0  0  0  0  0  0  0  0  0  0
   27.7773  -17.2295  -14.4200 O   0  0  0  0  0  0  0  0  0  0  0  0
   24.2618  -17.5901  -15.6111 C   0  0  0  0  0  0  0  0  0  0  0  0
   24.1449  -17.9192  -14.1533 C   0  0  0  0  0  0  0  0  0  0  0  0
   24.6381  -19.3205  -13.8473 C   0  0  2  0  0  0  0  0  0  0  0  0
   23.8483  -19.9247  -12.7191 C   0  0  0  0  0  0  0  0  0  0  0  0
   26.1243  -19.3327  -13.5730 C   0  0  2  0  0  0  0  0  0  0  0  0
   26.8936  -19.3283  -14.8052 N   0  0  0  0  0  0  0  0  0  0  0  0
   26.5068  -20.4951  -12.7233 C   0  0  0  0  0  0  0  0  0  0  0  0
   26.7095  -21.6367  -13.1702 O   0  0  0  0  0  0  0  0  0  0  0  0
   26.6676  -20.3632  -11.3074 N   0  0  0  0  0  0  0  0  0  0  0  0
   26.8082  -21.4228  -10.3895 C   0  0  1  0  0  0  0  0  0  0  0  0
   27.9349  -21.3487   -9.4236 C   0  0  0  0  0  0  0  0  0  0  0  0
   27.6760  -20.3373   -8.3622 C   0  0  0  0  0  0  0  0  0  0  0  0
   26.7600  -19.3144   -8.3135 C   0  0  0  0  0  0  0  0  0  0  0  0
   26.8987  -18.6508   -7.1324 N   0  0  0  0  0  0  0  0  0  0  0  0
   27.8810  -19.2116   -6.4064 C   0  0  0  0  0  0  0  0  0  0  0  0
   28.4096  -18.9272   -5.1642 C   0  0  0  0  0  0  0  0  0  0  0  0
   29.4430  -19.6653   -4.6155 C   0  0  0  0  0  0  0  0  0  0  0  0
   29.9414  -20.7151   -5.3582 C   0  0  0  0  0  0  0  0  0  0  0  0
   29.4107  -20.9963   -6.5990 C   0  0  0  0  0  0  0  0  0  0  0  0
   28.3724  -20.2583   -7.1555 C   0  0  0  0  0  0  0  0  0  0  0  0
   25.5341  -21.5819   -9.6530 C   0  0  0  0  0  0  0  0  0  0  0  0
   25.2554  -22.6677   -8.8506 O   0  0  0  0  0  0  0  0  0  0  0  0
   24.6716  -20.6853   -9.7674 O   0  0  0  0  0  0  0  0  0  0  0  0
  1  2  1  0
  3  2  1  0
  4  3  1  0
  5  4  1  0
  5  1  1  0
  5  6  1  1
  6 13  1  0
  7  6  2  0
  9  8  1  0
 10  9  1  0
 10 11  1  1
 12 13  1  6
 12 10  1  0
 14 16  1  0
 14 12  1  0
 15 14  2  0
 17 16  1  0
 17 28  1  0
 17 18  1  1
 19 18  1  0
 20 19  2  0
 21 22  1  0
 21 20  1  0
 22 27  2  0
 23 22  1  0
 23 24  2  0
 24 25  1  0
 25 26  2  0
 27 19  1  0
 27 26  1  0
 28 30  2  0
 28 29  1  0
M  END
$$$$
