PPL.pdb
     RDKit          3D

 23 24  0  0  1  0  0  0  0  0999 V2000
    7.2597  -19.3230   21.1659 N   0  0  0  0  0  0  0  0  0  0  0  0
    5.8813  -19.8621   21.1707 C   0  0  0  0  0  0  0  0  0  0  0  0
    5.3790  -19.2727   22.4844 C   0  0  0  0  0  0  0  0  0  0  0  0
    6.1240  -17.9382   22.5906 C   0  0  0  0  0  0  0  0  0  0  0  0
    6.9716  -17.9309   21.3293 C   0  0  1  0  0  0  0  0  0  0  0  0
    8.0968  -17.0113   21.3780 C   0  0  0  0  0  0  0  0  0  0  0  0
    9.3035  -17.4880   21.4184 O   0  0  0  0  0  0  0  0  0  0  0  0
    7.9453  -15.6175   21.3840 N   0  0  0  0  0  0  0  0  0  0  0  0
    6.6151  -14.9629   21.3453 C   0  0  0  0  0  0  0  0  0  0  0  0
    6.8532  -13.5370   20.9648 C   0  0  0  0  0  0  0  0  0  0  0  0
    8.2850  -13.4805   20.5417 C   0  0  0  0  0  0  0  0  0  0  0  0
    8.9057  -14.5710   21.4160 C   0  0  1  0  0  0  0  0  0  0  0  0
    9.0621  -14.0483   22.8223 C   0  0  0  0  0  0  0  0  0  0  0  0
    9.3294  -12.8295   22.9535 O   0  0  0  0  0  0  0  0  0  0  0  0
    5.5558  -12.4231   26.3867 C   0  0  0  0  0  0  0  0  0  0  0  0
    6.9746  -12.9805   26.5936 C   0  0  2  0  0  0  0  0  0  0  0  0
    7.8138  -11.8882   27.1894 C   0  0  0  0  0  0  0  0  0  0  0  0
    7.4269  -13.4728   25.2723 C   0  0  0  0  0  0  0  0  0  0  0  0
    8.5993  -14.3931   25.2552 C   0  0  2  0  0  0  0  0  0  0  0  0
    8.9156  -14.8896   23.9527 N   0  0  0  0  0  0  0  0  0  0  0  0
    8.5231  -15.4907   26.2516 C   0  0  0  0  0  0  0  0  0  0  0  0
    8.7973  -15.3296   27.4677 O   0  0  0  0  0  0  0  0  0  0  0  0
    8.1345  -16.7803   25.8726 O   0  0  0  0  0  0  0  0  0  0  0  0
  1  5  1  0
  1  2  1  0
  2  3  1  0
  4  3  1  0
  5  6  1  1
  5  4  1  0
  6  7  2  0
  6  8  1  0
  8  9  1  0
 10  9  1  0
 11 10  1  0
 11 12  1  0
 12  8  1  0
 13 20  1  0
 12 13  1  1
 14 13  2  0
 16 15  1  6
 17 16  1  0
 18 16  1  0
 19 20  1  0
 19 18  1  6
 21 19  1  0
 22 21  2  0
 23 21  1  0
M  END
$$$$
