PPL.pdb
     RDKit          3D

 23 24  0  0  1  0  0  0  0  0999 V2000
   11.0216  -17.7190   19.0918 N   0  0  0  0  0  0  0  0  0  0  0  0
   10.5167  -18.8617   18.2983 C   0  0  0  0  0  0  0  0  0  0  0  0
    9.9668  -19.7330   19.4226 C   0  0  0  0  0  0  0  0  0  0  0  0
    9.4881  -18.7181   20.4657 C   0  0  0  0  0  0  0  0  0  0  0  0
    9.8327  -17.3881   19.8163 C   0  0  1  0  0  0  0  0  0  0  0  0
    9.8998  -16.2743   20.7484 C   0  0  0  0  0  0  0  0  0  0  0  0
   11.0247  -15.6457   20.9047 O   0  0  0  0  0  0  0  0  0  0  0  0
    8.7985  -15.8374   21.4980 N   0  0  0  0  0  0  0  0  0  0  0  0
    7.4500  -16.4372   21.3521 C   0  0  0  0  0  0  0  0  0  0  0  0
    6.4887  -15.4821   21.9833 C   0  0  0  0  0  0  0  0  0  0  0  0
    7.2825  -14.2424   22.2391 C   0  0  0  0  0  0  0  0  0  0  0  0
    8.6789  -14.8176   22.4799 C   0  0  1  0  0  0  0  0  0  0  0  0
    8.7360  -15.4153   23.8637 C   0  0  0  0  0  0  0  0  0  0  0  0
    8.4960  -16.6424   23.9675 O   0  0  0  0  0  0  0  0  0  0  0  0
   10.0059  -13.5213   29.6162 C   0  0  0  0  0  0  0  0  0  0  0  0
   10.1619  -14.6908   28.6290 C   0  0  2  0  0  0  0  0  0  0  0  0
   11.5904  -15.1476   28.6815 C   0  0  0  0  0  0  0  0  0  0  0  0
    9.7089  -14.1888   27.3116 C   0  0  0  0  0  0  0  0  0  0  0  0
    9.4719  -15.2013   26.2437 C   0  0  2  0  0  0  0  0  0  0  0  0
    9.0463  -14.6329   25.0033 N   0  0  0  0  0  0  0  0  0  0  0  0
    8.5932  -16.3241   26.6571 C   0  0  0  0  0  0  0  0  0  0  0  0
    9.0255  -17.3522   27.2368 O   0  0  0  0  0  0  0  0  0  0  0  0
    7.2159  -16.2863   26.4141 O   0  0  0  0  0  0  0  0  0  0  0  0
  1  5  1  0
  1  2  1  0
  2  3  1  0
  4  3  1  0
  5  6  1  1
  5  4  1  0
  6  7  2  0
  6  8  1  0
  8  9  1  0
 10  9  1  0
 11 10  1  0
 11 12  1  0
 12  8  1  0
 13 20  1  0
 12 13  1  1
 14 13  2  0
 16 15  1  1
 17 16  1  0
 18 16  1  0
 19 20  1  0
 19 18  1  1
 21 19  1  0
 22 21  2  0
 23 21  1  0
M  END
$$$$
