PPL.pdb
     RDKit          3D

 23 24  0  0  1  0  0  0  0  0999 V2000
    7.6724  -18.8830   19.8754 N   0  0  0  0  0  0  0  0  0  0  0  0
    6.3333  -19.4680   19.6404 C   0  0  0  0  0  0  0  0  0  0  0  0
    5.6780  -19.1583   20.9821 C   0  0  0  0  0  0  0  0  0  0  0  0
    6.3308  -17.8392   21.4078 C   0  0  0  0  0  0  0  0  0  0  0  0
    7.2897  -17.5596   20.2624 C   0  0  1  0  0  0  0  0  0  0  0  0
    8.3499  -16.6216   20.5941 C   0  0  0  0  0  0  0  0  0  0  0  0
    9.5784  -17.0394   20.6266 O   0  0  0  0  0  0  0  0  0  0  0  0
    8.1122  -15.2708   20.8850 N   0  0  0  0  0  0  0  0  0  0  0  0
    6.7438  -14.7050   20.9679 C   0  0  0  0  0  0  0  0  0  0  0  0
    6.8921  -13.2194   20.8913 C   0  0  0  0  0  0  0  0  0  0  0  0
    8.3166  -12.9895   20.5038 C   0  0  0  0  0  0  0  0  0  0  0  0
    9.0058  -14.1965   21.1417 C   0  0  1  0  0  0  0  0  0  0  0  0
    9.1329  -13.9660   22.6270 C   0  0  0  0  0  0  0  0  0  0  0  0
    9.6025  -12.8630   22.9968 O   0  0  0  0  0  0  0  0  0  0  0  0
    5.5725  -12.7118   26.3787 C   0  0  0  0  0  0  0  0  0  0  0  0
    7.0424  -13.1591   26.4542 C   0  0  2  0  0  0  0  0  0  0  0  0
    7.8326  -12.0363   27.0602 C   0  0  0  0  0  0  0  0  0  0  0  0
    7.4361  -13.5349   25.0771 C   0  0  0  0  0  0  0  0  0  0  0  0
    8.4305  -14.6356   24.9313 C   0  0  2  0  0  0  0  0  0  0  0  0
    8.7415  -14.9468   23.5714 N   0  0  0  0  0  0  0  0  0  0  0  0
    8.1003  -15.8576   25.7067 C   0  0  0  0  0  0  0  0  0  0  0  0
    7.3325  -16.7542   25.2747 O   0  0  0  0  0  0  0  0  0  0  0  0
    8.6407  -16.0693   26.9799 O   0  0  0  0  0  0  0  0  0  0  0  0
  1  5  1  0
  1  2  1  0
  2  3  1  0
  4  3  1  0
  5  6  1  1
  5  4  1  0
  6  7  2  0
  6  8  1  0
  8  9  1  0
 10  9  1  0
 11 10  1  0
 11 12  1  0
 12  8  1  0
 13 20  1  0
 12 13  1  1
 14 13  2  0
 16 15  1  6
 17 16  1  0
 18 16  1  0
 19 20  1  0
 19 18  1  6
 21 19  1  0
 22 21  2  0
 23 21  1  0
M  END
$$$$
