PPL.pdb
     RDKit          3D

 23 24  0  0  1  0  0  0  0  0999 V2000
    6.9571  -19.6602   21.3423 N   0  0  0  0  0  0  0  0  0  0  0  0
    5.5617  -20.1342   21.4790 C   0  0  0  0  0  0  0  0  0  0  0  0
    5.1961  -19.4790   22.8067 C   0  0  0  0  0  0  0  0  0  0  0  0
    6.0048  -18.1777   22.8028 C   0  0  0  0  0  0  0  0  0  0  0  0
    6.7445  -18.2515   21.4773 C   0  0  1  0  0  0  0  0  0  0  0  0
    7.9088  -17.3841   21.4004 C   0  0  0  0  0  0  0  0  0  0  0  0
    9.0916  -17.9152   21.3366 O   0  0  0  0  0  0  0  0  0  0  0  0
    7.8205  -15.9849   21.3917 N   0  0  0  0  0  0  0  0  0  0  0  0
    6.5211  -15.2712   21.3500 C   0  0  0  0  0  0  0  0  0  0  0  0
    6.8220  -13.8617   20.9533 C   0  0  0  0  0  0  0  0  0  0  0  0
    8.2534  -13.8746   20.5252 C   0  0  0  0  0  0  0  0  0  0  0  0
    8.8273  -14.9826   21.4094 C   0  0  1  0  0  0  0  0  0  0  0  0
    9.0122  -14.4524   22.8095 C   0  0  0  0  0  0  0  0  0  0  0  0
    9.9693  -13.6642   23.0012 O   0  0  0  0  0  0  0  0  0  0  0  0
    5.5414  -12.2318   27.0202 C   0  0  0  0  0  0  0  0  0  0  0  0
    6.9797  -12.7373   26.8152 C   0  0  2  0  0  0  0  0  0  0  0  0
    7.9035  -11.5640   26.9644 C   0  0  0  0  0  0  0  0  0  0  0  0
    7.0063  -13.3953   25.4889 C   0  0  0  0  0  0  0  0  0  0  0  0
    8.2039  -14.2213   25.1643 C   0  0  2  0  0  0  0  0  0  0  0  0
    8.1476  -14.8228   23.8689 N   0  0  0  0  0  0  0  0  0  0  0  0
    8.5570  -15.2142   26.2097 C   0  0  0  0  0  0  0  0  0  0  0  0
    8.0430  -16.3599   26.2653 O   0  0  0  0  0  0  0  0  0  0  0  0
    9.4975  -14.9115   27.2005 O   0  0  0  0  0  0  0  0  0  0  0  0
  1  5  1  0
  1  2  1  0
  2  3  1  0
  4  3  1  0
  5  6  1  1
  5  4  1  0
  6  7  2  0
  6  8  1  0
  8  9  1  0
 10  9  1  0
 11 10  1  0
 11 12  1  0
 12  8  1  0
 13 20  1  0
 12 13  1  1
 14 13  2  0
 16 15  1  6
 17 16  1  0
 18 16  1  0
 19 20  1  0
 19 18  1  1
 21 19  1  0
 22 21  2  0
 23 21  1  0
M  END
$$$$
