PPL.pdb
     RDKit          3D

 23 24  0  0  1  0  0  0  0  0999 V2000
    8.4327  -15.0329   19.0257 N   0  0  0  0  0  0  0  0  0  0  0  0
    8.9470  -14.3316   17.8281 C   0  0  0  0  0  0  0  0  0  0  0  0
    7.8519  -13.2848   17.6526 C   0  0  0  0  0  0  0  0  0  0  0  0
    7.3975  -12.9926   19.0863 C   0  0  0  0  0  0  0  0  0  0  0  0
    8.2806  -13.9168   19.9084 C   0  0  1  0  0  0  0  0  0  0  0  0
    7.7773  -14.1801   21.2467 C   0  0  0  0  0  0  0  0  0  0  0  0
    7.3386  -13.1916   21.9646 O   0  0  0  0  0  0  0  0  0  0  0  0
    7.7405  -15.4630   21.8110 N   0  0  0  0  0  0  0  0  0  0  0  0
    8.5166  -16.5979   21.2550 C   0  0  0  0  0  0  0  0  0  0  0  0
    7.9320  -17.8420   21.8426 C   0  0  0  0  0  0  0  0  0  0  0  0
    6.6717  -17.4012   22.5131 C   0  0  0  0  0  0  0  0  0  0  0  0
    7.0300  -15.9741   22.9302 C   0  0  1  0  0  0  0  0  0  0  0  0
    7.9281  -16.0233   24.1412 C   0  0  0  0  0  0  0  0  0  0  0  0
    9.1385  -16.2890   23.9456 O   0  0  0  0  0  0  0  0  0  0  0  0
    8.1310  -12.1007   25.8982 C   0  0  0  0  0  0  0  0  0  0  0  0
    6.9207  -12.9427   26.3373 C   0  0  2  0  0  0  0  0  0  0  0  0
    5.9569  -12.0298   27.0371 C   0  0  0  0  0  0  0  0  0  0  0  0
    7.4579  -14.0462   27.1658 C   0  0  0  0  0  0  0  0  0  0  0  0
    8.2036  -15.1258   26.4586 C   0  0  2  0  0  0  0  0  0  0  0  0
    7.4353  -15.7812   25.4471 N   0  0  0  0  0  0  0  0  0  0  0  0
    8.8578  -16.1038   27.3635 C   0  0  0  0  0  0  0  0  0  0  0  0
    8.5161  -17.3118   27.4256 O   0  0  0  0  0  0  0  0  0  0  0  0
    9.9058  -15.7153   28.2053 O   0  0  0  0  0  0  0  0  0  0  0  0
  1  5  1  0
  1  2  1  0
  2  3  1  0
  4  3  1  0
  5  6  1  1
  5  4  1  0
  6  7  2  0
  6  8  1  0
  8  9  1  0
 10  9  1  0
 11 10  1  0
 11 12  1  0
 12  8  1  0
 13 20  1  0
 12 13  1  1
 14 13  2  0
 16 15  1  1
 17 16  1  0
 18 16  1  0
 19 20  1  0
 19 18  1  1
 21 19  1  0
 22 21  2  0
 23 21  1  0
M  END
$$$$
