PPL.pdb
     RDKit          3D

 23 24  0  0  1  0  0  0  0  0999 V2000
    7.4181  -14.6771   18.7043 N   0  0  0  0  0  0  0  0  0  0  0  0
    8.0680  -13.7838   17.7193 C   0  0  0  0  0  0  0  0  0  0  0  0
    7.8440  -12.4396   18.4038 C   0  0  0  0  0  0  0  0  0  0  0  0
    7.8902  -12.7815   19.8966 C   0  0  0  0  0  0  0  0  0  0  0  0
    8.1238  -14.2831   19.8852 C   0  0  1  0  0  0  0  0  0  0  0  0
    7.7744  -14.9456   21.1314 C   0  0  0  0  0  0  0  0  0  0  0  0
    6.6065  -14.7328   21.6565 O   0  0  0  0  0  0  0  0  0  0  0  0
    8.6444  -15.8141   21.8056 N   0  0  0  0  0  0  0  0  0  0  0  0
    9.9922  -16.1498   21.2857 C   0  0  0  0  0  0  0  0  0  0  0  0
   10.4430  -17.3676   22.0263 C   0  0  0  0  0  0  0  0  0  0  0  0
    9.2335  -17.8467   22.7612 C   0  0  0  0  0  0  0  0  0  0  0  0
    8.4936  -16.5338   23.0212 C   0  0  1  0  0  0  0  0  0  0  0  0
    9.1714  -15.7992   24.1509 C   0  0  0  0  0  0  0  0  0  0  0  0
   10.3856  -15.5193   24.0046 O   0  0  0  0  0  0  0  0  0  0  0  0
    7.0781  -11.5600   26.3102 C   0  0  0  0  0  0  0  0  0  0  0  0
    7.2293  -13.0890   26.2343 C   0  0  2  0  0  0  0  0  0  0  0  0
    6.1509  -13.6989   27.0812 C   0  0  0  0  0  0  0  0  0  0  0  0
    8.6139  -13.3937   26.6616 C   0  0  0  0  0  0  0  0  0  0  0  0
    9.1049  -14.7826   26.4343 C   0  0  2  0  0  0  0  0  0  0  0  0
    8.4753  -15.4366   25.3303 N   0  0  0  0  0  0  0  0  0  0  0  0
    9.0948  -15.6356   27.6492 C   0  0  0  0  0  0  0  0  0  0  0  0
    9.7157  -15.3352   28.7000 O   0  0  0  0  0  0  0  0  0  0  0  0
    8.3785  -16.8372   27.6781 O   0  0  0  0  0  0  0  0  0  0  0  0
  1  5  1  0
  1  2  1  0
  2  3  1  0
  4  3  1  0
  5  6  1  1
  5  4  1  0
  6  7  2  0
  6  8  1  0
  8  9  1  0
 10  9  1  0
 11 10  1  0
 11 12  1  0
 12  8  1  0
 13 20  1  0
 12 13  1  1
 14 13  2  0
 16 15  1  1
 17 16  1  0
 18 16  1  0
 19 20  1  0
 19 18  1  1
 21 19  1  0
 22 21  2  0
 23 21  1  0
M  END
$$$$
