PPL.pdb
     RDKit          3D

 23 24  0  0  1  0  0  0  0  0999 V2000
    7.4330  -14.8033   18.1268 N   0  0  0  0  0  0  0  0  0  0  0  0
    8.1448  -13.8690   17.2263 C   0  0  0  0  0  0  0  0  0  0  0  0
    8.0764  -12.5986   18.0672 C   0  0  0  0  0  0  0  0  0  0  0  0
    8.1259  -13.1157   19.5086 C   0  0  0  0  0  0  0  0  0  0  0  0
    8.2052  -14.6212   19.3177 C   0  0  1  0  0  0  0  0  0  0  0  0
    7.8224  -15.3875   20.4925 C   0  0  0  0  0  0  0  0  0  0  0  0
    6.5634  -15.5225   20.7785 O   0  0  0  0  0  0  0  0  0  0  0  0
    8.7541  -15.9966   21.3449 N   0  0  0  0  0  0  0  0  0  0  0  0
   10.2069  -16.0194   21.0473 C   0  0  0  0  0  0  0  0  0  0  0  0
   10.8062  -17.0652   21.9315 C   0  0  0  0  0  0  0  0  0  0  0  0
    9.6411  -17.7917   22.5206 C   0  0  0  0  0  0  0  0  0  0  0  0
    8.5870  -16.6852   22.5764 C   0  0  1  0  0  0  0  0  0  0  0  0
    8.8933  -15.7677   23.7339 C   0  0  0  0  0  0  0  0  0  0  0  0
    9.9191  -15.0514   23.6404 O   0  0  0  0  0  0  0  0  0  0  0  0
    5.6554  -12.0307   26.8984 C   0  0  0  0  0  0  0  0  0  0  0  0
    7.0525  -12.6742   26.9182 C   0  0  2  0  0  0  0  0  0  0  0  0
    8.0622  -11.5844   26.7063 C   0  0  0  0  0  0  0  0  0  0  0  0
    7.0401  -13.7317   25.8818 C   0  0  0  0  0  0  0  0  0  0  0  0
    8.1823  -14.6895   25.8748 C   0  0  2  0  0  0  0  0  0  0  0  0
    8.0644  -15.7103   24.8813 N   0  0  0  0  0  0  0  0  0  0  0  0
    8.5019  -15.2615   27.2068 C   0  0  0  0  0  0  0  0  0  0  0  0
    8.8368  -14.5552   28.1911 O   0  0  0  0  0  0  0  0  0  0  0  0
    8.4435  -16.6416   27.4295 O   0  0  0  0  0  0  0  0  0  0  0  0
  1  5  1  0
  1  2  1  0
  2  3  1  0
  4  3  1  0
  5  6  1  1
  5  4  1  0
  6  7  2  0
  6  8  1  0
  8  9  1  0
 10  9  1  0
 11 10  1  0
 11 12  1  0
 12  8  1  0
 13 20  1  0
 12 13  1  1
 14 13  2  0
 16 15  1  6
 17 16  1  0
 18 16  1  0
 19 20  1  0
 19 18  1  1
 21 19  1  0
 22 21  2  0
 23 21  1  0
M  END
$$$$
