PPL.pdb
     RDKit          3D

 23 24  0  0  1  0  0  0  0  0999 V2000
    7.2798  -14.4511   18.5766 N   0  0  0  0  0  0  0  0  0  0  0  0
    8.0026  -13.5133   17.6885 C   0  0  0  0  0  0  0  0  0  0  0  0
    8.2185  -12.3557   18.6575 C   0  0  0  0  0  0  0  0  0  0  0  0
    8.3688  -13.0454   20.0174 C   0  0  0  0  0  0  0  0  0  0  0  0
    8.2091  -14.5145   19.6630 C   0  0  1  0  0  0  0  0  0  0  0  0
    7.8668  -15.3620   20.7937 C   0  0  0  0  0  0  0  0  0  0  0  0
    6.6167  -15.5872   21.0613 O   0  0  0  0  0  0  0  0  0  0  0  0
    8.8289  -15.9570   21.6220 N   0  0  0  0  0  0  0  0  0  0  0  0
   10.2773  -15.9290   21.3044 C   0  0  0  0  0  0  0  0  0  0  0  0
   10.9212  -16.9714   22.1610 C   0  0  0  0  0  0  0  0  0  0  0  0
    9.7876  -17.7445   22.7523 C   0  0  0  0  0  0  0  0  0  0  0  0
    8.7005  -16.6726   22.8427 C   0  0  1  0  0  0  0  0  0  0  0  0
    8.9946  -15.7670   24.0127 C   0  0  0  0  0  0  0  0  0  0  0  0
    9.4087  -14.6117   23.7523 O   0  0  0  0  0  0  0  0  0  0  0  0
    8.3697  -12.7320   26.7425 C   0  0  0  0  0  0  0  0  0  0  0  0
    7.2125  -13.1132   25.8034 C   0  0  2  0  0  0  0  0  0  0  0  0
    6.0073  -12.3195   26.2153 C   0  0  0  0  0  0  0  0  0  0  0  0
    7.0621  -14.5831   25.9008 C   0  0  0  0  0  0  0  0  0  0  0  0
    8.2482  -15.3581   26.3638 C   0  0  2  0  0  0  0  0  0  0  0  0
    8.8140  -16.1937   25.3515 N   0  0  0  0  0  0  0  0  0  0  0  0
    8.0280  -16.1070   27.6264 C   0  0  0  0  0  0  0  0  0  0  0  0
    8.5056  -15.7410   28.7300 O   0  0  0  0  0  0  0  0  0  0  0  0
    7.2630  -17.2783   27.6436 O   0  0  0  0  0  0  0  0  0  0  0  0
  1  5  1  0
  1  2  1  0
  2  3  1  0
  4  3  1  0
  5  6  1  1
  5  4  1  0
  6  7  2  0
  6  8  1  0
  8  9  1  0
 10  9  1  0
 11 10  1  0
 11 12  1  0
 12  8  1  0
 13 20  1  0
 12 13  1  1
 14 13  2  0
 16 15  1  1
 17 16  1  0
 18 16  1  0
 19 20  1  0
 19 18  1  6
 21 19  1  0
 22 21  2  0
 23 21  1  0
M  END
$$$$
