PPL.pdb
     RDKit          3D

 23 24  0  0  1  0  0  0  0  0999 V2000
    6.9619  -18.8477   20.4936 N   0  0  0  0  0  0  0  0  0  0  0  0
    5.5474  -19.2829   20.4795 C   0  0  0  0  0  0  0  0  0  0  0  0
    5.1718  -18.9845   21.9271 C   0  0  0  0  0  0  0  0  0  0  0  0
    6.0264  -17.7623   22.2781 C   0  0  0  0  0  0  0  0  0  0  0  0
    6.7966  -17.5162   20.9913 C   0  0  1  0  0  0  0  0  0  0  0  0
    7.9928  -16.7079   21.1632 C   0  0  0  0  0  0  0  0  0  0  0  0
    9.1581  -17.2689   21.0522 O   0  0  0  0  0  0  0  0  0  0  0  0
    7.9538  -15.3354   21.4468 N   0  0  0  0  0  0  0  0  0  0  0  0
    6.6913  -14.5572   21.4340 C   0  0  0  0  0  0  0  0  0  0  0  0
    7.0808  -13.1149   21.3803 C   0  0  0  0  0  0  0  0  0  0  0  0
    8.5483  -13.1178   21.0997 C   0  0  0  0  0  0  0  0  0  0  0  0
    8.9866  -14.4172   21.7766 C   0  0  1  0  0  0  0  0  0  0  0  0
    9.0397  -14.2043   23.2690 C   0  0  0  0  0  0  0  0  0  0  0  0
    9.8398  -13.3371   23.6953 O   0  0  0  0  0  0  0  0  0  0  0  0
    7.5678  -11.7677   26.1228 C   0  0  0  0  0  0  0  0  0  0  0  0
    6.7603  -12.9709   25.6064 C   0  0  2  0  0  0  0  0  0  0  0  0
    5.3090  -12.6974   25.8731 C   0  0  0  0  0  0  0  0  0  0  0  0
    7.3112  -14.1661   26.2850 C   0  0  0  0  0  0  0  0  0  0  0  0
    8.3915  -14.9112   25.5781 C   0  0  2  0  0  0  0  0  0  0  0  0
    8.2250  -14.9469   24.1589 N   0  0  0  0  0  0  0  0  0  0  0  0
    8.6551  -16.2643   26.1287 C   0  0  0  0  0  0  0  0  0  0  0  0
    8.5062  -17.3161   25.4568 O   0  0  0  0  0  0  0  0  0  0  0  0
    9.0898  -16.4316   27.4480 O   0  0  0  0  0  0  0  0  0  0  0  0
  1  5  1  0
  1  2  1  0
  2  3  1  0
  4  3  1  0
  5  6  1  1
  5  4  1  0
  6  7  2  0
  6  8  1  0
  8  9  1  0
 10  9  1  0
 11 10  1  0
 11 12  1  0
 12  8  1  0
 13 20  1  0
 12 13  1  1
 14 13  2  0
 16 15  1  1
 17 16  1  0
 18 16  1  0
 19 20  1  0
 19 18  1  1
 21 19  1  0
 22 21  2  0
 23 21  1  0
M  END
$$$$
