PPL.pdb
     RDKit          3D

 23 24  0  0  1  0  0  0  0  0999 V2000
    7.2183  -19.2914   21.2350 N   0  0  0  0  0  0  0  0  0  0  0  0
    5.8436  -19.8213   21.3757 C   0  0  0  0  0  0  0  0  0  0  0  0
    5.4667  -19.2058   22.7191 C   0  0  0  0  0  0  0  0  0  0  0  0
    6.2248  -17.8744   22.7326 C   0  0  0  0  0  0  0  0  0  0  0  0
    6.9532  -17.8947   21.3990 C   0  0  1  0  0  0  0  0  0  0  0  0
    8.0825  -16.9818   21.3278 C   0  0  0  0  0  0  0  0  0  0  0  0
    9.2800  -17.4643   21.1929 O   0  0  0  0  0  0  0  0  0  0  0  0
    7.9447  -15.5883   21.3985 N   0  0  0  0  0  0  0  0  0  0  0  0
    6.6245  -14.9265   21.5342 C   0  0  0  0  0  0  0  0  0  0  0  0
    6.8300  -13.4893   21.1778 C   0  0  0  0  0  0  0  0  0  0  0  0
    8.2047  -13.4249   20.5960 C   0  0  0  0  0  0  0  0  0  0  0  0
    8.9115  -14.5480   21.3562 C   0  0  1  0  0  0  0  0  0  0  0  0
    9.2317  -14.0753   22.7525 C   0  0  0  0  0  0  0  0  0  0  0  0
    9.8131  -12.9691   22.8629 O   0  0  0  0  0  0  0  0  0  0  0  0
    6.2280  -13.4843   26.9934 C   0  0  0  0  0  0  0  0  0  0  0  0
    7.2560  -12.5079   26.3964 C   0  0  2  0  0  0  0  0  0  0  0  0
    6.6034  -11.1603   26.2957 C   0  0  0  0  0  0  0  0  0  0  0  0
    7.6910  -13.0951   25.1085 C   0  0  0  0  0  0  0  0  0  0  0  0
    8.6258  -14.2544   25.1717 C   0  0  2  0  0  0  0  0  0  0  0  0
    8.8944  -14.8405   23.8960 N   0  0  0  0  0  0  0  0  0  0  0  0
    8.2494  -15.2827   26.1740 C   0  0  0  0  0  0  0  0  0  0  0  0
    8.4938  -15.1622   27.4010 O   0  0  0  0  0  0  0  0  0  0  0  0
    7.5924  -16.4562   25.7882 O   0  0  0  0  0  0  0  0  0  0  0  0
  1  5  1  0
  1  2  1  0
  2  3  1  0
  4  3  1  0
  5  6  1  1
  5  4  1  0
  6  7  2  0
  6  8  1  0
  8  9  1  0
 10  9  1  0
 11 10  1  0
 11 12  1  0
 12  8  1  0
 13 20  1  0
 12 13  1  1
 14 13  2  0
 16 15  1  6
 17 16  1  0
 18 16  1  0
 19 20  1  0
 19 18  1  6
 21 19  1  0
 22 21  2  0
 23 21  1  0
M  END
$$$$
