PPL.pdb
     RDKit          3D

 23 24  0  0  1  0  0  0  0  0999 V2000
    8.5764  -19.1154   20.4853 N   0  0  0  0  0  0  0  0  0  0  0  0
    7.3984  -19.9708   20.2185 C   0  0  0  0  0  0  0  0  0  0  0  0
    6.7169  -19.9028   21.5810 C   0  0  0  0  0  0  0  0  0  0  0  0
    7.0652  -18.5004   22.0903 C   0  0  0  0  0  0  0  0  0  0  0  0
    7.9141  -17.9396   20.9614 C   0  0  1  0  0  0  0  0  0  0  0  0
    8.7430  -16.8099   21.3495 C   0  0  0  0  0  0  0  0  0  0  0  0
   10.0338  -16.9463   21.3634 O   0  0  0  0  0  0  0  0  0  0  0  0
    8.2145  -15.5638   21.7149 N   0  0  0  0  0  0  0  0  0  0  0  0
    6.7552  -15.3074   21.7779 C   0  0  0  0  0  0  0  0  0  0  0  0
    6.5844  -13.8225   21.8008 C   0  0  0  0  0  0  0  0  0  0  0  0
    7.9364  -13.2699   21.4861 C   0  0  0  0  0  0  0  0  0  0  0  0
    8.8509  -14.3453   22.0742 C   0  0  1  0  0  0  0  0  0  0  0  0
    8.8871  -14.1976   23.5750 C   0  0  0  0  0  0  0  0  0  0  0  0
    8.9554  -13.0319   24.0338 O   0  0  0  0  0  0  0  0  0  0  0  0
    8.3130  -12.4474   26.7990 C   0  0  0  0  0  0  0  0  0  0  0  0
    7.2877  -12.9769   25.7817 C   0  0  2  0  0  0  0  0  0  0  0  0
    6.0090  -12.2174   25.9820 C   0  0  0  0  0  0  0  0  0  0  0  0
    7.1942  -14.4378   26.0046 C   0  0  0  0  0  0  0  0  0  0  0  0
    8.4367  -15.2365   25.8042 C   0  0  2  0  0  0  0  0  0  0  0  0
    8.8463  -15.3208   24.4374 N   0  0  0  0  0  0  0  0  0  0  0  0
    8.4076  -16.5745   26.4465 C   0  0  0  0  0  0  0  0  0  0  0  0
    8.3328  -16.7334   27.6911 O   0  0  0  0  0  0  0  0  0  0  0  0
    8.4635  -17.7424   25.6779 O   0  0  0  0  0  0  0  0  0  0  0  0
  1  5  1  0
  1  2  1  0
  2  3  1  0
  4  3  1  0
  5  6  1  1
  5  4  1  0
  6  7  2  0
  6  8  1  0
  8  9  1  0
 10  9  1  0
 11 10  1  0
 11 12  1  0
 12  8  1  0
 13 20  1  0
 12 13  1  1
 14 13  2  0
 16 15  1  1
 17 16  1  0
 18 16  1  0
 19 20  1  0
 19 18  1  6
 21 19  1  0
 22 21  2  0
 23 21  1  0
M  END
$$$$
