PPL.pdb
     RDKit          3D

 23 24  0  0  1  0  0  0  0  0999 V2000
    7.8888  -14.8228   18.5514 N   0  0  0  0  0  0  0  0  0  0  0  0
    8.5734  -13.8699   17.6493 C   0  0  0  0  0  0  0  0  0  0  0  0
    8.0892  -12.5541   18.2493 C   0  0  0  0  0  0  0  0  0  0  0  0
    7.9437  -12.8688   19.7416 C   0  0  0  0  0  0  0  0  0  0  0  0
    8.3517  -14.3309   19.8130 C   0  0  1  0  0  0  0  0  0  0  0  0
    7.8943  -15.0150   21.0117 C   0  0  0  0  0  0  0  0  0  0  0  0
    6.6654  -14.8597   21.4000 O   0  0  0  0  0  0  0  0  0  0  0  0
    8.7218  -15.8447   21.7813 N   0  0  0  0  0  0  0  0  0  0  0  0
   10.1530  -16.0600   21.4575 C   0  0  0  0  0  0  0  0  0  0  0  0
   10.5846  -17.2711   22.2201 C   0  0  0  0  0  0  0  0  0  0  0  0
    9.3221  -17.8666   22.7527 C   0  0  0  0  0  0  0  0  0  0  0  0
    8.4520  -16.6228   22.9391 C   0  0  1  0  0  0  0  0  0  0  0  0
    8.8986  -15.8877   24.1783 C   0  0  0  0  0  0  0  0  0  0  0  0
   10.0327  -15.3521   24.1486 O   0  0  0  0  0  0  0  0  0  0  0  0
    8.0112  -12.0121   26.0845 C   0  0  0  0  0  0  0  0  0  0  0  0
    6.9394  -13.1156   26.0901 C   0  0  2  0  0  0  0  0  0  0  0  0
    5.6316  -12.4825   26.4656 C   0  0  0  0  0  0  0  0  0  0  0  0
    7.4223  -14.1625   27.0193 C   0  0  0  0  0  0  0  0  0  0  0  0
    8.4700  -15.0924   26.5098 C   0  0  2  0  0  0  0  0  0  0  0  0
    8.0796  -15.8004   25.3310 N   0  0  0  0  0  0  0  0  0  0  0  0
    9.0180  -16.0109   27.5391 C   0  0  0  0  0  0  0  0  0  0  0  0
    8.7791  -17.2449   27.5504 O   0  0  0  0  0  0  0  0  0  0  0  0
    9.8418  -15.5328   28.5640 O   0  0  0  0  0  0  0  0  0  0  0  0
  1  5  1  0
  1  2  1  0
  2  3  1  0
  4  3  1  0
  5  6  1  1
  5  4  1  0
  6  7  2  0
  6  8  1  0
  8  9  1  0
 10  9  1  0
 11 10  1  0
 11 12  1  0
 12  8  1  0
 13 20  1  0
 12 13  1  1
 14 13  2  0
 16 15  1  1
 17 16  1  0
 18 16  1  0
 19 20  1  0
 19 18  1  1
 21 19  1  0
 22 21  2  0
 23 21  1  0
M  END
$$$$
