ECV.pdb
     RDKit          3D

 23 22  0  0  1  0  0  0  0  0999 V2000
   20.9282  -13.0534  -16.1762 N   0  0  0  0  0  0  0  0  0  0  0  0
   19.8590  -12.1676  -16.4423 C   0  0  1  0  0  0  0  0  0  0  0  0
   18.4741  -12.6918  -16.3413 C   0  0  0  0  0  0  0  0  0  0  0  0
   18.1233  -13.8866  -17.1381 C   0  0  0  0  0  0  0  0  0  0  0  0
   17.6944  -15.0635  -16.3887 C   0  0  0  0  0  0  0  0  0  0  0  0
   16.9876  -15.0391  -15.3692 O   0  0  0  0  0  0  0  0  0  0  0  0
   19.9399  -10.8990  -15.6470 C   0  0  0  0  0  0  0  0  0  0  0  0
   20.1412  -11.0476  -14.4085 O   0  0  0  0  0  0  0  0  0  0  0  0
   18.1416  -16.3141  -16.8988 O   0  0  0  0  0  0  0  0  0  0  0  0
   19.8041   -9.6063  -16.2145 N   0  0  0  0  0  0  0  0  0  0  0  0
   19.9591   -8.4429  -15.3971 C   0  0  1  0  0  0  0  0  0  0  0  0
   21.3026   -8.4051  -14.6870 C   0  0  0  0  0  0  0  0  0  0  0  0
   22.6860   -8.5732  -15.8106 S   0  0  0  0  0  0  0  0  0  0  0  0
   19.7669   -7.1760  -16.1430 C   0  0  0  0  0  0  0  0  0  0  0  0
   20.3676   -7.0676  -17.2444 O   0  0  0  0  0  0  0  0  0  0  0  0
   16.9743   -5.8993  -18.0182 C   0  0  0  0  0  0  0  0  0  0  0  0
   17.3344   -4.8307  -17.0210 C   0  0  1  0  0  0  0  0  0  0  0  0
   16.3441   -4.8181  -15.8862 C   0  0  0  0  0  0  0  0  0  0  0  0
   18.7607   -4.9546  -16.5400 C   0  0  2  0  0  0  0  0  0  0  0  0
   18.9741   -6.1052  -15.7138 N   0  0  0  0  0  0  0  0  0  0  0  0
   19.0607   -3.6881  -15.7952 C   0  0  0  0  0  0  0  0  0  0  0  0
   19.2202   -3.6695  -14.4270 O   0  0  0  0  0  0  0  0  0  0  0  0
   19.1590   -2.6433  -16.4893 O   0  0  0  0  0  0  0  0  0  0  0  0
  2  1  1  1
  2  7  1  0
  3  2  1  0
  4  5  1  0
  4  3  1  0
  5  6  2  0
  7  8  2  0
  7 10  1  0
  9  5  1  0
 10 11  1  0
 11 14  1  0
 12 13  1  0
 11 12  1  6
 14 15  2  0
 14 20  1  0
 17 16  1  6
 17 18  1  0
 19 17  1  0
 19 20  1  1
 21 19  1  0
 21 22  1  0
 23 21  2  0
M  END
$$$$
