ECV.pdb
     RDKit          3D

 23 22  0  0  1  0  0  0  0  0999 V2000
   15.1977  -11.5076  -14.3924 N   0  0  0  0  0  0  0  0  0  0  0  0
   16.3162  -10.8690  -14.9753 C   0  0  1  0  0  0  0  0  0  0  0  0
   16.2611  -10.5441  -16.4225 C   0  0  0  0  0  0  0  0  0  0  0  0
   17.4153   -9.8408  -17.0215 C   0  0  0  0  0  0  0  0  0  0  0  0
   17.9159  -10.3741  -18.2848 C   0  0  0  0  0  0  0  0  0  0  0  0
   17.2545  -11.0602  -19.0792 O   0  0  0  0  0  0  0  0  0  0  0  0
   16.7370   -9.6359  -14.2331 C   0  0  0  0  0  0  0  0  0  0  0  0
   16.0611   -8.5974  -14.4801 O   0  0  0  0  0  0  0  0  0  0  0  0
   19.2693  -10.0605  -18.5914 O   0  0  0  0  0  0  0  0  0  0  0  0
   17.8144   -9.6035  -13.3113 N   0  0  0  0  0  0  0  0  0  0  0  0
   18.1707   -8.3782  -12.6653 C   0  0  1  0  0  0  0  0  0  0  0  0
   17.9726   -8.4351  -11.1592 C   0  0  0  0  0  0  0  0  0  0  0  0
   16.3118   -8.9161  -10.6958 S   0  0  0  0  0  0  0  0  0  0  0  0
   19.5587   -7.9465  -12.9579 C   0  0  0  0  0  0  0  0  0  0  0  0
   20.4653   -8.8079  -12.8106 O   0  0  0  0  0  0  0  0  0  0  0  0
   21.2414   -7.5289  -15.9600 C   0  0  0  0  0  0  0  0  0  0  0  0
   21.4678   -6.2263  -15.2404 C   0  0  1  0  0  0  0  0  0  0  0  0
   20.6087   -5.1423  -15.8367 C   0  0  0  0  0  0  0  0  0  0  0  0
   21.2774   -6.3569  -13.7478 C   0  0  2  0  0  0  0  0  0  0  0  0
   19.9271   -6.6641  -13.3812 N   0  0  0  0  0  0  0  0  0  0  0  0
   21.7172   -5.0512  -13.1558 C   0  0  0  0  0  0  0  0  0  0  0  0
   23.0483   -4.7468  -12.9742 O   0  0  0  0  0  0  0  0  0  0  0  0
   20.8028   -4.2489  -12.8344 O   0  0  0  0  0  0  0  0  0  0  0  0
  2  1  1  1
  2  7  1  0
  3  2  1  0
  4  5  1  0
  4  3  1  0
  5  6  2  0
  7  8  2  0
  7 10  1  0
  9  5  1  0
 10 11  1  0
 11 14  1  0
 12 13  1  0
 11 12  1  1
 14 15  2  0
 14 20  1  0
 17 16  1  6
 17 18  1  0
 19 17  1  0
 19 20  1  6
 21 19  1  0
 21 22  1  0
 23 21  2  0
M  END
$$$$
