ECV.pdb
     RDKit          3D

 23 22  0  0  1  0  0  0  0  0999 V2000
   18.3770  -12.9700  -15.9492 N   0  0  0  0  0  0  0  0  0  0  0  0
   18.8324  -11.9767  -16.8461 C   0  0  1  0  0  0  0  0  0  0  0  0
   18.0932  -11.7916  -18.1197 C   0  0  0  0  0  0  0  0  0  0  0  0
   17.9187  -12.9671  -18.9992 C   0  0  0  0  0  0  0  0  0  0  0  0
   17.2826  -12.7230  -20.2902 C   0  0  0  0  0  0  0  0  0  0  0  0
   17.1019  -13.5812  -21.1678 O   0  0  0  0  0  0  0  0  0  0  0  0
   18.9938  -10.6343  -16.1977 C   0  0  0  0  0  0  0  0  0  0  0  0
   18.1419  -10.3566  -15.3070 O   0  0  0  0  0  0  0  0  0  0  0  0
   16.8514  -11.3869  -20.5204 O   0  0  0  0  0  0  0  0  0  0  0  0
   20.0202   -9.7163  -16.5377 N   0  0  0  0  0  0  0  0  0  0  0  0
   20.1309   -8.4720  -15.8411 C   0  0  1  0  0  0  0  0  0  0  0  0
   21.3109   -8.4440  -14.8833 C   0  0  0  0  0  0  0  0  0  0  0  0
   21.5957   -6.8223  -14.1809 S   0  0  0  0  0  0  0  0  0  0  0  0
   20.2115   -7.3013  -16.7473 C   0  0  0  0  0  0  0  0  0  0  0  0
   21.0945   -7.3361  -17.6444 O   0  0  0  0  0  0  0  0  0  0  0  0
   18.4140   -6.4175  -19.5189 C   0  0  0  0  0  0  0  0  0  0  0  0
   18.3493   -5.1787  -18.6661 C   0  0  1  0  0  0  0  0  0  0  0  0
   16.9884   -5.0487  -18.0337 C   0  0  0  0  0  0  0  0  0  0  0  0
   19.4647   -5.1256  -17.6492 C   0  0  2  0  0  0  0  0  0  0  0  0
   19.3847   -6.1740  -16.6763 N   0  0  0  0  0  0  0  0  0  0  0  0
   19.3744   -3.7759  -17.0018 C   0  0  0  0  0  0  0  0  0  0  0  0
   18.9436   -3.6200  -15.7027 O   0  0  0  0  0  0  0  0  0  0  0  0
   19.7142   -2.7938  -17.7110 O   0  0  0  0  0  0  0  0  0  0  0  0
  2  1  1  1
  2  7  1  0
  3  2  1  0
  4  5  1  0
  4  3  1  0
  5  6  2  0
  7  8  2  0
  7 10  1  0
  9  5  1  0
 10 11  1  0
 11 14  1  0
 12 13  1  0
 11 12  1  6
 14 15  2  0
 14 20  1  0
 17 16  1  1
 17 18  1  0
 19 17  1  0
 19 20  1  1
 21 19  1  0
 21 22  1  0
 23 21  2  0
M  END
$$$$
