ECV.pdb
     RDKit          3D

 23 22  0  0  1  0  0  0  0  0999 V2000
   44.1957  -11.5440   -6.9876 N   0  0  0  0  0  0  0  0  0  0  0  0
   43.2319  -10.7982   -6.2710 C   0  0  1  0  0  0  0  0  0  0  0  0
   43.6939   -9.6208   -5.4944 C   0  0  0  0  0  0  0  0  0  0  0  0
   44.5596   -9.8589   -4.3199 C   0  0  0  0  0  0  0  0  0  0  0  0
   44.9987   -8.6755   -3.5868 C   0  0  0  0  0  0  0  0  0  0  0  0
   45.1398   -7.5453   -4.0791 O   0  0  0  0  0  0  0  0  0  0  0  0
   42.0717  -10.3742   -7.1209 C   0  0  0  0  0  0  0  0  0  0  0  0
   42.3003  -10.3199   -8.3623 O   0  0  0  0  0  0  0  0  0  0  0  0
   45.2757   -8.8753   -2.2057 O   0  0  0  0  0  0  0  0  0  0  0  0
   40.7934  -10.0494   -6.5992 N   0  0  0  0  0  0  0  0  0  0  0  0
   39.7271   -9.6899   -7.4822 C   0  0  1  0  0  0  0  0  0  0  0  0
   38.3619   -9.8058   -6.8238 C   0  0  0  0  0  0  0  0  0  0  0  0
   38.0736  -11.4194   -6.1043 S   0  0  0  0  0  0  0  0  0  0  0  0
   39.8774   -8.3308   -8.0554 C   0  0  0  0  0  0  0  0  0  0  0  0
   40.2726   -7.4249   -7.2751 O   0  0  0  0  0  0  0  0  0  0  0  0
   41.5243   -7.2737  -11.6098 C   0  0  0  0  0  0  0  0  0  0  0  0
   40.1966   -6.6186  -11.3377 C   0  0  1  0  0  0  0  0  0  0  0  0
   39.1281   -7.2161  -12.2154 C   0  0  0  0  0  0  0  0  0  0  0  0
   39.8286   -6.6585   -9.8735 C   0  0  2  0  0  0  0  0  0  0  0  0
   39.6142   -7.9887   -9.3869 N   0  0  0  0  0  0  0  0  0  0  0  0
   38.5917   -5.8225   -9.7318 C   0  0  0  0  0  0  0  0  0  0  0  0
   37.3591   -6.3842   -9.4812 O   0  0  0  0  0  0  0  0  0  0  0  0
   38.7422   -4.5794   -9.8544 O   0  0  0  0  0  0  0  0  0  0  0  0
  2  1  1  6
  2  7  1  0
  3  2  1  0
  4  5  1  0
  4  3  1  0
  5  6  2  0
  7  8  2  0
  7 10  1  0
  9  5  1  0
 10 11  1  0
 11 14  1  0
 12 13  1  0
 11 12  1  1
 14 15  2  0
 14 20  1  0
 17 16  1  1
 17 18  1  0
 19 17  1  0
 19 20  1  6
 21 19  1  0
 21 22  1  0
 23 21  2  0
M  END
$$$$
