ECV.pdb
     RDKit          3D

 23 22  0  0  1  0  0  0  0  0999 V2000
   21.4963  -12.8946  -18.5363 N   0  0  0  0  0  0  0  0  0  0  0  0
   20.8905  -11.6479  -18.2581 C   0  0  1  0  0  0  0  0  0  0  0  0
   19.5627  -11.6475  -17.5950 C   0  0  0  0  0  0  0  0  0  0  0  0
   19.3081  -12.6601  -16.5483 C   0  0  0  0  0  0  0  0  0  0  0  0
   17.9854  -12.6375  -15.9314 C   0  0  0  0  0  0  0  0  0  0  0  0
   16.9382  -13.0151  -16.4794 O   0  0  0  0  0  0  0  0  0  0  0  0
   21.7917  -10.7160  -17.5047 C   0  0  0  0  0  0  0  0  0  0  0  0
   22.9766  -11.1226  -17.3403 O   0  0  0  0  0  0  0  0  0  0  0  0
   17.9361  -12.1375  -14.6003 O   0  0  0  0  0  0  0  0  0  0  0  0
   21.3746   -9.4586  -16.9981 N   0  0  0  0  0  0  0  0  0  0  0  0
   22.3424   -8.5170  -16.5266 C   0  0  1  0  0  0  0  0  0  0  0  0
   23.3858   -8.1783  -17.5789 C   0  0  0  0  0  0  0  0  0  0  0  0
   24.5158   -6.8956  -17.0476 S   0  0  0  0  0  0  0  0  0  0  0  0
   21.7369   -7.2621  -16.0198 C   0  0  0  0  0  0  0  0  0  0  0  0
   20.9317   -6.6694  -16.7854 O   0  0  0  0  0  0  0  0  0  0  0  0
   19.4630   -7.4647  -13.3120 C   0  0  0  0  0  0  0  0  0  0  0  0
   20.3781   -6.3235  -12.9569 C   0  0  1  0  0  0  0  0  0  0  0  0
   21.3340   -6.7376  -11.8690 C   0  0  0  0  0  0  0  0  0  0  0  0
   21.0888   -5.7629  -14.1659 C   0  0  2  0  0  0  0  0  0  0  0  0
   21.9943   -6.6972  -14.7652 N   0  0  0  0  0  0  0  0  0  0  0  0
   21.8090   -4.5352  -13.6937 C   0  0  0  0  0  0  0  0  0  0  0  0
   21.1364   -3.3786  -13.3657 O   0  0  0  0  0  0  0  0  0  0  0  0
   23.0618   -4.6202  -13.6136 O   0  0  0  0  0  0  0  0  0  0  0  0
  2  1  1  1
  2  7  1  0
  3  2  1  0
  4  5  1  0
  4  3  1  0
  5  6  2  0
  7  8  2  0
  7 10  1  0
  9  5  1  0
 10 11  1  0
 11 14  1  0
 12 13  1  0
 11 12  1  6
 14 15  2  0
 14 20  1  0
 17 16  1  6
 17 18  1  0
 19 17  1  0
 19 20  1  1
 21 19  1  0
 21 22  1  0
 23 21  2  0
M  END
$$$$
