ECV.pdb
     RDKit          3D

 23 22  0  0  1  0  0  0  0  0999 V2000
   16.2845  -14.1799  -18.4438 N   0  0  0  0  0  0  0  0  0  0  0  0
   16.3101  -13.4938  -17.2079 C   0  0  1  0  0  0  0  0  0  0  0  0
   16.6189  -14.2714  -15.9821 C   0  0  0  0  0  0  0  0  0  0  0  0
   17.6285  -15.3473  -16.0773 C   0  0  0  0  0  0  0  0  0  0  0  0
   17.9052  -16.0879  -14.8502 C   0  0  0  0  0  0  0  0  0  0  0  0
   18.7007  -17.0353  -14.7552 O   0  0  0  0  0  0  0  0  0  0  0  0
   17.1939  -12.2827  -17.2307 C   0  0  0  0  0  0  0  0  0  0  0  0
   18.1702  -12.3390  -18.0306 O   0  0  0  0  0  0  0  0  0  0  0  0
   17.1883  -15.6596  -13.6984 O   0  0  0  0  0  0  0  0  0  0  0  0
   16.9771  -11.1371  -16.4230 N   0  0  0  0  0  0  0  0  0  0  0  0
   17.7807   -9.9678  -16.6041 C   0  0  1  0  0  0  0  0  0  0  0  0
   16.9463   -8.7095  -16.7805 C   0  0  0  0  0  0  0  0  0  0  0  0
   17.9331   -7.2160  -16.7716 S   0  0  0  0  0  0  0  0  0  0  0  0
   18.7566   -9.7552  -15.5083 C   0  0  0  0  0  0  0  0  0  0  0  0
   18.3485   -9.9621  -14.3351 O   0  0  0  0  0  0  0  0  0  0  0  0
   22.3633  -11.2103  -15.1083 C   0  0  0  0  0  0  0  0  0  0  0  0
   22.3605   -9.7268  -14.8530 C   0  0  1  0  0  0  0  0  0  0  0  0
   23.0354   -8.9991  -15.9860 C   0  0  0  0  0  0  0  0  0  0  0  0
   20.9742   -9.1974  -14.5725 C   0  0  2  0  0  0  0  0  0  0  0  0
   20.0834   -9.3457  -15.6846 N   0  0  0  0  0  0  0  0  0  0  0  0
   21.1462   -7.7541  -14.2033 C   0  0  0  0  0  0  0  0  0  0  0  0
   21.6137   -7.3710  -12.9654 O   0  0  0  0  0  0  0  0  0  0  0  0
   20.8400   -6.9125  -15.0870 O   0  0  0  0  0  0  0  0  0  0  0  0
  2  1  1  6
  2  7  1  0
  3  2  1  0
  4  5  1  0
  4  3  1  0
  5  6  2  0
  7  8  2  0
  7 10  1  0
  9  5  1  0
 10 11  1  0
 11 14  1  0
 12 13  1  0
 11 12  1  1
 14 15  2  0
 14 20  1  0
 17 16  1  6
 17 18  1  0
 19 17  1  0
 19 20  1  6
 21 19  1  0
 21 22  1  0
 23 21  2  0
M  END
$$$$
