ECV.pdb
     RDKit          3D

 23 22  0  0  1  0  0  0  0  0999 V2000
   18.7452  -11.7687  -17.5746 N   0  0  0  0  0  0  0  0  0  0  0  0
   17.8318  -11.4009  -16.5602 C   0  0  1  0  0  0  0  0  0  0  0  0
   17.3969  -12.4439  -15.5982 C   0  0  0  0  0  0  0  0  0  0  0  0
   16.9371  -13.7406  -16.1395 C   0  0  0  0  0  0  0  0  0  0  0  0
   16.5280  -14.7438  -15.1613 C   0  0  0  0  0  0  0  0  0  0  0  0
   17.2938  -15.3306  -14.3812 O   0  0  0  0  0  0  0  0  0  0  0  0
   18.2773  -10.1999  -15.7809 C   0  0  0  0  0  0  0  0  0  0  0  0
   17.6012   -9.9447  -14.7446 O   0  0  0  0  0  0  0  0  0  0  0  0
   15.1373  -15.0429  -15.1320 O   0  0  0  0  0  0  0  0  0  0  0  0
   19.3770   -9.3854  -16.1538 N   0  0  0  0  0  0  0  0  0  0  0  0
   19.7028   -8.2229  -15.3869 C   0  0  1  0  0  0  0  0  0  0  0  0
   21.1888   -8.1241  -15.0821 C   0  0  0  0  0  0  0  0  0  0  0  0
   21.6609   -9.0505  -13.6250 S   0  0  0  0  0  0  0  0  0  0  0  0
   19.2507   -6.9607  -16.0201 C   0  0  0  0  0  0  0  0  0  0  0  0
   19.5204   -6.8083  -17.2407 O   0  0  0  0  0  0  0  0  0  0  0  0
   16.2058   -3.2528  -16.6229 C   0  0  0  0  0  0  0  0  0  0  0  0
   16.6308   -4.5373  -15.9629 C   0  0  1  0  0  0  0  0  0  0  0  0
   15.8371   -5.6947  -16.5098 C   0  0  0  0  0  0  0  0  0  0  0  0
   18.1209   -4.7638  -16.0588 C   0  0  2  0  0  0  0  0  0  0  0  0
   18.5536   -5.9395  -15.3641 N   0  0  0  0  0  0  0  0  0  0  0  0
   18.7665   -3.5324  -15.4969 C   0  0  0  0  0  0  0  0  0  0  0  0
   19.0954   -2.4566  -16.2919 O   0  0  0  0  0  0  0  0  0  0  0  0
   18.9910   -3.5364  -14.2589 O   0  0  0  0  0  0  0  0  0  0  0  0
  2  1  1  1
  2  7  1  0
  3  2  1  0
  4  5  1  0
  4  3  1  0
  5  6  2  0
  7  8  2  0
  7 10  1  0
  9  5  1  0
 10 11  1  0
 11 14  1  0
 12 13  1  0
 11 12  1  6
 14 15  2  0
 14 20  1  0
 17 16  1  6
 17 18  1  0
 19 17  1  0
 19 20  1  1
 21 19  1  0
 21 22  1  0
 23 21  2  0
M  END
$$$$
