ECV.pdb
     RDKit          3D

 23 22  0  0  1  0  0  0  0  0999 V2000
   17.2156  -11.7243  -16.8575 N   0  0  0  0  0  0  0  0  0  0  0  0
   18.4373  -11.2638  -16.3152 C   0  0  1  0  0  0  0  0  0  0  0  0
   19.6632  -11.3944  -17.1416 C   0  0  0  0  0  0  0  0  0  0  0  0
   20.0893  -12.7519  -17.5432 C   0  0  0  0  0  0  0  0  0  0  0  0
   21.4074  -12.8622  -18.1608 C   0  0  0  0  0  0  0  0  0  0  0  0
   22.1842  -11.9142  -18.3537 O   0  0  0  0  0  0  0  0  0  0  0  0
   18.3581   -9.8533  -15.8126 C   0  0  0  0  0  0  0  0  0  0  0  0
   17.9968   -8.9935  -16.6650 O   0  0  0  0  0  0  0  0  0  0  0  0
   21.7930  -14.1731  -18.5571 O   0  0  0  0  0  0  0  0  0  0  0  0
   18.6612   -9.4766  -14.4792 N   0  0  0  0  0  0  0  0  0  0  0  0
   18.5479   -8.1092  -14.0754 C   0  0  1  0  0  0  0  0  0  0  0  0
   17.4977   -7.9063  -12.9952 C   0  0  0  0  0  0  0  0  0  0  0  0
   15.8690   -8.4509  -13.5003 S   0  0  0  0  0  0  0  0  0  0  0  0
   19.8332   -7.5267  -13.6204 C   0  0  0  0  0  0  0  0  0  0  0  0
   20.4817   -8.1808  -12.7617 O   0  0  0  0  0  0  0  0  0  0  0  0
   22.9499   -7.2750  -15.3721 C   0  0  0  0  0  0  0  0  0  0  0  0
   22.6516   -5.8884  -14.8679 C   0  0  1  0  0  0  0  0  0  0  0  0
   22.1792   -5.0108  -15.9972 C   0  0  0  0  0  0  0  0  0  0  0  0
   21.6891   -5.8979  -13.7041 C   0  0  2  0  0  0  0  0  0  0  0  0
   20.3695   -6.3157  -14.0732 N   0  0  0  0  0  0  0  0  0  0  0  0
   21.6834   -4.5018  -13.1567 C   0  0  0  0  0  0  0  0  0  0  0  0
   22.7170   -4.0194  -12.3842 O   0  0  0  0  0  0  0  0  0  0  0  0
   20.6823   -3.7952  -13.4423 O   0  0  0  0  0  0  0  0  0  0  0  0
  2  1  1  6
  2  7  1  0
  3  2  1  0
  4  5  1  0
  4  3  1  0
  5  6  2  0
  7  8  2  0
  7 10  1  0
  9  5  1  0
 10 11  1  0
 11 14  1  0
 12 13  1  0
 11 12  1  1
 14 15  2  0
 14 20  1  0
 17 16  1  6
 17 18  1  0
 19 17  1  0
 19 20  1  6
 21 19  1  0
 21 22  1  0
 23 21  2  0
M  END
$$$$
