ECV.pdb
     RDKit          3D

 23 22  0  0  1  0  0  0  0  0999 V2000
   14.9727  -10.7343  -13.6056 N   0  0  0  0  0  0  0  0  0  0  0  0
   16.3274  -10.3891  -13.3951 C   0  0  1  0  0  0  0  0  0  0  0  0
   17.2845  -10.5993  -14.5097 C   0  0  0  0  0  0  0  0  0  0  0  0
   17.4630  -11.9744  -15.0226 C   0  0  0  0  0  0  0  0  0  0  0  0
   18.5026  -12.1614  -16.0301 C   0  0  0  0  0  0  0  0  0  0  0  0
   19.2413  -11.2645  -16.4651 O   0  0  0  0  0  0  0  0  0  0  0  0
   16.5008   -8.9898  -12.8851 C   0  0  0  0  0  0  0  0  0  0  0  0
   15.6797   -8.1424  -13.3368 O   0  0  0  0  0  0  0  0  0  0  0  0
   18.6479  -13.4874  -16.5250 O   0  0  0  0  0  0  0  0  0  0  0  0
   17.5065   -8.6102  -11.9598 N   0  0  0  0  0  0  0  0  0  0  0  0
   17.6349   -7.2433  -11.5587 C   0  0  1  0  0  0  0  0  0  0  0  0
   17.1682   -7.0091  -10.1311 C   0  0  0  0  0  0  0  0  0  0  0  0
   17.8068   -5.4894   -9.4331 S   0  0  0  0  0  0  0  0  0  0  0  0
   19.0124   -6.7169  -11.7132 C   0  0  0  0  0  0  0  0  0  0  0  0
   19.9075   -7.2492  -11.0052 O   0  0  0  0  0  0  0  0  0  0  0  0
   21.3537   -7.5780  -13.8131 C   0  0  0  0  0  0  0  0  0  0  0  0
   21.3392   -6.0851  -14.0060 C   0  0  1  0  0  0  0  0  0  0  0  0
   20.6398   -5.7300  -15.2919 C   0  0  0  0  0  0  0  0  0  0  0  0
   20.7588   -5.3602  -12.8150 C   0  0  2  0  0  0  0  0  0  0  0  0
   19.3829   -5.6825  -12.5804 N   0  0  0  0  0  0  0  0  0  0  0  0
   20.9342   -3.8969  -13.0919 C   0  0  0  0  0  0  0  0  0  0  0  0
   22.1680   -3.2876  -13.0284 O   0  0  0  0  0  0  0  0  0  0  0  0
   19.8918   -3.2564  -13.3857 O   0  0  0  0  0  0  0  0  0  0  0  0
  2  1  1  6
  2  7  1  0
  3  2  1  0
  4  5  1  0
  4  3  1  0
  5  6  2  0
  7  8  2  0
  7 10  1  0
  9  5  1  0
 10 11  1  0
 11 14  1  0
 12 13  1  0
 11 12  1  1
 14 15  2  0
 14 20  1  0
 17 16  1  1
 17 18  1  0
 19 17  1  0
 19 20  1  6
 21 19  1  0
 21 22  1  0
 23 21  2  0
M  END
$$$$
