ECV.pdb
     RDKit          3D

 23 22  0  0  1  0  0  0  0  0999 V2000
   16.7783  -11.1794  -16.6506 N   0  0  0  0  0  0  0  0  0  0  0  0
   18.0923  -10.6904  -16.4691 C   0  0  1  0  0  0  0  0  0  0  0  0
   18.9461  -10.5151  -17.6703 C   0  0  0  0  0  0  0  0  0  0  0  0
   19.2771  -11.7145  -18.4689 C   0  0  0  0  0  0  0  0  0  0  0  0
   20.6515  -12.1971  -18.3758 C   0  0  0  0  0  0  0  0  0  0  0  0
   21.5381  -11.6885  -17.6725 O   0  0  0  0  0  0  0  0  0  0  0  0
   18.1381   -9.4215  -15.6715 C   0  0  0  0  0  0  0  0  0  0  0  0
   17.3791   -8.4973  -16.0792 O   0  0  0  0  0  0  0  0  0  0  0  0
   20.9570  -13.3395  -19.1669 O   0  0  0  0  0  0  0  0  0  0  0  0
   18.9647   -9.2385  -14.5336 N   0  0  0  0  0  0  0  0  0  0  0  0
   18.9095   -8.0152  -13.7946 C   0  0  1  0  0  0  0  0  0  0  0  0
   18.4652   -8.2237  -12.3559 C   0  0  0  0  0  0  0  0  0  0  0  0
   16.9715   -9.2017  -12.2261 S   0  0  0  0  0  0  0  0  0  0  0  0
   20.1906   -7.2688  -13.8052 C   0  0  0  0  0  0  0  0  0  0  0  0
   21.2267   -7.9128  -13.4929 O   0  0  0  0  0  0  0  0  0  0  0  0
   23.2577   -4.0223  -15.5980 C   0  0  0  0  0  0  0  0  0  0  0  0
   21.9448   -4.7582  -15.5717 C   0  0  1  0  0  0  0  0  0  0  0  0
   21.9284   -5.8378  -16.6218 C   0  0  0  0  0  0  0  0  0  0  0  0
   21.6130   -5.2868  -14.1964 C   0  0  2  0  0  0  0  0  0  0  0  0
   20.3271   -5.9152  -14.1341 N   0  0  0  0  0  0  0  0  0  0  0  0
   21.6884   -4.1110  -13.2687 C   0  0  0  0  0  0  0  0  0  0  0  0
   20.5566   -3.4823  -12.7982 O   0  0  0  0  0  0  0  0  0  0  0  0
   22.8428   -3.7307  -12.9436 O   0  0  0  0  0  0  0  0  0  0  0  0
  2  1  1  6
  2  7  1  0
  3  2  1  0
  4  5  1  0
  4  3  1  0
  5  6  2  0
  7  8  2  0
  7 10  1  0
  9  5  1  0
 10 11  1  0
 11 14  1  0
 12 13  1  0
 11 12  1  1
 14 15  2  0
 14 20  1  0
 17 16  1  1
 17 18  1  0
 19 17  1  0
 19 20  1  6
 21 19  1  0
 21 22  1  0
 23 21  2  0
M  END
$$$$
