ECV.pdb
     RDKit          3D

 23 22  0  0  1  0  0  0  0  0999 V2000
   32.0711  -11.8220  -19.1880 N   0  0  0  0  0  0  0  0  0  0  0  0
   31.2426  -11.4817  -20.2817 C   0  0  1  0  0  0  0  0  0  0  0  0
   30.6936  -12.5820  -21.1128 C   0  0  0  0  0  0  0  0  0  0  0  0
   30.1478  -13.7694  -20.4216 C   0  0  0  0  0  0  0  0  0  0  0  0
   29.6383  -14.8394  -21.2739 C   0  0  0  0  0  0  0  0  0  0  0  0
   30.3426  -15.6417  -21.9061 O   0  0  0  0  0  0  0  0  0  0  0  0
   30.1121  -10.5745  -19.8978 C   0  0  0  0  0  0  0  0  0  0  0  0
   29.3411  -10.2400  -20.8411 O   0  0  0  0  0  0  0  0  0  0  0  0
   28.2214  -14.9358  -21.3591 O   0  0  0  0  0  0  0  0  0  0  0  0
   29.8952  -10.1059  -18.5768 N   0  0  0  0  0  0  0  0  0  0  0  0
   28.7675   -9.2760  -18.2848 C   0  0  1  0  0  0  0  0  0  0  0  0
   28.1008   -9.6416  -16.9686 C   0  0  0  0  0  0  0  0  0  0  0  0
   27.5623  -11.3479  -16.9144 S   0  0  0  0  0  0  0  0  0  0  0  0
   29.0932   -7.8295  -18.2804 C   0  0  0  0  0  0  0  0  0  0  0  0
   30.0666   -7.4678  -17.5680 O   0  0  0  0  0  0  0  0  0  0  0  0
   29.5207   -3.5008  -20.3657 C   0  0  0  0  0  0  0  0  0  0  0  0
   29.0584   -4.9332  -20.3887 C   0  0  1  0  0  0  0  0  0  0  0  0
   30.0143   -5.7793  -21.1881 C   0  0  0  0  0  0  0  0  0  0  0  0
   28.8258   -5.4813  -19.0008 C   0  0  2  0  0  0  0  0  0  0  0  0
   28.4029   -6.8500  -19.0038 N   0  0  0  0  0  0  0  0  0  0  0  0
   27.7930   -4.5953  -18.3706 C   0  0  0  0  0  0  0  0  0  0  0  0
   28.1379   -3.4569  -17.6758 O   0  0  0  0  0  0  0  0  0  0  0  0
   26.5939   -4.9492  -18.5118 O   0  0  0  0  0  0  0  0  0  0  0  0
  2  1  1  1
  2  7  1  0
  3  2  1  0
  4  5  1  0
  4  3  1  0
  5  6  2  0
  7  8  2  0
  7 10  1  0
  9  5  1  0
 10 11  1  0
 11 14  1  0
 12 13  1  0
 11 12  1  1
 14 15  2  0
 14 20  1  0
 17 16  1  1
 17 18  1  0
 19 17  1  0
 19 20  1  6
 21 19  1  0
 21 22  1  0
 23 21  2  0
M  END
$$$$
