ECV.pdb
     RDKit          3D

 23 22  0  0  1  0  0  0  0  0999 V2000
   20.1561  -13.3774  -17.0467 N   0  0  0  0  0  0  0  0  0  0  0  0
   20.3273  -12.0540  -17.5136 C   0  0  1  0  0  0  0  0  0  0  0  0
   19.1601  -11.3712  -18.1253 C   0  0  0  0  0  0  0  0  0  0  0  0
   18.5707  -11.9615  -19.3459 C   0  0  0  0  0  0  0  0  0  0  0  0
   19.4177  -11.9746  -20.5347 C   0  0  0  0  0  0  0  0  0  0  0  0
   19.6351  -10.9949  -21.2642 O   0  0  0  0  0  0  0  0  0  0  0  0
   20.9160  -11.1416  -16.4795 C   0  0  0  0  0  0  0  0  0  0  0  0
   20.2148  -10.9744  -15.4419 O   0  0  0  0  0  0  0  0  0  0  0  0
   20.0214  -13.2248  -20.8458 O   0  0  0  0  0  0  0  0  0  0  0  0
   22.1700  -10.4953  -16.6250 N   0  0  0  0  0  0  0  0  0  0  0  0
   22.6781   -9.6679  -15.5748 C   0  0  1  0  0  0  0  0  0  0  0  0
   24.1643   -9.8786  -15.3348 C   0  0  0  0  0  0  0  0  0  0  0  0
   24.5407  -11.5126  -14.7081 S   0  0  0  0  0  0  0  0  0  0  0  0
   22.4200   -8.2242  -15.7928 C   0  0  0  0  0  0  0  0  0  0  0  0
   22.5807   -7.7880  -16.9632 O   0  0  0  0  0  0  0  0  0  0  0  0
   19.8532   -6.3632  -16.6828 C   0  0  0  0  0  0  0  0  0  0  0  0
   20.2970   -5.6827  -15.4156 C   0  0  1  0  0  0  0  0  0  0  0  0
   19.3863   -6.0544  -14.2748 C   0  0  0  0  0  0  0  0  0  0  0  0
   21.7505   -5.9482  -15.1027 C   0  0  2  0  0  0  0  0  0  0  0  0
   22.0153   -7.3233  -14.8009 N   0  0  0  0  0  0  0  0  0  0  0  0
   22.0959   -5.0616  -13.9436 C   0  0  0  0  0  0  0  0  0  0  0  0
   22.3439   -3.7163  -14.1058 O   0  0  0  0  0  0  0  0  0  0  0  0
   22.1464   -5.6146  -12.8146 O   0  0  0  0  0  0  0  0  0  0  0  0
  2  1  1  1
  2  7  1  0
  3  2  1  0
  4  5  1  0
  4  3  1  0
  5  6  2  0
  7  8  2  0
  7 10  1  0
  9  5  1  0
 10 11  1  0
 11 14  1  0
 12 13  1  0
 11 12  1  6
 14 15  2  0
 14 20  1  0
 17 16  1  6
 17 18  1  0
 19 17  1  0
 19 20  1  1
 21 19  1  0
 21 22  1  0
 23 21  2  0
M  END
$$$$
