ECV.pdb
     RDKit          3D

 23 22  0  0  1  0  0  0  0  0999 V2000
   14.9901  -11.2670  -14.9781 N   0  0  0  0  0  0  0  0  0  0  0  0
   16.1115  -11.4725  -15.8142 C   0  0  1  0  0  0  0  0  0  0  0  0
   15.9316  -12.2943  -17.0369 C   0  0  0  0  0  0  0  0  0  0  0  0
   17.1134  -12.5373  -17.8912 C   0  0  0  0  0  0  0  0  0  0  0  0
   17.6200  -13.9058  -17.9242 C   0  0  0  0  0  0  0  0  0  0  0  0
   17.1121  -14.8671  -17.3264 O   0  0  0  0  0  0  0  0  0  0  0  0
   16.7915  -10.1942  -16.2036 C   0  0  0  0  0  0  0  0  0  0  0  0
   16.4968   -9.7506  -17.3493 O   0  0  0  0  0  0  0  0  0  0  0  0
   18.7860  -14.1111  -18.7132 O   0  0  0  0  0  0  0  0  0  0  0  0
   17.7074   -9.5056  -15.3676 N   0  0  0  0  0  0  0  0  0  0  0  0
   18.1877   -8.2112  -15.7410 C   0  0  1  0  0  0  0  0  0  0  0  0
   17.0622   -7.2507  -16.0892 C   0  0  0  0  0  0  0  0  0  0  0  0
   17.6001   -5.5444  -16.1493 S   0  0  0  0  0  0  0  0  0  0  0  0
   19.0555   -7.5914  -14.7109 C   0  0  0  0  0  0  0  0  0  0  0  0
   18.5833   -7.5045  -13.5467 O   0  0  0  0  0  0  0  0  0  0  0  0
   21.9799   -9.2028  -13.5408 C   0  0  0  0  0  0  0  0  0  0  0  0
   22.4137   -7.7860  -13.8064 C   0  0  1  0  0  0  0  0  0  0  0  0
   23.2626   -7.7225  -15.0490 C   0  0  0  0  0  0  0  0  0  0  0  0
   21.2455   -6.8302  -13.8571 C   0  0  2  0  0  0  0  0  0  0  0  0
   20.3469   -7.1022  -14.9391 N   0  0  0  0  0  0  0  0  0  0  0  0
   21.8357   -5.4566  -13.9737 C   0  0  0  0  0  0  0  0  0  0  0  0
   22.4131   -4.8195  -12.8974 O   0  0  0  0  0  0  0  0  0  0  0  0
   21.7747   -4.9183  -15.1092 O   0  0  0  0  0  0  0  0  0  0  0  0
  2  1  1  6
  2  7  1  0
  3  2  1  0
  4  5  1  0
  4  3  1  0
  5  6  2  0
  7  8  2  0
  7 10  1  0
  9  5  1  0
 10 11  1  0
 11 14  1  0
 12 13  1  0
 11 12  1  1
 14 15  2  0
 14 20  1  0
 17 16  1  6
 17 18  1  0
 19 17  1  0
 19 20  1  6
 21 19  1  0
 21 22  1  0
 23 21  2  0
M  END
$$$$
