ECV.pdb
     RDKit          3D

 23 22  0  0  1  0  0  0  0  0999 V2000
   23.6886  -15.0683  -16.1006 N   0  0  0  0  0  0  0  0  0  0  0  0
   24.0932  -13.7980  -15.6303 C   0  0  1  0  0  0  0  0  0  0  0  0
   25.5444  -13.4875  -15.6136 C   0  0  0  0  0  0  0  0  0  0  0  0
   26.4558  -14.4588  -14.9721 C   0  0  0  0  0  0  0  0  0  0  0  0
   26.8455  -15.6125  -15.7770 C   0  0  0  0  0  0  0  0  0  0  0  0
   26.8800  -15.6358  -17.0170 O   0  0  0  0  0  0  0  0  0  0  0  0
   23.3793  -12.6688  -16.3112 C   0  0  0  0  0  0  0  0  0  0  0  0
   22.9240  -12.9298  -17.4605 O   0  0  0  0  0  0  0  0  0  0  0  0
   27.2062  -16.7787  -15.0461 O   0  0  0  0  0  0  0  0  0  0  0  0
   23.2098  -11.3847  -15.7333 N   0  0  0  0  0  0  0  0  0  0  0  0
   22.4030  -10.4025  -16.3890 C   0  0  1  0  0  0  0  0  0  0  0  0
   20.9689  -10.8656  -16.5882 C   0  0  0  0  0  0  0  0  0  0  0  0
   20.1462  -11.2570  -15.0473 S   0  0  0  0  0  0  0  0  0  0  0  0
   22.3995   -9.0923  -15.6950 C   0  0  0  0  0  0  0  0  0  0  0  0
   22.6188   -9.1049  -14.4550 O   0  0  0  0  0  0  0  0  0  0  0  0
   22.8592   -4.1765  -15.7677 C   0  0  0  0  0  0  0  0  0  0  0  0
   22.6391   -5.4578  -16.5264 C   0  0  1  0  0  0  0  0  0  0  0  0
   23.7977   -5.7244  -17.4513 C   0  0  0  0  0  0  0  0  0  0  0  0
   22.3536   -6.6235  -15.6096 C   0  0  2  0  0  0  0  0  0  0  0  0
   22.1725   -7.8576  -16.3140 N   0  0  0  0  0  0  0  0  0  0  0  0
   21.1229   -6.2538  -14.8365 C   0  0  0  0  0  0  0  0  0  0  0  0
   21.1942   -5.6216  -13.6147 O   0  0  0  0  0  0  0  0  0  0  0  0
   20.0214   -6.5527  -15.3660 O   0  0  0  0  0  0  0  0  0  0  0  0
  2  1  1  6
  2  7  1  0
  3  2  1  0
  4  5  1  0
  4  3  1  0
  5  6  2  0
  7  8  2  0
  7 10  1  0
  9  5  1  0
 10 11  1  0
 11 14  1  0
 12 13  1  0
 11 12  1  1
 14 15  2  0
 14 20  1  0
 17 16  1  1
 17 18  1  0
 19 17  1  0
 19 20  1  6
 21 19  1  0
 21 22  1  0
 23 21  2  0
M  END
$$$$
