ECV.pdb
     RDKit          3D

 23 22  0  0  1  0  0  0  0  0999 V2000
   30.7542  -24.5197  -16.4343 N   0  0  0  0  0  0  0  0  0  0  0  0
   29.6981  -24.0868  -17.2686 C   0  0  1  0  0  0  0  0  0  0  0  0
   28.7812  -25.1122  -17.8259 C   0  0  0  0  0  0  0  0  0  0  0  0
   29.3471  -26.1282  -18.7388 C   0  0  0  0  0  0  0  0  0  0  0  0
   30.0860  -25.6244  -19.8924 C   0  0  0  0  0  0  0  0  0  0  0  0
   29.6122  -24.8958  -20.7780 O   0  0  0  0  0  0  0  0  0  0  0  0
   28.8686  -23.0039  -16.6460 C   0  0  0  0  0  0  0  0  0  0  0  0
   28.7930  -23.0360  -15.3852 O   0  0  0  0  0  0  0  0  0  0  0  0
   31.4500  -26.0215  -19.9703 O   0  0  0  0  0  0  0  0  0  0  0  0
   28.2017  -21.9986  -17.3918 N   0  0  0  0  0  0  0  0  0  0  0  0
   27.5791  -20.8998  -16.7205 C   0  0  1  0  0  0  0  0  0  0  0  0
   27.4885  -19.6593  -17.5944 C   0  0  0  0  0  0  0  0  0  0  0  0
   29.0943  -19.0007  -18.0324 S   0  0  0  0  0  0  0  0  0  0  0  0
   26.2312  -21.2250  -16.1953 C   0  0  0  0  0  0  0  0  0  0  0  0
   25.4972  -21.9469  -16.9205 O   0  0  0  0  0  0  0  0  0  0  0  0
   22.9118  -21.5814  -12.5596 C   0  0  0  0  0  0  0  0  0  0  0  0
   24.2720  -21.1251  -13.0151 C   0  0  1  0  0  0  0  0  0  0  0  0
   25.3499  -21.9031  -12.3067 C   0  0  0  0  0  0  0  0  0  0  0  0
   24.4183  -21.1746  -14.5175 C   0  0  2  0  0  0  0  0  0  0  0  0
   25.7239  -20.7910  -14.9651 N   0  0  0  0  0  0  0  0  0  0  0  0
   23.3650  -20.2607  -15.0690 C   0  0  0  0  0  0  0  0  0  0  0  0
   23.6749  -19.0215  -15.5846 O   0  0  0  0  0  0  0  0  0  0  0  0
   22.1823  -20.6887  -15.0349 O   0  0  0  0  0  0  0  0  0  0  0  0
  2  1  1  1
  2  7  1  0
  3  2  1  0
  4  5  1  0
  4  3  1  0
  5  6  2  0
  7  8  2  0
  7 10  1  0
  9  5  1  0
 10 11  1  0
 11 14  1  0
 12 13  1  0
 11 12  1  6
 14 15  2  0
 14 20  1  0
 17 16  1  6
 17 18  1  0
 19 17  1  0
 19 20  1  1
 21 19  1  0
 21 22  1  0
 23 21  2  0
M  END
$$$$
