VCD.pdb
     RDKit          3D

 22 21  0  0  1  0  0  0  0  0999 V2000
    9.8980  -14.9661   17.6062 C   0  0  0  0  0  0  0  0  0  0  0  0
    8.4529  -15.1212   17.9591 C   0  0  2  0  0  0  0  0  0  0  0  0
    7.6099  -15.1670   16.7038 C   0  0  0  0  0  0  0  0  0  0  0  0
    7.9184  -14.0053   18.8195 C   0  0  2  0  0  0  0  0  0  0  0  0
    8.0564  -12.7325   18.1232 N   0  0  0  0  0  0  0  0  0  0  0  0
    8.5536  -13.9011   20.1299 C   0  0  0  0  0  0  0  0  0  0  0  0
    9.4444  -13.0509   20.3463 O   0  0  0  0  0  0  0  0  0  0  0  0
    8.2015  -14.7446   21.2244 N   0  0  0  0  0  0  0  0  0  0  0  0
    8.8390  -14.6632   22.5230 C   0  0  1  0  0  0  0  0  0  0  0  0
    7.7236  -14.8026   23.5709 C   0  0  0  0  0  0  0  0  0  0  0  0
    8.3514  -14.8006   25.2484 S   0  0  0  0  0  0  0  0  0  0  0  0
    9.8083  -15.7696   22.7734 C   0  0  0  0  0  0  0  0  0  0  0  0
    9.3889  -16.9311   22.4800 O   0  0  0  0  0  0  0  0  0  0  0  0
   11.1038  -15.6079   23.2894 N   0  0  0  0  0  0  0  0  0  0  0  0
   12.0695  -16.6172   23.6192 C   0  0  1  0  0  0  0  0  0  0  0  0
   13.4810  -16.1447   23.6041 C   0  0  0  0  0  0  0  0  0  0  0  0
   13.9179  -15.5370   22.3356 C   0  0  0  0  0  0  0  0  0  0  0  0
   14.7769  -14.6566   22.2890 O   0  0  0  0  0  0  0  0  0  0  0  0
   11.7227  -17.4932   24.7476 C   0  0  0  0  0  0  0  0  0  0  0  0
   10.7464  -17.2253   25.4746 O   0  0  0  0  0  0  0  0  0  0  0  0
   13.3125  -15.9895   21.1737 O   0  0  0  0  0  0  0  0  0  0  0  0
   12.4328  -18.6569   25.0850 O   0  0  0  0  0  0  0  0  0  0  0  0
  2  3  1  6
  2  4  1  0
  2  1  1  0
  4  5  1  6
  6  4  1  0
  7  6  2  0
  8  6  1  0
  9 12  1  0
  9  8  1  0
  9 10  1  1
 11 10  1  0
 12 14  1  0
 13 12  2  0
 14 15  1  0
 15 19  1  0
 15 16  1  1
 16 17  1  0
 17 21  1  0
 18 17  2  0
 19 20  2  0
 19 22  1  0
M  END
$$$$
