VCD.pdb
     RDKit          3D

 22 21  0  0  1  0  0  0  0  0999 V2000
    7.7241  -13.9918   17.5216 C   0  0  0  0  0  0  0  0  0  0  0  0
    8.3379  -14.4068   18.8207 C   0  0  2  0  0  0  0  0  0  0  0  0
    7.5755  -15.5727   19.4107 C   0  0  0  0  0  0  0  0  0  0  0  0
    8.3575  -13.3120   19.8562 C   0  0  2  0  0  0  0  0  0  0  0  0
    9.1289  -12.1777   19.3643 N   0  0  0  0  0  0  0  0  0  0  0  0
    8.8894  -13.7218   21.1526 C   0  0  0  0  0  0  0  0  0  0  0  0
   10.1186  -13.8733   21.3238 O   0  0  0  0  0  0  0  0  0  0  0  0
    8.0558  -13.9669   22.2833 N   0  0  0  0  0  0  0  0  0  0  0  0
    8.5479  -14.5400   23.5197 C   0  0  1  0  0  0  0  0  0  0  0  0
    7.3658  -14.5505   24.5016 C   0  0  0  0  0  0  0  0  0  0  0  0
    6.8303  -12.9016   24.9513 S   0  0  0  0  0  0  0  0  0  0  0  0
    9.0013  -15.9541   23.3736 C   0  0  0  0  0  0  0  0  0  0  0  0
    8.5429  -16.5658   22.3604 O   0  0  0  0  0  0  0  0  0  0  0  0
    9.8715  -16.6186   24.2521 N   0  0  0  0  0  0  0  0  0  0  0  0
   11.0541  -17.3711   23.9434 C   0  0  1  0  0  0  0  0  0  0  0  0
   11.8994  -16.7745   22.8732 C   0  0  0  0  0  0  0  0  0  0  0  0
   13.0763  -17.5749   22.4942 C   0  0  0  0  0  0  0  0  0  0  0  0
   13.0092  -18.5041   21.6899 O   0  0  0  0  0  0  0  0  0  0  0  0
   11.7977  -17.8999   25.0959 C   0  0  0  0  0  0  0  0  0  0  0  0
   12.6178  -18.8261   24.9437 O   0  0  0  0  0  0  0  0  0  0  0  0
   14.2842  -17.2487   23.0910 O   0  0  0  0  0  0  0  0  0  0  0  0
   11.6524  -17.4241   26.4092 O   0  0  0  0  0  0  0  0  0  0  0  0
  2  3  1  1
  2  4  1  0
  2  1  1  0
  4  5  1  6
  6  4  1  0
  7  6  2  0
  8  6  1  0
  9 12  1  0
  9  8  1  0
  9 10  1  1
 11 10  1  0
 12 14  1  0
 13 12  2  0
 14 15  1  0
 15 19  1  0
 15 16  1  1
 16 17  1  0
 17 21  1  0
 18 17  2  0
 19 20  2  0
 19 22  1  0
M  END
$$$$
