VCD.pdb
     RDKit          3D

 22 21  0  0  1  0  0  0  0  0999 V2000
    7.6132  -12.3753   19.7878 C   0  0  0  0  0  0  0  0  0  0  0  0
    8.4033  -13.2773   18.8940 C   0  0  2  0  0  0  0  0  0  0  0  0
    7.7295  -13.3979   17.5449 C   0  0  0  0  0  0  0  0  0  0  0  0
    8.5707  -14.6721   19.4395 C   0  0  2  0  0  0  0  0  0  0  0  0
    7.2983  -15.3808   19.3884 N   0  0  0  0  0  0  0  0  0  0  0  0
    9.0892  -14.7248   20.8033 C   0  0  0  0  0  0  0  0  0  0  0  0
   10.2915  -14.4799   21.0434 O   0  0  0  0  0  0  0  0  0  0  0  0
    8.2710  -15.0495   21.9252 N   0  0  0  0  0  0  0  0  0  0  0  0
    8.7726  -15.0944   23.2837 C   0  0  1  0  0  0  0  0  0  0  0  0
    7.5986  -14.7144   24.1997 C   0  0  0  0  0  0  0  0  0  0  0  0
    8.1351  -13.9144   25.7097 S   0  0  0  0  0  0  0  0  0  0  0  0
    9.2234  -16.4545   23.7003 C   0  0  0  0  0  0  0  0  0  0  0  0
    8.4071  -17.3936   23.4500 O   0  0  0  0  0  0  0  0  0  0  0  0
   10.4475  -16.7447   24.3232 N   0  0  0  0  0  0  0  0  0  0  0  0
   11.4126  -17.7494   23.9780 C   0  0  1  0  0  0  0  0  0  0  0  0
   11.6625  -17.8843   22.5167 C   0  0  0  0  0  0  0  0  0  0  0  0
   12.6169  -18.9431   22.1460 C   0  0  0  0  0  0  0  0  0  0  0  0
   13.1517  -18.9889   21.0384 O   0  0  0  0  0  0  0  0  0  0  0  0
   12.6177  -17.7978   24.8183 C   0  0  0  0  0  0  0  0  0  0  0  0
   13.3705  -16.8073   24.8956 O   0  0  0  0  0  0  0  0  0  0  0  0
   12.8919  -19.9114   23.0991 O   0  0  0  0  0  0  0  0  0  0  0  0
   13.0038  -18.9172   25.5733 O   0  0  0  0  0  0  0  0  0  0  0  0
  2  3  1  6
  2  4  1  0
  2  1  1  0
  4  5  1  1
  6  4  1  0
  7  6  2  0
  8  6  1  0
  9 12  1  0
  9  8  1  0
  9 10  1  1
 11 10  1  0
 12 14  1  0
 13 12  2  0
 14 15  1  0
 15 19  1  0
 15 16  1  6
 16 17  1  0
 17 21  1  0
 18 17  2  0
 19 20  2  0
 19 22  1  0
M  END
$$$$
