VCD.pdb
     RDKit          3D

 22 21  0  0  1  0  0  0  0  0999 V2000
    7.9717  -14.9822   15.8871 C   0  0  0  0  0  0  0  0  0  0  0  0
    8.5289  -14.9012   17.2726 C   0  0  2  0  0  0  0  0  0  0  0  0
    8.4862  -16.2611   17.9340 C   0  0  0  0  0  0  0  0  0  0  0  0
    7.7858  -13.9425   18.1670 C   0  0  2  0  0  0  0  0  0  0  0  0
    7.7697  -12.6147   17.5664 N   0  0  0  0  0  0  0  0  0  0  0  0
    8.3241  -13.8450   19.5206 C   0  0  0  0  0  0  0  0  0  0  0  0
    8.7290  -12.7523   19.9739 O   0  0  0  0  0  0  0  0  0  0  0  0
    8.4166  -14.9682   20.3943 N   0  0  0  0  0  0  0  0  0  0  0  0
    8.7160  -14.8493   21.8069 C   0  0  1  0  0  0  0  0  0  0  0  0
    7.5323  -14.1073   22.4473 C   0  0  0  0  0  0  0  0  0  0  0  0
    7.7269  -13.8978   24.2154 S   0  0  0  0  0  0  0  0  0  0  0  0
    8.8256  -16.1669   22.4985 C   0  0  0  0  0  0  0  0  0  0  0  0
    8.2204  -17.1268   21.9297 O   0  0  0  0  0  0  0  0  0  0  0  0
    9.5322  -16.3985   23.6891 N   0  0  0  0  0  0  0  0  0  0  0  0
   10.8423  -16.9596   23.8590 C   0  0  1  0  0  0  0  0  0  0  0  0
   11.8405  -16.5040   22.8531 C   0  0  0  0  0  0  0  0  0  0  0  0
   13.1682  -17.1308   22.9691 C   0  0  0  0  0  0  0  0  0  0  0  0
   13.7182  -17.3113   24.0553 O   0  0  0  0  0  0  0  0  0  0  0  0
   11.3405  -17.0204   25.2407 C   0  0  0  0  0  0  0  0  0  0  0  0
   12.4419  -17.5482   25.4893 O   0  0  0  0  0  0  0  0  0  0  0  0
   13.7959  -17.5097   21.7927 O   0  0  0  0  0  0  0  0  0  0  0  0
   10.6458  -16.5088   26.3489 O   0  0  0  0  0  0  0  0  0  0  0  0
  2  3  1  1
  2  4  1  0
  2  1  1  0
  4  5  1  6
  6  4  1  0
  7  6  2  0
  8  6  1  0
  9 12  1  0
  9  8  1  0
  9 10  1  1
 11 10  1  0
 12 14  1  0
 13 12  2  0
 14 15  1  0
 15 19  1  0
 15 16  1  6
 16 17  1  0
 17 21  1  0
 18 17  2  0
 19 20  2  0
 19 22  1  0
M  END
$$$$
