VCD.pdb
     RDKit          3D

 22 21  0  0  1  0  0  0  0  0999 V2000
    8.7214  -19.2152   18.9345 C   0  0  0  0  0  0  0  0  0  0  0  0
    7.4881  -18.4081   18.6811 C   0  0  2  0  0  0  0  0  0  0  0  0
    6.7830  -18.9063   17.4388 C   0  0  0  0  0  0  0  0  0  0  0  0
    7.7580  -16.9383   18.4862 C   0  0  2  0  0  0  0  0  0  0  0  0
    8.5814  -16.7380   17.3006 N   0  0  0  0  0  0  0  0  0  0  0  0
    8.4005  -16.2900   19.6257 C   0  0  0  0  0  0  0  0  0  0  0  0
    9.6463  -16.2364   19.7159 O   0  0  0  0  0  0  0  0  0  0  0  0
    7.6606  -15.6864   20.6848 N   0  0  0  0  0  0  0  0  0  0  0  0
    8.2655  -15.2635   21.9316 C   0  0  1  0  0  0  0  0  0  0  0  0
    7.1539  -14.5956   22.7564 C   0  0  0  0  0  0  0  0  0  0  0  0
    7.7620  -13.8893   24.2859 S   0  0  0  0  0  0  0  0  0  0  0  0
    8.7870  -16.3985   22.7478 C   0  0  0  0  0  0  0  0  0  0  0  0
    8.5055  -17.5547   22.3061 O   0  0  0  0  0  0  0  0  0  0  0  0
    9.5420  -16.2683   23.9240 N   0  0  0  0  0  0  0  0  0  0  0  0
   10.7504  -16.9492   24.2931 C   0  0  1  0  0  0  0  0  0  0  0  0
   11.7289  -17.1087   23.1826 C   0  0  0  0  0  0  0  0  0  0  0  0
   12.0910  -18.5019   22.8706 C   0  0  0  0  0  0  0  0  0  0  0  0
   11.8175  -19.4372   23.6224 O   0  0  0  0  0  0  0  0  0  0  0  0
   11.3377  -16.5609   25.5835 C   0  0  0  0  0  0  0  0  0  0  0  0
   12.3720  -17.1199   25.9973 O   0  0  0  0  0  0  0  0  0  0  0  0
   12.7715  -18.7300   21.6847 O   0  0  0  0  0  0  0  0  0  0  0  0
   10.8045  -15.5681   26.4216 O   0  0  0  0  0  0  0  0  0  0  0  0
  2  3  1  6
  2  4  1  0
  2  1  1  0
  4  5  1  6
  6  4  1  0
  7  6  2  0
  8  6  1  0
  9 12  1  0
  9  8  1  0
  9 10  1  1
 11 10  1  0
 12 14  1  0
 13 12  2  0
 14 15  1  0
 15 19  1  0
 15 16  1  6
 16 17  1  0
 17 21  1  0
 18 17  2  0
 19 20  2  0
 19 22  1  0
M  END
$$$$
