VCD.pdb
     RDKit          3D

 22 21  0  0  1  0  0  0  0  0999 V2000
    9.7947  -21.1092   12.5348 C   0  0  0  0  0  0  0  0  0  0  0  0
    9.9634  -20.4827   13.8823 C   0  0  2  0  0  0  0  0  0  0  0  0
    9.7437  -21.5121   14.9690 C   0  0  0  0  0  0  0  0  0  0  0  0
    9.0109  -19.3441   14.1422 C   0  0  2  0  0  0  0  0  0  0  0  0
    9.2412  -18.2749   13.1790 N   0  0  0  0  0  0  0  0  0  0  0  0
    9.0891  -18.7925   15.4917 C   0  0  0  0  0  0  0  0  0  0  0  0
   10.0655  -18.0963   15.8456 O   0  0  0  0  0  0  0  0  0  0  0  0
    8.0743  -19.0071   16.4703 N   0  0  0  0  0  0  0  0  0  0  0  0
    8.1838  -18.5433   17.8386 C   0  0  1  0  0  0  0  0  0  0  0  0
    6.7519  -18.4541   18.3895 C   0  0  0  0  0  0  0  0  0  0  0  0
    6.7069  -17.9684   20.1129 S   0  0  0  0  0  0  0  0  0  0  0  0
    8.9292  -19.4867   18.7222 C   0  0  0  0  0  0  0  0  0  0  0  0
    9.0113  -20.6780   18.2920 O   0  0  0  0  0  0  0  0  0  0  0  0
    9.5232  -19.1476   19.9480 N   0  0  0  0  0  0  0  0  0  0  0  0
   10.7027  -19.6963   20.5544 C   0  0  1  0  0  0  0  0  0  0  0  0
   11.8516  -19.8624   19.6225 C   0  0  0  0  0  0  0  0  0  0  0  0
   13.0563  -20.4594   20.2237 C   0  0  0  0  0  0  0  0  0  0  0  0
   12.9989  -21.2561   21.1602 O   0  0  0  0  0  0  0  0  0  0  0  0
   11.0526  -19.1608   21.8779 C   0  0  0  0  0  0  0  0  0  0  0  0
   10.8703  -17.9552   22.1367 O   0  0  0  0  0  0  0  0  0  0  0  0
   14.2818  -20.0809   19.6979 O   0  0  0  0  0  0  0  0  0  0  0  0
   11.5976  -19.9317   22.9176 O   0  0  0  0  0  0  0  0  0  0  0  0
  2  3  1  1
  2  4  1  0
  2  1  1  0
  4  5  1  6
  6  4  1  0
  7  6  2  0
  8  6  1  0
  9 12  1  0
  9  8  1  0
  9 10  1  1
 11 10  1  0
 12 14  1  0
 13 12  2  0
 14 15  1  0
 15 19  1  0
 15 16  1  6
 16 17  1  0
 17 21  1  0
 18 17  2  0
 19 20  2  0
 19 22  1  0
M  END
$$$$
