VCD.pdb
     RDKit          3D

 22 21  0  0  1  0  0  0  0  0999 V2000
    7.7652  -15.5936   20.3566 C   0  0  0  0  0  0  0  0  0  0  0  0
    6.9833  -14.3188   20.3766 C   0  0  2  0  0  0  0  0  0  0  0  0
    6.5081  -13.9746   18.9822 C   0  0  0  0  0  0  0  0  0  0  0  0
    7.7671  -13.1379   20.8890 C   0  0  2  0  0  0  0  0  0  0  0  0
    8.9057  -12.8817   20.0162 N   0  0  0  0  0  0  0  0  0  0  0  0
    8.2440  -13.2841   22.2612 C   0  0  0  0  0  0  0  0  0  0  0  0
    9.3878  -13.7290   22.4998 O   0  0  0  0  0  0  0  0  0  0  0  0
    7.4507  -12.9321   23.3927 N   0  0  0  0  0  0  0  0  0  0  0  0
    7.8488  -13.2146   24.7568 C   0  0  1  0  0  0  0  0  0  0  0  0
    6.7667  -12.6108   25.6657 C   0  0  0  0  0  0  0  0  0  0  0  0
    7.0983  -12.8830   27.4047 S   0  0  0  0  0  0  0  0  0  0  0  0
    7.9062  -14.6738   25.0633 C   0  0  0  0  0  0  0  0  0  0  0  0
    6.9829  -15.3713   24.5417 O   0  0  0  0  0  0  0  0  0  0  0  0
    8.8823  -15.2950   25.8581 N   0  0  0  0  0  0  0  0  0  0  0  0
    9.3950  -16.6324   25.7658 C   0  0  1  0  0  0  0  0  0  0  0  0
    9.7246  -17.0693   24.3815 C   0  0  0  0  0  0  0  0  0  0  0  0
   10.3518  -18.3984   24.2836 C   0  0  0  0  0  0  0  0  0  0  0  0
    9.9051  -19.3821   24.8732 O   0  0  0  0  0  0  0  0  0  0  0  0
   10.3825  -17.0132   26.7860 C   0  0  0  0  0  0  0  0  0  0  0  0
   10.1551  -17.9664   27.5563 O   0  0  0  0  0  0  0  0  0  0  0  0
   11.4893  -18.5068   23.4988 O   0  0  0  0  0  0  0  0  0  0  0  0
   11.6134  -16.3623   26.9686 O   0  0  0  0  0  0  0  0  0  0  0  0
  2  3  1  6
  2  4  1  0
  2  1  1  0
  4  5  1  6
  6  4  1  0
  7  6  2  0
  8  6  1  0
  9 12  1  0
  9  8  1  0
  9 10  1  1
 11 10  1  0
 12 14  1  0
 13 12  2  0
 14 15  1  0
 15 19  1  0
 15 16  1  6
 16 17  1  0
 17 21  1  0
 18 17  2  0
 19 20  2  0
 19 22  1  0
M  END
$$$$
