VCD.pdb
     RDKit          3D

 22 21  0  0  1  0  0  0  0  0999 V2000
    9.0544  -12.4812   19.2635 C   0  0  0  0  0  0  0  0  0  0  0  0
    7.9396  -13.4611   19.4473 C   0  0  2  0  0  0  0  0  0  0  0  0
    6.9468  -12.9397   20.4627 C   0  0  0  0  0  0  0  0  0  0  0  0
    8.3987  -14.8158   19.9217 C   0  0  2  0  0  0  0  0  0  0  0  0
    7.2950  -15.7652   19.8551 N   0  0  0  0  0  0  0  0  0  0  0  0
    8.9504  -14.8229   21.2734 C   0  0  0  0  0  0  0  0  0  0  0  0
   10.0251  -14.2387   21.5318 O   0  0  0  0  0  0  0  0  0  0  0  0
    8.3078  -15.4815   22.3629 N   0  0  0  0  0  0  0  0  0  0  0  0
    8.9371  -15.6732   23.6538 C   0  0  1  0  0  0  0  0  0  0  0  0
    7.8099  -15.6705   24.6983 C   0  0  0  0  0  0  0  0  0  0  0  0
    6.4451  -16.7362   24.2404 S   0  0  0  0  0  0  0  0  0  0  0  0
    9.6386  -16.9844   23.7779 C   0  0  0  0  0  0  0  0  0  0  0  0
    9.6374  -17.6983   22.7285 O   0  0  0  0  0  0  0  0  0  0  0  0
   10.2761  -17.4534   24.9373 N   0  0  0  0  0  0  0  0  0  0  0  0
   11.6045  -17.9777   25.0796 C   0  0  1  0  0  0  0  0  0  0  0  0
   12.6269  -17.2961   24.2394 C   0  0  0  0  0  0  0  0  0  0  0  0
   13.4156  -18.1906   23.3750 C   0  0  0  0  0  0  0  0  0  0  0  0
   13.9548  -19.2115   23.8017 O   0  0  0  0  0  0  0  0  0  0  0  0
   12.0330  -18.2767   26.4537 C   0  0  0  0  0  0  0  0  0  0  0  0
   11.5864  -17.6135   27.4099 O   0  0  0  0  0  0  0  0  0  0  0  0
   13.5424  -17.8346   22.0413 O   0  0  0  0  0  0  0  0  0  0  0  0
   12.9423  -19.2930   26.7888 O   0  0  0  0  0  0  0  0  0  0  0  0
  2  3  1  1
  2  4  1  0
  2  1  1  0
  4  5  1  1
  6  4  1  0
  7  6  2  0
  8  6  1  0
  9 12  1  0
  9  8  1  0
  9 10  1  1
 11 10  1  0
 12 14  1  0
 13 12  2  0
 14 15  1  0
 15 19  1  0
 15 16  1  1
 16 17  1  0
 17 21  1  0
 18 17  2  0
 19 20  2  0
 19 22  1  0
M  END
$$$$
