VCD.pdb
     RDKit          3D

 22 21  0  0  1  0  0  0  0  0999 V2000
    8.5115  -19.9366   19.8108 C   0  0  0  0  0  0  0  0  0  0  0  0
    7.3184  -19.1503   19.3693 C   0  0  2  0  0  0  0  0  0  0  0  0
    6.3805  -20.0275   18.5696 C   0  0  0  0  0  0  0  0  0  0  0  0
    7.6634  -17.9607   18.5107 C   0  0  2  0  0  0  0  0  0  0  0  0
    8.2291  -18.4098   17.2450 N   0  0  0  0  0  0  0  0  0  0  0  0
    8.5862  -17.0174   19.1354 C   0  0  0  0  0  0  0  0  0  0  0  0
    9.8226  -17.1400   18.9954 O   0  0  0  0  0  0  0  0  0  0  0  0
    8.1426  -15.9168   19.9262 N   0  0  0  0  0  0  0  0  0  0  0  0
    9.0430  -15.0798   20.6930 C   0  0  1  0  0  0  0  0  0  0  0  0
    8.2376  -13.8431   21.1213 C   0  0  0  0  0  0  0  0  0  0  0  0
    7.3680  -13.0808   19.7536 S   0  0  0  0  0  0  0  0  0  0  0  0
    9.5320  -15.7317   21.9430 C   0  0  0  0  0  0  0  0  0  0  0  0
    8.6704  -16.4309   22.5594 O   0  0  0  0  0  0  0  0  0  0  0  0
   10.8351  -15.6247   22.4538 N   0  0  0  0  0  0  0  0  0  0  0  0
   11.5629  -16.5659   23.2567 C   0  0  1  0  0  0  0  0  0  0  0  0
   11.3872  -17.9865   22.8481 C   0  0  0  0  0  0  0  0  0  0  0  0
   11.0638  -18.9122   23.9471 C   0  0  0  0  0  0  0  0  0  0  0  0
   11.1713  -18.5920   25.1307 O   0  0  0  0  0  0  0  0  0  0  0  0
   12.9414  -16.1870   23.5990 C   0  0  0  0  0  0  0  0  0  0  0  0
   13.6273  -16.9151   24.3425 O   0  0  0  0  0  0  0  0  0  0  0  0
   10.6354  -20.1840   23.5999 O   0  0  0  0  0  0  0  0  0  0  0  0
   13.5736  -15.0220   23.1348 O   0  0  0  0  0  0  0  0  0  0  0  0
  2  3  1  6
  2  4  1  0
  2  1  1  0
  4  5  1  6
  6  4  1  0
  7  6  2  0
  8  6  1  0
  9 12  1  0
  9  8  1  0
  9 10  1  1
 11 10  1  0
 12 14  1  0
 13 12  2  0
 14 15  1  0
 15 19  1  0
 15 16  1  6
 16 17  1  0
 17 21  1  0
 18 17  2  0
 19 20  2  0
 19 22  1  0
M  END
$$$$
