VCD.pdb
     RDKit          3D

 22 21  0  0  1  0  0  0  0  0999 V2000
    7.0723  -14.3416   18.0483 C   0  0  0  0  0  0  0  0  0  0  0  0
    7.7038  -14.6318   19.3726 C   0  0  2  0  0  0  0  0  0  0  0  0
    6.9808  -15.7697   20.0589 C   0  0  0  0  0  0  0  0  0  0  0  0
    7.6928  -13.4573   20.3170 C   0  0  2  0  0  0  0  0  0  0  0  0
    8.3725  -12.3225   19.7053 N   0  0  0  0  0  0  0  0  0  0  0  0
    8.2972  -13.7279   21.6181 C   0  0  0  0  0  0  0  0  0  0  0  0
    9.5380  -13.8150   21.7445 O   0  0  0  0  0  0  0  0  0  0  0  0
    7.5244  -13.9032   22.8036 N   0  0  0  0  0  0  0  0  0  0  0  0
    8.1061  -14.2591   24.0820 C   0  0  1  0  0  0  0  0  0  0  0  0
    6.9888  -14.1217   25.1281 C   0  0  0  0  0  0  0  0  0  0  0  0
    6.4762  -12.4224   25.3681 S   0  0  0  0  0  0  0  0  0  0  0  0
    8.5812  -15.6724   24.1397 C   0  0  0  0  0  0  0  0  0  0  0  0
    8.4621  -16.3262   23.0583 O   0  0  0  0  0  0  0  0  0  0  0  0
    9.1324  -16.2943   25.2711 N   0  0  0  0  0  0  0  0  0  0  0  0
   10.2448  -17.1981   25.3441 C   0  0  1  0  0  0  0  0  0  0  0  0
   11.4268  -16.7832   24.5399 C   0  0  0  0  0  0  0  0  0  0  0  0
   11.4677  -17.3269   23.1717 C   0  0  0  0  0  0  0  0  0  0  0  0
   10.9921  -18.4254   22.8855 O   0  0  0  0  0  0  0  0  0  0  0  0
   10.5597  -17.7220   26.6810 C   0  0  0  0  0  0  0  0  0  0  0  0
   10.7925  -16.9406   27.6238 O   0  0  0  0  0  0  0  0  0  0  0  0
   12.0795  -16.5516   22.1990 O   0  0  0  0  0  0  0  0  0  0  0  0
   10.6207  -19.0897   26.9939 O   0  0  0  0  0  0  0  0  0  0  0  0
  2  3  1  1
  2  4  1  0
  2  1  1  0
  4  5  1  6
  6  4  1  0
  7  6  2  0
  8  6  1  0
  9 12  1  0
  9  8  1  0
  9 10  1  1
 11 10  1  0
 12 14  1  0
 13 12  2  0
 14 15  1  0
 15 19  1  0
 15 16  1  1
 16 17  1  0
 17 21  1  0
 18 17  2  0
 19 20  2  0
 19 22  1  0
M  END
$$$$
