VCD.pdb
     RDKit          3D

 22 21  0  0  1  0  0  0  0  0999 V2000
    6.7399  -12.7390   18.7967 C   0  0  0  0  0  0  0  0  0  0  0  0
    7.7903  -13.8010   18.8707 C   0  0  2  0  0  0  0  0  0  0  0  0
    7.2363  -15.0389   19.5412 C   0  0  0  0  0  0  0  0  0  0  0  0
    9.0174  -13.3838   19.6399 C   0  0  2  0  0  0  0  0  0  0  0  0
    9.5664  -12.1593   19.0718 N   0  0  0  0  0  0  0  0  0  0  0  0
   10.0675  -14.3969   19.6896 C   0  0  0  0  0  0  0  0  0  0  0  0
    9.8400  -15.5359   20.1522 O   0  0  0  0  0  0  0  0  0  0  0  0
   11.3919  -14.1554   19.2194 N   0  0  0  0  0  0  0  0  0  0  0  0
   12.4739  -15.1056   19.3796 C   0  0  1  0  0  0  0  0  0  0  0  0
   13.6314  -14.6077   18.4998 C   0  0  0  0  0  0  0  0  0  0  0  0
   15.0876  -15.6426   18.6283 S   0  0  0  0  0  0  0  0  0  0  0  0
   12.9926  -15.1773   20.7769 C   0  0  0  0  0  0  0  0  0  0  0  0
   12.7432  -14.1628   21.4976 O   0  0  0  0  0  0  0  0  0  0  0  0
   13.7069  -16.2571   21.3194 N   0  0  0  0  0  0  0  0  0  0  0  0
   13.7768  -16.6889   22.6864 C   0  0  1  0  0  0  0  0  0  0  0  0
   12.4636  -16.7260   23.3864 C   0  0  0  0  0  0  0  0  0  0  0  0
   12.5190  -17.1858   24.7846 C   0  0  0  0  0  0  0  0  0  0  0  0
   13.5499  -17.6271   25.2920 O   0  0  0  0  0  0  0  0  0  0  0  0
   14.6517  -17.8399   22.9522 C   0  0  0  0  0  0  0  0  0  0  0  0
   14.9712  -18.1300   24.1215 O   0  0  0  0  0  0  0  0  0  0  0  0
   11.3480  -17.1138   25.5230 O   0  0  0  0  0  0  0  0  0  0  0  0
   15.1773  -18.6739   21.9520 O   0  0  0  0  0  0  0  0  0  0  0  0
  2  3  1  1
  2  4  1  0
  2  1  1  0
  4  5  1  6
  6  4  1  0
  7  6  2  0
  8  6  1  0
  9 12  1  0
  9  8  1  0
  9 10  1  6
 11 10  1  0
 12 14  1  0
 13 12  2  0
 14 15  1  0
 15 19  1  0
 15 16  1  6
 16 17  1  0
 17 21  1  0
 18 17  2  0
 19 20  2  0
 19 22  1  0
M  END
$$$$
