VCD.pdb
     RDKit          3D

 22 21  0  0  1  0  0  0  0  0999 V2000
    7.6565  -12.0455   20.7392 C   0  0  0  0  0  0  0  0  0  0  0  0
    8.1268  -13.3346   20.1444 C   0  0  2  0  0  0  0  0  0  0  0  0
    7.4136  -13.5982   18.8365 C   0  0  0  0  0  0  0  0  0  0  0  0
    7.8939  -14.5297   21.0325 C   0  0  2  0  0  0  0  0  0  0  0  0
    6.4679  -14.8201   21.1097 N   0  0  0  0  0  0  0  0  0  0  0  0
    8.4229  -14.3839   22.3855 C   0  0  0  0  0  0  0  0  0  0  0  0
    9.6482  -14.4884   22.6110 O   0  0  0  0  0  0  0  0  0  0  0  0
    7.5906  -14.1152   23.5118 N   0  0  0  0  0  0  0  0  0  0  0  0
    8.0321  -14.2878   24.8810 C   0  0  1  0  0  0  0  0  0  0  0  0
    6.9803  -13.6086   25.7721 C   0  0  0  0  0  0  0  0  0  0  0  0
    6.2508  -12.1671   24.9988 S   0  0  0  0  0  0  0  0  0  0  0  0
    8.0978  -15.7176   25.3025 C   0  0  0  0  0  0  0  0  0  0  0  0
    7.2203  -16.4739   24.7839 O   0  0  0  0  0  0  0  0  0  0  0  0
    9.0361  -16.2538   26.1985 N   0  0  0  0  0  0  0  0  0  0  0  0
    9.8361  -17.4369   26.0567 C   0  0  1  0  0  0  0  0  0  0  0  0
   10.4161  -17.6267   24.6990 C   0  0  0  0  0  0  0  0  0  0  0  0
   11.2845  -18.8076   24.5552 C   0  0  0  0  0  0  0  0  0  0  0  0
   10.9203  -19.9364   24.8843 O   0  0  0  0  0  0  0  0  0  0  0  0
   10.7539  -17.7283   27.1674 C   0  0  0  0  0  0  0  0  0  0  0  0
   11.7712  -17.0296   27.3422 O   0  0  0  0  0  0  0  0  0  0  0  0
   12.5535  -18.6026   24.0366 O   0  0  0  0  0  0  0  0  0  0  0  0
   10.5674  -18.7739   28.0861 O   0  0  0  0  0  0  0  0  0  0  0  0
  2  3  1  6
  2  4  1  0
  2  1  1  0
  4  5  1  1
  6  4  1  0
  7  6  2  0
  8  6  1  0
  9 12  1  0
  9  8  1  0
  9 10  1  1
 11 10  1  0
 12 14  1  0
 13 12  2  0
 14 15  1  0
 15 19  1  0
 15 16  1  6
 16 17  1  0
 17 21  1  0
 18 17  2  0
 19 20  2  0
 19 22  1  0
M  END
$$$$
