VCD.pdb
     RDKit          3D

 22 21  0  0  1  0  0  0  0  0999 V2000
    7.7469  -12.4580   20.1452 C   0  0  0  0  0  0  0  0  0  0  0  0
    8.4841  -13.4113   19.2594 C   0  0  2  0  0  0  0  0  0  0  0  0
    7.7916  -13.5220   17.9190 C   0  0  0  0  0  0  0  0  0  0  0  0
    8.5906  -14.8034   19.8270 C   0  0  2  0  0  0  0  0  0  0  0  0
    7.2740  -15.4272   19.8612 N   0  0  0  0  0  0  0  0  0  0  0  0
    9.1796  -14.8638   21.1615 C   0  0  0  0  0  0  0  0  0  0  0  0
   10.3749  -14.5498   21.3510 O   0  0  0  0  0  0  0  0  0  0  0  0
    8.4410  -15.2738   22.3103 N   0  0  0  0  0  0  0  0  0  0  0  0
    8.9888  -15.2542   23.6516 C   0  0  1  0  0  0  0  0  0  0  0  0
    7.7977  -15.1096   24.6118 C   0  0  0  0  0  0  0  0  0  0  0  0
    7.2509  -13.4123   24.7792 S   0  0  0  0  0  0  0  0  0  0  0  0
    9.6901  -16.5188   24.0197 C   0  0  0  0  0  0  0  0  0  0  0  0
    8.9911  -17.5732   23.9161 O   0  0  0  0  0  0  0  0  0  0  0  0
   11.0226  -16.6076   24.4522 N   0  0  0  0  0  0  0  0  0  0  0  0
   11.7831  -17.7807   24.7765 C   0  0  1  0  0  0  0  0  0  0  0  0
   13.2343  -17.6782   24.4611 C   0  0  0  0  0  0  0  0  0  0  0  0
   13.5423  -17.1204   23.1332 C   0  0  0  0  0  0  0  0  0  0  0  0
   12.8806  -17.3977   22.1331 O   0  0  0  0  0  0  0  0  0  0  0  0
   11.4743  -18.4091   26.0691 C   0  0  0  0  0  0  0  0  0  0  0  0
   11.9647  -19.5167   26.3628 O   0  0  0  0  0  0  0  0  0  0  0  0
   14.6285  -16.2641   23.0412 O   0  0  0  0  0  0  0  0  0  0  0  0
   10.6367  -17.8365   27.0401 O   0  0  0  0  0  0  0  0  0  0  0  0
  2  3  1  6
  2  4  1  0
  2  1  1  0
  4  5  1  1
  6  4  1  0
  7  6  2  0
  8  6  1  0
  9 12  1  0
  9  8  1  0
  9 10  1  1
 11 10  1  0
 12 14  1  0
 13 12  2  0
 14 15  1  0
 15 19  1  0
 15 16  1  1
 16 17  1  0
 17 21  1  0
 18 17  2  0
 19 20  2  0
 19 22  1  0
M  END
$$$$
