VCD.pdb
     RDKit          3D

 22 21  0  0  1  0  0  0  0  0999 V2000
    6.6422  -15.5765   19.1714 C   0  0  0  0  0  0  0  0  0  0  0  0
    7.3674  -15.3887   20.4658 C   0  0  2  0  0  0  0  0  0  0  0  0
    6.6965  -16.1869   21.5619 C   0  0  0  0  0  0  0  0  0  0  0  0
    7.4233  -13.9541   20.9239 C   0  0  2  0  0  0  0  0  0  0  0  0
    8.1232  -13.1444   19.9348 N   0  0  0  0  0  0  0  0  0  0  0  0
    8.0552  -13.7643   22.2262 C   0  0  0  0  0  0  0  0  0  0  0  0
    9.2932  -13.8747   22.3618 O   0  0  0  0  0  0  0  0  0  0  0  0
    7.3138  -13.4441   23.4015 N   0  0  0  0  0  0  0  0  0  0  0  0
    7.9115  -13.3740   24.7195 C   0  0  1  0  0  0  0  0  0  0  0  0
    6.8839  -12.6882   25.6335 C   0  0  0  0  0  0  0  0  0  0  0  0
    7.3902  -12.6773   27.3515 S   0  0  0  0  0  0  0  0  0  0  0  0
    8.1901  -14.7150   25.3117 C   0  0  0  0  0  0  0  0  0  0  0  0
    7.1898  -15.4935   25.3788 O   0  0  0  0  0  0  0  0  0  0  0  0
    9.4416  -15.1493   25.7761 N   0  0  0  0  0  0  0  0  0  0  0  0
    9.7840  -16.3992   26.3929 C   0  0  1  0  0  0  0  0  0  0  0  0
   10.6367  -17.2847   25.5534 C   0  0  0  0  0  0  0  0  0  0  0  0
   11.0793  -18.5254   26.2122 C   0  0  0  0  0  0  0  0  0  0  0  0
   10.3630  -19.5238   26.2849 O   0  0  0  0  0  0  0  0  0  0  0  0
   10.1698  -16.3316   27.8098 C   0  0  0  0  0  0  0  0  0  0  0  0
   10.4573  -15.2368   28.3316 O   0  0  0  0  0  0  0  0  0  0  0  0
   12.3494  -18.5306   26.7676 O   0  0  0  0  0  0  0  0  0  0  0  0
   10.2421  -17.4487   28.6578 O   0  0  0  0  0  0  0  0  0  0  0  0
  2  3  1  1
  2  4  1  0
  2  1  1  0
  4  5  1  6
  6  4  1  0
  7  6  2  0
  8  6  1  0
  9 12  1  0
  9  8  1  0
  9 10  1  1
 11 10  1  0
 12 14  1  0
 13 12  2  0
 14 15  1  0
 15 19  1  0
 15 16  1  6
 16 17  1  0
 17 21  1  0
 18 17  2  0
 19 20  2  0
 19 22  1  0
M  END
$$$$
