VCD.pdb
     RDKit          3D

 22 21  0  0  1  0  0  0  0  0999 V2000
    6.8630  -14.1610   18.5323 C   0  0  0  0  0  0  0  0  0  0  0  0
    7.4747  -14.4569   19.8646 C   0  0  2  0  0  0  0  0  0  0  0  0
    6.5572  -15.3452   20.6758 C   0  0  0  0  0  0  0  0  0  0  0  0
    7.7525  -13.2257   20.6881 C   0  0  2  0  0  0  0  0  0  0  0  0
    8.6033  -12.3096   19.9394 N   0  0  0  0  0  0  0  0  0  0  0  0
    8.3702  -13.4967   21.9829 C   0  0  0  0  0  0  0  0  0  0  0  0
    9.5847  -13.7813   22.0684 O   0  0  0  0  0  0  0  0  0  0  0  0
    7.6410  -13.4514   23.2075 N   0  0  0  0  0  0  0  0  0  0  0  0
    8.1939  -13.8860   24.4742 C   0  0  1  0  0  0  0  0  0  0  0  0
    7.3256  -13.2547   25.5739 C   0  0  0  0  0  0  0  0  0  0  0  0
    5.6976  -12.7947   24.9858 S   0  0  0  0  0  0  0  0  0  0  0  0
    8.1305  -15.3641   24.6683 C   0  0  0  0  0  0  0  0  0  0  0  0
    7.3810  -15.9837   23.8524 O   0  0  0  0  0  0  0  0  0  0  0  0
    8.8246  -16.0802   25.6562 N   0  0  0  0  0  0  0  0  0  0  0  0
    9.8259  -17.0950   25.4904 C   0  0  1  0  0  0  0  0  0  0  0  0
   10.7934  -16.8289   24.3908 C   0  0  0  0  0  0  0  0  0  0  0  0
   11.8047  -17.8801   24.1868 C   0  0  0  0  0  0  0  0  0  0  0  0
   11.8354  -18.9049   24.8678 O   0  0  0  0  0  0  0  0  0  0  0  0
   10.4246  -17.6146   26.7283 C   0  0  0  0  0  0  0  0  0  0  0  0
   10.1994  -18.7852   27.0924 O   0  0  0  0  0  0  0  0  0  0  0  0
   12.7456  -17.6705   23.1906 O   0  0  0  0  0  0  0  0  0  0  0  0
   11.2658  -16.8664   27.5678 O   0  0  0  0  0  0  0  0  0  0  0  0
  2  3  1  1
  2  4  1  0
  2  1  1  0
  4  5  1  6
  6  4  1  0
  7  6  2  0
  8  6  1  0
  9 12  1  0
  9  8  1  0
  9 10  1  1
 11 10  1  0
 12 14  1  0
 13 12  2  0
 14 15  1  0
 15 19  1  0
 15 16  1  6
 16 17  1  0
 17 21  1  0
 18 17  2  0
 19 20  2  0
 19 22  1  0
M  END
$$$$
