ESY.pdb
     RDKit          3D

 28 28  0  0  1  0  0  0  0  0999 V2000
    9.2875  -13.9425   18.1528 N   0  0  0  0  0  0  0  0  0  0  0  0
    9.9557  -15.0020   18.9283 C   0  0  1  0  0  0  0  0  0  0  0  0
   11.2674  -14.5126   19.4254 C   0  0  0  0  0  0  0  0  0  0  0  0
   12.3778  -14.7676   18.4548 C   0  0  0  0  0  0  0  0  0  0  0  0
   13.6973  -14.4517   18.9997 C   0  0  0  0  0  0  0  0  0  0  0  0
   14.3062  -13.3852   18.7830 O   0  0  0  0  0  0  0  0  0  0  0  0
    9.0534  -15.2970   20.0782 C   0  0  0  0  0  0  0  0  0  0  0  0
    8.0785  -14.5215   20.3551 O   0  0  0  0  0  0  0  0  0  0  0  0
   14.3001  -15.4154   19.8120 O   0  0  0  0  0  0  0  0  0  0  0  0
    8.8424  -19.0085   21.6827 O   0  0  0  0  0  0  0  0  0  0  0  0
    7.7356  -18.1837   21.7310 C   0  0  0  0  0  0  0  0  0  0  0  0
    8.1935  -16.7508   21.8828 C   0  0  2  0  0  0  0  0  0  0  0  0
    9.2105  -16.4240   20.9177 N   0  0  0  0  0  0  0  0  0  0  0  0
    8.7501  -16.5312   23.2365 C   0  0  0  0  0  0  0  0  0  0  0  0
   10.0041  -16.4525   23.3661 O   0  0  0  0  0  0  0  0  0  0  0  0
    6.4014  -10.2421   26.3098 O   0  0  0  0  0  0  0  0  0  0  0  0
    6.6828  -11.6024   26.3862 C   0  0  0  0  0  0  0  0  0  0  0  0
    5.6501  -12.5009   26.5768 C   0  0  0  0  0  0  0  0  0  0  0  0
    5.9098  -13.8403   26.6539 C   0  0  0  0  0  0  0  0  0  0  0  0
    7.2064  -14.3404   26.5447 C   0  0  0  0  0  0  0  0  0  0  0  0
    7.4682  -15.7889   26.6351 C   0  0  0  0  0  0  0  0  0  0  0  0
    8.5326  -16.2708   25.6675 C   0  0  2  0  0  0  0  0  0  0  0  0
    7.9056  -16.4103   24.3705 N   0  0  0  0  0  0  0  0  0  0  0  0
    9.1113  -17.5736   26.0470 C   0  0  0  0  0  0  0  0  0  0  0  0
    9.9414  -17.7099   26.9865 O   0  0  0  0  0  0  0  0  0  0  0  0
    8.2050  -13.4376   26.3579 C   0  0  0  0  0  0  0  0  0  0  0  0
    7.9589  -12.0765   26.2774 C   0  0  0  0  0  0  0  0  0  0  0  0
    8.7443  -18.7086   25.3590 O   0  0  0  0  0  0  0  0  0  0  0  0
  2  1  1  6
  2  7  1  0
  3  2  1  0
  4  3  1  0
  4  5  1  0
  5  6  2  0
  7  8  2  0
  9  5  1  0
 12 11  1  1
 11 10  1  0
 13  7  1  0
 13 12  1  0
 14 12  1  0
 14 15  2  0
 16 17  1  0
 17 27  2  0
 17 18  1  0
 18 19  2  0
 19 20  1  0
 20 21  1  0
 22 21  1  1
 22 24  1  0
 22 23  1  0
 23 14  1  0
 24 28  1  0
 25 24  2  0
 26 20  2  0
 27 26  1  0
M  END
$$$$
