ESY.pdb
     RDKit          3D

 28 28  0  0  1  0  0  0  0  0999 V2000
    9.5320  -16.8111   16.7642 N   0  0  0  0  0  0  0  0  0  0  0  0
    9.8543  -17.4438   18.0550 C   0  0  1  0  0  0  0  0  0  0  0  0
   11.3248  -17.4392   18.2660 C   0  0  0  0  0  0  0  0  0  0  0  0
   11.9535  -18.7574   17.9389 C   0  0  0  0  0  0  0  0  0  0  0  0
   13.4034  -18.7619   18.1271 C   0  0  0  0  0  0  0  0  0  0  0  0
   14.0388  -19.7033   18.6418 O   0  0  0  0  0  0  0  0  0  0  0  0
    9.1879  -16.6097   19.0960 C   0  0  0  0  0  0  0  0  0  0  0  0
    9.2513  -15.3361   19.0473 O   0  0  0  0  0  0  0  0  0  0  0  0
   14.1064  -17.6332   17.6982 O   0  0  0  0  0  0  0  0  0  0  0  0
    6.4489  -18.1021   21.7730 O   0  0  0  0  0  0  0  0  0  0  0  0
    6.3991  -16.7685   21.4172 C   0  0  0  0  0  0  0  0  0  0  0  0
    7.7995  -16.2850   21.1150 C   0  0  2  0  0  0  0  0  0  0  0  0
    8.4603  -17.1560   20.1784 N   0  0  0  0  0  0  0  0  0  0  0  0
    8.6051  -16.2400   22.3557 C   0  0  0  0  0  0  0  0  0  0  0  0
    9.7003  -16.8686   22.3852 O   0  0  0  0  0  0  0  0  0  0  0  0
   10.9968  -14.7654   30.7152 O   0  0  0  0  0  0  0  0  0  0  0  0
   10.3517  -14.7200   29.4835 C   0  0  0  0  0  0  0  0  0  0  0  0
    9.6316  -15.8179   29.0519 C   0  0  0  0  0  0  0  0  0  0  0  0
    8.9922  -15.7892   27.8446 C   0  0  0  0  0  0  0  0  0  0  0  0
    9.0428  -14.6681   27.0177 C   0  0  0  0  0  0  0  0  0  0  0  0
    8.3503  -14.6570   25.7158 C   0  0  0  0  0  0  0  0  0  0  0  0
    8.9688  -15.5941   24.6957 C   0  0  2  0  0  0  0  0  0  0  0  0
    8.1686  -15.5114   23.4925 N   0  0  0  0  0  0  0  0  0  0  0  0
    8.9933  -16.9998   25.1425 C   0  0  0  0  0  0  0  0  0  0  0  0
    7.9760  -17.7448   25.1245 O   0  0  0  0  0  0  0  0  0  0  0  0
    9.7571  -13.6012   27.4634 C   0  0  0  0  0  0  0  0  0  0  0  0
   10.4112  -13.6138   28.6848 C   0  0  0  0  0  0  0  0  0  0  0  0
   10.1691  -17.5474   25.6049 O   0  0  0  0  0  0  0  0  0  0  0  0
  2  1  1  6
  2  7  1  0
  3  2  1  0
  4  3  1  0
  4  5  1  0
  5  6  2  0
  7  8  2  0
  9  5  1  0
 12 11  1  1
 11 10  1  0
 13  7  1  0
 13 12  1  0
 14 12  1  0
 14 15  2  0
 16 17  1  0
 17 27  2  0
 17 18  1  0
 18 19  2  0
 19 20  1  0
 20 21  1  0
 22 21  1  1
 22 24  1  0
 22 23  1  0
 23 14  1  0
 24 28  1  0
 25 24  2  0
 26 20  2  0
 27 26  1  0
M  END
$$$$
