ESY.pdb
     RDKit          3D

 28 28  0  0  1  0  0  0  0  0999 V2000
   13.0048  -18.2367   18.6309 N   0  0  0  0  0  0  0  0  0  0  0  0
   12.8825  -18.4221   20.0873 C   0  0  1  0  0  0  0  0  0  0  0  0
   13.8735  -17.5670   20.7899 C   0  0  0  0  0  0  0  0  0  0  0  0
   15.2605  -18.1252   20.7216 C   0  0  0  0  0  0  0  0  0  0  0  0
   16.2541  -17.2682   21.3666 C   0  0  0  0  0  0  0  0  0  0  0  0
   16.6997  -16.2160   20.8671 O   0  0  0  0  0  0  0  0  0  0  0  0
   11.4987  -17.9916   20.4387 C   0  0  0  0  0  0  0  0  0  0  0  0
   10.8988  -17.1031   19.7466 O   0  0  0  0  0  0  0  0  0  0  0  0
   16.7237  -17.6670   22.6205 O   0  0  0  0  0  0  0  0  0  0  0  0
    9.1374  -19.9498   23.2456 O   0  0  0  0  0  0  0  0  0  0  0  0
    8.5719  -19.3744   22.1246 C   0  0  0  0  0  0  0  0  0  0  0  0
    9.3924  -18.1707   21.7198 C   0  0  2  0  0  0  0  0  0  0  0  0
   10.7756  -18.5227   21.5317 N   0  0  0  0  0  0  0  0  0  0  0  0
    9.3172  -17.1243   22.7639 C   0  0  0  0  0  0  0  0  0  0  0  0
   10.3215  -16.9437   23.5083 O   0  0  0  0  0  0  0  0  0  0  0  0
    6.1090  -10.7789   28.0025 O   0  0  0  0  0  0  0  0  0  0  0  0
    6.3072  -11.6864   26.9669 C   0  0  0  0  0  0  0  0  0  0  0  0
    7.3962  -11.5354   26.1293 C   0  0  0  0  0  0  0  0  0  0  0  0
    7.6050  -12.4183   25.1074 C   0  0  0  0  0  0  0  0  0  0  0  0
    6.7399  -13.4868   24.8771 C   0  0  0  0  0  0  0  0  0  0  0  0
    6.9787  -14.4271   23.7664 C   0  0  0  0  0  0  0  0  0  0  0  0
    8.1373  -15.3739   24.0164 C   0  0  2  0  0  0  0  0  0  0  0  0
    8.1499  -16.3357   22.9349 N   0  0  0  0  0  0  0  0  0  0  0  0
    8.0190  -16.1081   25.2905 C   0  0  0  0  0  0  0  0  0  0  0  0
    8.5936  -15.7413   26.3514 O   0  0  0  0  0  0  0  0  0  0  0  0
    5.6764  -13.6145   25.7136 C   0  0  0  0  0  0  0  0  0  0  0  0
    5.4501  -12.7282   26.7544 C   0  0  0  0  0  0  0  0  0  0  0  0
    7.2515  -17.2498   25.3503 O   0  0  0  0  0  0  0  0  0  0  0  0
  2  1  1  6
  2  7  1  0
  3  2  1  0
  4  3  1  0
  4  5  1  0
  5  6  2  0
  7  8  2  0
  9  5  1  0
 12 11  1  1
 11 10  1  0
 13  7  1  0
 13 12  1  0
 14 12  1  0
 14 15  2  0
 16 17  1  0
 17 27  2  0
 17 18  1  0
 18 19  2  0
 19 20  1  0
 20 21  1  0
 22 21  1  6
 22 24  1  0
 22 23  1  0
 23 14  1  0
 24 28  1  0
 25 24  2  0
 26 20  2  0
 27 26  1  0
M  END
$$$$
