ESY.pdb
     RDKit          3D

 28 28  0  0  1  0  0  0  0  0999 V2000
    9.5592  -18.4218   18.7388 N   0  0  0  0  0  0  0  0  0  0  0  0
   10.3800  -17.2041   18.6208 C   0  0  1  0  0  0  0  0  0  0  0  0
   10.3581  -16.7147   17.2184 C   0  0  0  0  0  0  0  0  0  0  0  0
    9.5084  -17.5669   16.3286 C   0  0  0  0  0  0  0  0  0  0  0  0
    9.4491  -17.0756   14.9528 C   0  0  0  0  0  0  0  0  0  0  0  0
   10.0649  -16.0723   14.5415 O   0  0  0  0  0  0  0  0  0  0  0  0
    9.7483  -16.1974   19.5213 C   0  0  0  0  0  0  0  0  0  0  0  0
   10.1878  -15.0002   19.5677 O   0  0  0  0  0  0  0  0  0  0  0  0
    8.6479  -17.7858   14.0552 O   0  0  0  0  0  0  0  0  0  0  0  0
    6.2997  -16.8160   21.4511 O   0  0  0  0  0  0  0  0  0  0  0  0
    6.8370  -15.5688   21.7028 C   0  0  0  0  0  0  0  0  0  0  0  0
    8.3285  -15.6149   21.4590 C   0  0  2  0  0  0  0  0  0  0  0  0
    8.6500  -16.4905   20.3624 N   0  0  0  0  0  0  0  0  0  0  0  0
    9.0303  -16.1052   22.6662 C   0  0  0  0  0  0  0  0  0  0  0  0
    9.1493  -17.3523   22.8283 O   0  0  0  0  0  0  0  0  0  0  0  0
    5.9239  -10.6192   27.1106 O   0  0  0  0  0  0  0  0  0  0  0  0
    6.4014  -11.8506   26.6737 C   0  0  0  0  0  0  0  0  0  0  0  0
    7.7645  -12.0520   26.5652 C   0  0  0  0  0  0  0  0  0  0  0  0
    8.2495  -13.2558   26.1376 C   0  0  0  0  0  0  0  0  0  0  0  0
    7.3993  -14.3079   25.8007 C   0  0  0  0  0  0  0  0  0  0  0  0
    7.9408  -15.5987   25.3367 C   0  0  0  0  0  0  0  0  0  0  0  0
    9.4248  -15.5530   25.0251 C   0  0  2  0  0  0  0  0  0  0  0  0
    9.5618  -15.2059   23.6267 N   0  0  0  0  0  0  0  0  0  0  0  0
   10.1031  -16.8431   25.2529 C   0  0  0  0  0  0  0  0  0  0  0  0
   10.0781  -17.7896   24.4199 O   0  0  0  0  0  0  0  0  0  0  0  0
    6.0634  -14.0860   25.9154 C   0  0  0  0  0  0  0  0  0  0  0  0
    5.5550  -12.8715   26.3474 C   0  0  0  0  0  0  0  0  0  0  0  0
   10.8025  -17.0482   26.4211 O   0  0  0  0  0  0  0  0  0  0  0  0
  2  1  1  6
  2  7  1  0
  3  2  1  0
  4  3  1  0
  4  5  1  0
  5  6  2  0
  7  8  2  0
  9  5  1  0
 12 11  1  1
 11 10  1  0
 13  7  1  0
 13 12  1  0
 14 12  1  0
 14 15  2  0
 16 17  1  0
 17 27  2  0
 17 18  1  0
 18 19  2  0
 19 20  1  0
 20 21  1  0
 22 21  1  6
 22 24  1  0
 22 23  1  0
 23 14  1  0
 24 28  1  0
 25 24  2  0
 26 20  2  0
 27 26  1  0
M  END
$$$$
