ESY.pdb
     RDKit          3D

 28 28  0  0  1  0  0  0  0  0999 V2000
    9.9703  -13.6911   19.7224 N   0  0  0  0  0  0  0  0  0  0  0  0
    8.5155  -13.8185   19.9171 C   0  0  1  0  0  0  0  0  0  0  0  0
    7.8610  -14.1539   18.6263 C   0  0  0  0  0  0  0  0  0  0  0  0
    8.2706  -13.2316   17.5210 C   0  0  0  0  0  0  0  0  0  0  0  0
    8.1548  -13.8398   16.1964 C   0  0  0  0  0  0  0  0  0  0  0  0
    9.1284  -14.1870   15.4989 O   0  0  0  0  0  0  0  0  0  0  0  0
    8.3299  -14.9354   20.8874 C   0  0  0  0  0  0  0  0  0  0  0  0
    7.1636  -15.2563   21.2939 O   0  0  0  0  0  0  0  0  0  0  0  0
    6.8658  -14.0373   15.6951 O   0  0  0  0  0  0  0  0  0  0  0  0
   11.2272  -17.6378   21.6896 O   0  0  0  0  0  0  0  0  0  0  0  0
    9.9313  -17.9969   22.0048 C   0  0  0  0  0  0  0  0  0  0  0  0
    9.1443  -16.7532   22.3510 C   0  0  2  0  0  0  0  0  0  0  0  0
    9.4023  -15.6948   21.4098 N   0  0  0  0  0  0  0  0  0  0  0  0
    9.5120  -16.2734   23.7019 C   0  0  0  0  0  0  0  0  0  0  0  0
   10.4774  -15.4663   23.8117 O   0  0  0  0  0  0  0  0  0  0  0  0
    6.1887  -10.6307   25.7866 O   0  0  0  0  0  0  0  0  0  0  0  0
    6.6663  -11.9038   26.0808 C   0  0  0  0  0  0  0  0  0  0  0  0
    5.9062  -13.0092   25.7479 C   0  0  0  0  0  0  0  0  0  0  0  0
    6.3612  -14.2665   26.0300 C   0  0  0  0  0  0  0  0  0  0  0  0
    7.5899  -14.4756   26.6543 C   0  0  0  0  0  0  0  0  0  0  0  0
    8.0626  -15.8398   26.9551 C   0  0  0  0  0  0  0  0  0  0  0  0
    9.2783  -16.2491   26.1452 C   0  0  2  0  0  0  0  0  0  0  0  0
    8.8046  -16.7024   24.8549 N   0  0  0  0  0  0  0  0  0  0  0  0
   10.0469  -17.3427   26.7692 C   0  0  0  0  0  0  0  0  0  0  0  0
   10.0297  -18.5279   26.3387 O   0  0  0  0  0  0  0  0  0  0  0  0
    8.3190  -13.3736   26.9721 C   0  0  0  0  0  0  0  0  0  0  0  0
    7.8724  -12.0920   26.6931 C   0  0  0  0  0  0  0  0  0  0  0  0
   10.8269  -17.0833   27.8739 O   0  0  0  0  0  0  0  0  0  0  0  0
  2  1  1  6
  2  7  1  0
  3  2  1  0
  4  3  1  0
  4  5  1  0
  5  6  2  0
  7  8  2  0
  9  5  1  0
 12 11  1  6
 11 10  1  0
 13  7  1  0
 13 12  1  0
 14 12  1  0
 14 15  2  0
 16 17  1  0
 17 27  2  0
 17 18  1  0
 18 19  2  0
 19 20  1  0
 20 21  1  0
 22 21  1  1
 22 24  1  0
 22 23  1  0
 23 14  1  0
 24 28  1  0
 25 24  2  0
 26 20  2  0
 27 26  1  0
M  END
$$$$
