ESY.pdb
     RDKit          3D

 28 28  0  0  1  0  0  0  0  0999 V2000
    9.5777  -18.9611   20.7394 N   0  0  0  0  0  0  0  0  0  0  0  0
   10.6487  -18.0275   20.3499 C   0  0  1  0  0  0  0  0  0  0  0  0
   10.8625  -18.0890   18.8811 C   0  0  0  0  0  0  0  0  0  0  0  0
    9.8445  -18.9416   18.1905 C   0  0  0  0  0  0  0  0  0  0  0  0
    9.6262  -18.5560   16.7971 C   0  0  0  0  0  0  0  0  0  0  0  0
    8.5152  -18.2452   16.3235 O   0  0  0  0  0  0  0  0  0  0  0  0
   10.1682  -16.6703   20.7381 C   0  0  0  0  0  0  0  0  0  0  0  0
   10.8758  -15.6362   20.4962 O   0  0  0  0  0  0  0  0  0  0  0  0
   10.7421  -18.5397   15.9567 O   0  0  0  0  0  0  0  0  0  0  0  0
    6.3580  -15.9172   21.9160 O   0  0  0  0  0  0  0  0  0  0  0  0
    7.1107  -14.8281   21.5226 C   0  0  0  0  0  0  0  0  0  0  0  0
    8.5702  -15.1107   21.7982 C   0  0  2  0  0  0  0  0  0  0  0  0
    8.9306  -16.4411   21.3826 N   0  0  0  0  0  0  0  0  0  0  0  0
    8.8526  -14.9835   23.2455 C   0  0  0  0  0  0  0  0  0  0  0  0
    8.4129  -13.9699   23.8576 O   0  0  0  0  0  0  0  0  0  0  0  0
    6.2780  -10.7334   27.1294 O   0  0  0  0  0  0  0  0  0  0  0  0
    6.7369  -12.0105   26.8231 C   0  0  0  0  0  0  0  0  0  0  0  0
    8.0954  -12.2651   26.8307 C   0  0  0  0  0  0  0  0  0  0  0  0
    8.5622  -13.5143   26.5322 C   0  0  0  0  0  0  0  0  0  0  0  0
    7.6976  -14.5605   26.2142 C   0  0  0  0  0  0  0  0  0  0  0  0
    8.2199  -15.9009   25.8902 C   0  0  0  0  0  0  0  0  0  0  0  0
    9.6502  -15.8849   25.3847 C   0  0  2  0  0  0  0  0  0  0  0  0
    9.5987  -15.9702   23.9408 N   0  0  0  0  0  0  0  0  0  0  0  0
   10.4541  -17.0142   25.8892 C   0  0  0  0  0  0  0  0  0  0  0  0
   10.7430  -18.0207   25.1865 O   0  0  0  0  0  0  0  0  0  0  0  0
    6.3666  -14.2858   26.2132 C   0  0  0  0  0  0  0  0  0  0  0  0
    5.8767  -13.0249   26.5135 C   0  0  0  0  0  0  0  0  0  0  0  0
   10.9227  -16.9923   27.1839 O   0  0  0  0  0  0  0  0  0  0  0  0
  2  1  1  6
  2  7  1  0
  3  2  1  0
  4  3  1  0
  4  5  1  0
  5  6  2  0
  7  8  2  0
  9  5  1  0
 12 11  1  1
 11 10  1  0
 13  7  1  0
 13 12  1  0
 14 12  1  0
 14 15  2  0
 16 17  1  0
 17 27  2  0
 17 18  1  0
 18 19  2  0
 19 20  1  0
 20 21  1  0
 22 21  1  1
 22 24  1  0
 22 23  1  0
 23 14  1  0
 24 28  1  0
 25 24  2  0
 26 20  2  0
 27 26  1  0
M  END
$$$$
