ESY.pdb
     RDKit          3D

 28 28  0  0  1  0  0  0  0  0999 V2000
    9.9224  -19.0253   18.7280 N   0  0  0  0  0  0  0  0  0  0  0  0
    9.6743  -19.7297   19.9978 C   0  0  1  0  0  0  0  0  0  0  0  0
   10.9386  -20.3281   20.4984 C   0  0  0  0  0  0  0  0  0  0  0  0
   12.1285  -19.4624   20.2248 C   0  0  0  0  0  0  0  0  0  0  0  0
   13.3721  -20.0140   20.7602 C   0  0  0  0  0  0  0  0  0  0  0  0
   14.0944  -20.8289   20.1524 O   0  0  0  0  0  0  0  0  0  0  0  0
    9.1894  -18.6918   20.9524 C   0  0  0  0  0  0  0  0  0  0  0  0
    9.5385  -17.4717   20.8186 O   0  0  0  0  0  0  0  0  0  0  0  0
   13.7618  -19.5918   22.0338 O   0  0  0  0  0  0  0  0  0  0  0  0
    6.8712  -19.4743   24.3344 O   0  0  0  0  0  0  0  0  0  0  0  0
    6.5604  -18.3535   23.5894 C   0  0  0  0  0  0  0  0  0  0  0  0
    7.7908  -17.9063   22.8329 C   0  0  2  0  0  0  0  0  0  0  0  0
    8.3337  -18.9789   22.0409 N   0  0  0  0  0  0  0  0  0  0  0  0
    8.8357  -17.4510   23.7770 C   0  0  0  0  0  0  0  0  0  0  0  0
    9.8336  -18.1992   23.9767 O   0  0  0  0  0  0  0  0  0  0  0  0
    5.1173  -11.8573   27.2337 O   0  0  0  0  0  0  0  0  0  0  0  0
    6.2756  -12.4675   26.7632 C   0  0  0  0  0  0  0  0  0  0  0  0
    7.3574  -12.6180   27.6102 C   0  0  0  0  0  0  0  0  0  0  0  0
    8.5023  -13.2153   27.1634 C   0  0  0  0  0  0  0  0  0  0  0  0
    8.6181  -13.6872   25.8568 C   0  0  0  0  0  0  0  0  0  0  0  0
    9.8634  -14.3250   25.3909 C   0  0  0  0  0  0  0  0  0  0  0  0
    9.7912  -15.8401   25.3635 C   0  0  2  0  0  0  0  0  0  0  0  0
    8.7309  -16.2052   24.4485 N   0  0  0  0  0  0  0  0  0  0  0  0
    9.4904  -16.4282   26.6825 C   0  0  0  0  0  0  0  0  0  0  0  0
   10.2907  -16.3793   27.6559 O   0  0  0  0  0  0  0  0  0  0  0  0
    7.5415  -13.5278   25.0428 C   0  0  0  0  0  0  0  0  0  0  0  0
    6.3732  -12.9245   25.4799 C   0  0  0  0  0  0  0  0  0  0  0  0
    8.2869  -17.0656   26.8860 O   0  0  0  0  0  0  0  0  0  0  0  0
  2  1  1  6
  2  7  1  0
  3  2  1  0
  4  3  1  0
  4  5  1  0
  5  6  2  0
  7  8  2  0
  9  5  1  0
 12 11  1  1
 11 10  1  0
 13  7  1  0
 13 12  1  0
 14 12  1  0
 14 15  2  0
 16 17  1  0
 17 27  2  0
 17 18  1  0
 18 19  2  0
 19 20  1  0
 20 21  1  0
 22 21  1  1
 22 24  1  0
 22 23  1  0
 23 14  1  0
 24 28  1  0
 25 24  2  0
 26 20  2  0
 27 26  1  0
M  END
$$$$
