ESY.pdb
     RDKit          3D

 28 28  0  0  1  0  0  0  0  0999 V2000
    8.9054  -17.1657   18.3952 N   0  0  0  0  0  0  0  0  0  0  0  0
    9.6643  -17.5694   19.5916 C   0  0  1  0  0  0  0  0  0  0  0  0
   10.9119  -16.7690   19.6918 C   0  0  0  0  0  0  0  0  0  0  0  0
   11.7004  -17.0911   20.9224 C   0  0  0  0  0  0  0  0  0  0  0  0
   12.9510  -16.3391   21.0133 C   0  0  0  0  0  0  0  0  0  0  0  0
   13.1241  -15.3581   21.7634 O   0  0  0  0  0  0  0  0  0  0  0  0
    8.7778  -17.2782   20.7547 C   0  0  0  0  0  0  0  0  0  0  0  0
    7.9633  -16.2964   20.7216 O   0  0  0  0  0  0  0  0  0  0  0  0
   14.0086  -16.7585   20.2024 O   0  0  0  0  0  0  0  0  0  0  0  0
    7.7827  -20.1371   23.5699 O   0  0  0  0  0  0  0  0  0  0  0  0
    6.9399  -19.1491   23.0996 C   0  0  0  0  0  0  0  0  0  0  0  0
    7.7299  -17.8735   22.9128 C   0  0  2  0  0  0  0  0  0  0  0  0
    8.7779  -18.0475   21.9412 N   0  0  0  0  0  0  0  0  0  0  0  0
    8.3471  -17.4606   24.1930 C   0  0  0  0  0  0  0  0  0  0  0  0
    9.5987  -17.5725   24.3213 O   0  0  0  0  0  0  0  0  0  0  0  0
    7.1284  -10.4929   25.1795 O   0  0  0  0  0  0  0  0  0  0  0  0
    7.1569  -11.7815   25.7030 C   0  0  0  0  0  0  0  0  0  0  0  0
    8.3734  -12.4004   25.9210 C   0  0  0  0  0  0  0  0  0  0  0  0
    8.4184  -13.6659   26.4347 C   0  0  0  0  0  0  0  0  0  0  0  0
    7.2562  -14.3671   26.7524 C   0  0  0  0  0  0  0  0  0  0  0  0
    7.3242  -15.7340   27.3016 C   0  0  0  0  0  0  0  0  0  0  0  0
    8.2302  -16.6577   26.5096 C   0  0  2  0  0  0  0  0  0  0  0  0
    7.5624  -16.9494   25.2592 N   0  0  0  0  0  0  0  0  0  0  0  0
    8.5019  -17.9326   27.2004 C   0  0  0  0  0  0  0  0  0  0  0  0
    7.9172  -19.0111   26.9085 O   0  0  0  0  0  0  0  0  0  0  0  0
    6.0724  -13.7379   26.5291 C   0  0  0  0  0  0  0  0  0  0  0  0
    6.0090  -12.4553   26.0089 C   0  0  0  0  0  0  0  0  0  0  0  0
    9.4327  -17.9732   28.2144 O   0  0  0  0  0  0  0  0  0  0  0  0
  2  1  1  6
  2  7  1  0
  3  2  1  0
  4  3  1  0
  4  5  1  0
  5  6  2  0
  7  8  2  0
  9  5  1  0
 12 11  1  1
 11 10  1  0
 13  7  1  0
 13 12  1  0
 14 12  1  0
 14 15  2  0
 16 17  1  0
 17 27  2  0
 17 18  1  0
 18 19  2  0
 19 20  1  0
 20 21  1  0
 22 21  1  1
 22 24  1  0
 22 23  1  0
 23 14  1  0
 24 28  1  0
 25 24  2  0
 26 20  2  0
 27 26  1  0
M  END
$$$$
