ESY.pdb
     RDKit          3D

 28 28  0  0  1  0  0  0  0  0999 V2000
    7.0579  -18.6409   16.9467 N   0  0  0  0  0  0  0  0  0  0  0  0
    8.3219  -19.0817   17.5618 C   0  0  1  0  0  0  0  0  0  0  0  0
    9.4621  -18.3509   16.9512 C   0  0  0  0  0  0  0  0  0  0  0  0
    9.0194  -17.3556   15.9248 C   0  0  0  0  0  0  0  0  0  0  0  0
   10.1101  -16.8955   15.0667 C   0  0  0  0  0  0  0  0  0  0  0  0
   10.9800  -16.0752   15.4208 O   0  0  0  0  0  0  0  0  0  0  0  0
    8.2132  -18.7381   19.0087 C   0  0  0  0  0  0  0  0  0  0  0  0
    7.3472  -17.8924   19.4129 O   0  0  0  0  0  0  0  0  0  0  0  0
   10.1672  -17.4171   13.7718 O   0  0  0  0  0  0  0  0  0  0  0  0
    8.8233  -19.9755   23.5673 O   0  0  0  0  0  0  0  0  0  0  0  0
    9.0889  -20.2677   22.2439 C   0  0  0  0  0  0  0  0  0  0  0  0
    8.7668  -19.0576   21.3964 C   0  0  2  0  0  0  0  0  0  0  0  0
    9.0383  -19.3089   20.0052 N   0  0  0  0  0  0  0  0  0  0  0  0
    9.5809  -17.8989   21.8268 C   0  0  0  0  0  0  0  0  0  0  0  0
   10.7836  -17.8340   21.4462 O   0  0  0  0  0  0  0  0  0  0  0  0
    6.6981  -13.3527   17.9215 O   0  0  0  0  0  0  0  0  0  0  0  0
    7.2792  -13.6313   19.1543 C   0  0  0  0  0  0  0  0  0  0  0  0
    6.5147  -14.2052   20.1526 C   0  0  0  0  0  0  0  0  0  0  0  0
    7.0706  -14.4851   21.3691 C   0  0  0  0  0  0  0  0  0  0  0  0
    8.4088  -14.2060   21.6424 C   0  0  0  0  0  0  0  0  0  0  0  0
    8.9903  -14.5108   22.9628 C   0  0  0  0  0  0  0  0  0  0  0  0
    9.8757  -15.7427   22.9619 C   0  0  2  0  0  0  0  0  0  0  0  0
    9.0350  -16.8782   22.6477 N   0  0  0  0  0  0  0  0  0  0  0  0
   10.5235  -15.9897   24.2641 C   0  0  0  0  0  0  0  0  0  0  0  0
   10.1249  -16.8697   25.0745 O   0  0  0  0  0  0  0  0  0  0  0  0
    9.1401  -13.6418   20.6454 C   0  0  0  0  0  0  0  0  0  0  0  0
    8.5920  -13.3516   19.4063 C   0  0  0  0  0  0  0  0  0  0  0  0
   11.6159  -15.2379   24.6351 O   0  0  0  0  0  0  0  0  0  0  0  0
  2  1  1  6
  2  7  1  0
  3  2  1  0
  4  3  1  0
  4  5  1  0
  5  6  2  0
  7  8  2  0
  9  5  1  0
 12 11  1  1
 11 10  1  0
 13  7  1  0
 13 12  1  0
 14 12  1  0
 14 15  2  0
 16 17  1  0
 17 27  2  0
 17 18  1  0
 18 19  2  0
 19 20  1  0
 20 21  1  0
 22 21  1  1
 22 24  1  0
 22 23  1  0
 23 14  1  0
 24 28  1  0
 25 24  2  0
 26 20  2  0
 27 26  1  0
M  END
$$$$
