ESY.pdb
     RDKit          3D

 28 28  0  0  1  0  0  0  0  0999 V2000
    9.2168  -17.3109   16.6814 N   0  0  0  0  0  0  0  0  0  0  0  0
    9.4544  -18.1604   17.8614 C   0  0  1  0  0  0  0  0  0  0  0  0
   10.9120  -18.3912   18.0318 C   0  0  0  0  0  0  0  0  0  0  0  0
   11.7140  -17.8489   16.8905 C   0  0  0  0  0  0  0  0  0  0  0  0
   13.1488  -18.0908   17.0341 C   0  0  0  0  0  0  0  0  0  0  0  0
   13.8828  -17.4852   17.8400 O   0  0  0  0  0  0  0  0  0  0  0  0
    8.9198  -17.3989   19.0267 C   0  0  0  0  0  0  0  0  0  0  0  0
    8.7726  -16.1329   18.9638 O   0  0  0  0  0  0  0  0  0  0  0  0
   13.7179  -19.0644   16.2093 O   0  0  0  0  0  0  0  0  0  0  0  0
    6.9134  -19.3374   22.0027 O   0  0  0  0  0  0  0  0  0  0  0  0
    6.5257  -18.0739   21.6016 C   0  0  0  0  0  0  0  0  0  0  0  0
    7.7518  -17.2844   21.2021 C   0  0  2  0  0  0  0  0  0  0  0  0
    8.5495  -18.0089   20.2475 N   0  0  0  0  0  0  0  0  0  0  0  0
    8.5896  -17.0030   22.3892 C   0  0  0  0  0  0  0  0  0  0  0  0
    9.7387  -17.5236   22.4518 O   0  0  0  0  0  0  0  0  0  0  0  0
   10.8383  -14.4631   30.5355 O   0  0  0  0  0  0  0  0  0  0  0  0
   10.2375  -14.5637   29.2848 C   0  0  0  0  0  0  0  0  0  0  0  0
    9.3161  -15.5672   29.0515 C   0  0  0  0  0  0  0  0  0  0  0  0
    8.7170  -15.6796   27.8284 C   0  0  0  0  0  0  0  0  0  0  0  0
    9.0096  -14.7990   26.7881 C   0  0  0  0  0  0  0  0  0  0  0  0
    8.3566  -14.9386   25.4733 C   0  0  0  0  0  0  0  0  0  0  0  0
    8.9596  -16.0335   24.6137 C   0  0  2  0  0  0  0  0  0  0  0  0
    8.1246  -16.1695   23.4393 N   0  0  0  0  0  0  0  0  0  0  0  0
    9.0170  -17.3394   25.2974 C   0  0  0  0  0  0  0  0  0  0  0  0
    8.0229  -18.1093   25.3941 O   0  0  0  0  0  0  0  0  0  0  0  0
    9.9186  -13.8210   27.0414 C   0  0  0  0  0  0  0  0  0  0  0  0
   10.5351  -13.6930   28.2756 C   0  0  0  0  0  0  0  0  0  0  0  0
   10.1991  -17.7602   25.8646 O   0  0  0  0  0  0  0  0  0  0  0  0
  2  1  1  6
  2  7  1  0
  3  2  1  0
  4  3  1  0
  4  5  1  0
  5  6  2  0
  7  8  2  0
  9  5  1  0
 12 11  1  1
 11 10  1  0
 13  7  1  0
 13 12  1  0
 14 12  1  0
 14 15  2  0
 16 17  1  0
 17 27  2  0
 17 18  1  0
 18 19  2  0
 19 20  1  0
 20 21  1  0
 22 21  1  1
 22 24  1  0
 22 23  1  0
 23 14  1  0
 24 28  1  0
 25 24  2  0
 26 20  2  0
 27 26  1  0
M  END
$$$$
