ESY.pdb
     RDKit          3D

 28 28  0  0  1  0  0  0  0  0999 V2000
    8.7164  -16.5517   18.3657 N   0  0  0  0  0  0  0  0  0  0  0  0
    8.0290  -17.3473   19.3975 C   0  0  1  0  0  0  0  0  0  0  0  0
    7.3713  -18.5238   18.7728 C   0  0  0  0  0  0  0  0  0  0  0  0
    7.1801  -18.3555   17.2979 C   0  0  0  0  0  0  0  0  0  0  0  0
    5.8428  -18.7384   16.8474 C   0  0  0  0  0  0  0  0  0  0  0  0
    4.9636  -19.2146   17.5925 O   0  0  0  0  0  0  0  0  0  0  0  0
    9.0924  -17.7994   20.3400 C   0  0  0  0  0  0  0  0  0  0  0  0
    8.8572  -18.7192   21.1928 O   0  0  0  0  0  0  0  0  0  0  0  0
    5.5474  -18.5529   15.4945 O   0  0  0  0  0  0  0  0  0  0  0  0
   13.0551  -16.4407   20.2915 O   0  0  0  0  0  0  0  0  0  0  0  0
   12.7597  -17.7146   20.7358 C   0  0  0  0  0  0  0  0  0  0  0  0
   11.3628  -17.7245   21.3145 C   0  0  2  0  0  0  0  0  0  0  0  0
   10.3980  -17.2563   20.3541 N   0  0  0  0  0  0  0  0  0  0  0  0
   11.2952  -16.8489   22.5058 C   0  0  0  0  0  0  0  0  0  0  0  0
   10.9748  -15.6377   22.3449 O   0  0  0  0  0  0  0  0  0  0  0  0
   10.1582  -13.7471   30.5363 O   0  0  0  0  0  0  0  0  0  0  0  0
   10.1770  -14.3515   29.2834 C   0  0  0  0  0  0  0  0  0  0  0  0
   10.3956  -15.7129   29.1881 C   0  0  0  0  0  0  0  0  0  0  0  0
   10.4171  -16.3216   27.9649 C   0  0  0  0  0  0  0  0  0  0  0  0
   10.2221  -15.6017   26.7872 C   0  0  0  0  0  0  0  0  0  0  0  0
   10.2532  -16.2750   25.4756 C   0  0  0  0  0  0  0  0  0  0  0  0
   11.6484  -16.3941   24.8918 C   0  0  2  0  0  0  0  0  0  0  0  0
   11.5812  -17.3461   23.8037 N   0  0  0  0  0  0  0  0  0  0  0  0
   12.6445  -16.8734   25.8686 C   0  0  0  0  0  0  0  0  0  0  0  0
   12.8831  -18.0962   26.0638 O   0  0  0  0  0  0  0  0  0  0  0  0
   10.0092  -14.2647   26.9064 C   0  0  0  0  0  0  0  0  0  0  0  0
    9.9843  -13.6319   28.1388 C   0  0  0  0  0  0  0  0  0  0  0  0
   13.3602  -15.9635   26.6143 O   0  0  0  0  0  0  0  0  0  0  0  0
  2  1  1  6
  2  7  1  0
  3  2  1  0
  4  3  1  0
  4  5  1  0
  5  6  2  0
  7  8  2  0
  9  5  1  0
 12 11  1  6
 11 10  1  0
 13  7  1  0
 13 12  1  0
 14 12  1  0
 14 15  2  0
 16 17  1  0
 17 27  2  0
 17 18  1  0
 18 19  2  0
 19 20  1  0
 20 21  1  0
 22 21  1  1
 22 24  1  0
 22 23  1  0
 23 14  1  0
 24 28  1  0
 25 24  2  0
 26 20  2  0
 27 26  1  0
M  END
$$$$
