ESY.pdb
     RDKit          3D

 28 28  0  0  1  0  0  0  0  0999 V2000
    7.7271  -13.4752   19.0270 N   0  0  0  0  0  0  0  0  0  0  0  0
    8.4517  -14.6513   19.5389 C   0  0  1  0  0  0  0  0  0  0  0  0
    9.8646  -14.2899   19.8218 C   0  0  0  0  0  0  0  0  0  0  0  0
   10.6477  -14.0246   18.5742 C   0  0  0  0  0  0  0  0  0  0  0  0
   12.0309  -13.6322   18.8398 C   0  0  0  0  0  0  0  0  0  0  0  0
   12.3647  -12.5351   19.3297 O   0  0  0  0  0  0  0  0  0  0  0  0
    7.7619  -15.0371   20.8033 C   0  0  0  0  0  0  0  0  0  0  0  0
    7.1786  -14.1573   21.5203 O   0  0  0  0  0  0  0  0  0  0  0  0
   13.0293  -14.5554   18.5190 O   0  0  0  0  0  0  0  0  0  0  0  0
    7.2014  -18.9900   22.0849 O   0  0  0  0  0  0  0  0  0  0  0  0
    6.2522  -18.0165   22.3277 C   0  0  0  0  0  0  0  0  0  0  0  0
    6.9409  -16.6771   22.4606 C   0  0  2  0  0  0  0  0  0  0  0  0
    7.7076  -16.3665   21.2823 N   0  0  0  0  0  0  0  0  0  0  0  0
    7.8576  -16.6850   23.6225 C   0  0  0  0  0  0  0  0  0  0  0  0
    9.1000  -16.7621   23.4083 O   0  0  0  0  0  0  0  0  0  0  0  0
    6.9549  -10.4468   25.8953 O   0  0  0  0  0  0  0  0  0  0  0  0
    7.1374  -11.7875   26.2187 C   0  0  0  0  0  0  0  0  0  0  0  0
    8.4079  -12.3302   26.1784 C   0  0  0  0  0  0  0  0  0  0  0  0
    8.6038  -13.6454   26.4933 C   0  0  0  0  0  0  0  0  0  0  0  0
    7.5449  -14.4741   26.8609 C   0  0  0  0  0  0  0  0  0  0  0  0
    7.7748  -15.8924   27.1929 C   0  0  0  0  0  0  0  0  0  0  0  0
    8.3221  -16.7023   26.0327 C   0  0  2  0  0  0  0  0  0  0  0  0
    7.3649  -16.6083   24.9511 N   0  0  0  0  0  0  0  0  0  0  0  0
    8.5135  -18.1274   26.3621 C   0  0  0  0  0  0  0  0  0  0  0  0
    7.8107  -19.0486   25.8643 O   0  0  0  0  0  0  0  0  0  0  0  0
    6.3052  -13.9180   26.8931 C   0  0  0  0  0  0  0  0  0  0  0  0
    6.0892  -12.5864   26.5768 C   0  0  0  0  0  0  0  0  0  0  0  0
    9.4983  -18.4949   27.2515 O   0  0  0  0  0  0  0  0  0  0  0  0
  2  1  1  1
  2  7  1  0
  3  2  1  0
  4  3  1  0
  4  5  1  0
  5  6  2  0
  7  8  2  0
  9  5  1  0
 12 11  1  6
 11 10  1  0
 13  7  1  0
 13 12  1  0
 14 12  1  0
 14 15  2  0
 16 17  1  0
 17 27  2  0
 17 18  1  0
 18 19  2  0
 19 20  1  0
 20 21  1  0
 22 21  1  1
 22 24  1  0
 22 23  1  0
 23 14  1  0
 24 28  1  0
 25 24  2  0
 26 20  2  0
 27 26  1  0
M  END
$$$$
