ESY.pdb
     RDKit          3D

 28 28  0  0  1  0  0  0  0  0999 V2000
    9.0911  -20.0685   17.0750 N   0  0  0  0  0  0  0  0  0  0  0  0
   10.1400  -19.3193   17.7884 C   0  0  1  0  0  0  0  0  0  0  0  0
   10.5768  -18.1590   16.9699 C   0  0  0  0  0  0  0  0  0  0  0  0
    9.8360  -18.0630   15.6729 C   0  0  0  0  0  0  0  0  0  0  0  0
   10.5533  -17.2894   14.6607 C   0  0  0  0  0  0  0  0  0  0  0  0
   11.6920  -16.8084   14.8252 O   0  0  0  0  0  0  0  0  0  0  0  0
    9.5116  -18.8420   19.0537 C   0  0  0  0  0  0  0  0  0  0  0  0
    8.4278  -18.1687   19.0277 O   0  0  0  0  0  0  0  0  0  0  0  0
    9.9089  -17.0850   13.4380 O   0  0  0  0  0  0  0  0  0  0  0  0
   10.7272  -20.2640   22.6817 O   0  0  0  0  0  0  0  0  0  0  0  0
    9.3968  -19.9273   22.5255 C   0  0  0  0  0  0  0  0  0  0  0  0
    9.2858  -18.8082   21.5149 C   0  0  2  0  0  0  0  0  0  0  0  0
   10.0570  -19.0949   20.3336 N   0  0  0  0  0  0  0  0  0  0  0  0
    9.7811  -17.5408   22.0969 C   0  0  0  0  0  0  0  0  0  0  0  0
   10.9742  -17.1976   21.8643 O   0  0  0  0  0  0  0  0  0  0  0  0
    7.4406  -13.0108   17.9392 O   0  0  0  0  0  0  0  0  0  0  0  0
    7.7203  -13.3499   19.2591 C   0  0  0  0  0  0  0  0  0  0  0  0
    6.7270  -13.9045   20.0440 C   0  0  0  0  0  0  0  0  0  0  0  0
    6.9857  -14.2432   21.3424 C   0  0  0  0  0  0  0  0  0  0  0  0
    8.2420  -14.0444   21.9127 C   0  0  0  0  0  0  0  0  0  0  0  0
    8.5015  -14.4118   23.3171 C   0  0  0  0  0  0  0  0  0  0  0  0
    9.5223  -15.5234   23.4709 C   0  0  2  0  0  0  0  0  0  0  0  0
    8.9454  -16.7214   22.8993 N   0  0  0  0  0  0  0  0  0  0  0  0
    9.8685  -15.7994   24.8781 C   0  0  0  0  0  0  0  0  0  0  0  0
    9.4407  -16.8053   25.5069 O   0  0  0  0  0  0  0  0  0  0  0  0
    9.2022  -13.4977   21.1214 C   0  0  0  0  0  0  0  0  0  0  0  0
    8.9567  -13.1486   19.8032 C   0  0  0  0  0  0  0  0  0  0  0  0
   10.6955  -14.9339   25.5587 O   0  0  0  0  0  0  0  0  0  0  0  0
  2  1  1  6
  2  7  1  0
  3  2  1  0
  4  3  1  0
  4  5  1  0
  5  6  2  0
  7  8  2  0
  9  5  1  0
 12 11  1  1
 11 10  1  0
 13  7  1  0
 13 12  1  0
 14 12  1  0
 14 15  2  0
 16 17  1  0
 17 27  2  0
 17 18  1  0
 18 19  2  0
 19 20  1  0
 20 21  1  0
 22 21  1  1
 22 24  1  0
 22 23  1  0
 23 14  1  0
 24 28  1  0
 25 24  2  0
 26 20  2  0
 27 26  1  0
M  END
$$$$
