FAF.pdb
     RDKit          3D

 28 29  0  0  1  0  0  0  0  0999 V2000
    6.4306  -17.5327   20.4251 N   0  0  0  0  0  0  0  0  0  0  0  0
    7.3755  -16.5126   20.8081 C   0  0  1  0  0  0  0  0  0  0  0  0
    6.6066  -15.1918   20.8931 C   0  0  0  0  0  0  0  0  0  0  0  0
    7.5291  -14.0291   20.9289 C   0  0  0  0  0  0  0  0  0  0  0  0
    8.1768  -13.5836   19.7868 C   0  0  0  0  0  0  0  0  0  0  0  0
    9.0212  -12.4991   19.8834 C   0  0  0  0  0  0  0  0  0  0  0  0
    9.2301  -11.8550   21.0909 C   0  0  0  0  0  0  0  0  0  0  0  0
    8.5881  -12.2971   22.2216 C   0  0  0  0  0  0  0  0  0  0  0  0
    7.7427  -13.3866   22.1127 C   0  0  0  0  0  0  0  0  0  0  0  0
    7.9419  -16.7662   22.1579 C   0  0  0  0  0  0  0  0  0  0  0  0
    7.1372  -16.8780   23.1096 O   0  0  0  0  0  0  0  0  0  0  0  0
   11.1907  -18.1779   23.3039 C   0  0  0  0  0  0  0  0  0  0  0  0
    9.8657  -17.4680   23.5970 C   0  0  2  0  0  0  0  0  0  0  0  0
    9.3260  -16.8829   22.3987 N   0  0  0  0  0  0  0  0  0  0  0  0
   10.1381  -16.4760   24.6487 C   0  0  0  0  0  0  0  0  0  0  0  0
   10.6757  -15.3917   24.3180 O   0  0  0  0  0  0  0  0  0  0  0  0
    9.8497  -16.6247   26.0186 N   0  0  0  0  0  0  0  0  0  0  0  0
   10.2523  -15.7189   27.0375 C   0  0  1  0  0  0  0  0  0  0  0  0
    9.3009  -15.3289   28.0652 C   0  0  0  0  0  0  0  0  0  0  0  0
    8.0662  -14.6661   27.5245 C   0  0  0  0  0  0  0  0  0  0  0  0
    6.9391  -15.3602   27.1445 C   0  0  0  0  0  0  0  0  0  0  0  0
    5.8152  -14.7464   26.6449 C   0  0  0  0  0  0  0  0  0  0  0  0
    5.7755  -13.3837   26.5035 C   0  0  0  0  0  0  0  0  0  0  0  0
    6.8990  -12.6806   26.8814 C   0  0  0  0  0  0  0  0  0  0  0  0
    8.0289  -13.2806   27.3820 C   0  0  0  0  0  0  0  0  0  0  0  0
   11.4779  -16.2429   27.6910 C   0  0  0  0  0  0  0  0  0  0  0  0
   12.1195  -15.5678   28.5496 O   0  0  0  0  0  0  0  0  0  0  0  0
   12.0142  -17.5026   27.4186 O   0  0  0  0  0  0  0  0  0  0  0  0
  2  1  1  1
  2 10  1  0
  3  2  1  0
  3  4  1  0
  4  9  1  0
  5  4  2  0
  5  6  1  0
  6  7  2  0
  7  8  1  0
  9  8  2  0
 10 14  1  0
 10 11  2  0
 13 12  1  6
 13 15  1  0
 14 13  1  0
 15 16  2  0
 17 18  1  0
 17 15  1  0
 18 19  1  1
 20 19  1  0
 21 20  2  0
 22 21  1  0
 23 24  1  0
 23 22  2  0
 24 25  2  0
 25 20  1  0
 26 18  1  0
 26 28  1  0
 27 26  2  0
M  END
$$$$
