FAF.pdb
     RDKit          3D

 28 29  0  0  1  0  0  0  0  0999 V2000
    6.6371  -17.1340   18.7060 N   0  0  0  0  0  0  0  0  0  0  0  0
    7.4675  -16.2551   19.4922 C   0  0  1  0  0  0  0  0  0  0  0  0
    6.7358  -14.9149   19.5980 C   0  0  0  0  0  0  0  0  0  0  0  0
    7.4828  -13.9554   20.4497 C   0  0  0  0  0  0  0  0  0  0  0  0
    7.2823  -13.8961   21.8204 C   0  0  0  0  0  0  0  0  0  0  0  0
    8.0056  -12.9842   22.5578 C   0  0  0  0  0  0  0  0  0  0  0  0
    8.9196  -12.1357   21.9567 C   0  0  0  0  0  0  0  0  0  0  0  0
    9.1175  -12.1953   20.5990 C   0  0  0  0  0  0  0  0  0  0  0  0
    8.3857  -13.1146   19.8689 C   0  0  0  0  0  0  0  0  0  0  0  0
    7.6426  -16.7583   20.8790 C   0  0  0  0  0  0  0  0  0  0  0  0
    6.6131  -17.0989   21.5034 O   0  0  0  0  0  0  0  0  0  0  0  0
   10.1600  -18.6826   22.5427 C   0  0  0  0  0  0  0  0  0  0  0  0
    9.1105  -17.5833   22.7308 C   0  0  2  0  0  0  0  0  0  0  0  0
    8.9024  -16.8631   21.5030 N   0  0  0  0  0  0  0  0  0  0  0  0
    9.5852  -16.7249   23.8273 C   0  0  0  0  0  0  0  0  0  0  0  0
   10.5091  -15.9107   23.5872 O   0  0  0  0  0  0  0  0  0  0  0  0
    9.0962  -16.7257   25.1474 N   0  0  0  0  0  0  0  0  0  0  0  0
    9.5884  -15.9035   26.1975 C   0  0  1  0  0  0  0  0  0  0  0  0
    8.6681  -15.4018   27.2049 C   0  0  0  0  0  0  0  0  0  0  0  0
    7.7033  -14.3756   26.6834 C   0  0  0  0  0  0  0  0  0  0  0  0
    6.4137  -14.6734   26.3027 C   0  0  0  0  0  0  0  0  0  0  0  0
    5.5388  -13.7290   25.8208 C   0  0  0  0  0  0  0  0  0  0  0  0
    5.9299  -12.4212   25.6988 C   0  0  0  0  0  0  0  0  0  0  0  0
    7.2188  -12.1136   26.0776 C   0  0  0  0  0  0  0  0  0  0  0  0
    8.1038  -13.0467   26.5607 C   0  0  0  0  0  0  0  0  0  0  0  0
   10.7067  -16.6062   26.8753 C   0  0  0  0  0  0  0  0  0  0  0  0
   10.9341  -17.8382   26.6887 O   0  0  0  0  0  0  0  0  0  0  0  0
   11.5860  -15.9768   27.7582 O   0  0  0  0  0  0  0  0  0  0  0  0
  2  1  1  6
  2 10  1  0
  3  2  1  0
  3  4  1  0
  4  9  1  0
  5  4  2  0
  5  6  1  0
  6  7  2  0
  7  8  1  0
  9  8  2  0
 10 14  1  0
 10 11  2  0
 13 12  1  6
 13 15  1  0
 14 13  1  0
 15 16  2  0
 17 18  1  0
 17 15  1  0
 18 19  1  1
 20 19  1  0
 21 20  2  0
 22 21  1  0
 23 24  1  0
 23 22  2  0
 24 25  2  0
 25 20  1  0
 26 18  1  0
 26 28  1  0
 27 26  2  0
M  END
$$$$
