FAF.pdb
     RDKit          3D

 28 29  0  0  1  0  0  0  0  0999 V2000
    6.6792  -16.6708   26.2976 N   0  0  0  0  0  0  0  0  0  0  0  0
    6.5996  -16.9657   24.8881 C   0  0  1  0  0  0  0  0  0  0  0  0
    5.8993  -15.7820   24.2164 C   0  0  0  0  0  0  0  0  0  0  0  0
    6.3968  -14.4870   24.7450 C   0  0  0  0  0  0  0  0  0  0  0  0
    7.3395  -13.7385   24.0568 C   0  0  0  0  0  0  0  0  0  0  0  0
    7.7626  -12.5444   24.5986 C   0  0  0  0  0  0  0  0  0  0  0  0
    7.2657  -12.0860   25.8067 C   0  0  0  0  0  0  0  0  0  0  0  0
    6.3319  -12.8282   26.4875 C   0  0  0  0  0  0  0  0  0  0  0  0
    5.9146  -14.0253   25.9340 C   0  0  0  0  0  0  0  0  0  0  0  0
    7.9470  -17.0724   24.2714 C   0  0  0  0  0  0  0  0  0  0  0  0
    8.7916  -17.7909   24.8513 O   0  0  0  0  0  0  0  0  0  0  0  0
    9.6940  -15.6965   21.2025 C   0  0  0  0  0  0  0  0  0  0  0  0
    9.5054  -16.6931   22.3500 C   0  0  2  0  0  0  0  0  0  0  0  0
    8.2997  -16.4060   23.0803 N   0  0  0  0  0  0  0  0  0  0  0  0
   10.7149  -16.6155   23.1839 C   0  0  0  0  0  0  0  0  0  0  0  0
   11.8279  -16.8009   22.6352 O   0  0  0  0  0  0  0  0  0  0  0  0
   10.7493  -16.3484   24.5657 N   0  0  0  0  0  0  0  0  0  0  0  0
   11.9268  -16.3337   25.3622 C   0  0  1  0  0  0  0  0  0  0  0  0
   12.1392  -15.2479   26.3052 C   0  0  0  0  0  0  0  0  0  0  0  0
   10.9886  -15.0319   27.2463 C   0  0  0  0  0  0  0  0  0  0  0  0
   11.0874  -15.1875   28.6111 C   0  0  0  0  0  0  0  0  0  0  0  0
   10.0277  -14.9936   29.4649 C   0  0  0  0  0  0  0  0  0  0  0  0
    8.8012  -14.6283   28.9744 C   0  0  0  0  0  0  0  0  0  0  0  0
    8.6928  -14.4701   27.6097 C   0  0  0  0  0  0  0  0  0  0  0  0
    9.7429  -14.6605   26.7445 C   0  0  0  0  0  0  0  0  0  0  0  0
   12.0359  -17.6260   26.0843 C   0  0  0  0  0  0  0  0  0  0  0  0
   11.0836  -18.4608   26.1102 O   0  0  0  0  0  0  0  0  0  0  0  0
   13.1789  -18.0217   26.7813 O   0  0  0  0  0  0  0  0  0  0  0  0
  2  1  1  1
  2 10  1  0
  3  2  1  0
  3  4  1  0
  4  9  1  0
  5  4  2  0
  5  6  1  0
  6  7  2  0
  7  8  1  0
  9  8  2  0
 10 14  1  0
 10 11  2  0
 13 12  1  6
 13 15  1  0
 14 13  1  0
 15 16  2  0
 17 18  1  0
 17 15  1  0
 18 19  1  1
 20 19  1  0
 21 20  2  0
 22 21  1  0
 23 24  1  0
 23 22  2  0
 24 25  2  0
 25 20  1  0
 26 18  1  0
 26 28  1  0
 27 26  2  0
M  END
$$$$
