FAF.pdb
     RDKit          3D

 28 29  0  0  1  0  0  0  0  0999 V2000
    6.5082  -18.1666   21.2262 N   0  0  0  0  0  0  0  0  0  0  0  0
    7.3108  -16.9872   21.4387 C   0  0  1  0  0  0  0  0  0  0  0  0
    6.3686  -15.8766   21.9093 C   0  0  0  0  0  0  0  0  0  0  0  0
    6.9712  -14.5344   21.7108 C   0  0  0  0  0  0  0  0  0  0  0  0
    7.2558  -13.7030   22.7833 C   0  0  0  0  0  0  0  0  0  0  0  0
    7.8149  -12.4683   22.5353 C   0  0  0  0  0  0  0  0  0  0  0  0
    8.0937  -12.0505   21.2453 C   0  0  0  0  0  0  0  0  0  0  0  0
    7.8115  -12.8748   20.1837 C   0  0  0  0  0  0  0  0  0  0  0  0
    7.2503  -14.1120   20.4446 C   0  0  0  0  0  0  0  0  0  0  0  0
    8.3093  -17.1889   22.5201 C   0  0  0  0  0  0  0  0  0  0  0  0
    7.9021  -17.6777   23.5976 O   0  0  0  0  0  0  0  0  0  0  0  0
   12.0745  -17.0838   22.7607 C   0  0  0  0  0  0  0  0  0  0  0  0
   10.6683  -17.1980   23.3564 C   0  0  2  0  0  0  0  0  0  0  0  0
    9.6716  -16.8554   22.3773 N   0  0  0  0  0  0  0  0  0  0  0  0
   10.6355  -16.3249   24.5400 C   0  0  0  0  0  0  0  0  0  0  0  0
   11.2596  -15.2375   24.4937 O   0  0  0  0  0  0  0  0  0  0  0  0
    9.9594  -16.5931   25.7454 N   0  0  0  0  0  0  0  0  0  0  0  0
   10.2095  -15.9371   26.9815 C   0  0  1  0  0  0  0  0  0  0  0  0
    9.1013  -15.3507   27.7174 C   0  0  0  0  0  0  0  0  0  0  0  0
    8.3995  -14.2494   26.9754 C   0  0  0  0  0  0  0  0  0  0  0  0
    8.8468  -12.9471   26.9528 C   0  0  0  0  0  0  0  0  0  0  0  0
    8.1951  -11.9438   26.2759 C   0  0  0  0  0  0  0  0  0  0  0  0
    7.0451  -12.2115   25.5801 C   0  0  0  0  0  0  0  0  0  0  0  0
    6.5899  -13.5122   25.5969 C   0  0  0  0  0  0  0  0  0  0  0  0
    7.2306  -14.5248   26.2688 C   0  0  0  0  0  0  0  0  0  0  0  0
   10.9454  -16.8635   27.8781 C   0  0  0  0  0  0  0  0  0  0  0  0
   11.1135  -18.0846   27.5865 O   0  0  0  0  0  0  0  0  0  0  0  0
   11.5049  -16.4710   29.0953 O   0  0  0  0  0  0  0  0  0  0  0  0
  2  1  1  1
  2 10  1  0
  3  2  1  0
  3  4  1  0
  4  9  1  0
  5  4  2  0
  5  6  1  0
  6  7  2  0
  7  8  1  0
  9  8  2  0
 10 14  1  0
 10 11  2  0
 13 12  1  6
 13 15  1  0
 14 13  1  0
 15 16  2  0
 17 18  1  0
 17 15  1  0
 18 19  1  1
 20 19  1  0
 21 20  2  0
 22 21  1  0
 23 24  1  0
 23 22  2  0
 24 25  2  0
 25 20  1  0
 26 18  1  0
 26 28  1  0
 27 26  2  0
M  END
$$$$
