FAF.pdb
     RDKit          3D

 28 29  0  0  1  0  0  0  0  0999 V2000
    5.7877  -18.1291   24.8375 N   0  0  0  0  0  0  0  0  0  0  0  0
    6.4591  -16.8890   24.5350 C   0  0  1  0  0  0  0  0  0  0  0  0
    6.4642  -16.0521   25.8165 C   0  0  0  0  0  0  0  0  0  0  0  0
    6.6705  -14.6116   25.5223 C   0  0  0  0  0  0  0  0  0  0  0  0
    6.3857  -13.6328   26.4621 C   0  0  0  0  0  0  0  0  0  0  0  0
    6.5980  -12.3126   26.1300 C   0  0  0  0  0  0  0  0  0  0  0  0
    7.0860  -11.9530   24.8854 C   0  0  0  0  0  0  0  0  0  0  0  0
    7.3677  -12.9233   23.9552 C   0  0  0  0  0  0  0  0  0  0  0  0
    7.1507  -14.2454   24.2996 C   0  0  0  0  0  0  0  0  0  0  0  0
    7.8800  -17.1096   24.1617 C   0  0  0  0  0  0  0  0  0  0  0  0
    8.5838  -17.7862   24.9445 O   0  0  0  0  0  0  0  0  0  0  0  0
    9.9466  -16.5564   21.0478 C   0  0  0  0  0  0  0  0  0  0  0  0
    9.7529  -16.9812   22.5064 C   0  0  2  0  0  0  0  0  0  0  0  0
    8.4512  -16.5938   22.9806 N   0  0  0  0  0  0  0  0  0  0  0  0
   10.8494  -16.3731   23.2759 C   0  0  0  0  0  0  0  0  0  0  0  0
   11.5953  -15.5471   22.6964 O   0  0  0  0  0  0  0  0  0  0  0  0
   11.1523  -16.6305   24.6264 N   0  0  0  0  0  0  0  0  0  0  0  0
   12.3302  -16.1957   25.2929 C   0  0  1  0  0  0  0  0  0  0  0  0
   12.3153  -14.9408   26.0267 C   0  0  0  0  0  0  0  0  0  0  0  0
   11.2446  -14.8687   27.0775 C   0  0  0  0  0  0  0  0  0  0  0  0
   10.1128  -14.0939   26.9532 C   0  0  0  0  0  0  0  0  0  0  0  0
    9.1403  -14.0290   27.9225 C   0  0  0  0  0  0  0  0  0  0  0  0
    9.2661  -14.7534   29.0791 C   0  0  0  0  0  0  0  0  0  0  0  0
   10.3955  -15.5319   29.2124 C   0  0  0  0  0  0  0  0  0  0  0  0
   11.3753  -15.6064   28.2523 C   0  0  0  0  0  0  0  0  0  0  0  0
   12.7985  -17.2758   26.1971 C   0  0  0  0  0  0  0  0  0  0  0  0
   13.9334  -17.2340   26.7582 O   0  0  0  0  0  0  0  0  0  0  0  0
   12.0384  -18.4069   26.4997 O   0  0  0  0  0  0  0  0  0  0  0  0
  2  1  1  1
  2 10  1  0
  3  2  1  0
  3  4  1  0
  4  9  1  0
  5  4  2  0
  5  6  1  0
  6  7  2  0
  7  8  1  0
  9  8  2  0
 10 14  1  0
 10 11  2  0
 13 12  1  6
 13 15  1  0
 14 13  1  0
 15 16  2  0
 17 18  1  0
 17 15  1  0
 18 19  1  1
 20 19  1  0
 21 20  2  0
 22 21  1  0
 23 24  1  0
 23 22  2  0
 24 25  2  0
 25 20  1  0
 26 18  1  0
 26 28  1  0
 27 26  2  0
M  END
$$$$
