FAF.pdb
     RDKit          3D

 28 29  0  0  1  0  0  0  0  0999 V2000
    6.8113  -17.4209   19.2791 N   0  0  0  0  0  0  0  0  0  0  0  0
    7.5894  -16.4140   19.9579 C   0  0  1  0  0  0  0  0  0  0  0  0
    6.8412  -15.0870   19.8099 C   0  0  0  0  0  0  0  0  0  0  0  0
    7.5773  -13.9743   20.4613 C   0  0  0  0  0  0  0  0  0  0  0  0
    8.4497  -13.1675   19.7469 C   0  0  0  0  0  0  0  0  0  0  0  0
    9.1041  -12.1505   20.4073 C   0  0  0  0  0  0  0  0  0  0  0  0
    8.9054  -11.9250   21.7586 C   0  0  0  0  0  0  0  0  0  0  0  0
    8.0410  -12.7247   22.4653 C   0  0  0  0  0  0  0  0  0  0  0  0
    7.3896  -13.7426   21.7920 C   0  0  0  0  0  0  0  0  0  0  0  0
    7.6925  -16.6877   21.4145 C   0  0  0  0  0  0  0  0  0  0  0  0
    6.6469  -17.0244   22.0136 O   0  0  0  0  0  0  0  0  0  0  0  0
   10.1155  -18.4292   23.1762 C   0  0  0  0  0  0  0  0  0  0  0  0
    9.1382  -17.2668   23.3738 C   0  0  2  0  0  0  0  0  0  0  0  0
    8.9026  -16.5832   22.1302 N   0  0  0  0  0  0  0  0  0  0  0  0
    9.7171  -16.3954   24.4081 C   0  0  0  0  0  0  0  0  0  0  0  0
   10.6131  -15.5851   24.0691 O   0  0  0  0  0  0  0  0  0  0  0  0
    9.3588  -16.3792   25.7694 N   0  0  0  0  0  0  0  0  0  0  0  0
   10.0024  -15.6018   26.7706 C   0  0  1  0  0  0  0  0  0  0  0  0
    9.2058  -14.9786   27.8149 C   0  0  0  0  0  0  0  0  0  0  0  0
    8.0587  -14.1617   27.2925 C   0  0  0  0  0  0  0  0  0  0  0  0
    8.1368  -12.8057   27.0647 C   0  0  0  0  0  0  0  0  0  0  0  0
    7.0802  -12.0643   26.5920 C   0  0  0  0  0  0  0  0  0  0  0  0
    5.8782  -12.6652   26.3230 C   0  0  0  0  0  0  0  0  0  0  0  0
    5.7906  -14.0221   26.5478 C   0  0  0  0  0  0  0  0  0  0  0  0
    6.8379  -14.7755   27.0198 C   0  0  0  0  0  0  0  0  0  0  0  0
   11.0693  -16.4181   27.4024 C   0  0  0  0  0  0  0  0  0  0  0  0
   11.1769  -17.6616   27.1866 O   0  0  0  0  0  0  0  0  0  0  0  0
   12.0267  -15.8907   28.2707 O   0  0  0  0  0  0  0  0  0  0  0  0
  2  1  1  6
  2 10  1  0
  3  2  1  0
  3  4  1  0
  4  9  1  0
  5  4  2  0
  5  6  1  0
  6  7  2  0
  7  8  1  0
  9  8  2  0
 10 14  1  0
 10 11  2  0
 13 12  1  6
 13 15  1  0
 14 13  1  0
 15 16  2  0
 17 18  1  0
 17 15  1  0
 18 19  1  1
 20 19  1  0
 21 20  2  0
 22 21  1  0
 23 24  1  0
 23 22  2  0
 24 25  2  0
 25 20  1  0
 26 18  1  0
 26 28  1  0
 27 26  2  0
M  END
$$$$
