FAF.pdb
     RDKit          3D

 28 29  0  0  1  0  0  0  0  0999 V2000
    6.4165  -19.4268   20.2048 N   0  0  0  0  0  0  0  0  0  0  0  0
    6.4739  -18.6546   21.4216 C   0  0  1  0  0  0  0  0  0  0  0  0
    7.0572  -19.5623   22.5072 C   0  0  0  0  0  0  0  0  0  0  0  0
    7.1031  -18.8742   23.8219 C   0  0  0  0  0  0  0  0  0  0  0  0
    5.9641  -18.3269   24.3925 C   0  0  0  0  0  0  0  0  0  0  0  0
    6.0702  -17.7004   25.6151 C   0  0  0  0  0  0  0  0  0  0  0  0
    7.2840  -17.6105   26.2749 C   0  0  0  0  0  0  0  0  0  0  0  0
    8.4115  -18.1531   25.7088 C   0  0  0  0  0  0  0  0  0  0  0  0
    8.2931  -18.7795   24.4811 C   0  0  0  0  0  0  0  0  0  0  0  0
    7.3930  -17.4944   21.2939 C   0  0  0  0  0  0  0  0  0  0  0  0
    8.6042  -17.7370   21.0941 O   0  0  0  0  0  0  0  0  0  0  0  0
    7.0549  -13.7324   21.0971 C   0  0  0  0  0  0  0  0  0  0  0  0
    7.8460  -15.0330   21.2647 C   0  0  2  0  0  0  0  0  0  0  0  0
    6.9569  -16.1571   21.3881 N   0  0  0  0  0  0  0  0  0  0  0  0
    8.7137  -14.8547   22.4393 C   0  0  0  0  0  0  0  0  0  0  0  0
    9.6167  -13.9854   22.3846 O   0  0  0  0  0  0  0  0  0  0  0  0
    8.6305  -15.5774   23.6446 N   0  0  0  0  0  0  0  0  0  0  0  0
    9.3871  -15.2969   24.8150 C   0  0  1  0  0  0  0  0  0  0  0  0
    8.7051  -15.1553   26.0911 C   0  0  0  0  0  0  0  0  0  0  0  0
    7.9267  -13.8774   26.2208 C   0  0  0  0  0  0  0  0  0  0  0  0
    6.5727  -13.8376   26.4696 C   0  0  0  0  0  0  0  0  0  0  0  0
    5.8666  -12.6636   26.5811 C   0  0  0  0  0  0  0  0  0  0  0  0
    6.5028  -11.4573   26.4449 C   0  0  0  0  0  0  0  0  0  0  0  0
    7.8579  -11.4871   26.1959 C   0  0  0  0  0  0  0  0  0  0  0  0
    8.5764  -12.6526   26.0820 C   0  0  0  0  0  0  0  0  0  0  0  0
   10.4573  -16.3164   24.9524 C   0  0  0  0  0  0  0  0  0  0  0  0
   11.3171  -16.2633   25.8811 O   0  0  0  0  0  0  0  0  0  0  0  0
   10.6008  -17.4004   24.0845 O   0  0  0  0  0  0  0  0  0  0  0  0
  2  1  1  6
  2 10  1  0
  3  2  1  0
  3  4  1  0
  4  9  1  0
  5  4  2  0
  5  6  1  0
  6  7  2  0
  7  8  1  0
  9  8  2  0
 10 14  1  0
 10 11  2  0
 13 12  1  1
 13 15  1  0
 14 13  1  0
 15 16  2  0
 17 18  1  0
 17 15  1  0
 18 19  1  1
 20 19  1  0
 21 20  2  0
 22 21  1  0
 23 24  1  0
 23 22  2  0
 24 25  2  0
 25 20  1  0
 26 18  1  0
 26 28  1  0
 27 26  2  0
M  END
$$$$
