FAF.pdb
     RDKit          3D

 28 29  0  0  1  0  0  0  0  0999 V2000
    5.6361  -17.2121   21.0124 N   0  0  0  0  0  0  0  0  0  0  0  0
    6.8358  -16.6335   21.5657 C   0  0  1  0  0  0  0  0  0  0  0  0
    6.5702  -15.1385   21.7593 C   0  0  0  0  0  0  0  0  0  0  0  0
    7.3398  -14.3212   20.7879 C   0  0  0  0  0  0  0  0  0  0  0  0
    8.7099  -14.1485   20.9125 C   0  0  0  0  0  0  0  0  0  0  0  0
    9.3689  -13.3784   19.9792 C   0  0  0  0  0  0  0  0  0  0  0  0
    8.6907  -12.7811   18.9305 C   0  0  0  0  0  0  0  0  0  0  0  0
    7.3335  -12.9528   18.8081 C   0  0  0  0  0  0  0  0  0  0  0  0
    6.6824  -13.7280   19.7508 C   0  0  0  0  0  0  0  0  0  0  0  0
    7.1470  -17.1906   22.9073 C   0  0  0  0  0  0  0  0  0  0  0  0
    6.2816  -17.0595   23.8015 O   0  0  0  0  0  0  0  0  0  0  0  0
    9.3509  -19.6572   24.5120 C   0  0  0  0  0  0  0  0  0  0  0  0
    8.7229  -18.2606   24.5310 C   0  0  2  0  0  0  0  0  0  0  0  0
    8.3587  -17.8483   23.2018 N   0  0  0  0  0  0  0  0  0  0  0  0
    9.7016  -17.3625   25.1635 C   0  0  0  0  0  0  0  0  0  0  0  0
   10.6862  -16.9837   24.4843 O   0  0  0  0  0  0  0  0  0  0  0  0
    9.6428  -16.8751   26.4830 N   0  0  0  0  0  0  0  0  0  0  0  0
   10.6299  -16.0523   27.0907 C   0  0  1  0  0  0  0  0  0  0  0  0
   10.5270  -14.6068   26.9747 C   0  0  0  0  0  0  0  0  0  0  0  0
    9.1165  -14.0949   27.0410 C   0  0  0  0  0  0  0  0  0  0  0  0
    8.1209  -14.5058   26.1828 C   0  0  0  0  0  0  0  0  0  0  0  0
    6.8337  -14.0277   26.2465 C   0  0  0  0  0  0  0  0  0  0  0  0
    6.4859  -13.0994   27.1929 C   0  0  0  0  0  0  0  0  0  0  0  0
    7.4757  -12.6823   28.0564 C   0  0  0  0  0  0  0  0  0  0  0  0
    8.7660  -13.1512   28.0044 C   0  0  0  0  0  0  0  0  0  0  0  0
   10.7399  -16.4128   28.5265 C   0  0  0  0  0  0  0  0  0  0  0  0
    9.8943  -17.1660   29.0942 O   0  0  0  0  0  0  0  0  0  0  0  0
   11.7682  -15.9601   29.3550 O   0  0  0  0  0  0  0  0  0  0  0  0
  2  1  1  1
  2 10  1  0
  3  2  1  0
  3  4  1  0
  4  9  1  0
  5  4  2  0
  5  6  1  0
  6  7  2  0
  7  8  1  0
  9  8  2  0
 10 14  1  0
 10 11  2  0
 13 12  1  6
 13 15  1  0
 14 13  1  0
 15 16  2  0
 17 18  1  0
 17 15  1  0
 18 19  1  1
 20 19  1  0
 21 20  2  0
 22 21  1  0
 23 24  1  0
 23 22  2  0
 24 25  2  0
 25 20  1  0
 26 18  1  0
 26 28  1  0
 27 26  2  0
M  END
$$$$
