FAF.pdb
     RDKit          3D

 28 29  0  0  1  0  0  0  0  0999 V2000
    9.5827  -15.6920   20.9047 N   0  0  0  0  0  0  0  0  0  0  0  0
    8.9702  -15.0049   22.0150 C   0  0  1  0  0  0  0  0  0  0  0  0
    7.5370  -14.6624   21.6010 C   0  0  0  0  0  0  0  0  0  0  0  0
    7.5111  -13.8545   20.3557 C   0  0  0  0  0  0  0  0  0  0  0  0
    7.9903  -12.5537   20.3268 C   0  0  0  0  0  0  0  0  0  0  0  0
    7.9393  -11.8542   19.1408 C   0  0  0  0  0  0  0  0  0  0  0  0
    7.4223  -12.4249   17.9903 C   0  0  0  0  0  0  0  0  0  0  0  0
    6.9480  -13.7134   18.0200 C   0  0  0  0  0  0  0  0  0  0  0  0
    7.0042  -14.4060   19.2162 C   0  0  0  0  0  0  0  0  0  0  0  0
    8.8731  -15.8756   23.2148 C   0  0  0  0  0  0  0  0  0  0  0  0
    8.0630  -15.5398   24.1074 O   0  0  0  0  0  0  0  0  0  0  0  0
   10.5608  -19.0368   24.4569 C   0  0  0  0  0  0  0  0  0  0  0  0
    9.6867  -17.7885   24.6088 C   0  0  2  0  0  0  0  0  0  0  0  0
    9.6461  -17.0431   23.3791 N   0  0  0  0  0  0  0  0  0  0  0  0
   10.2402  -17.0156   25.7315 C   0  0  0  0  0  0  0  0  0  0  0  0
   11.2946  -16.3628   25.5410 O   0  0  0  0  0  0  0  0  0  0  0  0
    9.6936  -16.9333   27.0263 N   0  0  0  0  0  0  0  0  0  0  0  0
   10.2290  -16.1528   28.0870 C   0  0  1  0  0  0  0  0  0  0  0  0
    9.3826  -15.1788   28.7566 C   0  0  0  0  0  0  0  0  0  0  0  0
    8.6505  -14.2664   27.8145 C   0  0  0  0  0  0  0  0  0  0  0  0
    7.4496  -14.5927   27.2247 C   0  0  0  0  0  0  0  0  0  0  0  0
    6.7890  -13.7541   26.3587 C   0  0  0  0  0  0  0  0  0  0  0  0
    7.3168  -12.5294   26.0430 C   0  0  0  0  0  0  0  0  0  0  0  0
    8.5185  -12.1940   26.6287 C   0  0  0  0  0  0  0  0  0  0  0  0
    9.1897  -13.0218   27.4956 C   0  0  0  0  0  0  0  0  0  0  0  0
   10.8150  -17.0608   29.1047 C   0  0  0  0  0  0  0  0  0  0  0  0
   10.6071  -18.3102   29.0860 O   0  0  0  0  0  0  0  0  0  0  0  0
   11.6311  -16.6198   30.1479 O   0  0  0  0  0  0  0  0  0  0  0  0
  2  1  1  6
  2 10  1  0
  3  2  1  0
  3  4  1  0
  4  9  1  0
  5  4  2  0
  5  6  1  0
  6  7  2  0
  7  8  1  0
  9  8  2  0
 10 14  1  0
 10 11  2  0
 13 12  1  6
 13 15  1  0
 14 13  1  0
 15 16  2  0
 17 18  1  0
 17 15  1  0
 18 19  1  1
 20 19  1  0
 21 20  2  0
 22 21  1  0
 23 24  1  0
 23 22  2  0
 24 25  2  0
 25 20  1  0
 26 18  1  0
 26 28  1  0
 27 26  2  0
M  END
$$$$
