FAF.pdb
     RDKit          3D

 28 29  0  0  1  0  0  0  0  0999 V2000
    5.3812  -16.2513   21.3097 N   0  0  0  0  0  0  0  0  0  0  0  0
    6.7030  -16.3222   21.8822 C   0  0  1  0  0  0  0  0  0  0  0  0
    7.2176  -14.8866   22.0134 C   0  0  0  0  0  0  0  0  0  0  0  0
    7.5799  -14.3179   20.6908 C   0  0  0  0  0  0  0  0  0  0  0  0
    6.8792  -13.2538   20.1439 C   0  0  0  0  0  0  0  0  0  0  0  0
    7.2631  -12.7696   18.9124 C   0  0  0  0  0  0  0  0  0  0  0  0
    8.3265  -13.3239   18.2207 C   0  0  0  0  0  0  0  0  0  0  0  0
    9.0200  -14.3779   18.7633 C   0  0  0  0  0  0  0  0  0  0  0  0
    8.6257  -14.8557   20.0003 C   0  0  0  0  0  0  0  0  0  0  0  0
    6.6790  -16.8956   23.2525 C   0  0  0  0  0  0  0  0  0  0  0  0
    5.8991  -16.3761   24.0818 O   0  0  0  0  0  0  0  0  0  0  0  0
    8.1601  -19.7411   25.2011 C   0  0  0  0  0  0  0  0  0  0  0  0
    7.8166  -18.2603   25.0155 C   0  0  2  0  0  0  0  0  0  0  0  0
    7.4877  -17.9824   23.6429 N   0  0  0  0  0  0  0  0  0  0  0  0
    8.9752  -17.4913   25.4959 C   0  0  0  0  0  0  0  0  0  0  0  0
    9.9637  -17.3674   24.7333 O   0  0  0  0  0  0  0  0  0  0  0  0
    9.0882  -16.8672   26.7527 N   0  0  0  0  0  0  0  0  0  0  0  0
   10.2414  -16.1780   27.2178 C   0  0  1  0  0  0  0  0  0  0  0  0
   10.2510  -14.7243   27.2267 C   0  0  0  0  0  0  0  0  0  0  0  0
    8.8804  -14.1118   27.2713 C   0  0  0  0  0  0  0  0  0  0  0  0
    8.4135  -13.3778   28.3390 C   0  0  0  0  0  0  0  0  0  0  0  0
    7.1552  -12.8255   28.3743 C   0  0  0  0  0  0  0  0  0  0  0  0
    6.2969  -12.9903   27.3186 C   0  0  0  0  0  0  0  0  0  0  0  0
    6.7555  -13.7232   26.2453 C   0  0  0  0  0  0  0  0  0  0  0  0
    8.0101  -14.2809   26.1963 C   0  0  0  0  0  0  0  0  0  0  0  0
   10.5807  -16.6694   28.5768 C   0  0  0  0  0  0  0  0  0  0  0  0
   11.6491  -16.3272   29.1648 O   0  0  0  0  0  0  0  0  0  0  0  0
    9.7629  -17.5336   29.3069 O   0  0  0  0  0  0  0  0  0  0  0  0
  2  1  1  1
  2 10  1  0
  3  2  1  0
  3  4  1  0
  4  9  1  0
  5  4  2  0
  5  6  1  0
  6  7  2  0
  7  8  1  0
  9  8  2  0
 10 14  1  0
 10 11  2  0
 13 12  1  6
 13 15  1  0
 14 13  1  0
 15 16  2  0
 17 18  1  0
 17 15  1  0
 18 19  1  1
 20 19  1  0
 21 20  2  0
 22 21  1  0
 23 24  1  0
 23 22  2  0
 24 25  2  0
 25 20  1  0
 26 18  1  0
 26 28  1  0
 27 26  2  0
M  END
$$$$
