FAF.pdb
     RDKit          3D

 28 29  0  0  1  0  0  0  0  0999 V2000
    5.9126  -17.6922   21.9161 N   0  0  0  0  0  0  0  0  0  0  0  0
    7.0350  -16.7864   21.9110 C   0  0  1  0  0  0  0  0  0  0  0  0
    6.5131  -15.4158   22.3491 C   0  0  0  0  0  0  0  0  0  0  0  0
    7.2096  -14.3169   21.6339 C   0  0  0  0  0  0  0  0  0  0  0  0
    7.9284  -14.5510   20.4716 C   0  0  0  0  0  0  0  0  0  0  0  0
    8.5534  -13.4902   19.8532 C   0  0  0  0  0  0  0  0  0  0  0  0
    8.4750  -12.2081   20.3697 C   0  0  0  0  0  0  0  0  0  0  0  0
    7.7627  -11.9773   21.5210 C   0  0  0  0  0  0  0  0  0  0  0  0
    7.1395  -13.0499   22.1332 C   0  0  0  0  0  0  0  0  0  0  0  0
    8.0695  -17.1869   22.8992 C   0  0  0  0  0  0  0  0  0  0  0  0
    7.6760  -17.5658   24.0249 O   0  0  0  0  0  0  0  0  0  0  0  0
   11.8454  -17.5235   22.9388 C   0  0  0  0  0  0  0  0  0  0  0  0
   10.4535  -17.5343   23.5774 C   0  0  2  0  0  0  0  0  0  0  0  0
    9.4506  -17.1553   22.6183 N   0  0  0  0  0  0  0  0  0  0  0  0
   10.5105  -16.6307   24.7370 C   0  0  0  0  0  0  0  0  0  0  0  0
   10.8936  -15.4503   24.5522 O   0  0  0  0  0  0  0  0  0  0  0  0
   10.1711  -16.9649   26.0618 N   0  0  0  0  0  0  0  0  0  0  0  0
   10.3962  -16.1344   27.1933 C   0  0  1  0  0  0  0  0  0  0  0  0
    9.2637  -15.5198   27.8665 C   0  0  0  0  0  0  0  0  0  0  0  0
    8.5740  -14.4662   27.0479 C   0  0  0  0  0  0  0  0  0  0  0  0
    9.0369  -13.1743   26.9316 C   0  0  0  0  0  0  0  0  0  0  0  0
    8.3963  -12.2143   26.1849 C   0  0  0  0  0  0  0  0  0  0  0  0
    7.2421  -12.5174   25.5109 C   0  0  0  0  0  0  0  0  0  0  0  0
    6.7713  -13.8079   25.6213 C   0  0  0  0  0  0  0  0  0  0  0  0
    7.4008  -14.7774   26.3637 C   0  0  0  0  0  0  0  0  0  0  0  0
   11.1982  -16.8864   28.1907 C   0  0  0  0  0  0  0  0  0  0  0  0
   11.4457  -18.1214   28.0567 O   0  0  0  0  0  0  0  0  0  0  0  0
   11.7381  -16.3034   29.3385 O   0  0  0  0  0  0  0  0  0  0  0  0
  2  1  1  1
  2 10  1  0
  3  2  1  0
  3  4  1  0
  4  9  1  0
  5  4  2  0
  5  6  1  0
  6  7  2  0
  7  8  1  0
  9  8  2  0
 10 14  1  0
 10 11  2  0
 13 12  1  6
 13 15  1  0
 14 13  1  0
 15 16  2  0
 17 18  1  0
 17 15  1  0
 18 19  1  1
 20 19  1  0
 21 20  2  0
 22 21  1  0
 23 24  1  0
 23 22  2  0
 24 25  2  0
 25 20  1  0
 26 18  1  0
 26 28  1  0
 27 26  2  0
M  END
$$$$
