FAF.pdb
     RDKit          3D

 28 29  0  0  1  0  0  0  0  0999 V2000
    6.0159  -18.4895   18.8662 N   0  0  0  0  0  0  0  0  0  0  0  0
    6.8571  -17.3693   19.2088 C   0  0  1  0  0  0  0  0  0  0  0  0
    5.9443  -16.1525   19.3794 C   0  0  0  0  0  0  0  0  0  0  0  0
    6.7186  -14.9425   19.7541 C   0  0  0  0  0  0  0  0  0  0  0  0
    7.5095  -14.2749   18.8315 C   0  0  0  0  0  0  0  0  0  0  0  0
    8.2048  -13.1574   19.2394 C   0  0  0  0  0  0  0  0  0  0  0  0
    8.1260  -12.6965   20.5424 C   0  0  0  0  0  0  0  0  0  0  0  0
    7.3422  -13.3585   21.4554 C   0  0  0  0  0  0  0  0  0  0  0  0
    6.6488  -14.4792   21.0348 C   0  0  0  0  0  0  0  0  0  0  0  0
    7.5443  -17.5751   20.5098 C   0  0  0  0  0  0  0  0  0  0  0  0
    6.8294  -17.8155   21.5082 O   0  0  0  0  0  0  0  0  0  0  0  0
   11.0967  -18.0152   21.6989 C   0  0  0  0  0  0  0  0  0  0  0  0
    9.6114  -17.7103   21.9145 C   0  0  2  0  0  0  0  0  0  0  0  0
    8.9450  -17.5102   20.6554 N   0  0  0  0  0  0  0  0  0  0  0  0
    9.5421  -16.5337   22.7949 C   0  0  0  0  0  0  0  0  0  0  0  0
    9.6852  -15.3979   22.2814 O   0  0  0  0  0  0  0  0  0  0  0  0
    9.3266  -16.5549   24.1860 N   0  0  0  0  0  0  0  0  0  0  0  0
    9.0240  -15.4149   24.9796 C   0  0  1  0  0  0  0  0  0  0  0  0
    7.6353  -15.0726   25.2402 C   0  0  0  0  0  0  0  0  0  0  0  0
    7.4608  -13.7686   25.9648 C   0  0  0  0  0  0  0  0  0  0  0  0
    6.7858  -12.6920   25.4340 C   0  0  0  0  0  0  0  0  0  0  0  0
    6.6357  -11.4998   26.1016 C   0  0  0  0  0  0  0  0  0  0  0  0
    7.1673  -11.3360   27.3542 C   0  0  0  0  0  0  0  0  0  0  0  0
    7.8445  -12.4082   27.8937 C   0  0  0  0  0  0  0  0  0  0  0  0
    8.0024  -13.6052   27.2382 C   0  0  0  0  0  0  0  0  0  0  0  0
    9.7432  -15.5243   26.2736 C   0  0  0  0  0  0  0  0  0  0  0  0
   10.2251  -14.5098   26.8593 O   0  0  0  0  0  0  0  0  0  0  0  0
    9.9429  -16.7340   26.9409 O   0  0  0  0  0  0  0  0  0  0  0  0
  2  1  1  1
  2 10  1  0
  3  2  1  0
  3  4  1  0
  4  9  1  0
  5  4  2  0
  5  6  1  0
  6  7  2  0
  7  8  1  0
  9  8  2  0
 10 14  1  0
 10 11  2  0
 13 12  1  6
 13 15  1  0
 14 13  1  0
 15 16  2  0
 17 18  1  0
 17 15  1  0
 18 19  1  1
 20 19  1  0
 21 20  2  0
 22 21  1  0
 23 24  1  0
 23 22  2  0
 24 25  2  0
 25 20  1  0
 26 18  1  0
 26 28  1  0
 27 26  2  0
M  END
$$$$
