FAF.pdb
     RDKit          3D

 28 29  0  0  1  0  0  0  0  0999 V2000
    6.1579  -17.6124   21.3703 N   0  0  0  0  0  0  0  0  0  0  0  0
    7.2583  -16.7160   21.6264 C   0  0  1  0  0  0  0  0  0  0  0  0
    6.6603  -15.3425   21.9403 C   0  0  0  0  0  0  0  0  0  0  0  0
    7.3605  -14.2641   21.1981 C   0  0  0  0  0  0  0  0  0  0  0  0
    8.2307  -14.5493   20.1569 C   0  0  0  0  0  0  0  0  0  0  0  0
    8.8510  -13.5053   19.5060 C   0  0  0  0  0  0  0  0  0  0  0  0
    8.6207  -12.1902   19.8724 C   0  0  0  0  0  0  0  0  0  0  0  0
    7.7587  -11.9089   20.9038 C   0  0  0  0  0  0  0  0  0  0  0  0
    7.1416  -12.9650   21.5500 C   0  0  0  0  0  0  0  0  0  0  0  0
    8.0364  -17.1281   22.8230 C   0  0  0  0  0  0  0  0  0  0  0  0
    7.3960  -17.3900   23.8656 O   0  0  0  0  0  0  0  0  0  0  0  0
   11.5963  -18.1455   23.5314 C   0  0  0  0  0  0  0  0  0  0  0  0
   10.1909  -17.7100   23.9563 C   0  0  2  0  0  0  0  0  0  0  0  0
    9.4423  -17.2322   22.8245 N   0  0  0  0  0  0  0  0  0  0  0  0
   10.3597  -16.6921   25.0050 C   0  0  0  0  0  0  0  0  0  0  0  0
   10.8620  -15.5876   24.6856 O   0  0  0  0  0  0  0  0  0  0  0  0
   10.0066  -16.8363   26.3601 N   0  0  0  0  0  0  0  0  0  0  0  0
   10.2835  -15.8838   27.3785 C   0  0  1  0  0  0  0  0  0  0  0  0
    9.1817  -15.2255   28.0613 C   0  0  0  0  0  0  0  0  0  0  0  0
    8.3477  -14.3571   27.1635 C   0  0  0  0  0  0  0  0  0  0  0  0
    7.2202  -14.8046   26.5115 C   0  0  0  0  0  0  0  0  0  0  0  0
    6.4657  -14.0047   25.6866 C   0  0  0  0  0  0  0  0  0  0  0  0
    6.8187  -12.6969   25.4782 C   0  0  0  0  0  0  0  0  0  0  0  0
    7.9456  -12.2400   26.1267 C   0  0  0  0  0  0  0  0  0  0  0  0
    8.7091  -13.0278   26.9537 C   0  0  0  0  0  0  0  0  0  0  0  0
   11.1734  -16.5060   28.3906 C   0  0  0  0  0  0  0  0  0  0  0  0
   11.4423  -17.7437   28.3751 O   0  0  0  0  0  0  0  0  0  0  0  0
   11.7785  -15.7896   29.4248 O   0  0  0  0  0  0  0  0  0  0  0  0
  2  1  1  1
  2 10  1  0
  3  2  1  0
  3  4  1  0
  4  9  1  0
  5  4  2  0
  5  6  1  0
  6  7  2  0
  7  8  1  0
  9  8  2  0
 10 14  1  0
 10 11  2  0
 13 12  1  6
 13 15  1  0
 14 13  1  0
 15 16  2  0
 17 18  1  0
 17 15  1  0
 18 19  1  1
 20 19  1  0
 21 20  2  0
 22 21  1  0
 23 24  1  0
 23 22  2  0
 24 25  2  0
 25 20  1  0
 26 18  1  0
 26 28  1  0
 27 26  2  0
M  END
$$$$
