TMS.pdb
     RDKit          3D

 22 21  0  0  1  0  0  0  0  0999 V2000
   20.0186  -13.1467  -17.2335 C   0  0  0  0  0  0  0  0  0  0  0  0
   21.2578  -13.0255  -18.0927 C   0  0  1  0  0  0  0  0  0  0  0  0
   21.0757  -13.7035  -19.2902 O   0  0  0  0  0  0  0  0  0  0  0  0
   21.4542  -11.5381  -18.4004 C   0  0  2  0  0  0  0  0  0  0  0  0
   22.4355  -11.5065  -19.4833 N   0  0  0  0  0  0  0  0  0  0  0  0
   21.9084  -10.7971  -17.2120 C   0  0  0  0  0  0  0  0  0  0  0  0
   21.2520  -10.8400  -16.1235 O   0  0  0  0  0  0  0  0  0  0  0  0
   27.8995  -10.0284  -16.9573 C   0  0  0  0  0  0  0  0  0  0  0  0
   27.2566  -10.7083  -15.4107 S   0  0  0  0  0  0  0  0  0  0  0  0
   25.4314  -10.5658  -15.4705 C   0  0  0  0  0  0  0  0  0  0  0  0
   25.0049   -9.2635  -16.0271 C   0  0  0  0  0  0  0  0  0  0  0  0
   23.5061   -9.1845  -16.1632 C   0  0  2  0  0  0  0  0  0  0  0  0
   23.0857  -10.0331  -17.2879 N   0  0  0  0  0  0  0  0  0  0  0  0
   23.0752   -7.8051  -16.3749 C   0  0  0  0  0  0  0  0  0  0  0  0
   23.2400   -7.2062  -17.4500 O   0  0  0  0  0  0  0  0  0  0  0  0
   20.0971   -4.3467  -16.0456 O   0  0  0  0  0  0  0  0  0  0  0  0
   20.5120   -5.6522  -15.9108 C   0  0  0  0  0  0  0  0  0  0  0  0
   21.9846   -5.7112  -15.5343 C   0  0  2  0  0  0  0  0  0  0  0  0
   22.4258   -7.0626  -15.3223 N   0  0  0  0  0  0  0  0  0  0  0  0
   22.3007   -4.9090  -14.3504 C   0  0  0  0  0  0  0  0  0  0  0  0
   22.3798   -5.3974  -13.1788 O   0  0  0  0  0  0  0  0  0  0  0  0
   22.5400   -3.5326  -14.4327 O   0  0  0  0  0  0  0  0  0  0  0  0
  2  1  1  1
  2  3  1  0
  4  2  1  0
  4  5  1  6
  6  4  1  0
  6  7  2  0
  8  9  1  0
  9 10  1  0
 10 11  1  0
 12 11  1  6
 12 13  1  0
 12 14  1  0
 13  6  1  0
 14 15  2  0
 14 19  1  0
 16 17  1  0
 18 17  1  1
 18 20  1  0
 19 18  1  0
 20 21  2  0
 20 22  1  0
M  END
$$$$
