TMS.pdb
     RDKit          3D

 22 21  0  0  1  0  0  0  0  0999 V2000
   21.4820  -21.1773  -17.1549 C   0  0  0  0  0  0  0  0  0  0  0  0
   20.2500  -20.5547  -16.5361 C   0  0  1  0  0  0  0  0  0  0  0  0
   19.1066  -21.1628  -17.0357 O   0  0  0  0  0  0  0  0  0  0  0  0
   20.3190  -20.8122  -15.0280 C   0  0  2  0  0  0  0  0  0  0  0  0
   19.0983  -20.2142  -14.4902 N   0  0  0  0  0  0  0  0  0  0  0  0
   21.5349  -20.2295  -14.4366 C   0  0  0  0  0  0  0  0  0  0  0  0
   21.7175  -18.9709  -14.4224 O   0  0  0  0  0  0  0  0  0  0  0  0
   26.4933  -20.4666   -8.6099 C   0  0  0  0  0  0  0  0  0  0  0  0
   25.1062  -21.2859   -9.4298 S   0  0  0  0  0  0  0  0  0  0  0  0
   24.9980  -20.6055  -11.1270 C   0  0  0  0  0  0  0  0  0  0  0  0
   23.8423  -21.1616  -11.8638 C   0  0  0  0  0  0  0  0  0  0  0  0
   23.7022  -20.5347  -13.2272 C   0  0  2  0  0  0  0  0  0  0  0  0
   22.5044  -21.0821  -13.8809 N   0  0  0  0  0  0  0  0  0  0  0  0
   24.8888  -20.7879  -14.0402 C   0  0  0  0  0  0  0  0  0  0  0  0
   25.2328  -21.9279  -14.3919 O   0  0  0  0  0  0  0  0  0  0  0  0
   28.7439  -18.9120  -16.3782 O   0  0  0  0  0  0  0  0  0  0  0  0
   27.5565  -18.6546  -15.7315 C   0  0  0  0  0  0  0  0  0  0  0  0
   26.9032  -19.9495  -15.2731 C   0  0  2  0  0  0  0  0  0  0  0  0
   25.7307  -19.7020  -14.4794 N   0  0  0  0  0  0  0  0  0  0  0  0
   27.8189  -20.8136  -14.5248 C   0  0  0  0  0  0  0  0  0  0  0  0
   27.9865  -20.7276  -13.2670 O   0  0  0  0  0  0  0  0  0  0  0  0
   28.5801  -21.8049  -15.1545 O   0  0  0  0  0  0  0  0  0  0  0  0
  2  1  1  6
  2  3  1  0
  4  2  1  0
  4  5  1  1
  6  4  1  0
  6  7  2  0
  8  9  1  0
  9 10  1  0
 10 11  1  0
 12 11  1  1
 12 13  1  0
 12 14  1  0
 13  6  1  0
 14 15  2  0
 14 19  1  0
 16 17  1  0
 18 17  1  1
 18 20  1  0
 19 18  1  0
 20 21  2  0
 20 22  1  0
M  END
$$$$
