TMS.pdb
     RDKit          3D

 22 21  0  0  1  0  0  0  0  0999 V2000
   17.1524  -14.1710  -17.9027 C   0  0  0  0  0  0  0  0  0  0  0  0
   17.4218  -14.4432  -16.4393 C   0  0  1  0  0  0  0  0  0  0  0  0
   18.3969  -15.4223  -16.3082 O   0  0  0  0  0  0  0  0  0  0  0  0
   17.9509  -13.1438  -15.8250 C   0  0  2  0  0  0  0  0  0  0  0  0
   18.4642  -13.5324  -14.5127 N   0  0  0  0  0  0  0  0  0  0  0  0
   16.8949  -12.1221  -15.7325 C   0  0  0  0  0  0  0  0  0  0  0  0
   16.4042  -11.5913  -16.7790 O   0  0  0  0  0  0  0  0  0  0  0  0
   10.9740   -9.0827  -11.7510 C   0  0  0  0  0  0  0  0  0  0  0  0
   12.0907  -10.4894  -11.9552 S   0  0  0  0  0  0  0  0  0  0  0  0
   13.3694   -9.9974  -13.1709 C   0  0  0  0  0  0  0  0  0  0  0  0
   14.4113  -11.0371  -13.3161 C   0  0  0  0  0  0  0  0  0  0  0  0
   15.4543  -10.6372  -14.3278 C   0  0  2  0  0  0  0  0  0  0  0  0
   16.4262  -11.7318  -14.4662 N   0  0  0  0  0  0  0  0  0  0  0  0
   16.1264   -9.4055  -13.9226 C   0  0  0  0  0  0  0  0  0  0  0  0
   16.9462   -9.3613  -12.9913 O   0  0  0  0  0  0  0  0  0  0  0  0
   17.9154   -5.1810  -15.0769 O   0  0  0  0  0  0  0  0  0  0  0  0
   17.3125   -6.3680  -15.4261 C   0  0  0  0  0  0  0  0  0  0  0  0
   16.5631   -6.9584  -14.2413 C   0  0  2  0  0  0  0  0  0  0  0  0
   15.8614   -8.1601  -14.6008 N   0  0  0  0  0  0  0  0  0  0  0  0
   15.6223   -6.0129  -13.6362 C   0  0  0  0  0  0  0  0  0  0  0  0
   14.3994   -5.9331  -13.9761 O   0  0  0  0  0  0  0  0  0  0  0  0
   16.0137   -5.1229  -12.6296 O   0  0  0  0  0  0  0  0  0  0  0  0
  2  1  1  6
  2  3  1  0
  4  2  1  0
  4  5  1  1
  6  4  1  0
  6  7  2  0
  8  9  1  0
  9 10  1  0
 10 11  1  0
 12 11  1  1
 12 13  1  0
 12 14  1  0
 13  6  1  0
 14 15  2  0
 14 19  1  0
 16 17  1  0
 18 17  1  6
 18 20  1  0
 19 18  1  0
 20 21  2  0
 20 22  1  0
M  END
$$$$
