TMS.pdb
     RDKit          3D

 22 21  0  0  1  0  0  0  0  0999 V2000
   19.2239  -14.9451  -17.6194 C   0  0  0  0  0  0  0  0  0  0  0  0
   19.2593  -16.1036  -16.6472 C   0  0  1  0  0  0  0  0  0  0  0  0
   18.7207  -17.2383  -17.2380 O   0  0  0  0  0  0  0  0  0  0  0  0
   20.7300  -16.3770  -16.3188 C   0  0  2  0  0  0  0  0  0  0  0  0
   20.7083  -17.5628  -15.4644 N   0  0  0  0  0  0  0  0  0  0  0  0
   21.3584  -15.2218  -15.6567 C   0  0  0  0  0  0  0  0  0  0  0  0
   20.9869  -14.8491  -14.4989 O   0  0  0  0  0  0  0  0  0  0  0  0
   27.7255  -10.8707  -14.8201 C   0  0  0  0  0  0  0  0  0  0  0  0
   27.0049  -12.3491  -15.5702 S   0  0  0  0  0  0  0  0  0  0  0  0
   25.1876  -12.2275  -15.3760 C   0  0  0  0  0  0  0  0  0  0  0  0
   24.5007  -13.4170  -15.9246 C   0  0  0  0  0  0  0  0  0  0  0  0
   23.0114  -13.3461  -15.7044 C   0  0  2  0  0  0  0  0  0  0  0  0
   22.3836  -14.5250  -16.3192 N   0  0  0  0  0  0  0  0  0  0  0  0
   22.4597  -12.1188  -16.2723 C   0  0  0  0  0  0  0  0  0  0  0  0
   22.4227  -11.8999  -17.4939 O   0  0  0  0  0  0  0  0  0  0  0  0
   20.3047   -9.2464  -13.9410 O   0  0  0  0  0  0  0  0  0  0  0  0
   20.0792   -9.4791  -15.2787 C   0  0  0  0  0  0  0  0  0  0  0  0
   21.3685   -9.8820  -15.9783 C   0  0  2  0  0  0  0  0  0  0  0  0
   21.9224  -11.0855  -15.4210 N   0  0  0  0  0  0  0  0  0  0  0  0
   22.3831   -8.8261  -15.9513 C   0  0  0  0  0  0  0  0  0  0  0  0
   23.5123   -8.9595  -15.3815 O   0  0  0  0  0  0  0  0  0  0  0  0
   22.1730   -7.5835  -16.5600 O   0  0  0  0  0  0  0  0  0  0  0  0
  2  1  1  6
  2  3  1  0
  4  2  1  0
  4  5  1  1
  6  4  1  0
  6  7  2  0
  8  9  1  0
  9 10  1  0
 10 11  1  0
 12 11  1  6
 12 13  1  0
 12 14  1  0
 13  6  1  0
 14 15  2  0
 14 19  1  0
 16 17  1  0
 18 17  1  1
 18 20  1  0
 19 18  1  0
 20 21  2  0
 20 22  1  0
M  END
$$$$
