TMS.pdb
     RDKit          3D

 22 21  0  0  1  0  0  0  0  0999 V2000
   16.5899  -10.6410  -17.0524 C   0  0  0  0  0  0  0  0  0  0  0  0
   17.8259  -11.3821  -17.5124 C   0  0  1  0  0  0  0  0  0  0  0  0
   17.5237  -12.1790  -18.6080 O   0  0  0  0  0  0  0  0  0  0  0  0
   18.8525  -10.3306  -17.9436 C   0  0  2  0  0  0  0  0  0  0  0  0
   19.7089  -11.0176  -18.9085 N   0  0  0  0  0  0  0  0  0  0  0  0
   19.6101   -9.8129  -16.7922 C   0  0  0  0  0  0  0  0  0  0  0  0
   19.0149   -9.4318  -15.7348 O   0  0  0  0  0  0  0  0  0  0  0  0
   24.7553  -13.5495  -14.8053 C   0  0  0  0  0  0  0  0  0  0  0  0
   24.8633  -11.8700  -15.4648 S   0  0  0  0  0  0  0  0  0  0  0  0
   23.1891  -11.1345  -15.3582 C   0  0  0  0  0  0  0  0  0  0  0  0
   23.1853   -9.7232  -15.8008 C   0  0  0  0  0  0  0  0  0  0  0  0
   21.7955   -9.1407  -15.7795 C   0  0  2  0  0  0  0  0  0  0  0  0
   21.0118   -9.7416  -16.8688 N   0  0  0  0  0  0  0  0  0  0  0  0
   21.8384   -7.6878  -15.9222 C   0  0  0  0  0  0  0  0  0  0  0  0
   22.0477   -7.1243  -17.0085 O   0  0  0  0  0  0  0  0  0  0  0  0
   20.1281   -3.5094  -14.9936 O   0  0  0  0  0  0  0  0  0  0  0  0
   20.1511   -4.8850  -14.9516 C   0  0  0  0  0  0  0  0  0  0  0  0
   21.5831   -5.3977  -14.9368 C   0  0  2  0  0  0  0  0  0  0  0  0
   21.6353   -6.8259  -14.7834 N   0  0  0  0  0  0  0  0  0  0  0  0
   22.4002   -4.7704  -13.8958 C   0  0  0  0  0  0  0  0  0  0  0  0
   22.6700   -5.3337  -12.7880 O   0  0  0  0  0  0  0  0  0  0  0  0
   22.9455   -3.4913  -14.0549 O   0  0  0  0  0  0  0  0  0  0  0  0
  2  1  1  6
  2  3  1  0
  4  2  1  0
  4  5  1  6
  6  4  1  0
  6  7  2  0
  8  9  1  0
  9 10  1  0
 10 11  1  0
 12 11  1  6
 12 13  1  0
 12 14  1  0
 13  6  1  0
 14 15  2  0
 14 19  1  0
 16 17  1  0
 18 17  1  1
 18 20  1  0
 19 18  1  0
 20 21  2  0
 20 22  1  0
M  END
$$$$
