TMS.pdb
     RDKit          3D

 22 21  0  0  1  0  0  0  0  0999 V2000
   19.8817  -12.5119  -19.8540 C   0  0  0  0  0  0  0  0  0  0  0  0
   20.4389  -12.0439  -18.5278 C   0  0  1  0  0  0  0  0  0  0  0  0
   21.4549  -12.8931  -18.1113 O   0  0  0  0  0  0  0  0  0  0  0  0
   21.0307  -10.6489  -18.7499 C   0  0  2  0  0  0  0  0  0  0  0  0
   22.1217  -10.8526  -19.7011 N   0  0  0  0  0  0  0  0  0  0  0  0
   21.4944  -10.0525  -17.4861 C   0  0  0  0  0  0  0  0  0  0  0  0
   20.7101   -9.9336  -16.4919 O   0  0  0  0  0  0  0  0  0  0  0  0
   27.2716  -12.3394  -15.3396 C   0  0  0  0  0  0  0  0  0  0  0  0
   26.9521  -10.5938  -15.6834 S   0  0  0  0  0  0  0  0  0  0  0  0
   25.1346  -10.3671  -15.7063 C   0  0  0  0  0  0  0  0  0  0  0  0
   24.7631   -8.9835  -16.0738 C   0  0  0  0  0  0  0  0  0  0  0  0
   23.2706   -8.8315  -16.2185 C   0  0  2  0  0  0  0  0  0  0  0  0
   22.8245   -9.6101  -17.3831 N   0  0  0  0  0  0  0  0  0  0  0  0
   22.9036   -7.4262  -16.3722 C   0  0  0  0  0  0  0  0  0  0  0  0
   23.2011   -6.7591  -17.3762 O   0  0  0  0  0  0  0  0  0  0  0  0
   19.8552   -5.7845  -16.7963 O   0  0  0  0  0  0  0  0  0  0  0  0
   20.3009   -5.1767  -15.6446 C   0  0  0  0  0  0  0  0  0  0  0  0
   21.8038   -5.3539  -15.4911 C   0  0  2  0  0  0  0  0  0  0  0  0
   22.1640   -6.7375  -15.3429 N   0  0  0  0  0  0  0  0  0  0  0  0
   22.3542   -4.5892  -14.3698 C   0  0  0  0  0  0  0  0  0  0  0  0
   22.9303   -5.1304  -13.3735 O   0  0  0  0  0  0  0  0  0  0  0  0
   22.2810   -3.1924  -14.3212 O   0  0  0  0  0  0  0  0  0  0  0  0
  2  1  1  6
  2  3  1  0
  4  2  1  0
  4  5  1  6
  6  4  1  0
  6  7  2  0
  8  9  1  0
  9 10  1  0
 10 11  1  0
 12 11  1  6
 12 13  1  0
 12 14  1  0
 13  6  1  0
 14 15  2  0
 14 19  1  0
 16 17  1  0
 18 17  1  1
 18 20  1  0
 19 18  1  0
 20 21  2  0
 20 22  1  0
M  END
$$$$
