TMS.pdb
     RDKit          3D

 22 21  0  0  1  0  0  0  0  0999 V2000
   17.6800   -8.6723  -18.2396 C   0  0  0  0  0  0  0  0  0  0  0  0
   17.1250   -9.9745  -17.7061 C   0  0  1  0  0  0  0  0  0  0  0  0
   16.1872  -10.4906  -18.5898 O   0  0  0  0  0  0  0  0  0  0  0  0
   18.2933  -10.9597  -17.6060 C   0  0  2  0  0  0  0  0  0  0  0  0
   17.6827  -12.2239  -17.1991 N   0  0  0  0  0  0  0  0  0  0  0  0
   19.3097  -10.4952  -16.6475 C   0  0  0  0  0  0  0  0  0  0  0  0
   19.0542  -10.4288  -15.4034 O   0  0  0  0  0  0  0  0  0  0  0  0
   26.8101   -9.8683  -14.8312 C   0  0  0  0  0  0  0  0  0  0  0  0
   25.5947  -10.5582  -15.9776 S   0  0  0  0  0  0  0  0  0  0  0  0
   24.0034   -9.7083  -15.6603 C   0  0  0  0  0  0  0  0  0  0  0  0
   22.9163  -10.2572  -16.4997 C   0  0  0  0  0  0  0  0  0  0  0  0
   21.5979   -9.5899  -16.2030 C   0  0  2  0  0  0  0  0  0  0  0  0
   20.5793  -10.1212  -17.1206 N   0  0  0  0  0  0  0  0  0  0  0  0
   21.7058   -8.1401  -16.3435 C   0  0  0  0  0  0  0  0  0  0  0  0
   21.9807   -7.5871  -17.4205 O   0  0  0  0  0  0  0  0  0  0  0  0
   19.5006   -5.4923  -14.2737 O   0  0  0  0  0  0  0  0  0  0  0  0
   20.2327   -5.1771  -15.3958 C   0  0  0  0  0  0  0  0  0  0  0  0
   21.5999   -5.8422  -15.3491 C   0  0  2  0  0  0  0  0  0  0  0  0
   21.4931   -7.2691  -15.2134 N   0  0  0  0  0  0  0  0  0  0  0  0
   22.4502   -5.3178  -14.2780 C   0  0  0  0  0  0  0  0  0  0  0  0
   22.8955   -6.0358  -13.3274 O   0  0  0  0  0  0  0  0  0  0  0  0
   22.8338   -3.9727  -14.2305 O   0  0  0  0  0  0  0  0  0  0  0  0
  2  1  1  6
  2  3  1  0
  4  2  1  0
  4  5  1  1
  6  4  1  0
  6  7  2  0
  8  9  1  0
  9 10  1  0
 10 11  1  0
 12 11  1  6
 12 13  1  0
 12 14  1  0
 13  6  1  0
 14 15  2  0
 14 19  1  0
 16 17  1  0
 18 17  1  1
 18 20  1  0
 19 18  1  0
 20 21  2  0
 20 22  1  0
M  END
$$$$
