TMS.pdb
     RDKit          3D

 22 21  0  0  1  0  0  0  0  0999 V2000
   19.6963   -7.6267  -12.3880 C   0  0  0  0  0  0  0  0  0  0  0  0
   19.1243   -8.6416  -13.3529 C   0  0  1  0  0  0  0  0  0  0  0  0
   20.1347   -9.4603  -13.8380 O   0  0  0  0  0  0  0  0  0  0  0  0
   18.1320   -9.5055  -12.5689 C   0  0  2  0  0  0  0  0  0  0  0  0
   17.7190  -10.5466  -13.5082 N   0  0  0  0  0  0  0  0  0  0  0  0
   16.9938   -8.7100  -12.0796 C   0  0  0  0  0  0  0  0  0  0  0  0
   16.2287   -8.0956  -12.8887 O   0  0  0  0  0  0  0  0  0  0  0  0
   11.7466   -7.4209   -6.5108 C   0  0  0  0  0  0  0  0  0  0  0  0
   13.1202   -8.4713   -7.0375 S   0  0  0  0  0  0  0  0  0  0  0  0
   13.9761   -7.6034   -8.4049 C   0  0  0  0  0  0  0  0  0  0  0  0
   15.0725   -8.4215   -8.9672 C   0  0  0  0  0  0  0  0  0  0  0  0
   15.7026   -7.7549  -10.1629 C   0  0  2  0  0  0  0  0  0  0  0  0
   16.7545   -8.6326  -10.6967 N   0  0  0  0  0  0  0  0  0  0  0  0
   16.2582   -6.4538   -9.8001 C   0  0  0  0  0  0  0  0  0  0  0  0
   17.4606   -6.2840   -9.5416 O   0  0  0  0  0  0  0  0  0  0  0  0
   17.2122   -2.5620  -11.3635 O   0  0  0  0  0  0  0  0  0  0  0  0
   16.7448   -3.8457  -11.1953 C   0  0  0  0  0  0  0  0  0  0  0  0
   15.9643   -3.9668   -9.8953 C   0  0  2  0  0  0  0  0  0  0  0  0
   15.4166   -5.2846   -9.7244 N   0  0  0  0  0  0  0  0  0  0  0  0
   14.8887   -2.9790   -9.7845 C   0  0  0  0  0  0  0  0  0  0  0  0
   15.0785   -1.7829   -9.3963 O   0  0  0  0  0  0  0  0  0  0  0  0
   13.5624   -3.2917  -10.1037 O   0  0  0  0  0  0  0  0  0  0  0  0
  2  1  1  1
  2  3  1  0
  4  2  1  0
  4  5  1  6
  6  4  1  0
  6  7  2  0
  8  9  1  0
  9 10  1  0
 10 11  1  0
 12 11  1  1
 12 13  1  0
 12 14  1  0
 13  6  1  0
 14 15  2  0
 14 19  1  0
 16 17  1  0
 18 17  1  6
 18 20  1  0
 19 18  1  0
 20 21  2  0
 20 22  1  0
M  END
$$$$
