TMS.pdb
     RDKit          3D

 22 21  0  0  1  0  0  0  0  0999 V2000
   27.1060  -18.4678  -15.1735 C   0  0  0  0  0  0  0  0  0  0  0  0
   27.5488  -19.6666  -15.9830 C   0  0  1  0  0  0  0  0  0  0  0  0
   28.5993  -19.3152  -16.8195 O   0  0  0  0  0  0  0  0  0  0  0  0
   28.0470  -20.7244  -14.9939 C   0  0  2  0  0  0  0  0  0  0  0  0
   28.5272  -21.8224  -15.8308 N   0  0  0  0  0  0  0  0  0  0  0  0
   26.9784  -21.1481  -14.0740 C   0  0  0  0  0  0  0  0  0  0  0  0
   26.1316  -22.0327  -14.4175 O   0  0  0  0  0  0  0  0  0  0  0  0
   27.5111  -19.9834   -7.8129 C   0  0  0  0  0  0  0  0  0  0  0  0
   25.7414  -20.3491   -7.7721 S   0  0  0  0  0  0  0  0  0  0  0  0
   25.2644  -20.9184   -9.4466 C   0  0  0  0  0  0  0  0  0  0  0  0
   26.2551  -20.5062  -10.4645 C   0  0  0  0  0  0  0  0  0  0  0  0
   25.8674  -20.9861  -11.8396 C   0  0  2  0  0  0  0  0  0  0  0  0
   26.8983  -20.5627  -12.7987 N   0  0  0  0  0  0  0  0  0  0  0  0
   24.5620  -20.4574  -12.2260 C   0  0  0  0  0  0  0  0  0  0  0  0
   24.3190  -19.2412  -12.2841 O   0  0  0  0  0  0  0  0  0  0  0  0
   21.5950  -22.9895  -13.9099 O   0  0  0  0  0  0  0  0  0  0  0  0
   21.7806  -21.6825  -14.2996 C   0  0  0  0  0  0  0  0  0  0  0  0
   22.2548  -20.8353  -13.1287 C   0  0  2  0  0  0  0  0  0  0  0  0
   23.4750  -21.3435  -12.5640 N   0  0  0  0  0  0  0  0  0  0  0  0
   21.2482  -20.7129  -12.0719 C   0  0  0  0  0  0  0  0  0  0  0  0
   21.4473  -21.0882  -10.8732 O   0  0  0  0  0  0  0  0  0  0  0  0
   19.9831  -20.1665  -12.3161 O   0  0  0  0  0  0  0  0  0  0  0  0
  2  1  1  1
  2  3  1  0
  4  2  1  0
  4  5  1  6
  6  4  1  0
  6  7  2  0
  8  9  1  0
  9 10  1  0
 10 11  1  0
 12 11  1  1
 12 13  1  0
 12 14  1  0
 13  6  1  0
 14 15  2  0
 14 19  1  0
 16 17  1  0
 18 17  1  6
 18 20  1  0
 19 18  1  0
 20 21  2  0
 20 22  1  0
M  END
$$$$
