TMS.pdb
     RDKit          3D

 22 21  0  0  1  0  0  0  0  0999 V2000
   17.0042  -12.0045  -11.3405 C   0  0  0  0  0  0  0  0  0  0  0  0
   15.5487  -12.4156  -11.3128 C   0  0  1  0  0  0  0  0  0  0  0  0
   15.4378  -13.7533  -10.9590 O   0  0  0  0  0  0  0  0  0  0  0  0
   14.8574  -11.5694  -10.2396 C   0  0  2  0  0  0  0  0  0  0  0  0
   13.4763  -12.0475  -10.2183 N   0  0  0  0  0  0  0  0  0  0  0  0
   14.9472  -10.1321  -10.5458 C   0  0  0  0  0  0  0  0  0  0  0  0
   14.2719   -9.6216  -11.4950 O   0  0  0  0  0  0  0  0  0  0  0  0
   14.9394   -3.0691   -7.6952 C   0  0  0  0  0  0  0  0  0  0  0  0
   14.9301   -4.8440   -7.3528 S   0  0  0  0  0  0  0  0  0  0  0  0
   15.5153   -5.6935   -8.8665 C   0  0  0  0  0  0  0  0  0  0  0  0
   15.5034   -7.1637   -8.7048 C   0  0  0  0  0  0  0  0  0  0  0  0
   15.8458   -7.8646   -9.9943 C   0  0  2  0  0  0  0  0  0  0  0  0
   15.7933   -9.3173   -9.7739 N   0  0  0  0  0  0  0  0  0  0  0  0
   17.1694   -7.4669  -10.4667 C   0  0  0  0  0  0  0  0  0  0  0  0
   18.2178   -7.8042   -9.8935 O   0  0  0  0  0  0  0  0  0  0  0  0
   20.3899   -6.9775  -13.5873 O   0  0  0  0  0  0  0  0  0  0  0  0
   19.2039   -7.3887  -13.0226 C   0  0  0  0  0  0  0  0  0  0  0  0
   18.6225   -6.2955  -12.1391 C   0  0  2  0  0  0  0  0  0  0  0  0
   17.3197   -6.6478  -11.6446 N   0  0  0  0  0  0  0  0  0  0  0  0
   18.5475   -4.9986  -12.8154 C   0  0  0  0  0  0  0  0  0  0  0  0
   17.4756   -4.5377  -13.3216 O   0  0  0  0  0  0  0  0  0  0  0  0
   19.6671   -4.1697  -12.9505 O   0  0  0  0  0  0  0  0  0  0  0  0
  2  1  1  1
  2  3  1  0
  4  2  1  0
  4  5  1  6
  6  4  1  0
  6  7  2  0
  8  9  1  0
  9 10  1  0
 10 11  1  0
 12 11  1  1
 12 13  1  0
 12 14  1  0
 13  6  1  0
 14 15  2  0
 14 19  1  0
 16 17  1  0
 18 17  1  6
 18 20  1  0
 19 18  1  0
 20 21  2  0
 20 22  1  0
M  END
$$$$
