TMS.pdb
     RDKit          3D

 22 21  0  0  1  0  0  0  0  0999 V2000
   19.4510  -10.5037  -18.6668 C   0  0  0  0  0  0  0  0  0  0  0  0
   19.3482  -11.8240  -17.9355 C   0  0  1  0  0  0  0  0  0  0  0  0
   18.8312  -12.7973  -18.7794 O   0  0  0  0  0  0  0  0  0  0  0  0
   20.7682  -12.2327  -17.5332 C   0  0  2  0  0  0  0  0  0  0  0  0
   20.6324  -13.5906  -17.0094 N   0  0  0  0  0  0  0  0  0  0  0  0
   21.3358  -11.3046  -16.5412 C   0  0  0  0  0  0  0  0  0  0  0  0
   20.8364  -11.2067  -15.3756 O   0  0  0  0  0  0  0  0  0  0  0  0
   27.6355  -11.9513  -14.7836 C   0  0  0  0  0  0  0  0  0  0  0  0
   26.9620  -11.0446  -16.1948 S   0  0  0  0  0  0  0  0  0  0  0  0
   25.1390  -11.0355  -16.0163 C   0  0  0  0  0  0  0  0  0  0  0  0
   24.5864   -9.6693  -16.1423 C   0  0  0  0  0  0  0  0  0  0  0  0
   23.0987   -9.6502  -15.9021 C   0  0  2  0  0  0  0  0  0  0  0  0
   22.4462  -10.5181  -16.8934 N   0  0  0  0  0  0  0  0  0  0  0  0
   22.5751   -8.2897  -15.9907 C   0  0  0  0  0  0  0  0  0  0  0  0
   22.4489   -7.6862  -17.0684 O   0  0  0  0  0  0  0  0  0  0  0  0
   20.2882   -6.7229  -12.9320 O   0  0  0  0  0  0  0  0  0  0  0  0
   20.2002   -6.2450  -14.2198 C   0  0  0  0  0  0  0  0  0  0  0  0
   21.5616   -6.2751  -14.8977 C   0  0  2  0  0  0  0  0  0  0  0  0
   22.1734   -7.5724  -14.8054 N   0  0  0  0  0  0  0  0  0  0  0  0
   22.4829   -5.2681  -14.3665 C   0  0  0  0  0  0  0  0  0  0  0  0
   23.6036   -5.5580  -13.8399 O   0  0  0  0  0  0  0  0  0  0  0  0
   22.1855   -3.9010  -14.4046 O   0  0  0  0  0  0  0  0  0  0  0  0
  2  1  1  6
  2  3  1  0
  4  2  1  0
  4  5  1  1
  6  4  1  0
  6  7  2  0
  8  9  1  0
  9 10  1  0
 10 11  1  0
 12 11  1  6
 12 13  1  0
 12 14  1  0
 13  6  1  0
 14 15  2  0
 14 19  1  0
 16 17  1  0
 18 17  1  1
 18 20  1  0
 19 18  1  0
 20 21  2  0
 20 22  1  0
M  END
$$$$
