TMS.pdb
     RDKit          3D

 22 21  0  0  1  0  0  0  0  0999 V2000
   15.4493  -11.6765  -14.2017 C   0  0  0  0  0  0  0  0  0  0  0  0
   16.0850  -12.1059  -12.8979 C   0  0  1  0  0  0  0  0  0  0  0  0
   16.9867  -13.1367  -13.1240 O   0  0  0  0  0  0  0  0  0  0  0  0
   16.8521  -10.9002  -12.3471 C   0  0  2  0  0  0  0  0  0  0  0  0
   17.5450  -11.4064  -11.1638 N   0  0  0  0  0  0  0  0  0  0  0  0
   15.9461   -9.7838  -12.0301 C   0  0  0  0  0  0  0  0  0  0  0  0
   15.2401   -9.2364  -12.9354 O   0  0  0  0  0  0  0  0  0  0  0  0
   11.5762   -9.7831   -7.9108 C   0  0  0  0  0  0  0  0  0  0  0  0
   11.9678   -8.0495   -7.5810 S   0  0  0  0  0  0  0  0  0  0  0  0
   13.1555   -7.5058   -8.8651 C   0  0  0  0  0  0  0  0  0  0  0  0
   14.1282   -8.5707   -9.1929 C   0  0  0  0  0  0  0  0  0  0  0  0
   15.0018   -8.1822  -10.3580 C   0  0  2  0  0  0  0  0  0  0  0  0
   15.8644   -9.3209  -10.7055 N   0  0  0  0  0  0  0  0  0  0  0  0
   15.8096   -7.0094  -10.0337 C   0  0  0  0  0  0  0  0  0  0  0  0
   16.7937   -7.0581   -9.2783 O   0  0  0  0  0  0  0  0  0  0  0  0
   17.3644   -4.6317  -12.4225 O   0  0  0  0  0  0  0  0  0  0  0  0
   16.6902   -3.8080  -11.5499 C   0  0  0  0  0  0  0  0  0  0  0  0
   16.3004   -4.5652  -10.2895 C   0  0  2  0  0  0  0  0  0  0  0  0
   15.4929   -5.7160  -10.5886 N   0  0  0  0  0  0  0  0  0  0  0  0
   15.6006   -3.7245   -9.3156 C   0  0  0  0  0  0  0  0  0  0  0  0
   14.4032   -3.9381   -8.9440 O   0  0  0  0  0  0  0  0  0  0  0  0
   16.2132   -2.6152   -8.7216 O   0  0  0  0  0  0  0  0  0  0  0  0
  2  1  1  6
  2  3  1  0
  4  2  1  0
  4  5  1  1
  6  4  1  0
  6  7  2  0
  8  9  1  0
  9 10  1  0
 10 11  1  0
 12 11  1  1
 12 13  1  0
 12 14  1  0
 13  6  1  0
 14 15  2  0
 14 19  1  0
 16 17  1  0
 18 17  1  6
 18 20  1  0
 19 18  1  0
 20 21  2  0
 20 22  1  0
M  END
$$$$
