TMS.pdb
     RDKit          3D

 22 21  0  0  1  0  0  0  0  0999 V2000
   16.9265  -12.9012  -17.6158 C   0  0  0  0  0  0  0  0  0  0  0  0
   18.0238  -12.3178  -16.7533 C   0  0  1  0  0  0  0  0  0  0  0  0
   18.9163  -13.3131  -16.3796 O   0  0  0  0  0  0  0  0  0  0  0  0
   18.7720  -11.2875  -17.6043 C   0  0  2  0  0  0  0  0  0  0  0  0
   19.3715  -12.0627  -18.6889 N   0  0  0  0  0  0  0  0  0  0  0  0
   19.7789  -10.5626  -16.8117 C   0  0  0  0  0  0  0  0  0  0  0  0
   19.4407   -9.8677  -15.8017 O   0  0  0  0  0  0  0  0  0  0  0  0
   27.4799   -9.9314  -15.3610 C   0  0  0  0  0  0  0  0  0  0  0  0
   26.2468  -10.6222  -16.4878 S   0  0  0  0  0  0  0  0  0  0  0  0
   24.6099   -9.9988  -15.9519 C   0  0  0  0  0  0  0  0  0  0  0  0
   23.5220  -10.5202  -16.8077 C   0  0  0  0  0  0  0  0  0  0  0  0
   22.1758  -10.0079  -16.3641 C   0  0  2  0  0  0  0  0  0  0  0  0
   21.1324  -10.6440  -17.1817 N   0  0  0  0  0  0  0  0  0  0  0  0
   22.1062   -8.5543  -16.4874 C   0  0  0  0  0  0  0  0  0  0  0  0
   22.0970   -7.9716  -17.5837 O   0  0  0  0  0  0  0  0  0  0  0  0
   20.5799   -4.4079  -14.8380 O   0  0  0  0  0  0  0  0  0  0  0  0
   20.6113   -5.7840  -14.8472 C   0  0  0  0  0  0  0  0  0  0  0  0
   21.9207   -6.2872  -15.4356 C   0  0  2  0  0  0  0  0  0  0  0  0
   22.0439   -7.7142  -15.3163 N   0  0  0  0  0  0  0  0  0  0  0  0
   23.0949   -5.6495  -14.8357 C   0  0  0  0  0  0  0  0  0  0  0  0
   23.8332   -6.2211  -13.9722 O   0  0  0  0  0  0  0  0  0  0  0  0
   23.4867   -4.3506  -15.1791 O   0  0  0  0  0  0  0  0  0  0  0  0
  2  1  1  6
  2  3  1  0
  4  2  1  0
  4  5  1  6
  6  4  1  0
  6  7  2  0
  8  9  1  0
  9 10  1  0
 10 11  1  0
 12 11  1  6
 12 13  1  0
 12 14  1  0
 13  6  1  0
 14 15  2  0
 14 19  1  0
 16 17  1  0
 18 17  1  1
 18 20  1  0
 19 18  1  0
 20 21  2  0
 20 22  1  0
M  END
$$$$
