TMS.pdb
     RDKit          3D

 22 21  0  0  1  0  0  0  0  0999 V2000
   16.5345   -9.1207  -16.2773 C   0  0  0  0  0  0  0  0  0  0  0  0
   16.6995  -10.3963  -15.4809 C   0  0  1  0  0  0  0  0  0  0  0  0
   15.5669  -11.1884  -15.6096 O   0  0  0  0  0  0  0  0  0  0  0  0
   17.8920  -11.1520  -16.0745 C   0  0  2  0  0  0  0  0  0  0  0  0
   17.8995  -12.4405  -15.3843 N   0  0  0  0  0  0  0  0  0  0  0  0
   19.1491  -10.4091  -15.8860 C   0  0  0  0  0  0  0  0  0  0  0  0
   19.5858  -10.1465  -14.7208 O   0  0  0  0  0  0  0  0  0  0  0  0
   24.5001  -10.5603  -20.0300 C   0  0  0  0  0  0  0  0  0  0  0  0
   24.1254   -8.8239  -19.6949 S   0  0  0  0  0  0  0  0  0  0  0  0
   23.2414   -8.7573  -18.0919 C   0  0  0  0  0  0  0  0  0  0  0  0
   21.8788   -9.3228  -18.1977 C   0  0  0  0  0  0  0  0  0  0  0  0
   21.1711   -9.3127  -16.8671 C   0  0  2  0  0  0  0  0  0  0  0  0
   19.8727   -9.9867  -17.0146 N   0  0  0  0  0  0  0  0  0  0  0  0
   20.9857   -7.9458  -16.3872 C   0  0  0  0  0  0  0  0  0  0  0  0
   20.1658   -7.1612  -16.8909 O   0  0  0  0  0  0  0  0  0  0  0  0
   22.1054   -4.5849  -13.0314 O   0  0  0  0  0  0  0  0  0  0  0  0
   22.2885   -5.8764  -13.4709 C   0  0  0  0  0  0  0  0  0  0  0  0
   21.5521   -6.1068  -14.7817 C   0  0  2  0  0  0  0  0  0  0  0  0
   21.7633   -7.4368  -15.2839 N   0  0  0  0  0  0  0  0  0  0  0  0
   21.9172   -5.1366  -15.8163 C   0  0  0  0  0  0  0  0  0  0  0  0
   22.9650   -5.2400  -16.5297 O   0  0  0  0  0  0  0  0  0  0  0  0
   21.1249   -4.0162  -16.0915 O   0  0  0  0  0  0  0  0  0  0  0  0
  2  1  1  6
  2  3  1  0
  4  2  1  0
  4  5  1  1
  6  4  1  0
  6  7  2  0
  8  9  1  0
  9 10  1  0
 10 11  1  0
 12 11  1  6
 12 13  1  0
 12 14  1  0
 13  6  1  0
 14 15  2  0
 14 19  1  0
 16 17  1  0
 18 17  1  1
 18 20  1  0
 19 18  1  0
 20 21  2  0
 20 22  1  0
M  END
$$$$
