TMS.pdb
     RDKit          3D

 22 21  0  0  1  0  0  0  0  0999 V2000
   20.3539  -11.4569  -20.9511 C   0  0  0  0  0  0  0  0  0  0  0  0
   20.4767  -10.6339  -19.6878 C   0  0  1  0  0  0  0  0  0  0  0  0
   19.2346  -10.5018  -19.0823 O   0  0  0  0  0  0  0  0  0  0  0  0
   21.4034  -11.3966  -18.7364 C   0  0  2  0  0  0  0  0  0  0  0  0
   20.7215  -12.6653  -18.4872 N   0  0  0  0  0  0  0  0  0  0  0  0
   21.6460  -10.6391  -17.4975 C   0  0  0  0  0  0  0  0  0  0  0  0
   20.8737  -10.7602  -16.4943 O   0  0  0  0  0  0  0  0  0  0  0  0
   27.4072  -12.1443  -14.9660 C   0  0  0  0  0  0  0  0  0  0  0  0
   26.9360  -10.5242  -15.6147 S   0  0  0  0  0  0  0  0  0  0  0  0
   25.1064  -10.4794  -15.6907 C   0  0  0  0  0  0  0  0  0  0  0  0
   24.6081   -9.1254  -16.0167 C   0  0  0  0  0  0  0  0  0  0  0  0
   23.1085   -9.1091  -16.1658 C   0  0  2  0  0  0  0  0  0  0  0  0
   22.7493   -9.7710  -17.4286 N   0  0  0  0  0  0  0  0  0  0  0  0
   22.5986   -7.7407  -16.1431 C   0  0  0  0  0  0  0  0  0  0  0  0
   22.6635   -6.9821  -17.1238 O   0  0  0  0  0  0  0  0  0  0  0  0
   19.5845   -4.5633  -14.1734 O   0  0  0  0  0  0  0  0  0  0  0  0
   20.0712   -5.8492  -14.2374 C   0  0  0  0  0  0  0  0  0  0  0  0
   21.4125   -5.8805  -14.9541 C   0  0  2  0  0  0  0  0  0  0  0  0
   21.9844   -7.1992  -14.9554 N   0  0  0  0  0  0  0  0  0  0  0  0
   22.3796   -4.9357  -14.3909 C   0  0  0  0  0  0  0  0  0  0  0  0
   23.1818   -5.2370  -13.4512 O   0  0  0  0  0  0  0  0  0  0  0  0
   22.4853   -3.6204  -14.8572 O   0  0  0  0  0  0  0  0  0  0  0  0
  2  1  1  6
  2  3  1  0
  4  2  1  0
  4  5  1  1
  6  4  1  0
  6  7  2  0
  8  9  1  0
  9 10  1  0
 10 11  1  0
 12 11  1  6
 12 13  1  0
 12 14  1  0
 13  6  1  0
 14 15  2  0
 14 19  1  0
 16 17  1  0
 18 17  1  1
 18 20  1  0
 19 18  1  0
 20 21  2  0
 20 22  1  0
M  END
$$$$
