GFK.pdb
     RDKit          3D

 25 25  0  0  1  0  0  0  0  0999 V2000
    5.3918  -20.1672   22.2411 N   0  0  0  0  0  0  0  0  0  0  0  0
    5.3259  -19.5598   23.5564 C   0  0  0  0  0  0  0  0  0  0  0  0
    6.0951  -18.2923   23.5979 C   0  0  0  0  0  0  0  0  0  0  0  0
    6.5443  -17.8360   22.5205 O   0  0  0  0  0  0  0  0  0  0  0  0
    6.3314  -17.5990   24.7904 N   0  0  0  0  0  0  0  0  0  0  0  0
    6.9999  -16.3189   24.8857 C   0  0  1  0  0  0  0  0  0  0  0  0
    6.5519  -15.6450   26.1454 C   0  0  0  0  0  0  0  0  0  0  0  0
    7.0152  -14.2616   26.2647 C   0  0  0  0  0  0  0  0  0  0  0  0
    8.2411  -13.9710   26.8097 C   0  0  0  0  0  0  0  0  0  0  0  0
    8.6793  -12.6744   26.9232 C   0  0  0  0  0  0  0  0  0  0  0  0
    7.8749  -11.6392   26.4821 C   0  0  0  0  0  0  0  0  0  0  0  0
    6.6249  -11.9299   25.9260 C   0  0  0  0  0  0  0  0  0  0  0  0
    6.2054  -13.2405   25.8220 C   0  0  0  0  0  0  0  0  0  0  0  0
    8.4839  -16.5330   24.9820 C   0  0  0  0  0  0  0  0  0  0  0  0
    8.9263  -17.4476   25.7219 O   0  0  0  0  0  0  0  0  0  0  0  0
    9.4001  -15.7424   24.2700 N   0  0  0  0  0  0  0  0  0  0  0  0
   10.7109  -16.2558   23.9727 C   0  0  1  0  0  0  0  0  0  0  0  0
   11.4638  -15.3111   23.0285 C   0  0  0  0  0  0  0  0  0  0  0  0
   12.7987  -15.8862   22.6917 C   0  0  0  0  0  0  0  0  0  0  0  0
   13.2177  -15.7982   21.2723 C   0  0  0  0  0  0  0  0  0  0  0  0
   14.4641  -16.5103   20.8916 C   0  0  0  0  0  0  0  0  0  0  0  0
   14.7096  -16.5880   19.4687 N   0  0  0  0  0  0  0  0  0  0  0  0
   11.5026  -16.4059   25.2147 C   0  0  0  0  0  0  0  0  0  0  0  0
   12.1950  -17.4504   25.3890 O   0  0  0  0  0  0  0  0  0  0  0  0
   11.4711  -15.4061   26.1576 O   0  0  0  0  0  0  0  0  0  0  0  0
  1  2  1  0
  2  3  1  0
  3  4  2  0
  5  3  1  0
  6  5  1  0
  6  7  1  1
  8  7  1  0
  9  8  2  0
 10  9  1  0
 11 12  1  0
 11 10  2  0
 12 13  2  0
 13  8  1  0
 14  6  1  0
 15 14  2  0
 16 14  1  0
 17 16  1  0
 17 23  1  0
 17 18  1  6
 19 20  1  0
 19 18  1  0
 20 21  1  0
 22 21  1  0
 23 24  2  0
 23 25  1  0
M  END
$$$$
