GFK.pdb
     RDKit          3D

 25 25  0  0  1  0  0  0  0  0999 V2000
    5.3715  -20.5812   22.3787 N   0  0  0  0  0  0  0  0  0  0  0  0
    5.7132  -20.1392   23.7171 C   0  0  0  0  0  0  0  0  0  0  0  0
    6.1607  -18.7251   23.7140 C   0  0  0  0  0  0  0  0  0  0  0  0
    6.2928  -18.1476   22.6095 O   0  0  0  0  0  0  0  0  0  0  0  0
    6.4363  -18.0249   24.8940 N   0  0  0  0  0  0  0  0  0  0  0  0
    6.9920  -16.6899   24.9542 C   0  0  1  0  0  0  0  0  0  0  0  0
    6.6020  -16.0748   26.2624 C   0  0  0  0  0  0  0  0  0  0  0  0
    6.8703  -14.6377   26.3354 C   0  0  0  0  0  0  0  0  0  0  0  0
    6.0663  -13.7343   25.6859 C   0  0  0  0  0  0  0  0  0  0  0  0
    6.3148  -12.3853   25.7520 C   0  0  0  0  0  0  0  0  0  0  0  0
    7.3930  -11.9233   26.4849 C   0  0  0  0  0  0  0  0  0  0  0  0
    8.2154  -12.8395   27.1486 C   0  0  0  0  0  0  0  0  0  0  0  0
    7.9464  -14.1906   27.0680 C   0  0  0  0  0  0  0  0  0  0  0  0
    8.4918  -16.7676   24.9120 C   0  0  0  0  0  0  0  0  0  0  0  0
    9.0865  -17.5826   25.6615 O   0  0  0  0  0  0  0  0  0  0  0  0
    9.2579  -15.9566   24.0594 N   0  0  0  0  0  0  0  0  0  0  0  0
   10.6396  -16.2758   23.8164 C   0  0  1  0  0  0  0  0  0  0  0  0
   11.0577  -15.8441   22.4059 C   0  0  0  0  0  0  0  0  0  0  0  0
   11.1454  -17.0371   21.5140 C   0  0  0  0  0  0  0  0  0  0  0  0
   10.6241  -16.8724   20.1359 C   0  0  0  0  0  0  0  0  0  0  0  0
   10.7355  -18.0425   19.2283 C   0  0  0  0  0  0  0  0  0  0  0  0
   10.1086  -17.8720   17.9365 N   0  0  0  0  0  0  0  0  0  0  0  0
   11.5106  -15.5860   24.7949 C   0  0  0  0  0  0  0  0  0  0  0  0
   11.0016  -14.7610   25.6081 O   0  0  0  0  0  0  0  0  0  0  0  0
   12.8587  -15.8548   24.8025 O   0  0  0  0  0  0  0  0  0  0  0  0
  1  2  1  0
  2  3  1  0
  3  4  2  0
  5  3  1  0
  6  5  1  0
  6  7  1  1
  8  7  1  0
  9  8  2  0
 10  9  1  0
 11 12  1  0
 11 10  2  0
 12 13  2  0
 13  8  1  0
 14  6  1  0
 15 14  2  0
 16 14  1  0
 17 16  1  0
 17 23  1  0
 17 18  1  6
 19 20  1  0
 19 18  1  0
 20 21  1  0
 22 21  1  0
 23 24  2  0
 23 25  1  0
M  END
$$$$
