GFK.pdb
     RDKit          3D

 25 25  0  0  1  0  0  0  0  0999 V2000
    8.0298  -17.5067   18.9679 N   0  0  0  0  0  0  0  0  0  0  0  0
    7.3346  -17.5830   20.2384 C   0  0  0  0  0  0  0  0  0  0  0  0
    7.8343  -16.5541   21.1827 C   0  0  0  0  0  0  0  0  0  0  0  0
    8.9110  -15.9730   20.9107 O   0  0  0  0  0  0  0  0  0  0  0  0
    7.1473  -16.2169   22.3543 N   0  0  0  0  0  0  0  0  0  0  0  0
    7.6022  -15.2520   23.3325 C   0  0  1  0  0  0  0  0  0  0  0  0
    6.4426  -14.8808   24.2039 C   0  0  0  0  0  0  0  0  0  0  0  0
    6.7656  -13.8614   25.2035 C   0  0  0  0  0  0  0  0  0  0  0  0
    7.2725  -12.6413   24.8309 C   0  0  0  0  0  0  0  0  0  0  0  0
    7.5767  -11.6824   25.7657 C   0  0  0  0  0  0  0  0  0  0  0  0
    7.3706  -11.9455   27.1079 C   0  0  0  0  0  0  0  0  0  0  0  0
    6.8543  -13.1871   27.4929 C   0  0  0  0  0  0  0  0  0  0  0  0
    6.5559  -14.1355   26.5359 C   0  0  0  0  0  0  0  0  0  0  0  0
    8.6513  -15.8788   24.2064 C   0  0  0  0  0  0  0  0  0  0  0  0
    8.4670  -17.0394   24.6522 O   0  0  0  0  0  0  0  0  0  0  0  0
    9.8384  -15.2097   24.5450 N   0  0  0  0  0  0  0  0  0  0  0  0
   10.9759  -15.9582   25.0097 C   0  0  1  0  0  0  0  0  0  0  0  0
   10.5528  -17.3550   25.4795 C   0  0  0  0  0  0  0  0  0  0  0  0
   10.7014  -17.4601   26.9604 C   0  0  0  0  0  0  0  0  0  0  0  0
   10.7299  -18.8300   27.5268 C   0  0  0  0  0  0  0  0  0  0  0  0
   10.8626  -18.9476   29.0012 C   0  0  0  0  0  0  0  0  0  0  0  0
   10.7472  -20.2937   29.5166 N   0  0  0  0  0  0  0  0  0  0  0  0
   11.9736  -16.1105   23.9265 C   0  0  0  0  0  0  0  0  0  0  0  0
   13.0676  -16.6992   24.1663 O   0  0  0  0  0  0  0  0  0  0  0  0
   11.6930  -15.6087   22.6779 O   0  0  0  0  0  0  0  0  0  0  0  0
  1  2  1  0
  2  3  1  0
  3  4  2  0
  5  3  1  0
  6  5  1  0
  6  7  1  1
  8  7  1  0
  9  8  2  0
 10  9  1  0
 11 12  1  0
 11 10  2  0
 12 13  2  0
 13  8  1  0
 14  6  1  0
 15 14  2  0
 16 14  1  0
 17 16  1  0
 17 23  1  0
 17 18  1  6
 19 20  1  0
 19 18  1  0
 20 21  1  0
 22 21  1  0
 23 24  2  0
 23 25  1  0
M  END
$$$$
