GFK.pdb
     RDKit          3D

 25 25  0  0  1  0  0  0  0  0999 V2000
    5.3763  -20.0990   22.1605 N   0  0  0  0  0  0  0  0  0  0  0  0
    5.6544  -19.7313   23.5356 C   0  0  0  0  0  0  0  0  0  0  0  0
    6.2587  -18.3790   23.6145 C   0  0  0  0  0  0  0  0  0  0  0  0
    6.6658  -17.8490   22.5542 O   0  0  0  0  0  0  0  0  0  0  0  0
    6.3863  -17.6858   24.8234 N   0  0  0  0  0  0  0  0  0  0  0  0
    7.0461  -16.4071   24.9792 C   0  0  1  0  0  0  0  0  0  0  0  0
    6.5478  -15.7692   26.2388 C   0  0  0  0  0  0  0  0  0  0  0  0
    6.9903  -14.3840   26.4069 C   0  0  0  0  0  0  0  0  0  0  0  0
    8.0077  -14.0668   27.2722 C   0  0  0  0  0  0  0  0  0  0  0  0
    8.4256  -12.7685   27.4326 C   0  0  0  0  0  0  0  0  0  0  0  0
    7.8139  -11.7587   26.7119 C   0  0  0  0  0  0  0  0  0  0  0  0
    6.7768  -12.0765   25.8289 C   0  0  0  0  0  0  0  0  0  0  0  0
    6.3735  -13.3883   25.6839 C   0  0  0  0  0  0  0  0  0  0  0  0
    8.5261  -16.6200   25.1264 C   0  0  0  0  0  0  0  0  0  0  0  0
    8.9433  -17.5465   25.8661 O   0  0  0  0  0  0  0  0  0  0  0  0
    9.4659  -15.8153   24.4627 N   0  0  0  0  0  0  0  0  0  0  0  0
   10.8023  -16.3028   24.2471 C   0  0  1  0  0  0  0  0  0  0  0  0
   11.5074  -15.4916   23.1536 C   0  0  0  0  0  0  0  0  0  0  0  0
   12.8589  -16.0647   22.8869 C   0  0  0  0  0  0  0  0  0  0  0  0
   13.3884  -15.8983   21.5122 C   0  0  0  0  0  0  0  0  0  0  0  0
   14.6707  -16.5777   21.1964 C   0  0  0  0  0  0  0  0  0  0  0  0
   15.1940  -16.3055   19.8762 N   0  0  0  0  0  0  0  0  0  0  0  0
   11.5977  -16.2020   25.4917 C   0  0  0  0  0  0  0  0  0  0  0  0
   12.6475  -16.8971   25.6174 O   0  0  0  0  0  0  0  0  0  0  0  0
   11.1807  -15.3538   26.4898 O   0  0  0  0  0  0  0  0  0  0  0  0
  1  2  1  0
  2  3  1  0
  3  4  2  0
  5  3  1  0
  6  5  1  0
  6  7  1  1
  8  7  1  0
  9  8  2  0
 10  9  1  0
 11 12  1  0
 11 10  2  0
 12 13  2  0
 13  8  1  0
 14  6  1  0
 15 14  2  0
 16 14  1  0
 17 16  1  0
 17 23  1  0
 17 18  1  6
 19 20  1  0
 19 18  1  0
 20 21  1  0
 22 21  1  0
 23 24  2  0
 23 25  1  0
M  END
$$$$
