GFK.pdb
     RDKit          3D

 25 25  0  0  1  0  0  0  0  0999 V2000
    8.7384  -17.7473   17.5755 N   0  0  0  0  0  0  0  0  0  0  0  0
    8.6018  -18.3993   18.8637 C   0  0  0  0  0  0  0  0  0  0  0  0
    9.1763  -17.5652   19.9474 C   0  0  0  0  0  0  0  0  0  0  0  0
   10.3149  -17.0706   19.7744 O   0  0  0  0  0  0  0  0  0  0  0  0
    8.4927  -17.3170   21.1430 N   0  0  0  0  0  0  0  0  0  0  0  0
    9.0201  -16.5572   22.2563 C   0  0  1  0  0  0  0  0  0  0  0  0
    7.9289  -15.6813   22.7890 C   0  0  0  0  0  0  0  0  0  0  0  0
    7.6367  -14.5279   21.9364 C   0  0  0  0  0  0  0  0  0  0  0  0
    6.6675  -14.5931   20.9664 C   0  0  0  0  0  0  0  0  0  0  0  0
    6.3905  -13.5131   20.1646 C   0  0  0  0  0  0  0  0  0  0  0  0
    7.0978  -12.3365   20.3331 C   0  0  0  0  0  0  0  0  0  0  0  0
    8.0864  -12.2648   21.3199 C   0  0  0  0  0  0  0  0  0  0  0  0
    8.3476  -13.3628   22.1141 C   0  0  0  0  0  0  0  0  0  0  0  0
    9.4332  -17.4958   23.3543 C   0  0  0  0  0  0  0  0  0  0  0  0
    8.6535  -18.4191   23.6996 O   0  0  0  0  0  0  0  0  0  0  0  0
   10.6676  -17.3773   24.0128 N   0  0  0  0  0  0  0  0  0  0  0  0
   11.0838  -18.3919   24.9442 C   0  0  1  0  0  0  0  0  0  0  0  0
   12.4928  -18.8942   24.6077 C   0  0  0  0  0  0  0  0  0  0  0  0
   12.5011  -19.5137   23.2503 C   0  0  0  0  0  0  0  0  0  0  0  0
   13.8040  -20.0306   22.7672 C   0  0  0  0  0  0  0  0  0  0  0  0
   13.8027  -20.7584   21.4727 C   0  0  0  0  0  0  0  0  0  0  0  0
   15.0950  -21.2517   21.0512 N   0  0  0  0  0  0  0  0  0  0  0  0
   11.0947  -17.8556   26.3241 C   0  0  0  0  0  0  0  0  0  0  0  0
   10.8596  -16.6273   26.5163 O   0  0  0  0  0  0  0  0  0  0  0  0
   11.3604  -18.7031   27.3733 O   0  0  0  0  0  0  0  0  0  0  0  0
  1  2  1  0
  2  3  1  0
  3  4  2  0
  5  3  1  0
  6  5  1  0
  6  7  1  1
  8  7  1  0
  9  8  2  0
 10  9  1  0
 11 12  1  0
 11 10  2  0
 12 13  2  0
 13  8  1  0
 14  6  1  0
 15 14  2  0
 16 14  1  0
 17 16  1  0
 17 23  1  0
 17 18  1  6
 19 20  1  0
 19 18  1  0
 20 21  1  0
 22 21  1  0
 23 24  2  0
 23 25  1  0
M  END
$$$$
