GFK.pdb
     RDKit          3D

 25 25  0  0  1  0  0  0  0  0999 V2000
    5.7819  -19.7150   21.4310 N   0  0  0  0  0  0  0  0  0  0  0  0
    5.7356  -19.4109   22.8483 C   0  0  0  0  0  0  0  0  0  0  0  0
    6.4170  -18.1263   23.1409 C   0  0  0  0  0  0  0  0  0  0  0  0
    7.1129  -17.6054   22.2379 O   0  0  0  0  0  0  0  0  0  0  0  0
    6.3072  -17.4863   24.3805 N   0  0  0  0  0  0  0  0  0  0  0  0
    7.0201  -16.2847   24.7582 C   0  0  1  0  0  0  0  0  0  0  0  0
    6.2482  -15.5991   25.8427 C   0  0  0  0  0  0  0  0  0  0  0  0
    6.7548  -14.2645   26.1663 C   0  0  0  0  0  0  0  0  0  0  0  0
    7.5697  -14.0616   27.2522 C   0  0  0  0  0  0  0  0  0  0  0  0
    8.0470  -12.8109   27.5591 C   0  0  0  0  0  0  0  0  0  0  0  0
    7.7036  -11.7332   26.7630 C   0  0  0  0  0  0  0  0  0  0  0  0
    6.8736  -11.9345   25.6553 C   0  0  0  0  0  0  0  0  0  0  0  0
    6.4058  -13.2002   25.3663 C   0  0  0  0  0  0  0  0  0  0  0  0
    8.3661  -16.6530   25.3148 C   0  0  0  0  0  0  0  0  0  0  0  0
    8.4537  -17.6013   26.1351 O   0  0  0  0  0  0  0  0  0  0  0  0
    9.5375  -15.9709   24.9489 N   0  0  0  0  0  0  0  0  0  0  0  0
   10.8112  -16.6342   25.0384 C   0  0  1  0  0  0  0  0  0  0  0  0
   11.7848  -16.0861   23.9884 C   0  0  0  0  0  0  0  0  0  0  0  0
   11.2776  -16.3875   22.6180 C   0  0  0  0  0  0  0  0  0  0  0  0
   12.2984  -16.6939   21.5874 C   0  0  0  0  0  0  0  0  0  0  0  0
   11.8055  -17.0051   20.2215 C   0  0  0  0  0  0  0  0  0  0  0  0
   12.8395  -17.2991   19.2543 N   0  0  0  0  0  0  0  0  0  0  0  0
   11.4065  -16.4342   26.3790 C   0  0  0  0  0  0  0  0  0  0  0  0
   12.4881  -17.0211   26.6736 O   0  0  0  0  0  0  0  0  0  0  0  0
   10.7726  -15.6133   27.2811 O   0  0  0  0  0  0  0  0  0  0  0  0
  1  2  1  0
  2  3  1  0
  3  4  2  0
  5  3  1  0
  6  5  1  0
  6  7  1  1
  8  7  1  0
  9  8  2  0
 10  9  1  0
 11 12  1  0
 11 10  2  0
 12 13  2  0
 13  8  1  0
 14  6  1  0
 15 14  2  0
 16 14  1  0
 17 16  1  0
 17 23  1  0
 17 18  1  6
 19 20  1  0
 19 18  1  0
 20 21  1  0
 22 21  1  0
 23 24  2  0
 23 25  1  0
M  END
$$$$
