GFK.pdb
     RDKit          3D

 25 25  0  0  1  0  0  0  0  0999 V2000
    5.5080  -17.0345   20.3967 N   0  0  0  0  0  0  0  0  0  0  0  0
    5.5196  -17.2539   21.8303 C   0  0  0  0  0  0  0  0  0  0  0  0
    6.5627  -16.4295   22.4878 C   0  0  0  0  0  0  0  0  0  0  0  0
    7.4159  -15.8652   21.7636 O   0  0  0  0  0  0  0  0  0  0  0  0
    6.6216  -16.2651   23.8763 N   0  0  0  0  0  0  0  0  0  0  0  0
    7.6664  -15.5550   24.5826 C   0  0  1  0  0  0  0  0  0  0  0  0
    7.1584  -15.2017   25.9460 C   0  0  0  0  0  0  0  0  0  0  0  0
    6.9563  -13.7649   26.1401 C   0  0  0  0  0  0  0  0  0  0  0  0
    5.9298  -13.2943   26.9206 C   0  0  0  0  0  0  0  0  0  0  0  0
    5.7370  -11.9472   27.1051 C   0  0  0  0  0  0  0  0  0  0  0  0
    6.5894  -11.0442   26.4958 C   0  0  0  0  0  0  0  0  0  0  0  0
    7.6370  -11.5185   25.6996 C   0  0  0  0  0  0  0  0  0  0  0  0
    7.8115  -12.8767   25.5284 C   0  0  0  0  0  0  0  0  0  0  0  0
    8.8574  -16.4544   24.7549 C   0  0  0  0  0  0  0  0  0  0  0  0
    8.6825  -17.6406   25.1318 O   0  0  0  0  0  0  0  0  0  0  0  0
   10.1676  -16.0141   24.5081 N   0  0  0  0  0  0  0  0  0  0  0  0
   11.2232  -16.9737   24.3205 C   0  0  1  0  0  0  0  0  0  0  0  0
   12.3223  -16.4034   23.4163 C   0  0  0  0  0  0  0  0  0  0  0  0
   13.3363  -17.4575   23.1217 C   0  0  0  0  0  0  0  0  0  0  0  0
   14.4619  -17.0646   22.2404 C   0  0  0  0  0  0  0  0  0  0  0  0
   15.4591  -18.1147   21.9113 C   0  0  0  0  0  0  0  0  0  0  0  0
   16.5130  -17.6930   21.0155 N   0  0  0  0  0  0  0  0  0  0  0  0
   11.8290  -17.3385   25.6212 C   0  0  0  0  0  0  0  0  0  0  0  0
   11.6457  -16.5902   26.6249 O   0  0  0  0  0  0  0  0  0  0  0  0
   12.5808  -18.4854   25.7152 O   0  0  0  0  0  0  0  0  0  0  0  0
  1  2  1  0
  2  3  1  0
  3  4  2  0
  5  3  1  0
  6  5  1  0
  6  7  1  1
  8  7  1  0
  9  8  2  0
 10  9  1  0
 11 12  1  0
 11 10  2  0
 12 13  2  0
 13  8  1  0
 14  6  1  0
 15 14  2  0
 16 14  1  0
 17 16  1  0
 17 23  1  0
 17 18  1  6
 19 20  1  0
 19 18  1  0
 20 21  1  0
 22 21  1  0
 23 24  2  0
 23 25  1  0
M  END
$$$$
