GFK.pdb
     RDKit          3D

 25 25  0  0  1  0  0  0  0  0999 V2000
    5.0728  -20.7862   23.4171 N   0  0  0  0  0  0  0  0  0  0  0  0
    5.9194  -20.3309   24.5030 C   0  0  0  0  0  0  0  0  0  0  0  0
    6.3150  -18.9140   24.3131 C   0  0  0  0  0  0  0  0  0  0  0  0
    6.3068  -18.4472   23.1500 O   0  0  0  0  0  0  0  0  0  0  0  0
    6.6926  -18.0928   25.3815 N   0  0  0  0  0  0  0  0  0  0  0  0
    7.1843  -16.7379   25.2511 C   0  0  1  0  0  0  0  0  0  0  0  0
    7.0319  -16.0511   26.5728 C   0  0  0  0  0  0  0  0  0  0  0  0
    7.1973  -14.5986   26.4991 C   0  0  0  0  0  0  0  0  0  0  0  0
    6.2075  -13.7995   25.9831 C   0  0  0  0  0  0  0  0  0  0  0  0
    6.3590  -12.4364   25.9123 C   0  0  0  0  0  0  0  0  0  0  0  0
    7.5277  -11.8532   26.3676 C   0  0  0  0  0  0  0  0  0  0  0  0
    8.5393  -12.6629   26.8943 C   0  0  0  0  0  0  0  0  0  0  0  0
    8.3650  -14.0305   26.9555 C   0  0  0  0  0  0  0  0  0  0  0  0
    8.6481  -16.7649   24.9135 C   0  0  0  0  0  0  0  0  0  0  0  0
    9.4094  -17.5435   25.5409 O   0  0  0  0  0  0  0  0  0  0  0  0
    9.1994  -15.9457   23.9153 N   0  0  0  0  0  0  0  0  0  0  0  0
   10.5265  -16.2073   23.4249 C   0  0  1  0  0  0  0  0  0  0  0  0
   10.6979  -15.6622   22.0021 C   0  0  0  0  0  0  0  0  0  0  0  0
   10.1190  -16.6214   21.0168 C   0  0  0  0  0  0  0  0  0  0  0  0
   10.2037  -16.2340   19.5882 C   0  0  0  0  0  0  0  0  0  0  0  0
    9.4169  -17.0423   18.6223 C   0  0  0  0  0  0  0  0  0  0  0  0
    9.5710  -16.6549   17.2377 N   0  0  0  0  0  0  0  0  0  0  0  0
   11.5368  -15.5667   24.2970 C   0  0  0  0  0  0  0  0  0  0  0  0
   12.7647  -15.6769   24.0121 O   0  0  0  0  0  0  0  0  0  0  0  0
   11.1221  -14.8625   25.4023 O   0  0  0  0  0  0  0  0  0  0  0  0
  1  2  1  0
  2  3  1  0
  3  4  2  0
  5  3  1  0
  6  5  1  0
  6  7  1  1
  8  7  1  0
  9  8  2  0
 10  9  1  0
 11 12  1  0
 11 10  2  0
 12 13  2  0
 13  8  1  0
 14  6  1  0
 15 14  2  0
 16 14  1  0
 17 16  1  0
 17 23  1  0
 17 18  1  6
 19 20  1  0
 19 18  1  0
 20 21  1  0
 22 21  1  0
 23 24  2  0
 23 25  1  0
M  END
$$$$
