GFK.pdb
     RDKit          3D

 25 25  0  0  1  0  0  0  0  0999 V2000
    5.1438  -19.8784   21.5791 N   0  0  0  0  0  0  0  0  0  0  0  0
    5.2564  -19.5653   22.9907 C   0  0  0  0  0  0  0  0  0  0  0  0
    6.0285  -18.3164   23.2003 C   0  0  0  0  0  0  0  0  0  0  0  0
    6.6530  -17.8351   22.2261 O   0  0  0  0  0  0  0  0  0  0  0  0
    6.0798  -17.6673   24.4391 N   0  0  0  0  0  0  0  0  0  0  0  0
    6.8297  -16.4596   24.7109 C   0  0  1  0  0  0  0  0  0  0  0  0
    6.2632  -15.8187   25.9398 C   0  0  0  0  0  0  0  0  0  0  0  0
    6.7579  -14.4607   26.1714 C   0  0  0  0  0  0  0  0  0  0  0  0
    6.2944  -13.4030   25.4293 C   0  0  0  0  0  0  0  0  0  0  0  0
    6.7561  -12.1275   25.6437 C   0  0  0  0  0  0  0  0  0  0  0  0
    7.7050  -11.8990   26.6237 C   0  0  0  0  0  0  0  0  0  0  0  0
    8.1807  -12.9732   27.3828 C   0  0  0  0  0  0  0  0  0  0  0  0
    7.7023  -14.2465   27.1497 C   0  0  0  0  0  0  0  0  0  0  0  0
    8.2625  -16.8112   24.9949 C   0  0  0  0  0  0  0  0  0  0  0  0
    8.5193  -17.7376   25.8046 O   0  0  0  0  0  0  0  0  0  0  0  0
    9.3320  -16.1371   24.3840 N   0  0  0  0  0  0  0  0  0  0  0  0
   10.6390  -16.7382   24.3608 C   0  0  1  0  0  0  0  0  0  0  0  0
   11.5301  -16.0622   23.3121 C   0  0  0  0  0  0  0  0  0  0  0  0
   12.8753  -16.7073   23.2957 C   0  0  0  0  0  0  0  0  0  0  0  0
   13.8368  -16.2065   22.2844 C   0  0  0  0  0  0  0  0  0  0  0  0
   15.1207  -16.9410   22.1525 C   0  0  0  0  0  0  0  0  0  0  0  0
   15.9716  -16.4895   21.0740 N   0  0  0  0  0  0  0  0  0  0  0  0
   11.2920  -16.6098   25.6834 C   0  0  0  0  0  0  0  0  0  0  0  0
   11.7798  -17.6367   26.2389 O   0  0  0  0  0  0  0  0  0  0  0  0
   11.3566  -15.3755   26.2848 O   0  0  0  0  0  0  0  0  0  0  0  0
  1  2  1  0
  2  3  1  0
  3  4  2  0
  5  3  1  0
  6  5  1  0
  6  7  1  1
  8  7  1  0
  9  8  2  0
 10  9  1  0
 11 12  1  0
 11 10  2  0
 12 13  2  0
 13  8  1  0
 14  6  1  0
 15 14  2  0
 16 14  1  0
 17 16  1  0
 17 23  1  0
 17 18  1  6
 19 20  1  0
 19 18  1  0
 20 21  1  0
 22 21  1  0
 23 24  2  0
 23 25  1  0
M  END
$$$$
