GFK.pdb
     RDKit          3D

 25 25  0  0  1  0  0  0  0  0999 V2000
    5.3651  -18.9245   20.9426 N   0  0  0  0  0  0  0  0  0  0  0  0
    5.3340  -18.8191   22.3888 C   0  0  0  0  0  0  0  0  0  0  0  0
    6.2314  -17.7381   22.8643 C   0  0  0  0  0  0  0  0  0  0  0  0
    7.0262  -17.2234   22.0431 O   0  0  0  0  0  0  0  0  0  0  0  0
    6.2170  -17.2812   24.1870 N   0  0  0  0  0  0  0  0  0  0  0  0
    7.1163  -16.2852   24.7290 C   0  0  1  0  0  0  0  0  0  0  0  0
    6.5470  -15.7888   26.0218 C   0  0  0  0  0  0  0  0  0  0  0  0
    6.7183  -14.3487   26.2210 C   0  0  0  0  0  0  0  0  0  0  0  0
    7.9677  -13.7802   26.2337 C   0  0  0  0  0  0  0  0  0  0  0  0
    8.1324  -12.4297   26.4203 C   0  0  0  0  0  0  0  0  0  0  0  0
    7.0229  -11.6233   26.5991 C   0  0  0  0  0  0  0  0  0  0  0  0
    5.7475  -12.1975   26.5870 C   0  0  0  0  0  0  0  0  0  0  0  0
    5.6062  -13.5572   26.3978 C   0  0  0  0  0  0  0  0  0  0  0  0
    8.4466  -16.9174   25.0254 C   0  0  0  0  0  0  0  0  0  0  0  0
    8.4820  -18.0310   25.6073 O   0  0  0  0  0  0  0  0  0  0  0  0
    9.6597  -16.3045   24.6733 N   0  0  0  0  0  0  0  0  0  0  0  0
   10.8595  -17.0927   24.5755 C   0  0  1  0  0  0  0  0  0  0  0  0
   11.7320  -16.6127   23.4097 C   0  0  0  0  0  0  0  0  0  0  0  0
   12.9036  -17.5217   23.2435 C   0  0  0  0  0  0  0  0  0  0  0  0
   13.8656  -17.1714   22.1712 C   0  0  0  0  0  0  0  0  0  0  0  0
   14.9574  -18.1412   21.9014 C   0  0  0  0  0  0  0  0  0  0  0  0
   15.9781  -17.6702   20.9918 N   0  0  0  0  0  0  0  0  0  0  0  0
   11.6488  -16.9920   25.8240 C   0  0  0  0  0  0  0  0  0  0  0  0
   12.6590  -17.7370   25.9834 O   0  0  0  0  0  0  0  0  0  0  0  0
   11.2693  -16.0896   26.7890 O   0  0  0  0  0  0  0  0  0  0  0  0
  1  2  1  0
  2  3  1  0
  3  4  2  0
  5  3  1  0
  6  5  1  0
  6  7  1  1
  8  7  1  0
  9  8  2  0
 10  9  1  0
 11 12  1  0
 11 10  2  0
 12 13  2  0
 13  8  1  0
 14  6  1  0
 15 14  2  0
 16 14  1  0
 17 16  1  0
 17 23  1  0
 17 18  1  6
 19 20  1  0
 19 18  1  0
 20 21  1  0
 22 21  1  0
 23 24  2  0
 23 25  1  0
M  END
$$$$
