GFK.pdb
     RDKit          3D

 25 25  0  0  1  0  0  0  0  0999 V2000
    9.2884  -16.8279   19.0016 N   0  0  0  0  0  0  0  0  0  0  0  0
    8.1505  -16.6099   19.8740 C   0  0  0  0  0  0  0  0  0  0  0  0
    8.5519  -15.8829   21.1029 C   0  0  0  0  0  0  0  0  0  0  0  0
    9.7692  -15.8466   21.3992 O   0  0  0  0  0  0  0  0  0  0  0  0
    7.6226  -15.2440   21.9316 N   0  0  0  0  0  0  0  0  0  0  0  0
    7.9392  -14.5997   23.1884 C   0  0  1  0  0  0  0  0  0  0  0  0
    6.7273  -13.8544   23.6551 C   0  0  0  0  0  0  0  0  0  0  0  0
    6.9053  -13.2051   24.9549 C   0  0  0  0  0  0  0  0  0  0  0  0
    7.8326  -12.2074   25.1259 C   0  0  0  0  0  0  0  0  0  0  0  0
    8.0025  -11.5959   26.3437 C   0  0  0  0  0  0  0  0  0  0  0  0
    7.2280  -11.9884   27.4204 C   0  0  0  0  0  0  0  0  0  0  0  0
    6.2817  -13.0044   27.2516 C   0  0  0  0  0  0  0  0  0  0  0  0
    6.1284  -13.6047   26.0185 C   0  0  0  0  0  0  0  0  0  0  0  0
    8.2628  -15.6427   24.2202 C   0  0  0  0  0  0  0  0  0  0  0  0
    7.4715  -16.6039   24.3919 O   0  0  0  0  0  0  0  0  0  0  0  0
    9.4255  -15.5813   25.0048 N   0  0  0  0  0  0  0  0  0  0  0  0
    9.8294  -16.7248   25.7790 C   0  0  1  0  0  0  0  0  0  0  0  0
   11.1886  -17.2512   25.3034 C   0  0  0  0  0  0  0  0  0  0  0  0
   11.0253  -18.6028   24.6930 C   0  0  0  0  0  0  0  0  0  0  0  0
   12.2581  -19.2544   24.1893 C   0  0  0  0  0  0  0  0  0  0  0  0
   12.0930  -20.5376   23.4602 C   0  0  0  0  0  0  0  0  0  0  0  0
   13.3138  -21.0887   22.9153 N   0  0  0  0  0  0  0  0  0  0  0  0
    9.9404  -16.3677   27.2115 C   0  0  0  0  0  0  0  0  0  0  0  0
    9.9875  -15.1487   27.5472 O   0  0  0  0  0  0  0  0  0  0  0  0
    9.9904  -17.3686   28.1525 O   0  0  0  0  0  0  0  0  0  0  0  0
  1  2  1  0
  2  3  1  0
  3  4  2  0
  5  3  1  0
  6  5  1  0
  6  7  1  1
  8  7  1  0
  9  8  2  0
 10  9  1  0
 11 12  1  0
 11 10  2  0
 12 13  2  0
 13  8  1  0
 14  6  1  0
 15 14  2  0
 16 14  1  0
 17 16  1  0
 17 23  1  0
 17 18  1  6
 19 20  1  0
 19 18  1  0
 20 21  1  0
 22 21  1  0
 23 24  2  0
 23 25  1  0
M  END
$$$$
