GFK.pdb
     RDKit          3D

 25 25  0  0  1  0  0  0  0  0999 V2000
    7.2904  -15.3135   19.8518 N   0  0  0  0  0  0  0  0  0  0  0  0
    6.5547  -15.6055   21.0671 C   0  0  0  0  0  0  0  0  0  0  0  0
    7.3860  -15.3498   22.2685 C   0  0  0  0  0  0  0  0  0  0  0  0
    8.5965  -15.0699   22.1031 O   0  0  0  0  0  0  0  0  0  0  0  0
    6.8650  -15.4111   23.5660 N   0  0  0  0  0  0  0  0  0  0  0  0
    7.6216  -15.1641   24.7748 C   0  0  1  0  0  0  0  0  0  0  0  0
    6.6809  -14.6631   25.8263 C   0  0  0  0  0  0  0  0  0  0  0  0
    6.6300  -13.2031   25.9172 C   0  0  0  0  0  0  0  0  0  0  0  0
    7.4680  -12.4181   25.1649 C   0  0  0  0  0  0  0  0  0  0  0  0
    7.4233  -11.0480   25.2474 C   0  0  0  0  0  0  0  0  0  0  0  0
    6.5195  -10.4431   26.1022 C   0  0  0  0  0  0  0  0  0  0  0  0
    5.6634  -11.2383   26.8709 C   0  0  0  0  0  0  0  0  0  0  0  0
    5.7262  -12.6133   26.7715 C   0  0  0  0  0  0  0  0  0  0  0  0
    8.2170  -16.4527   25.2671 C   0  0  0  0  0  0  0  0  0  0  0  0
    8.7727  -16.4821   26.3940 O   0  0  0  0  0  0  0  0  0  0  0  0
    8.1744  -17.6330   24.5080 N   0  0  0  0  0  0  0  0  0  0  0  0
    8.7906  -18.8319   25.0112 C   0  0  1  0  0  0  0  0  0  0  0  0
    8.3264  -20.0574   24.2152 C   0  0  0  0  0  0  0  0  0  0  0  0
    7.0494  -20.5792   24.7836 C   0  0  0  0  0  0  0  0  0  0  0  0
    6.4217  -21.7150   24.0667 C   0  0  0  0  0  0  0  0  0  0  0  0
    5.1387  -22.2291   24.6099 C   0  0  0  0  0  0  0  0  0  0  0  0
    4.5192  -23.2717   23.8223 N   0  0  0  0  0  0  0  0  0  0  0  0
   10.2647  -18.7384   24.9103 C   0  0  0  0  0  0  0  0  0  0  0  0
   10.9809  -19.6708   25.3779 O   0  0  0  0  0  0  0  0  0  0  0  0
   10.8296  -17.6387   24.3094 O   0  0  0  0  0  0  0  0  0  0  0  0
  1  2  1  0
  2  3  1  0
  3  4  2  0
  5  3  1  0
  6  5  1  0
  6  7  1  1
  8  7  1  0
  9  8  2  0
 10  9  1  0
 11 12  1  0
 11 10  2  0
 12 13  2  0
 13  8  1  0
 14  6  1  0
 15 14  2  0
 16 14  1  0
 17 16  1  0
 17 23  1  0
 17 18  1  6
 19 20  1  0
 19 18  1  0
 20 21  1  0
 22 21  1  0
 23 24  2  0
 23 25  1  0
M  END
$$$$
