GFK.pdb
     RDKit          3D

 25 25  0  0  1  0  0  0  0  0999 V2000
    9.2125  -16.6847   18.9517 N   0  0  0  0  0  0  0  0  0  0  0  0
    8.1104  -16.6002   19.8906 C   0  0  0  0  0  0  0  0  0  0  0  0
    8.5114  -15.8737   21.1200 C   0  0  0  0  0  0  0  0  0  0  0  0
    9.7332  -15.7876   21.3857 O   0  0  0  0  0  0  0  0  0  0  0  0
    7.5769  -15.2884   21.9818 N   0  0  0  0  0  0  0  0  0  0  0  0
    7.8975  -14.6485   23.2397 C   0  0  1  0  0  0  0  0  0  0  0  0
    6.6797  -13.9253   23.7252 C   0  0  0  0  0  0  0  0  0  0  0  0
    6.8714  -13.2579   25.0139 C   0  0  0  0  0  0  0  0  0  0  0  0
    6.1834  -13.6645   26.1300 C   0  0  0  0  0  0  0  0  0  0  0  0
    6.3605  -13.0410   27.3407 C   0  0  0  0  0  0  0  0  0  0  0  0
    7.2468  -11.9840   27.4428 C   0  0  0  0  0  0  0  0  0  0  0  0
    7.9504  -11.5657   26.3086 C   0  0  0  0  0  0  0  0  0  0  0  0
    7.7562  -12.2073   25.1023 C   0  0  0  0  0  0  0  0  0  0  0  0
    8.2485  -15.6938   24.2602 C   0  0  0  0  0  0  0  0  0  0  0  0
    7.4407  -16.6304   24.4837 O   0  0  0  0  0  0  0  0  0  0  0  0
    9.4548  -15.6613   24.9779 N   0  0  0  0  0  0  0  0  0  0  0  0
    9.8142  -16.7662   25.8266 C   0  0  1  0  0  0  0  0  0  0  0  0
   11.1294  -17.4032   25.3625 C   0  0  0  0  0  0  0  0  0  0  0  0
   10.9079  -18.1629   24.0976 C   0  0  0  0  0  0  0  0  0  0  0  0
   12.0952  -18.8273   23.5086 C   0  0  0  0  0  0  0  0  0  0  0  0
   11.8907  -19.5747   22.2416 C   0  0  0  0  0  0  0  0  0  0  0  0
   13.1034  -20.0493   21.6132 N   0  0  0  0  0  0  0  0  0  0  0  0
    9.9818  -16.3118   27.2257 C   0  0  0  0  0  0  0  0  0  0  0  0
   10.0984  -17.1693   28.1488 O   0  0  0  0  0  0  0  0  0  0  0  0
   10.0076  -14.9645   27.4970 O   0  0  0  0  0  0  0  0  0  0  0  0
  1  2  1  0
  2  3  1  0
  3  4  2  0
  5  3  1  0
  6  5  1  0
  6  7  1  1
  8  7  1  0
  9  8  2  0
 10  9  1  0
 11 12  1  0
 11 10  2  0
 12 13  2  0
 13  8  1  0
 14  6  1  0
 15 14  2  0
 16 14  1  0
 17 16  1  0
 17 23  1  0
 17 18  1  6
 19 20  1  0
 19 18  1  0
 20 21  1  0
 22 21  1  0
 23 24  2  0
 23 25  1  0
M  END
$$$$
