GFK.pdb
     RDKit          3D

 25 25  0  0  1  0  0  0  0  0999 V2000
    5.5939  -16.9352   20.4867 N   0  0  0  0  0  0  0  0  0  0  0  0
    5.4539  -17.1188   21.9185 C   0  0  0  0  0  0  0  0  0  0  0  0
    6.6244  -16.5679   22.6440 C   0  0  0  0  0  0  0  0  0  0  0  0
    7.6330  -16.2372   21.9774 O   0  0  0  0  0  0  0  0  0  0  0  0
    6.6358  -16.4084   24.0343 N   0  0  0  0  0  0  0  0  0  0  0  0
    7.7482  -15.8861   24.7989 C   0  0  1  0  0  0  0  0  0  0  0  0
    7.2262  -15.3858   26.1100 C   0  0  0  0  0  0  0  0  0  0  0  0
    7.0546  -13.9327   26.1544 C   0  0  0  0  0  0  0  0  0  0  0  0
    7.9405  -13.0964   25.5217 C   0  0  0  0  0  0  0  0  0  0  0  0
    7.7829  -11.7327   25.5611 C   0  0  0  0  0  0  0  0  0  0  0  0
    6.7143  -11.1870   26.2492 C   0  0  0  0  0  0  0  0  0  0  0  0
    5.8087  -12.0347   26.8956 C   0  0  0  0  0  0  0  0  0  0  0  0
    5.9871  -13.4021   26.8424 C   0  0  0  0  0  0  0  0  0  0  0  0
    8.7245  -16.9917   25.0849 C   0  0  0  0  0  0  0  0  0  0  0  0
    8.3226  -18.0321   25.6642 O   0  0  0  0  0  0  0  0  0  0  0  0
   10.0789  -16.9033   24.7255 N   0  0  0  0  0  0  0  0  0  0  0  0
   10.9506  -18.0292   24.9322 C   0  0  1  0  0  0  0  0  0  0  0  0
   12.1062  -18.0146   23.9247 C   0  0  0  0  0  0  0  0  0  0  0  0
   11.5708  -18.1095   22.5353 C   0  0  0  0  0  0  0  0  0  0  0  0
   12.5698  -18.1063   21.4398 C   0  0  0  0  0  0  0  0  0  0  0  0
   12.0476  -18.1587   20.0506 C   0  0  0  0  0  0  0  0  0  0  0  0
   13.0601  -18.1248   19.0187 N   0  0  0  0  0  0  0  0  0  0  0  0
   11.5198  -17.9999   26.2986 C   0  0  0  0  0  0  0  0  0  0  0  0
   12.2523  -18.9551   26.6883 O   0  0  0  0  0  0  0  0  0  0  0  0
   11.2417  -16.9338   27.1206 O   0  0  0  0  0  0  0  0  0  0  0  0
  1  2  1  0
  2  3  1  0
  3  4  2  0
  5  3  1  0
  6  5  1  0
  6  7  1  1
  8  7  1  0
  9  8  2  0
 10  9  1  0
 11 12  1  0
 11 10  2  0
 12 13  2  0
 13  8  1  0
 14  6  1  0
 15 14  2  0
 16 14  1  0
 17 16  1  0
 17 23  1  0
 17 18  1  6
 19 20  1  0
 19 18  1  0
 20 21  1  0
 22 21  1  0
 23 24  2  0
 23 25  1  0
M  END
$$$$
