GFK.pdb
     RDKit          3D

 25 25  0  0  1  0  0  0  0  0999 V2000
    5.6948  -20.1386   21.9565 N   0  0  0  0  0  0  0  0  0  0  0  0
    5.7190  -19.7046   23.3401 C   0  0  0  0  0  0  0  0  0  0  0  0
    6.3773  -18.3821   23.4730 C   0  0  0  0  0  0  0  0  0  0  0  0
    7.1106  -17.9882   22.5360 O   0  0  0  0  0  0  0  0  0  0  0  0
    6.2059  -17.5707   24.6003 N   0  0  0  0  0  0  0  0  0  0  0  0
    6.9207  -16.3371   24.8492 C   0  0  1  0  0  0  0  0  0  0  0  0
    6.1145  -15.5082   25.8004 C   0  0  0  0  0  0  0  0  0  0  0  0
    6.6612  -14.1674   26.0151 C   0  0  0  0  0  0  0  0  0  0  0  0
    6.9766  -13.3542   24.9550 C   0  0  0  0  0  0  0  0  0  0  0  0
    7.4897  -12.0958   25.1525 C   0  0  0  0  0  0  0  0  0  0  0  0
    7.6944  -11.6345   26.4403 C   0  0  0  0  0  0  0  0  0  0  0  0
    7.3747  -12.4591   27.5240 C   0  0  0  0  0  0  0  0  0  0  0  0
    6.8602  -13.7201   27.3015 C   0  0  0  0  0  0  0  0  0  0  0  0
    8.2362  -16.6427   25.5074 C   0  0  0  0  0  0  0  0  0  0  0  0
    8.2695  -17.4519   26.4686 O   0  0  0  0  0  0  0  0  0  0  0  0
    9.4379  -16.0525   25.0842 N   0  0  0  0  0  0  0  0  0  0  0  0
   10.6941  -16.5486   25.5801 C   0  0  1  0  0  0  0  0  0  0  0  0
   11.8600  -16.0125   24.7409 C   0  0  0  0  0  0  0  0  0  0  0  0
   12.1650  -16.9605   23.6299 C   0  0  0  0  0  0  0  0  0  0  0  0
   13.2270  -16.5480   22.6812 C   0  0  0  0  0  0  0  0  0  0  0  0
   13.4437  -17.4129   21.4936 C   0  0  0  0  0  0  0  0  0  0  0  0
   12.3889  -17.3645   20.5056 N   0  0  0  0  0  0  0  0  0  0  0  0
   10.8976  -16.1310   26.9858 C   0  0  0  0  0  0  0  0  0  0  0  0
   10.3936  -15.0435   27.3911 O   0  0  0  0  0  0  0  0  0  0  0  0
   11.6317  -16.9334   27.8265 O   0  0  0  0  0  0  0  0  0  0  0  0
  1  2  1  0
  2  3  1  0
  3  4  2  0
  5  3  1  0
  6  5  1  0
  6  7  1  1
  8  7  1  0
  9  8  2  0
 10  9  1  0
 11 12  1  0
 11 10  2  0
 12 13  2  0
 13  8  1  0
 14  6  1  0
 15 14  2  0
 16 14  1  0
 17 16  1  0
 17 23  1  0
 17 18  1  6
 19 20  1  0
 19 18  1  0
 20 21  1  0
 22 21  1  0
 23 24  2  0
 23 25  1  0
M  END
$$$$
