GFK.pdb
     RDKit          3D

 25 25  0  0  1  0  0  0  0  0999 V2000
    5.6290  -20.5287   24.4890 N   0  0  0  0  0  0  0  0  0  0  0  0
    5.2369  -19.7713   23.3160 C   0  0  0  0  0  0  0  0  0  0  0  0
    5.6268  -18.3461   23.4463 C   0  0  0  0  0  0  0  0  0  0  0  0
    5.3074  -17.5578   22.5258 O   0  0  0  0  0  0  0  0  0  0  0  0
    6.3323  -17.8615   24.5535 N   0  0  0  0  0  0  0  0  0  0  0  0
    6.7982  -16.5000   24.7075 C   0  0  1  0  0  0  0  0  0  0  0  0
    6.8146  -16.1690   26.1676 C   0  0  0  0  0  0  0  0  0  0  0  0
    7.0365  -14.7484   26.4423 C   0  0  0  0  0  0  0  0  0  0  0  0
    8.3005  -14.2592   26.6598 C   0  0  0  0  0  0  0  0  0  0  0  0
    8.5127  -12.9272   26.9177 C   0  0  0  0  0  0  0  0  0  0  0  0
    7.4370  -12.0586   26.9603 C   0  0  0  0  0  0  0  0  0  0  0  0
    6.1470  -12.5519   26.7394 C   0  0  0  0  0  0  0  0  0  0  0  0
    5.9577  -13.8944   26.4819 C   0  0  0  0  0  0  0  0  0  0  0  0
    8.2064  -16.3898   24.1957 C   0  0  0  0  0  0  0  0  0  0  0  0
    9.0438  -17.2747   24.5047 O   0  0  0  0  0  0  0  0  0  0  0  0
    8.6230  -15.3265   23.3789 N   0  0  0  0  0  0  0  0  0  0  0  0
    9.9120  -15.3743   22.7414 C   0  0  1  0  0  0  0  0  0  0  0  0
   10.0334  -14.2776   21.6769 C   0  0  0  0  0  0  0  0  0  0  0  0
    8.9180  -14.3981   20.6932 C   0  0  0  0  0  0  0  0  0  0  0  0
    8.9802  -13.5065   19.5103 C   0  0  0  0  0  0  0  0  0  0  0  0
    7.8199  -13.5332   18.5838 C   0  0  0  0  0  0  0  0  0  0  0  0
    7.9482  -12.6794   17.4238 N   0  0  0  0  0  0  0  0  0  0  0  0
   10.9902  -15.1818   23.7376 C   0  0  0  0  0  0  0  0  0  0  0  0
   12.1982  -15.2289   23.3642 O   0  0  0  0  0  0  0  0  0  0  0  0
   10.6589  -14.9548   25.0522 O   0  0  0  0  0  0  0  0  0  0  0  0
  1  2  1  0
  2  3  1  0
  3  4  2  0
  5  3  1  0
  6  5  1  0
  6  7  1  1
  8  7  1  0
  9  8  2  0
 10  9  1  0
 11 12  1  0
 11 10  2  0
 12 13  2  0
 13  8  1  0
 14  6  1  0
 15 14  2  0
 16 14  1  0
 17 16  1  0
 17 23  1  0
 17 18  1  6
 19 20  1  0
 19 18  1  0
 20 21  1  0
 22 21  1  0
 23 24  2  0
 23 25  1  0
M  END
$$$$
