GFK.pdb
     RDKit          3D

 25 25  0  0  1  0  0  0  0  0999 V2000
    7.5983  -19.0658   20.5433 N   0  0  0  0  0  0  0  0  0  0  0  0
    7.2956  -18.8024   21.9370 C   0  0  0  0  0  0  0  0  0  0  0  0
    7.5575  -17.3836   22.2809 C   0  0  0  0  0  0  0  0  0  0  0  0
    8.1936  -16.6823   21.4597 O   0  0  0  0  0  0  0  0  0  0  0  0
    7.1205  -16.8116   23.4811 N   0  0  0  0  0  0  0  0  0  0  0  0
    7.4776  -15.4884   23.9462 C   0  0  1  0  0  0  0  0  0  0  0  0
    6.5338  -15.1030   25.0428 C   0  0  0  0  0  0  0  0  0  0  0  0
    6.7090  -13.7259   25.5072 C   0  0  0  0  0  0  0  0  0  0  0  0
    7.0284  -12.7191   24.6304 C   0  0  0  0  0  0  0  0  0  0  0  0
    7.1935  -11.4260   25.0623 C   0  0  0  0  0  0  0  0  0  0  0  0
    7.0362  -11.1272   26.4037 C   0  0  0  0  0  0  0  0  0  0  0  0
    6.7107  -12.1493   27.3013 C   0  0  0  0  0  0  0  0  0  0  0  0
    6.5497  -13.4416   26.8445 C   0  0  0  0  0  0  0  0  0  0  0  0
    8.8649  -15.5157   24.5224 C   0  0  0  0  0  0  0  0  0  0  0  0
    9.4006  -14.4386   24.8866 O   0  0  0  0  0  0  0  0  0  0  0  0
    9.5890  -16.7096   24.6694 N   0  0  0  0  0  0  0  0  0  0  0  0
   10.9569  -16.6685   25.1137 C   0  0  1  0  0  0  0  0  0  0  0  0
   11.3764  -18.0180   25.7082 C   0  0  0  0  0  0  0  0  0  0  0  0
   10.9765  -18.0877   27.1439 C   0  0  0  0  0  0  0  0  0  0  0  0
   11.3367  -19.3282   27.8715 C   0  0  0  0  0  0  0  0  0  0  0  0
   11.0229  -19.3745   29.3223 C   0  0  0  0  0  0  0  0  0  0  0  0
   11.2790  -20.6470   29.9595 N   0  0  0  0  0  0  0  0  0  0  0  0
   11.8595  -16.3535   23.9832 C   0  0  0  0  0  0  0  0  0  0  0  0
   11.4507  -16.5147   22.7967 O   0  0  0  0  0  0  0  0  0  0  0  0
   13.1276  -15.8910   24.2434 O   0  0  0  0  0  0  0  0  0  0  0  0
  1  2  1  0
  2  3  1  0
  3  4  2  0
  5  3  1  0
  6  5  1  0
  6  7  1  1
  8  7  1  0
  9  8  2  0
 10  9  1  0
 11 12  1  0
 11 10  2  0
 12 13  2  0
 13  8  1  0
 14  6  1  0
 15 14  2  0
 16 14  1  0
 17 16  1  0
 17 23  1  0
 17 18  1  6
 19 20  1  0
 19 18  1  0
 20 21  1  0
 22 21  1  0
 23 24  2  0
 23 25  1  0
M  END
$$$$
