GFK.pdb
     RDKit          3D

 25 25  0  0  1  0  0  0  0  0999 V2000
    6.3620  -19.1524   20.6583 N   0  0  0  0  0  0  0  0  0  0  0  0
    5.9634  -18.9364   22.0359 C   0  0  0  0  0  0  0  0  0  0  0  0
    6.7491  -17.8401   22.6531 C   0  0  0  0  0  0  0  0  0  0  0  0
    7.8432  -17.5268   22.1280 O   0  0  0  0  0  0  0  0  0  0  0  0
    6.3101  -17.1534   23.7907 N   0  0  0  0  0  0  0  0  0  0  0  0
    7.0646  -16.1308   24.4834 C   0  0  1  0  0  0  0  0  0  0  0  0
    6.1141  -15.3215   25.3100 C   0  0  0  0  0  0  0  0  0  0  0  0
    6.6912  -14.0721   25.8087 C   0  0  0  0  0  0  0  0  0  0  0  0
    6.9739  -13.9063   27.1418 C   0  0  0  0  0  0  0  0  0  0  0  0
    7.5154  -12.7357   27.6134 C   0  0  0  0  0  0  0  0  0  0  0  0
    7.7826  -11.7022   26.7338 C   0  0  0  0  0  0  0  0  0  0  0  0
    7.4965  -11.8659   25.3746 C   0  0  0  0  0  0  0  0  0  0  0  0
    6.9525  -13.0512   24.9232 C   0  0  0  0  0  0  0  0  0  0  0  0
    8.0488  -16.7777   25.4162 C   0  0  0  0  0  0  0  0  0  0  0  0
    7.6581  -17.6933   26.1835 O   0  0  0  0  0  0  0  0  0  0  0  0
    9.3983  -16.3930   25.4617 N   0  0  0  0  0  0  0  0  0  0  0  0
   10.3470  -17.1906   26.1926 C   0  0  1  0  0  0  0  0  0  0  0  0
   11.7089  -17.1973   25.4882 C   0  0  0  0  0  0  0  0  0  0  0  0
   11.6122  -17.9464   24.2015 C   0  0  0  0  0  0  0  0  0  0  0  0
   12.8572  -18.0544   23.4039 C   0  0  0  0  0  0  0  0  0  0  0  0
   12.7522  -18.7085   22.0747 C   0  0  0  0  0  0  0  0  0  0  0  0
   13.9874  -18.7641   21.3250 N   0  0  0  0  0  0  0  0  0  0  0  0
   10.5296  -16.6545   27.5605 C   0  0  0  0  0  0  0  0  0  0  0  0
   10.2332  -15.4482   27.8010 O   0  0  0  0  0  0  0  0  0  0  0  0
   11.0188  -17.4783   28.5462 O   0  0  0  0  0  0  0  0  0  0  0  0
  1  2  1  0
  2  3  1  0
  3  4  2  0
  5  3  1  0
  6  5  1  0
  6  7  1  1
  8  7  1  0
  9  8  2  0
 10  9  1  0
 11 12  1  0
 11 10  2  0
 12 13  2  0
 13  8  1  0
 14  6  1  0
 15 14  2  0
 16 14  1  0
 17 16  1  0
 17 23  1  0
 17 18  1  6
 19 20  1  0
 19 18  1  0
 20 21  1  0
 22 21  1  0
 23 24  2  0
 23 25  1  0
M  END
$$$$
