AKY.pdb
     RDKit          3D

 27 27  0  0  1  0  0  0  0  0999 V2000
    7.7407  -20.8595   21.4573 C   0  0  0  0  0  0  0  0  0  0  0  0
    8.0528  -19.7858   22.4690 C   0  0  2  0  0  0  0  0  0  0  0  0
    6.8949  -19.2514   23.1209 N   0  0  0  0  0  0  0  0  0  0  0  0
    8.9124  -18.7165   21.8798 C   0  0  0  0  0  0  0  0  0  0  0  0
   10.0424  -19.0285   21.4357 O   0  0  0  0  0  0  0  0  0  0  0  0
    8.4416  -17.3805   21.8330 N   0  0  0  0  0  0  0  0  0  0  0  0
    9.2321  -16.3445   21.0986 C   0  0  1  0  0  0  0  0  0  0  0  0
    8.2282  -15.4160   20.4961 C   0  0  0  0  0  0  0  0  0  0  0  0
    8.1077  -15.4231   19.0184 C   0  0  0  0  0  0  0  0  0  0  0  0
    8.3712  -14.0357   18.4821 C   0  0  0  0  0  0  0  0  0  0  0  0
    8.1426  -13.9445   16.9908 C   0  0  0  0  0  0  0  0  0  0  0  0
    8.2163  -12.5567   16.5785 N   0  0  0  0  0  0  0  0  0  0  0  0
   10.1096  -15.7181   22.1099 C   0  0  0  0  0  0  0  0  0  0  0  0
   10.7789  -14.6646   21.8162 O   0  0  0  0  0  0  0  0  0  0  0  0
    6.3690  -11.3652   27.9538 O   0  0  0  0  0  0  0  0  0  0  0  0
    6.8240  -12.2935   27.0197 C   0  0  0  0  0  0  0  0  0  0  0  0
    8.1747  -12.5322   26.9113 C   0  0  0  0  0  0  0  0  0  0  0  0
    8.6769  -13.4449   25.9990 C   0  0  0  0  0  0  0  0  0  0  0  0
    7.8102  -14.1286   25.1830 C   0  0  0  0  0  0  0  0  0  0  0  0
    8.3324  -15.0819   24.2044 C   0  0  0  0  0  0  0  0  0  0  0  0
    9.7707  -15.4025   24.5398 C   0  0  2  0  0  0  0  0  0  0  0  0
   10.2556  -16.2136   23.3991 N   0  0  0  0  0  0  0  0  0  0  0  0
    9.9022  -16.1912   25.7839 C   0  0  0  0  0  0  0  0  0  0  0  0
   10.0510  -15.5743   26.8847 O   0  0  0  0  0  0  0  0  0  0  0  0
    6.4639  -13.8881   25.2937 C   0  0  0  0  0  0  0  0  0  0  0  0
    5.9510  -12.9822   26.1975 C   0  0  0  0  0  0  0  0  0  0  0  0
    9.8653  -17.5731   25.7744 O   0  0  0  0  0  0  0  0  0  0  0  0
  2  1  1  6
  3  2  1  0
  4  5  2  0
  4  2  1  0
  6  4  1  0
  7  6  1  0
  7  8  1  1
  8  9  1  0
 10  9  1  0
 11 12  1  0
 11 10  1  0
 13  7  1  0
 14 13  2  0
 15 16  1  0
 16 26  2  0
 17 18  2  0
 17 16  1  0
 18 19  1  0
 19 20  1  0
 19 25  2  0
 21 20  1  6
 21 23  1  0
 21 22  1  0
 22 13  1  0
 23 27  1  0
 24 23  2  0
 26 25  1  0
M  END
$$$$
