AKY.pdb
     RDKit          3D

 27 27  0  0  1  0  0  0  0  0999 V2000
    5.8011  -19.4458   20.3027 C   0  0  0  0  0  0  0  0  0  0  0  0
    5.9969  -18.7051   21.6014 C   0  0  2  0  0  0  0  0  0  0  0  0
    4.7849  -18.1827   22.1575 N   0  0  0  0  0  0  0  0  0  0  0  0
    7.0570  -17.6608   21.4776 C   0  0  0  0  0  0  0  0  0  0  0  0
    8.1879  -17.9976   21.0546 O   0  0  0  0  0  0  0  0  0  0  0  0
    6.7700  -16.3201   21.8366 N   0  0  0  0  0  0  0  0  0  0  0  0
    7.8082  -15.2628   21.6323 C   0  0  1  0  0  0  0  0  0  0  0  0
    7.0901  -14.0951   21.0373 C   0  0  0  0  0  0  0  0  0  0  0  0
    6.7552  -14.1754   19.5953 C   0  0  0  0  0  0  0  0  0  0  0  0
    7.8544  -13.5317   18.7833 C   0  0  0  0  0  0  0  0  0  0  0  0
    7.5696  -13.5715   17.2995 C   0  0  0  0  0  0  0  0  0  0  0  0
    8.7386  -13.1140   16.5745 N   0  0  0  0  0  0  0  0  0  0  0  0
    8.3864  -15.0048   22.9681 C   0  0  0  0  0  0  0  0  0  0  0  0
    7.7918  -14.2146   23.7841 O   0  0  0  0  0  0  0  0  0  0  0  0
   10.7224  -14.9338   31.0052 O   0  0  0  0  0  0  0  0  0  0  0  0
   10.2835  -15.0973   29.6930 C   0  0  0  0  0  0  0  0  0  0  0  0
   10.2874  -16.3546   29.1340 C   0  0  0  0  0  0  0  0  0  0  0  0
    9.8609  -16.5695   27.8342 C   0  0  0  0  0  0  0  0  0  0  0  0
    9.4237  -15.5064   27.0839 C   0  0  0  0  0  0  0  0  0  0  0  0
    8.9876  -15.7208   25.7044 C   0  0  0  0  0  0  0  0  0  0  0  0
   10.0722  -15.2542   24.7610 C   0  0  2  0  0  0  0  0  0  0  0  0
    9.5683  -15.5862   23.4082 N   0  0  0  0  0  0  0  0  0  0  0  0
   11.3573  -15.9517   24.9827 C   0  0  0  0  0  0  0  0  0  0  0  0
   12.2723  -15.3539   25.6306 O   0  0  0  0  0  0  0  0  0  0  0  0
    9.4211  -14.2540   27.6444 C   0  0  0  0  0  0  0  0  0  0  0  0
    9.8432  -14.0263   28.9369 C   0  0  0  0  0  0  0  0  0  0  0  0
   11.5812  -17.2296   24.5052 O   0  0  0  0  0  0  0  0  0  0  0  0
  2  1  1  6
  3  2  1  0
  4  5  2  0
  4  2  1  0
  6  4  1  0
  7  6  1  0
  7  8  1  1
  8  9  1  0
 10  9  1  0
 11 12  1  0
 11 10  1  0
 13  7  1  0
 14 13  2  0
 15 16  1  0
 16 26  2  0
 17 18  2  0
 17 16  1  0
 18 19  1  0
 19 20  1  0
 19 25  2  0
 21 20  1  1
 21 23  1  0
 21 22  1  0
 22 13  1  0
 23 27  1  0
 24 23  2  0
 26 25  1  0
M  END
$$$$
