AKY.pdb
     RDKit          3D

 27 27  0  0  1  0  0  0  0  0999 V2000
    8.9956  -19.4805   19.0510 C   0  0  0  0  0  0  0  0  0  0  0  0
    8.7617  -19.0322   20.4716 C   0  0  2  0  0  0  0  0  0  0  0  0
    7.4352  -19.2875   20.9474 N   0  0  0  0  0  0  0  0  0  0  0  0
    9.1668  -17.6084   20.6664 C   0  0  0  0  0  0  0  0  0  0  0  0
   10.3266  -17.2620   20.3403 O   0  0  0  0  0  0  0  0  0  0  0  0
    8.2430  -16.6817   21.2111 N   0  0  0  0  0  0  0  0  0  0  0  0
    8.6696  -15.2680   21.4503 C   0  0  1  0  0  0  0  0  0  0  0  0
    7.5083  -14.4177   21.0485 C   0  0  0  0  0  0  0  0  0  0  0  0
    7.7602  -13.3765   20.0235 C   0  0  0  0  0  0  0  0  0  0  0  0
    7.3934  -13.9101   18.6586 C   0  0  0  0  0  0  0  0  0  0  0  0
    7.6014  -12.8851   17.5675 C   0  0  0  0  0  0  0  0  0  0  0  0
    7.1020  -13.4126   16.3129 N   0  0  0  0  0  0  0  0  0  0  0  0
    9.0124  -15.1900   22.8861 C   0  0  0  0  0  0  0  0  0  0  0  0
    8.0963  -14.9651   23.7544 O   0  0  0  0  0  0  0  0  0  0  0  0
   10.9009  -15.1065   31.0553 O   0  0  0  0  0  0  0  0  0  0  0  0
   10.5953  -15.2924   29.7087 C   0  0  0  0  0  0  0  0  0  0  0  0
   10.1684  -14.2190   28.9613 C   0  0  0  0  0  0  0  0  0  0  0  0
    9.8526  -14.3517   27.6195 C   0  0  0  0  0  0  0  0  0  0  0  0
    9.9673  -15.5806   27.0186 C   0  0  0  0  0  0  0  0  0  0  0  0
    9.6196  -15.7344   25.6063 C   0  0  0  0  0  0  0  0  0  0  0  0
   10.6070  -14.9608   24.7632 C   0  0  2  0  0  0  0  0  0  0  0  0
   10.3049  -15.3536   23.3673 N   0  0  0  0  0  0  0  0  0  0  0  0
   12.0113  -15.3084   25.0699 C   0  0  0  0  0  0  0  0  0  0  0  0
   12.6369  -14.6164   25.9327 O   0  0  0  0  0  0  0  0  0  0  0  0
   10.3933  -16.6489   27.7669 C   0  0  0  0  0  0  0  0  0  0  0  0
   10.7106  -16.5304   29.1032 C   0  0  0  0  0  0  0  0  0  0  0  0
   12.6514  -16.3620   24.4442 O   0  0  0  0  0  0  0  0  0  0  0  0
  2  1  1  6
  3  2  1  0
  4  5  2  0
  4  2  1  0
  6  4  1  0
  7  6  1  0
  7  8  1  1
  8  9  1  0
 10  9  1  0
 11 12  1  0
 11 10  1  0
 13  7  1  0
 14 13  2  0
 15 16  1  0
 16 26  2  0
 17 18  2  0
 17 16  1  0
 18 19  1  0
 19 20  1  0
 19 25  2  0
 21 20  1  1
 21 23  1  0
 21 22  1  0
 22 13  1  0
 23 27  1  0
 24 23  2  0
 26 25  1  0
M  END
$$$$
