AKY.pdb
     RDKit          3D

 27 27  0  0  1  0  0  0  0  0999 V2000
    7.1688  -19.6174   19.7681 C   0  0  0  0  0  0  0  0  0  0  0  0
    7.3695  -18.9202   21.0900 C   0  0  2  0  0  0  0  0  0  0  0  0
    6.1497  -18.6332   21.7834 N   0  0  0  0  0  0  0  0  0  0  0  0
    8.2323  -17.7106   20.9416 C   0  0  0  0  0  0  0  0  0  0  0  0
    9.3545  -17.8343   20.3970 O   0  0  0  0  0  0  0  0  0  0  0  0
    7.7729  -16.4558   21.4140 N   0  0  0  0  0  0  0  0  0  0  0  0
    8.6613  -15.2570   21.3084 C   0  0  1  0  0  0  0  0  0  0  0  0
    7.8889  -14.2440   20.5272 C   0  0  0  0  0  0  0  0  0  0  0  0
    7.6458  -14.5420   19.0953 C   0  0  0  0  0  0  0  0  0  0  0  0
    8.2124  -13.4306   18.2433 C   0  0  0  0  0  0  0  0  0  0  0  0
    8.0096  -13.6801   16.7665 C   0  0  0  0  0  0  0  0  0  0  0  0
    8.4269  -12.5090   16.0208 N   0  0  0  0  0  0  0  0  0  0  0  0
    8.9588  -14.8545   22.6993 C   0  0  0  0  0  0  0  0  0  0  0  0
    8.3026  -13.8983   23.2461 O   0  0  0  0  0  0  0  0  0  0  0  0
    5.9539  -11.1076   27.2396 O   0  0  0  0  0  0  0  0  0  0  0  0
    6.5350  -12.2480   26.6890 C   0  0  0  0  0  0  0  0  0  0  0  0
    5.9445  -13.4727   26.9001 C   0  0  0  0  0  0  0  0  0  0  0  0
    6.4827  -14.6354   26.3744 C   0  0  0  0  0  0  0  0  0  0  0  0
    7.6311  -14.5677   25.6254 C   0  0  0  0  0  0  0  0  0  0  0  0
    8.2166  -15.7922   25.0805 C   0  0  0  0  0  0  0  0  0  0  0  0
    9.7093  -15.6076   24.9328 C   0  0  2  0  0  0  0  0  0  0  0  0
    9.9330  -15.4693   23.4750 N   0  0  0  0  0  0  0  0  0  0  0  0
   10.4779  -16.7685   25.4316 C   0  0  0  0  0  0  0  0  0  0  0  0
   10.6500  -17.7635   24.6604 O   0  0  0  0  0  0  0  0  0  0  0  0
    8.2173  -13.3448   25.4170 C   0  0  0  0  0  0  0  0  0  0  0  0
    7.6920  -12.1801   25.9346 C   0  0  0  0  0  0  0  0  0  0  0  0
   11.0095  -16.7926   26.7075 O   0  0  0  0  0  0  0  0  0  0  0  0
  2  1  1  6
  3  2  1  0
  4  5  2  0
  4  2  1  0
  6  4  1  0
  7  6  1  0
  7  8  1  6
  8  9  1  0
 10  9  1  0
 11 12  1  0
 11 10  1  0
 13  7  1  0
 14 13  2  0
 15 16  1  0
 16 26  2  0
 17 18  2  0
 17 16  1  0
 18 19  1  0
 19 20  1  0
 19 25  2  0
 21 20  1  6
 21 23  1  0
 21 22  1  0
 22 13  1  0
 23 27  1  0
 24 23  2  0
 26 25  1  0
M  END
$$$$
