AKY.pdb
     RDKit          3D

 27 27  0  0  1  0  0  0  0  0999 V2000
    7.4576  -19.0425   19.1565 C   0  0  0  0  0  0  0  0  0  0  0  0
    7.6218  -18.6782   20.6105 C   0  0  2  0  0  0  0  0  0  0  0  0
    6.3848  -18.5819   21.3256 N   0  0  0  0  0  0  0  0  0  0  0  0
    8.4644  -17.4563   20.7733 C   0  0  0  0  0  0  0  0  0  0  0  0
    9.6226  -17.4550   20.2940 O   0  0  0  0  0  0  0  0  0  0  0  0
    7.9460  -16.3300   21.4599 N   0  0  0  0  0  0  0  0  0  0  0  0
    8.7595  -15.0775   21.5433 C   0  0  1  0  0  0  0  0  0  0  0  0
    7.8126  -13.9561   21.2624 C   0  0  0  0  0  0  0  0  0  0  0  0
    7.2445  -13.8825   19.8949 C   0  0  0  0  0  0  0  0  0  0  0  0
    8.1743  -13.0950   19.0019 C   0  0  0  0  0  0  0  0  0  0  0  0
    8.5223  -13.8426   17.7353 C   0  0  0  0  0  0  0  0  0  0  0  0
    8.2434  -12.9997   16.5892 N   0  0  0  0  0  0  0  0  0  0  0  0
    9.3336  -15.0619   22.9054 C   0  0  0  0  0  0  0  0  0  0  0  0
   10.1864  -14.1624   23.2332 O   0  0  0  0  0  0  0  0  0  0  0  0
    5.8727  -11.1050   26.6176 O   0  0  0  0  0  0  0  0  0  0  0  0
    6.5037  -12.3422   26.5062 C   0  0  0  0  0  0  0  0  0  0  0  0
    7.7893  -12.4863   26.9749 C   0  0  0  0  0  0  0  0  0  0  0  0
    8.4596  -13.6950   26.8879 C   0  0  0  0  0  0  0  0  0  0  0  0
    7.8300  -14.7755   26.3218 C   0  0  0  0  0  0  0  0  0  0  0  0
    8.5359  -16.0515   26.2097 C   0  0  0  0  0  0  0  0  0  0  0  0
    9.6565  -15.9141   25.2050 C   0  0  2  0  0  0  0  0  0  0  0  0
    8.9930  -15.9880   23.8827 N   0  0  0  0  0  0  0  0  0  0  0  0
   10.6500  -17.0047   25.3087 C   0  0  0  0  0  0  0  0  0  0  0  0
   11.3163  -17.1231   26.3841 O   0  0  0  0  0  0  0  0  0  0  0  0
    6.5480  -14.6282   25.8555 C   0  0  0  0  0  0  0  0  0  0  0  0
    5.8696  -13.4308   25.9359 C   0  0  0  0  0  0  0  0  0  0  0  0
   10.8656  -17.8911   24.2699 O   0  0  0  0  0  0  0  0  0  0  0  0
  2  1  1  6
  3  2  1  0
  4  5  2  0
  4  2  1  0
  6  4  1  0
  7  6  1  0
  7  8  1  1
  8  9  1  0
 10  9  1  0
 11 12  1  0
 11 10  1  0
 13  7  1  0
 14 13  2  0
 15 16  1  0
 16 26  2  0
 17 18  2  0
 17 16  1  0
 18 19  1  0
 19 20  1  0
 19 25  2  0
 21 20  1  1
 21 23  1  0
 21 22  1  0
 22 13  1  0
 23 27  1  0
 24 23  2  0
 26 25  1  0
M  END
$$$$
