AKY.pdb
     RDKit          3D

 27 27  0  0  1  0  0  0  0  0999 V2000
   12.8759  -16.6695   18.8821 C   0  0  0  0  0  0  0  0  0  0  0  0
   11.4548  -16.9578   18.4685 C   0  0  2  0  0  0  0  0  0  0  0  0
   10.9976  -16.1562   17.3732 N   0  0  0  0  0  0  0  0  0  0  0  0
   10.5261  -16.9003   19.6362 C   0  0  0  0  0  0  0  0  0  0  0  0
   10.0363  -15.7934   19.9624 O   0  0  0  0  0  0  0  0  0  0  0  0
   10.2169  -18.0856   20.3490 N   0  0  0  0  0  0  0  0  0  0  0  0
    9.1916  -18.0463   21.4374 C   0  0  1  0  0  0  0  0  0  0  0  0
    8.7035  -19.4505   21.5894 C   0  0  0  0  0  0  0  0  0  0  0  0
    7.3107  -19.7280   21.1637 C   0  0  0  0  0  0  0  0  0  0  0  0
    7.3153  -20.3343   19.7800 C   0  0  0  0  0  0  0  0  0  0  0  0
    5.9233  -20.6709   19.2970 C   0  0  0  0  0  0  0  0  0  0  0  0
    5.9984  -21.2001   17.9494 N   0  0  0  0  0  0  0  0  0  0  0  0
    9.8891  -17.5129   22.6266 C   0  0  0  0  0  0  0  0  0  0  0  0
   11.1234  -17.7953   22.8283 O   0  0  0  0  0  0  0  0  0  0  0  0
   11.1458  -13.9179   30.4903 O   0  0  0  0  0  0  0  0  0  0  0  0
   10.6502  -14.2052   29.2203 C   0  0  0  0  0  0  0  0  0  0  0  0
   11.5216  -14.6003   28.2316 C   0  0  0  0  0  0  0  0  0  0  0  0
   11.0788  -14.8973   26.9535 C   0  0  0  0  0  0  0  0  0  0  0  0
    9.7410  -14.7963   26.6634 C   0  0  0  0  0  0  0  0  0  0  0  0
    9.2660  -15.0911   25.3118 C   0  0  0  0  0  0  0  0  0  0  0  0
   10.0380  -16.2665   24.7580 C   0  0  2  0  0  0  0  0  0  0  0  0
    9.2717  -16.6970   23.5657 N   0  0  0  0  0  0  0  0  0  0  0  0
   10.1203  -17.3932   25.7124 C   0  0  0  0  0  0  0  0  0  0  0  0
    9.0845  -18.1019   25.9108 O   0  0  0  0  0  0  0  0  0  0  0  0
    8.8747  -14.4020   27.6517 C   0  0  0  0  0  0  0  0  0  0  0  0
    9.3024  -14.1033   28.9278 C   0  0  0  0  0  0  0  0  0  0  0  0
   11.2906  -17.6897   26.3859 O   0  0  0  0  0  0  0  0  0  0  0  0
  2  1  1  1
  3  2  1  0
  4  5  2  0
  4  2  1  0
  6  4  1  0
  7  6  1  0
  7  8  1  1
  8  9  1  0
 10  9  1  0
 11 12  1  0
 11 10  1  0
 13  7  1  0
 14 13  2  0
 15 16  1  0
 16 26  2  0
 17 18  2  0
 17 16  1  0
 18 19  1  0
 19 20  1  0
 19 25  2  0
 21 20  1  1
 21 23  1  0
 21 22  1  0
 22 13  1  0
 23 27  1  0
 24 23  2  0
 26 25  1  0
M  END
$$$$
