AKY.pdb
     RDKit          3D

 27 27  0  0  1  0  0  0  0  0999 V2000
    7.2999  -12.6424   18.5597 C   0  0  0  0  0  0  0  0  0  0  0  0
    8.5648  -13.2500   19.1116 C   0  0  2  0  0  0  0  0  0  0  0  0
    9.4517  -13.7524   18.1056 N   0  0  0  0  0  0  0  0  0  0  0  0
    8.2658  -14.2696   20.1606 C   0  0  0  0  0  0  0  0  0  0  0  0
    7.4954  -13.9598   21.0996 O   0  0  0  0  0  0  0  0  0  0  0  0
    8.8518  -15.5575   20.0781 N   0  0  0  0  0  0  0  0  0  0  0  0
    8.5153  -16.5890   21.1077 C   0  0  1  0  0  0  0  0  0  0  0  0
    8.9390  -17.8990   20.5269 C   0  0  0  0  0  0  0  0  0  0  0  0
    7.9173  -18.6604   19.7689 C   0  0  0  0  0  0  0  0  0  0  0  0
    8.5342  -19.9233   19.2152 C   0  0  0  0  0  0  0  0  0  0  0  0
    7.5660  -20.7065   18.3586 C   0  0  0  0  0  0  0  0  0  0  0  0
    6.3410  -20.9294   19.1012 N   0  0  0  0  0  0  0  0  0  0  0  0
    9.2549  -16.1962   22.3258 C   0  0  0  0  0  0  0  0  0  0  0  0
   10.4896  -15.8598   22.2476 O   0  0  0  0  0  0  0  0  0  0  0  0
   11.2269  -14.5273   30.6625 O   0  0  0  0  0  0  0  0  0  0  0  0
   10.5562  -14.6836   29.4512 C   0  0  0  0  0  0  0  0  0  0  0  0
   10.0573  -15.9205   29.1132 C   0  0  0  0  0  0  0  0  0  0  0  0
    9.3832  -16.1275   27.9214 C   0  0  0  0  0  0  0  0  0  0  0  0
    9.2072  -15.0769   27.0556 C   0  0  0  0  0  0  0  0  0  0  0  0
    8.5117  -15.2896   25.7866 C   0  0  0  0  0  0  0  0  0  0  0  0
    9.5034  -15.7611   24.7481 C   0  0  2  0  0  0  0  0  0  0  0  0
    8.6759  -16.1648   23.5878 N   0  0  0  0  0  0  0  0  0  0  0  0
   10.2953  -16.9236   25.2048 C   0  0  0  0  0  0  0  0  0  0  0  0
    9.7777  -18.0817   25.1309 O   0  0  0  0  0  0  0  0  0  0  0  0
    9.7060  -13.8448   27.3957 C   0  0  0  0  0  0  0  0  0  0  0  0
   10.3789  -13.6254   28.5787 C   0  0  0  0  0  0  0  0  0  0  0  0
   11.5761  -16.7780   25.7044 O   0  0  0  0  0  0  0  0  0  0  0  0
  2  1  1  6
  3  2  1  0
  4  5  2  0
  4  2  1  0
  6  4  1  0
  7  6  1  0
  7  8  1  6
  8  9  1  0
 10  9  1  0
 11 12  1  0
 11 10  1  0
 13  7  1  0
 14 13  2  0
 15 16  1  0
 16 26  2  0
 17 18  2  0
 17 16  1  0
 18 19  1  0
 19 20  1  0
 19 25  2  0
 21 20  1  1
 21 23  1  0
 21 22  1  0
 22 13  1  0
 23 27  1  0
 24 23  2  0
 26 25  1  0
M  END
$$$$
