AKY.pdb
     RDKit          3D

 27 27  0  0  1  0  0  0  0  0999 V2000
    7.4718  -12.3950   18.7096 C   0  0  0  0  0  0  0  0  0  0  0  0
    8.6117  -13.2622   19.1812 C   0  0  2  0  0  0  0  0  0  0  0  0
    9.2967  -13.9424   18.1234 N   0  0  0  0  0  0  0  0  0  0  0  0
    8.1743  -14.1951   20.2619 C   0  0  0  0  0  0  0  0  0  0  0  0
    7.5505  -13.7290   21.2441 O   0  0  0  0  0  0  0  0  0  0  0  0
    8.4687  -15.5778   20.1602 N   0  0  0  0  0  0  0  0  0  0  0  0
    7.9738  -16.5173   21.2137 C   0  0  1  0  0  0  0  0  0  0  0  0
    8.1732  -17.8915   20.6615 C   0  0  0  0  0  0  0  0  0  0  0  0
    7.9098  -19.0283   21.5761 C   0  0  0  0  0  0  0  0  0  0  0  0
    8.1479  -20.3302   20.8476 C   0  0  0  0  0  0  0  0  0  0  0  0
    7.9419  -21.5325   21.7400 C   0  0  0  0  0  0  0  0  0  0  0  0
    8.2625  -22.7381   21.0015 N   0  0  0  0  0  0  0  0  0  0  0  0
    8.7754  -16.2248   22.4208 C   0  0  0  0  0  0  0  0  0  0  0  0
   10.0529  -16.1492   22.3413 O   0  0  0  0  0  0  0  0  0  0  0  0
   11.1790  -14.5318   30.6302 O   0  0  0  0  0  0  0  0  0  0  0  0
   10.4396  -14.6779   29.4584 C   0  0  0  0  0  0  0  0  0  0  0  0
    9.8388  -15.8859   29.1881 C   0  0  0  0  0  0  0  0  0  0  0  0
    9.0934  -16.0816   28.0376 C   0  0  0  0  0  0  0  0  0  0  0  0
    8.9487  -15.0491   27.1447 C   0  0  0  0  0  0  0  0  0  0  0  0
    8.1778  -15.2514   25.9183 C   0  0  0  0  0  0  0  0  0  0  0  0
    9.1021  -15.7289   24.8220 C   0  0  2  0  0  0  0  0  0  0  0  0
    8.2125  -16.0171   23.6733 N   0  0  0  0  0  0  0  0  0  0  0  0
    9.8311  -16.9619   25.1900 C   0  0  0  0  0  0  0  0  0  0  0  0
   11.0571  -16.8731   25.5115 O   0  0  0  0  0  0  0  0  0  0  0  0
    9.5492  -13.8458   27.4172 C   0  0  0  0  0  0  0  0  0  0  0  0
   10.2939  -13.6379   28.5586 C   0  0  0  0  0  0  0  0  0  0  0  0
    9.2115  -18.1977   25.1929 O   0  0  0  0  0  0  0  0  0  0  0  0
  2  1  1  6
  3  2  1  0
  4  5  2  0
  4  2  1  0
  6  4  1  0
  7  6  1  0
  7  8  1  6
  8  9  1  0
 10  9  1  0
 11 12  1  0
 11 10  1  0
 13  7  1  0
 14 13  2  0
 15 16  1  0
 16 26  2  0
 17 18  2  0
 17 16  1  0
 18 19  1  0
 19 20  1  0
 19 25  2  0
 21 20  1  1
 21 23  1  0
 21 22  1  0
 22 13  1  0
 23 27  1  0
 24 23  2  0
 26 25  1  0
M  END
$$$$
