AKY.pdb
     RDKit          3D

 27 27  0  0  1  0  0  0  0  0999 V2000
    8.4092  -12.5214   18.5024 C   0  0  0  0  0  0  0  0  0  0  0  0
    8.5579  -13.8941   17.8963 C   0  0  2  0  0  0  0  0  0  0  0  0
    7.6563  -14.1487   16.8131 N   0  0  0  0  0  0  0  0  0  0  0  0
    8.4998  -14.9593   18.9411 C   0  0  0  0  0  0  0  0  0  0  0  0
    7.3820  -15.2926   19.4000 O   0  0  0  0  0  0  0  0  0  0  0  0
    9.6970  -15.5694   19.3920 N   0  0  0  0  0  0  0  0  0  0  0  0
    9.6339  -16.6304   20.4445 C   0  0  1  0  0  0  0  0  0  0  0  0
   10.8678  -17.4546   20.2679 C   0  0  0  0  0  0  0  0  0  0  0  0
   11.0607  -18.5858   21.2066 C   0  0  0  0  0  0  0  0  0  0  0  0
   12.3159  -19.3413   20.8382 C   0  0  0  0  0  0  0  0  0  0  0  0
   12.5767  -20.5064   21.7650 C   0  0  0  0  0  0  0  0  0  0  0  0
   13.7938  -21.1802   21.3572 N   0  0  0  0  0  0  0  0  0  0  0  0
    9.5619  -15.9120   21.7344 C   0  0  0  0  0  0  0  0  0  0  0  0
   10.4069  -14.9857   22.0023 O   0  0  0  0  0  0  0  0  0  0  0  0
    6.3668  -11.4798   28.4073 O   0  0  0  0  0  0  0  0  0  0  0  0
    6.5486  -12.2976   27.2941 C   0  0  0  0  0  0  0  0  0  0  0  0
    7.3238  -11.8494   26.2494 C   0  0  0  0  0  0  0  0  0  0  0  0
    7.5352  -12.6241   25.1212 C   0  0  0  0  0  0  0  0  0  0  0  0
    6.9599  -13.8678   25.0403 C   0  0  0  0  0  0  0  0  0  0  0  0
    7.1632  -14.6863   23.8454 C   0  0  0  0  0  0  0  0  0  0  0  0
    8.5323  -15.3236   23.9052 C   0  0  2  0  0  0  0  0  0  0  0  0
    8.6039  -16.1848   22.7022 N   0  0  0  0  0  0  0  0  0  0  0  0
    8.7177  -16.1605   25.1104 C   0  0  0  0  0  0  0  0  0  0  0  0
    8.2890  -17.3565   25.0948 O   0  0  0  0  0  0  0  0  0  0  0  0
    6.1875  -14.3117   26.0839 C   0  0  0  0  0  0  0  0  0  0  0  0
    5.9689  -13.5505   27.2123 C   0  0  0  0  0  0  0  0  0  0  0  0
    9.3436  -15.6734   26.2428 O   0  0  0  0  0  0  0  0  0  0  0  0
  2  1  1  1
  3  2  1  0
  4  5  2  0
  4  2  1  0
  6  4  1  0
  7  6  1  0
  7  8  1  1
  8  9  1  0
 10  9  1  0
 11 12  1  0
 11 10  1  0
 13  7  1  0
 14 13  2  0
 15 16  1  0
 16 26  2  0
 17 18  2  0
 17 16  1  0
 18 19  1  0
 19 20  1  0
 19 25  2  0
 21 20  1  1
 21 23  1  0
 21 22  1  0
 22 13  1  0
 23 27  1  0
 24 23  2  0
 26 25  1  0
M  END
$$$$
