AKY.pdb
     RDKit          3D

 27 27  0  0  1  0  0  0  0  0999 V2000
    7.2691  -12.3549   18.8569 C   0  0  0  0  0  0  0  0  0  0  0  0
    8.5094  -13.1218   19.2406 C   0  0  2  0  0  0  0  0  0  0  0  0
    9.2707  -13.5879   18.1207 N   0  0  0  0  0  0  0  0  0  0  0  0
    8.1948  -14.2178   20.2045 C   0  0  0  0  0  0  0  0  0  0  0  0
    7.4997  -13.9519   21.2132 O   0  0  0  0  0  0  0  0  0  0  0  0
    8.6823  -15.5271   19.9657 N   0  0  0  0  0  0  0  0  0  0  0  0
    8.4048  -16.6108   20.9587 C   0  0  1  0  0  0  0  0  0  0  0  0
    8.8567  -17.8808   20.3139 C   0  0  0  0  0  0  0  0  0  0  0  0
    7.9721  -19.0614   20.4611 C   0  0  0  0  0  0  0  0  0  0  0  0
    8.5138  -20.2062   19.6376 C   0  0  0  0  0  0  0  0  0  0  0  0
    7.7398  -21.4859   19.8557 C   0  0  0  0  0  0  0  0  0  0  0  0
    8.3843  -22.5650   19.1332 N   0  0  0  0  0  0  0  0  0  0  0  0
    9.1606  -16.2437   22.1748 C   0  0  0  0  0  0  0  0  0  0  0  0
   10.3568  -15.7925   22.0765 O   0  0  0  0  0  0  0  0  0  0  0  0
   11.1797  -14.5122   30.5093 O   0  0  0  0  0  0  0  0  0  0  0  0
   10.5196  -14.7772   29.3111 C   0  0  0  0  0  0  0  0  0  0  0  0
   10.2219  -13.7359   28.4625 C   0  0  0  0  0  0  0  0  0  0  0  0
    9.5675  -13.9470   27.2605 C   0  0  0  0  0  0  0  0  0  0  0  0
    9.2065  -15.2227   26.9047 C   0  0  0  0  0  0  0  0  0  0  0  0
    8.4997  -15.4535   25.6452 C   0  0  0  0  0  0  0  0  0  0  0  0
    9.4768  -15.9659   24.6123 C   0  0  2  0  0  0  0  0  0  0  0  0
    8.6376  -16.3577   23.4563 N   0  0  0  0  0  0  0  0  0  0  0  0
   10.2338  -17.1463   25.0821 C   0  0  0  0  0  0  0  0  0  0  0  0
    9.6915  -18.2923   24.9979 O   0  0  0  0  0  0  0  0  0  0  0  0
    9.5050  -16.2588   27.7533 C   0  0  0  0  0  0  0  0  0  0  0  0
   10.1557  -16.0624   28.9527 C   0  0  0  0  0  0  0  0  0  0  0  0
   11.5083  -17.0300   25.6048 O   0  0  0  0  0  0  0  0  0  0  0  0
  2  1  1  6
  3  2  1  0
  4  5  2  0
  4  2  1  0
  6  4  1  0
  7  6  1  0
  7  8  1  6
  8  9  1  0
 10  9  1  0
 11 12  1  0
 11 10  1  0
 13  7  1  0
 14 13  2  0
 15 16  1  0
 16 26  2  0
 17 18  2  0
 17 16  1  0
 18 19  1  0
 19 20  1  0
 19 25  2  0
 21 20  1  1
 21 23  1  0
 21 22  1  0
 22 13  1  0
 23 27  1  0
 24 23  2  0
 26 25  1  0
M  END
$$$$
