AKY.pdb
     RDKit          3D

 27 27  0  0  1  0  0  0  0  0999 V2000
    6.3418  -20.2601   21.0593 C   0  0  0  0  0  0  0  0  0  0  0  0
    6.6479  -19.4743   22.3093 C   0  0  2  0  0  0  0  0  0  0  0  0
    5.4867  -19.1231   23.0704 N   0  0  0  0  0  0  0  0  0  0  0  0
    7.5063  -18.2897   22.0106 C   0  0  0  0  0  0  0  0  0  0  0  0
    8.5850  -18.4667   21.3971 O   0  0  0  0  0  0  0  0  0  0  0  0
    7.0916  -16.9981   22.4213 N   0  0  0  0  0  0  0  0  0  0  0  0
    7.9720  -15.8194   22.1510 C   0  0  1  0  0  0  0  0  0  0  0  0
    7.0830  -14.7723   21.5626 C   0  0  0  0  0  0  0  0  0  0  0  0
    7.7414  -13.5641   21.0105 C   0  0  0  0  0  0  0  0  0  0  0  0
    7.8277  -13.6768   19.5065 C   0  0  0  0  0  0  0  0  0  0  0  0
    8.5215  -12.4884   18.8814 C   0  0  0  0  0  0  0  0  0  0  0  0
    8.3669  -12.5460   17.4411 N   0  0  0  0  0  0  0  0  0  0  0  0
    8.5629  -15.4526   23.4554 C   0  0  0  0  0  0  0  0  0  0  0  0
    8.2313  -14.3527   24.0247 O   0  0  0  0  0  0  0  0  0  0  0  0
    5.7662  -11.2906   26.6198 O   0  0  0  0  0  0  0  0  0  0  0  0
    6.4687  -12.4918   26.5492 C   0  0  0  0  0  0  0  0  0  0  0  0
    7.7910  -12.5211   26.9283 C   0  0  0  0  0  0  0  0  0  0  0  0
    8.5325  -13.6896   26.8768 C   0  0  0  0  0  0  0  0  0  0  0  0
    7.9377  -14.8463   26.4381 C   0  0  0  0  0  0  0  0  0  0  0  0
    8.7173  -16.0815   26.3637 C   0  0  0  0  0  0  0  0  0  0  0  0
    9.9235  -15.8568   25.4812 C   0  0  2  0  0  0  0  0  0  0  0  0
    9.4807  -16.2521   24.1241 N   0  0  0  0  0  0  0  0  0  0  0  0
   11.0792  -16.6915   25.8747 C   0  0  0  0  0  0  0  0  0  0  0  0
   11.8255  -16.2926   26.8226 O   0  0  0  0  0  0  0  0  0  0  0  0
    6.6189  -14.8135   26.0608 C   0  0  0  0  0  0  0  0  0  0  0  0
    5.8697  -13.6572   26.1071 C   0  0  0  0  0  0  0  0  0  0  0  0
   11.3609  -17.8866   25.2395 O   0  0  0  0  0  0  0  0  0  0  0  0
  2  1  1  6
  3  2  1  0
  4  5  2  0
  4  2  1  0
  6  4  1  0
  7  6  1  0
  7  8  1  1
  8  9  1  0
 10  9  1  0
 11 12  1  0
 11 10  1  0
 13  7  1  0
 14 13  2  0
 15 16  1  0
 16 26  2  0
 17 18  2  0
 17 16  1  0
 18 19  1  0
 19 20  1  0
 19 25  2  0
 21 20  1  1
 21 23  1  0
 21 22  1  0
 22 13  1  0
 23 27  1  0
 24 23  2  0
 26 25  1  0
M  END
$$$$
