AKY.pdb
     RDKit          3D

 27 27  0  0  1  0  0  0  0  0999 V2000
    7.2507  -12.6698   18.6698 C   0  0  0  0  0  0  0  0  0  0  0  0
    8.5493  -13.2005   19.2227 C   0  0  2  0  0  0  0  0  0  0  0  0
    9.4677  -13.6437   18.2172 N   0  0  0  0  0  0  0  0  0  0  0  0
    8.3110  -14.2407   20.2672 C   0  0  0  0  0  0  0  0  0  0  0  0
    7.5611  -13.9641   21.2328 O   0  0  0  0  0  0  0  0  0  0  0  0
    8.9303  -15.5102   20.1508 N   0  0  0  0  0  0  0  0  0  0  0  0
    8.6090  -16.5821   21.1434 C   0  0  1  0  0  0  0  0  0  0  0  0
    9.0482  -17.8650   20.5155 C   0  0  0  0  0  0  0  0  0  0  0  0
    8.9875  -19.0822   21.3598 C   0  0  0  0  0  0  0  0  0  0  0  0
    9.3564  -20.2913   20.5326 C   0  0  0  0  0  0  0  0  0  0  0  0
    9.3820  -21.5607   21.3526 C   0  0  0  0  0  0  0  0  0  0  0  0
    8.5238  -22.5502   20.7312 N   0  0  0  0  0  0  0  0  0  0  0  0
    9.3460  -16.2236   22.3736 C   0  0  0  0  0  0  0  0  0  0  0  0
   10.5800  -15.8820   22.3072 O   0  0  0  0  0  0  0  0  0  0  0  0
   11.2932  -14.4317   30.6856 O   0  0  0  0  0  0  0  0  0  0  0  0
   10.6219  -14.6346   29.4816 C   0  0  0  0  0  0  0  0  0  0  0  0
   10.1520  -15.8913   29.1769 C   0  0  0  0  0  0  0  0  0  0  0  0
    9.4786  -16.1444   27.9936 C   0  0  0  0  0  0  0  0  0  0  0  0
    9.2737  -15.1204   27.1025 C   0  0  0  0  0  0  0  0  0  0  0  0
    8.5789  -15.3817   25.8424 C   0  0  0  0  0  0  0  0  0  0  0  0
    9.5816  -15.8302   24.8044 C   0  0  2  0  0  0  0  0  0  0  0  0
    8.7653  -16.2311   23.6352 N   0  0  0  0  0  0  0  0  0  0  0  0
   10.3848  -16.9882   25.2529 C   0  0  0  0  0  0  0  0  0  0  0  0
    9.8614  -18.1454   25.2150 O   0  0  0  0  0  0  0  0  0  0  0  0
    9.7438  -13.8685   27.4096 C   0  0  0  0  0  0  0  0  0  0  0  0
   10.4157  -13.6032   28.5838 C   0  0  0  0  0  0  0  0  0  0  0  0
   11.6820  -16.8393   25.7069 O   0  0  0  0  0  0  0  0  0  0  0  0
  2  1  1  6
  3  2  1  0
  4  5  2  0
  4  2  1  0
  6  4  1  0
  7  6  1  0
  7  8  1  6
  8  9  1  0
 10  9  1  0
 11 12  1  0
 11 10  1  0
 13  7  1  0
 14 13  2  0
 15 16  1  0
 16 26  2  0
 17 18  2  0
 17 16  1  0
 18 19  1  0
 19 20  1  0
 19 25  2  0
 21 20  1  1
 21 23  1  0
 21 22  1  0
 22 13  1  0
 23 27  1  0
 24 23  2  0
 26 25  1  0
M  END
$$$$
