AKY.pdb
     RDKit          3D

 27 27  0  0  1  0  0  0  0  0999 V2000
    9.8729  -13.2474   19.0602 C   0  0  0  0  0  0  0  0  0  0  0  0
    8.5794  -13.8842   18.6184 C   0  0  2  0  0  0  0  0  0  0  0  0
    7.8328  -13.0915   17.6882 N   0  0  0  0  0  0  0  0  0  0  0  0
    7.7542  -14.3079   19.7885 C   0  0  0  0  0  0  0  0  0  0  0  0
    7.1278  -13.4334   20.4321 O   0  0  0  0  0  0  0  0  0  0  0  0
    7.6935  -15.6774   20.1484 N   0  0  0  0  0  0  0  0  0  0  0  0
    6.8626  -16.0968   21.3193 C   0  0  1  0  0  0  0  0  0  0  0  0
    6.3620  -17.4669   20.9949 C   0  0  0  0  0  0  0  0  0  0  0  0
    5.7238  -18.2278   22.0957 C   0  0  0  0  0  0  0  0  0  0  0  0
    5.2243  -19.5537   21.5719 C   0  0  0  0  0  0  0  0  0  0  0  0
    4.5921  -20.3968   22.6555 C   0  0  0  0  0  0  0  0  0  0  0  0
    4.1454  -21.6529   22.0861 N   0  0  0  0  0  0  0  0  0  0  0  0
    7.7624  -16.0398   22.4907 C   0  0  0  0  0  0  0  0  0  0  0  0
    8.9463  -16.5264   22.4162 O   0  0  0  0  0  0  0  0  0  0  0  0
   10.9425  -14.7317   30.5075 O   0  0  0  0  0  0  0  0  0  0  0  0
   10.1533  -14.6522   29.3620 C   0  0  0  0  0  0  0  0  0  0  0  0
   10.5213  -15.3603   28.2411 C   0  0  0  0  0  0  0  0  0  0  0  0
    9.7709  -15.3148   27.0782 C   0  0  0  0  0  0  0  0  0  0  0  0
    8.6337  -14.5469   27.0396 C   0  0  0  0  0  0  0  0  0  0  0  0
    7.8440  -14.4788   25.8105 C   0  0  0  0  0  0  0  0  0  0  0  0
    8.3437  -15.5230   24.8389 C   0  0  2  0  0  0  0  0  0  0  0  0
    7.3943  -15.4711   23.7031 N   0  0  0  0  0  0  0  0  0  0  0  0
    8.3349  -16.8854   25.4142 C   0  0  0  0  0  0  0  0  0  0  0  0
    9.4416  -17.4165   25.7423 O   0  0  0  0  0  0  0  0  0  0  0  0
    8.2697  -13.8421   28.1592 C   0  0  0  0  0  0  0  0  0  0  0  0
    9.0077  -13.8785   29.3229 C   0  0  0  0  0  0  0  0  0  0  0  0
    7.1581  -17.5860   25.6024 O   0  0  0  0  0  0  0  0  0  0  0  0
  2  1  1  1
  3  2  1  0
  4  5  2  0
  4  2  1  0
  6  4  1  0
  7  6  1  0
  7  8  1  6
  8  9  1  0
 10  9  1  0
 11 12  1  0
 11 10  1  0
 13  7  1  0
 14 13  2  0
 15 16  1  0
 16 26  2  0
 17 18  2  0
 17 16  1  0
 18 19  1  0
 19 20  1  0
 19 25  2  0
 21 20  1  1
 21 23  1  0
 21 22  1  0
 22 13  1  0
 23 27  1  0
 24 23  2  0
 26 25  1  0
M  END
$$$$
