GWL.pdb
     RDKit          3D

 27 28  0  0  1  0  0  0  0  0999 V2000
    8.3298  -16.7941   20.3849 N   0  0  0  0  0  0  0  0  0  0  0  0
    8.1089  -17.4415   21.6514 C   0  0  0  0  0  0  0  0  0  0  0  0
    8.8668  -16.7030   22.7135 C   0  0  0  0  0  0  0  0  0  0  0  0
    9.6219  -15.7443   22.4029 O   0  0  0  0  0  0  0  0  0  0  0  0
    8.6885  -17.1360   24.0537 N   0  0  0  0  0  0  0  0  0  0  0  0
    9.4525  -16.5092   25.1119 C   0  0  1  0  0  0  0  0  0  0  0  0
    8.5712  -16.3209   26.3324 C   0  0  0  0  0  0  0  0  0  0  0  0
    7.4378  -15.4236   26.1015 C   0  0  0  0  0  0  0  0  0  0  0  0
    6.1619  -15.7754   25.7320 C   0  0  0  0  0  0  0  0  0  0  0  0
    5.4243  -14.6494   25.6227 N   0  0  0  0  0  0  0  0  0  0  0  0
    6.2040  -13.5740   25.9160 C   0  0  0  0  0  0  0  0  0  0  0  0
    5.9116  -12.2266   25.9443 C   0  0  0  0  0  0  0  0  0  0  0  0
    6.8844  -11.3179   26.2772 C   0  0  0  0  0  0  0  0  0  0  0  0
    8.1443  -11.7726   26.5792 C   0  0  0  0  0  0  0  0  0  0  0  0
    8.4250  -13.1100   26.5486 C   0  0  0  0  0  0  0  0  0  0  0  0
    7.4674  -14.0510   26.2171 C   0  0  0  0  0  0  0  0  0  0  0  0
   10.5241  -17.4594   25.5305 C   0  0  0  0  0  0  0  0  0  0  0  0
   10.3161  -18.6875   25.4736 O   0  0  0  0  0  0  0  0  0  0  0  0
   14.2013  -18.2681   23.7223 C   0  0  0  0  0  0  0  0  0  0  0  0
   14.4328  -17.1194   24.7015 C   0  0  2  0  0  0  0  0  0  0  0  0
   15.6750  -16.4111   24.3603 C   0  0  0  0  0  0  0  0  0  0  0  0
   14.1387  -17.4694   26.0947 C   0  0  0  0  0  0  0  0  0  0  0  0
   12.8074  -18.0027   26.4664 C   0  0  2  0  0  0  0  0  0  0  0  0
   11.7816  -17.0457   25.9958 N   0  0  0  0  0  0  0  0  0  0  0  0
   12.5473  -18.2058   27.9013 C   0  0  0  0  0  0  0  0  0  0  0  0
   13.2361  -19.1006   28.5125 O   0  0  0  0  0  0  0  0  0  0  0  0
   11.6137  -17.5024   28.6555 O   0  0  0  0  0  0  0  0  0  0  0  0
  1  2  1  0
  2  3  1  0
  3  4  2  0
  5  6  1  0
  5  3  1  0
  6 17  1  0
  7  8  1  0
  6  7  1  1
  8 16  1  0
  9 10  1  0
  9  8  2  0
 10 11  1  0
 11 16  2  0
 11 12  1  0
 12 13  2  0
 13 14  1  0
 15 14  2  0
 16 15  1  0
 17 24  1  0
 17 18  2  0
 20 19  1  6
 20 21  1  0
 22 20  1  0
 23 22  1  1
 23 25  1  0
 24 23  1  0
 25 26  2  0
 25 27  1  0
M  END
$$$$
