GWL.pdb
     RDKit          3D

 27 28  0  0  1  0  0  0  0  0999 V2000
    6.3791  -14.8138   19.3698 N   0  0  0  0  0  0  0  0  0  0  0  0
    6.3143  -15.5217   20.6214 C   0  0  0  0  0  0  0  0  0  0  0  0
    7.5847  -15.2830   21.3810 C   0  0  0  0  0  0  0  0  0  0  0  0
    8.5100  -14.5989   20.8697 O   0  0  0  0  0  0  0  0  0  0  0  0
    7.6810  -15.8580   22.6755 N   0  0  0  0  0  0  0  0  0  0  0  0
    8.8753  -15.6394   23.4644 C   0  0  1  0  0  0  0  0  0  0  0  0
    8.5765  -15.9142   24.9262 C   0  0  0  0  0  0  0  0  0  0  0  0
    7.5147  -15.0683   25.4742 C   0  0  0  0  0  0  0  0  0  0  0  0
    6.2008  -15.4138   25.6802 C   0  0  0  0  0  0  0  0  0  0  0  0
    5.5558  -14.3463   26.1981 N   0  0  0  0  0  0  0  0  0  0  0  0
    6.4330  -13.3150   26.3304 C   0  0  0  0  0  0  0  0  0  0  0  0
    6.2554  -12.0331   26.8069 C   0  0  0  0  0  0  0  0  0  0  0  0
    7.3128  -11.1594   26.8429 C   0  0  0  0  0  0  0  0  0  0  0  0
    8.5412  -11.5828   26.3989 C   0  0  0  0  0  0  0  0  0  0  0  0
    8.7078  -12.8553   25.9284 C   0  0  0  0  0  0  0  0  0  0  0  0
    7.6628  -13.7597   25.8789 C   0  0  0  0  0  0  0  0  0  0  0  0
    9.8865  -16.6595   23.0604 C   0  0  0  0  0  0  0  0  0  0  0  0
    9.5547  -17.5886   22.2978 O   0  0  0  0  0  0  0  0  0  0  0  0
   14.4237  -15.9691   20.6777 C   0  0  0  0  0  0  0  0  0  0  0  0
   13.0532  -15.3338   20.4542 C   0  0  2  0  0  0  0  0  0  0  0  0
   13.2087  -14.0052   19.8446 C   0  0  0  0  0  0  0  0  0  0  0  0
   12.1268  -15.5311   21.5737 C   0  0  0  0  0  0  0  0  0  0  0  0
   12.3621  -16.6143   22.5565 C   0  0  2  0  0  0  0  0  0  0  0  0
   11.2199  -16.6372   23.4970 N   0  0  0  0  0  0  0  0  0  0  0  0
   13.5726  -16.5087   23.3882 C   0  0  0  0  0  0  0  0  0  0  0  0
   13.5423  -15.7031   24.3876 O   0  0  0  0  0  0  0  0  0  0  0  0
   14.7526  -17.2160   23.1820 O   0  0  0  0  0  0  0  0  0  0  0  0
  1  2  1  0
  2  3  1  0
  3  4  2  0
  5  6  1  0
  5  3  1  0
  6 17  1  0
  7  8  1  0
  6  7  1  1
  8 16  1  0
  9 10  1  0
  9  8  2  0
 10 11  1  0
 11 16  2  0
 11 12  1  0
 12 13  2  0
 13 14  1  0
 15 14  2  0
 16 15  1  0
 17 24  1  0
 17 18  2  0
 20 19  1  1
 20 21  1  0
 22 20  1  0
 23 22  1  6
 23 25  1  0
 24 23  1  0
 25 26  2  0
 25 27  1  0
M  END
$$$$
