GWL.pdb
     RDKit          3D

 27 28  0  0  1  0  0  0  0  0999 V2000
    5.2770  -21.8206   23.7444 N   0  0  0  0  0  0  0  0  0  0  0  0
    6.4733  -21.1152   24.1225 C   0  0  0  0  0  0  0  0  0  0  0  0
    6.2599  -19.6467   23.9083 C   0  0  0  0  0  0  0  0  0  0  0  0
    5.2019  -19.2325   23.3656 O   0  0  0  0  0  0  0  0  0  0  0  0
    7.2926  -18.7740   24.3412 N   0  0  0  0  0  0  0  0  0  0  0  0
    7.1050  -17.3421   24.2364 C   0  0  1  0  0  0  0  0  0  0  0  0
    7.6968  -16.6611   25.4562 C   0  0  0  0  0  0  0  0  0  0  0  0
    7.0024  -15.4281   25.8310 C   0  0  0  0  0  0  0  0  0  0  0  0
    5.6742  -15.2883   26.1542 C   0  0  0  0  0  0  0  0  0  0  0  0
    5.4387  -13.9885   26.4352 N   0  0  0  0  0  0  0  0  0  0  0  0
    6.5950  -13.2850   26.2988 C   0  0  0  0  0  0  0  0  0  0  0  0
    6.8628  -11.9437   26.4749 C   0  0  0  0  0  0  0  0  0  0  0  0
    8.1323  -11.4632   26.2747 C   0  0  0  0  0  0  0  0  0  0  0  0
    9.1229  -12.3367   25.8989 C   0  0  0  0  0  0  0  0  0  0  0  0
    8.8481  -13.6645   25.7267 C   0  0  0  0  0  0  0  0  0  0  0  0
    7.5796  -14.1802   25.9203 C   0  0  0  0  0  0  0  0  0  0  0  0
    7.9060  -16.8570   23.0748 C   0  0  0  0  0  0  0  0  0  0  0  0
    8.9930  -17.4043   22.8036 O   0  0  0  0  0  0  0  0  0  0  0  0
    7.7757  -11.9042   19.3168 C   0  0  0  0  0  0  0  0  0  0  0  0
    8.4189  -13.2615   19.5923 C   0  0  2  0  0  0  0  0  0  0  0  0
    8.7145  -13.9441   18.3243 C   0  0  0  0  0  0  0  0  0  0  0  0
    7.7923  -13.9927   20.6982 C   0  0  0  0  0  0  0  0  0  0  0  0
    8.3306  -15.3046   21.1269 C   0  0  2  0  0  0  0  0  0  0  0  0
    7.5016  -15.7967   22.2494 N   0  0  0  0  0  0  0  0  0  0  0  0
    9.7224  -15.3296   21.6069 C   0  0  0  0  0  0  0  0  0  0  0  0
   10.6243  -15.7625   20.8021 O   0  0  0  0  0  0  0  0  0  0  0  0
   10.1447  -14.9176   22.8668 O   0  0  0  0  0  0  0  0  0  0  0  0
  1  2  1  0
  2  3  1  0
  3  4  2  0
  5  6  1  0
  5  3  1  0
  6 17  1  0
  7  8  1  0
  6  7  1  1
  8 16  1  0
  9 10  1  0
  9  8  2  0
 10 11  1  0
 11 16  2  0
 11 12  1  0
 12 13  2  0
 13 14  1  0
 15 14  2  0
 16 15  1  0
 17 24  1  0
 17 18  2  0
 20 19  1  6
 20 21  1  0
 22 20  1  0
 23 22  1  1
 23 25  1  0
 24 23  1  0
 25 26  2  0
 25 27  1  0
M  END
$$$$
