GWL.pdb
     RDKit          3D

 27 28  0  0  1  0  0  0  0  0999 V2000
    6.4415  -16.4476   19.4120 N   0  0  0  0  0  0  0  0  0  0  0  0
    6.6941  -16.9775   20.7262 C   0  0  0  0  0  0  0  0  0  0  0  0
    7.6463  -16.0675   21.4424 C   0  0  0  0  0  0  0  0  0  0  0  0
    8.1215  -15.0593   20.8565 O   0  0  0  0  0  0  0  0  0  0  0  0
    7.9724  -16.4000   22.7836 N   0  0  0  0  0  0  0  0  0  0  0  0
    9.0376  -15.6854   23.4553 C   0  0  1  0  0  0  0  0  0  0  0  0
    8.8646  -15.8092   24.9575 C   0  0  0  0  0  0  0  0  0  0  0  0
    7.7337  -15.0407   25.4803 C   0  0  0  0  0  0  0  0  0  0  0  0
    6.4668  -15.5026   25.7443 C   0  0  0  0  0  0  0  0  0  0  0  0
    5.7270  -14.4739   26.2116 N   0  0  0  0  0  0  0  0  0  0  0  0
    6.4965  -13.3530   26.2540 C   0  0  0  0  0  0  0  0  0  0  0  0
    6.1987  -12.0671   26.6534 C   0  0  0  0  0  0  0  0  0  0  0  0
    7.1616  -11.0907   26.6046 C   0  0  0  0  0  0  0  0  0  0  0  0
    8.4171  -11.4162   26.1542 C   0  0  0  0  0  0  0  0  0  0  0  0
    8.7032  -12.6935   25.7604 C   0  0  0  0  0  0  0  0  0  0  0  0
    7.7555  -13.7000   25.7973 C   0  0  0  0  0  0  0  0  0  0  0  0
   10.3236  -16.3729   23.1390 C   0  0  0  0  0  0  0  0  0  0  0  0
   10.3426  -17.6119   22.9999 O   0  0  0  0  0  0  0  0  0  0  0  0
   12.5587  -15.5884   19.4039 C   0  0  0  0  0  0  0  0  0  0  0  0
   12.9094  -14.6780   20.5786 C   0  0  2  0  0  0  0  0  0  0  0  0
   13.4755  -13.4148   20.0836 C   0  0  0  0  0  0  0  0  0  0  0  0
   13.5404  -15.3838   21.6984 C   0  0  0  0  0  0  0  0  0  0  0  0
   12.7668  -16.3647   22.4948 C   0  0  2  0  0  0  0  0  0  0  0  0
   11.5422  -15.6943   22.9852 N   0  0  0  0  0  0  0  0  0  0  0  0
   13.4276  -16.9270   23.6844 C   0  0  0  0  0  0  0  0  0  0  0  0
   14.4930  -17.6205   23.5042 O   0  0  0  0  0  0  0  0  0  0  0  0
   12.9927  -16.7659   24.9959 O   0  0  0  0  0  0  0  0  0  0  0  0
  1  2  1  0
  2  3  1  0
  3  4  2  0
  5  6  1  0
  5  3  1  0
  6 17  1  0
  7  8  1  0
  6  7  1  1
  8 16  1  0
  9 10  1  0
  9  8  2  0
 10 11  1  0
 11 16  2  0
 11 12  1  0
 12 13  2  0
 13 14  1  0
 15 14  2  0
 16 15  1  0
 17 24  1  0
 17 18  2  0
 20 19  1  6
 20 21  1  0
 22 20  1  0
 23 22  1  1
 23 25  1  0
 24 23  1  0
 25 26  2  0
 25 27  1  0
M  END
$$$$
