GWL.pdb
     RDKit          3D

 27 28  0  0  1  0  0  0  0  0999 V2000
   10.7911  -16.5124   18.9118 N   0  0  0  0  0  0  0  0  0  0  0  0
   10.0252  -17.2790   19.8592 C   0  0  0  0  0  0  0  0  0  0  0  0
    9.9035  -16.4966   21.1323 C   0  0  0  0  0  0  0  0  0  0  0  0
   10.5618  -15.4347   21.2892 O   0  0  0  0  0  0  0  0  0  0  0  0
    9.0264  -17.0091   22.1241 N   0  0  0  0  0  0  0  0  0  0  0  0
    8.7989  -16.2484   23.3350 C   0  0  1  0  0  0  0  0  0  0  0  0
    7.5598  -16.7701   24.0380 C   0  0  0  0  0  0  0  0  0  0  0  0
    6.8714  -15.7554   24.8378 C   0  0  0  0  0  0  0  0  0  0  0  0
    5.8952  -15.9638   25.7821 C   0  0  0  0  0  0  0  0  0  0  0  0
    5.5251  -14.7658   26.2838 N   0  0  0  0  0  0  0  0  0  0  0  0
    6.2476  -13.7851   25.6781 C   0  0  0  0  0  0  0  0  0  0  0  0
    6.2334  -12.4165   25.8475 C   0  0  0  0  0  0  0  0  0  0  0  0
    7.0721  -11.6225   25.1068 C   0  0  0  0  0  0  0  0  0  0  0  0
    7.9190  -12.2121   24.2010 C   0  0  0  0  0  0  0  0  0  0  0  0
    7.9262  -13.5694   24.0399 C   0  0  0  0  0  0  0  0  0  0  0  0
    7.0936  -14.3973   24.7706 C   0  0  0  0  0  0  0  0  0  0  0  0
    9.9339  -16.5154   24.2660 C   0  0  0  0  0  0  0  0  0  0  0  0
   10.7409  -17.4304   24.0083 O   0  0  0  0  0  0  0  0  0  0  0  0
   10.2925  -13.2598   28.8560 C   0  0  0  0  0  0  0  0  0  0  0  0
   10.0954  -14.4632   27.9369 C   0  0  2  0  0  0  0  0  0  0  0  0
    9.1232  -15.3935   28.5289 C   0  0  0  0  0  0  0  0  0  0  0  0
   11.3440  -14.9673   27.3565 C   0  0  0  0  0  0  0  0  0  0  0  0
   11.3132  -16.0325   26.3272 C   0  0  2  0  0  0  0  0  0  0  0  0
   10.1538  -15.7828   25.4425 N   0  0  0  0  0  0  0  0  0  0  0  0
   11.1700  -17.4177   26.8054 C   0  0  0  0  0  0  0  0  0  0  0  0
   12.2241  -18.0149   27.2306 O   0  0  0  0  0  0  0  0  0  0  0  0
    9.9796  -18.1368   26.8379 O   0  0  0  0  0  0  0  0  0  0  0  0
  1  2  1  0
  2  3  1  0
  3  4  2  0
  5  6  1  0
  5  3  1  0
  6 17  1  0
  7  8  1  0
  6  7  1  1
  8 16  1  0
  9 10  1  0
  9  8  2  0
 10 11  1  0
 11 16  2  0
 11 12  1  0
 12 13  2  0
 13 14  1  0
 15 14  2  0
 16 15  1  0
 17 24  1  0
 17 18  2  0
 20 19  1  1
 20 21  1  0
 22 20  1  0
 23 22  1  1
 23 25  1  0
 24 23  1  0
 25 26  2  0
 25 27  1  0
M  END
$$$$
