GWL.pdb
     RDKit          3D

 27 28  0  0  1  0  0  0  0  0999 V2000
    6.9175  -16.5935   19.5868 N   0  0  0  0  0  0  0  0  0  0  0  0
    6.9469  -17.0607   20.9480 C   0  0  0  0  0  0  0  0  0  0  0  0
    7.9860  -16.2888   21.7044 C   0  0  0  0  0  0  0  0  0  0  0  0
    8.6779  -15.4149   21.1186 O   0  0  0  0  0  0  0  0  0  0  0  0
    8.1404  -16.5926   23.0826 N   0  0  0  0  0  0  0  0  0  0  0  0
    9.1621  -15.9131   23.8512 C   0  0  1  0  0  0  0  0  0  0  0  0
    8.8224  -15.9891   25.3280 C   0  0  0  0  0  0  0  0  0  0  0  0
    7.6468  -15.1992   25.6981 C   0  0  0  0  0  0  0  0  0  0  0  0
    6.3636  -15.6554   25.8808 C   0  0  0  0  0  0  0  0  0  0  0  0
    5.5814  -14.6056   26.2126 N   0  0  0  0  0  0  0  0  0  0  0  0
    6.3396  -13.4767   26.2474 C   0  0  0  0  0  0  0  0  0  0  0  0
    6.0026  -12.1703   26.5331 C   0  0  0  0  0  0  0  0  0  0  0  0
    6.9619  -11.1897   26.5036 C   0  0  0  0  0  0  0  0  0  0  0  0
    8.2534  -11.5316   26.1868 C   0  0  0  0  0  0  0  0  0  0  0  0
    8.5782  -12.8291   25.9052 C   0  0  0  0  0  0  0  0  0  0  0  0
    7.6352  -13.8404   25.9261 C   0  0  0  0  0  0  0  0  0  0  0  0
   10.4379  -16.6700   23.6910 C   0  0  0  0  0  0  0  0  0  0  0  0
   10.4034  -17.8866   23.4201 O   0  0  0  0  0  0  0  0  0  0  0  0
   15.7630  -16.5412   22.1211 C   0  0  0  0  0  0  0  0  0  0  0  0
   14.5727  -15.9545   21.3656 C   0  0  2  0  0  0  0  0  0  0  0  0
   15.0413  -14.9841   20.3656 C   0  0  0  0  0  0  0  0  0  0  0  0
   13.4309  -15.6357   22.2286 C   0  0  0  0  0  0  0  0  0  0  0  0
   12.9134  -16.6416   23.1853 C   0  0  2  0  0  0  0  0  0  0  0  0
   11.7047  -16.0826   23.8303 N   0  0  0  0  0  0  0  0  0  0  0  0
   13.8111  -17.0433   24.2811 C   0  0  0  0  0  0  0  0  0  0  0  0
   14.6041  -18.0312   24.0720 O   0  0  0  0  0  0  0  0  0  0  0  0
   13.8742  -16.4357   25.5309 O   0  0  0  0  0  0  0  0  0  0  0  0
  1  2  1  0
  2  3  1  0
  3  4  2  0
  5  6  1  0
  5  3  1  0
  6 17  1  0
  7  8  1  0
  6  7  1  1
  8 16  1  0
  9 10  1  0
  9  8  2  0
 10 11  1  0
 11 16  2  0
 11 12  1  0
 12 13  2  0
 13 14  1  0
 15 14  2  0
 16 15  1  0
 17 24  1  0
 17 18  2  0
 20 19  1  1
 20 21  1  0
 22 20  1  0
 23 22  1  6
 23 25  1  0
 24 23  1  0
 25 26  2  0
 25 27  1  0
M  END
$$$$
