GWL.pdb
     RDKit          3D

 27 28  0  0  1  0  0  0  0  0999 V2000
    6.8190  -20.9455   23.6351 N   0  0  0  0  0  0  0  0  0  0  0  0
    6.7737  -19.6523   24.2656 C   0  0  0  0  0  0  0  0  0  0  0  0
    7.7275  -18.7346   23.5614 C   0  0  0  0  0  0  0  0  0  0  0  0
    8.4038  -19.1516   22.5844 O   0  0  0  0  0  0  0  0  0  0  0  0
    7.8214  -17.4040   24.0473 N   0  0  0  0  0  0  0  0  0  0  0  0
    8.6057  -16.4323   23.3144 C   0  0  1  0  0  0  0  0  0  0  0  0
    7.8060  -15.1535   23.1494 C   0  0  0  0  0  0  0  0  0  0  0  0
    7.1031  -14.7433   24.3663 C   0  0  0  0  0  0  0  0  0  0  0  0
    6.5408  -15.5613   25.3164 C   0  0  0  0  0  0  0  0  0  0  0  0
    5.9899  -14.7853   26.2746 N   0  0  0  0  0  0  0  0  0  0  0  0
    6.1874  -13.4770   25.9586 C   0  0  0  0  0  0  0  0  0  0  0  0
    5.8168  -12.3227   26.6159 C   0  0  0  0  0  0  0  0  0  0  0  0
    6.1376  -11.0972   26.0888 C   0  0  0  0  0  0  0  0  0  0  0  0
    6.8292  -11.0428   24.9039 C   0  0  0  0  0  0  0  0  0  0  0  0
    7.1925  -12.1922   24.2595 C   0  0  0  0  0  0  0  0  0  0  0  0
    6.8844  -13.4424   24.7640 C   0  0  0  0  0  0  0  0  0  0  0  0
    9.7844  -16.0659   24.1528 C   0  0  0  0  0  0  0  0  0  0  0  0
   10.6681  -15.3221   23.6831 O   0  0  0  0  0  0  0  0  0  0  0  0
   10.8954  -13.5064   27.2812 C   0  0  0  0  0  0  0  0  0  0  0  0
   10.2449  -14.6984   27.9795 C   0  0  2  0  0  0  0  0  0  0  0  0
    9.9654  -14.3666   29.3841 C   0  0  0  0  0  0  0  0  0  0  0  0
   10.8539  -15.9856   27.6298 C   0  0  0  0  0  0  0  0  0  0  0  0
   11.2146  -16.2845   26.2243 C   0  0  2  0  0  0  0  0  0  0  0  0
    9.9640  -16.5184   25.4689 N   0  0  0  0  0  0  0  0  0  0  0  0
   12.0595  -17.4675   25.9898 C   0  0  0  0  0  0  0  0  0  0  0  0
   11.4736  -18.5706   25.6926 O   0  0  0  0  0  0  0  0  0  0  0  0
   13.4486  -17.4888   26.0609 O   0  0  0  0  0  0  0  0  0  0  0  0
  1  2  1  0
  2  3  1  0
  3  4  2  0
  5  6  1  0
  5  3  1  0
  6 17  1  0
  7  8  1  0
  6  7  1  1
  8 16  1  0
  9 10  1  0
  9  8  2  0
 10 11  1  0
 11 16  2  0
 11 12  1  0
 12 13  2  0
 13 14  1  0
 15 14  2  0
 16 15  1  0
 17 24  1  0
 17 18  2  0
 20 19  1  1
 20 21  1  0
 22 20  1  0
 23 22  1  1
 23 25  1  0
 24 23  1  0
 25 26  2  0
 25 27  1  0
M  END
$$$$
