GWL.pdb
     RDKit          3D

 27 28  0  0  1  0  0  0  0  0999 V2000
    7.8292  -20.9762   22.4252 N   0  0  0  0  0  0  0  0  0  0  0  0
    7.4832  -19.8138   23.2004 C   0  0  0  0  0  0  0  0  0  0  0  0
    8.4767  -18.7273   22.9171 C   0  0  0  0  0  0  0  0  0  0  0  0
    9.4897  -18.9640   22.2075 O   0  0  0  0  0  0  0  0  0  0  0  0
    8.2159  -17.4506   23.4804 N   0  0  0  0  0  0  0  0  0  0  0  0
    9.0268  -16.3184   23.0839 C   0  0  1  0  0  0  0  0  0  0  0  0
    8.1592  -15.0767   22.9981 C   0  0  0  0  0  0  0  0  0  0  0  0
    7.4314  -14.7864   24.2347 C   0  0  0  0  0  0  0  0  0  0  0  0
    6.8788  -15.6942   25.1057 C   0  0  0  0  0  0  0  0  0  0  0  0
    6.2965  -15.0143   26.1169 N   0  0  0  0  0  0  0  0  0  0  0  0
    6.4642  -13.6798   25.9132 C   0  0  0  0  0  0  0  0  0  0  0  0
    6.0561  -12.5936   26.6585 C   0  0  0  0  0  0  0  0  0  0  0  0
    6.3517  -11.3210   26.2393 C   0  0  0  0  0  0  0  0  0  0  0  0
    7.0560  -11.1513   25.0728 C   0  0  0  0  0  0  0  0  0  0  0  0
    7.4564  -12.2339   24.3407 C   0  0  0  0  0  0  0  0  0  0  0  0
    7.1745  -13.5289   24.7355 C   0  0  0  0  0  0  0  0  0  0  0  0
   10.0081  -16.0507   24.1755 C   0  0  0  0  0  0  0  0  0  0  0  0
   10.9296  -15.2316   23.9891 O   0  0  0  0  0  0  0  0  0  0  0  0
   10.3843  -13.6181   27.2806 C   0  0  0  0  0  0  0  0  0  0  0  0
    9.5883  -14.8074   27.8132 C   0  0  2  0  0  0  0  0  0  0  0  0
    8.8950  -14.4326   29.0542 C   0  0  0  0  0  0  0  0  0  0  0  0
   10.3084  -16.0815   27.7231 C   0  0  0  0  0  0  0  0  0  0  0  0
   10.9906  -16.4672   26.4658 C   0  0  2  0  0  0  0  0  0  0  0  0
    9.9567  -16.6796   25.4288 N   0  0  0  0  0  0  0  0  0  0  0  0
   11.7969  -17.6989   26.4954 C   0  0  0  0  0  0  0  0  0  0  0  0
   11.2811  -18.7628   25.9949 O   0  0  0  0  0  0  0  0  0  0  0  0
   13.0805  -17.8057   27.0210 O   0  0  0  0  0  0  0  0  0  0  0  0
  1  2  1  0
  2  3  1  0
  3  4  2  0
  5  6  1  0
  5  3  1  0
  6 17  1  0
  7  8  1  0
  6  7  1  1
  8 16  1  0
  9 10  1  0
  9  8  2  0
 10 11  1  0
 11 16  2  0
 11 12  1  0
 12 13  2  0
 13 14  1  0
 15 14  2  0
 16 15  1  0
 17 24  1  0
 17 18  2  0
 20 19  1  1
 20 21  1  0
 22 20  1  0
 23 22  1  1
 23 25  1  0
 24 23  1  0
 25 26  2  0
 25 27  1  0
M  END
$$$$
