GWL.pdb
     RDKit          3D

 27 28  0  0  1  0  0  0  0  0999 V2000
   12.1117  -16.5011   19.1970 N   0  0  0  0  0  0  0  0  0  0  0  0
   11.2676  -17.2841   20.0608 C   0  0  0  0  0  0  0  0  0  0  0  0
   10.7927  -16.4198   21.1901 C   0  0  0  0  0  0  0  0  0  0  0  0
   11.3458  -15.3114   21.4160 O   0  0  0  0  0  0  0  0  0  0  0  0
    9.7122  -16.9109   21.9692 N   0  0  0  0  0  0  0  0  0  0  0  0
    9.2018  -16.1108   23.0627 C   0  0  1  0  0  0  0  0  0  0  0  0
    7.7095  -16.3424   23.2089 C   0  0  0  0  0  0  0  0  0  0  0  0
    7.1240  -15.6643   24.3667 C   0  0  0  0  0  0  0  0  0  0  0  0
    6.5294  -16.2492   25.4587 C   0  0  0  0  0  0  0  0  0  0  0  0
    6.1203  -15.2715   26.2957 N   0  0  0  0  0  0  0  0  0  0  0  0
    6.4415  -14.0623   25.7615 C   0  0  0  0  0  0  0  0  0  0  0  0
    6.2359  -12.7828   26.2329 C   0  0  0  0  0  0  0  0  0  0  0  0
    6.6586  -11.7028   25.4997 C   0  0  0  0  0  0  0  0  0  0  0  0
    7.2853  -11.9190   24.2973 C   0  0  0  0  0  0  0  0  0  0  0  0
    7.4848  -13.1908   23.8380 C   0  0  0  0  0  0  0  0  0  0  0  0
    7.0708  -14.3001   24.5525 C   0  0  0  0  0  0  0  0  0  0  0  0
    9.8142  -16.6150   24.3265 C   0  0  0  0  0  0  0  0  0  0  0  0
   10.5818  -17.5971   24.2909 O   0  0  0  0  0  0  0  0  0  0  0  0
   11.6087  -14.0226   28.0973 C   0  0  0  0  0  0  0  0  0  0  0  0
   10.1092  -14.2972   28.1862 C   0  0  2  0  0  0  0  0  0  0  0  0
    9.5317  -13.5688   29.3251 C   0  0  0  0  0  0  0  0  0  0  0  0
    9.7559  -15.7004   27.9487 C   0  0  0  0  0  0  0  0  0  0  0  0
   10.3284  -16.4301   26.7934 C   0  0  2  0  0  0  0  0  0  0  0  0
    9.5732  -16.0383   25.5828 N   0  0  0  0  0  0  0  0  0  0  0  0
   10.2821  -17.9009   26.8443 C   0  0  0  0  0  0  0  0  0  0  0  0
   11.3353  -18.5185   27.2415 O   0  0  0  0  0  0  0  0  0  0  0  0
    9.1840  -18.6820   26.4987 O   0  0  0  0  0  0  0  0  0  0  0  0
  1  2  1  0
  2  3  1  0
  3  4  2  0
  5  6  1  0
  5  3  1  0
  6 17  1  0
  7  8  1  0
  6  7  1  1
  8 16  1  0
  9 10  1  0
  9  8  2  0
 10 11  1  0
 11 16  2  0
 11 12  1  0
 12 13  2  0
 13 14  1  0
 15 14  2  0
 16 15  1  0
 17 24  1  0
 17 18  2  0
 20 19  1  1
 20 21  1  0
 22 20  1  0
 23 22  1  1
 23 25  1  0
 24 23  1  0
 25 26  2  0
 25 27  1  0
M  END
$$$$
