GWL.pdb
     RDKit          3D

 27 28  0  0  1  0  0  0  0  0999 V2000
    7.4428  -16.5701   19.4974 N   0  0  0  0  0  0  0  0  0  0  0  0
    7.3300  -17.0896   20.8351 C   0  0  0  0  0  0  0  0  0  0  0  0
    8.2467  -16.3171   21.7354 C   0  0  0  0  0  0  0  0  0  0  0  0
    8.9353  -15.3683   21.2757 O   0  0  0  0  0  0  0  0  0  0  0  0
    8.2921  -16.7072   23.0997 N   0  0  0  0  0  0  0  0  0  0  0  0
    9.2487  -16.0807   23.9878 C   0  0  1  0  0  0  0  0  0  0  0  0
    8.7519  -16.1745   25.4182 C   0  0  0  0  0  0  0  0  0  0  0  0
    7.5512  -15.3766   25.6729 C   0  0  0  0  0  0  0  0  0  0  0  0
    6.2530  -15.8237   25.7272 C   0  0  0  0  0  0  0  0  0  0  0  0
    5.4495  -14.7689   25.9830 N   0  0  0  0  0  0  0  0  0  0  0  0
    6.2085  -13.6456   26.0951 C   0  0  0  0  0  0  0  0  0  0  0  0
    5.8544  -12.3373   26.3495 C   0  0  0  0  0  0  0  0  0  0  0  0
    6.8189  -11.3637   26.4171 C   0  0  0  0  0  0  0  0  0  0  0  0
    8.1329  -11.7145   26.2282 C   0  0  0  0  0  0  0  0  0  0  0  0
    8.4746  -13.0139   25.9766 C   0  0  0  0  0  0  0  0  0  0  0  0
    7.5269  -14.0182   25.9020 C   0  0  0  0  0  0  0  0  0  0  0  0
   10.5082  -16.8796   23.9447 C   0  0  0  0  0  0  0  0  0  0  0  0
   10.4560  -18.1003   23.6956 O   0  0  0  0  0  0  0  0  0  0  0  0
   16.0705  -17.2816   23.6337 C   0  0  0  0  0  0  0  0  0  0  0  0
   15.2129  -16.5544   22.6004 C   0  0  2  0  0  0  0  0  0  0  0  0
   16.0501  -15.6483   21.8008 C   0  0  0  0  0  0  0  0  0  0  0  0
   13.9224  -16.0989   23.1268 C   0  0  0  0  0  0  0  0  0  0  0  0
   13.0270  -17.0452   23.8323 C   0  0  2  0  0  0  0  0  0  0  0  0
   11.7782  -16.3284   24.1732 N   0  0  0  0  0  0  0  0  0  0  0  0
   13.5244  -17.6194   25.0936 C   0  0  0  0  0  0  0  0  0  0  0  0
   14.1075  -18.7621   25.0408 O   0  0  0  0  0  0  0  0  0  0  0  0
   13.4173  -17.0218   26.3452 O   0  0  0  0  0  0  0  0  0  0  0  0
  1  2  1  0
  2  3  1  0
  3  4  2  0
  5  6  1  0
  5  3  1  0
  6 17  1  0
  7  8  1  0
  6  7  1  1
  8 16  1  0
  9 10  1  0
  9  8  2  0
 10 11  1  0
 11 16  2  0
 11 12  1  0
 12 13  2  0
 13 14  1  0
 15 14  2  0
 16 15  1  0
 17 24  1  0
 17 18  2  0
 20 19  1  1
 20 21  1  0
 22 20  1  0
 23 22  1  1
 23 25  1  0
 24 23  1  0
 25 26  2  0
 25 27  1  0
M  END
$$$$
