GWL.pdb
     RDKit          3D

 27 28  0  0  1  0  0  0  0  0999 V2000
    6.6201  -17.1244   19.5546 N   0  0  0  0  0  0  0  0  0  0  0  0
    6.7125  -17.4695   20.9490 C   0  0  0  0  0  0  0  0  0  0  0  0
    7.8238  -16.6797   21.5726 C   0  0  0  0  0  0  0  0  0  0  0  0
    8.5215  -15.9026   20.8690 O   0  0  0  0  0  0  0  0  0  0  0  0
    8.0381  -16.8544   22.9651 N   0  0  0  0  0  0  0  0  0  0  0  0
    9.0418  -16.0556   23.6366 C   0  0  1  0  0  0  0  0  0  0  0  0
    8.8025  -16.0923   25.1344 C   0  0  0  0  0  0  0  0  0  0  0  0
    7.6176  -15.3425   25.5549 C   0  0  0  0  0  0  0  0  0  0  0  0
    6.3561  -15.8396   25.7778 C   0  0  0  0  0  0  0  0  0  0  0  0
    5.5549  -14.8178   26.1489 N   0  0  0  0  0  0  0  0  0  0  0  0
    6.2794  -13.6666   26.1696 C   0  0  0  0  0  0  0  0  0  0  0  0
    5.9135  -12.3741   26.4818 C   0  0  0  0  0  0  0  0  0  0  0  0
    6.8411  -11.3644   26.4295 C   0  0  0  0  0  0  0  0  0  0  0  0
    8.1302  -11.6633   26.0633 C   0  0  0  0  0  0  0  0  0  0  0  0
    8.4838  -12.9474   25.7556 C   0  0  0  0  0  0  0  0  0  0  0  0
    7.5731  -13.9872   25.7985 C   0  0  0  0  0  0  0  0  0  0  0  0
   10.3669  -16.7076   23.4234 C   0  0  0  0  0  0  0  0  0  0  0  0
   10.4411  -17.9513   23.3714 O   0  0  0  0  0  0  0  0  0  0  0  0
   15.8160  -16.6355   22.2092 C   0  0  0  0  0  0  0  0  0  0  0  0
   14.7588  -16.0932   21.2500 C   0  0  2  0  0  0  0  0  0  0  0  0
   15.3872  -15.2100   20.2569 C   0  0  0  0  0  0  0  0  0  0  0  0
   13.5150  -15.6926   21.9153 C   0  0  0  0  0  0  0  0  0  0  0  0
   12.8218  -16.6291   22.8303 C   0  0  2  0  0  0  0  0  0  0  0  0
   11.5635  -15.9899   23.2748 N   0  0  0  0  0  0  0  0  0  0  0  0
   13.5381  -17.0153   24.0574 C   0  0  0  0  0  0  0  0  0  0  0  0
   14.2506  -18.0828   24.0223 O   0  0  0  0  0  0  0  0  0  0  0  0
   13.5096  -16.3136   25.2583 O   0  0  0  0  0  0  0  0  0  0  0  0
  1  2  1  0
  2  3  1  0
  3  4  2  0
  5  6  1  0
  5  3  1  0
  6 17  1  0
  7  8  1  0
  6  7  1  1
  8 16  1  0
  9 10  1  0
  9  8  2  0
 10 11  1  0
 11 16  2  0
 11 12  1  0
 12 13  2  0
 13 14  1  0
 15 14  2  0
 16 15  1  0
 17 24  1  0
 17 18  2  0
 20 19  1  1
 20 21  1  0
 22 20  1  0
 23 22  1  1
 23 25  1  0
 24 23  1  0
 25 26  2  0
 25 27  1  0
M  END
$$$$
