QPL.pdb
     RDKit          3D

 25 25  0  0  1  0  0  0  0  0999 V2000
   27.5317  -16.5209  -16.9642 N   0  0  0  0  0  0  0  0  0  0  0  0
   26.5358  -16.1555  -17.9279 C   0  0  0  0  0  0  0  0  0  0  0  0
   26.8857  -15.3156  -18.7948 O   0  0  0  0  0  0  0  0  0  0  0  0
   25.1960  -16.7777  -17.8404 C   0  0  0  0  0  0  0  0  0  0  0  0
   25.1431  -17.7682  -16.7356 C   0  0  0  0  0  0  0  0  0  0  0  0
   25.7799  -19.0999  -17.0359 C   0  0  2  0  0  0  0  0  0  0  0  0
   25.0737  -19.6625  -18.1557 N   0  0  0  0  0  0  0  0  0  0  0  0
   25.7461  -19.9678  -15.8360 C   0  0  0  0  0  0  0  0  0  0  0  0
   24.6870  -20.6137  -15.6274 O   0  0  0  0  0  0  0  0  0  0  0  0
   26.8094  -20.1164  -14.9232 N   0  0  0  0  0  0  0  0  0  0  0  0
   28.0873  -19.4621  -15.0886 C   0  0  0  0  0  0  0  0  0  0  0  0
   28.9473  -19.8501  -13.9226 C   0  0  0  0  0  0  0  0  0  0  0  0
   28.2834  -21.0338  -13.3207 C   0  0  0  0  0  0  0  0  0  0  0  0
   26.8278  -20.9046  -13.7168 C   0  0  1  0  0  0  0  0  0  0  0  0
   26.0066  -20.3166  -12.6308 C   0  0  0  0  0  0  0  0  0  0  0  0
   26.0471  -19.0763  -12.4181 O   0  0  0  0  0  0  0  0  0  0  0  0
   22.1576  -19.1795  -12.2938 C   0  0  0  0  0  0  0  0  0  0  0  0
   22.3350  -20.6787  -12.0726 C   0  0  2  0  0  0  0  0  0  0  0  0
   20.9751  -21.3439  -12.1735 C   0  0  0  0  0  0  0  0  0  0  0  0
   22.9623  -20.9541  -10.7349 C   0  0  0  0  0  0  0  0  0  0  0  0
   24.3699  -20.4804  -10.6973 C   0  0  2  0  0  0  0  0  0  0  0  0
   25.1531  -21.0780  -11.7901 N   0  0  0  0  0  0  0  0  0  0  0  0
   25.0106  -20.7233   -9.4074 C   0  0  0  0  0  0  0  0  0  0  0  0
   25.8215  -21.6134   -9.1178 O   0  0  0  0  0  0  0  0  0  0  0  0
   24.6787  -19.8470   -8.3466 O   0  0  0  0  0  0  0  0  0  0  0  0
  2  3  2  0
  2  1  1  0
  4  2  1  0
  5  4  1  0
  6  5  1  0
  6  7  1  6
  8 10  1  0
  8  6  1  0
  9  8  2  0
 10 14  1  0
 11 10  1  0
 11 12  1  0
 12 13  1  0
 14 13  1  0
 14 15  1  1
 15 16  2  0
 18 17  1  1
 18 19  1  0
 20 18  1  0
 21 20  1  1
 22 21  1  0
 22 15  1  0
 23 25  1  0
 23 21  1  0
 24 23  2  0
M  END
$$$$
