QPL.pdb
     RDKit          3D

 25 25  0  0  1  0  0  0  0  0999 V2000
   26.9087  -16.6759  -13.3134 N   0  0  0  0  0  0  0  0  0  0  0  0
   27.1068  -17.5162  -14.4574 C   0  0  0  0  0  0  0  0  0  0  0  0
   27.3698  -16.9292  -15.5370 O   0  0  0  0  0  0  0  0  0  0  0  0
   26.9927  -18.9826  -14.2940 C   0  0  0  0  0  0  0  0  0  0  0  0
   26.7430  -19.3395  -12.8746 C   0  0  0  0  0  0  0  0  0  0  0  0
   26.6015  -20.8136  -12.5983 C   0  0  2  0  0  0  0  0  0  0  0  0
   25.2070  -21.1373  -12.7384 N   0  0  0  0  0  0  0  0  0  0  0  0
   27.1385  -21.1387  -11.2567 C   0  0  0  0  0  0  0  0  0  0  0  0
   26.3140  -21.1901  -10.3081 O   0  0  0  0  0  0  0  0  0  0  0  0
   28.4961  -21.3916  -10.9757 N   0  0  0  0  0  0  0  0  0  0  0  0
   29.5522  -21.1854  -11.9403 C   0  0  0  0  0  0  0  0  0  0  0  0
   30.8471  -21.5494  -11.2765 C   0  0  0  0  0  0  0  0  0  0  0  0
   30.4664  -22.3348  -10.0755 C   0  0  0  0  0  0  0  0  0  0  0  0
   29.0621  -21.8771   -9.7425 C   0  0  1  0  0  0  0  0  0  0  0  0
   29.0506  -20.8606   -8.6626 C   0  0  0  0  0  0  0  0  0  0  0  0
   29.1769  -19.6414   -8.9505 O   0  0  0  0  0  0  0  0  0  0  0  0
   27.0012  -18.0867   -5.3803 C   0  0  0  0  0  0  0  0  0  0  0  0
   26.6554  -19.5702   -5.4668 C   0  0  2  0  0  0  0  0  0  0  0  0
   25.5708  -19.8712   -4.4493 C   0  0  0  0  0  0  0  0  0  0  0  0
   27.8689  -20.4206   -5.2159 C   0  0  0  0  0  0  0  0  0  0  0  0
   28.9248  -20.1562   -6.2270 C   0  0  2  0  0  0  0  0  0  0  0  0
   28.9026  -21.1767   -7.2867 N   0  0  0  0  0  0  0  0  0  0  0  0
   30.2561  -20.0519   -5.6356 C   0  0  0  0  0  0  0  0  0  0  0  0
   31.1369  -20.9214   -5.5893 O   0  0  0  0  0  0  0  0  0  0  0  0
   30.6020  -18.8165   -5.0378 O   0  0  0  0  0  0  0  0  0  0  0  0
  2  3  2  0
  2  1  1  0
  4  2  1  0
  5  4  1  0
  6  5  1  0
  6  7  1  1
  8 10  1  0
  8  6  1  0
  9  8  2  0
 10 14  1  0
 11 10  1  0
 11 12  1  0
 12 13  1  0
 14 13  1  0
 14 15  1  1
 15 16  2  0
 18 17  1  1
 18 19  1  0
 20 18  1  0
 21 20  1  1
 22 21  1  0
 22 15  1  0
 23 25  1  0
 23 21  1  0
 24 23  2  0
M  END
$$$$
