QPL.pdb
     RDKit          3D

 25 25  0  0  1  0  0  0  0  0999 V2000
   29.2778  -17.8269  -15.1997 N   0  0  0  0  0  0  0  0  0  0  0  0
   27.9050  -17.8276  -15.6116 C   0  0  0  0  0  0  0  0  0  0  0  0
   27.5855  -18.6857  -16.4724 O   0  0  0  0  0  0  0  0  0  0  0  0
   26.9787  -16.8433  -15.0092 C   0  0  0  0  0  0  0  0  0  0  0  0
   26.3850  -17.3730  -13.7556 C   0  0  0  0  0  0  0  0  0  0  0  0
   25.5940  -18.6460  -13.9073 C   0  0  2  0  0  0  0  0  0  0  0  0
   24.3233  -18.2879  -14.4784 N   0  0  0  0  0  0  0  0  0  0  0  0
   25.4679  -19.3314  -12.6003 C   0  0  0  0  0  0  0  0  0  0  0  0
   24.7356  -18.7841  -11.7363 O   0  0  0  0  0  0  0  0  0  0  0  0
   26.1062  -20.5420  -12.2644 N   0  0  0  0  0  0  0  0  0  0  0  0
   26.9510  -21.2692  -13.1842 C   0  0  0  0  0  0  0  0  0  0  0  0
   27.4527  -22.4883  -12.4687 C   0  0  0  0  0  0  0  0  0  0  0  0
   26.5679  -22.6428  -11.2866 C   0  0  0  0  0  0  0  0  0  0  0  0
   26.0439  -21.2494  -11.0103 C   0  0  1  0  0  0  0  0  0  0  0  0
   26.8024  -20.5748   -9.9290 C   0  0  0  0  0  0  0  0  0  0  0  0
   27.9753  -20.1717  -10.1460 O   0  0  0  0  0  0  0  0  0  0  0  0
   27.9526  -20.5032   -4.9047 C   0  0  0  0  0  0  0  0  0  0  0  0
   28.5250  -19.3755   -5.7583 C   0  0  2  0  0  0  0  0  0  0  0  0
   28.4648  -18.0882   -4.9575 C   0  0  0  0  0  0  0  0  0  0  0  0
   27.7623  -19.2355   -7.0457 C   0  0  0  0  0  0  0  0  0  0  0  0
   27.0865  -20.5083   -7.4073 C   0  0  2  0  0  0  0  0  0  0  0  0
   26.2820  -20.3455   -8.6284 N   0  0  0  0  0  0  0  0  0  0  0  0
   26.2732  -21.0423   -6.3180 C   0  0  0  0  0  0  0  0  0  0  0  0
   26.5280  -22.0045   -5.5811 O   0  0  0  0  0  0  0  0  0  0  0  0
   25.0412  -20.3968   -6.0560 O   0  0  0  0  0  0  0  0  0  0  0  0
  2  3  2  0
  2  1  1  0
  4  2  1  0
  5  4  1  0
  6  5  1  0
  6  7  1  1
  8 10  1  0
  8  6  1  0
  9  8  2  0
 10 14  1  0
 11 10  1  0
 11 12  1  0
 12 13  1  0
 14 13  1  0
 14 15  1  1
 15 16  2  0
 18 17  1  1
 18 19  1  0
 20 18  1  0
 21 20  1  1
 22 21  1  0
 22 15  1  0
 23 25  1  0
 23 21  1  0
 24 23  2  0
M  END
$$$$
