QPL.pdb
     RDKit          3D

 25 25  0  0  1  0  0  0  0  0999 V2000
   26.5493  -22.8681  -15.0978 N   0  0  0  0  0  0  0  0  0  0  0  0
   25.1532  -23.0256  -14.8143 C   0  0  0  0  0  0  0  0  0  0  0  0
   24.4567  -23.5357  -15.7274 O   0  0  0  0  0  0  0  0  0  0  0  0
   24.6389  -22.5891  -13.4971 C   0  0  0  0  0  0  0  0  0  0  0  0
   25.7476  -22.1374  -12.6188 C   0  0  0  0  0  0  0  0  0  0  0  0
   25.5211  -20.8197  -11.9249 C   0  0  2  0  0  0  0  0  0  0  0  0
   24.4535  -21.0176  -10.9814 N   0  0  0  0  0  0  0  0  0  0  0  0
   25.2266  -19.7603  -12.9174 C   0  0  0  0  0  0  0  0  0  0  0  0
   24.0355  -19.3631  -12.9929 O   0  0  0  0  0  0  0  0  0  0  0  0
   26.1813  -19.1745  -13.7726 N   0  0  0  0  0  0  0  0  0  0  0  0
   27.5830  -19.5251  -13.7467 C   0  0  0  0  0  0  0  0  0  0  0  0
   28.2722  -18.7076  -14.7986 C   0  0  0  0  0  0  0  0  0  0  0  0
   27.3224  -17.6172  -15.1346 C   0  0  0  0  0  0  0  0  0  0  0  0
   25.9577  -18.1697  -14.7813 C   0  0  1  0  0  0  0  0  0  0  0  0
   25.2460  -18.6953  -15.9716 C   0  0  0  0  0  0  0  0  0  0  0  0
   25.2348  -19.9341  -16.1967 O   0  0  0  0  0  0  0  0  0  0  0  0
   20.6953  -18.4417  -18.0928 C   0  0  0  0  0  0  0  0  0  0  0  0
   20.8541  -18.4967  -16.5763 C   0  0  2  0  0  0  0  0  0  0  0  0
   19.8319  -17.5655  -15.9518 C   0  0  0  0  0  0  0  0  0  0  0  0
   22.2466  -18.1068  -16.1671 C   0  0  0  0  0  0  0  0  0  0  0  0
   23.1734  -18.1396  -17.3279 C   0  0  2  0  0  0  0  0  0  0  0  0
   24.5563  -17.8741  -16.9016 N   0  0  0  0  0  0  0  0  0  0  0  0
   22.7740  -17.2229  -18.3924 C   0  0  0  0  0  0  0  0  0  0  0  0
   22.7237  -15.9862  -18.3505 O   0  0  0  0  0  0  0  0  0  0  0  0
   22.3948  -17.7963  -19.6296 O   0  0  0  0  0  0  0  0  0  0  0  0
  2  3  2  0
  2  1  1  0
  4  2  1  0
  5  4  1  0
  6  5  1  0
  6  7  1  1
  8 10  1  0
  8  6  1  0
  9  8  2  0
 10 14  1  0
 11 10  1  0
 11 12  1  0
 12 13  1  0
 14 13  1  0
 14 15  1  6
 15 16  2  0
 18 17  1  6
 18 19  1  0
 20 18  1  0
 21 20  1  1
 22 21  1  0
 22 15  1  0
 23 25  1  0
 23 21  1  0
 24 23  2  0
M  END
$$$$
