QPL.pdb
     RDKit          3D

 25 25  0  0  1  0  0  0  0  0999 V2000
   25.8940  -23.5342  -12.3073 N   0  0  0  0  0  0  0  0  0  0  0  0
   25.5882  -23.1518  -13.6544 C   0  0  0  0  0  0  0  0  0  0  0  0
   26.5538  -23.1362  -14.4585 O   0  0  0  0  0  0  0  0  0  0  0  0
   24.1901  -22.8111  -13.9994 C   0  0  0  0  0  0  0  0  0  0  0  0
   24.0627  -21.3694  -14.3312 C   0  0  0  0  0  0  0  0  0  0  0  0
   24.1020  -20.4330  -13.1518 C   0  0  2  0  0  0  0  0  0  0  0  0
   22.9620  -20.7409  -12.3304 N   0  0  0  0  0  0  0  0  0  0  0  0
   24.1187  -19.0257  -13.6135 C   0  0  0  0  0  0  0  0  0  0  0  0
   23.0491  -18.3738  -13.4989 O   0  0  0  0  0  0  0  0  0  0  0  0
   25.2406  -18.3761  -14.1661 N   0  0  0  0  0  0  0  0  0  0  0  0
   26.5284  -19.0152  -14.3129 C   0  0  0  0  0  0  0  0  0  0  0  0
   27.4568  -18.0201  -14.9436 C   0  0  0  0  0  0  0  0  0  0  0  0
   26.7916  -16.7030  -14.7804 C   0  0  0  0  0  0  0  0  0  0  0  0
   25.3169  -17.0256  -14.6634 C   0  0  1  0  0  0  0  0  0  0  0  0
   24.6046  -16.8439  -15.9516 C   0  0  0  0  0  0  0  0  0  0  0  0
   24.1300  -17.8448  -16.5500 O   0  0  0  0  0  0  0  0  0  0  0  0
   19.5948  -14.8004  -15.9743 C   0  0  0  0  0  0  0  0  0  0  0  0
   20.7077  -15.0473  -16.9884 C   0  0  2  0  0  0  0  0  0  0  0  0
   20.2965  -16.2028  -17.8817 C   0  0  0  0  0  0  0  0  0  0  0  0
   22.0079  -15.3479  -16.2973 C   0  0  0  0  0  0  0  0  0  0  0  0
   23.1554  -15.1970  -17.2288 C   0  0  2  0  0  0  0  0  0  0  0  0
   24.4155  -15.5824  -16.5743 N   0  0  0  0  0  0  0  0  0  0  0  0
   23.2522  -13.8514  -17.7883 C   0  0  0  0  0  0  0  0  0  0  0  0
   23.5843  -12.8093  -17.2073 O   0  0  0  0  0  0  0  0  0  0  0  0
   22.9324  -13.6974  -19.1584 O   0  0  0  0  0  0  0  0  0  0  0  0
  2  3  2  0
  2  1  1  0
  4  2  1  0
  5  4  1  0
  6  5  1  0
  6  7  1  1
  8 10  1  0
  8  6  1  0
  9  8  2  0
 10 14  1  0
 11 10  1  0
 11 12  1  0
 12 13  1  0
 14 13  1  0
 14 15  1  6
 15 16  2  0
 18 17  1  1
 18 19  1  0
 20 18  1  0
 21 20  1  1
 22 21  1  0
 22 15  1  0
 23 25  1  0
 23 21  1  0
 24 23  2  0
M  END
$$$$
