QPL.pdb
     RDKit          3D

 25 25  0  0  1  0  0  0  0  0999 V2000
   20.9884  -19.8808  -14.8169 N   0  0  0  0  0  0  0  0  0  0  0  0
   21.8644  -18.9409  -14.1816 C   0  0  0  0  0  0  0  0  0  0  0  0
   22.1957  -17.9414  -14.8676 O   0  0  0  0  0  0  0  0  0  0  0  0
   22.3074  -19.2034  -12.7943 C   0  0  0  0  0  0  0  0  0  0  0  0
   22.5513  -20.6525  -12.5814 C   0  0  0  0  0  0  0  0  0  0  0  0
   23.8909  -21.1545  -13.0534 C   0  0  2  0  0  0  0  0  0  0  0  0
   23.6444  -22.3182  -13.8623 N   0  0  0  0  0  0  0  0  0  0  0  0
   24.7728  -21.4312  -11.8960 C   0  0  0  0  0  0  0  0  0  0  0  0
   24.2466  -21.9832  -10.8956 O   0  0  0  0  0  0  0  0  0  0  0  0
   26.1464  -21.1209  -11.8418 N   0  0  0  0  0  0  0  0  0  0  0  0
   26.8254  -20.3677  -12.8714 C   0  0  0  0  0  0  0  0  0  0  0  0
   28.2611  -20.2322  -12.4588 C   0  0  0  0  0  0  0  0  0  0  0  0
   28.4633  -21.2503  -11.3973 C   0  0  0  0  0  0  0  0  0  0  0  0
   27.0866  -21.4743  -10.8083 C   0  0  1  0  0  0  0  0  0  0  0  0
   26.8855  -20.7037   -9.5571 C   0  0  0  0  0  0  0  0  0  0  0  0
   26.4283  -19.5319   -9.6115 O   0  0  0  0  0  0  0  0  0  0  0  0
   28.8721  -19.1637   -4.9131 C   0  0  0  0  0  0  0  0  0  0  0  0
   27.8175  -20.2413   -4.6798 C   0  0  2  0  0  0  0  0  0  0  0  0
   28.2173  -21.0491   -3.4592 C   0  0  0  0  0  0  0  0  0  0  0  0
   27.6825  -21.1309   -5.8835 C   0  0  0  0  0  0  0  0  0  0  0  0
   27.1919  -20.3673   -7.0598 C   0  0  2  0  0  0  0  0  0  0  0  0
   27.1815  -21.2112   -8.2649 N   0  0  0  0  0  0  0  0  0  0  0  0
   27.9522  -19.1419   -7.2915 C   0  0  0  0  0  0  0  0  0  0  0  0
   29.0499  -19.0239   -7.8526 O   0  0  0  0  0  0  0  0  0  0  0  0
   27.3838  -17.9319   -6.8268 O   0  0  0  0  0  0  0  0  0  0  0  0
  2  3  2  0
  2  1  1  0
  4  2  1  0
  5  4  1  0
  6  5  1  0
  6  7  1  1
  8 10  1  0
  8  6  1  0
  9  8  2  0
 10 14  1  0
 11 10  1  0
 11 12  1  0
 12 13  1  0
 14 13  1  0
 14 15  1  1
 15 16  2  0
 18 17  1  6
 18 19  1  0
 20 18  1  0
 21 20  1  1
 22 21  1  0
 22 15  1  0
 23 25  1  0
 23 21  1  0
 24 23  2  0
M  END
$$$$
