QPL.pdb
     RDKit          3D

 25 25  0  0  1  0  0  0  0  0999 V2000
   16.4914  -22.1076  -13.5224 N   0  0  0  0  0  0  0  0  0  0  0  0
   16.9027  -20.7346  -13.5242 C   0  0  0  0  0  0  0  0  0  0  0  0
   15.9953  -19.8843  -13.3427 O   0  0  0  0  0  0  0  0  0  0  0  0
   18.3333  -20.4186  -13.7328 C   0  0  0  0  0  0  0  0  0  0  0  0
   19.1396  -21.6606  -13.8420 C   0  0  0  0  0  0  0  0  0  0  0  0
   20.5672  -21.5426  -13.3758 C   0  0  2  0  0  0  0  0  0  0  0  0
   21.3902  -22.1733  -14.3729 N   0  0  0  0  0  0  0  0  0  0  0  0
   20.7207  -22.1474  -12.0325 C   0  0  0  0  0  0  0  0  0  0  0  0
   20.8185  -23.4003  -11.9775 O   0  0  0  0  0  0  0  0  0  0  0  0
   20.7641  -21.4208  -10.8258 N   0  0  0  0  0  0  0  0  0  0  0  0
   20.6881  -19.9787  -10.7710 C   0  0  0  0  0  0  0  0  0  0  0  0
   20.7546  -19.5778   -9.3272 C   0  0  0  0  0  0  0  0  0  0  0  0
   21.2677  -20.7723   -8.6103 C   0  0  0  0  0  0  0  0  0  0  0  0
   20.8858  -21.9449   -9.4888 C   0  0  1  0  0  0  0  0  0  0  0  0
   19.6491  -22.6135   -9.0163 C   0  0  0  0  0  0  0  0  0  0  0  0
   18.5361  -22.2878   -9.5066 O   0  0  0  0  0  0  0  0  0  0  0  0
   18.0175  -27.7542   -5.8743 C   0  0  0  0  0  0  0  0  0  0  0  0
   17.6629  -26.6024   -6.8099 C   0  0  2  0  0  0  0  0  0  0  0  0
   17.1630  -27.1830   -8.1195 C   0  0  0  0  0  0  0  0  0  0  0  0
   18.8522  -25.7137   -7.0434 C   0  0  0  0  0  0  0  0  0  0  0  0
   18.4608  -24.4766   -7.7670 C   0  0  2  0  0  0  0  0  0  0  0  0
   19.6334  -23.6248   -8.0203 N   0  0  0  0  0  0  0  0  0  0  0  0
   17.4155  -23.7273   -7.0750 C   0  0  0  0  0  0  0  0  0  0  0  0
   16.2035  -23.9782   -7.0311 O   0  0  0  0  0  0  0  0  0  0  0  0
   17.8141  -22.5713   -6.3622 O   0  0  0  0  0  0  0  0  0  0  0  0
  2  3  2  0
  2  1  1  0
  4  2  1  0
  5  4  1  0
  6  5  1  0
  6  7  1  6
  8 10  1  0
  8  6  1  0
  9  8  2  0
 10 14  1  0
 11 10  1  0
 11 12  1  0
 12 13  1  0
 14 13  1  0
 14 15  1  1
 15 16  2  0
 18 17  1  1
 18 19  1  0
 20 18  1  0
 21 20  1  1
 22 21  1  0
 22 15  1  0
 23 25  1  0
 23 21  1  0
 24 23  2  0
M  END
$$$$
