QPL.pdb
     RDKit          3D

 25 25  0  0  1  0  0  0  0  0999 V2000
   23.2714  -25.8629  -14.0618 N   0  0  0  0  0  0  0  0  0  0  0  0
   22.4894  -25.0644  -14.9592 C   0  0  0  0  0  0  0  0  0  0  0  0
   21.5188  -25.6410  -15.5112 O   0  0  0  0  0  0  0  0  0  0  0  0
   22.8674  -23.6491  -15.1688 C   0  0  0  0  0  0  0  0  0  0  0  0
   23.9577  -23.2494  -14.2435 C   0  0  0  0  0  0  0  0  0  0  0  0
   25.1912  -22.6940  -14.9063 C   0  0  2  0  0  0  0  0  0  0  0  0
   25.7181  -23.7304  -15.7533 N   0  0  0  0  0  0  0  0  0  0  0  0
   26.1602  -22.2338  -13.8850 C   0  0  0  0  0  0  0  0  0  0  0  0
   26.7596  -23.1210  -13.2248 O   0  0  0  0  0  0  0  0  0  0  0  0
   26.4520  -20.8834  -13.6070 N   0  0  0  0  0  0  0  0  0  0  0  0
   25.8770  -19.7841  -14.3482 C   0  0  0  0  0  0  0  0  0  0  0  0
   26.4124  -18.5131  -13.7585 C   0  0  0  0  0  0  0  0  0  0  0  0
   27.5900  -18.9195  -12.9510 C   0  0  0  0  0  0  0  0  0  0  0  0
   27.3301  -20.3662  -12.5880 C   0  0  1  0  0  0  0  0  0  0  0  0
   26.7720  -20.5043  -11.2208 C   0  0  0  0  0  0  0  0  0  0  0  0
   25.5245  -20.5506  -11.0567 O   0  0  0  0  0  0  0  0  0  0  0  0
   27.8655  -18.6429   -5.6051 C   0  0  0  0  0  0  0  0  0  0  0  0
   27.2069  -19.7666   -6.3996 C   0  0  2  0  0  0  0  0  0  0  0  0
   27.2574  -21.0358   -5.5696 C   0  0  0  0  0  0  0  0  0  0  0  0
   27.8971  -19.9681   -7.7193 C   0  0  0  0  0  0  0  0  0  0  0  0
   26.9982  -20.6357   -8.6958 C   0  0  2  0  0  0  0  0  0  0  0  0
   27.5707  -20.5905  -10.0505 N   0  0  0  0  0  0  0  0  0  0  0  0
   25.6466  -20.0823   -8.6854 C   0  0  0  0  0  0  0  0  0  0  0  0
   25.2796  -18.9668   -9.0788 O   0  0  0  0  0  0  0  0  0  0  0  0
   24.6169  -20.9036   -8.1675 O   0  0  0  0  0  0  0  0  0  0  0  0
  2  3  2  0
  2  1  1  0
  4  2  1  0
  5  4  1  0
  6  5  1  0
  6  7  1  1
  8 10  1  0
  8  6  1  0
  9  8  2  0
 10 14  1  0
 11 10  1  0
 11 12  1  0
 12 13  1  0
 14 13  1  0
 14 15  1  1
 15 16  2  0
 18 17  1  1
 18 19  1  0
 20 18  1  0
 21 20  1  1
 22 21  1  0
 22 15  1  0
 23 25  1  0
 23 21  1  0
 24 23  2  0
M  END
$$$$
