QPL.pdb
     RDKit          3D

 25 25  0  0  1  0  0  0  0  0999 V2000
   21.6768  -16.5989  -17.8093 N   0  0  0  0  0  0  0  0  0  0  0  0
   21.7076  -17.1290  -16.4780 C   0  0  0  0  0  0  0  0  0  0  0  0
   20.6031  -17.1938  -15.8820 O   0  0  0  0  0  0  0  0  0  0  0  0
   23.0057  -17.5552  -15.9096 C   0  0  0  0  0  0  0  0  0  0  0  0
   24.0817  -17.4774  -16.9297 C   0  0  0  0  0  0  0  0  0  0  0  0
   24.6595  -18.8016  -17.3561 C   0  0  2  0  0  0  0  0  0  0  0  0
   23.6643  -19.4565  -18.1622 N   0  0  0  0  0  0  0  0  0  0  0  0
   25.0562  -19.5949  -16.1698 C   0  0  0  0  0  0  0  0  0  0  0  0
   24.1474  -20.2328  -15.5788 O   0  0  0  0  0  0  0  0  0  0  0  0
   26.3692  -19.6816  -15.6652 N   0  0  0  0  0  0  0  0  0  0  0  0
   27.4952  -19.0160  -16.2797 C   0  0  0  0  0  0  0  0  0  0  0  0
   28.7097  -19.3327  -15.4584 C   0  0  0  0  0  0  0  0  0  0  0  0
   28.3253  -20.4958  -14.6196 C   0  0  0  0  0  0  0  0  0  0  0  0
   26.8180  -20.4093  -14.5050 C   0  0  1  0  0  0  0  0  0  0  0  0
   26.3929  -19.7818  -13.2302 C   0  0  0  0  0  0  0  0  0  0  0  0
   26.0591  -18.5679  -13.2118 O   0  0  0  0  0  0  0  0  0  0  0  0
   23.3356  -20.2661   -9.1678 C   0  0  0  0  0  0  0  0  0  0  0  0
   22.8832  -19.9231  -10.5840 C   0  0  2  0  0  0  0  0  0  0  0  0
   21.5952  -20.6717  -10.8718 C   0  0  0  0  0  0  0  0  0  0  0  0
   23.9416  -20.2828  -11.5885 C   0  0  0  0  0  0  0  0  0  0  0  0
   25.2967  -20.2188  -10.9827 C   0  0  2  0  0  0  0  0  0  0  0  0
   26.3347  -20.4757  -11.9932 N   0  0  0  0  0  0  0  0  0  0  0  0
   25.4468  -21.1213   -9.8442 C   0  0  0  0  0  0  0  0  0  0  0  0
   25.4698  -22.3595   -9.8545 O   0  0  0  0  0  0  0  0  0  0  0  0
   25.5842  -20.5302   -8.5656 O   0  0  0  0  0  0  0  0  0  0  0  0
  2  3  2  0
  2  1  1  0
  4  2  1  0
  5  4  1  0
  6  5  1  0
  6  7  1  1
  8 10  1  0
  8  6  1  0
  9  8  2  0
 10 14  1  0
 11 10  1  0
 11 12  1  0
 12 13  1  0
 14 13  1  0
 14 15  1  1
 15 16  2  0
 18 17  1  1
 18 19  1  0
 20 18  1  0
 21 20  1  6
 22 21  1  0
 22 15  1  0
 23 25  1  0
 23 21  1  0
 24 23  2  0
M  END
$$$$
