QPL.pdb
     RDKit          3D

 25 25  0  0  1  0  0  0  0  0999 V2000
   20.5544  -37.7958  -13.5869 N   0  0  0  0  0  0  0  0  0  0  0  0
   21.1871  -39.0239  -13.9684 C   0  0  0  0  0  0  0  0  0  0  0  0
   20.5326  -39.7673  -14.7419 O   0  0  0  0  0  0  0  0  0  0  0  0
   22.5361  -39.3257  -13.4402 C   0  0  0  0  0  0  0  0  0  0  0  0
   23.0254  -38.2224  -12.5754 C   0  0  0  0  0  0  0  0  0  0  0  0
   23.8995  -37.2065  -13.2632 C   0  0  2  0  0  0  0  0  0  0  0  0
   25.1075  -37.8836  -13.6523 N   0  0  0  0  0  0  0  0  0  0  0  0
   24.1464  -36.0517  -12.3691 C   0  0  0  0  0  0  0  0  0  0  0  0
   25.2130  -36.0628  -11.7025 O   0  0  0  0  0  0  0  0  0  0  0  0
   23.2758  -34.9540  -12.2176 N   0  0  0  0  0  0  0  0  0  0  0  0
   22.0699  -34.7910  -12.9971 C   0  0  0  0  0  0  0  0  0  0  0  0
   21.4098  -33.5215  -12.5473 C   0  0  0  0  0  0  0  0  0  0  0  0
   22.4547  -32.7784  -11.7989 C   0  0  0  0  0  0  0  0  0  0  0  0
   23.4113  -33.8444  -11.3079 C   0  0  1  0  0  0  0  0  0  0  0  0
   23.1488  -34.2193   -9.8972 C   0  0  0  0  0  0  0  0  0  0  0  0
   22.2573  -35.0678   -9.6315 O   0  0  0  0  0  0  0  0  0  0  0  0
   23.5855  -35.4135   -4.8571 C   0  0  0  0  0  0  0  0  0  0  0  0
   23.1923  -36.1846   -6.1136 C   0  0  2  0  0  0  0  0  0  0  0  0
   23.5710  -37.6413   -5.9218 C   0  0  0  0  0  0  0  0  0  0  0  0
   23.8707  -35.6156   -7.3279 C   0  0  0  0  0  0  0  0  0  0  0  0
   23.6684  -34.1463   -7.4135 C   0  0  2  0  0  0  0  0  0  0  0  0
   23.8540  -33.6716   -8.7937 N   0  0  0  0  0  0  0  0  0  0  0  0
   24.5254  -33.4061   -6.4911 C   0  0  0  0  0  0  0  0  0  0  0  0
   25.6323  -32.9009   -6.7222 O   0  0  0  0  0  0  0  0  0  0  0  0
   24.0526  -33.2336   -5.1682 O   0  0  0  0  0  0  0  0  0  0  0  0
  2  3  2  0
  2  1  1  0
  4  2  1  0
  5  4  1  0
  6  5  1  0
  6  7  1  1
  8 10  1  0
  8  6  1  0
  9  8  2  0
 10 14  1  0
 11 10  1  0
 11 12  1  0
 12 13  1  0
 14 13  1  0
 14 15  1  1
 15 16  2  0
 18 17  1  1
 18 19  1  0
 20 18  1  0
 21 20  1  6
 22 21  1  0
 22 15  1  0
 23 25  1  0
 23 21  1  0
 24 23  2  0
M  END
$$$$
