QPL.pdb
     RDKit          3D

 25 25  0  0  1  0  0  0  0  0999 V2000
   21.6657  -20.7033  -12.3128 N   0  0  0  0  0  0  0  0  0  0  0  0
   22.0796  -19.9415  -13.4541 C   0  0  0  0  0  0  0  0  0  0  0  0
   21.2471  -19.8509  -14.3911 O   0  0  0  0  0  0  0  0  0  0  0  0
   23.4257  -19.3267  -13.4516 C   0  0  0  0  0  0  0  0  0  0  0  0
   24.2696  -19.9037  -12.3748 C   0  0  0  0  0  0  0  0  0  0  0  0
   25.0549  -21.1296  -12.7616 C   0  0  2  0  0  0  0  0  0  0  0  0
   24.1022  -22.1421  -13.1306 N   0  0  0  0  0  0  0  0  0  0  0  0
   25.9390  -21.5458  -11.6484 C   0  0  0  0  0  0  0  0  0  0  0  0
   25.4285  -22.2645  -10.7511 O   0  0  0  0  0  0  0  0  0  0  0  0
   27.2985  -21.1942  -11.5292 N   0  0  0  0  0  0  0  0  0  0  0  0
   27.9953  -20.3965  -12.5123 C   0  0  0  0  0  0  0  0  0  0  0  0
   29.4075  -20.2260  -12.0364 C   0  0  0  0  0  0  0  0  0  0  0  0
   29.5978  -21.2616  -10.9898 C   0  0  0  0  0  0  0  0  0  0  0  0
   28.2056  -21.5420  -10.4647 C   0  0  1  0  0  0  0  0  0  0  0  0
   27.9279  -20.8072   -9.2067 C   0  0  0  0  0  0  0  0  0  0  0  0
   27.3556  -19.6866   -9.2507 O   0  0  0  0  0  0  0  0  0  0  0  0
   29.7733  -20.5349   -3.3247 C   0  0  0  0  0  0  0  0  0  0  0  0
   28.6364  -20.2750   -4.3085 C   0  0  2  0  0  0  0  0  0  0  0  0
   27.3222  -20.5897   -3.6186 C   0  0  0  0  0  0  0  0  0  0  0  0
   28.7974  -21.1087   -5.5485 C   0  0  0  0  0  0  0  0  0  0  0  0
   28.0413  -20.5250   -6.6865 C   0  0  2  0  0  0  0  0  0  0  0  0
   28.2728  -21.2946   -7.9189 N   0  0  0  0  0  0  0  0  0  0  0  0
   28.3412  -19.1108   -6.8945 C   0  0  0  0  0  0  0  0  0  0  0  0
   29.3208  -18.6189   -7.4708 O   0  0  0  0  0  0  0  0  0  0  0  0
   27.4131  -18.1722   -6.3836 O   0  0  0  0  0  0  0  0  0  0  0  0
  2  3  2  0
  2  1  1  0
  4  2  1  0
  5  4  1  0
  6  5  1  0
  6  7  1  1
  8 10  1  0
  8  6  1  0
  9  8  2  0
 10 14  1  0
 11 10  1  0
 11 12  1  0
 12 13  1  0
 14 13  1  0
 14 15  1  1
 15 16  2  0
 18 17  1  1
 18 19  1  0
 20 18  1  0
 21 20  1  1
 22 21  1  0
 22 15  1  0
 23 25  1  0
 23 21  1  0
 24 23  2  0
M  END
$$$$
