PKI.pdb
     RDKit          3D

 25 25  0  0  1  0  0  0  0  0999 V2000
    8.7039  -15.0930   18.8419 N   0  0  0  0  0  0  0  0  0  0  0  0
    8.6221  -14.5355   17.5015 C   0  0  0  0  0  0  0  0  0  0  0  0
    8.2173  -13.0996   17.6676 C   0  0  0  0  0  0  0  0  0  0  0  0
    7.3731  -13.1742   18.9490 C   0  0  0  0  0  0  0  0  0  0  0  0
    8.3199  -14.0555   19.7492 C   0  0  1  0  0  0  0  0  0  0  0  0
    7.8069  -14.5062   21.0285 C   0  0  0  0  0  0  0  0  0  0  0  0
    7.2881  -13.7042   21.8820 O   0  0  0  0  0  0  0  0  0  0  0  0
    7.8505  -15.8623   21.4111 N   0  0  0  0  0  0  0  0  0  0  0  0
    7.2689  -16.3144   22.6856 C   0  0  1  0  0  0  0  0  0  0  0  0
    7.4919  -17.8015   22.8095 C   0  0  0  0  0  0  0  0  0  0  0  0
    6.9973  -18.3656   24.1154 C   0  0  0  0  0  0  0  0  0  0  0  0
    7.2885  -19.8241   24.2625 C   0  0  0  0  0  0  0  0  0  0  0  0
    6.7456  -20.3910   25.5567 C   0  0  0  0  0  0  0  0  0  0  0  0
    7.8410  -21.0596   26.2497 N   0  0  0  0  0  0  0  0  0  0  0  0
    8.0674  -15.6716   23.7659 C   0  0  0  0  0  0  0  0  0  0  0  0
    9.3176  -15.6247   23.6956 O   0  0  0  0  0  0  0  0  0  0  0  0
    6.0370  -11.6998   27.5661 C   0  0  0  0  0  0  0  0  0  0  0  0
    6.4948  -12.9987   27.0166 C   0  0  0  0  0  0  0  0  0  0  0  0
    7.7807  -13.0361   26.2901 C   0  0  2  0  0  0  0  0  0  0  0  0
    7.8461  -12.0296   25.1504 C   0  0  0  0  0  0  0  0  0  0  0  0
    8.2409  -14.3866   25.8815 C   0  0  2  0  0  0  0  0  0  0  0  0
    7.4527  -15.0874   24.9155 N   0  0  0  0  0  0  0  0  0  0  0  0
    8.4124  -15.2514   27.0972 C   0  0  0  0  0  0  0  0  0  0  0  0
    9.3794  -14.9245   28.0294 O   0  0  0  0  0  0  0  0  0  0  0  0
    7.7073  -16.2683   27.3039 O   0  0  0  0  0  0  0  0  0  0  0  0
  1  2  1  0
  2  3  1  0
  4  3  1  0
  5  1  1  0
  5  4  1  0
  5  6  1  1
  7  6  2  0
  8  6  1  0
  9  8  1  0
  9 10  1  1
 10 11  1  0
 11 12  1  0
 12 13  1  0
 13 14  1  0
 15  9  1  0
 16 15  2  0
 18 17  1  0
 18 19  1  0
 19 21  1  0
 19 20  1  6
 21 22  1  6
 22 15  1  0
 23 24  1  0
 23 21  1  0
 25 23  2  0
M  END
$$$$
