PKI.pdb
     RDKit          3D

 25 25  0  0  1  0  0  0  0  0999 V2000
    8.7066  -15.0944   19.1702 N   0  0  0  0  0  0  0  0  0  0  0  0
    8.6832  -14.5198   17.8347 C   0  0  0  0  0  0  0  0  0  0  0  0
    8.2126  -13.1035   17.9948 C   0  0  0  0  0  0  0  0  0  0  0  0
    7.2968  -13.2304   19.2217 C   0  0  0  0  0  0  0  0  0  0  0  0
    8.2281  -14.0866   20.0661 C   0  0  1  0  0  0  0  0  0  0  0  0
    7.6576  -14.5765   21.3061 C   0  0  0  0  0  0  0  0  0  0  0  0
    7.1208  -13.7982   22.1702 O   0  0  0  0  0  0  0  0  0  0  0  0
    7.6615  -15.9470   21.6360 N   0  0  0  0  0  0  0  0  0  0  0  0
    7.0916  -16.4277   22.9052 C   0  0  1  0  0  0  0  0  0  0  0  0
    7.2334  -17.9292   22.9523 C   0  0  0  0  0  0  0  0  0  0  0  0
    6.7727  -18.5248   24.2566 C   0  0  0  0  0  0  0  0  0  0  0  0
    6.8751  -20.0157   24.2794 C   0  0  0  0  0  0  0  0  0  0  0  0
    6.4159  -20.6033   25.5966 C   0  0  0  0  0  0  0  0  0  0  0  0
    6.7106  -22.0316   25.5793 N   0  0  0  0  0  0  0  0  0  0  0  0
    7.9556  -15.8833   23.9892 C   0  0  0  0  0  0  0  0  0  0  0  0
    9.1765  -15.6807   23.7930 O   0  0  0  0  0  0  0  0  0  0  0  0
    5.6206  -12.1279   27.0070 C   0  0  0  0  0  0  0  0  0  0  0  0
    6.6705  -12.8717   26.2701 C   0  0  0  0  0  0  0  0  0  0  0  0
    7.5351  -13.7978   27.0302 C   0  0  2  0  0  0  0  0  0  0  0  0
    8.4781  -13.0789   27.9841 C   0  0  0  0  0  0  0  0  0  0  0  0
    8.2269  -14.8311   26.2199 C   0  0  2  0  0  0  0  0  0  0  0  0
    7.4388  -15.5716   25.2840 N   0  0  0  0  0  0  0  0  0  0  0  0
    8.9422  -15.7899   27.1278 C   0  0  0  0  0  0  0  0  0  0  0  0
    8.5850  -17.1253   27.1187 O   0  0  0  0  0  0  0  0  0  0  0  0
    9.8598  -15.4254   27.9019 O   0  0  0  0  0  0  0  0  0  0  0  0
  1  2  1  0
  2  3  1  0
  4  3  1  0
  5  1  1  0
  5  4  1  0
  5  6  1  1
  7  6  2  0
  8  6  1  0
  9  8  1  0
  9 10  1  6
 10 11  1  0
 11 12  1  0
 12 13  1  0
 13 14  1  0
 15  9  1  0
 16 15  2  0
 18 17  1  0
 18 19  1  0
 19 21  1  0
 19 20  1  6
 21 22  1  1
 22 15  1  0
 23 24  1  0
 23 21  1  0
 25 23  2  0
M  END
$$$$
