PKI.pdb
     RDKit          3D

 25 25  0  0  1  0  0  0  0  0999 V2000
    8.6205  -15.2336   18.9856 N   0  0  0  0  0  0  0  0  0  0  0  0
    8.6375  -14.6902   17.6369 C   0  0  0  0  0  0  0  0  0  0  0  0
    8.2128  -13.2555   17.7567 C   0  0  0  0  0  0  0  0  0  0  0  0
    7.2742  -13.3227   18.9710 C   0  0  0  0  0  0  0  0  0  0  0  0
    8.1627  -14.1895   19.8501 C   0  0  1  0  0  0  0  0  0  0  0  0
    7.5567  -14.6307   21.0915 C   0  0  0  0  0  0  0  0  0  0  0  0
    7.0402  -13.8140   21.9323 O   0  0  0  0  0  0  0  0  0  0  0  0
    7.5012  -15.9932   21.4488 N   0  0  0  0  0  0  0  0  0  0  0  0
    7.0030  -16.4162   22.7678 C   0  0  1  0  0  0  0  0  0  0  0  0
    7.1933  -17.9078   22.8925 C   0  0  0  0  0  0  0  0  0  0  0  0
    6.8012  -18.4417   24.2450 C   0  0  0  0  0  0  0  0  0  0  0  0
    7.0133  -19.9161   24.3683 C   0  0  0  0  0  0  0  0  0  0  0  0
    6.5130  -20.4603   25.6891 C   0  0  0  0  0  0  0  0  0  0  0  0
    6.8810  -21.8696   25.7635 N   0  0  0  0  0  0  0  0  0  0  0  0
    7.8965  -15.7860   23.7788 C   0  0  0  0  0  0  0  0  0  0  0  0
    9.1236  -15.6607   23.5584 O   0  0  0  0  0  0  0  0  0  0  0  0
    6.1441  -12.1959   28.0830 C   0  0  0  0  0  0  0  0  0  0  0  0
    6.5183  -13.3640   27.2499 C   0  0  0  0  0  0  0  0  0  0  0  0
    7.7495  -13.2777   26.4377 C   0  0  2  0  0  0  0  0  0  0  0  0
    7.6765  -12.2010   25.3647 C   0  0  0  0  0  0  0  0  0  0  0  0
    8.2559  -14.5698   25.9116 C   0  0  2  0  0  0  0  0  0  0  0  0
    7.4019  -15.3022   25.0287 N   0  0  0  0  0  0  0  0  0  0  0  0
    8.6597  -15.4571   27.0539 C   0  0  0  0  0  0  0  0  0  0  0  0
    9.6485  -15.0344   27.9226 O   0  0  0  0  0  0  0  0  0  0  0  0
    8.1316  -16.5773   27.2544 O   0  0  0  0  0  0  0  0  0  0  0  0
  1  2  1  0
  2  3  1  0
  4  3  1  0
  5  1  1  0
  5  4  1  0
  5  6  1  1
  7  6  2  0
  8  6  1  0
  9  8  1  0
  9 10  1  6
 10 11  1  0
 11 12  1  0
 12 13  1  0
 13 14  1  0
 15  9  1  0
 16 15  2  0
 18 17  1  0
 18 19  1  0
 19 21  1  0
 19 20  1  6
 21 22  1  1
 22 15  1  0
 23 24  1  0
 23 21  1  0
 25 23  2  0
M  END
$$$$
