PKI.pdb
     RDKit          3D

 25 25  0  0  1  0  0  0  0  0999 V2000
    8.6952  -15.1647   18.9125 N   0  0  0  0  0  0  0  0  0  0  0  0
    8.6301  -14.6237   17.5643 C   0  0  0  0  0  0  0  0  0  0  0  0
    8.1221  -13.2178   17.6998 C   0  0  0  0  0  0  0  0  0  0  0  0
    7.2336  -13.3406   18.9470 C   0  0  0  0  0  0  0  0  0  0  0  0
    8.2050  -14.1493   19.7933 C   0  0  1  0  0  0  0  0  0  0  0  0
    7.6723  -14.6248   21.0555 C   0  0  0  0  0  0  0  0  0  0  0  0
    7.1215  -13.8425   21.9071 O   0  0  0  0  0  0  0  0  0  0  0  0
    7.7310  -15.9846   21.4223 N   0  0  0  0  0  0  0  0  0  0  0  0
    7.2078  -16.4485   22.7176 C   0  0  1  0  0  0  0  0  0  0  0  0
    7.5710  -17.9035   22.8841 C   0  0  0  0  0  0  0  0  0  0  0  0
    7.1328  -18.4734   24.2075 C   0  0  0  0  0  0  0  0  0  0  0  0
    7.5036  -19.9123   24.3686 C   0  0  0  0  0  0  0  0  0  0  0  0
    6.8848  -20.5306   25.6039 C   0  0  0  0  0  0  0  0  0  0  0  0
    7.2095  -21.9524   25.6063 N   0  0  0  0  0  0  0  0  0  0  0  0
    7.9533  -15.6997   23.7670 C   0  0  0  0  0  0  0  0  0  0  0  0
    9.1861  -15.5032   23.6586 O   0  0  0  0  0  0  0  0  0  0  0  0
    7.1722  -10.6218   27.0444 C   0  0  0  0  0  0  0  0  0  0  0  0
    7.8811  -11.8920   26.7570 C   0  0  0  0  0  0  0  0  0  0  0  0
    7.1459  -12.9570   26.0440 C   0  0  2  0  0  0  0  0  0  0  0  0
    5.8108  -13.2912   26.6935 C   0  0  0  0  0  0  0  0  0  0  0  0
    7.9386  -14.1692   25.7200 C   0  0  2  0  0  0  0  0  0  0  0  0
    7.3057  -15.1787   24.9289 N   0  0  0  0  0  0  0  0  0  0  0  0
    8.4549  -14.7889   26.9868 C   0  0  0  0  0  0  0  0  0  0  0  0
    9.4138  -14.1208   27.7252 O   0  0  0  0  0  0  0  0  0  0  0  0
    8.0480  -15.8988   27.4068 O   0  0  0  0  0  0  0  0  0  0  0  0
  1  2  1  0
  2  3  1  0
  4  3  1  0
  5  1  1  0
  5  4  1  0
  5  6  1  1
  7  6  2  0
  8  6  1  0
  9  8  1  0
  9 10  1  1
 10 11  1  0
 11 12  1  0
 12 13  1  0
 13 14  1  0
 15  9  1  0
 16 15  2  0
 18 17  1  0
 18 19  1  0
 19 21  1  0
 19 20  1  1
 21 22  1  1
 22 15  1  0
 23 24  1  0
 23 21  1  0
 25 23  2  0
M  END
$$$$
