PKI.pdb
     RDKit          3D

 25 25  0  0  1  0  0  0  0  0999 V2000
    8.4368  -15.2524   19.2348 N   0  0  0  0  0  0  0  0  0  0  0  0
    8.2589  -14.6659   17.9162 C   0  0  0  0  0  0  0  0  0  0  0  0
    7.8695  -13.2340   18.1422 C   0  0  0  0  0  0  0  0  0  0  0  0
    7.1203  -13.3362   19.4795 C   0  0  0  0  0  0  0  0  0  0  0  0
    8.1213  -14.2347   20.1898 C   0  0  1  0  0  0  0  0  0  0  0  0
    7.7016  -14.7130   21.4929 C   0  0  0  0  0  0  0  0  0  0  0  0
    7.3331  -13.9209   22.4296 O   0  0  0  0  0  0  0  0  0  0  0  0
    7.6758  -16.0868   21.8078 N   0  0  0  0  0  0  0  0  0  0  0  0
    7.1084  -16.5676   23.0781 C   0  0  1  0  0  0  0  0  0  0  0  0
    7.2493  -18.0692   23.1242 C   0  0  0  0  0  0  0  0  0  0  0  0
    6.7079  -18.6740   24.3928 C   0  0  0  0  0  0  0  0  0  0  0  0
    6.7940  -20.1660   24.4045 C   0  0  0  0  0  0  0  0  0  0  0  0
    6.2854  -20.7610   25.7001 C   0  0  0  0  0  0  0  0  0  0  0  0
    6.3622  -22.2132   25.5891 N   0  0  0  0  0  0  0  0  0  0  0  0
    7.9750  -16.0242   24.1604 C   0  0  0  0  0  0  0  0  0  0  0  0
    9.2224  -16.1188   24.0891 O   0  0  0  0  0  0  0  0  0  0  0  0
    6.0527  -11.4972   26.3261 C   0  0  0  0  0  0  0  0  0  0  0  0
    7.0186  -12.4892   25.7957 C   0  0  0  0  0  0  0  0  0  0  0  0
    7.7158  -13.3690   26.7563 C   0  0  2  0  0  0  0  0  0  0  0  0
    8.7244  -12.6229   27.6179 C   0  0  0  0  0  0  0  0  0  0  0  0
    8.2736  -14.6196   26.1840 C   0  0  2  0  0  0  0  0  0  0  0  0
    7.4309  -15.3791   25.3131 N   0  0  0  0  0  0  0  0  0  0  0  0
    8.7641  -15.5073   27.2915 C   0  0  0  0  0  0  0  0  0  0  0  0
    7.9646  -16.5459   27.7309 O   0  0  0  0  0  0  0  0  0  0  0  0
    9.8806  -15.3437   27.8398 O   0  0  0  0  0  0  0  0  0  0  0  0
  1  2  1  0
  2  3  1  0
  4  3  1  0
  5  1  1  0
  5  4  1  0
  5  6  1  1
  7  6  2  0
  8  6  1  0
  9  8  1  0
  9 10  1  6
 10 11  1  0
 11 12  1  0
 12 13  1  0
 13 14  1  0
 15  9  1  0
 16 15  2  0
 18 17  1  0
 18 19  1  0
 19 21  1  0
 19 20  1  6
 21 22  1  1
 22 15  1  0
 23 24  1  0
 23 21  1  0
 25 23  2  0
M  END
$$$$
