PKI.pdb
     RDKit          3D

 25 25  0  0  1  0  0  0  0  0999 V2000
    8.3850  -15.3387   19.2157 N   0  0  0  0  0  0  0  0  0  0  0  0
    8.3532  -14.7835   17.8722 C   0  0  0  0  0  0  0  0  0  0  0  0
    8.0725  -13.3174   18.0299 C   0  0  0  0  0  0  0  0  0  0  0  0
    7.2230  -13.3124   19.3099 C   0  0  0  0  0  0  0  0  0  0  0  0
    8.0897  -14.2672   20.1167 C   0  0  1  0  0  0  0  0  0  0  0  0
    7.5381  -14.6653   21.3974 C   0  0  0  0  0  0  0  0  0  0  0  0
    7.0749  -13.8184   22.2393 O   0  0  0  0  0  0  0  0  0  0  0  0
    7.4801  -16.0167   21.7942 N   0  0  0  0  0  0  0  0  0  0  0  0
    6.9122  -16.4060   23.0953 C   0  0  1  0  0  0  0  0  0  0  0  0
    6.9868  -17.9081   23.2170 C   0  0  0  0  0  0  0  0  0  0  0  0
    5.9178  -18.6179   22.4286 C   0  0  0  0  0  0  0  0  0  0  0  0
    6.0334  -20.1059   22.5071 C   0  0  0  0  0  0  0  0  0  0  0  0
    4.9658  -20.8090   21.6965 C   0  0  0  0  0  0  0  0  0  0  0  0
    5.2138  -22.2441   21.7743 N   0  0  0  0  0  0  0  0  0  0  0  0
    7.8194  -15.8479   24.1361 C   0  0  0  0  0  0  0  0  0  0  0  0
    9.0483  -15.7341   23.9191 O   0  0  0  0  0  0  0  0  0  0  0  0
    5.8313  -11.7220   26.9505 C   0  0  0  0  0  0  0  0  0  0  0  0
    6.7684  -12.6284   26.2443 C   0  0  0  0  0  0  0  0  0  0  0  0
    7.5783  -13.5638   27.0517 C   0  0  2  0  0  0  0  0  0  0  0  0
    8.5830  -12.8547   27.9483 C   0  0  0  0  0  0  0  0  0  0  0  0
    8.1847  -14.6912   26.3007 C   0  0  2  0  0  0  0  0  0  0  0  0
    7.3364  -15.4229   25.4117 N   0  0  0  0  0  0  0  0  0  0  0  0
    8.8327  -15.6472   27.2606 C   0  0  0  0  0  0  0  0  0  0  0  0
    8.3221  -16.9251   27.3916 O   0  0  0  0  0  0  0  0  0  0  0  0
    9.8283  -15.3309   27.9554 O   0  0  0  0  0  0  0  0  0  0  0  0
  1  2  1  0
  2  3  1  0
  4  3  1  0
  5  1  1  0
  5  4  1  0
  5  6  1  1
  7  6  2  0
  8  6  1  0
  9  8  1  0
  9 10  1  6
 10 11  1  0
 11 12  1  0
 12 13  1  0
 13 14  1  0
 15  9  1  0
 16 15  2  0
 18 17  1  0
 18 19  1  0
 19 21  1  0
 19 20  1  6
 21 22  1  1
 22 15  1  0
 23 24  1  0
 23 21  1  0
 25 23  2  0
M  END
$$$$
