PKI.pdb
     RDKit          3D

 25 25  0  0  1  0  0  0  0  0999 V2000
    8.4568  -15.1028   18.9234 N   0  0  0  0  0  0  0  0  0  0  0  0
    8.4298  -14.4919   17.6041 C   0  0  0  0  0  0  0  0  0  0  0  0
    8.2255  -13.0215   17.8261 C   0  0  0  0  0  0  0  0  0  0  0  0
    7.3996  -13.0273   19.1214 C   0  0  0  0  0  0  0  0  0  0  0  0
    8.2312  -14.0560   19.8723 C   0  0  1  0  0  0  0  0  0  0  0  0
    7.6824  -14.4789   21.1463 C   0  0  0  0  0  0  0  0  0  0  0  0
    7.2403  -13.6470   22.0141 O   0  0  0  0  0  0  0  0  0  0  0  0
    7.6041  -15.8392   21.5074 N   0  0  0  0  0  0  0  0  0  0  0  0
    6.9391  -16.2613   22.7510 C   0  0  1  0  0  0  0  0  0  0  0  0
    6.9440  -17.7691   22.8053 C   0  0  0  0  0  0  0  0  0  0  0  0
    6.1016  -18.4011   21.7286 C   0  0  0  0  0  0  0  0  0  0  0  0
    6.1951  -19.8928   21.7224 C   0  0  0  0  0  0  0  0  0  0  0  0
    5.2702  -20.5224   20.7030 C   0  0  0  0  0  0  0  0  0  0  0  0
    5.4583  -21.9677   20.7568 N   0  0  0  0  0  0  0  0  0  0  0  0
    7.8006  -15.7911   23.8712 C   0  0  0  0  0  0  0  0  0  0  0  0
    9.0494  -15.8217   23.7739 O   0  0  0  0  0  0  0  0  0  0  0  0
    5.7721  -11.7364   26.9533 C   0  0  0  0  0  0  0  0  0  0  0  0
    6.6379  -12.6443   26.1630 C   0  0  0  0  0  0  0  0  0  0  0  0
    7.5089  -13.5895   26.8916 C   0  0  2  0  0  0  0  0  0  0  0  0
    8.5486  -12.8907   27.7557 C   0  0  0  0  0  0  0  0  0  0  0  0
    8.0934  -14.6782   26.0695 C   0  0  2  0  0  0  0  0  0  0  0  0
    7.2497  -15.2907   25.0906 N   0  0  0  0  0  0  0  0  0  0  0  0
    8.6579  -15.7418   26.9671 C   0  0  0  0  0  0  0  0  0  0  0  0
    9.8623  -15.5178   27.6075 O   0  0  0  0  0  0  0  0  0  0  0  0
    8.0758  -16.8360   27.1615 O   0  0  0  0  0  0  0  0  0  0  0  0
  1  2  1  0
  2  3  1  0
  4  3  1  0
  5  1  1  0
  5  4  1  0
  5  6  1  1
  7  6  2  0
  8  6  1  0
  9  8  1  0
  9 10  1  6
 10 11  1  0
 11 12  1  0
 12 13  1  0
 13 14  1  0
 15  9  1  0
 16 15  2  0
 18 17  1  0
 18 19  1  0
 19 21  1  0
 19 20  1  6
 21 22  1  6
 22 15  1  0
 23 24  1  0
 23 21  1  0
 25 23  2  0
M  END
$$$$
