PKI.pdb
     RDKit          3D

 25 25  0  0  1  0  0  0  0  0999 V2000
    8.8031  -15.1408   18.7554 N   0  0  0  0  0  0  0  0  0  0  0  0
    8.7770  -14.5852   17.4119 C   0  0  0  0  0  0  0  0  0  0  0  0
    8.3591  -13.1510   17.5584 C   0  0  0  0  0  0  0  0  0  0  0  0
    7.4605  -13.2277   18.8020 C   0  0  0  0  0  0  0  0  0  0  0  0
    8.3756  -14.1039   19.6438 C   0  0  1  0  0  0  0  0  0  0  0  0
    7.8096  -14.5553   20.9003 C   0  0  0  0  0  0  0  0  0  0  0  0
    7.2935  -13.7485   21.7507 O   0  0  0  0  0  0  0  0  0  0  0  0
    7.7952  -15.9176   21.2625 N   0  0  0  0  0  0  0  0  0  0  0  0
    7.1891  -16.3643   22.5273 C   0  0  1  0  0  0  0  0  0  0  0  0
    7.3853  -17.8553   22.6488 C   0  0  0  0  0  0  0  0  0  0  0  0
    6.7785  -18.4303   23.9016 C   0  0  0  0  0  0  0  0  0  0  0  0
    6.9753  -19.9076   24.0139 C   0  0  0  0  0  0  0  0  0  0  0  0
    6.3531  -20.4764   25.2710 C   0  0  0  0  0  0  0  0  0  0  0  0
    6.7385  -21.8797   25.3687 N   0  0  0  0  0  0  0  0  0  0  0  0
    7.9837  -15.7388   23.6206 C   0  0  0  0  0  0  0  0  0  0  0  0
    9.2357  -15.7206   23.5715 O   0  0  0  0  0  0  0  0  0  0  0  0
    6.0690  -11.9637   27.7718 C   0  0  0  0  0  0  0  0  0  0  0  0
    6.4121  -13.1564   26.9604 C   0  0  0  0  0  0  0  0  0  0  0  0
    7.7003  -13.1626   26.2370 C   0  0  2  0  0  0  0  0  0  0  0  0
    7.7751  -12.0980   25.1521 C   0  0  0  0  0  0  0  0  0  0  0  0
    8.1548  -14.4923   25.7593 C   0  0  2  0  0  0  0  0  0  0  0  0
    7.3632  -15.1394   24.7593 N   0  0  0  0  0  0  0  0  0  0  0  0
    8.3232  -15.4190   26.9291 C   0  0  0  0  0  0  0  0  0  0  0  0
    9.3073  -15.1570   27.8638 O   0  0  0  0  0  0  0  0  0  0  0  0
    7.6005  -16.4311   27.0945 O   0  0  0  0  0  0  0  0  0  0  0  0
  1  2  1  0
  2  3  1  0
  4  3  1  0
  5  1  1  0
  5  4  1  0
  5  6  1  1
  7  6  2  0
  8  6  1  0
  9  8  1  0
  9 10  1  1
 10 11  1  0
 11 12  1  0
 12 13  1  0
 13 14  1  0
 15  9  1  0
 16 15  2  0
 18 17  1  0
 18 19  1  0
 19 21  1  0
 19 20  1  6
 21 22  1  6
 22 15  1  0
 23 24  1  0
 23 21  1  0
 25 23  2  0
M  END
$$$$
