PKI.pdb
     RDKit          3D

 25 25  0  0  1  0  0  0  0  0999 V2000
    8.4593  -15.1785   19.1360 N   0  0  0  0  0  0  0  0  0  0  0  0
    8.2640  -14.6083   17.8127 C   0  0  0  0  0  0  0  0  0  0  0  0
    7.8748  -13.1745   18.0262 C   0  0  0  0  0  0  0  0  0  0  0  0
    7.1424  -13.2618   19.3739 C   0  0  0  0  0  0  0  0  0  0  0  0
    8.1537  -14.1499   20.0824 C   0  0  1  0  0  0  0  0  0  0  0  0
    7.7511  -14.6131   21.3963 C   0  0  0  0  0  0  0  0  0  0  0  0
    7.4015  -13.8098   22.3308 O   0  0  0  0  0  0  0  0  0  0  0  0
    7.7220  -15.9836   21.7249 N   0  0  0  0  0  0  0  0  0  0  0  0
    7.1397  -16.4518   22.9932 C   0  0  1  0  0  0  0  0  0  0  0  0
    7.3196  -17.9475   23.0761 C   0  0  0  0  0  0  0  0  0  0  0  0
    6.8919  -18.5208   24.4016 C   0  0  0  0  0  0  0  0  0  0  0  0
    7.0060  -20.0102   24.4511 C   0  0  0  0  0  0  0  0  0  0  0  0
    6.4689  -20.5850   25.7442 C   0  0  0  0  0  0  0  0  0  0  0  0
    6.7938  -22.0066   25.7740 N   0  0  0  0  0  0  0  0  0  0  0  0
    7.9673  -15.8614   24.0814 C   0  0  0  0  0  0  0  0  0  0  0  0
    9.1986  -15.6878   23.9261 O   0  0  0  0  0  0  0  0  0  0  0  0
    5.7224  -11.8558   26.9002 C   0  0  0  0  0  0  0  0  0  0  0  0
    6.7388  -12.6984   26.2252 C   0  0  0  0  0  0  0  0  0  0  0  0
    7.5033  -13.6621   27.0436 C   0  0  2  0  0  0  0  0  0  0  0  0
    8.4263  -12.9855   28.0467 C   0  0  0  0  0  0  0  0  0  0  0  0
    8.1832  -14.7415   26.2851 C   0  0  2  0  0  0  0  0  0  0  0  0
    7.4029  -15.4715   25.3345 N   0  0  0  0  0  0  0  0  0  0  0  0
    8.8218  -15.7066   27.2422 C   0  0  0  0  0  0  0  0  0  0  0  0
   10.0107  -15.3627   27.8578 O   0  0  0  0  0  0  0  0  0  0  0  0
    8.3158  -16.8232   27.5087 O   0  0  0  0  0  0  0  0  0  0  0  0
  1  2  1  0
  2  3  1  0
  4  3  1  0
  5  1  1  0
  5  4  1  0
  5  6  1  1
  7  6  2  0
  8  6  1  0
  9  8  1  0
  9 10  1  6
 10 11  1  0
 11 12  1  0
 12 13  1  0
 13 14  1  0
 15  9  1  0
 16 15  2  0
 18 17  1  0
 18 19  1  0
 19 21  1  0
 19 20  1  6
 21 22  1  1
 22 15  1  0
 23 24  1  0
 23 21  1  0
 25 23  2  0
M  END
$$$$
