PKI.pdb
     RDKit          3D

 25 25  0  0  1  0  0  0  0  0999 V2000
    8.6026  -15.1561   19.0822 N   0  0  0  0  0  0  0  0  0  0  0  0
    8.5571  -14.5584   17.7573 C   0  0  0  0  0  0  0  0  0  0  0  0
    8.1179  -13.1365   17.9527 C   0  0  0  0  0  0  0  0  0  0  0  0
    7.2305  -13.2671   19.2000 C   0  0  0  0  0  0  0  0  0  0  0  0
    8.1660  -14.1549   20.0064 C   0  0  1  0  0  0  0  0  0  0  0  0
    7.6172  -14.6551   21.2520 C   0  0  0  0  0  0  0  0  0  0  0  0
    7.0888  -13.8849   22.1285 O   0  0  0  0  0  0  0  0  0  0  0  0
    7.6343  -16.0273   21.5742 N   0  0  0  0  0  0  0  0  0  0  0  0
    7.0832  -16.5189   22.8475 C   0  0  1  0  0  0  0  0  0  0  0  0
    7.2418  -18.0189   22.8874 C   0  0  0  0  0  0  0  0  0  0  0  0
    6.7740  -18.6275   24.1832 C   0  0  0  0  0  0  0  0  0  0  0  0
    6.8106  -20.1216   24.1665 C   0  0  0  0  0  0  0  0  0  0  0  0
    6.2980  -20.7235   25.4573 C   0  0  0  0  0  0  0  0  0  0  0  0
    7.4112  -20.7869   26.3974 N   0  0  0  0  0  0  0  0  0  0  0  0
    7.9526  -15.9690   23.9244 C   0  0  0  0  0  0  0  0  0  0  0  0
    9.1872  -15.8455   23.7491 O   0  0  0  0  0  0  0  0  0  0  0  0
    5.7418  -11.9652   26.6793 C   0  0  0  0  0  0  0  0  0  0  0  0
    6.7831  -12.7828   26.0117 C   0  0  0  0  0  0  0  0  0  0  0  0
    7.5856  -13.7056   26.8408 C   0  0  2  0  0  0  0  0  0  0  0  0
    8.5508  -12.9810   27.7678 C   0  0  0  0  0  0  0  0  0  0  0  0
    8.2337  -14.8202   26.1058 C   0  0  2  0  0  0  0  0  0  0  0  0
    7.4258  -15.5630   25.1887 N   0  0  0  0  0  0  0  0  0  0  0  0
    8.8676  -15.7686   27.0825 C   0  0  0  0  0  0  0  0  0  0  0  0
   10.0079  -15.3801   27.7604 O   0  0  0  0  0  0  0  0  0  0  0  0
    8.4002  -16.9103   27.3110 O   0  0  0  0  0  0  0  0  0  0  0  0
  1  2  1  0
  2  3  1  0
  4  3  1  0
  5  1  1  0
  5  4  1  0
  5  6  1  1
  7  6  2  0
  8  6  1  0
  9  8  1  0
  9 10  1  6
 10 11  1  0
 11 12  1  0
 12 13  1  0
 13 14  1  0
 15  9  1  0
 16 15  2  0
 18 17  1  0
 18 19  1  0
 19 21  1  0
 19 20  1  6
 21 22  1  1
 22 15  1  0
 23 24  1  0
 23 21  1  0
 25 23  2  0
M  END
$$$$
