PKI.pdb
     RDKit          3D

 25 25  0  0  1  0  0  0  0  0999 V2000
    8.7181  -15.1223   18.7382 N   0  0  0  0  0  0  0  0  0  0  0  0
    8.6542  -14.6162   17.3765 C   0  0  0  0  0  0  0  0  0  0  0  0
    8.4030  -13.1406   17.4881 C   0  0  0  0  0  0  0  0  0  0  0  0
    7.5937  -13.0735   18.7922 C   0  0  0  0  0  0  0  0  0  0  0  0
    8.4689  -14.0133   19.6073 C   0  0  1  0  0  0  0  0  0  0  0  0
    7.9504  -14.3544   20.9180 C   0  0  0  0  0  0  0  0  0  0  0  0
    7.7137  -13.4707   21.8145 O   0  0  0  0  0  0  0  0  0  0  0  0
    7.6760  -15.6874   21.2853 N   0  0  0  0  0  0  0  0  0  0  0  0
    7.0181  -16.0066   22.5628 C   0  0  1  0  0  0  0  0  0  0  0  0
    6.9073  -17.5069   22.6793 C   0  0  0  0  0  0  0  0  0  0  0  0
    8.2458  -18.1960   22.7207 C   0  0  0  0  0  0  0  0  0  0  0  0
    8.1288  -19.6859   22.7348 C   0  0  0  0  0  0  0  0  0  0  0  0
    9.4765  -20.3692   22.6465 C   0  0  0  0  0  0  0  0  0  0  0  0
    9.8026  -20.8936   23.9678 N   0  0  0  0  0  0  0  0  0  0  0  0
    7.9470  -15.5624   23.6388 C   0  0  0  0  0  0  0  0  0  0  0  0
    9.1699  -15.4164   23.4080 O   0  0  0  0  0  0  0  0  0  0  0  0
    5.9020  -11.8636   27.3890 C   0  0  0  0  0  0  0  0  0  0  0  0
    6.4194  -13.1443   26.8499 C   0  0  0  0  0  0  0  0  0  0  0  0
    7.7529  -13.1473   26.2138 C   0  0  2  0  0  0  0  0  0  0  0  0
    7.8667  -12.1466   25.0729 C   0  0  0  0  0  0  0  0  0  0  0  0
    8.2805  -14.4858   25.8493 C   0  0  2  0  0  0  0  0  0  0  0  0
    7.4921  -15.2865   24.9646 N   0  0  0  0  0  0  0  0  0  0  0  0
    8.5713  -15.2710   27.0960 C   0  0  0  0  0  0  0  0  0  0  0  0
    7.9827  -16.5098   27.2685 O   0  0  0  0  0  0  0  0  0  0  0  0
    9.3340  -14.8448   27.9964 O   0  0  0  0  0  0  0  0  0  0  0  0
  1  2  1  0
  2  3  1  0
  4  3  1  0
  5  1  1  0
  5  4  1  0
  5  6  1  1
  7  6  2  0
  8  6  1  0
  9  8  1  0
  9 10  1  6
 10 11  1  0
 11 12  1  0
 12 13  1  0
 13 14  1  0
 15  9  1  0
 16 15  2  0
 18 17  1  0
 18 19  1  0
 19 21  1  0
 19 20  1  6
 21 22  1  6
 22 15  1  0
 23 24  1  0
 23 21  1  0
 25 23  2  0
M  END
$$$$
