SRS.pdb
     RDKit          3D

 24 23  0  0  1  0  0  0  0  0999 V2000
   15.5188   -9.6597  -15.8396 O   0  0  0  0  0  0  0  0  0  0  0  0
   16.5849   -9.1544  -15.1192 C   0  0  0  0  0  0  0  0  0  0  0  0
   17.5541  -10.2821  -14.7298 C   0  0  2  0  0  0  0  0  0  0  0  0
   17.0661  -10.8114  -13.4621 N   0  0  0  0  0  0  0  0  0  0  0  0
   18.9124   -9.7324  -14.6312 C   0  0  0  0  0  0  0  0  0  0  0  0
   19.1943   -9.0532  -13.6164 O   0  0  0  0  0  0  0  0  0  0  0  0
   26.7957  -12.3616  -15.4444 N   0  0  0  0  0  0  0  0  0  0  0  0
   25.8404  -12.3619  -16.5112 C   0  0  0  0  0  0  0  0  0  0  0  0
   25.8418  -13.3436  -17.3371 N   0  0  0  0  0  0  0  0  0  0  0  0
   24.8987  -11.3252  -16.6871 N   0  0  0  0  0  0  0  0  0  0  0  0
   24.7592  -10.2656  -15.7000 C   0  0  0  0  0  0  0  0  0  0  0  0
   23.6713   -9.3225  -16.0834 C   0  0  0  0  0  0  0  0  0  0  0  0
   22.3360   -9.9248  -16.2326 C   0  0  0  0  0  0  0  0  0  0  0  0
   21.2112   -9.3810  -15.4296 C   0  0  2  0  0  0  0  0  0  0  0  0
   19.9207   -9.9422  -15.6453 N   0  0  0  0  0  0  0  0  0  0  0  0
   21.1095   -7.9269  -15.7663 C   0  0  0  0  0  0  0  0  0  0  0  0
   20.3875   -7.5917  -16.7153 O   0  0  0  0  0  0  0  0  0  0  0  0
   25.2295  -13.4733  -18.1468 O   0  0  0  0  0  0  0  0  0  0  0  0
   21.8255   -5.0210  -13.0254 C   0  0  0  0  0  0  0  0  0  0  0  0
   22.4935   -4.7690  -14.2402 C   0  0  2  0  0  0  0  0  0  0  0  0
   21.7857   -5.5623  -15.3211 N   0  0  0  0  0  0  0  0  0  0  0  0
   21.8148   -6.9840  -15.0216 C   0  0  0  0  0  0  0  0  0  0  0  0
   22.4039   -5.3293  -16.6348 O   0  0  0  0  0  0  0  0  0  0  0  0
   22.1907   -4.2109  -17.4256 O   0  0  0  0  0  0  0  0  0  0  0  0
  1  2  1  0
  3  2  1  0
  3  5  1  0
  3  4  1  1
  5  6  2  0
  7  8  1  0
  8  9  2  0
  8 10  1  0
 10 11  1  0
 11 12  1  0
 12 13  1  0
 14 13  1  6
 15 14  1  0
 15  5  1  0
 16 17  2  0
 16 14  1  0
 18 19  1  0
 20 19  1  1
 20 22  1  0
 20 21  1  0
 21 16  1  0
 22 23  1  0
 24 22  2  0
M  END
$$$$
