SRS.pdb
     RDKit          3D

 24 23  0  0  1  0  0  0  0  0999 V2000
   20.5124  -12.5263  -15.5731 O   0  0  0  0  0  0  0  0  0  0  0  0
   20.1268  -11.1988  -15.5828 C   0  0  0  0  0  0  0  0  0  0  0  0
   18.6922  -11.0512  -15.0514 C   0  0  2  0  0  0  0  0  0  0  0  0
   17.8143  -11.3492  -16.1766 N   0  0  0  0  0  0  0  0  0  0  0  0
   18.5113   -9.6883  -14.5349 C   0  0  0  0  0  0  0  0  0  0  0  0
   18.1614   -8.7991  -15.3457 O   0  0  0  0  0  0  0  0  0  0  0  0
   15.1279   -6.5190   -7.1898 N   0  0  0  0  0  0  0  0  0  0  0  0
   14.5708   -7.3066   -8.2481 C   0  0  0  0  0  0  0  0  0  0  0  0
   13.4921   -7.9636   -8.0228 N   0  0  0  0  0  0  0  0  0  0  0  0
   15.1622   -7.3862   -9.5273 N   0  0  0  0  0  0  0  0  0  0  0  0
   16.3845   -6.6589   -9.8331 C   0  0  0  0  0  0  0  0  0  0  0  0
   16.8108   -6.9044  -11.2395 C   0  0  0  0  0  0  0  0  0  0  0  0
   18.0309   -7.7132  -11.3982 C   0  0  0  0  0  0  0  0  0  0  0  0
   18.5408   -7.9791  -12.7676 C   0  0  2  0  0  0  0  0  0  0  0  0
   18.7190   -9.3396  -13.1477 N   0  0  0  0  0  0  0  0  0  0  0  0
   19.8847   -7.3281  -12.8572 C   0  0  0  0  0  0  0  0  0  0  0  0
   20.8261   -7.8326  -12.2300 O   0  0  0  0  0  0  0  0  0  0  0  0
   12.9449   -8.5063   -8.6961 O   0  0  0  0  0  0  0  0  0  0  0  0
   23.1538   -5.1830  -15.2902 C   0  0  0  0  0  0  0  0  0  0  0  0
   21.9154   -5.8472  -15.1862 C   0  0  1  0  0  0  0  0  0  0  0  0
   21.3509   -5.5435  -13.8123 N   0  0  0  0  0  0  0  0  0  0  0  0
   20.0586   -6.1830  -13.6317 C   0  0  0  0  0  0  0  0  0  0  0  0
   21.2085   -4.0938  -13.6108 O   0  0  0  0  0  0  0  0  0  0  0  0
   22.2372   -3.2374  -13.2499 O   0  0  0  0  0  0  0  0  0  0  0  0
  1  2  1  0
  3  2  1  0
  3  5  1  0
  3  4  1  6
  5  6  2  0
  7  8  1  0
  8  9  2  0
  8 10  1  0
 10 11  1  0
 11 12  1  0
 12 13  1  0
 14 13  1  1
 15 14  1  0
 15  5  1  0
 16 17  2  0
 16 14  1  0
 18 19  1  0
 20 19  1  1
 20 22  1  0
 20 21  1  0
 21 16  1  0
 22 23  1  0
 24 22  2  0
M  END
$$$$
