SRS.pdb
     RDKit          3D

 24 23  0  0  1  0  0  0  0  0999 V2000
   11.9325  -11.0007  -11.0925 O   0  0  0  0  0  0  0  0  0  0  0  0
   13.0474  -10.4227  -10.5148 C   0  0  0  0  0  0  0  0  0  0  0  0
   14.3326  -11.0076  -11.1220 C   0  0  2  0  0  0  0  0  0  0  0  0
   14.4978  -12.3251  -10.5199 N   0  0  0  0  0  0  0  0  0  0  0  0
   15.4534  -10.1046  -10.8301 C   0  0  0  0  0  0  0  0  0  0  0  0
   16.1496  -10.3479   -9.8169 O   0  0  0  0  0  0  0  0  0  0  0  0
   22.0377   -7.4353  -15.3331 N   0  0  0  0  0  0  0  0  0  0  0  0
   21.1988   -8.5103  -14.8957 C   0  0  0  0  0  0  0  0  0  0  0  0
   21.2792   -9.6382  -15.5018 N   0  0  0  0  0  0  0  0  0  0  0  0
   20.2895   -8.3760  -13.8245 N   0  0  0  0  0  0  0  0  0  0  0  0
   20.2002   -7.1355  -13.0698 C   0  0  0  0  0  0  0  0  0  0  0  0
   19.1816   -7.2442  -11.9879 C   0  0  0  0  0  0  0  0  0  0  0  0
   17.9824   -8.0291  -12.3253 C   0  0  0  0  0  0  0  0  0  0  0  0
   16.9182   -8.1868  -11.3013 C   0  0  2  0  0  0  0  0  0  0  0  0
   15.7784   -8.9632  -11.6551 N   0  0  0  0  0  0  0  0  0  0  0  0
   16.4208   -6.8115  -10.9864 C   0  0  0  0  0  0  0  0  0  0  0  0
   15.8323   -6.1807  -11.8752 O   0  0  0  0  0  0  0  0  0  0  0  0
   20.7348  -10.4839  -15.3124 O   0  0  0  0  0  0  0  0  0  0  0  0
   14.8658   -5.8991   -7.6855 C   0  0  0  0  0  0  0  0  0  0  0  0
   14.8322   -4.9374   -8.7149 C   0  0  1  0  0  0  0  0  0  0  0  0
   16.2012   -4.9211   -9.3663 N   0  0  0  0  0  0  0  0  0  0  0  0
   16.6212   -6.2666   -9.7199 C   0  0  0  0  0  0  0  0  0  0  0  0
   17.2016   -4.3184   -8.4729 O   0  0  0  0  0  0  0  0  0  0  0  0
   17.1847   -3.0035   -8.0339 O   0  0  0  0  0  0  0  0  0  0  0  0
  1  2  1  0
  3  2  1  0
  3  5  1  0
  3  4  1  1
  5  6  2  0
  7  8  1  0
  8  9  2  0
  8 10  1  0
 10 11  1  0
 11 12  1  0
 12 13  1  0
 14 13  1  6
 15 14  1  0
 15  5  1  0
 16 17  2  0
 16 14  1  0
 18 19  1  0
 20 19  1  6
 20 22  1  0
 20 21  1  0
 21 16  1  0
 22 23  1  0
 24 22  2  0
M  END
$$$$
