SRS.pdb
     RDKit          3D

 24 23  0  0  1  0  0  0  0  0999 V2000
   26.8821  -19.2146  -17.9007 O   0  0  0  0  0  0  0  0  0  0  0  0
   28.1373  -19.1963  -17.3218 C   0  0  0  0  0  0  0  0  0  0  0  0
   28.5378  -20.6067  -16.8605 C   0  0  2  0  0  0  0  0  0  0  0  0
   28.5235  -21.4398  -18.0569 N   0  0  0  0  0  0  0  0  0  0  0  0
   27.5873  -21.0635  -15.8384 C   0  0  0  0  0  0  0  0  0  0  0  0
   27.0423  -22.1794  -16.0060 O   0  0  0  0  0  0  0  0  0  0  0  0
   22.7687  -20.2884   -9.8584 N   0  0  0  0  0  0  0  0  0  0  0  0
   23.5533  -20.9836   -8.8829 C   0  0  0  0  0  0  0  0  0  0  0  0
   22.9491  -21.5930   -7.9292 N   0  0  0  0  0  0  0  0  0  0  0  0
   24.9634  -21.0242   -8.9316 N   0  0  0  0  0  0  0  0  0  0  0  0
   25.7000  -20.2589   -9.9257 C   0  0  0  0  0  0  0  0  0  0  0  0
   25.6251  -20.9132  -11.2622 C   0  0  0  0  0  0  0  0  0  0  0  0
   26.4603  -20.3052  -12.3114 C   0  0  0  0  0  0  0  0  0  0  0  0
   26.4250  -20.8827  -13.6792 C   0  0  2  0  0  0  0  0  0  0  0  0
   27.2619  -20.2858  -14.6643 N   0  0  0  0  0  0  0  0  0  0  0  0
   25.0179  -20.7406  -14.1671 C   0  0  0  0  0  0  0  0  0  0  0  0
   24.5940  -19.6041  -14.4180 O   0  0  0  0  0  0  0  0  0  0  0  0
   23.3730  -22.0358   -7.1097 O   0  0  0  0  0  0  0  0  0  0  0  0
   20.9694  -23.0259  -15.5298 C   0  0  0  0  0  0  0  0  0  0  0  0
   22.2600  -23.1807  -14.9859 C   0  0  2  0  0  0  0  0  0  0  0  0
   22.8353  -21.7933  -14.7792 N   0  0  0  0  0  0  0  0  0  0  0  0
   24.2157  -21.8678  -14.3311 C   0  0  0  0  0  0  0  0  0  0  0  0
   22.0450  -21.0372  -13.7963 O   0  0  0  0  0  0  0  0  0  0  0  0
   21.0167  -20.1616  -14.1086 O   0  0  0  0  0  0  0  0  0  0  0  0
  1  2  1  0
  3  2  1  0
  3  5  1  0
  3  4  1  6
  5  6  2  0
  7  8  1  0
  8  9  2  0
  8 10  1  0
 10 11  1  0
 11 12  1  0
 12 13  1  0
 14 13  1  1
 15 14  1  0
 15  5  1  0
 16 17  2  0
 16 14  1  0
 18 19  1  0
 20 19  1  6
 20 22  1  0
 20 21  1  0
 21 16  1  0
 22 23  1  0
 24 22  2  0
M  END
$$$$
