SRS.pdb
     RDKit          3D

 24 23  0  0  1  0  0  0  0  0999 V2000
   24.1431  -22.1514  -15.0764 O   0  0  0  0  0  0  0  0  0  0  0  0
   23.1982  -22.8366  -14.3356 C   0  0  0  0  0  0  0  0  0  0  0  0
   21.8086  -22.7006  -14.9782 C   0  0  2  0  0  0  0  0  0  0  0  0
   21.5108  -21.2735  -14.9931 N   0  0  0  0  0  0  0  0  0  0  0  0
   20.8401  -23.4751  -14.1914 C   0  0  0  0  0  0  0  0  0  0  0  0
   21.0708  -24.6948  -14.0195 O   0  0  0  0  0  0  0  0  0  0  0  0
   16.4128  -26.8856   -8.3778 N   0  0  0  0  0  0  0  0  0  0  0  0
   17.8377  -26.7602   -8.3100 C   0  0  0  0  0  0  0  0  0  0  0  0
   18.5189  -27.7395   -7.8379 N   0  0  0  0  0  0  0  0  0  0  0  0
   18.5193  -25.6025   -8.7430 N   0  0  0  0  0  0  0  0  0  0  0  0
   17.7907  -24.4552   -9.2619 C   0  0  0  0  0  0  0  0  0  0  0  0
   17.7056  -24.5082  -10.7484 C   0  0  0  0  0  0  0  0  0  0  0  0
   18.7520  -23.7634  -11.4684 C   0  0  0  0  0  0  0  0  0  0  0  0
   18.7347  -23.7588  -12.9535 C   0  0  2  0  0  0  0  0  0  0  0  0
   19.6489  -22.8920  -13.6168 N   0  0  0  0  0  0  0  0  0  0  0  0
   17.3612  -23.3303  -13.3636 C   0  0  0  0  0  0  0  0  0  0  0  0
   16.9634  -22.2120  -13.0096 O   0  0  0  0  0  0  0  0  0  0  0  0
   19.5331  -27.7835   -7.7080 O   0  0  0  0  0  0  0  0  0  0  0  0
   15.4659  -24.8880  -16.6237 C   0  0  0  0  0  0  0  0  0  0  0  0
   14.6459  -24.8732  -15.4778 C   0  0  2  0  0  0  0  0  0  0  0  0
   15.2085  -23.8323  -14.5299 N   0  0  0  0  0  0  0  0  0  0  0  0
   16.5606  -24.1785  -14.1257 C   0  0  0  0  0  0  0  0  0  0  0  0
   14.3628  -23.6978  -13.3344 O   0  0  0  0  0  0  0  0  0  0  0  0
   13.4054  -22.7133  -13.1456 O   0  0  0  0  0  0  0  0  0  0  0  0
  1  2  1  0
  3  2  1  0
  3  5  1  0
  3  4  1  1
  5  6  2  0
  7  8  1  0
  8  9  2  0
  8 10  1  0
 10 11  1  0
 11 12  1  0
 12 13  1  0
 14 13  1  1
 15 14  1  0
 15  5  1  0
 16 17  2  0
 16 14  1  0
 18 19  1  0
 20 19  1  6
 20 22  1  0
 20 21  1  0
 21 16  1  0
 22 23  1  0
 24 22  2  0
M  END
$$$$
