SRS.pdb
     RDKit          3D

 24 23  0  0  1  0  0  0  0  0999 V2000
   25.6803  -18.5714  -17.4520 O   0  0  0  0  0  0  0  0  0  0  0  0
   24.8520  -19.6113  -17.0730 C   0  0  0  0  0  0  0  0  0  0  0  0
   25.3863  -20.2886  -15.8008 C   0  0  2  0  0  0  0  0  0  0  0  0
   26.2994  -21.3309  -16.2538 N   0  0  0  0  0  0  0  0  0  0  0  0
   24.2544  -20.8199  -15.0306 C   0  0  0  0  0  0  0  0  0  0  0  0
   23.9650  -22.0302  -15.1789 O   0  0  0  0  0  0  0  0  0  0  0  0
   18.3454  -22.0083  -10.2831 N   0  0  0  0  0  0  0  0  0  0  0  0
   19.2709  -21.9477   -9.1920 C   0  0  0  0  0  0  0  0  0  0  0  0
   19.2012  -22.8439   -8.2766 N   0  0  0  0  0  0  0  0  0  0  0  0
   20.2554  -20.9417   -9.0867 N   0  0  0  0  0  0  0  0  0  0  0  0
   20.4537  -19.9740  -10.1547 C   0  0  0  0  0  0  0  0  0  0  0  0
   20.8378  -20.6544  -11.4233 C   0  0  0  0  0  0  0  0  0  0  0  0
   22.0045  -20.0848  -12.1180 C   0  0  0  0  0  0  0  0  0  0  0  0
   22.3835  -20.6300  -13.4465 C   0  0  2  0  0  0  0  0  0  0  0  0
   23.4735  -20.0114  -14.1219 N   0  0  0  0  0  0  0  0  0  0  0  0
   21.1862  -20.4743  -14.3298 C   0  0  0  0  0  0  0  0  0  0  0  0
   20.8886  -19.3381  -14.7228 O   0  0  0  0  0  0  0  0  0  0  0  0
   19.7981  -22.9335   -7.4501 O   0  0  0  0  0  0  0  0  0  0  0  0
   20.0000  -23.4294  -16.7295 C   0  0  0  0  0  0  0  0  0  0  0  0
   18.8813  -22.8817  -16.0707 C   0  0  2  0  0  0  0  0  0  0  0  0
   19.2773  -21.5067  -15.5696 N   0  0  0  0  0  0  0  0  0  0  0  0
   20.4340  -21.5892  -14.6940 C   0  0  0  0  0  0  0  0  0  0  0  0
   18.1656  -20.8695  -14.8480 O   0  0  0  0  0  0  0  0  0  0  0  0
   17.1203  -20.1831  -15.4463 O   0  0  0  0  0  0  0  0  0  0  0  0
  1  2  1  0
  3  2  1  0
  3  5  1  0
  3  4  1  6
  5  6  2  0
  7  8  1  0
  8  9  2  0
  8 10  1  0
 10 11  1  0
 11 12  1  0
 12 13  1  0
 14 13  1  1
 15 14  1  0
 15  5  1  0
 16 17  2  0
 16 14  1  0
 18 19  1  0
 20 19  1  6
 20 22  1  0
 20 21  1  0
 21 16  1  0
 22 23  1  0
 24 22  2  0
M  END
$$$$
