SRS.pdb
     RDKit          3D

 24 23  0  0  1  0  0  0  0  0999 V2000
   26.7803  -19.6893  -17.7661 O   0  0  0  0  0  0  0  0  0  0  0  0
   27.9796  -19.7759  -17.0841 C   0  0  0  0  0  0  0  0  0  0  0  0
   28.1906  -21.1998  -16.5452 C   0  0  2  0  0  0  0  0  0  0  0  0
   28.1241  -22.0820  -17.7040 N   0  0  0  0  0  0  0  0  0  0  0  0
   27.1529  -21.4923  -15.5479 C   0  0  0  0  0  0  0  0  0  0  0  0
   26.2489  -22.2995  -15.8665 O   0  0  0  0  0  0  0  0  0  0  0  0
   22.4165  -20.0605   -9.9942 N   0  0  0  0  0  0  0  0  0  0  0  0
   22.8579  -20.9212   -8.9383 C   0  0  0  0  0  0  0  0  0  0  0  0
   21.9858  -21.3906   -8.1229 N   0  0  0  0  0  0  0  0  0  0  0  0
   24.2136  -21.2725   -8.7620 N   0  0  0  0  0  0  0  0  0  0  0  0
   25.2486  -20.7155   -9.6195 C   0  0  0  0  0  0  0  0  0  0  0  0
   25.0536  -21.1429  -11.0334 C   0  0  0  0  0  0  0  0  0  0  0  0
   26.1308  -20.7633  -11.9628 C   0  0  0  0  0  0  0  0  0  0  0  0
   26.0246  -21.1709  -13.3870 C   0  0  2  0  0  0  0  0  0  0  0  0
   27.1357  -20.8928  -14.2327 N   0  0  0  0  0  0  0  0  0  0  0  0
   24.8550  -20.4323  -13.9569 C   0  0  0  0  0  0  0  0  0  0  0  0
   24.9395  -19.2030  -14.0820 O   0  0  0  0  0  0  0  0  0  0  0  0
   22.1580  -21.9684   -7.2960 O   0  0  0  0  0  0  0  0  0  0  0  0
   21.8835  -22.6238  -15.6746 C   0  0  0  0  0  0  0  0  0  0  0  0
   22.0726  -21.3087  -16.1441 C   0  0  1  0  0  0  0  0  0  0  0  0
   22.5748  -20.4783  -14.9792 N   0  0  0  0  0  0  0  0  0  0  0  0
   23.7057  -21.1237  -14.3341 C   0  0  0  0  0  0  0  0  0  0  0  0
   21.5089  -20.2616  -13.9896 O   0  0  0  0  0  0  0  0  0  0  0  0
   21.4961  -20.7894  -12.7078 O   0  0  0  0  0  0  0  0  0  0  0  0
  1  2  1  0
  3  2  1  0
  3  5  1  0
  3  4  1  6
  5  6  2  0
  7  8  1  0
  8  9  2  0
  8 10  1  0
 10 11  1  0
 11 12  1  0
 12 13  1  0
 14 13  1  1
 15 14  1  0
 15  5  1  0
 16 17  2  0
 16 14  1  0
 18 19  1  0
 20 19  1  6
 20 22  1  0
 20 21  1  0
 21 16  1  0
 22 23  1  0
 24 22  2  0
M  END
$$$$
