SRS.pdb
     RDKit          3D

 24 23  0  0  1  0  0  0  0  0999 V2000
   21.3446  -21.6489  -11.8346 O   0  0  0  0  0  0  0  0  0  0  0  0
   22.3487  -20.7227  -12.0461 C   0  0  0  0  0  0  0  0  0  0  0  0
   23.4589  -20.8831  -10.9953 C   0  0  2  0  0  0  0  0  0  0  0  0
   23.0293  -20.1108   -9.8358 N   0  0  0  0  0  0  0  0  0  0  0  0
   24.7259  -20.4020  -11.5610 C   0  0  0  0  0  0  0  0  0  0  0  0
   24.9253  -19.1649  -11.5762 O   0  0  0  0  0  0  0  0  0  0  0  0
   32.9077  -23.4631  -11.9435 N   0  0  0  0  0  0  0  0  0  0  0  0
   32.2070  -22.6063  -11.0349 C   0  0  0  0  0  0  0  0  0  0  0  0
   32.6618  -22.4715   -9.8428 N   0  0  0  0  0  0  0  0  0  0  0  0
   31.0378  -21.9054  -11.4010 N   0  0  0  0  0  0  0  0  0  0  0  0
   30.6488  -21.7767  -12.7970 C   0  0  0  0  0  0  0  0  0  0  0  0
   29.4493  -20.9039  -12.9357 C   0  0  0  0  0  0  0  0  0  0  0  0
   28.1976  -21.4590  -12.3941 C   0  0  0  0  0  0  0  0  0  0  0  0
   26.9328  -20.7084  -12.6009 C   0  0  2  0  0  0  0  0  0  0  0  0
   25.7360  -21.2886  -12.0928 N   0  0  0  0  0  0  0  0  0  0  0  0
   26.7518  -20.5752  -14.0800 C   0  0  0  0  0  0  0  0  0  0  0  0
   26.6462  -21.6081  -14.7554 O   0  0  0  0  0  0  0  0  0  0  0  0
   32.2548  -21.9201   -9.0827 O   0  0  0  0  0  0  0  0  0  0  0  0
   26.9469  -16.8591  -15.6163 C   0  0  0  0  0  0  0  0  0  0  0  0
   26.0769  -17.6724  -16.3694 C   0  0  1  0  0  0  0  0  0  0  0  0
   26.4443  -19.1156  -16.0854 N   0  0  0  0  0  0  0  0  0  0  0  0
   26.7042  -19.3137  -14.6695 C   0  0  0  0  0  0  0  0  0  0  0  0
   27.6286  -19.5187  -16.8583 O   0  0  0  0  0  0  0  0  0  0  0  0
   27.6578  -19.6937  -18.2332 O   0  0  0  0  0  0  0  0  0  0  0  0
  1  2  1  0
  3  2  1  0
  3  5  1  0
  3  4  1  1
  5  6  2  0
  7  8  1  0
  8  9  2  0
  8 10  1  0
 10 11  1  0
 11 12  1  0
 12 13  1  0
 14 13  1  6
 15 14  1  0
 15  5  1  0
 16 17  2  0
 16 14  1  0
 18 19  1  0
 20 19  1  1
 20 22  1  0
 20 21  1  0
 21 16  1  0
 22 23  1  0
 24 22  2  0
M  END
$$$$
