SRS.pdb
     RDKit          3D

 24 23  0  0  1  0  0  0  0  0999 V2000
   15.3568   -9.0542  -15.9239 O   0  0  0  0  0  0  0  0  0  0  0  0
   16.4478   -8.4463  -15.3315 C   0  0  0  0  0  0  0  0  0  0  0  0
   17.4096   -9.5021  -14.7634 C   0  0  2  0  0  0  0  0  0  0  0  0
   16.7118  -10.1192  -13.6418 N   0  0  0  0  0  0  0  0  0  0  0  0
   18.6596   -8.8438  -14.3623 C   0  0  0  0  0  0  0  0  0  0  0  0
   18.6566   -8.1874  -13.2948 O   0  0  0  0  0  0  0  0  0  0  0  0
   24.0107  -12.8358  -17.5068 N   0  0  0  0  0  0  0  0  0  0  0  0
   23.8512  -11.4381  -17.7742 C   0  0  0  0  0  0  0  0  0  0  0  0
   23.9887  -11.0236  -18.9805 N   0  0  0  0  0  0  0  0  0  0  0  0
   23.5479  -10.5014  -16.7627 N   0  0  0  0  0  0  0  0  0  0  0  0
   23.3103  -10.9300  -15.3928 C   0  0  0  0  0  0  0  0  0  0  0  0
   23.0123   -9.7633  -14.5155 C   0  0  0  0  0  0  0  0  0  0  0  0
   22.3429   -8.6303  -15.1760 C   0  0  0  0  0  0  0  0  0  0  0  0
   21.0106   -8.1985  -14.6817 C   0  0  2  0  0  0  0  0  0  0  0  0
   19.8747   -8.9234  -15.1411 N   0  0  0  0  0  0  0  0  0  0  0  0
   20.8270   -6.7828  -15.1291 C   0  0  0  0  0  0  0  0  0  0  0  0
   20.1874   -6.5724  -16.1687 O   0  0  0  0  0  0  0  0  0  0  0  0
   23.8832  -10.0647  -19.3224 O   0  0  0  0  0  0  0  0  0  0  0  0
   19.5703   -2.5643  -14.5811 C   0  0  0  0  0  0  0  0  0  0  0  0
   19.7274   -3.9275  -14.2607 C   0  0  1  0  0  0  0  0  0  0  0  0
   21.1203   -4.3388  -14.6957 N   0  0  0  0  0  0  0  0  0  0  0  0
   21.3673   -5.7366  -14.3843 C   0  0  0  0  0  0  0  0  0  0  0  0
   22.1423   -3.5072  -14.0428 O   0  0  0  0  0  0  0  0  0  0  0  0
   22.6166   -2.3006  -14.5336 O   0  0  0  0  0  0  0  0  0  0  0  0
  1  2  1  0
  3  2  1  0
  3  5  1  0
  3  4  1  1
  5  6  2  0
  7  8  1  0
  8  9  2  0
  8 10  1  0
 10 11  1  0
 11 12  1  0
 12 13  1  0
 14 13  1  6
 15 14  1  0
 15  5  1  0
 16 17  2  0
 16 14  1  0
 18 19  1  0
 20 19  1  6
 20 22  1  0
 20 21  1  0
 21 16  1  0
 22 23  1  0
 24 22  2  0
M  END
$$$$
