SRS.pdb
     RDKit          3D

 24 23  0  0  1  0  0  0  0  0999 V2000
   25.9828  -19.5159  -15.0839 O   0  0  0  0  0  0  0  0  0  0  0  0
   24.6475  -19.7286  -15.3715 C   0  0  0  0  0  0  0  0  0  0  0  0
   24.2460  -21.1717  -15.0269 C   0  0  2  0  0  0  0  0  0  0  0  0
   24.8544  -22.0132  -16.0502 N   0  0  0  0  0  0  0  0  0  0  0  0
   22.7807  -21.2689  -15.0083 C   0  0  0  0  0  0  0  0  0  0  0  0
   22.1659  -21.0150  -16.0703 O   0  0  0  0  0  0  0  0  0  0  0  0
   18.9771  -25.9109  -10.2176 N   0  0  0  0  0  0  0  0  0  0  0  0
   18.6154  -24.5839   -9.8193 C   0  0  0  0  0  0  0  0  0  0  0  0
   18.6911  -24.2730   -8.5769 N   0  0  0  0  0  0  0  0  0  0  0  0
   18.1804  -23.6068  -10.7405 N   0  0  0  0  0  0  0  0  0  0  0  0
   17.9452  -23.9458  -12.1356 C   0  0  0  0  0  0  0  0  0  0  0  0
   18.5080  -22.9022  -13.0378 C   0  0  0  0  0  0  0  0  0  0  0  0
   19.9700  -22.7376  -12.9794 C   0  0  0  0  0  0  0  0  0  0  0  0
   20.6299  -21.8429  -13.9641 C   0  0  2  0  0  0  0  0  0  0  0  0
   22.0327  -21.6408  -13.8287 N   0  0  0  0  0  0  0  0  0  0  0  0
   19.9862  -20.5001  -13.8201 C   0  0  0  0  0  0  0  0  0  0  0  0
   20.2943  -19.8014  -12.8449 O   0  0  0  0  0  0  0  0  0  0  0  0
   18.4741  -23.3686   -8.1498 O   0  0  0  0  0  0  0  0  0  0  0  0
   18.8114  -18.5713  -17.0228 C   0  0  0  0  0  0  0  0  0  0  0  0
   18.9317  -17.8543  -15.8158 C   0  0  1  0  0  0  0  0  0  0  0  0
   18.4317  -18.7529  -14.7017 N   0  0  0  0  0  0  0  0  0  0  0  0
   19.0651  -20.0591  -14.7678 C   0  0  0  0  0  0  0  0  0  0  0  0
   16.9720  -18.9161  -14.7727 O   0  0  0  0  0  0  0  0  0  0  0  0
   16.0464  -17.9503  -14.4090 O   0  0  0  0  0  0  0  0  0  0  0  0
  1  2  1  0
  3  2  1  0
  3  5  1  0
  3  4  1  6
  5  6  2  0
  7  8  1  0
  8  9  2  0
  8 10  1  0
 10 11  1  0
 11 12  1  0
 12 13  1  0
 14 13  1  1
 15 14  1  0
 15  5  1  0
 16 17  2  0
 16 14  1  0
 18 19  1  0
 20 19  1  1
 20 22  1  0
 20 21  1  0
 21 16  1  0
 22 23  1  0
 24 22  2  0
M  END
$$$$
