SRS.pdb
     RDKit          3D

 24 23  0  0  1  0  0  0  0  0999 V2000
   19.9176  -13.0536  -15.2091 O   0  0  0  0  0  0  0  0  0  0  0  0
   19.5247  -11.7449  -14.9997 C   0  0  0  0  0  0  0  0  0  0  0  0
   18.0933  -11.6954  -14.4419 C   0  0  2  0  0  0  0  0  0  0  0  0
   17.2139  -11.9973  -15.5648 N   0  0  0  0  0  0  0  0  0  0  0  0
   17.8487  -10.3650  -13.8700 C   0  0  0  0  0  0  0  0  0  0  0  0
   17.4360   -9.4663  -14.6396 O   0  0  0  0  0  0  0  0  0  0  0  0
   14.6429   -6.3263   -6.6320 N   0  0  0  0  0  0  0  0  0  0  0  0
   14.0997   -6.6846   -7.9076 C   0  0  0  0  0  0  0  0  0  0  0  0
   12.8283   -6.8144   -8.0197 N   0  0  0  0  0  0  0  0  0  0  0  0
   14.9090   -6.8991   -9.0441 N   0  0  0  0  0  0  0  0  0  0  0  0
   16.3558   -6.9946   -8.9253 C   0  0  0  0  0  0  0  0  0  0  0  0
   16.9916   -7.1211  -10.2667 C   0  0  0  0  0  0  0  0  0  0  0  0
   17.2399   -8.4994  -10.7212 C   0  0  0  0  0  0  0  0  0  0  0  0
   17.8704   -8.7131  -12.0489 C   0  0  2  0  0  0  0  0  0  0  0  0
   18.0630  -10.0582  -12.4739 N   0  0  0  0  0  0  0  0  0  0  0  0
   19.2263   -8.0842  -11.9844 C   0  0  0  0  0  0  0  0  0  0  0  0
   20.0205   -8.4849  -11.1226 O   0  0  0  0  0  0  0  0  0  0  0  0
   12.2976   -7.0061   -8.8735 O   0  0  0  0  0  0  0  0  0  0  0  0
   21.1974   -7.3065  -15.0793 C   0  0  0  0  0  0  0  0  0  0  0  0
   21.8251   -7.2174  -13.8209 C   0  0  1  0  0  0  0  0  0  0  0  0
   20.8900   -6.4590  -12.8994 N   0  0  0  0  0  0  0  0  0  0  0  0
   19.5736   -7.0740  -12.8789 C   0  0  0  0  0  0  0  0  0  0  0  0
   20.7643   -5.0548  -13.3174 O   0  0  0  0  0  0  0  0  0  0  0  0
   21.7929   -4.1256  -13.2987 O   0  0  0  0  0  0  0  0  0  0  0  0
  1  2  1  0
  3  2  1  0
  3  5  1  0
  3  4  1  6
  5  6  2  0
  7  8  1  0
  8  9  2  0
  8 10  1  0
 10 11  1  0
 11 12  1  0
 12 13  1  0
 14 13  1  1
 15 14  1  0
 15  5  1  0
 16 17  2  0
 16 14  1  0
 18 19  1  0
 20 19  1  1
 20 22  1  0
 20 21  1  0
 21 16  1  0
 22 23  1  0
 24 22  2  0
M  END
$$$$
