SRS.pdb
     RDKit          3D

 24 23  0  0  1  0  0  0  0  0999 V2000
   24.8853  -11.5111  -15.4556 O   0  0  0  0  0  0  0  0  0  0  0  0
   24.0398  -10.4284  -15.6094 C   0  0  0  0  0  0  0  0  0  0  0  0
   22.5716  -10.8787  -15.5457 C   0  0  2  0  0  0  0  0  0  0  0  0
   22.2452  -11.3741  -16.8775 N   0  0  0  0  0  0  0  0  0  0  0  0
   21.7385   -9.7381  -15.1435 C   0  0  0  0  0  0  0  0  0  0  0  0
   21.4357   -8.8983  -16.0230 O   0  0  0  0  0  0  0  0  0  0  0  0
   15.5847   -7.8329   -8.7565 N   0  0  0  0  0  0  0  0  0  0  0  0
   15.6915   -6.7451   -9.6816 C   0  0  0  0  0  0  0  0  0  0  0  0
   14.9174   -5.7330   -9.5321 N   0  0  0  0  0  0  0  0  0  0  0  0
   16.6153   -6.7441  -10.7489 N   0  0  0  0  0  0  0  0  0  0  0  0
   17.5633   -7.8345  -10.9189 C   0  0  0  0  0  0  0  0  0  0  0  0
   18.4243   -7.6081  -12.1136 C   0  0  0  0  0  0  0  0  0  0  0  0
   19.4540   -8.6328  -12.3540 C   0  0  0  0  0  0  0  0  0  0  0  0
   20.3202   -8.5100  -13.5543 C   0  0  2  0  0  0  0  0  0  0  0  0
   21.2622   -9.5507  -13.7918 N   0  0  0  0  0  0  0  0  0  0  0  0
   21.1065   -7.2483  -13.3866 C   0  0  0  0  0  0  0  0  0  0  0  0
   22.0686   -7.2538  -12.6066 O   0  0  0  0  0  0  0  0  0  0  0  0
   14.8713   -4.8958  -10.1190 O   0  0  0  0  0  0  0  0  0  0  0  0
   22.6548   -3.2407  -15.3314 C   0  0  0  0  0  0  0  0  0  0  0  0
   21.8579   -4.3961  -15.4558 C   0  0  2  0  0  0  0  0  0  0  0  0
   21.5354   -4.8786  -14.0552 N   0  0  0  0  0  0  0  0  0  0  0  0
   20.7541   -6.1031  -14.0975 C   0  0  0  0  0  0  0  0  0  0  0  0
   20.7943   -3.8546  -13.3038 O   0  0  0  0  0  0  0  0  0  0  0  0
   21.3753   -2.8261  -12.5783 O   0  0  0  0  0  0  0  0  0  0  0  0
  1  2  1  0
  3  2  1  0
  3  5  1  0
  3  4  1  6
  5  6  2  0
  7  8  1  0
  8  9  2  0
  8 10  1  0
 10 11  1  0
 11 12  1  0
 12 13  1  0
 14 13  1  1
 15 14  1  0
 15  5  1  0
 16 17  2  0
 16 14  1  0
 18 19  1  0
 20 19  1  1
 20 22  1  0
 20 21  1  0
 21 16  1  0
 22 23  1  0
 24 22  2  0
M  END
$$$$
