SRS.pdb
     RDKit          3D

 24 23  0  0  1  0  0  0  0  0999 V2000
   16.2931  -10.7431  -16.5170 O   0  0  0  0  0  0  0  0  0  0  0  0
   17.3116  -10.2822  -15.7038 C   0  0  0  0  0  0  0  0  0  0  0  0
   18.5645  -11.1585  -15.8615 C   0  0  2  0  0  0  0  0  0  0  0  0
   18.2907  -12.3871  -15.1257 N   0  0  0  0  0  0  0  0  0  0  0  0
   19.7270  -10.4295  -15.3380 C   0  0  0  0  0  0  0  0  0  0  0  0
   19.8147  -10.2863  -14.0962 O   0  0  0  0  0  0  0  0  0  0  0  0
   28.1954  -10.6047  -16.8051 N   0  0  0  0  0  0  0  0  0  0  0  0
   27.1775  -11.2961  -16.0726 C   0  0  0  0  0  0  0  0  0  0  0  0
   27.3818  -12.5184  -15.7410 N   0  0  0  0  0  0  0  0  0  0  0  0
   25.9608  -10.6840  -15.7017 N   0  0  0  0  0  0  0  0  0  0  0  0
   25.7050   -9.2839  -16.0034 C   0  0  0  0  0  0  0  0  0  0  0  0
   24.3760   -8.8618  -15.4787 C   0  0  0  0  0  0  0  0  0  0  0  0
   23.2222   -9.6113  -16.0033 C   0  0  0  0  0  0  0  0  0  0  0  0
   21.8571   -9.2227  -15.5661 C   0  0  2  0  0  0  0  0  0  0  0  0
   20.7579   -9.8794  -16.1888 N   0  0  0  0  0  0  0  0  0  0  0  0
   21.7116   -7.7640  -15.8646 C   0  0  0  0  0  0  0  0  0  0  0  0
   21.5950   -7.4140  -17.0470 O   0  0  0  0  0  0  0  0  0  0  0  0
   26.7088  -13.1694  -15.3278 O   0  0  0  0  0  0  0  0  0  0  0  0
   20.1951   -3.5175  -14.6158 C   0  0  0  0  0  0  0  0  0  0  0  0
   20.3140   -4.8903  -14.3207 C   0  0  2  0  0  0  0  0  0  0  0  0
   21.5383   -5.4074  -15.0503 N   0  0  0  0  0  0  0  0  0  0  0  0
   21.7085   -6.8333  -14.8278 C   0  0  0  0  0  0  0  0  0  0  0  0
   22.7500   -4.6988  -14.6122 O   0  0  0  0  0  0  0  0  0  0  0  0
   23.1926   -3.4899  -15.1264 O   0  0  0  0  0  0  0  0  0  0  0  0
  1  2  1  0
  3  2  1  0
  3  5  1  0
  3  4  1  1
  5  6  2  0
  7  8  1  0
  8  9  2  0
  8 10  1  0
 10 11  1  0
 11 12  1  0
 12 13  1  0
 14 13  1  6
 15 14  1  0
 15  5  1  0
 16 17  2  0
 16 14  1  0
 18 19  1  0
 20 19  1  6
 20 22  1  0
 20 21  1  0
 21 16  1  0
 22 23  1  0
 24 22  2  0
M  END
$$$$
