SRS.pdb
     RDKit          3D

 24 23  0  0  1  0  0  0  0  0999 V2000
   21.1713  -12.8947  -16.2141 O   0  0  0  0  0  0  0  0  0  0  0  0
   20.1769  -11.9517  -16.3956 C   0  0  0  0  0  0  0  0  0  0  0  0
   18.8211  -12.5018  -15.9248 C   0  0  2  0  0  0  0  0  0  0  0  0
   18.2774  -13.2493  -17.0523 N   0  0  0  0  0  0  0  0  0  0  0  0
   17.9642  -11.3797  -15.5205 C   0  0  0  0  0  0  0  0  0  0  0  0
   17.1884  -10.8995  -16.3795 O   0  0  0  0  0  0  0  0  0  0  0  0
   13.8489   -8.3615   -8.3005 N   0  0  0  0  0  0  0  0  0  0  0  0
   13.5806   -9.2991   -9.3491 C   0  0  0  0  0  0  0  0  0  0  0  0
   12.7042  -10.2138   -9.1462 N   0  0  0  0  0  0  0  0  0  0  0  0
   14.2421   -9.2540  -10.5952 N   0  0  0  0  0  0  0  0  0  0  0  0
   15.2837   -8.2720  -10.8544 C   0  0  0  0  0  0  0  0  0  0  0  0
   15.7636   -8.3657  -12.2618 C   0  0  0  0  0  0  0  0  0  0  0  0
   16.5806   -9.5504  -12.5735 C   0  0  0  0  0  0  0  0  0  0  0  0
   17.1627   -9.6812  -13.9336 C   0  0  2  0  0  0  0  0  0  0  0  0
   17.9820  -10.8172  -14.1892 N   0  0  0  0  0  0  0  0  0  0  0  0
   18.0210   -8.4749  -14.1490 C   0  0  0  0  0  0  0  0  0  0  0  0
   19.1302   -8.4361  -13.5992 O   0  0  0  0  0  0  0  0  0  0  0  0
   12.3703  -10.9119   -9.8160 O   0  0  0  0  0  0  0  0  0  0  0  0
   19.1992   -4.8034  -16.8978 C   0  0  0  0  0  0  0  0  0  0  0  0
   18.4025   -5.9509  -16.7127 C   0  0  2  0  0  0  0  0  0  0  0  0
   18.3706   -6.2468  -15.2261 N   0  0  0  0  0  0  0  0  0  0  0  0
   17.5709   -7.4287  -14.9516 C   0  0  0  0  0  0  0  0  0  0  0  0
   17.8265   -5.1061  -14.4743 O   0  0  0  0  0  0  0  0  0  0  0  0
   18.5716   -4.0337  -14.0091 O   0  0  0  0  0  0  0  0  0  0  0  0
  1  2  1  0
  3  2  1  0
  3  5  1  0
  3  4  1  6
  5  6  2  0
  7  8  1  0
  8  9  2  0
  8 10  1  0
 10 11  1  0
 11 12  1  0
 12 13  1  0
 14 13  1  1
 15 14  1  0
 15  5  1  0
 16 17  2  0
 16 14  1  0
 18 19  1  0
 20 19  1  6
 20 22  1  0
 20 21  1  0
 21 16  1  0
 22 23  1  0
 24 22  2  0
M  END
$$$$
