SRS.pdb
     RDKit          3D

 24 23  0  0  1  0  0  0  0  0999 V2000
   19.4326   -9.2419  -16.1929 O   0  0  0  0  0  0  0  0  0  0  0  0
   19.9264   -8.0478  -15.7018 C   0  0  0  0  0  0  0  0  0  0  0  0
   20.6457   -8.2731  -14.3623 C   0  0  2  0  0  0  0  0  0  0  0  0
   21.7027   -9.2404  -14.6316 N   0  0  0  0  0  0  0  0  0  0  0  0
   19.6734   -8.7544  -13.3724 C   0  0  0  0  0  0  0  0  0  0  0  0
   19.6153   -9.9889  -13.1646 O   0  0  0  0  0  0  0  0  0  0  0  0
   13.9498   -5.6929   -6.8320 N   0  0  0  0  0  0  0  0  0  0  0  0
   13.5716   -6.9436   -7.4179 C   0  0  0  0  0  0  0  0  0  0  0  0
   12.3776   -7.3740   -7.2304 N   0  0  0  0  0  0  0  0  0  0  0  0
   14.4610   -7.7186   -8.1930 N   0  0  0  0  0  0  0  0  0  0  0  0
   15.5360   -7.0929   -8.9477 C   0  0  0  0  0  0  0  0  0  0  0  0
   16.2331   -8.0913   -9.8063 C   0  0  0  0  0  0  0  0  0  0  0  0
   17.2322   -7.5379  -10.7355 C   0  0  0  0  0  0  0  0  0  0  0  0
   17.8971   -8.4514  -11.6995 C   0  0  2  0  0  0  0  0  0  0  0  0
   18.7944   -7.8710  -12.6402 N   0  0  0  0  0  0  0  0  0  0  0  0
   16.8081   -9.1045  -12.4904 C   0  0  0  0  0  0  0  0  0  0  0  0
   16.2341   -8.4386  -13.3629 O   0  0  0  0  0  0  0  0  0  0  0  0
   11.9666   -8.2389   -7.5915 O   0  0  0  0  0  0  0  0  0  0  0  0
   14.8988  -13.1856  -14.0587 C   0  0  0  0  0  0  0  0  0  0  0  0
   15.9219  -12.5562  -13.3220 C   0  0  1  0  0  0  0  0  0  0  0  0
   15.4630  -11.1424  -13.0234 N   0  0  0  0  0  0  0  0  0  0  0  0
   16.4591  -10.4301  -12.2412 C   0  0  0  0  0  0  0  0  0  0  0  0
   14.1852  -11.1469  -12.2956 O   0  0  0  0  0  0  0  0  0  0  0  0
   12.9342  -11.0630  -12.8870 O   0  0  0  0  0  0  0  0  0  0  0  0
  1  2  1  0
  3  2  1  0
  3  5  1  0
  3  4  1  6
  5  6  2  0
  7  8  1  0
  8  9  2  0
  8 10  1  0
 10 11  1  0
 11 12  1  0
 12 13  1  0
 14 13  1  1
 15 14  1  0
 15  5  1  0
 16 17  2  0
 16 14  1  0
 18 19  1  0
 20 19  1  6
 20 22  1  0
 20 21  1  0
 21 16  1  0
 22 23  1  0
 24 22  2  0
M  END
$$$$
