SRS.pdb
     RDKit          3D

 24 23  0  0  1  0  0  0  0  0999 V2000
   20.2665  -20.8724  -14.5894 O   0  0  0  0  0  0  0  0  0  0  0  0
   19.7335  -22.1469  -14.6405 C   0  0  0  0  0  0  0  0  0  0  0  0
   20.5830  -23.1192  -13.8066 C   0  0  2  0  0  0  0  0  0  0  0  0
   21.3607  -23.8961  -14.7643 N   0  0  0  0  0  0  0  0  0  0  0  0
   19.6919  -23.9525  -12.9890 C   0  0  0  0  0  0  0  0  0  0  0  0
   19.2037  -24.9779  -13.5186 O   0  0  0  0  0  0  0  0  0  0  0  0
   18.2362  -25.4517   -4.2988 N   0  0  0  0  0  0  0  0  0  0  0  0
   18.5372  -26.5435   -5.1752 C   0  0  0  0  0  0  0  0  0  0  0  0
   18.9999  -27.6279   -4.6695 N   0  0  0  0  0  0  0  0  0  0  0  0
   18.3433  -26.4717   -6.5716 N   0  0  0  0  0  0  0  0  0  0  0  0
   17.7700  -25.2848   -7.1873 C   0  0  0  0  0  0  0  0  0  0  0  0
   17.7080  -25.4323   -8.6686 C   0  0  0  0  0  0  0  0  0  0  0  0
   18.6003  -24.5425   -9.4303 C   0  0  0  0  0  0  0  0  0  0  0  0
   18.5115  -24.5374  -10.9129 C   0  0  2  0  0  0  0  0  0  0  0  0
   19.3620  -23.6387  -11.6172 N   0  0  0  0  0  0  0  0  0  0  0  0
   17.1058  -24.1570  -11.2556 C   0  0  0  0  0  0  0  0  0  0  0  0
   16.7565  -22.9808  -11.0860 O   0  0  0  0  0  0  0  0  0  0  0  0
   19.1883  -28.5081   -5.1567 O   0  0  0  0  0  0  0  0  0  0  0  0
   14.6842  -27.0885  -12.6744 C   0  0  0  0  0  0  0  0  0  0  0  0
   14.3919  -25.8190  -13.2116 C   0  0  1  0  0  0  0  0  0  0  0  0
   14.8877  -24.7821  -12.2229 N   0  0  0  0  0  0  0  0  0  0  0  0
   16.2225  -25.1126  -11.7532 C   0  0  0  0  0  0  0  0  0  0  0  0
   13.9792  -24.6767  -11.0714 O   0  0  0  0  0  0  0  0  0  0  0  0
   14.3448  -24.8816   -9.7500 O   0  0  0  0  0  0  0  0  0  0  0  0
  1  2  1  0
  3  2  1  0
  3  5  1  0
  3  4  1  6
  5  6  2  0
  7  8  1  0
  8  9  2  0
  8 10  1  0
 10 11  1  0
 11 12  1  0
 12 13  1  0
 14 13  1  1
 15 14  1  0
 15  5  1  0
 16 17  2  0
 16 14  1  0
 18 19  1  0
 20 19  1  6
 20 22  1  0
 20 21  1  0
 21 16  1  0
 22 23  1  0
 24 22  2  0
M  END
$$$$
