SRS.pdb
     RDKit          3D

 24 23  0  0  1  0  0  0  0  0999 V2000
   27.1393   -9.8207  -15.6980 O   0  0  0  0  0  0  0  0  0  0  0  0
   26.9517  -10.9510  -16.4714 C   0  0  0  0  0  0  0  0  0  0  0  0
   25.5586  -11.5499  -16.2201 C   0  0  2  0  0  0  0  0  0  0  0  0
   25.4628  -12.7205  -17.0838 N   0  0  0  0  0  0  0  0  0  0  0  0
   24.5404  -10.5356  -16.5223 C   0  0  0  0  0  0  0  0  0  0  0  0
   24.2711  -10.3206  -17.7271 O   0  0  0  0  0  0  0  0  0  0  0  0
   17.0303  -12.2582  -14.6410 N   0  0  0  0  0  0  0  0  0  0  0  0
   17.8351  -12.7720  -15.7083 C   0  0  0  0  0  0  0  0  0  0  0  0
   17.3846  -13.7543  -16.3996 N   0  0  0  0  0  0  0  0  0  0  0  0
   19.1022  -12.2386  -16.0280 N   0  0  0  0  0  0  0  0  0  0  0  0
   19.5083  -10.9300  -15.5390 C   0  0  0  0  0  0  0  0  0  0  0  0
   20.8801  -10.5892  -16.0102 C   0  0  0  0  0  0  0  0  0  0  0  0
   21.4105   -9.3011  -15.5333 C   0  0  0  0  0  0  0  0  0  0  0  0
   22.7968   -8.9167  -15.9022 C   0  0  2  0  0  0  0  0  0  0  0  0
   23.8479   -9.7875  -15.4976 N   0  0  0  0  0  0  0  0  0  0  0  0
   23.0605   -7.5943  -15.2542 C   0  0  0  0  0  0  0  0  0  0  0  0
   23.5789   -7.5831  -14.1294 O   0  0  0  0  0  0  0  0  0  0  0  0
   17.8421  -14.2184  -17.1887 O   0  0  0  0  0  0  0  0  0  0  0  0
   23.4794   -4.1913  -17.4561 C   0  0  0  0  0  0  0  0  0  0  0  0
   22.6388   -4.0070  -16.3402 C   0  0  2  0  0  0  0  0  0  0  0  0
   22.9659   -5.0982  -15.3399 N   0  0  0  0  0  0  0  0  0  0  0  0
   22.7266   -6.4124  -15.9121 C   0  0  0  0  0  0  0  0  0  0  0  0
   22.1645   -4.9474  -14.1161 O   0  0  0  0  0  0  0  0  0  0  0  0
   22.6167   -4.3779  -12.9359 O   0  0  0  0  0  0  0  0  0  0  0  0
  1  2  1  0
  3  2  1  0
  3  5  1  0
  3  4  1  6
  5  6  2  0
  7  8  1  0
  8  9  2  0
  8 10  1  0
 10 11  1  0
 11 12  1  0
 12 13  1  0
 14 13  1  1
 15 14  1  0
 15  5  1  0
 16 17  2  0
 16 14  1  0
 18 19  1  0
 20 19  1  6
 20 22  1  0
 20 21  1  0
 21 16  1  0
 22 23  1  0
 24 22  2  0
M  END
$$$$
