SRS.pdb
     RDKit          3D

 24 23  0  0  1  0  0  0  0  0999 V2000
   27.9819  -18.5631  -15.7603 O   0  0  0  0  0  0  0  0  0  0  0  0
   27.2269  -18.4128  -14.6121 C   0  0  0  0  0  0  0  0  0  0  0  0
   25.7512  -18.1696  -14.9664 C   0  0  2  0  0  0  0  0  0  0  0  0
   25.3440  -19.3014  -15.7904 N   0  0  0  0  0  0  0  0  0  0  0  0
   25.6332  -16.8846  -15.6676 C   0  0  0  0  0  0  0  0  0  0  0  0
   25.6672  -16.8984  -16.9202 O   0  0  0  0  0  0  0  0  0  0  0  0
   20.2551  -10.3687  -14.9067 N   0  0  0  0  0  0  0  0  0  0  0  0
   20.4358  -11.7765  -15.0966 C   0  0  0  0  0  0  0  0  0  0  0  0
   19.4306  -12.5542  -14.9216 N   0  0  0  0  0  0  0  0  0  0  0  0
   21.6755  -12.3392  -15.4692 N   0  0  0  0  0  0  0  0  0  0  0  0
   22.8094  -11.4933  -15.8088 C   0  0  0  0  0  0  0  0  0  0  0  0
   23.9893  -12.3168  -16.1955 C   0  0  0  0  0  0  0  0  0  0  0  0
   24.1849  -13.5481  -15.4122 C   0  0  0  0  0  0  0  0  0  0  0  0
   25.3127  -14.4486  -15.7632 C   0  0  2  0  0  0  0  0  0  0  0  0
   25.4819  -15.6237  -14.9773 N   0  0  0  0  0  0  0  0  0  0  0  0
   26.5651  -13.6448  -15.6099 C   0  0  0  0  0  0  0  0  0  0  0  0
   27.1153  -13.6183  -14.5006 O   0  0  0  0  0  0  0  0  0  0  0  0
   19.4159  -13.5748  -14.9967 O   0  0  0  0  0  0  0  0  0  0  0  0
   30.5332  -11.9627  -17.4001 C   0  0  0  0  0  0  0  0  0  0  0  0
   29.3730  -12.7492  -17.5453 C   0  0  2  0  0  0  0  0  0  0  0  0
   28.3171  -12.1764  -16.6203 N   0  0  0  0  0  0  0  0  0  0  0  0
   27.0887  -12.9487  -16.6974 C   0  0  0  0  0  0  0  0  0  0  0  0
   28.0311  -10.7730  -16.9536 O   0  0  0  0  0  0  0  0  0  0  0  0
   28.6637   -9.6774  -16.3870 O   0  0  0  0  0  0  0  0  0  0  0  0
  1  2  1  0
  3  2  1  0
  3  5  1  0
  3  4  1  6
  5  6  2  0
  7  8  1  0
  8  9  2  0
  8 10  1  0
 10 11  1  0
 11 12  1  0
 12 13  1  0
 14 13  1  1
 15 14  1  0
 15  5  1  0
 16 17  2  0
 16 14  1  0
 18 19  1  0
 20 19  1  1
 20 22  1  0
 20 21  1  0
 21 16  1  0
 22 23  1  0
 24 22  2  0
M  END
$$$$
