YEH.pdb
     RDKit          3D

 32 33  0  0  1  0  0  0  0  0999 V2000
    7.4102  -11.4205   27.5553 O   0  0  0  0  0  0  0  0  0  0  0  0
    7.2261  -12.3561   26.5611 C   0  0  0  0  0  0  0  0  0  0  0  0
    8.1792  -12.5417   25.5700 C   0  0  0  0  0  0  0  0  0  0  0  0
    7.9825  -13.4817   24.5807 C   0  0  0  0  0  0  0  0  0  0  0  0
    6.8525  -14.2693   24.5260 C   0  0  0  0  0  0  0  0  0  0  0  0
    6.6980  -15.2529   23.4356 C   0  0  0  0  0  0  0  0  0  0  0  0
    6.7869  -16.6841   23.8776 C   0  0  2  0  0  0  0  0  0  0  0  0
    6.0195  -16.7785   25.1302 N   0  0  0  0  0  0  0  0  0  0  0  0
    8.1988  -17.0733   24.1247 C   0  0  0  0  0  0  0  0  0  0  0  0
    8.6161  -17.3460   25.2803 O   0  0  0  0  0  0  0  0  0  0  0  0
    5.9085  -14.0805   25.5133 C   0  0  0  0  0  0  0  0  0  0  0  0
    6.0912  -13.1376   26.5176 C   0  0  0  0  0  0  0  0  0  0  0  0
    9.1607  -17.1612   23.0824 N   0  0  0  0  0  0  0  0  0  0  0  0
   10.5046  -17.7018   23.2792 C   0  0  1  0  0  0  0  0  0  0  0  0
   11.1418  -17.9763   21.9421 C   0  0  0  0  0  0  0  0  0  0  0  0
   11.4943  -16.7172   21.2181 C   0  0  0  0  0  0  0  0  0  0  0  0
   12.1953  -16.9074   19.9429 C   0  0  0  0  0  0  0  0  0  0  0  0
   12.5038  -16.0164   19.1285 O   0  0  0  0  0  0  0  0  0  0  0  0
   11.3526  -16.7037   24.0136 C   0  0  0  0  0  0  0  0  0  0  0  0
   11.1326  -15.4910   23.8382 O   0  0  0  0  0  0  0  0  0  0  0  0
   12.5513  -18.2266   19.6117 O   0  0  0  0  0  0  0  0  0  0  0  0
   12.3822  -17.0984   24.8891 N   0  0  0  0  0  0  0  0  0  0  0  0
   13.2201  -16.0734   25.5875 C   0  0  1  0  0  0  0  0  0  0  0  0
   12.9093  -16.1391   27.0374 C   0  0  0  0  0  0  0  0  0  0  0  0
   11.7595  -15.3701   27.5095 C   0  0  0  0  0  0  0  0  0  0  0  0
   10.9027  -14.4932   26.9271 C   0  0  0  0  0  0  0  0  0  0  0  0
    9.9915  -14.1380   27.8668 N   0  0  0  0  0  0  0  0  0  0  0  0
   10.2619  -14.7719   29.0112 C   0  0  0  0  0  0  0  0  0  0  0  0
   11.3279  -15.5159   28.7979 N   0  0  0  0  0  0  0  0  0  0  0  0
   14.6062  -16.5707   25.3297 C   0  0  0  0  0  0  0  0  0  0  0  0
   15.7180  -15.8822   25.7736 O   0  0  0  0  0  0  0  0  0  0  0  0
   14.7886  -17.6229   24.7052 O   0  0  0  0  0  0  0  0  0  0  0  0
  2  1  1  0
  2  3  2  0
  4  3  1  0
  5  4  2  0
  6  5  1  0
  6  7  1  0
  7  8  1  1
  9  7  1  0
  9 10  2  0
 11 12  2  0
 11  5  1  0
 12  2  1  0
 13  9  1  0
 14 13  1  0
 14 15  1  6
 16 15  1  0
 16 17  1  0
 17 18  2  0
 19 14  1  0
 20 19  2  0
 21 17  1  0
 22 19  1  0
 23 24  1  1
 23 22  1  0
 25 24  1  0
 26 25  2  0
 27 28  1  0
 27 26  1  0
 28 29  2  0
 29 25  1  0
 30 23  1  0
 31 30  1  0
 32 30  2  0
M  END
$$$$
