YEH.pdb
     RDKit          3D

 32 33  0  0  1  0  0  0  0  0999 V2000
    7.2852  -11.9266   17.4255 O   0  0  0  0  0  0  0  0  0  0  0  0
    7.7107  -12.7598   18.4366 C   0  0  0  0  0  0  0  0  0  0  0  0
    6.8159  -13.5764   19.1130 C   0  0  0  0  0  0  0  0  0  0  0  0
    7.2552  -14.4057   20.1231 C   0  0  0  0  0  0  0  0  0  0  0  0
    8.5783  -14.4653   20.5055 C   0  0  0  0  0  0  0  0  0  0  0  0
    8.9837  -15.3690   21.6006 C   0  0  0  0  0  0  0  0  0  0  0  0
    9.5764  -16.6688   21.1413 C   0  0  2  0  0  0  0  0  0  0  0  0
    8.4965  -17.3957   20.4543 N   0  0  0  0  0  0  0  0  0  0  0  0
   10.0602  -17.4658   22.2975 C   0  0  0  0  0  0  0  0  0  0  0  0
    9.2858  -18.2021   22.9623 O   0  0  0  0  0  0  0  0  0  0  0  0
    9.4631  -13.6513   19.8300 C   0  0  0  0  0  0  0  0  0  0  0  0
    9.0370  -12.8099   18.8096 C   0  0  0  0  0  0  0  0  0  0  0  0
   11.4155  -17.4478   22.7242 N   0  0  0  0  0  0  0  0  0  0  0  0
   11.9018  -18.2119   23.8718 C   0  0  1  0  0  0  0  0  0  0  0  0
   13.4080  -18.2361   23.8636 C   0  0  0  0  0  0  0  0  0  0  0  0
   13.9533  -18.8775   22.6287 C   0  0  0  0  0  0  0  0  0  0  0  0
   15.2071  -18.3011   22.1292 C   0  0  0  0  0  0  0  0  0  0  0  0
   15.3200  -17.4266   21.2490 O   0  0  0  0  0  0  0  0  0  0  0  0
   11.4440  -17.5634   25.1463 C   0  0  0  0  0  0  0  0  0  0  0  0
   11.1492  -16.3541   25.1274 O   0  0  0  0  0  0  0  0  0  0  0  0
   16.3951  -18.7871   22.7030 O   0  0  0  0  0  0  0  0  0  0  0  0
   11.3393  -18.2801   26.3538 N   0  0  0  0  0  0  0  0  0  0  0  0
   10.2623  -17.9531   27.3404 C   0  0  1  0  0  0  0  0  0  0  0  0
    8.9576  -18.3078   26.7280 C   0  0  0  0  0  0  0  0  0  0  0  0
    8.2066  -17.2311   26.0856 C   0  0  0  0  0  0  0  0  0  0  0  0
    8.4210  -15.9029   25.9058 C   0  0  0  0  0  0  0  0  0  0  0  0
    7.3810  -15.4230   25.1795 N   0  0  0  0  0  0  0  0  0  0  0  0
    6.5325  -16.4179   24.9057 C   0  0  0  0  0  0  0  0  0  0  0  0
    7.0286  -17.5096   25.4511 N   0  0  0  0  0  0  0  0  0  0  0  0
   10.5766  -18.8815   28.4693 C   0  0  0  0  0  0  0  0  0  0  0  0
   10.0013  -18.7290   29.7154 O   0  0  0  0  0  0  0  0  0  0  0  0
   11.3689  -19.8179   28.3086 O   0  0  0  0  0  0  0  0  0  0  0  0
  2  1  1  0
  2  3  2  0
  4  3  1  0
  5  4  2  0
  6  5  1  0
  6  7  1  0
  7  8  1  1
  9  7  1  0
  9 10  2  0
 11 12  2  0
 11  5  1  0
 12  2  1  0
 13  9  1  0
 14 13  1  0
 14 15  1  1
 16 15  1  0
 16 17  1  0
 17 18  2  0
 19 14  1  0
 20 19  2  0
 21 17  1  0
 22 19  1  0
 23 24  1  6
 23 22  1  0
 25 24  1  0
 26 25  2  0
 27 28  1  0
 27 26  1  0
 28 29  2  0
 29 25  1  0
 30 23  1  0
 31 30  1  0
 32 30  2  0
M  END
$$$$
