YEH.pdb
     RDKit          3D

 32 33  0  0  1  0  0  0  0  0999 V2000
    8.0918  -12.3166   17.5473 O   0  0  0  0  0  0  0  0  0  0  0  0
    8.0483  -12.9550   18.7672 C   0  0  0  0  0  0  0  0  0  0  0  0
    8.5403  -14.2436   18.9167 C   0  0  0  0  0  0  0  0  0  0  0  0
    8.4907  -14.8710   20.1434 C   0  0  0  0  0  0  0  0  0  0  0  0
    7.9608  -14.2634   21.2616 C   0  0  0  0  0  0  0  0  0  0  0  0
    7.9299  -14.9923   22.5453 C   0  0  0  0  0  0  0  0  0  0  0  0
    7.7195  -16.4719   22.4107 C   0  0  2  0  0  0  0  0  0  0  0  0
    6.3214  -16.6539   21.9874 N   0  0  0  0  0  0  0  0  0  0  0  0
    7.9428  -17.1570   23.7094 C   0  0  0  0  0  0  0  0  0  0  0  0
    7.0071  -17.3341   24.5321 O   0  0  0  0  0  0  0  0  0  0  0  0
    7.4731  -12.9828   21.1073 C   0  0  0  0  0  0  0  0  0  0  0  0
    7.5156  -12.3361   19.8780 C   0  0  0  0  0  0  0  0  0  0  0  0
    9.2156  -17.6512   24.1036 N   0  0  0  0  0  0  0  0  0  0  0  0
    9.4412  -18.3660   25.3586 C   0  0  1  0  0  0  0  0  0  0  0  0
   10.1254  -19.6785   25.0790 C   0  0  0  0  0  0  0  0  0  0  0  0
   11.3536  -19.5058   24.2450 C   0  0  0  0  0  0  0  0  0  0  0  0
   12.0923  -20.7417   23.9608 C   0  0  0  0  0  0  0  0  0  0  0  0
   11.7555  -21.8960   24.2867 O   0  0  0  0  0  0  0  0  0  0  0  0
   10.3260  -17.5508   26.2571 C   0  0  0  0  0  0  0  0  0  0  0  0
   11.0807  -16.7050   25.7426 O   0  0  0  0  0  0  0  0  0  0  0  0
   13.2983  -20.6044   23.2512 O   0  0  0  0  0  0  0  0  0  0  0  0
   10.3258  -17.7152   27.6555 N   0  0  0  0  0  0  0  0  0  0  0  0
   11.2215  -16.8826   28.5185 C   0  0  1  0  0  0  0  0  0  0  0  0
   10.4032  -15.7966   29.1135 C   0  0  0  0  0  0  0  0  0  0  0  0
    9.8697  -14.7863   28.2020 C   0  0  0  0  0  0  0  0  0  0  0  0
   10.4136  -13.7537   27.5091 C   0  0  0  0  0  0  0  0  0  0  0  0
    9.4182  -13.1910   26.7798 N   0  0  0  0  0  0  0  0  0  0  0  0
    8.2767  -13.8482   27.0027 C   0  0  0  0  0  0  0  0  0  0  0  0
    8.5467  -14.8112   27.8601 N   0  0  0  0  0  0  0  0  0  0  0  0
   11.6382  -17.8572   29.5728 C   0  0  0  0  0  0  0  0  0  0  0  0
   11.2393  -19.1789   29.5371 O   0  0  0  0  0  0  0  0  0  0  0  0
   12.3583  -17.4955   30.5113 O   0  0  0  0  0  0  0  0  0  0  0  0
  2  1  1  0
  2  3  2  0
  4  3  1  0
  5  4  2  0
  6  5  1  0
  6  7  1  0
  7  8  1  1
  9  7  1  0
  9 10  2  0
 11 12  2  0
 11  5  1  0
 12  2  1  0
 13  9  1  0
 14 13  1  0
 14 15  1  6
 16 15  1  0
 16 17  1  0
 17 18  2  0
 19 14  1  0
 20 19  2  0
 21 17  1  0
 22 19  1  0
 23 24  1  1
 23 22  1  0
 25 24  1  0
 26 25  2  0
 27 28  1  0
 27 26  1  0
 28 29  2  0
 29 25  1  0
 30 23  1  0
 31 30  1  0
 32 30  2  0
M  END
$$$$
