YEH.pdb
     RDKit          3D

 32 33  0  0  1  0  0  0  0  0999 V2000
    9.9985  -11.8211   19.1060 O   0  0  0  0  0  0  0  0  0  0  0  0
    9.0611  -12.7294   19.5462 C   0  0  0  0  0  0  0  0  0  0  0  0
    8.7256  -12.8147   20.8899 C   0  0  0  0  0  0  0  0  0  0  0  0
    7.7855  -13.7283   21.3171 C   0  0  0  0  0  0  0  0  0  0  0  0
    7.1436  -14.5864   20.4499 C   0  0  0  0  0  0  0  0  0  0  0  0
    6.1517  -15.5476   20.9717 C   0  0  0  0  0  0  0  0  0  0  0  0
    6.5852  -16.9824   20.9007 C   0  0  2  0  0  0  0  0  0  0  0  0
    5.4162  -17.7873   21.2910 N   0  0  0  0  0  0  0  0  0  0  0  0
    7.7074  -17.2416   21.8385 C   0  0  0  0  0  0  0  0  0  0  0  0
    7.5064  -17.4985   23.0539 O   0  0  0  0  0  0  0  0  0  0  0  0
    7.4810  -14.4973   19.1158 C   0  0  0  0  0  0  0  0  0  0  0  0
    8.4263  -13.5822   18.6685 C   0  0  0  0  0  0  0  0  0  0  0  0
    9.0676  -17.2155   21.4280 N   0  0  0  0  0  0  0  0  0  0  0  0
   10.1613  -17.7235   22.2544 C   0  0  1  0  0  0  0  0  0  0  0  0
   11.4600  -17.6167   21.4987 C   0  0  0  0  0  0  0  0  0  0  0  0
   12.5999  -18.2233   22.2514 C   0  0  0  0  0  0  0  0  0  0  0  0
   13.8814  -18.2370   21.5362 C   0  0  0  0  0  0  0  0  0  0  0  0
   14.1077  -18.7733   20.4346 O   0  0  0  0  0  0  0  0  0  0  0  0
   10.2731  -16.9068   23.5093 C   0  0  0  0  0  0  0  0  0  0  0  0
   10.6450  -15.7222   23.4184 O   0  0  0  0  0  0  0  0  0  0  0  0
   14.9564  -17.5795   22.1595 O   0  0  0  0  0  0  0  0  0  0  0  0
    9.9712  -17.4396   24.7772 N   0  0  0  0  0  0  0  0  0  0  0  0
   10.0443  -16.5793   25.9998 C   0  0  1  0  0  0  0  0  0  0  0  0
    8.6564  -16.2689   26.4247 C   0  0  0  0  0  0  0  0  0  0  0  0
    7.9615  -15.2013   25.7080 C   0  0  0  0  0  0  0  0  0  0  0  0
    8.3098  -14.3446   24.7145 C   0  0  0  0  0  0  0  0  0  0  0  0
    7.2132  -13.6022   24.4217 N   0  0  0  0  0  0  0  0  0  0  0  0
    6.1989  -13.9778   25.2057 C   0  0  0  0  0  0  0  0  0  0  0  0
    6.6479  -14.9425   25.9823 N   0  0  0  0  0  0  0  0  0  0  0  0
   10.6991  -17.4906   26.9876 C   0  0  0  0  0  0  0  0  0  0  0  0
   11.0290  -17.0649   28.2593 O   0  0  0  0  0  0  0  0  0  0  0  0
   10.9625  -18.6602   26.6827 O   0  0  0  0  0  0  0  0  0  0  0  0
  2  1  1  0
  2  3  2  0
  4  3  1  0
  5  4  2  0
  6  5  1  0
  6  7  1  0
  7  8  1  1
  9  7  1  0
  9 10  2  0
 11 12  2  0
 11  5  1  0
 12  2  1  0
 13  9  1  0
 14 13  1  0
 14 15  1  6
 16 15  1  0
 16 17  1  0
 17 18  2  0
 19 14  1  0
 20 19  2  0
 21 17  1  0
 22 19  1  0
 23 24  1  1
 23 22  1  0
 25 24  1  0
 26 25  2  0
 27 28  1  0
 27 26  1  0
 28 29  2  0
 29 25  1  0
 30 23  1  0
 31 30  1  0
 32 30  2  0
M  END
$$$$
