YEH.pdb
     RDKit          3D

 32 33  0  0  1  0  0  0  0  0999 V2000
    5.4929  -11.8514   18.8947 O   0  0  0  0  0  0  0  0  0  0  0  0
    6.7532  -12.3823   19.0598 C   0  0  0  0  0  0  0  0  0  0  0  0
    7.7503  -12.1600   18.1209 C   0  0  0  0  0  0  0  0  0  0  0  0
    9.0075  -12.6972   18.2983 C   0  0  0  0  0  0  0  0  0  0  0  0
    9.3325  -13.4670   19.3948 C   0  0  0  0  0  0  0  0  0  0  0  0
   10.6955  -14.0202   19.5226 C   0  0  0  0  0  0  0  0  0  0  0  0
   11.1833  -14.7486   18.3048 C   0  0  2  0  0  0  0  0  0  0  0  0
   10.1929  -15.8019   18.0285 N   0  0  0  0  0  0  0  0  0  0  0  0
   12.5120  -15.3635   18.5546 C   0  0  0  0  0  0  0  0  0  0  0  0
   12.6282  -16.4636   19.1548 O   0  0  0  0  0  0  0  0  0  0  0  0
    8.3378  -13.6849   20.3247 C   0  0  0  0  0  0  0  0  0  0  0  0
    7.0654  -13.1507   20.1610 C   0  0  0  0  0  0  0  0  0  0  0  0
   13.7263  -14.7549   18.1369 N   0  0  0  0  0  0  0  0  0  0  0  0
   15.0438  -15.3129   18.4364 C   0  0  1  0  0  0  0  0  0  0  0  0
   16.0459  -14.8181   17.4264 C   0  0  0  0  0  0  0  0  0  0  0  0
   15.8838  -15.4867   16.0995 C   0  0  0  0  0  0  0  0  0  0  0  0
   16.9324  -15.1852   15.1180 C   0  0  0  0  0  0  0  0  0  0  0  0
   18.1586  -15.3399   15.2749 O   0  0  0  0  0  0  0  0  0  0  0  0
   15.4863  -14.8698   19.8012 C   0  0  0  0  0  0  0  0  0  0  0  0
   15.4549  -13.6554   20.0729 O   0  0  0  0  0  0  0  0  0  0  0  0
   16.5065  -14.6710   13.8807 O   0  0  0  0  0  0  0  0  0  0  0  0
   15.9326  -15.7833   20.7753 N   0  0  0  0  0  0  0  0  0  0  0  0
   16.2562  -15.3186   22.1608 C   0  0  1  0  0  0  0  0  0  0  0  0
   15.7992  -16.3625   23.1120 C   0  0  0  0  0  0  0  0  0  0  0  0
   14.3621  -16.4557   23.3614 C   0  0  0  0  0  0  0  0  0  0  0  0
   13.2770  -15.7730   22.9156 C   0  0  0  0  0  0  0  0  0  0  0  0
   12.1825  -16.3549   23.4661 N   0  0  0  0  0  0  0  0  0  0  0  0
   12.5623  -17.3774   24.2375 C   0  0  0  0  0  0  0  0  0  0  0  0
   13.8767  -17.4402   24.1756 N   0  0  0  0  0  0  0  0  0  0  0  0
   17.7497  -15.2587   22.1324 C   0  0  0  0  0  0  0  0  0  0  0  0
   18.4803  -14.8518   23.2315 O   0  0  0  0  0  0  0  0  0  0  0  0
   18.3704  -15.5766   21.1107 O   0  0  0  0  0  0  0  0  0  0  0  0
  2  1  1  0
  2  3  2  0
  4  3  1  0
  5  4  2  0
  6  5  1  0
  6  7  1  0
  7  8  1  1
  9  7  1  0
  9 10  2  0
 11 12  2  0
 11  5  1  0
 12  2  1  0
 13  9  1  0
 14 13  1  0
 14 15  1  6
 16 15  1  0
 16 17  1  0
 17 18  2  0
 19 14  1  0
 20 19  2  0
 21 17  1  0
 22 19  1  0
 23 24  1  1
 23 22  1  0
 25 24  1  0
 26 25  2  0
 27 28  1  0
 27 26  1  0
 28 29  2  0
 29 25  1  0
 30 23  1  0
 31 30  1  0
 32 30  2  0
M  END
$$$$
