YEH.pdb
     RDKit          3D

 32 33  0  0  1  0  0  0  0  0999 V2000
    7.0879  -12.3708   16.7209 O   0  0  0  0  0  0  0  0  0  0  0  0
    7.3446  -13.1043   17.8583 C   0  0  0  0  0  0  0  0  0  0  0  0
    7.1165  -14.4725   17.8922 C   0  0  0  0  0  0  0  0  0  0  0  0
    7.3778  -15.1948   19.0371 C   0  0  0  0  0  0  0  0  0  0  0  0
    7.8688  -14.6076   20.1836 C   0  0  0  0  0  0  0  0  0  0  0  0
    8.1206  -15.4356   21.3799 C   0  0  0  0  0  0  0  0  0  0  0  0
    9.5614  -15.5006   21.7941 C   0  0  2  0  0  0  0  0  0  0  0  0
   10.3269  -15.8221   20.5786 N   0  0  0  0  0  0  0  0  0  0  0  0
    9.7702  -16.5611   22.8128 C   0  0  0  0  0  0  0  0  0  0  0  0
    9.0528  -16.6367   23.8440 O   0  0  0  0  0  0  0  0  0  0  0  0
    8.0934  -13.2475   20.1444 C   0  0  0  0  0  0  0  0  0  0  0  0
    7.8356  -12.5048   18.9985 C   0  0  0  0  0  0  0  0  0  0  0  0
   10.7845  -17.5489   22.6905 N   0  0  0  0  0  0  0  0  0  0  0  0
   11.0649  -18.5387   23.7291 C   0  0  1  0  0  0  0  0  0  0  0  0
   11.9020  -19.6522   23.1559 C   0  0  0  0  0  0  0  0  0  0  0  0
   11.4141  -20.0878   21.8120 C   0  0  0  0  0  0  0  0  0  0  0  0
   12.2171  -21.1331   21.1667 C   0  0  0  0  0  0  0  0  0  0  0  0
   13.3601  -20.9987   20.6896 O   0  0  0  0  0  0  0  0  0  0  0  0
   11.8306  -17.8974   24.8503 C   0  0  0  0  0  0  0  0  0  0  0  0
   12.7389  -17.0940   24.5688 O   0  0  0  0  0  0  0  0  0  0  0  0
   11.6348  -22.4098   21.0803 O   0  0  0  0  0  0  0  0  0  0  0  0
   11.5518  -18.1775   26.2017 N   0  0  0  0  0  0  0  0  0  0  0  0
   11.4380  -17.0679   27.1998 C   0  0  1  0  0  0  0  0  0  0  0  0
   10.3305  -16.1778   26.7702 C   0  0  0  0  0  0  0  0  0  0  0  0
    9.9629  -15.0869   27.6706 C   0  0  0  0  0  0  0  0  0  0  0  0
   10.4065  -14.6694   28.8836 C   0  0  0  0  0  0  0  0  0  0  0  0
    9.7062  -13.5533   29.2048 N   0  0  0  0  0  0  0  0  0  0  0  0
    8.8446  -13.2705   28.2238 C   0  0  0  0  0  0  0  0  0  0  0  0
    8.9979  -14.1942   27.2972 N   0  0  0  0  0  0  0  0  0  0  0  0
   11.0613  -17.8025   28.4461 C   0  0  0  0  0  0  0  0  0  0  0  0
   10.7419  -19.1459   28.4277 O   0  0  0  0  0  0  0  0  0  0  0  0
   11.0274  -17.2148   29.5341 O   0  0  0  0  0  0  0  0  0  0  0  0
  2  1  1  0
  2  3  2  0
  4  3  1  0
  5  4  2  0
  6  5  1  0
  6  7  1  0
  7  8  1  6
  9  7  1  0
  9 10  2  0
 11 12  2  0
 11  5  1  0
 12  2  1  0
 13  9  1  0
 14 13  1  0
 14 15  1  6
 16 15  1  0
 16 17  1  0
 17 18  2  0
 19 14  1  0
 20 19  2  0
 21 17  1  0
 22 19  1  0
 23 24  1  6
 23 22  1  0
 25 24  1  0
 26 25  2  0
 27 28  1  0
 27 26  1  0
 28 29  2  0
 29 25  1  0
 30 23  1  0
 31 30  1  0
 32 30  2  0
M  END
$$$$
