YEH.pdb
     RDKit          3D

 32 33  0  0  1  0  0  0  0  0999 V2000
    6.7881  -11.8763   17.5836 O   0  0  0  0  0  0  0  0  0  0  0  0
    7.1633  -12.5951   18.6972 C   0  0  0  0  0  0  0  0  0  0  0  0
    6.2233  -13.2751   19.4583 C   0  0  0  0  0  0  0  0  0  0  0  0
    6.6124  -13.9909   20.5705 C   0  0  0  0  0  0  0  0  0  0  0  0
    7.9279  -14.0667   20.9757 C   0  0  0  0  0  0  0  0  0  0  0  0
    8.2788  -14.8439   22.1811 C   0  0  0  0  0  0  0  0  0  0  0  0
    8.8278  -16.2111   21.8964 C   0  0  2  0  0  0  0  0  0  0  0  0
    7.6908  -17.0262   21.4387 N   0  0  0  0  0  0  0  0  0  0  0  0
    9.4125  -16.8108   23.1229 C   0  0  0  0  0  0  0  0  0  0  0  0
    8.6965  -17.3899   23.9807 O   0  0  0  0  0  0  0  0  0  0  0  0
    8.8578  -13.3889   20.2158 C   0  0  0  0  0  0  0  0  0  0  0  0
    8.4825  -12.6629   19.0919 C   0  0  0  0  0  0  0  0  0  0  0  0
   10.8047  -16.7691   23.4049 N   0  0  0  0  0  0  0  0  0  0  0  0
   11.3994  -17.3916   24.5863 C   0  0  1  0  0  0  0  0  0  0  0  0
   12.8789  -17.5767   24.3718 C   0  0  0  0  0  0  0  0  0  0  0  0
   13.1707  -18.5649   23.2892 C   0  0  0  0  0  0  0  0  0  0  0  0
   14.5954  -18.7801   23.0098 C   0  0  0  0  0  0  0  0  0  0  0  0
   15.0731  -19.5460   22.1511 O   0  0  0  0  0  0  0  0  0  0  0  0
   11.1998  -16.5070   25.7831 C   0  0  0  0  0  0  0  0  0  0  0  0
   11.3466  -15.2783   25.6472 O   0  0  0  0  0  0  0  0  0  0  0  0
   15.5068  -18.0481   23.7909 O   0  0  0  0  0  0  0  0  0  0  0  0
   10.8536  -17.0248   27.0458 N   0  0  0  0  0  0  0  0  0  0  0  0
   10.5828  -16.1056   28.1956 C   0  0  1  0  0  0  0  0  0  0  0  0
    9.1154  -15.8985   28.2800 C   0  0  0  0  0  0  0  0  0  0  0  0
    8.5503  -14.7984   27.5011 C   0  0  0  0  0  0  0  0  0  0  0  0
    9.0793  -13.7496   26.8210 C   0  0  0  0  0  0  0  0  0  0  0  0
    8.0479  -13.0835   26.2448 N   0  0  0  0  0  0  0  0  0  0  0  0
    6.8987  -13.6926   26.5496 C   0  0  0  0  0  0  0  0  0  0  0  0
    7.1994  -14.7275   27.3072 N   0  0  0  0  0  0  0  0  0  0  0  0
   11.0625  -16.9093   29.3613 C   0  0  0  0  0  0  0  0  0  0  0  0
   11.1975  -16.3542   30.6186 O   0  0  0  0  0  0  0  0  0  0  0  0
   11.3523  -18.1039   29.2223 O   0  0  0  0  0  0  0  0  0  0  0  0
  2  1  1  0
  2  3  2  0
  4  3  1  0
  5  4  2  0
  6  5  1  0
  6  7  1  0
  7  8  1  1
  9  7  1  0
  9 10  2  0
 11 12  2  0
 11  5  1  0
 12  2  1  0
 13  9  1  0
 14 13  1  0
 14 15  1  6
 16 15  1  0
 16 17  1  0
 17 18  2  0
 19 14  1  0
 20 19  2  0
 21 17  1  0
 22 19  1  0
 23 24  1  1
 23 22  1  0
 25 24  1  0
 26 25  2  0
 27 28  1  0
 27 26  1  0
 28 29  2  0
 29 25  1  0
 30 23  1  0
 31 30  1  0
 32 30  2  0
M  END
$$$$
