YEH.pdb
     RDKit          3D

 32 33  0  0  1  0  0  0  0  0999 V2000
    7.9443  -12.1251   17.2651 O   0  0  0  0  0  0  0  0  0  0  0  0
    7.8697  -12.8364   18.4424 C   0  0  0  0  0  0  0  0  0  0  0  0
    7.7955  -12.1863   19.6659 C   0  0  0  0  0  0  0  0  0  0  0  0
    7.7213  -12.9104   20.8368 C   0  0  0  0  0  0  0  0  0  0  0  0
    7.7171  -14.2888   20.8525 C   0  0  0  0  0  0  0  0  0  0  0  0
    7.6435  -15.0059   22.1411 C   0  0  0  0  0  0  0  0  0  0  0  0
    7.8931  -16.4822   22.0417 C   0  0  2  0  0  0  0  0  0  0  0  0
    6.5689  -17.1225   21.9854 N   0  0  0  0  0  0  0  0  0  0  0  0
    8.6366  -16.9729   23.2301 C   0  0  0  0  0  0  0  0  0  0  0  0
    8.0401  -17.4193   24.2443 O   0  0  0  0  0  0  0  0  0  0  0  0
    7.7913  -14.9297   19.6337 C   0  0  0  0  0  0  0  0  0  0  0  0
    7.8666  -14.2150   18.4444 C   0  0  0  0  0  0  0  0  0  0  0  0
   10.0560  -16.9692   23.2985 N   0  0  0  0  0  0  0  0  0  0  0  0
   10.8019  -17.4840   24.4455 C   0  0  1  0  0  0  0  0  0  0  0  0
   12.2778  -17.4535   24.1461 C   0  0  0  0  0  0  0  0  0  0  0  0
   13.0809  -18.1351   25.2064 C   0  0  0  0  0  0  0  0  0  0  0  0
   14.5112  -18.2768   24.9100 C   0  0  0  0  0  0  0  0  0  0  0  0
   15.3600  -17.3649   24.9088 O   0  0  0  0  0  0  0  0  0  0  0  0
   10.5433  -16.6237   25.6488 C   0  0  0  0  0  0  0  0  0  0  0  0
   10.2779  -15.4199   25.4750 O   0  0  0  0  0  0  0  0  0  0  0  0
   14.9632  -19.5707   24.5965 O   0  0  0  0  0  0  0  0  0  0  0  0
   10.5923  -17.1371   26.9590 N   0  0  0  0  0  0  0  0  0  0  0  0
   10.2387  -16.2716   28.1278 C   0  0  1  0  0  0  0  0  0  0  0  0
    8.7922  -15.9506   28.0384 C   0  0  0  0  0  0  0  0  0  0  0  0
    8.4189  -14.7538   27.2871 C   0  0  0  0  0  0  0  0  0  0  0  0
    9.0846  -13.6410   26.8859 C   0  0  0  0  0  0  0  0  0  0  0  0
    8.2145  -12.8903   26.1657 N   0  0  0  0  0  0  0  0  0  0  0  0
    7.0319  -13.5094   26.1107 C   0  0  0  0  0  0  0  0  0  0  0  0
    7.1530  -14.6338   26.7863 N   0  0  0  0  0  0  0  0  0  0  0  0
   10.4988  -17.1823   29.2844 C   0  0  0  0  0  0  0  0  0  0  0  0
   10.5492  -16.7110   30.5816 O   0  0  0  0  0  0  0  0  0  0  0  0
   10.6766  -18.3928   29.1015 O   0  0  0  0  0  0  0  0  0  0  0  0
  2  1  1  0
  2  3  2  0
  4  3  1  0
  5  4  2  0
  6  5  1  0
  6  7  1  0
  7  8  1  1
  9  7  1  0
  9 10  2  0
 11 12  2  0
 11  5  1  0
 12  2  1  0
 13  9  1  0
 14 13  1  0
 14 15  1  6
 16 15  1  0
 16 17  1  0
 17 18  2  0
 19 14  1  0
 20 19  2  0
 21 17  1  0
 22 19  1  0
 23 24  1  6
 23 22  1  0
 25 24  1  0
 26 25  2  0
 27 28  1  0
 27 26  1  0
 28 29  2  0
 29 25  1  0
 30 23  1  0
 31 30  1  0
 32 30  2  0
M  END
$$$$
