YEH.pdb
     RDKit          3D

 32 33  0  0  1  0  0  0  0  0999 V2000
    7.3279  -11.7304   17.7383 O   0  0  0  0  0  0  0  0  0  0  0  0
    7.7611  -12.6216   18.6952 C   0  0  0  0  0  0  0  0  0  0  0  0
    6.8582  -13.3887   19.4173 C   0  0  0  0  0  0  0  0  0  0  0  0
    7.3052  -14.2771   20.3722 C   0  0  0  0  0  0  0  0  0  0  0  0
    8.6442  -14.4458   20.6533 C   0  0  0  0  0  0  0  0  0  0  0  0
    9.0581  -15.4083   21.6937 C   0  0  0  0  0  0  0  0  0  0  0  0
    9.9020  -16.5408   21.1869 C   0  0  2  0  0  0  0  0  0  0  0  0
    9.0343  -17.3422   20.3086 N   0  0  0  0  0  0  0  0  0  0  0  0
   10.3890  -17.3802   22.3112 C   0  0  0  0  0  0  0  0  0  0  0  0
    9.6725  -18.2798   22.8223 O   0  0  0  0  0  0  0  0  0  0  0  0
    9.5371  -13.6807   19.9328 C   0  0  0  0  0  0  0  0  0  0  0  0
    9.1033  -12.7808   18.9668 C   0  0  0  0  0  0  0  0  0  0  0  0
   11.6827  -17.2227   22.8778 N   0  0  0  0  0  0  0  0  0  0  0  0
   12.1912  -18.0693   23.9556 C   0  0  1  0  0  0  0  0  0  0  0  0
   13.6352  -17.7353   24.2247 C   0  0  0  0  0  0  0  0  0  0  0  0
   14.5335  -18.1942   23.1219 C   0  0  0  0  0  0  0  0  0  0  0  0
   15.9581  -17.8993   23.3155 C   0  0  0  0  0  0  0  0  0  0  0  0
   16.8860  -18.7296   23.3580 O   0  0  0  0  0  0  0  0  0  0  0  0
   11.4046  -17.8233   25.2107 C   0  0  0  0  0  0  0  0  0  0  0  0
   11.2978  -16.6553   25.6279 O   0  0  0  0  0  0  0  0  0  0  0  0
   16.3048  -16.5454   23.4681 O   0  0  0  0  0  0  0  0  0  0  0  0
   10.7887  -18.8695   25.9238 N   0  0  0  0  0  0  0  0  0  0  0  0
   10.1556  -18.6116   27.2554 C   0  0  1  0  0  0  0  0  0  0  0  0
    8.7160  -18.9578   27.1523 C   0  0  0  0  0  0  0  0  0  0  0  0
    7.8617  -18.0438   26.3966 C   0  0  0  0  0  0  0  0  0  0  0  0
    7.9109  -16.7173   26.1132 C   0  0  0  0  0  0  0  0  0  0  0  0
    6.8512  -16.4378   25.3143 N   0  0  0  0  0  0  0  0  0  0  0  0
    6.1511  -17.5546   25.0965 C   0  0  0  0  0  0  0  0  0  0  0  0
    6.7590  -18.5247   25.7482 N   0  0  0  0  0  0  0  0  0  0  0  0
   10.8641  -19.5902   28.1360 C   0  0  0  0  0  0  0  0  0  0  0  0
   10.6057  -19.6664   29.4905 O   0  0  0  0  0  0  0  0  0  0  0  0
   11.7075  -20.3622   27.6637 O   0  0  0  0  0  0  0  0  0  0  0  0
  2  1  1  0
  2  3  2  0
  4  3  1  0
  5  4  2  0
  6  5  1  0
  6  7  1  0
  7  8  1  6
  9  7  1  0
  9 10  2  0
 11 12  2  0
 11  5  1  0
 12  2  1  0
 13  9  1  0
 14 13  1  0
 14 15  1  1
 16 15  1  0
 16 17  1  0
 17 18  2  0
 19 14  1  0
 20 19  2  0
 21 17  1  0
 22 19  1  0
 23 24  1  6
 23 22  1  0
 25 24  1  0
 26 25  2  0
 27 28  1  0
 27 26  1  0
 28 29  2  0
 29 25  1  0
 30 23  1  0
 31 30  1  0
 32 30  2  0
M  END
$$$$
