YEH.pdb
     RDKit          3D

 32 33  0  0  1  0  0  0  0  0999 V2000
    7.6739  -12.5541   24.8573 O   0  0  0  0  0  0  0  0  0  0  0  0
    7.5366  -13.3526   23.7432 C   0  0  0  0  0  0  0  0  0  0  0  0
    7.1623  -14.6835   23.8604 C   0  0  0  0  0  0  0  0  0  0  0  0
    7.0285  -15.4716   22.7371 C   0  0  0  0  0  0  0  0  0  0  0  0
    7.2551  -14.9886   21.4660 C   0  0  0  0  0  0  0  0  0  0  0  0
    7.1022  -15.8864   20.3037 C   0  0  0  0  0  0  0  0  0  0  0  0
    8.3959  -16.4143   19.7567 C   0  0  2  0  0  0  0  0  0  0  0  0
    8.0374  -17.4539   18.7782 N   0  0  0  0  0  0  0  0  0  0  0  0
    9.2229  -17.0081   20.8381 C   0  0  0  0  0  0  0  0  0  0  0  0
    8.8827  -18.0694   21.4225 O   0  0  0  0  0  0  0  0  0  0  0  0
    7.6271  -13.6653   21.3555 C   0  0  0  0  0  0  0  0  0  0  0  0
    7.7663  -12.8572   22.4774 C   0  0  0  0  0  0  0  0  0  0  0  0
   10.4397  -16.4212   21.2791 N   0  0  0  0  0  0  0  0  0  0  0  0
   11.2826  -17.0140   22.3160 C   0  0  1  0  0  0  0  0  0  0  0  0
   12.6540  -16.3922   22.2717 C   0  0  0  0  0  0  0  0  0  0  0  0
   13.5727  -16.9839   23.2914 C   0  0  0  0  0  0  0  0  0  0  0  0
   14.9912  -16.6482   23.1209 C   0  0  0  0  0  0  0  0  0  0  0  0
   15.9330  -17.4553   23.0028 O   0  0  0  0  0  0  0  0  0  0  0  0
   10.6857  -16.7525   23.6687 C   0  0  0  0  0  0  0  0  0  0  0  0
   10.5031  -15.5727   24.0217 O   0  0  0  0  0  0  0  0  0  0  0  0
   15.3142  -15.2803   23.0889 O   0  0  0  0  0  0  0  0  0  0  0  0
   10.3293  -17.7971   24.5429 N   0  0  0  0  0  0  0  0  0  0  0  0
    9.7192  -17.4970   25.8764 C   0  0  1  0  0  0  0  0  0  0  0  0
    8.4679  -18.2864   25.9951 C   0  0  0  0  0  0  0  0  0  0  0  0
    7.3589  -17.9162   25.1180 C   0  0  0  0  0  0  0  0  0  0  0  0
    6.6670  -16.7693   24.8983 C   0  0  0  0  0  0  0  0  0  0  0  0
    5.7686  -17.0246   23.9148 N   0  0  0  0  0  0  0  0  0  0  0  0
    5.8881  -18.2957   23.5215 C   0  0  0  0  0  0  0  0  0  0  0  0
    6.8470  -18.8354   24.2458 N   0  0  0  0  0  0  0  0  0  0  0  0
   10.7544  -18.0179   26.8209 C   0  0  0  0  0  0  0  0  0  0  0  0
   10.6000  -17.9235   28.1900 O   0  0  0  0  0  0  0  0  0  0  0  0
   11.7841  -18.5514   26.3903 O   0  0  0  0  0  0  0  0  0  0  0  0
  2  1  1  0
  2  3  2  0
  4  3  1  0
  5  4  2  0
  6  5  1  0
  6  7  1  0
  7  8  1  6
  9  7  1  0
  9 10  2  0
 11 12  2  0
 11  5  1  0
 12  2  1  0
 13  9  1  0
 14 13  1  0
 14 15  1  1
 16 15  1  0
 16 17  1  0
 17 18  2  0
 19 14  1  0
 20 19  2  0
 21 17  1  0
 22 19  1  0
 23 24  1  6
 23 22  1  0
 25 24  1  0
 26 25  2  0
 27 28  1  0
 27 26  1  0
 28 29  2  0
 29 25  1  0
 30 23  1  0
 31 30  1  0
 32 30  2  0
M  END
$$$$
