YEH.pdb
     RDKit          3D

 32 33  0  0  1  0  0  0  0  0999 V2000
    7.5266  -12.2281   16.5047 O   0  0  0  0  0  0  0  0  0  0  0  0
    7.7745  -12.9142   17.6732 C   0  0  0  0  0  0  0  0  0  0  0  0
    7.3930  -12.3938   18.9015 C   0  0  0  0  0  0  0  0  0  0  0  0
    7.6472  -13.0910   20.0634 C   0  0  0  0  0  0  0  0  0  0  0  0
    8.2802  -14.3156   20.0652 C   0  0  0  0  0  0  0  0  0  0  0  0
    8.5302  -15.0085   21.3449 C   0  0  0  0  0  0  0  0  0  0  0  0
    8.3458  -16.4965   21.2880 C   0  0  2  0  0  0  0  0  0  0  0  0
    6.9021  -16.7281   21.1187 N   0  0  0  0  0  0  0  0  0  0  0  0
    8.8112  -17.1344   22.5460 C   0  0  0  0  0  0  0  0  0  0  0  0
    8.0187  -17.3887   23.4899 O   0  0  0  0  0  0  0  0  0  0  0  0
    8.6573  -14.8280   18.8417 C   0  0  0  0  0  0  0  0  0  0  0  0
    8.4086  -14.1383   17.6613 C   0  0  0  0  0  0  0  0  0  0  0  0
   10.1686  -17.4944   22.7633 N   0  0  0  0  0  0  0  0  0  0  0  0
   10.6310  -18.1744   23.9720 C   0  0  1  0  0  0  0  0  0  0  0  0
   12.0360  -18.6767   23.7655 C   0  0  0  0  0  0  0  0  0  0  0  0
   12.0939  -19.7930   22.7733 C   0  0  0  0  0  0  0  0  0  0  0  0
   13.4383  -20.3147   22.5005 C   0  0  0  0  0  0  0  0  0  0  0  0
   14.3813  -19.6910   21.9771 O   0  0  0  0  0  0  0  0  0  0  0  0
   10.6344  -17.2146   25.1267 C   0  0  0  0  0  0  0  0  0  0  0  0
   11.3829  -16.2212   25.0738 O   0  0  0  0  0  0  0  0  0  0  0  0
   13.6808  -21.6501   22.8670 O   0  0  0  0  0  0  0  0  0  0  0  0
    9.8204  -17.4054   26.2595 N   0  0  0  0  0  0  0  0  0  0  0  0
    9.9021  -16.4646   27.4209 C   0  0  1  0  0  0  0  0  0  0  0  0
    8.5869  -15.7900   27.5566 C   0  0  0  0  0  0  0  0  0  0  0  0
    8.2941  -14.7037   26.6238 C   0  0  0  0  0  0  0  0  0  0  0  0
    8.9964  -14.0827   25.6422 C   0  0  0  0  0  0  0  0  0  0  0  0
    8.1712  -13.1679   25.0752 N   0  0  0  0  0  0  0  0  0  0  0  0
    6.9800  -13.2084   25.6786 C   0  0  0  0  0  0  0  0  0  0  0  0
    7.0517  -14.1343   26.6129 N   0  0  0  0  0  0  0  0  0  0  0  0
   10.1288  -17.3976   28.5668 C   0  0  0  0  0  0  0  0  0  0  0  0
   10.3802  -16.9319   29.8424 O   0  0  0  0  0  0  0  0  0  0  0  0
   10.0956  -18.6221   28.3942 O   0  0  0  0  0  0  0  0  0  0  0  0
  2  1  1  0
  2  3  2  0
  4  3  1  0
  5  4  2  0
  6  5  1  0
  6  7  1  0
  7  8  1  1
  9  7  1  0
  9 10  2  0
 11 12  2  0
 11  5  1  0
 12  2  1  0
 13  9  1  0
 14 13  1  0
 14 15  1  6
 16 15  1  0
 16 17  1  0
 17 18  2  0
 19 14  1  0
 20 19  2  0
 21 17  1  0
 22 19  1  0
 23 24  1  1
 23 22  1  0
 25 24  1  0
 26 25  2  0
 27 28  1  0
 27 26  1  0
 28 29  2  0
 29 25  1  0
 30 23  1  0
 31 30  1  0
 32 30  2  0
M  END
$$$$
