YEH.pdb
     RDKit          3D

 32 33  0  0  1  0  0  0  0  0999 V2000
    7.9777  -11.3661   17.6983 O   0  0  0  0  0  0  0  0  0  0  0  0
    7.9593  -12.3331   18.6792 C   0  0  0  0  0  0  0  0  0  0  0  0
    9.1185  -12.6876   19.3542 C   0  0  0  0  0  0  0  0  0  0  0  0
    9.0861  -13.6571   20.3339 C   0  0  0  0  0  0  0  0  0  0  0  0
    7.9248  -14.3110   20.6863 C   0  0  0  0  0  0  0  0  0  0  0  0
    7.9580  -15.3459   21.7390 C   0  0  0  0  0  0  0  0  0  0  0  0
    8.4598  -16.6821   21.2760 C   0  0  2  0  0  0  0  0  0  0  0  0
    7.2712  -17.4568   20.8837 N   0  0  0  0  0  0  0  0  0  0  0  0
    9.1768  -17.3847   22.3706 C   0  0  0  0  0  0  0  0  0  0  0  0
    8.5710  -18.1253   23.1880 O   0  0  0  0  0  0  0  0  0  0  0  0
    6.7757  -13.9548   20.0121 C   0  0  0  0  0  0  0  0  0  0  0  0
    6.7910  -12.9797   19.0222 C   0  0  0  0  0  0  0  0  0  0  0  0
   10.5796  -17.2664   22.5644 N   0  0  0  0  0  0  0  0  0  0  0  0
   11.3032  -17.9764   23.6176 C   0  0  1  0  0  0  0  0  0  0  0  0
   12.7304  -18.1998   23.1906 C   0  0  0  0  0  0  0  0  0  0  0  0
   13.4337  -16.9166   22.8864 C   0  0  0  0  0  0  0  0  0  0  0  0
   14.8980  -16.9754   22.9638 C   0  0  0  0  0  0  0  0  0  0  0  0
   15.6372  -16.1945   23.5930 O   0  0  0  0  0  0  0  0  0  0  0  0
   11.3063  -17.1561   24.8753 C   0  0  0  0  0  0  0  0  0  0  0  0
   11.3324  -15.9153   24.7776 O   0  0  0  0  0  0  0  0  0  0  0  0
   15.5238  -18.0168   22.2562 O   0  0  0  0  0  0  0  0  0  0  0  0
   11.2808  -17.7470   26.1531 N   0  0  0  0  0  0  0  0  0  0  0  0
   10.4101  -17.1846   27.2329 C   0  0  1  0  0  0  0  0  0  0  0  0
    8.9994  -17.2864   26.7827 C   0  0  0  0  0  0  0  0  0  0  0  0
    8.3558  -16.0586   26.3197 C   0  0  0  0  0  0  0  0  0  0  0  0
    8.6451  -14.7371   26.4315 C   0  0  0  0  0  0  0  0  0  0  0  0
    7.6939  -14.0583   25.7432 N   0  0  0  0  0  0  0  0  0  0  0  0
    6.8275  -14.9239   25.2095 C   0  0  0  0  0  0  0  0  0  0  0  0
    7.2250  -16.1311   25.5558 N   0  0  0  0  0  0  0  0  0  0  0  0
   10.6641  -18.1270   28.3653 C   0  0  0  0  0  0  0  0  0  0  0  0
   10.3774  -17.7846   29.6721 O   0  0  0  0  0  0  0  0  0  0  0  0
   11.1425  -19.2478   28.1526 O   0  0  0  0  0  0  0  0  0  0  0  0
  2  1  1  0
  2  3  2  0
  4  3  1  0
  5  4  2  0
  6  5  1  0
  6  7  1  0
  7  8  1  1
  9  7  1  0
  9 10  2  0
 11 12  2  0
 11  5  1  0
 12  2  1  0
 13  9  1  0
 14 13  1  0
 14 15  1  6
 16 15  1  0
 16 17  1  0
 17 18  2  0
 19 14  1  0
 20 19  2  0
 21 17  1  0
 22 19  1  0
 23 24  1  6
 23 22  1  0
 25 24  1  0
 26 25  2  0
 27 28  1  0
 27 26  1  0
 28 29  2  0
 29 25  1  0
 30 23  1  0
 31 30  1  0
 32 30  2  0
M  END
$$$$
