YEH.pdb
     RDKit          3D

 32 33  0  0  1  0  0  0  0  0999 V2000
    5.4088  -12.2131   19.0225 O   0  0  0  0  0  0  0  0  0  0  0  0
    6.6850  -12.7152   19.1517 C   0  0  0  0  0  0  0  0  0  0  0  0
    6.9018  -14.0018   19.6237 C   0  0  0  0  0  0  0  0  0  0  0  0
    8.1844  -14.4920   19.7481 C   0  0  0  0  0  0  0  0  0  0  0  0
    9.2947  -13.7451   19.4170 C   0  0  0  0  0  0  0  0  0  0  0  0
   10.6426  -14.3254   19.5806 C   0  0  0  0  0  0  0  0  0  0  0  0
   11.2474  -14.8500   18.3115 C   0  0  2  0  0  0  0  0  0  0  0  0
   10.3707  -15.9411   17.8558 N   0  0  0  0  0  0  0  0  0  0  0  0
   12.6149  -15.3753   18.5564 C   0  0  0  0  0  0  0  0  0  0  0  0
   12.8059  -16.4670   19.1527 O   0  0  0  0  0  0  0  0  0  0  0  0
    9.0735  -12.4671   18.9487 C   0  0  0  0  0  0  0  0  0  0  0  0
    7.7873  -11.9577   18.8172 C   0  0  0  0  0  0  0  0  0  0  0  0
   13.7847  -14.6853   18.1383 N   0  0  0  0  0  0  0  0  0  0  0  0
   15.1366  -15.1282   18.4748 C   0  0  1  0  0  0  0  0  0  0  0  0
   16.1441  -14.2978   17.7236 C   0  0  0  0  0  0  0  0  0  0  0  0
   17.5491  -14.7042   18.0315 C   0  0  0  0  0  0  0  0  0  0  0  0
   18.5852  -13.9705   17.2952 C   0  0  0  0  0  0  0  0  0  0  0  0
   19.7796  -13.8454   17.6267 O   0  0  0  0  0  0  0  0  0  0  0  0
   15.3786  -14.9528   19.9463 C   0  0  0  0  0  0  0  0  0  0  0  0
   15.1686  -13.8365   20.4559 O   0  0  0  0  0  0  0  0  0  0  0  0
   18.1857  -13.3489   16.0991 O   0  0  0  0  0  0  0  0  0  0  0  0
   15.8331  -16.0081   20.7600 N   0  0  0  0  0  0  0  0  0  0  0  0
   16.0669  -15.7931   22.2227 C   0  0  1  0  0  0  0  0  0  0  0  0
   15.3161  -16.8369   22.9643 C   0  0  0  0  0  0  0  0  0  0  0  0
   13.8864  -16.6130   23.1687 C   0  0  0  0  0  0  0  0  0  0  0  0
   13.0889  -15.5147   23.1615 C   0  0  0  0  0  0  0  0  0  0  0  0
   11.8176  -15.9402   23.3668 N   0  0  0  0  0  0  0  0  0  0  0  0
   11.8089  -17.2695   23.4991 C   0  0  0  0  0  0  0  0  0  0  0  0
   13.0557  -17.6776   23.3797 N   0  0  0  0  0  0  0  0  0  0  0  0
   17.5387  -16.0259   22.3440 C   0  0  0  0  0  0  0  0  0  0  0  0
   18.1964  -15.8958   23.5514 O   0  0  0  0  0  0  0  0  0  0  0  0
   18.2068  -16.3440   21.3527 O   0  0  0  0  0  0  0  0  0  0  0  0
  2  1  1  0
  2  3  2  0
  4  3  1  0
  5  4  2  0
  6  5  1  0
  6  7  1  0
  7  8  1  1
  9  7  1  0
  9 10  2  0
 11 12  2  0
 11  5  1  0
 12  2  1  0
 13  9  1  0
 14 13  1  0
 14 15  1  6
 16 15  1  0
 16 17  1  0
 17 18  2  0
 19 14  1  0
 20 19  2  0
 21 17  1  0
 22 19  1  0
 23 24  1  1
 23 22  1  0
 25 24  1  0
 26 25  2  0
 27 28  1  0
 27 26  1  0
 28 29  2  0
 29 25  1  0
 30 23  1  0
 31 30  1  0
 32 30  2  0
M  END
$$$$
