YEH.pdb
     RDKit          3D

 32 33  0  0  1  0  0  0  0  0999 V2000
    5.5152  -12.1667   18.8471 O   0  0  0  0  0  0  0  0  0  0  0  0
    6.7657  -12.6480   19.1670 C   0  0  0  0  0  0  0  0  0  0  0  0
    7.8926  -12.2208   18.4795 C   0  0  0  0  0  0  0  0  0  0  0  0
    9.1383  -12.7105   18.8099 C   0  0  0  0  0  0  0  0  0  0  0  0
    9.3251  -13.6307   19.8193 C   0  0  0  0  0  0  0  0  0  0  0  0
   10.6847  -14.1222   20.1193 C   0  0  0  0  0  0  0  0  0  0  0  0
   11.4387  -14.6226   18.9224 C   0  0  2  0  0  0  0  0  0  0  0  0
   10.5443  -15.5692   18.2363 N   0  0  0  0  0  0  0  0  0  0  0  0
   12.6832  -15.3197   19.3363 C   0  0  0  0  0  0  0  0  0  0  0  0
   12.7884  -16.5725   19.2798 O   0  0  0  0  0  0  0  0  0  0  0  0
    8.2017  -14.0519   20.4991 C   0  0  0  0  0  0  0  0  0  0  0  0
    6.9389  -13.5682   20.1788 C   0  0  0  0  0  0  0  0  0  0  0  0
   13.8243  -14.6238   19.8190 N   0  0  0  0  0  0  0  0  0  0  0  0
   15.1048  -15.2769   20.0852 C   0  0  1  0  0  0  0  0  0  0  0  0
   16.0861  -14.9328   18.9954 C   0  0  0  0  0  0  0  0  0  0  0  0
   17.3412  -15.7382   19.0940 C   0  0  0  0  0  0  0  0  0  0  0  0
   18.3860  -15.3842   18.1261 C   0  0  0  0  0  0  0  0  0  0  0  0
   18.2157  -15.0991   16.9253 O   0  0  0  0  0  0  0  0  0  0  0  0
   15.6601  -14.7947   21.3943 C   0  0  0  0  0  0  0  0  0  0  0  0
   16.6951  -14.1030   21.3841 O   0  0  0  0  0  0  0  0  0  0  0  0
   19.7076  -15.3668   18.6056 O   0  0  0  0  0  0  0  0  0  0  0  0
   15.0470  -15.1007   22.6243 N   0  0  0  0  0  0  0  0  0  0  0  0
   15.6131  -16.1653   23.5112 C   0  0  1  0  0  0  0  0  0  0  0  0
   15.3374  -17.4805   22.8806 C   0  0  0  0  0  0  0  0  0  0  0  0
   13.9506  -17.9419   22.8771 C   0  0  0  0  0  0  0  0  0  0  0  0
   12.7722  -17.4039   23.2825 C   0  0  0  0  0  0  0  0  0  0  0  0
   11.7969  -18.2942   22.9732 N   0  0  0  0  0  0  0  0  0  0  0  0
   12.3407  -19.3648   22.3878 C   0  0  0  0  0  0  0  0  0  0  0  0
   13.6398  -19.1544   22.3286 N   0  0  0  0  0  0  0  0  0  0  0  0
   17.0770  -15.8650   23.4691 C   0  0  0  0  0  0  0  0  0  0  0  0
   17.9688  -16.4821   24.3242 O   0  0  0  0  0  0  0  0  0  0  0  0
   17.5260  -15.0469   22.6571 O   0  0  0  0  0  0  0  0  0  0  0  0
  2  1  1  0
  2  3  2  0
  4  3  1  0
  5  4  2  0
  6  5  1  0
  6  7  1  0
  7  8  1  1
  9  7  1  0
  9 10  2  0
 11 12  2  0
 11  5  1  0
 12  2  1  0
 13  9  1  0
 14 13  1  0
 14 15  1  6
 16 15  1  0
 16 17  1  0
 17 18  2  0
 19 14  1  0
 20 19  2  0
 21 17  1  0
 22 19  1  0
 23 24  1  6
 23 22  1  0
 25 24  1  0
 26 25  2  0
 27 28  1  0
 27 26  1  0
 28 29  2  0
 29 25  1  0
 30 23  1  0
 31 30  1  0
 32 30  2  0
M  END
$$$$
