YEH.pdb
     RDKit          3D

 32 33  0  0  1  0  0  0  0  0999 V2000
    5.4382  -10.2746   26.6559 O   0  0  0  0  0  0  0  0  0  0  0  0
    6.0393  -11.4760   26.3512 C   0  0  0  0  0  0  0  0  0  0  0  0
    7.2143  -11.5200   25.6145 C   0  0  0  0  0  0  0  0  0  0  0  0
    7.8056  -12.7293   25.3165 C   0  0  0  0  0  0  0  0  0  0  0  0
    7.2714  -13.9322   25.7262 C   0  0  0  0  0  0  0  0  0  0  0  0
    7.9492  -15.1941   25.3677 C   0  0  0  0  0  0  0  0  0  0  0  0
    7.6019  -15.7161   24.0045 C   0  0  2  0  0  0  0  0  0  0  0  0
    6.2383  -16.2612   24.1055 N   0  0  0  0  0  0  0  0  0  0  0  0
    8.5420  -16.7909   23.5957 C   0  0  0  0  0  0  0  0  0  0  0  0
    8.2912  -18.0051   23.8120 O   0  0  0  0  0  0  0  0  0  0  0  0
    6.1035  -13.8827   26.4579 C   0  0  0  0  0  0  0  0  0  0  0  0
    5.4948  -12.6723   26.7670 C   0  0  0  0  0  0  0  0  0  0  0  0
    9.7740  -16.5202   22.9413 N   0  0  0  0  0  0  0  0  0  0  0  0
   10.8787  -17.4763   22.8910 C   0  0  1  0  0  0  0  0  0  0  0  0
   11.9798  -16.9338   22.0179 C   0  0  0  0  0  0  0  0  0  0  0  0
   13.1476  -17.8636   21.9428 C   0  0  0  0  0  0  0  0  0  0  0  0
   13.7267  -18.0294   20.6046 C   0  0  0  0  0  0  0  0  0  0  0  0
   13.4577  -18.9320   19.7891 O   0  0  0  0  0  0  0  0  0  0  0  0
   11.4292  -17.6917   24.2712 C   0  0  0  0  0  0  0  0  0  0  0  0
   11.8192  -16.7023   24.9185 O   0  0  0  0  0  0  0  0  0  0  0  0
   14.6785  -17.0734   20.2085 O   0  0  0  0  0  0  0  0  0  0  0  0
   11.5159  -18.9723   24.8499 N   0  0  0  0  0  0  0  0  0  0  0  0
   11.9888  -19.1383   26.2603 C   0  0  1  0  0  0  0  0  0  0  0  0
   11.0838  -20.1013   26.9360 C   0  0  0  0  0  0  0  0  0  0  0  0
    9.7172  -19.6581   27.2044 C   0  0  0  0  0  0  0  0  0  0  0  0
    9.1722  -18.5269   27.7197 C   0  0  0  0  0  0  0  0  0  0  0  0
    7.8247  -18.6746   27.6764 N   0  0  0  0  0  0  0  0  0  0  0  0
    7.5239  -19.8641   27.1479 C   0  0  0  0  0  0  0  0  0  0  0  0
    8.6640  -20.4590   26.8622 N   0  0  0  0  0  0  0  0  0  0  0  0
   13.3428  -19.7429   26.0695 C   0  0  0  0  0  0  0  0  0  0  0  0
   14.1558  -20.0538   27.1417 O   0  0  0  0  0  0  0  0  0  0  0  0
   13.7687  -19.9804   24.9326 O   0  0  0  0  0  0  0  0  0  0  0  0
  2  1  1  0
  2  3  2  0
  4  3  1  0
  5  4  2  0
  6  5  1  0
  6  7  1  0
  7  8  1  1
  9  7  1  0
  9 10  2  0
 11 12  2  0
 11  5  1  0
 12  2  1  0
 13  9  1  0
 14 13  1  0
 14 15  1  6
 16 15  1  0
 16 17  1  0
 17 18  2  0
 19 14  1  0
 20 19  2  0
 21 17  1  0
 22 19  1  0
 23 24  1  1
 23 22  1  0
 25 24  1  0
 26 25  2  0
 27 28  1  0
 27 26  1  0
 28 29  2  0
 29 25  1  0
 30 23  1  0
 31 30  1  0
 32 30  2  0
M  END
$$$$
