YTA.pdb
     RDKit          3D

 25 25  0  0  1  0  0  0  0  0999 V2000
   28.8126  -20.3067   -3.5720 O   0  0  0  0  0  0  0  0  0  0  0  0
   28.2841  -20.1610   -4.8602 C   0  0  0  0  0  0  0  0  0  0  0  0
   27.2131  -20.9352   -5.2565 C   0  0  0  0  0  0  0  0  0  0  0  0
   26.6933  -20.7893   -6.5291 C   0  0  0  0  0  0  0  0  0  0  0  0
   27.2041  -19.8862   -7.4451 C   0  0  0  0  0  0  0  0  0  0  0  0
   26.6147  -19.7687   -8.7844 C   0  0  0  0  0  0  0  0  0  0  0  0
   26.8256  -20.9778   -9.6577 C   0  0  2  0  0  0  0  0  0  0  0  0
   28.2004  -21.3528   -9.7805 N   0  0  0  0  0  0  0  0  0  0  0  0
   26.1649  -20.7095  -10.9509 C   0  0  0  0  0  0  0  0  0  0  0  0
   26.7604  -19.9597  -11.7665 O   0  0  0  0  0  0  0  0  0  0  0  0
   28.2743  -19.1158   -7.0418 C   0  0  0  0  0  0  0  0  0  0  0  0
   28.7921  -19.2624   -5.7717 C   0  0  0  0  0  0  0  0  0  0  0  0
   25.7362  -22.8157  -13.6515 C   0  0  0  0  0  0  0  0  0  0  0  0
   24.3380  -22.2629  -13.4880 C   0  0  1  0  0  0  0  0  0  0  0  0
   23.5199  -23.1636  -12.8087 O   0  0  0  0  0  0  0  0  0  0  0  0
   24.3955  -20.9832  -12.6485 C   0  0  2  0  0  0  0  0  0  0  0  0
   24.9052  -21.2390  -11.3372 N   0  0  0  0  0  0  0  0  0  0  0  0
   23.0678  -20.3075  -12.6231 C   0  0  0  0  0  0  0  0  0  0  0  0
   22.3513  -20.3766  -11.5923 O   0  0  0  0  0  0  0  0  0  0  0  0
   21.0655  -18.2465  -15.0432 C   0  0  0  0  0  0  0  0  0  0  0  0
   21.2335  -18.9493  -13.6892 C   0  0  2  0  0  0  0  0  0  0  0  0
   22.5477  -19.5692  -13.7217 N   0  0  0  0  0  0  0  0  0  0  0  0
   20.1504  -19.8967  -13.4326 C   0  0  0  0  0  0  0  0  0  0  0  0
   20.1597  -21.2381  -13.7829 O   0  0  0  0  0  0  0  0  0  0  0  0
   19.1235  -19.4686  -12.8473 O   0  0  0  0  0  0  0  0  0  0  0  0
  2  1  1  0
  3  2  2  0
  4  3  1  0
  5 11  1  0
  5  4  2  0
  6  5  1  0
  7  6  1  0
  7  8  1  6
  9  7  1  0
  9 10  2  0
 11 12  2  0
 12  2  1  0
 14 13  1  1
 14 15  1  0
 16 17  1  1
 16 14  1  0
 17  9  1  0
 18 16  1  0
 19 18  2  0
 21 20  1  6
 21 22  1  0
 22 18  1  0
 23 24  1  0
 23 21  1  0
 25 23  2  0
M  END
$$$$
