YTA.pdb
     RDKit          3D

 25 25  0  0  1  0  0  0  0  0999 V2000
   27.1511  -13.4922  -17.7692 O   0  0  0  0  0  0  0  0  0  0  0  0
   26.3176  -12.4220  -17.4230 C   0  0  0  0  0  0  0  0  0  0  0  0
   26.0186  -12.1831  -16.0974 C   0  0  0  0  0  0  0  0  0  0  0  0
   25.1954  -11.1256  -15.7584 C   0  0  0  0  0  0  0  0  0  0  0  0
   24.6444  -10.2763  -16.7020 C   0  0  0  0  0  0  0  0  0  0  0  0
   23.7768   -9.1662  -16.2897 C   0  0  0  0  0  0  0  0  0  0  0  0
   22.4722   -9.6005  -15.6745 C   0  0  2  0  0  0  0  0  0  0  0  0
   21.7635  -10.5556  -16.4691 N   0  0  0  0  0  0  0  0  0  0  0  0
   21.6952   -8.3801  -15.3786 C   0  0  0  0  0  0  0  0  0  0  0  0
   20.9784   -7.9070  -16.2973 O   0  0  0  0  0  0  0  0  0  0  0  0
   24.9478  -10.5211  -18.0247 C   0  0  0  0  0  0  0  0  0  0  0  0
   25.7693  -11.5766  -18.3617 C   0  0  0  0  0  0  0  0  0  0  0  0
   19.2262   -8.1240  -12.6908 C   0  0  0  0  0  0  0  0  0  0  0  0
   19.9983   -6.8263  -12.6048 C   0  0  1  0  0  0  0  0  0  0  0  0
   20.9180   -6.8596  -11.5584 O   0  0  0  0  0  0  0  0  0  0  0  0
   20.7930   -6.6244  -13.8984 C   0  0  2  0  0  0  0  0  0  0  0  0
   21.7012   -7.7043  -14.1297 N   0  0  0  0  0  0  0  0  0  0  0  0
   21.4711   -5.2977  -13.9005 C   0  0  0  0  0  0  0  0  0  0  0  0
   22.7265   -5.2379  -13.9323 O   0  0  0  0  0  0  0  0  0  0  0  0
   22.0530   -2.8480  -15.4702 C   0  0  0  0  0  0  0  0  0  0  0  0
   21.4303   -2.7845  -14.0688 C   0  0  2  0  0  0  0  0  0  0  0  0
   20.7672   -4.0623  -13.8687 N   0  0  0  0  0  0  0  0  0  0  0  0
   20.5363   -1.6372  -13.9248 C   0  0  0  0  0  0  0  0  0  0  0  0
   20.9350   -0.3437  -13.6246 O   0  0  0  0  0  0  0  0  0  0  0  0
   19.3044   -1.8303  -14.0845 O   0  0  0  0  0  0  0  0  0  0  0  0
  2  1  1  0
  3  2  2  0
  4  3  1  0
  5 11  1  0
  5  4  2  0
  6  5  1  0
  7  6  1  0
  7  8  1  6
  9  7  1  0
  9 10  2  0
 11 12  2  0
 12  2  1  0
 14 13  1  6
 14 15  1  0
 16 17  1  1
 16 14  1  0
 17  9  1  0
 18 16  1  0
 19 18  2  0
 21 20  1  6
 21 22  1  0
 22 18  1  0
 23 24  1  0
 23 21  1  0
 25 23  2  0
M  END
$$$$
