YTA.pdb
     RDKit          3D

 25 25  0  0  1  0  0  0  0  0999 V2000
   28.4210  -21.5581   -8.3226 O   0  0  0  0  0  0  0  0  0  0  0  0
   28.1113  -21.0669   -9.5965 C   0  0  0  0  0  0  0  0  0  0  0  0
   26.7951  -20.8517   -9.9501 C   0  0  0  0  0  0  0  0  0  0  0  0
   26.4922  -20.3666  -11.2086 C   0  0  0  0  0  0  0  0  0  0  0  0
   27.4635  -20.0797  -12.1518 C   0  0  0  0  0  0  0  0  0  0  0  0
   27.0892  -19.5647  -13.4745 C   0  0  0  0  0  0  0  0  0  0  0  0
   26.5672  -20.6158  -14.4189 C   0  0  2  0  0  0  0  0  0  0  0  0
   27.5849  -21.4984  -14.8997 N   0  0  0  0  0  0  0  0  0  0  0  0
   25.8294  -19.9188  -15.4916 C   0  0  0  0  0  0  0  0  0  0  0  0
   26.4624  -19.6191  -16.5362 O   0  0  0  0  0  0  0  0  0  0  0  0
   28.7766  -20.2970  -11.7912 C   0  0  0  0  0  0  0  0  0  0  0  0
   29.0776  -20.7812  -10.5351 C   0  0  0  0  0  0  0  0  0  0  0  0
   25.1697  -20.5762  -18.0485 C   0  0  0  0  0  0  0  0  0  0  0  0
   23.7509  -20.2025  -17.6819 C   0  0  1  0  0  0  0  0  0  0  0  0
   23.0672  -21.2943  -17.1505 O   0  0  0  0  0  0  0  0  0  0  0  0
   23.7772  -19.1169  -16.6019 C   0  0  2  0  0  0  0  0  0  0  0  0
   24.4560  -19.5640  -15.4256 N   0  0  0  0  0  0  0  0  0  0  0  0
   22.4008  -18.6239  -16.3142 C   0  0  0  0  0  0  0  0  0  0  0  0
   21.7844  -19.0468  -15.3034 O   0  0  0  0  0  0  0  0  0  0  0  0
   20.0888  -16.1062  -17.8721 C   0  0  0  0  0  0  0  0  0  0  0  0
   20.4390  -17.1091  -16.7643 C   0  0  2  0  0  0  0  0  0  0  0  0
   21.7240  -17.6791  -17.1338 N   0  0  0  0  0  0  0  0  0  0  0  0
   19.3886  -18.1099  -16.5878 C   0  0  0  0  0  0  0  0  0  0  0  0
   18.2406  -17.9412  -15.8291 O   0  0  0  0  0  0  0  0  0  0  0  0
   19.5298  -19.2164  -17.1676 O   0  0  0  0  0  0  0  0  0  0  0  0
  2  1  1  0
  3  2  2  0
  4  3  1  0
  5 11  1  0
  5  4  2  0
  6  5  1  0
  7  6  1  0
  7  8  1  6
  9  7  1  0
  9 10  2  0
 11 12  2  0
 12  2  1  0
 14 13  1  1
 14 15  1  0
 16 17  1  1
 16 14  1  0
 17  9  1  0
 18 16  1  0
 19 18  2  0
 21 20  1  6
 21 22  1  0
 22 18  1  0
 23 24  1  0
 23 21  1  0
 25 23  2  0
M  END
$$$$
