YTA.pdb
     RDKit          3D

 25 25  0  0  1  0  0  0  0  0999 V2000
   29.3178  -11.5671  -16.6642 O   0  0  0  0  0  0  0  0  0  0  0  0
   28.2128  -10.7116  -16.5803 C   0  0  0  0  0  0  0  0  0  0  0  0
   27.5008  -10.6203  -15.4021 C   0  0  0  0  0  0  0  0  0  0  0  0
   26.4102   -9.7747  -15.3220 C   0  0  0  0  0  0  0  0  0  0  0  0
   25.9877   -8.9985  -16.3870 C   0  0  0  0  0  0  0  0  0  0  0  0
   24.8233   -8.1150  -16.2500 C   0  0  0  0  0  0  0  0  0  0  0  0
   23.5097   -8.7719  -16.5846 C   0  0  2  0  0  0  0  0  0  0  0  0
   23.6589   -9.9970  -17.3075 N   0  0  0  0  0  0  0  0  0  0  0  0
   22.6786   -7.7688  -17.2801 C   0  0  0  0  0  0  0  0  0  0  0  0
   22.6734   -7.7853  -18.5377 O   0  0  0  0  0  0  0  0  0  0  0  0
   26.7042   -9.0949  -17.5613 C   0  0  0  0  0  0  0  0  0  0  0  0
   27.7923   -9.9390  -17.6399 C   0  0  0  0  0  0  0  0  0  0  0  0
   20.5078   -7.8492  -18.9883 C   0  0  0  0  0  0  0  0  0  0  0  0
   19.8666   -6.8902  -18.0103 C   0  0  1  0  0  0  0  0  0  0  0  0
   19.2413   -7.5779  -16.9720 O   0  0  0  0  0  0  0  0  0  0  0  0
   20.9507   -6.0104  -17.3809 C   0  0  2  0  0  0  0  0  0  0  0  0
   21.8853   -6.7879  -16.6282 N   0  0  0  0  0  0  0  0  0  0  0  0
   20.3410   -4.9145  -16.5763 C   0  0  0  0  0  0  0  0  0  0  0  0
   19.9799   -5.1353  -15.3924 O   0  0  0  0  0  0  0  0  0  0  0  0
   19.5348   -1.2922  -17.1577 C   0  0  0  0  0  0  0  0  0  0  0  0
   19.4836   -2.5622  -16.2975 C   0  0  2  0  0  0  0  0  0  0  0  0
   20.1377   -3.5994  -17.0780 N   0  0  0  0  0  0  0  0  0  0  0  0
   18.1149   -2.9009  -15.9126 C   0  0  0  0  0  0  0  0  0  0  0  0
   17.4382   -2.3813  -14.8198 O   0  0  0  0  0  0  0  0  0  0  0  0
   17.4937   -3.7300  -16.6248 O   0  0  0  0  0  0  0  0  0  0  0  0
  2  1  1  0
  3  2  2  0
  4  3  1  0
  5 11  1  0
  5  4  2  0
  6  5  1  0
  7  6  1  0
  7  8  1  6
  9  7  1  0
  9 10  2  0
 11 12  2  0
 12  2  1  0
 14 13  1  6
 14 15  1  0
 16 17  1  1
 16 14  1  0
 17  9  1  0
 18 16  1  0
 19 18  2  0
 21 20  1  6
 21 22  1  0
 22 18  1  0
 23 24  1  0
 23 21  1  0
 25 23  2  0
M  END
$$$$
