YTA.pdb
     RDKit          3D

 25 25  0  0  1  0  0  0  0  0999 V2000
   20.0087  -21.6216  -20.0092 O   0  0  0  0  0  0  0  0  0  0  0  0
   20.2734  -20.2501  -19.9139 C   0  0  0  0  0  0  0  0  0  0  0  0
   19.4655  -19.3457  -20.5718 C   0  0  0  0  0  0  0  0  0  0  0  0
   19.7292  -17.9921  -20.4760 C   0  0  0  0  0  0  0  0  0  0  0  0
   20.7853  -17.4878  -19.7373 C   0  0  0  0  0  0  0  0  0  0  0  0
   21.0218  -16.0408  -19.6664 C   0  0  0  0  0  0  0  0  0  0  0  0
   21.7314  -15.4736  -20.8680 C   0  0  2  0  0  0  0  0  0  0  0  0
   23.0158  -16.0608  -21.0945 N   0  0  0  0  0  0  0  0  0  0  0  0
   21.7686  -14.0061  -20.7073 C   0  0  0  0  0  0  0  0  0  0  0  0
   22.7014  -13.5174  -20.0196 O   0  0  0  0  0  0  0  0  0  0  0  0
   21.5883  -18.3977  -19.0823 C   0  0  0  0  0  0  0  0  0  0  0  0
   21.3241  -19.7481  -19.1788 C   0  0  0  0  0  0  0  0  0  0  0  0
   22.1272  -11.3840  -23.2234 C   0  0  0  0  0  0  0  0  0  0  0  0
   20.9591  -10.9273  -22.3782 C   0  0  1  0  0  0  0  0  0  0  0  0
   19.7475  -11.1944  -23.0127 O   0  0  0  0  0  0  0  0  0  0  0  0
   20.9577  -11.7023  -21.0572 C   0  0  2  0  0  0  0  0  0  0  0  0
   20.8253  -13.1093  -21.2750 N   0  0  0  0  0  0  0  0  0  0  0  0
   19.9196  -11.1676  -20.1317 C   0  0  0  0  0  0  0  0  0  0  0  0
   19.0834  -11.9497  -19.6123 O   0  0  0  0  0  0  0  0  0  0  0  0
   18.9457  -10.1547  -17.5979 C   0  0  0  0  0  0  0  0  0  0  0  0
   18.8113   -9.2952  -18.8623 C   0  0  2  0  0  0  0  0  0  0  0  0
   19.8140   -9.7911  -19.7903 N   0  0  0  0  0  0  0  0  0  0  0  0
   18.9481   -7.8705  -18.5658 C   0  0  0  0  0  0  0  0  0  0  0  0
   17.9350   -7.0491  -18.0960 O   0  0  0  0  0  0  0  0  0  0  0  0
   20.0726   -7.3390  -18.7492 O   0  0  0  0  0  0  0  0  0  0  0  0
  2  1  1  0
  3  2  2  0
  4  3  1  0
  5 11  1  0
  5  4  2  0
  6  5  1  0
  7  6  1  0
  7  8  1  1
  9  7  1  0
  9 10  2  0
 11 12  2  0
 12  2  1  0
 14 13  1  6
 14 15  1  0
 16 17  1  6
 16 14  1  0
 17  9  1  0
 18 16  1  0
 19 18  2  0
 21 20  1  1
 21 22  1  0
 22 18  1  0
 23 24  1  0
 23 21  1  0
 25 23  2  0
M  END
$$$$
