YTA.pdb
     RDKit          3D

 25 25  0  0  1  0  0  0  0  0999 V2000
   25.8589  -32.2992  -16.7827 O   0  0  0  0  0  0  0  0  0  0  0  0
   26.3971  -31.0110  -16.6789 C   0  0  0  0  0  0  0  0  0  0  0  0
   25.7975  -29.9591  -17.3405 C   0  0  0  0  0  0  0  0  0  0  0  0
   26.3310  -28.6881  -17.2362 C   0  0  0  0  0  0  0  0  0  0  0  0
   27.4603  -28.4118  -16.4854 C   0  0  0  0  0  0  0  0  0  0  0  0
   27.9865  -27.0437  -16.4059 C   0  0  0  0  0  0  0  0  0  0  0  0
   29.0537  -26.7348  -17.4231 C   0  0  2  0  0  0  0  0  0  0  0  0
   30.2596  -27.4764  -17.2193 N   0  0  0  0  0  0  0  0  0  0  0  0
   29.2495  -25.2711  -17.4276 C   0  0  0  0  0  0  0  0  0  0  0  0
   30.3122  -24.8225  -16.9263 O   0  0  0  0  0  0  0  0  0  0  0  0
   28.0540  -29.4680  -15.8269 C   0  0  0  0  0  0  0  0  0  0  0  0
   27.5207  -30.7358  -15.9318 C   0  0  0  0  0  0  0  0  0  0  0  0
   30.3554  -23.2622  -19.7899 C   0  0  0  0  0  0  0  0  0  0  0  0
   29.0915  -22.5224  -19.4127 C   0  0  1  0  0  0  0  0  0  0  0  0
   28.0473  -22.8418  -20.2786 O   0  0  0  0  0  0  0  0  0  0  0  0
   28.6580  -22.9468  -18.0065 C   0  0  2  0  0  0  0  0  0  0  0  0
   28.3221  -24.3357  -17.9582 N   0  0  0  0  0  0  0  0  0  0  0  0
   27.5572  -22.0755  -17.5071 C   0  0  0  0  0  0  0  0  0  0  0  0
   26.3634  -22.4553  -17.6125 O   0  0  0  0  0  0  0  0  0  0  0  0
   27.3467  -18.6726  -15.9295 C   0  0  0  0  0  0  0  0  0  0  0  0
   26.6884  -19.9375  -16.4972 C   0  0  2  0  0  0  0  0  0  0  0  0
   27.7798  -20.8078  -16.9021 N   0  0  0  0  0  0  0  0  0  0  0  0
   25.7611  -19.6249  -17.5829 C   0  0  0  0  0  0  0  0  0  0  0  0
   24.4138  -19.3375  -17.4278 O   0  0  0  0  0  0  0  0  0  0  0  0
   26.2140  -19.6137  -18.7556 O   0  0  0  0  0  0  0  0  0  0  0  0
  2  1  1  0
  3  2  2  0
  4  3  1  0
  5 11  1  0
  5  4  2  0
  6  5  1  0
  7  6  1  0
  7  8  1  1
  9  7  1  0
  9 10  2  0
 11 12  2  0
 12  2  1  0
 14 13  1  6
 14 15  1  0
 16 17  1  6
 16 14  1  0
 17  9  1  0
 18 16  1  0
 19 18  2  0
 21 20  1  6
 21 22  1  0
 22 18  1  0
 23 24  1  0
 23 21  1  0
 25 23  2  0
M  END
$$$$
