YTA.pdb
     RDKit          3D

 25 25  0  0  1  0  0  0  0  0999 V2000
   24.3997  -20.9784   -8.3039 O   0  0  0  0  0  0  0  0  0  0  0  0
   25.0277  -20.7602   -9.5359 C   0  0  0  0  0  0  0  0  0  0  0  0
   24.2687  -20.6046  -10.6775 C   0  0  0  0  0  0  0  0  0  0  0  0
   24.8915  -20.3892  -11.8927 C   0  0  0  0  0  0  0  0  0  0  0  0
   26.2674  -20.3202  -12.0245 C   0  0  0  0  0  0  0  0  0  0  0  0
   26.8799  -20.0881  -13.3382 C   0  0  0  0  0  0  0  0  0  0  0  0
   26.8909  -21.2986  -14.2346 C   0  0  2  0  0  0  0  0  0  0  0  0
   28.1601  -21.9566  -14.2792 N   0  0  0  0  0  0  0  0  0  0  0  0
   26.3954  -20.8725  -15.5588 C   0  0  0  0  0  0  0  0  0  0  0  0
   27.2155  -20.3281  -16.3418 O   0  0  0  0  0  0  0  0  0  0  0  0
   27.0194  -20.4764  -10.8792 C   0  0  0  0  0  0  0  0  0  0  0  0
   26.3968  -20.6913   -9.6672 C   0  0  0  0  0  0  0  0  0  0  0  0
   24.0361  -21.3752  -19.6075 C   0  0  0  0  0  0  0  0  0  0  0  0
   24.5734  -21.8369  -18.2713 C   0  0  1  0  0  0  0  0  0  0  0  0
   25.8471  -22.3859  -18.4066 O   0  0  0  0  0  0  0  0  0  0  0  0
   24.6979  -20.6327  -17.3332 C   0  0  2  0  0  0  0  0  0  0  0  0
   25.0585  -21.0346  -16.0093 N   0  0  0  0  0  0  0  0  0  0  0  0
   23.4561  -19.8098  -17.3618 C   0  0  0  0  0  0  0  0  0  0  0  0
   22.4551  -20.1660  -16.6896 O   0  0  0  0  0  0  0  0  0  0  0  0
   22.3693  -16.6646  -19.1055 C   0  0  0  0  0  0  0  0  0  0  0  0
   22.0779  -17.8833  -18.2192 C   0  0  2  0  0  0  0  0  0  0  0  0
   23.3304  -18.6144  -18.1219 N   0  0  0  0  0  0  0  0  0  0  0  0
   20.9763  -18.6859  -18.7470 C   0  0  0  0  0  0  0  0  0  0  0  0
   21.1007  -19.6979  -19.6864 O   0  0  0  0  0  0  0  0  0  0  0  0
   19.8187  -18.4453  -18.3198 O   0  0  0  0  0  0  0  0  0  0  0  0
  2  1  1  0
  3  2  2  0
  4  3  1  0
  5 11  1  0
  5  4  2  0
  6  5  1  0
  7  6  1  0
  7  8  1  6
  9  7  1  0
  9 10  2  0
 11 12  2  0
 12  2  1  0
 14 13  1  6
 14 15  1  0
 16 17  1  1
 16 14  1  0
 17  9  1  0
 18 16  1  0
 19 18  2  0
 21 20  1  6
 21 22  1  0
 22 18  1  0
 23 24  1  0
 23 21  1  0
 25 23  2  0
M  END
$$$$
