KAQ.pdb
     RDKit          3D

 24 23  0  0  1  0  0  0  0  0999 V2000
    7.2265  -15.4583   19.3095 N   0  0  0  0  0  0  0  0  0  0  0  0
    8.2646  -14.5018   19.5675 C   0  0  1  0  0  0  0  0  0  0  0  0
    7.8000  -13.1543   19.0539 C   0  0  0  0  0  0  0  0  0  0  0  0
    7.3179  -13.3349   17.6227 C   0  0  0  0  0  0  0  0  0  0  0  0
    8.4449  -13.6733   16.6778 C   0  0  0  0  0  0  0  0  0  0  0  0
    7.8223  -13.7578   15.2900 C   0  0  0  0  0  0  0  0  0  0  0  0
    8.7726  -14.1400   14.2734 N   0  0  0  0  0  0  0  0  0  0  0  0
    8.7337  -14.4904   20.9511 C   0  0  0  0  0  0  0  0  0  0  0  0
    9.7602  -13.7929   21.2631 O   0  0  0  0  0  0  0  0  0  0  0  0
    7.6603  -15.6016   24.4065 C   0  0  0  0  0  0  0  0  0  0  0  0
    8.7151  -15.2569   23.3582 C   0  0  2  0  0  0  0  0  0  0  0  0
    8.1505  -15.2003   22.0386 N   0  0  0  0  0  0  0  0  0  0  0  0
    9.7667  -16.3000   23.4819 C   0  0  0  0  0  0  0  0  0  0  0  0
    9.5202  -17.4310   22.9960 O   0  0  0  0  0  0  0  0  0  0  0  0
   17.0627  -17.4026   23.1072 N   0  0  0  0  0  0  0  0  0  0  0  0
   15.9098  -16.5877   23.4671 C   0  0  0  0  0  0  0  0  0  0  0  0
   16.1535  -15.3703   23.5474 O   0  0  0  0  0  0  0  0  0  0  0  0
   14.6156  -17.2024   23.7045 C   0  0  0  0  0  0  0  0  0  0  0  0
   13.3868  -16.3815   23.7521 C   0  0  0  0  0  0  0  0  0  0  0  0
   12.1146  -17.0545   24.0941 C   0  0  2  0  0  0  0  0  0  0  0  0
   11.0087  -16.0709   24.1144 N   0  0  0  0  0  0  0  0  0  0  0  0
   12.1285  -17.6853   25.4055 C   0  0  0  0  0  0  0  0  0  0  0  0
   12.7761  -18.9304   25.6003 O   0  0  0  0  0  0  0  0  0  0  0  0
   11.5664  -17.1710   26.4285 O   0  0  0  0  0  0  0  0  0  0  0  0
  2  1  1  1
  3  2  1  0
  4  3  1  0
  5  4  1  0
  6  7  1  0
  6  5  1  0
  8  2  1  0
  8  9  2  0
 11 10  1  1
 12 11  1  0
 12  8  1  0
 13 14  2  0
 13 11  1  0
 15 16  1  0
 16 17  2  0
 18 16  1  0
 18 19  1  0
 20 19  1  1
 20 22  1  0
 20 21  1  0
 21 13  1  0
 22 23  1  0
 24 22  2  0
M  END
$$$$
