KAQ.pdb
     RDKit          3D

 24 23  0  0  1  0  0  0  0  0999 V2000
    6.0805  -16.7052   20.6699 N   0  0  0  0  0  0  0  0  0  0  0  0
    7.4481  -16.3500   20.9201 C   0  0  1  0  0  0  0  0  0  0  0  0
    7.5663  -14.8424   20.8281 C   0  0  0  0  0  0  0  0  0  0  0  0
    7.5798  -14.4586   19.3565 C   0  0  0  0  0  0  0  0  0  0  0  0
    8.9611  -14.0878   18.8745 C   0  0  0  0  0  0  0  0  0  0  0  0
    8.7920  -13.5985   17.4418 C   0  0  0  0  0  0  0  0  0  0  0  0
    8.1175  -12.3252   17.3619 N   0  0  0  0  0  0  0  0  0  0  0  0
    7.9979  -16.9240   22.1461 C   0  0  0  0  0  0  0  0  0  0  0  0
    7.3373  -16.8295   23.2380 O   0  0  0  0  0  0  0  0  0  0  0  0
   10.9532  -19.0576   23.2526 C   0  0  0  0  0  0  0  0  0  0  0  0
    9.7361  -18.1680   23.4926 C   0  0  2  0  0  0  0  0  0  0  0  0
    9.2414  -17.6064   22.2665 N   0  0  0  0  0  0  0  0  0  0  0  0
   10.1778  -17.1267   24.4568 C   0  0  0  0  0  0  0  0  0  0  0  0
   10.9268  -16.2171   24.0236 O   0  0  0  0  0  0  0  0  0  0  0  0
    6.9788  -12.9992   27.1559 N   0  0  0  0  0  0  0  0  0  0  0  0
    8.1938  -12.9312   27.9572 C   0  0  0  0  0  0  0  0  0  0  0  0
    8.2347  -11.9622   28.7364 O   0  0  0  0  0  0  0  0  0  0  0  0
    9.2335  -13.9343   27.8094 C   0  0  0  0  0  0  0  0  0  0  0  0
    9.0671  -15.0616   26.8672 C   0  0  0  0  0  0  0  0  0  0  0  0
   10.1698  -16.0412   26.7543 C   0  0  2  0  0  0  0  0  0  0  0  0
    9.7946  -17.1230   25.8163 N   0  0  0  0  0  0  0  0  0  0  0  0
   10.5012  -16.6867   28.0157 C   0  0  0  0  0  0  0  0  0  0  0  0
   11.3616  -16.0530   28.9462 O   0  0  0  0  0  0  0  0  0  0  0  0
   10.0540  -17.8347   28.3459 O   0  0  0  0  0  0  0  0  0  0  0  0
  2  1  1  1
  3  2  1  0
  4  3  1  0
  5  4  1  0
  6  7  1  0
  6  5  1  0
  8  2  1  0
  8  9  2  0
 11 10  1  6
 12 11  1  0
 12  8  1  0
 13 14  2  0
 13 11  1  0
 15 16  1  0
 16 17  2  0
 18 16  1  0
 18 19  1  0
 20 19  1  1
 20 22  1  0
 20 21  1  0
 21 13  1  0
 22 23  1  0
 24 22  2  0
M  END
$$$$
