KAQ.pdb
     RDKit          3D

 24 23  0  0  1  0  0  0  0  0999 V2000
    9.3434  -15.3405   19.5099 N   0  0  0  0  0  0  0  0  0  0  0  0
    8.6130  -14.5726   20.4773 C   0  0  1  0  0  0  0  0  0  0  0  0
    7.2929  -14.1662   19.8549 C   0  0  0  0  0  0  0  0  0  0  0  0
    7.5900  -13.4029   18.5733 C   0  0  0  0  0  0  0  0  0  0  0  0
    7.8028  -14.3227   17.3958 C   0  0  0  0  0  0  0  0  0  0  0  0
    8.0491  -13.4205   16.1934 C   0  0  0  0  0  0  0  0  0  0  0  0
    8.1964  -14.1583   14.9619 N   0  0  0  0  0  0  0  0  0  0  0  0
    8.4907  -15.2192   21.7817 C   0  0  0  0  0  0  0  0  0  0  0  0
    7.6880  -14.7347   22.6527 O   0  0  0  0  0  0  0  0  0  0  0  0
    9.8665  -18.2558   23.6376 C   0  0  0  0  0  0  0  0  0  0  0  0
    9.0794  -16.9530   23.5222 C   0  0  2  0  0  0  0  0  0  0  0  0
    9.1962  -16.3789   22.2107 N   0  0  0  0  0  0  0  0  0  0  0  0
    9.6144  -16.0599   24.5829 C   0  0  0  0  0  0  0  0  0  0  0  0
   10.7179  -15.5015   24.3672 O   0  0  0  0  0  0  0  0  0  0  0  0
    6.0316  -11.4316   25.3301 N   0  0  0  0  0  0  0  0  0  0  0  0
    6.7974  -12.0410   26.4094 C   0  0  0  0  0  0  0  0  0  0  0  0
    6.4677  -11.6569   27.5459 O   0  0  0  0  0  0  0  0  0  0  0  0
    7.8464  -13.0028   26.1196 C   0  0  0  0  0  0  0  0  0  0  0  0
    8.3518  -13.9093   27.1725 C   0  0  0  0  0  0  0  0  0  0  0  0
    9.4287  -14.8581   26.8141 C   0  0  2  0  0  0  0  0  0  0  0  0
    8.9412  -15.8215   25.8016 N   0  0  0  0  0  0  0  0  0  0  0  0
    9.9013  -15.6489   27.9407 C   0  0  0  0  0  0  0  0  0  0  0  0
   10.7706  -15.0825   28.9056 O   0  0  0  0  0  0  0  0  0  0  0  0
    9.5749  -16.8693   28.1168 O   0  0  0  0  0  0  0  0  0  0  0  0
  2  1  1  6
  3  2  1  0
  4  3  1  0
  5  4  1  0
  6  7  1  0
  6  5  1  0
  8  2  1  0
  8  9  2  0
 11 10  1  6
 12 11  1  0
 12  8  1  0
 13 14  2  0
 13 11  1  0
 15 16  1  0
 16 17  2  0
 18 16  1  0
 18 19  1  0
 20 19  1  1
 20 22  1  0
 20 21  1  0
 21 13  1  0
 22 23  1  0
 24 22  2  0
M  END
$$$$
