KAQ.pdb
     RDKit          3D

 24 23  0  0  1  0  0  0  0  0999 V2000
    8.1972  -12.8958   18.3357 N   0  0  0  0  0  0  0  0  0  0  0  0
    8.5228  -14.1976   18.8439 C   0  0  1  0  0  0  0  0  0  0  0  0
    9.8461  -14.6205   18.2393 C   0  0  0  0  0  0  0  0  0  0  0  0
    9.5554  -15.5321   17.0570 C   0  0  0  0  0  0  0  0  0  0  0  0
    9.4845  -14.7740   15.7539 C   0  0  0  0  0  0  0  0  0  0  0  0
    9.3042  -15.8226   14.6637 C   0  0  0  0  0  0  0  0  0  0  0  0
    7.9606  -16.3462   14.6084 N   0  0  0  0  0  0  0  0  0  0  0  0
    8.4653  -14.3001   20.3002 C   0  0  0  0  0  0  0  0  0  0  0  0
    9.2009  -13.5355   21.0156 O   0  0  0  0  0  0  0  0  0  0  0  0
    6.3007  -15.9373   22.9544 C   0  0  0  0  0  0  0  0  0  0  0  0
    7.5434  -15.1901   22.4773 C   0  0  2  0  0  0  0  0  0  0  0  0
    7.6463  -15.1956   21.0446 N   0  0  0  0  0  0  0  0  0  0  0  0
    8.6970  -15.8607   23.1322 C   0  0  0  0  0  0  0  0  0  0  0  0
    9.3117  -16.7325   22.4703 O   0  0  0  0  0  0  0  0  0  0  0  0
    9.4272  -12.7943   28.6444 N   0  0  0  0  0  0  0  0  0  0  0  0
   10.0933  -14.0353   28.2712 C   0  0  0  0  0  0  0  0  0  0  0  0
   11.0083  -14.3727   29.0437 O   0  0  0  0  0  0  0  0  0  0  0  0
    9.6830  -14.7665   27.0854 C   0  0  0  0  0  0  0  0  0  0  0  0
   10.6578  -15.5736   26.3209 C   0  0  0  0  0  0  0  0  0  0  0  0
   10.1648  -16.3341   25.1516 C   0  0  2  0  0  0  0  0  0  0  0  0
    9.1184  -15.5603   24.4464 N   0  0  0  0  0  0  0  0  0  0  0  0
    9.5643  -17.6119   25.5043 C   0  0  0  0  0  0  0  0  0  0  0  0
   10.3740  -18.7032   25.9059 O   0  0  0  0  0  0  0  0  0  0  0  0
    8.3067  -17.8213   25.4663 O   0  0  0  0  0  0  0  0  0  0  0  0
  2  1  1  1
  3  2  1  0
  4  3  1  0
  5  4  1  0
  6  7  1  0
  6  5  1  0
  8  2  1  0
  8  9  2  0
 11 10  1  6
 12 11  1  0
 12  8  1  0
 13 14  2  0
 13 11  1  0
 15 16  1  0
 16 17  2  0
 18 16  1  0
 18 19  1  0
 20 19  1  1
 20 22  1  0
 20 21  1  0
 21 13  1  0
 22 23  1  0
 24 22  2  0
M  END
$$$$
