KAQ.pdb
     RDKit          3D

 24 23  0  0  1  0  0  0  0  0999 V2000
    6.1244  -17.5257   18.6961 N   0  0  0  0  0  0  0  0  0  0  0  0
    7.5454  -17.5042   18.4983 C   0  0  1  0  0  0  0  0  0  0  0  0
    7.8110  -17.2996   17.0208 C   0  0  0  0  0  0  0  0  0  0  0  0
    7.0827  -18.3929   16.2541 C   0  0  0  0  0  0  0  0  0  0  0  0
    7.3120  -18.2977   14.7655 C   0  0  0  0  0  0  0  0  0  0  0  0
    6.6008  -19.4962   14.1504 C   0  0  0  0  0  0  0  0  0  0  0  0
    6.8222  -19.6084   12.7288 N   0  0  0  0  0  0  0  0  0  0  0  0
    8.2546  -16.5730   19.3727 C   0  0  0  0  0  0  0  0  0  0  0  0
    9.5285  -16.4804   19.2944 O   0  0  0  0  0  0  0  0  0  0  0  0
    7.5013  -14.0154   22.0995 C   0  0  0  0  0  0  0  0  0  0  0  0
    8.4027  -14.9672   21.3173 C   0  0  2  0  0  0  0  0  0  0  0  0
    7.6600  -15.7199   20.3451 N   0  0  0  0  0  0  0  0  0  0  0  0
    9.0535  -15.8364   22.3323 C   0  0  0  0  0  0  0  0  0  0  0  0
    8.3222  -16.6409   22.9599 O   0  0  0  0  0  0  0  0  0  0  0  0
   10.7597  -20.6583   24.4312 N   0  0  0  0  0  0  0  0  0  0  0  0
   11.6729  -20.3544   23.3373 C   0  0  0  0  0  0  0  0  0  0  0  0
   11.8479  -21.2975   22.5449 O   0  0  0  0  0  0  0  0  0  0  0  0
   12.2981  -19.0473   23.2382 C   0  0  0  0  0  0  0  0  0  0  0  0
   11.5958  -17.9217   22.5856 C   0  0  0  0  0  0  0  0  0  0  0  0
   11.1239  -16.8091   23.4387 C   0  0  2  0  0  0  0  0  0  0  0  0
   10.4372  -15.7909   22.6125 N   0  0  0  0  0  0  0  0  0  0  0  0
   12.1990  -16.1177   24.1345 C   0  0  0  0  0  0  0  0  0  0  0  0
   12.6316  -16.5561   25.4105 O   0  0  0  0  0  0  0  0  0  0  0  0
   12.7944  -15.0982   23.6519 O   0  0  0  0  0  0  0  0  0  0  0  0
  2  1  1  6
  3  2  1  0
  4  3  1  0
  5  4  1  0
  6  7  1  0
  6  5  1  0
  8  2  1  0
  8  9  2  0
 11 10  1  1
 12 11  1  0
 12  8  1  0
 13 14  2  0
 13 11  1  0
 15 16  1  0
 16 17  2  0
 18 16  1  0
 18 19  1  0
 20 19  1  6
 20 22  1  0
 20 21  1  0
 21 13  1  0
 22 23  1  0
 24 22  2  0
M  END
$$$$
