KAQ.pdb
     RDKit          3D

 24 23  0  0  1  0  0  0  0  0999 V2000
    7.3902  -18.8109   20.5348 N   0  0  0  0  0  0  0  0  0  0  0  0
    8.6916  -18.3293   20.1696 C   0  0  1  0  0  0  0  0  0  0  0  0
    9.0479  -18.9167   18.8192 C   0  0  0  0  0  0  0  0  0  0  0  0
    8.1396  -20.1108   18.5689 C   0  0  0  0  0  0  0  0  0  0  0  0
    8.4793  -20.8290   17.2858 C   0  0  0  0  0  0  0  0  0  0  0  0
    7.5160  -22.0053   17.1916 C   0  0  0  0  0  0  0  0  0  0  0  0
    7.8056  -22.8773   16.0788 N   0  0  0  0  0  0  0  0  0  0  0  0
    8.8343  -16.8776   20.2519 C   0  0  0  0  0  0  0  0  0  0  0  0
    9.9853  -16.3464   20.0773 O   0  0  0  0  0  0  0  0  0  0  0  0
    6.6452  -13.7799   20.5074 C   0  0  0  0  0  0  0  0  0  0  0  0
    7.9757  -14.5245   20.5804 C   0  0  2  0  0  0  0  0  0  0  0  0
    7.7896  -15.9475   20.5168 N   0  0  0  0  0  0  0  0  0  0  0  0
    8.6145  -14.0915   21.8506 C   0  0  0  0  0  0  0  0  0  0  0  0
    9.0710  -12.9230   21.9000 O   0  0  0  0  0  0  0  0  0  0  0  0
    5.6518  -12.3670   26.2460 N   0  0  0  0  0  0  0  0  0  0  0  0
    6.9346  -12.4932   26.9252 C   0  0  0  0  0  0  0  0  0  0  0  0
    6.9711  -11.9543   28.0460 O   0  0  0  0  0  0  0  0  0  0  0  0
    8.0390  -13.1941   26.2942 C   0  0  0  0  0  0  0  0  0  0  0  0
    7.8784  -13.8111   24.9602 C   0  0  0  0  0  0  0  0  0  0  0  0
    9.0693  -14.4207   24.3288 C   0  0  2  0  0  0  0  0  0  0  0  0
    8.7262  -14.9297   22.9820 N   0  0  0  0  0  0  0  0  0  0  0  0
    9.6028  -15.5520   25.0727 C   0  0  0  0  0  0  0  0  0  0  0  0
   10.4989  -15.3482   26.1512 O   0  0  0  0  0  0  0  0  0  0  0  0
    9.3084  -16.7626   24.7997 O   0  0  0  0  0  0  0  0  0  0  0  0
  2  1  1  6
  3  2  1  0
  4  3  1  0
  5  4  1  0
  6  7  1  0
  6  5  1  0
  8  2  1  0
  8  9  2  0
 11 10  1  1
 12 11  1  0
 12  8  1  0
 13 14  2  0
 13 11  1  0
 15 16  1  0
 16 17  2  0
 18 16  1  0
 18 19  1  0
 20 19  1  1
 20 22  1  0
 20 21  1  0
 21 13  1  0
 22 23  1  0
 24 22  2  0
M  END
$$$$
