KAQ.pdb
     RDKit          3D

 24 23  0  0  1  0  0  0  0  0999 V2000
    9.4398  -17.7007   18.6715 N   0  0  0  0  0  0  0  0  0  0  0  0
    8.5245  -17.5881   19.7708 C   0  0  1  0  0  0  0  0  0  0  0  0
    8.3412  -18.9663   20.3727 C   0  0  0  0  0  0  0  0  0  0  0  0
    8.4371  -19.9884   19.2504 C   0  0  0  0  0  0  0  0  0  0  0  0
    7.5604  -21.1920   19.4963 C   0  0  0  0  0  0  0  0  0  0  0  0
    7.8478  -22.1642   18.3593 C   0  0  0  0  0  0  0  0  0  0  0  0
    7.0340  -23.3543   18.4222 N   0  0  0  0  0  0  0  0  0  0  0  0
    8.8787  -16.5508   20.7369 C   0  0  0  0  0  0  0  0  0  0  0  0
   10.1051  -16.3843   21.0621 O   0  0  0  0  0  0  0  0  0  0  0  0
    7.1736  -13.8484   22.8235 C   0  0  0  0  0  0  0  0  0  0  0  0
    8.3570  -14.7050   22.3810 C   0  0  2  0  0  0  0  0  0  0  0  0
    7.9713  -15.6660   21.3854 N   0  0  0  0  0  0  0  0  0  0  0  0
    8.8792  -15.3456   23.6164 C   0  0  0  0  0  0  0  0  0  0  0  0
    8.1891  -16.2594   24.1308 O   0  0  0  0  0  0  0  0  0  0  0  0
    9.8931  -13.3172   28.8327 N   0  0  0  0  0  0  0  0  0  0  0  0
    9.8216  -14.7591   29.0291 C   0  0  0  0  0  0  0  0  0  0  0  0
   10.0381  -15.1237   30.1988 O   0  0  0  0  0  0  0  0  0  0  0  0
    9.5248  -15.6427   27.9154 C   0  0  0  0  0  0  0  0  0  0  0  0
    9.4019  -15.1109   26.5413 C   0  0  0  0  0  0  0  0  0  0  0  0
   10.4884  -15.4070   25.5820 C   0  0  2  0  0  0  0  0  0  0  0  0
   10.0989  -14.9708   24.2223 N   0  0  0  0  0  0  0  0  0  0  0  0
   10.8037  -16.8244   25.4850 C   0  0  0  0  0  0  0  0  0  0  0  0
   10.1156  -17.6554   24.5665 O   0  0  0  0  0  0  0  0  0  0  0  0
   11.6901  -17.3887   26.2080 O   0  0  0  0  0  0  0  0  0  0  0  0
  2  1  1  6
  3  2  1  0
  4  3  1  0
  5  4  1  0
  6  7  1  0
  6  5  1  0
  8  2  1  0
  8  9  2  0
 11 10  1  1
 12 11  1  0
 12  8  1  0
 13 14  2  0
 13 11  1  0
 15 16  1  0
 16 17  2  0
 18 16  1  0
 18 19  1  0
 20 19  1  1
 20 22  1  0
 20 21  1  0
 21 13  1  0
 22 23  1  0
 24 22  2  0
M  END
$$$$
