KAQ.pdb
     RDKit          3D

 24 23  0  0  1  0  0  0  0  0999 V2000
    6.6478  -18.3326   18.7687 N   0  0  0  0  0  0  0  0  0  0  0  0
    6.1011  -17.5010   19.8024 C   0  0  1  0  0  0  0  0  0  0  0  0
    5.4108  -18.3972   20.8103 C   0  0  0  0  0  0  0  0  0  0  0  0
    4.2555  -19.0948   20.1089 C   0  0  0  0  0  0  0  0  0  0  0  0
    2.9406  -18.8762   20.8166 C   0  0  0  0  0  0  0  0  0  0  0  0
    1.8980  -19.6514   20.0212 C   0  0  0  0  0  0  0  0  0  0  0  0
    0.5853  -19.5969   20.6181 N   0  0  0  0  0  0  0  0  0  0  0  0
    7.0609  -16.5662   20.3850 C   0  0  0  0  0  0  0  0  0  0  0  0
    8.1091  -17.0177   20.9638 O   0  0  0  0  0  0  0  0  0  0  0  0
    7.4473  -12.8064   20.9192 C   0  0  0  0  0  0  0  0  0  0  0  0
    7.8292  -14.2718   21.1114 C   0  0  2  0  0  0  0  0  0  0  0  0
    6.9549  -15.1465   20.3807 N   0  0  0  0  0  0  0  0  0  0  0  0
    7.7812  -14.5153   22.5769 C   0  0  0  0  0  0  0  0  0  0  0  0
    6.6620  -14.4371   23.1402 O   0  0  0  0  0  0  0  0  0  0  0  0
    6.7339  -19.3945   24.3602 N   0  0  0  0  0  0  0  0  0  0  0  0
    7.3966  -18.9814   25.5903 C   0  0  0  0  0  0  0  0  0  0  0  0
    7.3654  -19.8346   26.4952 O   0  0  0  0  0  0  0  0  0  0  0  0
    8.0166  -17.6720   25.6917 C   0  0  0  0  0  0  0  0  0  0  0  0
    8.1005  -16.7827   24.5135 C   0  0  0  0  0  0  0  0  0  0  0  0
    8.8547  -15.5175   24.6505 C   0  0  2  0  0  0  0  0  0  0  0  0
    8.9258  -14.8241   23.3447 N   0  0  0  0  0  0  0  0  0  0  0  0
   10.2287  -15.7081   25.0906 C   0  0  0  0  0  0  0  0  0  0  0  0
   11.2954  -15.6799   24.1584 O   0  0  0  0  0  0  0  0  0  0  0  0
   10.5443  -15.9140   26.3092 O   0  0  0  0  0  0  0  0  0  0  0  0
  2  1  1  6
  3  2  1  0
  4  3  1  0
  5  4  1  0
  6  7  1  0
  6  5  1  0
  8  2  1  0
  8  9  2  0
 11 10  1  1
 12 11  1  0
 12  8  1  0
 13 14  2  0
 13 11  1  0
 15 16  1  0
 16 17  2  0
 18 16  1  0
 18 19  1  0
 20 19  1  6
 20 22  1  0
 20 21  1  0
 21 13  1  0
 22 23  1  0
 24 22  2  0
M  END
$$$$
