KAQ.pdb
     RDKit          3D

 24 23  0  0  1  0  0  0  0  0999 V2000
   12.0528  -18.0719   17.0591 N   0  0  0  0  0  0  0  0  0  0  0  0
   11.5602  -18.6023   18.2981 C   0  0  1  0  0  0  0  0  0  0  0  0
   12.0489  -20.0307   18.4251 C   0  0  0  0  0  0  0  0  0  0  0  0
   12.1355  -20.6263   17.0283 C   0  0  0  0  0  0  0  0  0  0  0  0
   12.6252  -22.0538   17.0444 C   0  0  0  0  0  0  0  0  0  0  0  0
   11.4647  -22.8933   17.5630 C   0  0  0  0  0  0  0  0  0  0  0  0
   11.7326  -24.3103   17.5105 N   0  0  0  0  0  0  0  0  0  0  0  0
   11.8433  -17.7629   19.4599 C   0  0  0  0  0  0  0  0  0  0  0  0
   12.9844  -17.1929   19.5630 O   0  0  0  0  0  0  0  0  0  0  0  0
   10.0398  -16.2034   22.4093 C   0  0  0  0  0  0  0  0  0  0  0  0
   11.2880  -16.6952   21.6812 C   0  0  2  0  0  0  0  0  0  0  0  0
   10.9519  -17.4970   20.5376 N   0  0  0  0  0  0  0  0  0  0  0  0
   12.0770  -17.4484   22.6908 C   0  0  0  0  0  0  0  0  0  0  0  0
   11.7893  -18.6578   22.8655 O   0  0  0  0  0  0  0  0  0  0  0  0
   18.6453  -17.1006   23.4735 N   0  0  0  0  0  0  0  0  0  0  0  0
   17.4368  -16.2942   23.5840 C   0  0  0  0  0  0  0  0  0  0  0  0
   17.6498  -15.0845   23.7819 O   0  0  0  0  0  0  0  0  0  0  0  0
   16.1257  -16.9084   23.4699 C   0  0  0  0  0  0  0  0  0  0  0  0
   15.2258  -16.9905   24.6401 C   0  0  0  0  0  0  0  0  0  0  0  0
   13.8992  -17.6182   24.4536 C   0  0  2  0  0  0  0  0  0  0  0  0
   13.1175  -16.8651   23.4472 N   0  0  0  0  0  0  0  0  0  0  0  0
   13.0950  -17.6417   25.6661 C   0  0  0  0  0  0  0  0  0  0  0  0
   13.4738  -18.4484   26.7676 O   0  0  0  0  0  0  0  0  0  0  0  0
   12.0252  -16.9605   25.8021 O   0  0  0  0  0  0  0  0  0  0  0  0
  2  1  1  6
  3  2  1  0
  4  3  1  0
  5  4  1  0
  6  7  1  0
  6  5  1  0
  8  2  1  0
  8  9  2  0
 11 10  1  1
 12 11  1  0
 12  8  1  0
 13 14  2  0
 13 11  1  0
 15 16  1  0
 16 17  2  0
 18 16  1  0
 18 19  1  0
 20 19  1  1
 20 22  1  0
 20 21  1  0
 21 13  1  0
 22 23  1  0
 24 22  2  0
M  END
$$$$
