KAQ.pdb
     RDKit          3D

 24 23  0  0  1  0  0  0  0  0999 V2000
    9.0943  -14.1934   17.2723 N   0  0  0  0  0  0  0  0  0  0  0  0
    9.1270  -15.1534   18.3383 C   0  0  1  0  0  0  0  0  0  0  0  0
   10.4311  -15.9186   18.2415 C   0  0  0  0  0  0  0  0  0  0  0  0
   10.3098  -16.9161   17.0998 C   0  0  0  0  0  0  0  0  0  0  0  0
   11.5888  -17.6846   16.8732 C   0  0  0  0  0  0  0  0  0  0  0  0
   11.3847  -18.4762   15.5877 C   0  0  0  0  0  0  0  0  0  0  0  0
   12.4909  -19.3538   15.2901 N   0  0  0  0  0  0  0  0  0  0  0  0
    8.8567  -14.5877   19.6579 C   0  0  0  0  0  0  0  0  0  0  0  0
    9.4417  -13.5061   20.0121 O   0  0  0  0  0  0  0  0  0  0  0  0
    6.0132  -14.0973   21.6796 C   0  0  0  0  0  0  0  0  0  0  0  0
    7.5045  -14.4058   21.7841 C   0  0  2  0  0  0  0  0  0  0  0  0
    7.9765  -15.1298   20.6367 N   0  0  0  0  0  0  0  0  0  0  0  0
    7.6736  -15.1705   23.0473 C   0  0  0  0  0  0  0  0  0  0  0  0
    7.5009  -16.4130   22.9993 O   0  0  0  0  0  0  0  0  0  0  0  0
   11.3353  -13.9568   27.9473 N   0  0  0  0  0  0  0  0  0  0  0  0
   10.3358  -14.8319   28.5457 C   0  0  0  0  0  0  0  0  0  0  0  0
   10.6997  -15.3663   29.6087 O   0  0  0  0  0  0  0  0  0  0  0  0
    9.0467  -15.0274   27.9059 C   0  0  0  0  0  0  0  0  0  0  0  0
    8.7650  -14.4388   26.5792 C   0  0  0  0  0  0  0  0  0  0  0  0
    8.2775  -15.3373   25.5099 C   0  0  2  0  0  0  0  0  0  0  0  0
    8.0137  -14.5630   24.2763 N   0  0  0  0  0  0  0  0  0  0  0  0
    7.0334  -16.0135   25.8454 C   0  0  0  0  0  0  0  0  0  0  0  0
    7.0491  -17.2880   26.4645 O   0  0  0  0  0  0  0  0  0  0  0  0
    5.8851  -15.5147   25.6012 O   0  0  0  0  0  0  0  0  0  0  0  0
  2  1  1  6
  3  2  1  0
  4  3  1  0
  5  4  1  0
  6  7  1  0
  6  5  1  0
  8  2  1  0
  8  9  2  0
 11 10  1  6
 12 11  1  0
 12  8  1  0
 13 14  2  0
 13 11  1  0
 15 16  1  0
 16 17  2  0
 18 16  1  0
 18 19  1  0
 20 19  1  1
 20 22  1  0
 20 21  1  0
 21 13  1  0
 22 23  1  0
 24 22  2  0
M  END
$$$$
