KAQ.pdb
     RDKit          3D

 24 23  0  0  1  0  0  0  0  0999 V2000
    8.1036  -15.8973   17.5966 N   0  0  0  0  0  0  0  0  0  0  0  0
    8.5588  -14.5518   17.8001 C   0  0  1  0  0  0  0  0  0  0  0  0
    8.1632  -13.7336   16.5879 C   0  0  0  0  0  0  0  0  0  0  0  0
    8.3184  -14.6105   15.3549 C   0  0  0  0  0  0  0  0  0  0  0  0
    9.5790  -14.2986   14.5860 C   0  0  0  0  0  0  0  0  0  0  0  0
    9.4876  -15.0872   13.2859 C   0  0  0  0  0  0  0  0  0  0  0  0
   10.5670  -14.7906   12.3751 N   0  0  0  0  0  0  0  0  0  0  0  0
    8.1515  -13.9719   19.0778 C   0  0  0  0  0  0  0  0  0  0  0  0
    8.5949  -12.8206   19.4175 O   0  0  0  0  0  0  0  0  0  0  0  0
    5.5737  -14.5249   21.7897 C   0  0  0  0  0  0  0  0  0  0  0  0
    6.8888  -13.9539   21.2658 C   0  0  2  0  0  0  0  0  0  0  0  0
    7.2781  -14.5715   20.0287 N   0  0  0  0  0  0  0  0  0  0  0  0
    7.8853  -14.1707   22.3471 C   0  0  0  0  0  0  0  0  0  0  0  0
    7.6332  -13.6778   23.4738 O   0  0  0  0  0  0  0  0  0  0  0  0
    7.4268  -18.1238   25.8309 N   0  0  0  0  0  0  0  0  0  0  0  0
    8.8307  -17.8713   26.1282 C   0  0  0  0  0  0  0  0  0  0  0  0
    9.2479  -18.4563   27.1438 O   0  0  0  0  0  0  0  0  0  0  0  0
    9.6206  -16.9982   25.2779 C   0  0  0  0  0  0  0  0  0  0  0  0
    8.9934  -16.2664   24.1566 C   0  0  0  0  0  0  0  0  0  0  0  0
    9.8680  -15.4579   23.2792 C   0  0  2  0  0  0  0  0  0  0  0  0
    9.0826  -14.8956   22.1576 N   0  0  0  0  0  0  0  0  0  0  0  0
   10.9518  -16.2224   22.6802 C   0  0  0  0  0  0  0  0  0  0  0  0
   12.2317  -16.2566   23.2871 O   0  0  0  0  0  0  0  0  0  0  0  0
   10.8185  -16.8833   21.5975 O   0  0  0  0  0  0  0  0  0  0  0  0
  2  1  1  6
  3  2  1  0
  4  3  1  0
  5  4  1  0
  6  7  1  0
  6  5  1  0
  8  2  1  0
  8  9  2  0
 11 10  1  1
 12 11  1  0
 12  8  1  0
 13 14  2  0
 13 11  1  0
 15 16  1  0
 16 17  2  0
 18 16  1  0
 18 19  1  0
 20 19  1  6
 20 22  1  0
 20 21  1  0
 21 13  1  0
 22 23  1  0
 24 22  2  0
M  END
$$$$
