KAQ.pdb
     RDKit          3D

 24 23  0  0  1  0  0  0  0  0999 V2000
    8.0859  -12.8480   17.9560 N   0  0  0  0  0  0  0  0  0  0  0  0
    8.2632  -14.0124   18.7756 C   0  0  1  0  0  0  0  0  0  0  0  0
    9.3745  -14.8468   18.1723 C   0  0  0  0  0  0  0  0  0  0  0  0
    8.7505  -15.8236   17.1874 C   0  0  0  0  0  0  0  0  0  0  0  0
    9.1975  -17.2445   17.4299 C   0  0  0  0  0  0  0  0  0  0  0  0
    8.4838  -18.0961   16.3877 C   0  0  0  0  0  0  0  0  0  0  0  0
    8.7403  -19.5072   16.5481 N   0  0  0  0  0  0  0  0  0  0  0  0
    8.4326  -13.7201   20.1970 C   0  0  0  0  0  0  0  0  0  0  0  0
    9.2964  -12.8499   20.5632 O   0  0  0  0  0  0  0  0  0  0  0  0
    6.7329  -14.3225   23.5141 C   0  0  0  0  0  0  0  0  0  0  0  0
    7.9688  -14.0634   22.6565 C   0  0  2  0  0  0  0  0  0  0  0  0
    7.7122  -14.3224   21.2671 N   0  0  0  0  0  0  0  0  0  0  0  0
    9.0371  -14.9365   23.2092 C   0  0  0  0  0  0  0  0  0  0  0  0
    9.3632  -14.7633   24.4091 O   0  0  0  0  0  0  0  0  0  0  0  0
   14.5232  -18.8016   22.4538 N   0  0  0  0  0  0  0  0  0  0  0  0
   14.3256  -17.3601   22.5289 C   0  0  0  0  0  0  0  0  0  0  0  0
   15.1253  -16.7013   21.8401 O   0  0  0  0  0  0  0  0  0  0  0  0
   13.2727  -16.8007   23.3582 C   0  0  0  0  0  0  0  0  0  0  0  0
   12.0830  -16.1716   22.7460 C   0  0  0  0  0  0  0  0  0  0  0  0
   10.7629  -16.7896   22.9985 C   0  0  2  0  0  0  0  0  0  0  0  0
    9.6874  -15.9337   22.4492 N   0  0  0  0  0  0  0  0  0  0  0  0
   10.4675  -16.9650   24.4126 C   0  0  0  0  0  0  0  0  0  0  0  0
   10.6575  -18.2217   25.0390 O   0  0  0  0  0  0  0  0  0  0  0  0
   10.0244  -16.0236   25.1505 O   0  0  0  0  0  0  0  0  0  0  0  0
  2  1  1  6
  3  2  1  0
  4  3  1  0
  5  4  1  0
  6  7  1  0
  6  5  1  0
  8  2  1  0
  8  9  2  0
 11 10  1  1
 12 11  1  0
 12  8  1  0
 13 14  2  0
 13 11  1  0
 15 16  1  0
 16 17  2  0
 18 16  1  0
 18 19  1  0
 20 19  1  1
 20 22  1  0
 20 21  1  0
 21 13  1  0
 22 23  1  0
 24 22  2  0
M  END
$$$$
