KAQ.pdb
     RDKit          3D

 24 23  0  0  1  0  0  0  0  0999 V2000
    6.9172  -16.8502   20.3732 N   0  0  0  0  0  0  0  0  0  0  0  0
    8.0921  -16.1134   20.7416 C   0  0  1  0  0  0  0  0  0  0  0  0
    7.8146  -14.6416   20.5132 C   0  0  0  0  0  0  0  0  0  0  0  0
    7.5113  -14.4418   19.0362 C   0  0  0  0  0  0  0  0  0  0  0  0
    8.6387  -13.7505   18.3090 C   0  0  0  0  0  0  0  0  0  0  0  0
    8.1395  -13.5044   16.8910 C   0  0  0  0  0  0  0  0  0  0  0  0
    9.1228  -12.8566   16.0568 N   0  0  0  0  0  0  0  0  0  0  0  0
    8.6012  -16.4310   22.0738 C   0  0  0  0  0  0  0  0  0  0  0  0
    7.7899  -16.4879   23.0617 O   0  0  0  0  0  0  0  0  0  0  0  0
   11.8792  -17.4488   23.7342 C   0  0  0  0  0  0  0  0  0  0  0  0
   10.4100  -17.0344   23.7309 C   0  0  2  0  0  0  0  0  0  0  0  0
    9.9590  -16.6954   22.4099 N   0  0  0  0  0  0  0  0  0  0  0  0
   10.3079  -15.8922   24.6765 C   0  0  0  0  0  0  0  0  0  0  0  0
   10.8638  -14.8161   24.3464 O   0  0  0  0  0  0  0  0  0  0  0  0
    6.6273  -10.6812   27.2509 N   0  0  0  0  0  0  0  0  0  0  0  0
    6.6753  -12.1085   26.9621 C   0  0  0  0  0  0  0  0  0  0  0  0
    5.6315  -12.5599   26.4575 O   0  0  0  0  0  0  0  0  0  0  0  0
    7.8651  -12.8842   27.2652 C   0  0  0  0  0  0  0  0  0  0  0  0
    8.2073  -14.0837   26.4713 C   0  0  0  0  0  0  0  0  0  0  0  0
    9.4516  -14.8088   26.8094 C   0  0  2  0  0  0  0  0  0  0  0  0
    9.6231  -15.9712   25.9093 N   0  0  0  0  0  0  0  0  0  0  0  0
    9.4643  -15.3338   28.1666 C   0  0  0  0  0  0  0  0  0  0  0  0
    9.7257  -14.4811   29.2676 O   0  0  0  0  0  0  0  0  0  0  0  0
    9.2535  -16.5624   28.4370 O   0  0  0  0  0  0  0  0  0  0  0  0
  2  1  1  1
  3  2  1  0
  4  3  1  0
  5  4  1  0
  6  7  1  0
  6  5  1  0
  8  2  1  0
  8  9  2  0
 11 10  1  6
 12 11  1  0
 12  8  1  0
 13 14  2  0
 13 11  1  0
 15 16  1  0
 16 17  2  0
 18 16  1  0
 18 19  1  0
 20 19  1  6
 20 22  1  0
 20 21  1  0
 21 13  1  0
 22 23  1  0
 24 22  2  0
M  END
$$$$
