KAQ.pdb
     RDKit          3D

 24 23  0  0  1  0  0  0  0  0999 V2000
    9.4643  -17.1283   20.5774 N   0  0  0  0  0  0  0  0  0  0  0  0
    9.3684  -15.9855   21.4397 C   0  0  1  0  0  0  0  0  0  0  0  0
    8.2578  -15.0961   20.9193 C   0  0  0  0  0  0  0  0  0  0  0  0
    8.5789  -14.7341   19.4773 C   0  0  0  0  0  0  0  0  0  0  0  0
    7.4304  -14.0327   18.7941 C   0  0  0  0  0  0  0  0  0  0  0  0
    7.8688  -13.8090   17.3524 C   0  0  0  0  0  0  0  0  0  0  0  0
    6.8259  -13.2403   16.5330 N   0  0  0  0  0  0  0  0  0  0  0  0
    9.2602  -16.3171   22.8585 C   0  0  0  0  0  0  0  0  0  0  0  0
    8.2863  -15.8478   23.5431 O   0  0  0  0  0  0  0  0  0  0  0  0
   10.8735  -18.6527   25.3875 C   0  0  0  0  0  0  0  0  0  0  0  0
    9.9819  -17.4823   24.9806 C   0  0  2  0  0  0  0  0  0  0  0  0
   10.1571  -17.1402   23.5965 N   0  0  0  0  0  0  0  0  0  0  0  0
   10.3390  -16.3637   25.8918 C   0  0  0  0  0  0  0  0  0  0  0  0
   11.3640  -15.6946   25.6129 O   0  0  0  0  0  0  0  0  0  0  0  0
    6.7119  -11.9179   27.8195 N   0  0  0  0  0  0  0  0  0  0  0  0
    7.3387  -12.4102   26.5998 C   0  0  0  0  0  0  0  0  0  0  0  0
    6.8911  -11.8999   25.5571 O   0  0  0  0  0  0  0  0  0  0  0  0
    8.3861  -13.4145   26.6606 C   0  0  0  0  0  0  0  0  0  0  0  0
    8.8937  -13.8984   27.9622 C   0  0  0  0  0  0  0  0  0  0  0  0
    9.9538  -14.9302   27.9542 C   0  0  2  0  0  0  0  0  0  0  0  0
    9.5834  -16.0324   27.0383 N   0  0  0  0  0  0  0  0  0  0  0  0
   10.1802  -15.5367   29.2576 C   0  0  0  0  0  0  0  0  0  0  0  0
   10.7730  -14.7916   30.3069 O   0  0  0  0  0  0  0  0  0  0  0  0
    9.8730  -16.7460   29.5226 O   0  0  0  0  0  0  0  0  0  0  0  0
  2  1  1  6
  3  2  1  0
  4  3  1  0
  5  4  1  0
  6  7  1  0
  6  5  1  0
  8  2  1  0
  8  9  2  0
 11 10  1  1
 12 11  1  0
 12  8  1  0
 13 14  2  0
 13 11  1  0
 15 16  1  0
 16 17  2  0
 18 16  1  0
 18 19  1  0
 20 19  1  1
 20 22  1  0
 20 21  1  0
 21 13  1  0
 22 23  1  0
 24 22  2  0
M  END
$$$$
