VNF.pdb
     RDKit          3D

 27 27  0  0  1  0  0  0  0  0999 V2000
    7.7622  -12.2228   19.3877 C   0  0  0  0  0  0  0  0  0  0  0  0
    8.0580  -13.2386   20.4405 C   0  0  1  0  0  0  0  0  0  0  0  0
    6.8429  -13.4463   21.3212 C   0  0  0  0  0  0  0  0  0  0  0  0
    8.4801  -14.5875   19.8989 C   0  0  2  0  0  0  0  0  0  0  0  0
    7.3425  -15.0466   19.0833 N   0  0  0  0  0  0  0  0  0  0  0  0
    8.6913  -15.5758   20.9592 C   0  0  0  0  0  0  0  0  0  0  0  0
    7.6867  -16.3085   21.2481 O   0  0  0  0  0  0  0  0  0  0  0  0
   11.5011  -19.8644   22.8467 N   0  0  0  0  0  0  0  0  0  0  0  0
   11.9963  -18.5280   22.9284 C   0  0  0  0  0  0  0  0  0  0  0  0
   12.9282  -18.3108   23.7375 O   0  0  0  0  0  0  0  0  0  0  0  0
   11.4774  -17.4224   22.1281 C   0  0  0  0  0  0  0  0  0  0  0  0
   10.1628  -16.8551   22.5268 C   0  0  2  0  0  0  0  0  0  0  0  0
    9.9287  -15.7131   21.6227 N   0  0  0  0  0  0  0  0  0  0  0  0
   10.0710  -16.3294   23.9014 C   0  0  0  0  0  0  0  0  0  0  0  0
   10.8477  -15.3811   24.2760 O   0  0  0  0  0  0  0  0  0  0  0  0
    9.1716  -16.7760   24.9051 N   0  0  0  0  0  0  0  0  0  0  0  0
    9.3418  -16.3876   26.3111 C   0  0  1  0  0  0  0  0  0  0  0  0
    8.0412  -15.9741   26.9039 C   0  0  0  0  0  0  0  0  0  0  0  0
    7.7082  -14.5907   26.5152 C   0  0  0  0  0  0  0  0  0  0  0  0
    6.8360  -14.2822   25.4699 C   0  0  0  0  0  0  0  0  0  0  0  0
    6.5419  -12.9910   25.1357 C   0  0  0  0  0  0  0  0  0  0  0  0
    7.1011  -11.9239   25.8252 C   0  0  0  0  0  0  0  0  0  0  0  0
    7.9645  -12.1920   26.8598 C   0  0  0  0  0  0  0  0  0  0  0  0
    8.2531  -13.4938   27.1874 C   0  0  0  0  0  0  0  0  0  0  0  0
    9.9718  -17.4461   27.0873 C   0  0  0  0  0  0  0  0  0  0  0  0
   10.2717  -17.3659   28.3053 O   0  0  0  0  0  0  0  0  0  0  0  0
   10.2852  -18.6716   26.4598 O   0  0  0  0  0  0  0  0  0  0  0  0
  2  4  1  0
  2  1  1  6
  3  2  1  0
  4  6  1  0
  4  5  1  6
  6  7  2  0
  9  8  1  0
 10  9  2  0
 11  9  1  0
 12 11  1  6
 12 14  1  0
 13 12  1  0
 13  6  1  0
 14 15  2  0
 16 17  1  0
 16 14  1  0
 17 25  1  0
 17 18  1  1
 19 24  2  0
 19 18  1  0
 20 19  1  0
 21 22  1  0
 21 20  2  0
 22 23  2  0
 23 24  1  0
 25 26  2  0
 25 27  1  0
M  END
$$$$
