VNF.pdb
     RDKit          3D

 27 27  0  0  1  0  0  0  0  0999 V2000
    8.2026  -11.9341   19.2702 C   0  0  0  0  0  0  0  0  0  0  0  0
    8.2973  -13.0423   20.2656 C   0  0  1  0  0  0  0  0  0  0  0  0
    6.9793  -13.2020   20.9955 C   0  0  0  0  0  0  0  0  0  0  0  0
    8.6670  -14.3826   19.6674 C   0  0  2  0  0  0  0  0  0  0  0  0
    7.5939  -14.6817   18.7035 N   0  0  0  0  0  0  0  0  0  0  0  0
    8.6787  -15.4566   20.6634 C   0  0  0  0  0  0  0  0  0  0  0  0
    7.5831  -16.0954   20.8089 O   0  0  0  0  0  0  0  0  0  0  0  0
   10.7261  -20.2058   22.5457 N   0  0  0  0  0  0  0  0  0  0  0  0
   11.3108  -18.9197   22.7504 C   0  0  0  0  0  0  0  0  0  0  0  0
   12.1292  -18.8059   23.6924 O   0  0  0  0  0  0  0  0  0  0  0  0
   11.0056  -17.7519   21.9287 C   0  0  0  0  0  0  0  0  0  0  0  0
    9.8287  -16.9344   22.3227 C   0  0  2  0  0  0  0  0  0  0  0  0
    9.8292  -15.7694   21.4174 N   0  0  0  0  0  0  0  0  0  0  0  0
    9.8384  -16.3997   23.6968 C   0  0  0  0  0  0  0  0  0  0  0  0
   10.7037  -15.5155   24.0322 O   0  0  0  0  0  0  0  0  0  0  0  0
    8.9505  -16.7705   24.7407 N   0  0  0  0  0  0  0  0  0  0  0  0
    9.1641  -16.3192   26.1217 C   0  0  1  0  0  0  0  0  0  0  0  0
    7.8766  -15.9139   26.7479 C   0  0  0  0  0  0  0  0  0  0  0  0
    7.5169  -14.5383   26.3553 C   0  0  0  0  0  0  0  0  0  0  0  0
    8.2483  -13.4172   26.7512 C   0  0  0  0  0  0  0  0  0  0  0  0
    7.8944  -12.1551   26.3676 C   0  0  0  0  0  0  0  0  0  0  0  0
    6.7856  -11.9318   25.5629 C   0  0  0  0  0  0  0  0  0  0  0  0
    6.0427  -13.0134   25.1553 C   0  0  0  0  0  0  0  0  0  0  0  0
    6.4077  -14.2779   25.5468 C   0  0  0  0  0  0  0  0  0  0  0  0
    9.8515  -17.3279   26.9153 C   0  0  0  0  0  0  0  0  0  0  0  0
   10.0523  -18.5152   26.5546 O   0  0  0  0  0  0  0  0  0  0  0  0
   10.3453  -16.9851   28.1929 O   0  0  0  0  0  0  0  0  0  0  0  0
  2  4  1  0
  2  1  1  6
  3  2  1  0
  4  6  1  0
  4  5  1  6
  6  7  2  0
  9  8  1  0
 10  9  2  0
 11  9  1  0
 12 11  1  6
 12 14  1  0
 13 12  1  0
 13  6  1  0
 14 15  2  0
 16 17  1  0
 16 14  1  0
 17 25  1  0
 17 18  1  1
 19 24  2  0
 19 18  1  0
 20 19  1  0
 21 22  1  0
 21 20  2  0
 22 23  2  0
 23 24  1  0
 25 26  2  0
 25 27  1  0
M  END
$$$$
