VNF.pdb
     RDKit          3D

 27 27  0  0  1  0  0  0  0  0999 V2000
    8.2945  -12.5933   21.3113 C   0  0  0  0  0  0  0  0  0  0  0  0
    7.6393  -13.2524   20.1432 C   0  0  1  0  0  0  0  0  0  0  0  0
    7.5180  -12.2743   18.9926 C   0  0  0  0  0  0  0  0  0  0  0  0
    8.3641  -14.4817   19.6386 C   0  0  2  0  0  0  0  0  0  0  0  0
    7.5170  -15.0085   18.5546 N   0  0  0  0  0  0  0  0  0  0  0  0
    8.4748  -15.5255   20.6602 C   0  0  0  0  0  0  0  0  0  0  0  0
    7.4424  -16.2582   20.8245 O   0  0  0  0  0  0  0  0  0  0  0  0
   10.9984  -20.0927   22.3800 N   0  0  0  0  0  0  0  0  0  0  0  0
   11.3689  -18.7565   22.7194 C   0  0  0  0  0  0  0  0  0  0  0  0
   12.0554  -18.5981   23.7557 O   0  0  0  0  0  0  0  0  0  0  0  0
   10.9925  -17.5871   21.9302 C   0  0  0  0  0  0  0  0  0  0  0  0
    9.7627  -16.8599   22.3396 C   0  0  2  0  0  0  0  0  0  0  0  0
    9.6498  -15.7134   21.4180 N   0  0  0  0  0  0  0  0  0  0  0  0
    9.7597  -16.3040   23.7053 C   0  0  0  0  0  0  0  0  0  0  0  0
   10.6380  -15.4335   24.0427 O   0  0  0  0  0  0  0  0  0  0  0  0
    8.8455  -16.6392   24.7386 N   0  0  0  0  0  0  0  0  0  0  0  0
    9.0445  -16.1712   26.1162 C   0  0  1  0  0  0  0  0  0  0  0  0
    7.7490  -15.7687   26.7276 C   0  0  0  0  0  0  0  0  0  0  0  0
    7.4022  -14.3858   26.3496 C   0  0  0  0  0  0  0  0  0  0  0  0
    8.1995  -13.2857   26.6701 C   0  0  0  0  0  0  0  0  0  0  0  0
    7.8555  -12.0163   26.3019 C   0  0  0  0  0  0  0  0  0  0  0  0
    6.6914  -11.7641   25.5891 C   0  0  0  0  0  0  0  0  0  0  0  0
    5.8830  -12.8244   25.2574 C   0  0  0  0  0  0  0  0  0  0  0  0
    6.2385  -14.0965   25.6325 C   0  0  0  0  0  0  0  0  0  0  0  0
    9.7329  -17.1660   26.9263 C   0  0  0  0  0  0  0  0  0  0  0  0
    9.9704  -18.3476   26.5690 O   0  0  0  0  0  0  0  0  0  0  0  0
   10.1840  -16.8152   28.2175 O   0  0  0  0  0  0  0  0  0  0  0  0
  2  4  1  0
  2  1  1  1
  3  2  1  0
  4  6  1  0
  4  5  1  6
  6  7  2  0
  9  8  1  0
 10  9  2  0
 11  9  1  0
 12 11  1  6
 12 14  1  0
 13 12  1  0
 13  6  1  0
 14 15  2  0
 16 17  1  0
 16 14  1  0
 17 25  1  0
 17 18  1  1
 19 24  2  0
 19 18  1  0
 20 19  1  0
 21 22  1  0
 21 20  2  0
 22 23  2  0
 23 24  1  0
 25 26  2  0
 25 27  1  0
M  END
$$$$
