VNF.pdb
     RDKit          3D

 27 27  0  0  1  0  0  0  0  0999 V2000
    8.1322  -11.9227   19.5159 C   0  0  0  0  0  0  0  0  0  0  0  0
    8.1810  -13.0412   20.5031 C   0  0  1  0  0  0  0  0  0  0  0  0
    6.8062  -13.2746   21.0954 C   0  0  0  0  0  0  0  0  0  0  0  0
    8.6729  -14.3528   19.9297 C   0  0  2  0  0  0  0  0  0  0  0  0
    7.7134  -14.6895   18.8638 N   0  0  0  0  0  0  0  0  0  0  0  0
    8.6429  -15.4397   20.9111 C   0  0  0  0  0  0  0  0  0  0  0  0
    7.5982  -16.1734   20.9003 O   0  0  0  0  0  0  0  0  0  0  0  0
   10.5138  -18.9428   19.9094 N   0  0  0  0  0  0  0  0  0  0  0  0
   10.2904  -18.8722   21.3175 C   0  0  0  0  0  0  0  0  0  0  0  0
    9.6752  -19.8260   21.8485 O   0  0  0  0  0  0  0  0  0  0  0  0
   10.7371  -17.7610   22.1530 C   0  0  0  0  0  0  0  0  0  0  0  0
    9.6903  -16.8530   22.6901 C   0  0  2  0  0  0  0  0  0  0  0  0
    9.7025  -15.6656   21.8146 N   0  0  0  0  0  0  0  0  0  0  0  0
    9.8966  -16.3638   24.0657 C   0  0  0  0  0  0  0  0  0  0  0  0
   10.8878  -15.5945   24.3283 O   0  0  0  0  0  0  0  0  0  0  0  0
    9.0778  -16.6614   25.1868 N   0  0  0  0  0  0  0  0  0  0  0  0
    9.4418  -16.2168   26.5382 C   0  0  1  0  0  0  0  0  0  0  0  0
    8.2425  -15.7322   27.2736 C   0  0  0  0  0  0  0  0  0  0  0  0
    7.7836  -14.4410   26.7278 C   0  0  0  0  0  0  0  0  0  0  0  0
    8.3913  -13.2233   27.0386 C   0  0  0  0  0  0  0  0  0  0  0  0
    7.9477  -12.0432   26.5136 C   0  0  0  0  0  0  0  0  0  0  0  0
    6.8669  -12.0036   25.6433 C   0  0  0  0  0  0  0  0  0  0  0  0
    6.2449  -13.1844   25.3164 C   0  0  0  0  0  0  0  0  0  0  0  0
    6.6993  -14.3652   25.8500 C   0  0  0  0  0  0  0  0  0  0  0  0
   10.1375  -17.2608   27.2770 C   0  0  0  0  0  0  0  0  0  0  0  0
   10.2666  -18.4511   26.8941 O   0  0  0  0  0  0  0  0  0  0  0  0
   10.7260  -16.9520   28.5228 O   0  0  0  0  0  0  0  0  0  0  0  0
  2  4  1  0
  2  1  1  6
  3  2  1  0
  4  6  1  0
  4  5  1  6
  6  7  2  0
  9  8  1  0
 10  9  2  0
 11  9  1  0
 12 11  1  6
 12 14  1  0
 13 12  1  0
 13  6  1  0
 14 15  2  0
 16 17  1  0
 16 14  1  0
 17 25  1  0
 17 18  1  1
 19 24  2  0
 19 18  1  0
 20 19  1  0
 21 22  1  0
 21 20  2  0
 22 23  2  0
 23 24  1  0
 25 26  2  0
 25 27  1  0
M  END
$$$$
