VNF.pdb
     RDKit          3D

 27 27  0  0  1  0  0  0  0  0999 V2000
    6.8723  -13.0109   19.3028 C   0  0  0  0  0  0  0  0  0  0  0  0
    7.3820  -14.2988   19.8592 C   0  0  1  0  0  0  0  0  0  0  0  0
    8.6185  -14.7406   19.1034 C   0  0  0  0  0  0  0  0  0  0  0  0
    7.7276  -14.2441   21.3318 C   0  0  2  0  0  0  0  0  0  0  0  0
    8.7735  -13.2125   21.4423 N   0  0  0  0  0  0  0  0  0  0  0  0
    8.2946  -15.5027   21.8214 C   0  0  0  0  0  0  0  0  0  0  0  0
    7.4955  -16.4975   21.8607 O   0  0  0  0  0  0  0  0  0  0  0  0
   10.4875  -18.5416   20.1021 N   0  0  0  0  0  0  0  0  0  0  0  0
   11.2897  -17.4793   20.6177 C   0  0  0  0  0  0  0  0  0  0  0  0
   11.9210  -16.7837   19.7884 O   0  0  0  0  0  0  0  0  0  0  0  0
   11.4069  -17.1708   22.0401 C   0  0  0  0  0  0  0  0  0  0  0  0
   10.1488  -16.8837   22.7776 C   0  0  2  0  0  0  0  0  0  0  0  0
    9.6418  -15.6132   22.2251 N   0  0  0  0  0  0  0  0  0  0  0  0
   10.2781  -16.6879   24.2333 C   0  0  0  0  0  0  0  0  0  0  0  0
   10.9785  -17.5061   24.9283 O   0  0  0  0  0  0  0  0  0  0  0  0
    9.6872  -15.6406   24.9881 N   0  0  0  0  0  0  0  0  0  0  0  0
   10.0405  -15.4207   26.3964 C   0  0  1  0  0  0  0  0  0  0  0  0
    9.9810  -13.9727   26.7339 C   0  0  0  0  0  0  0  0  0  0  0  0
    8.6342  -13.4317   26.4709 C   0  0  0  0  0  0  0  0  0  0  0  0
    7.7095  -13.1650   27.4821 C   0  0  0  0  0  0  0  0  0  0  0  0
    6.4708  -12.6588   27.2089 C   0  0  0  0  0  0  0  0  0  0  0  0
    6.0759  -12.3862   25.9064 C   0  0  0  0  0  0  0  0  0  0  0  0
    6.9616  -12.6374   24.8865 C   0  0  0  0  0  0  0  0  0  0  0  0
    8.2045  -13.1463   25.1725 C   0  0  0  0  0  0  0  0  0  0  0  0
    9.2066  -16.2133   27.2886 C   0  0  0  0  0  0  0  0  0  0  0  0
    8.1852  -16.8569   26.9385 O   0  0  0  0  0  0  0  0  0  0  0  0
    9.5377  -16.2902   28.6591 O   0  0  0  0  0  0  0  0  0  0  0  0
  2  4  1  0
  2  1  1  6
  3  2  1  0
  4  6  1  0
  4  5  1  6
  6  7  2  0
  9  8  1  0
 10  9  2  0
 11  9  1  0
 12 11  1  6
 12 14  1  0
 13 12  1  0
 13  6  1  0
 14 15  2  0
 16 17  1  0
 16 14  1  0
 17 25  1  0
 17 18  1  1
 19 24  2  0
 19 18  1  0
 20 19  1  0
 21 22  1  0
 21 20  2  0
 22 23  2  0
 23 24  1  0
 25 26  2  0
 25 27  1  0
M  END
$$$$
