VNF.pdb
     RDKit          3D

 27 27  0  0  1  0  0  0  0  0999 V2000
    8.4625  -12.5169   18.3676 C   0  0  0  0  0  0  0  0  0  0  0  0
    8.6785  -13.5282   19.4441 C   0  0  1  0  0  0  0  0  0  0  0  0
    7.5172  -13.5108   20.4168 C   0  0  0  0  0  0  0  0  0  0  0  0
    8.8452  -14.9452   18.9387 C   0  0  2  0  0  0  0  0  0  0  0  0
    7.6266  -15.2199   18.1579 N   0  0  0  0  0  0  0  0  0  0  0  0
    8.9036  -15.9246   20.0262 C   0  0  0  0  0  0  0  0  0  0  0  0
    7.7944  -16.4680   20.3488 O   0  0  0  0  0  0  0  0  0  0  0  0
   10.8140  -20.5449   22.4446 N   0  0  0  0  0  0  0  0  0  0  0  0
   10.7191  -19.5990   21.3797 C   0  0  0  0  0  0  0  0  0  0  0  0
   10.2354  -20.0025   20.2965 O   0  0  0  0  0  0  0  0  0  0  0  0
   11.1514  -18.2087   21.4914 C   0  0  0  0  0  0  0  0  0  0  0  0
   10.1094  -17.1982   21.8105 C   0  0  2  0  0  0  0  0  0  0  0  0
   10.1106  -16.2508   20.6795 N   0  0  0  0  0  0  0  0  0  0  0  0
   10.3301  -16.3986   23.0296 C   0  0  0  0  0  0  0  0  0  0  0  0
   10.9155  -16.9245   24.0414 O   0  0  0  0  0  0  0  0  0  0  0  0
    9.9510  -15.0431   23.2161 N   0  0  0  0  0  0  0  0  0  0  0  0
    9.3432  -14.5858   24.4722 C   0  0  1  0  0  0  0  0  0  0  0  0
    8.0149  -13.9650   24.2186 C   0  0  0  0  0  0  0  0  0  0  0  0
    7.4758  -13.3658   25.4539 C   0  0  0  0  0  0  0  0  0  0  0  0
    6.1341  -13.0119   25.6064 C   0  0  0  0  0  0  0  0  0  0  0  0
    5.6619  -12.4634   26.7646 C   0  0  0  0  0  0  0  0  0  0  0  0
    6.5009  -12.2328   27.8462 C   0  0  0  0  0  0  0  0  0  0  0  0
    7.8281  -12.5691   27.7299 C   0  0  0  0  0  0  0  0  0  0  0  0
    8.2921  -13.1201   26.5609 C   0  0  0  0  0  0  0  0  0  0  0  0
    9.2537  -15.6627   25.4479 C   0  0  0  0  0  0  0  0  0  0  0  0
    9.9381  -15.7416   26.4993 O   0  0  0  0  0  0  0  0  0  0  0  0
    8.3397  -16.7173   25.2326 O   0  0  0  0  0  0  0  0  0  0  0  0
  2  4  1  0
  2  1  1  6
  3  2  1  0
  4  6  1  0
  4  5  1  6
  6  7  2  0
  9  8  1  0
 10  9  2  0
 11  9  1  0
 12 11  1  6
 12 14  1  0
 13 12  1  0
 13  6  1  0
 14 15  2  0
 16 17  1  0
 16 14  1  0
 17 25  1  0
 17 18  1  6
 19 24  2  0
 19 18  1  0
 20 19  1  0
 21 22  1  0
 21 20  2  0
 22 23  2  0
 23 24  1  0
 25 26  2  0
 25 27  1  0
M  END
$$$$
