VNF.pdb
     RDKit          3D

 27 27  0  0  1  0  0  0  0  0999 V2000
    8.4455  -12.6419   21.5899 C   0  0  0  0  0  0  0  0  0  0  0  0
    7.7057  -13.3554   20.5076 C   0  0  1  0  0  0  0  0  0  0  0  0
    7.4373  -12.4142   19.3511 C   0  0  0  0  0  0  0  0  0  0  0  0
    8.4236  -14.5722   19.9644 C   0  0  2  0  0  0  0  0  0  0  0  0
    7.5014  -15.1505   18.9718 N   0  0  0  0  0  0  0  0  0  0  0  0
    8.6603  -15.5883   20.9925 C   0  0  0  0  0  0  0  0  0  0  0  0
    7.6654  -16.3350   21.2796 O   0  0  0  0  0  0  0  0  0  0  0  0
   12.3635  -17.6211   19.8083 N   0  0  0  0  0  0  0  0  0  0  0  0
   11.5605  -18.0966   20.8885 C   0  0  0  0  0  0  0  0  0  0  0  0
   10.9087  -19.1495   20.6975 O   0  0  0  0  0  0  0  0  0  0  0  0
   11.4649  -17.4259   22.1820 C   0  0  0  0  0  0  0  0  0  0  0  0
   10.1425  -16.8600   22.5563 C   0  0  2  0  0  0  0  0  0  0  0  0
    9.9107  -15.7365   21.6286 N   0  0  0  0  0  0  0  0  0  0  0  0
   10.0327  -16.3096   23.9198 C   0  0  0  0  0  0  0  0  0  0  0  0
   10.8102  -15.3602   24.2901 O   0  0  0  0  0  0  0  0  0  0  0  0
    9.1143  -16.7322   24.9167 N   0  0  0  0  0  0  0  0  0  0  0  0
    9.2043  -16.2388   26.2968 C   0  0  1  0  0  0  0  0  0  0  0  0
    7.8629  -15.8384   26.8011 C   0  0  0  0  0  0  0  0  0  0  0  0
    7.5520  -14.4508   26.4090 C   0  0  0  0  0  0  0  0  0  0  0  0
    6.5308  -14.1222   25.5159 C   0  0  0  0  0  0  0  0  0  0  0  0
    6.2622  -12.8272   25.1752 C   0  0  0  0  0  0  0  0  0  0  0  0
    6.9975  -11.7760   25.7056 C   0  0  0  0  0  0  0  0  0  0  0  0
    8.0107  -12.0642   26.5878 C   0  0  0  0  0  0  0  0  0  0  0  0
    8.2721  -13.3697   26.9234 C   0  0  0  0  0  0  0  0  0  0  0  0
    9.8376  -17.2129   27.1743 C   0  0  0  0  0  0  0  0  0  0  0  0
   10.0790  -17.0338   28.3948 O   0  0  0  0  0  0  0  0  0  0  0  0
   10.2242  -18.4664   26.6519 O   0  0  0  0  0  0  0  0  0  0  0  0
  2  4  1  0
  2  1  1  1
  3  2  1  0
  4  6  1  0
  4  5  1  6
  6  7  2  0
  9  8  1  0
 10  9  2  0
 11  9  1  0
 12 11  1  6
 12 14  1  0
 13 12  1  0
 13  6  1  0
 14 15  2  0
 16 17  1  0
 16 14  1  0
 17 25  1  0
 17 18  1  1
 19 24  2  0
 19 18  1  0
 20 19  1  0
 21 22  1  0
 21 20  2  0
 22 23  2  0
 23 24  1  0
 25 26  2  0
 25 27  1  0
M  END
$$$$
