VNF.pdb
     RDKit          3D

 27 27  0  0  1  0  0  0  0  0999 V2000
    7.7845  -12.4428   19.2489 C   0  0  0  0  0  0  0  0  0  0  0  0
    8.2095  -13.2864   20.4046 C   0  0  1  0  0  0  0  0  0  0  0  0
    7.3475  -12.9870   21.6140 C   0  0  0  0  0  0  0  0  0  0  0  0
    8.1462  -14.7756   20.1412 C   0  0  2  0  0  0  0  0  0  0  0  0
    6.7240  -15.0592   19.8822 N   0  0  0  0  0  0  0  0  0  0  0  0
    8.5502  -15.5680   21.3050 C   0  0  0  0  0  0  0  0  0  0  0  0
    7.6025  -15.9990   22.0437 O   0  0  0  0  0  0  0  0  0  0  0  0
   11.8573  -19.8239   23.1521 N   0  0  0  0  0  0  0  0  0  0  0  0
   12.1028  -18.4177   23.1524 C   0  0  0  0  0  0  0  0  0  0  0  0
   12.9013  -17.9757   24.0109 O   0  0  0  0  0  0  0  0  0  0  0  0
   11.4785  -17.4871   22.2162 C   0  0  0  0  0  0  0  0  0  0  0  0
   10.2556  -16.7795   22.6774 C   0  0  2  0  0  0  0  0  0  0  0  0
    9.9036  -15.8411   21.5948 N   0  0  0  0  0  0  0  0  0  0  0  0
   10.3939  -15.9737   23.9045 C   0  0  0  0  0  0  0  0  0  0  0  0
   10.3544  -14.6942   23.8365 O   0  0  0  0  0  0  0  0  0  0  0  0
   10.5713  -16.4815   25.2184 N   0  0  0  0  0  0  0  0  0  0  0  0
    9.6914  -16.0727   26.3207 C   0  0  1  0  0  0  0  0  0  0  0  0
    8.2717  -16.0405   25.8765 C   0  0  0  0  0  0  0  0  0  0  0  0
    7.7337  -14.6691   25.9515 C   0  0  0  0  0  0  0  0  0  0  0  0
    8.3474  -13.6488   26.6800 C   0  0  0  0  0  0  0  0  0  0  0  0
    7.8288  -12.3862   26.7269 C   0  0  0  0  0  0  0  0  0  0  0  0
    6.6623  -12.0615   26.0481 C   0  0  0  0  0  0  0  0  0  0  0  0
    6.0320  -13.0425   25.3213 C   0  0  0  0  0  0  0  0  0  0  0  0
    6.5622  -14.3085   25.2810 C   0  0  0  0  0  0  0  0  0  0  0  0
    9.8675  -16.9216   27.4904 C   0  0  0  0  0  0  0  0  0  0  0  0
    9.8495  -16.5203   28.6815 O   0  0  0  0  0  0  0  0  0  0  0  0
   10.0763  -18.3070   27.3150 O   0  0  0  0  0  0  0  0  0  0  0  0
  2  4  1  0
  2  1  1  6
  3  2  1  0
  4  6  1  0
  4  5  1  1
  6  7  2  0
  9  8  1  0
 10  9  2  0
 11  9  1  0
 12 11  1  6
 12 14  1  0
 13 12  1  0
 13  6  1  0
 14 15  2  0
 16 17  1  0
 16 14  1  0
 17 25  1  0
 17 18  1  6
 19 24  2  0
 19 18  1  0
 20 19  1  0
 21 22  1  0
 21 20  2  0
 22 23  2  0
 23 24  1  0
 25 26  2  0
 25 27  1  0
M  END
$$$$
