VNF.pdb
     RDKit          3D

 27 27  0  0  1  0  0  0  0  0999 V2000
    8.1710  -12.4461   21.3710 C   0  0  0  0  0  0  0  0  0  0  0  0
    7.5874  -13.4454   20.4283 C   0  0  1  0  0  0  0  0  0  0  0  0
    6.7707  -12.7428   19.3630 C   0  0  0  0  0  0  0  0  0  0  0  0
    8.6133  -14.3154   19.7343 C   0  0  2  0  0  0  0  0  0  0  0  0
    7.8481  -15.0999   18.7498 N   0  0  0  0  0  0  0  0  0  0  0  0
    9.2569  -15.2610   20.6492 C   0  0  0  0  0  0  0  0  0  0  0  0
    8.6164  -16.3414   20.8775 O   0  0  0  0  0  0  0  0  0  0  0  0
   13.5857  -14.6163   19.7870 N   0  0  0  0  0  0  0  0  0  0  0  0
   13.0517  -15.7957   20.3882 C   0  0  0  0  0  0  0  0  0  0  0  0
   12.9434  -16.8106   19.6612 O   0  0  0  0  0  0  0  0  0  0  0  0
   12.6336  -15.8738   21.7851 C   0  0  0  0  0  0  0  0  0  0  0  0
   11.1801  -16.0348   22.0499 C   0  0  2  0  0  0  0  0  0  0  0  0
   10.5089  -14.9976   21.2435 N   0  0  0  0  0  0  0  0  0  0  0  0
   10.7461  -15.8303   23.4441 C   0  0  0  0  0  0  0  0  0  0  0  0
   11.4645  -15.1284   24.2405 O   0  0  0  0  0  0  0  0  0  0  0  0
    9.5611  -16.3467   24.0314 N   0  0  0  0  0  0  0  0  0  0  0  0
    9.3644  -16.3406   25.4867 C   0  0  1  0  0  0  0  0  0  0  0  0
    7.9359  -16.0955   25.8235 C   0  0  0  0  0  0  0  0  0  0  0  0
    7.5638  -14.6988   25.5297 C   0  0  0  0  0  0  0  0  0  0  0  0
    7.0084  -14.2981   24.3133 C   0  0  0  0  0  0  0  0  0  0  0  0
    6.6685  -12.9976   24.0714 C   0  0  0  0  0  0  0  0  0  0  0  0
    6.8620  -12.0127   25.0303 C   0  0  0  0  0  0  0  0  0  0  0  0
    7.4073  -12.3726   26.2390 C   0  0  0  0  0  0  0  0  0  0  0  0
    7.7452  -13.6830   26.4717 C   0  0  0  0  0  0  0  0  0  0  0  0
    9.8565  -17.5661   26.0995 C   0  0  0  0  0  0  0  0  0  0  0  0
    9.9688  -17.7587   27.3366 O   0  0  0  0  0  0  0  0  0  0  0  0
   10.2471  -18.6437   25.2750 O   0  0  0  0  0  0  0  0  0  0  0  0
  2  4  1  0
  2  1  1  1
  3  2  1  0
  4  6  1  0
  4  5  1  6
  6  7  2  0
  9  8  1  0
 10  9  2  0
 11  9  1  0
 12 11  1  1
 12 14  1  0
 13 12  1  0
 13  6  1  0
 14 15  2  0
 16 17  1  0
 16 14  1  0
 17 25  1  0
 17 18  1  6
 19 24  2  0
 19 18  1  0
 20 19  1  0
 21 22  1  0
 21 20  2  0
 22 23  2  0
 23 24  1  0
 25 26  2  0
 25 27  1  0
M  END
$$$$
