VNF.pdb
     RDKit          3D

 27 27  0  0  1  0  0  0  0  0999 V2000
    8.4873  -12.8637   20.6413 C   0  0  0  0  0  0  0  0  0  0  0  0
    7.7698  -13.6960   19.6311 C   0  0  1  0  0  0  0  0  0  0  0  0
    7.3818  -12.8479   18.4371 C   0  0  0  0  0  0  0  0  0  0  0  0
    8.5657  -14.8802   19.1258 C   0  0  2  0  0  0  0  0  0  0  0  0
    7.6553  -15.5930   18.2130 N   0  0  0  0  0  0  0  0  0  0  0  0
    8.9319  -15.8079   20.1985 C   0  0  0  0  0  0  0  0  0  0  0  0
    7.9809  -16.5130   20.6761 O   0  0  0  0  0  0  0  0  0  0  0  0
   12.8642  -18.0504   19.2367 N   0  0  0  0  0  0  0  0  0  0  0  0
   12.0904  -18.3064   20.4086 C   0  0  0  0  0  0  0  0  0  0  0  0
   11.5160  -19.4174   20.4844 O   0  0  0  0  0  0  0  0  0  0  0  0
   11.9395  -17.3517   21.5032 C   0  0  0  0  0  0  0  0  0  0  0  0
   10.5689  -16.8477   21.7792 C   0  0  2  0  0  0  0  0  0  0  0  0
   10.2543  -15.9188   20.6770 N   0  0  0  0  0  0  0  0  0  0  0  0
   10.3945  -16.0892   23.0316 C   0  0  0  0  0  0  0  0  0  0  0  0
   10.8305  -14.8868   23.1164 O   0  0  0  0  0  0  0  0  0  0  0  0
    9.7635  -16.5641   24.2115 N   0  0  0  0  0  0  0  0  0  0  0  0
    9.2399  -15.6377   25.2235 C   0  0  1  0  0  0  0  0  0  0  0  0
    8.3585  -14.6162   24.5961 C   0  0  0  0  0  0  0  0  0  0  0  0
    7.8921  -13.6428   25.6014 C   0  0  0  0  0  0  0  0  0  0  0  0
    8.7549  -12.7972   26.3008 C   0  0  0  0  0  0  0  0  0  0  0  0
    8.2936  -11.9014   27.2227 C   0  0  0  0  0  0  0  0  0  0  0  0
    6.9389  -11.7926   27.5054 C   0  0  0  0  0  0  0  0  0  0  0  0
    6.0616  -12.6105   26.8352 C   0  0  0  0  0  0  0  0  0  0  0  0
    6.5362  -13.5075   25.9103 C   0  0  0  0  0  0  0  0  0  0  0  0
    8.5584  -16.3462   26.2975 C   0  0  0  0  0  0  0  0  0  0  0  0
    7.6423  -17.1915   26.1358 O   0  0  0  0  0  0  0  0  0  0  0  0
    8.9266  -16.0922   27.6368 O   0  0  0  0  0  0  0  0  0  0  0  0
  2  4  1  0
  2  1  1  1
  3  2  1  0
  4  6  1  0
  4  5  1  6
  6  7  2  0
  9  8  1  0
 10  9  2  0
 11  9  1  0
 12 11  1  6
 12 14  1  0
 13 12  1  0
 13  6  1  0
 14 15  2  0
 16 17  1  0
 16 14  1  0
 17 25  1  0
 17 18  1  6
 19 24  2  0
 19 18  1  0
 20 19  1  0
 21 22  1  0
 21 20  2  0
 22 23  2  0
 23 24  1  0
 25 26  2  0
 25 27  1  0
M  END
$$$$
