VNF.pdb
     RDKit          3D

 27 27  0  0  1  0  0  0  0  0999 V2000
    8.9019  -12.6649   20.8826 C   0  0  0  0  0  0  0  0  0  0  0  0
    7.9938  -13.2714   19.8650 C   0  0  1  0  0  0  0  0  0  0  0  0
    8.0537  -12.4798   18.5746 C   0  0  0  0  0  0  0  0  0  0  0  0
    8.3027  -14.7176   19.5423 C   0  0  2  0  0  0  0  0  0  0  0  0
    7.2782  -15.1195   18.5630 N   0  0  0  0  0  0  0  0  0  0  0  0
    8.1671  -15.5932   20.7086 C   0  0  0  0  0  0  0  0  0  0  0  0
    6.9726  -15.8503   21.0783 O   0  0  0  0  0  0  0  0  0  0  0  0
    8.9175  -20.5022   23.2888 N   0  0  0  0  0  0  0  0  0  0  0  0
    9.7384  -19.3371   23.2089 C   0  0  0  0  0  0  0  0  0  0  0  0
   10.6096  -19.1882   24.0972 O   0  0  0  0  0  0  0  0  0  0  0  0
    9.6131  -18.3292   22.1599 C   0  0  0  0  0  0  0  0  0  0  0  0
    9.0988  -16.9936   22.5608 C   0  0  2  0  0  0  0  0  0  0  0  0
    9.2863  -16.1228   21.3847 N   0  0  0  0  0  0  0  0  0  0  0  0
    9.7940  -16.3390   23.6843 C   0  0  0  0  0  0  0  0  0  0  0  0
   10.9809  -15.8827   23.5225 O   0  0  0  0  0  0  0  0  0  0  0  0
    9.2686  -16.1450   24.9889 N   0  0  0  0  0  0  0  0  0  0  0  0
   10.1399  -15.8021   26.1202 C   0  0  1  0  0  0  0  0  0  0  0  0
   10.1051  -14.3386   26.3865 C   0  0  0  0  0  0  0  0  0  0  0  0
    8.7169  -13.8761   26.5728 C   0  0  0  0  0  0  0  0  0  0  0  0
    8.3926  -12.5711   26.9477 C   0  0  0  0  0  0  0  0  0  0  0  0
    7.0970  -12.1696   27.1076 C   0  0  0  0  0  0  0  0  0  0  0  0
    6.0410  -13.0470   26.9032 C   0  0  0  0  0  0  0  0  0  0  0  0
    6.3248  -14.3397   26.5338 C   0  0  0  0  0  0  0  0  0  0  0  0
    7.6310  -14.7327   26.3757 C   0  0  0  0  0  0  0  0  0  0  0  0
    9.8021  -16.5711   27.3095 C   0  0  0  0  0  0  0  0  0  0  0  0
    8.8714  -17.4127   27.3834 O   0  0  0  0  0  0  0  0  0  0  0  0
   10.5545  -16.3861   28.4899 O   0  0  0  0  0  0  0  0  0  0  0  0
  2  4  1  0
  2  1  1  1
  3  2  1  0
  4  6  1  0
  4  5  1  6
  6  7  2  0
  9  8  1  0
 10  9  2  0
 11  9  1  0
 12 11  1  6
 12 14  1  0
 13 12  1  0
 13  6  1  0
 14 15  2  0
 16 17  1  0
 16 14  1  0
 17 25  1  0
 17 18  1  1
 19 24  2  0
 19 18  1  0
 20 19  1  0
 21 22  1  0
 21 20  2  0
 22 23  2  0
 23 24  1  0
 25 26  2  0
 25 27  1  0
M  END
$$$$
