VNF.pdb
     RDKit          3D

 27 27  0  0  1  0  0  0  0  0999 V2000
    8.3335  -12.6036   21.2512 C   0  0  0  0  0  0  0  0  0  0  0  0
    7.5006  -13.5026   20.3992 C   0  0  1  0  0  0  0  0  0  0  0  0
    6.9554  -12.7374   19.2107 C   0  0  0  0  0  0  0  0  0  0  0  0
    8.2363  -14.7177   19.8764 C   0  0  2  0  0  0  0  0  0  0  0  0
    7.2259  -15.4857   19.1285 N   0  0  0  0  0  0  0  0  0  0  0  0
    8.7364  -15.5760   20.9529 C   0  0  0  0  0  0  0  0  0  0  0  0
    7.9396  -16.4885   21.3556 O   0  0  0  0  0  0  0  0  0  0  0  0
   12.9084  -18.8553   22.1371 N   0  0  0  0  0  0  0  0  0  0  0  0
   13.0514  -17.4414   22.2727 C   0  0  0  0  0  0  0  0  0  0  0  0
   14.0388  -17.0253   22.9223 O   0  0  0  0  0  0  0  0  0  0  0  0
   12.1183  -16.4751   21.7004 C   0  0  0  0  0  0  0  0  0  0  0  0
   10.7048  -16.5467   22.1540 C   0  0  2  0  0  0  0  0  0  0  0  0
   10.0202  -15.4079   21.5128 N   0  0  0  0  0  0  0  0  0  0  0  0
   10.4793  -16.4107   23.6048 C   0  0  0  0  0  0  0  0  0  0  0  0
   10.9848  -17.2676   24.4131 O   0  0  0  0  0  0  0  0  0  0  0  0
    9.7306  -15.3841   24.2383 N   0  0  0  0  0  0  0  0  0  0  0  0
    9.1612  -15.5702   25.5790 C   0  0  1  0  0  0  0  0  0  0  0  0
    7.6871  -15.3684   25.5574 C   0  0  0  0  0  0  0  0  0  0  0  0
    7.3478  -13.9717   25.8888 C   0  0  0  0  0  0  0  0  0  0  0  0
    6.0667  -13.5687   26.2696 C   0  0  0  0  0  0  0  0  0  0  0  0
    5.7830  -12.2684   26.5760 C   0  0  0  0  0  0  0  0  0  0  0  0
    6.7621  -11.2859   26.5216 C   0  0  0  0  0  0  0  0  0  0  0  0
    8.0344  -11.6481   26.1499 C   0  0  0  0  0  0  0  0  0  0  0  0
    8.3086  -12.9583   25.8440 C   0  0  0  0  0  0  0  0  0  0  0  0
    9.5161  -16.8673   26.1371 C   0  0  0  0  0  0  0  0  0  0  0  0
   10.0848  -17.7928   25.5047 O   0  0  0  0  0  0  0  0  0  0  0  0
    9.2155  -17.1449   27.4885 O   0  0  0  0  0  0  0  0  0  0  0  0
  2  4  1  0
  2  1  1  6
  3  2  1  0
  4  6  1  0
  4  5  1  6
  6  7  2  0
  9  8  1  0
 10  9  2  0
 11  9  1  0
 12 11  1  1
 12 14  1  0
 13 12  1  0
 13  6  1  0
 14 15  2  0
 16 17  1  0
 16 14  1  0
 17 25  1  0
 17 18  1  6
 19 24  2  0
 19 18  1  0
 20 19  1  0
 21 22  1  0
 21 20  2  0
 22 23  2  0
 23 24  1  0
 25 26  2  0
 25 27  1  0
M  END
$$$$
