VNF.pdb
     RDKit          3D

 27 27  0  0  1  0  0  0  0  0999 V2000
   12.7119  -14.8171   21.6864 C   0  0  0  0  0  0  0  0  0  0  0  0
   12.1275  -14.4186   20.3720 C   0  0  1  0  0  0  0  0  0  0  0  0
   13.2300  -14.1961   19.3569 C   0  0  0  0  0  0  0  0  0  0  0  0
   11.1558  -15.4256   19.7950 C   0  0  2  0  0  0  0  0  0  0  0  0
   10.5981  -14.7769   18.5958 N   0  0  0  0  0  0  0  0  0  0  0  0
   10.0415  -15.7117   20.7016 C   0  0  0  0  0  0  0  0  0  0  0  0
    9.1153  -14.8341   20.7428 O   0  0  0  0  0  0  0  0  0  0  0  0
    6.7560  -18.0639   24.1873 N   0  0  0  0  0  0  0  0  0  0  0  0
    7.2271  -18.8205   23.0723 C   0  0  0  0  0  0  0  0  0  0  0  0
    6.6780  -19.9261   22.8571 O   0  0  0  0  0  0  0  0  0  0  0  0
    8.2992  -18.3748   22.1868 C   0  0  0  0  0  0  0  0  0  0  0  0
    8.9259  -17.0614   22.4886 C   0  0  2  0  0  0  0  0  0  0  0  0
    9.9908  -16.8853   21.4828 N   0  0  0  0  0  0  0  0  0  0  0  0
    9.5695  -16.9356   23.8093 C   0  0  0  0  0  0  0  0  0  0  0  0
   10.1905  -17.9363   24.3153 O   0  0  0  0  0  0  0  0  0  0  0  0
    9.5817  -15.7715   24.6219 N   0  0  0  0  0  0  0  0  0  0  0  0
    9.1164  -15.8069   26.0143 C   0  0  1  0  0  0  0  0  0  0  0  0
    7.6484  -15.5746   26.0846 C   0  0  0  0  0  0  0  0  0  0  0  0
    7.3519  -14.1309   26.1452 C   0  0  0  0  0  0  0  0  0  0  0  0
    6.0803  -13.6040   25.9130 C   0  0  0  0  0  0  0  0  0  0  0  0
    5.8342  -12.2623   25.9812 C   0  0  0  0  0  0  0  0  0  0  0  0
    6.8438  -11.3599   26.2861 C   0  0  0  0  0  0  0  0  0  0  0  0
    8.1080  -11.8448   26.5201 C   0  0  0  0  0  0  0  0  0  0  0  0
    8.3443  -13.1955   26.4489 C   0  0  0  0  0  0  0  0  0  0  0  0
    9.4945  -17.0481   26.6747 C   0  0  0  0  0  0  0  0  0  0  0  0
    9.4160  -17.2596   27.9113 O   0  0  0  0  0  0  0  0  0  0  0  0
    9.9912  -18.1200   25.9013 O   0  0  0  0  0  0  0  0  0  0  0  0
  2  4  1  0
  2  1  1  1
  3  2  1  0
  4  6  1  0
  4  5  1  6
  6  7  2  0
  9  8  1  0
 10  9  2  0
 11  9  1  0
 12 11  1  1
 12 14  1  0
 13 12  1  0
 13  6  1  0
 14 15  2  0
 16 17  1  0
 16 14  1  0
 17 25  1  0
 17 18  1  6
 19 24  2  0
 19 18  1  0
 20 19  1  0
 21 22  1  0
 21 20  2  0
 22 23  2  0
 23 24  1  0
 25 26  2  0
 25 27  1  0
M  END
$$$$
